
     RDKit          3D

 58 62  0  0  0  0  0  0  0  0999 V2000
  143.1270   76.8920  218.8140 O   0  0  0  0  0  0  0  0  0  0  0  0
  142.8060   76.4510  219.9450 C   0  0  0  0  0  0  0  0  0  0  0  0
  143.4790   75.2340  220.3430 N   0  0  0  0  0  0  0  0  0  0  0  0
  144.4340   74.5570  219.5610 C   0  0  0  0  0  0  0  0  0  0  0  0
  144.4810   73.1160  219.4680 C   0  0  0  0  0  0  0  0  0  0  0  0
  145.5750   72.6710  218.8850 O   0  0  0  0  0  0  0  0  0  0  0  0
  143.5980   72.1150  219.8690 N   0  0  0  0  0  0  0  0  0  0  0  0
  143.7050   70.8180  220.4890 C   0  0  0  0  0  0  0  0  0  0  0  0
  142.9570   69.9710  219.4480 C   0  0  0  0  0  0  0  0  0  0  0  0
  141.9100   70.9260  218.9040 C   0  0  0  0  0  0  0  0  0  0  0  0
  142.1190   72.2390  219.6730 C   0  0  1  0  0  0  0  0  0  0  0  0
  141.3960   72.1080  220.9450 C   0  0  0  0  0  0  0  0  0  0  0  0
  141.0730   73.1180  221.7470 N   0  0  0  0  0  0  0  0  0  0  0  0
  140.4260   72.5970  222.7980 C   0  0  0  0  0  0  0  0  0  0  0  0
  140.3550   71.1910  222.6210 C   0  0  0  0  0  0  0  0  0  0  0  0
  139.7470   70.4070  223.5420 O   0  0  0  0  0  0  0  0  0  0  0  0
  139.3180   70.6440  224.8280 C   0  0  0  0  0  0  0  0  0  0  0  0
  140.3850   70.4890  225.8490 C   0  0  0  0  0  0  0  0  0  0  0  0
  140.7710   71.7150  226.6000 C   0  0  0  0  0  0  0  0  0  0  0  0
  141.0570   70.7930  227.8030 C   0  0  0  0  0  0  0  0  0  0  0  0
  139.9930   69.8670  227.1780 C   0  0  0  0  0  0  0  0  0  0  0  0
  140.9580   71.0010  221.4920 O   0  0  0  0  0  0  0  0  0  0  0  0
  141.8290   77.1020  220.8080 C   0  0  0  0  0  0  0  0  0  0  0  0
  140.7830   76.3250  221.2640 C   0  0  0  0  0  0  0  0  0  0  0  0
  139.8600   76.9700  222.0890 C   0  0  0  0  0  0  0  0  0  0  0  0
  139.9970   78.3050  222.4230 C   0  0  0  0  0  0  0  0  0  0  0  0
  139.0890   78.9610  223.2410 C   0  0  0  0  0  0  0  0  0  0  0  0
  139.2640   80.2980  223.5490 C   0  0  0  0  0  0  0  0  0  0  0  0
  138.1200   81.1340  224.5840 Cl  0  0  0  0  0  0  0  0  0  0  0  0
  140.3330   81.0240  223.0620 C   0  0  0  0  0  0  0  0  0  0  0  0
  141.2440   80.3790  222.2450 C   0  0  0  0  0  0  0  0  0  0  0  0
  141.0610   79.0440  221.9430 C   0  0  0  0  0  0  0  0  0  0  0  0
  141.9410   78.4120  221.1510 N   0  0  0  0  0  0  0  0  0  0  0  0
  143.1720   74.8960  221.3080 H   0  0  0  0  0  0  0  0  0  0  0  0
  144.3034   74.9253  218.5328 H   0  0  0  0  0  0  0  0  0  0  0  0
  145.3660   74.7784  220.1018 H   0  0  0  0  0  0  0  0  0  0  0  0
  144.7528   70.5014  220.5981 H   0  0  0  0  0  0  0  0  0  0  0  0
  143.3076   70.7564  221.5128 H   0  0  0  0  0  0  0  0  0  0  0  0
  143.6369   69.6366  218.6506 H   0  0  0  0  0  0  0  0  0  0  0  0
  142.5225   69.0539  219.8725 H   0  0  0  0  0  0  0  0  0  0  0  0
  142.0563   71.0840  217.8253 H   0  0  0  0  0  0  0  0  0  0  0  0
  140.8907   70.5333  219.0333 H   0  0  0  0  0  0  0  0  0  0  0  0
  141.7882   73.1836  219.2166 H   0  0  0  0  0  0  0  0  0  0  0  0
  140.0201   73.1614  223.6505 H   0  0  0  0  0  0  0  0  0  0  0  0
  138.9321   71.6727  224.8818 H   0  0  0  0  0  0  0  0  0  0  0  0
  138.5449   69.8946  225.0533 H   0  0  0  0  0  0  0  0  0  0  0  0
  141.0874   69.9814  225.1715 H   0  0  0  0  0  0  0  0  0  0  0  0
  141.6522   72.2399  226.2026 H   0  0  0  0  0  0  0  0  0  0  0  0
  140.1015   72.5842  226.6790 H   0  0  0  0  0  0  0  0  0  0  0  0
  142.0745   70.3769  227.8419 H   0  0  0  0  0  0  0  0  0  0  0  0
  141.0117   71.1385  228.8463 H   0  0  0  0  0  0  0  0  0  0  0  0
  140.2036   68.7910  227.2673 H   0  0  0  0  0  0  0  0  0  0  0  0
  138.9523   69.8381  227.5331 H   0  0  0  0  0  0  0  0  0  0  0  0
  140.6831   75.2633  220.9940 H   0  0  0  0  0  0  0  0  0  0  0  0
  139.0035   76.4031  222.4827 H   0  0  0  0  0  0  0  0  0  0  0  0
  138.2248   78.4148  223.6471 H   0  0  0  0  0  0  0  0  0  0  0  0
  140.4568   82.0869  223.3170 H   0  0  0  0  0  0  0  0  0  0  0  0
  142.1079   80.9255  221.8388 H   0  0  0  0  0  0  0  0  0  0  0  0
  1  2  2  0
  2  3  1  0
  3  4  1  0
  4  5  1  0
  5  6  2  0
  5  7  1  0
  7  8  1  0
  8  9  1  0
  9 10  1  0
 10 11  1  0
 11 12  1  0
 12 13  2  0
 13 14  1  0
 14 15  2  0
 15 16  1  0
 16 17  1  0
 17 18  1  0
 18 19  1  0
 19 20  1  0
 20 21  1  0
 15 22  1  0
  2 23  1  0
 23 24  2  0
 24 25  1  0
 25 26  2  0
 26 27  1  0
 27 28  2  0
 28 29  1  0
 28 30  1  0
 30 31  2  0
 31 32  1  0
 32 33  2  0
 11  7  1  0
 22 12  1  0
 33 23  1  0
 21 18  1  0
 32 26  1  0
  3 34  1  0
  4 35  1  0
  4 36  1  0
  8 37  1  0
  8 38  1  0
  9 39  1  0
  9 40  1  0
 10 41  1  0
 10 42  1  0
 11 43  1  6
 14 44  1  0
 17 45  1  0
 17 46  1  0
 18 47  1  0
 19 48  1  0
 19 49  1  0
 20 50  1  0
 20 51  1  0
 21 52  1  0
 21 53  1  0
 24 54  1  0
 25 55  1  0
 27 56  1  0
 30 57  1  0
 31 58  1  0
M  END
>  <smiles>  (1) 
O=C(NCC(=O)N1CCC[C@H]1c1ncc(OCC2CCC2)o1)c1ccc2cc(Cl)ccc2n1

>  <score_type>  (1) 
oracle

>  <origin>  (1) 
autodockgpu

>  <m_score__min__energy>  (1) 
-8.2899999999999991

>  <m_primary>  (1) 
energy

>  <rmsd>  (1) 
7.892370240335926

>  <m_score__min__rmsd>  (1) 
7.892370240335926

>  <meeko>  (1) 
{"free_energy": -7.34, "intermolecular_energy": -9.73, "internal_energy": -1.88, "cluster_size": 3, "cluster_id": 9, "rank_in_cluster": 2}

>  <energy>  (1) 
-8.29

>  <cluster_rmsd>  (1) 
0.0

>  <cluster>  (1) 
1

$$$$

     RDKit          3D

 58 62  0  0  0  0  0  0  0  0999 V2000
  139.9670   72.6960  221.1560 O   0  0  0  0  0  0  0  0  0  0  0  0
  139.2100   72.5660  222.1490 C   0  0  0  0  0  0  0  0  0  0  0  0
  138.0660   73.4510  222.1670 N   0  0  0  0  0  0  0  0  0  0  0  0
  137.7750   74.4020  221.1710 C   0  0  0  0  0  0  0  0  0  0  0  0
  138.3030   75.7460  221.2020 C   0  0  0  0  0  0  0  0  0  0  0  0
  137.3760   76.6700  221.0520 O   0  0  0  0  0  0  0  0  0  0  0  0
  139.5940   76.2490  221.3540 N   0  0  0  0  0  0  0  0  0  0  0  0
  140.6770   76.0760  222.2890 C   0  0  0  0  0  0  0  0  0  0  0  0
  140.9030   77.5380  222.6990 C   0  0  0  0  0  0  0  0  0  0  0  0
  140.5540   78.3140  221.4410 C   0  0  0  0  0  0  0  0  0  0  0  0
  140.1700   77.2510  220.4020 C   0  0  1  0  0  0  0  0  0  0  0  0
  141.4210   76.7650  219.8040 C   0  0  0  0  0  0  0  0  0  0  0  0
  142.4310   77.5370  219.4170 N   0  0  0  0  0  0  0  0  0  0  0  0
  143.3810   76.7290  218.9260 C   0  0  0  0  0  0  0  0  0  0  0  0
  142.9170   75.3930  219.0240 C   0  0  0  0  0  0  0  0  0  0  0  0
  143.6840   74.3610  218.5980 O   0  0  0  0  0  0  0  0  0  0  0  0
  143.7790   73.0470  218.9950 C   0  0  0  0  0  0  0  0  0  0  0  0
  144.5780   72.8550  220.2320 C   0  0  0  0  0  0  0  0  0  0  0  0
  145.9460   72.2950  220.0590 C   0  0  0  0  0  0  0  0  0  0  0  0
  146.3610   73.1430  221.2800 C   0  0  0  0  0  0  0  0  0  0  0  0
  145.2200   74.0860  220.8460 C   0  0  0  0  0  0  0  0  0  0  0  0
  141.7460   75.5210  219.5580 O   0  0  0  0  0  0  0  0  0  0  0  0
  139.4470   71.6010  223.2130 C   0  0  0  0  0  0  0  0  0  0  0  0
  138.9990   70.3120  223.0010 C   0  0  0  0  0  0  0  0  0  0  0  0
  139.2380   69.4060  224.0340 C   0  0  0  0  0  0  0  0  0  0  0  0
  139.8850   69.7860  225.1950 C   0  0  0  0  0  0  0  0  0  0  0  0
  140.1310   68.8980  226.2320 C   0  0  0  0  0  0  0  0  0  0  0  0
  140.7820   69.3210  227.3770 C   0  0  0  0  0  0  0  0  0  0  0  0
  141.0960   68.2030  228.6920 Cl  0  0  0  0  0  0  0  0  0  0  0  0
  141.2080   70.6260  227.5320 C   0  0  0  0  0  0  0  0  0  0  0  0
  140.9680   71.5200  226.5050 C   0  0  0  0  0  0  0  0  0  0  0  0
  140.3180   71.0880  225.3650 C   0  0  0  0  0  0  0  0  0  0  0  0
  140.0820   71.9490  224.3640 N   0  0  0  0  0  0  0  0  0  0  0  0
  137.4530   73.3060  223.0300 H   0  0  0  0  0  0  0  0  0  0  0  0
  138.1139   73.9627  220.2212 H   0  0  0  0  0  0  0  0  0  0  0  0
  136.7016   74.5781  221.3349 H   0  0  0  0  0  0  0  0  0  0  0  0
  140.3825   75.4517  223.1454 H   0  0  0  0  0  0  0  0  0  0  0  0
  141.5627   75.5632  221.8859 H   0  0  0  0  0  0  0  0  0  0  0  0
  140.2418   77.8201  223.5317 H   0  0  0  0  0  0  0  0  0  0  0  0
  141.9263   77.7316  223.0531 H   0  0  0  0  0  0  0  0  0  0  0  0
  139.7085   78.9921  221.6288 H   0  0  0  0  0  0  0  0  0  0  0  0
  141.3927   78.9379  221.0984 H   0  0  0  0  0  0  0  0  0  0  0  0
  139.5102   77.5340  219.5686 H   0  0  0  0  0  0  0  0  0  0  0  0
  144.3517   77.0471  218.5180 H   0  0  0  0  0  0  0  0  0  0  0  0
  142.7636   72.6637  219.1741 H   0  0  0  0  0  0  0  0  0  0  0  0
  144.2958   72.5038  218.1901 H   0  0  0  0  0  0  0  0  0  0  0  0
  143.7904   72.3027  220.7655 H   0  0  0  0  0  0  0  0  0  0  0  0
  146.0205   71.2075  220.2068 H   0  0  0  0  0  0  0  0  0  0  0  0
  146.4822   72.3529  219.1003 H   0  0  0  0  0  0  0  0  0  0  0  0
  146.2204   72.6570  222.2568 H   0  0  0  0  0  0  0  0  0  0  0  0
  147.3921   73.4877  221.4474 H   0  0  0  0  0  0  0  0  0  0  0  0
  144.6544   74.5415  221.6722 H   0  0  0  0  0  0  0  0  0  0  0  0
  145.4003   75.0070  220.2723 H   0  0  0  0  0  0  0  0  0  0  0  0
  138.4850   70.0178  222.0740 H   0  0  0  0  0  0  0  0  0  0  0  0
  138.9037   68.3640  223.9222 H   0  0  0  0  0  0  0  0  0  0  0  0
  139.8063   67.8508  226.1432 H   0  0  0  0  0  0  0  0  0  0  0  0
  141.7248   70.9456  228.4489 H   0  0  0  0  0  0  0  0  0  0  0  0
  141.2921   72.5673  226.5949 H   0  0  0  0  0  0  0  0  0  0  0  0
  1  2  2  0
  2  3  1  0
  3  4  1  0
  4  5  1  0
  5  6  2  0
  5  7  1  0
  7  8  1  0
  8  9  1  0
  9 10  1  0
 10 11  1  0
 11 12  1  0
 12 13  2  0
 13 14  1  0
 14 15  2  0
 15 16  1  0
 16 17  1  0
 17 18  1  0
 18 19  1  0
 19 20  1  0
 20 21  1  0
 15 22  1  0
  2 23  1  0
 23 24  2  0
 24 25  1  0
 25 26  2  0
 26 27  1  0
 27 28  2  0
 28 29  1  0
 28 30  1  0
 30 31  2  0
 31 32  1  0
 32 33  2  0
 11  7  1  0
 22 12  1  0
 33 23  1  0
 21 18  1  0
 32 26  1  0
  3 34  1  0
  4 35  1  0
  4 36  1  0
  8 37  1  0
  8 38  1  0
  9 39  1  0
  9 40  1  0
 10 41  1  0
 10 42  1  0
 11 43  1  6
 14 44  1  0
 17 45  1  0
 17 46  1  0
 18 47  1  0
 19 48  1  0
 19 49  1  0
 20 50  1  0
 20 51  1  0
 21 52  1  0
 21 53  1  0
 24 54  1  0
 25 55  1  0
 27 56  1  0
 30 57  1  0
 31 58  1  0
M  END
>  <smiles>  (2) 
O=C(NCC(=O)N1CCC[C@H]1c1ncc(OCC2CCC2)o1)c1ccc2cc(Cl)ccc2n1

>  <score_type>  (2) 
oracle

>  <origin>  (2) 
autodockgpu

>  <m_score__min__energy>  (2) 
-8.2899999999999991

>  <m_primary>  (2) 
energy

>  <rmsd>  (2) 
2.905184874325748

>  <m_score__min__rmsd>  (2) 
2.905184874325748

>  <meeko>  (2) 
{"free_energy": -7.68, "intermolecular_energy": -10.06, "internal_energy": -1.87, "cluster_size": 5, "cluster_id": 4, "rank_in_cluster": 1}

>  <energy>  (2) 
-7.99

>  <cluster_rmsd>  (2) 
1.94

>  <cluster>  (2) 
1

$$$$

     RDKit          3D

 58 62  0  0  0  0  0  0  0  0999 V2000
  141.3140   75.1060  218.8390 O   0  0  0  0  0  0  0  0  0  0  0  0
  141.7370   75.8040  219.7930 C   0  0  0  0  0  0  0  0  0  0  0  0
  143.1670   75.7490  220.0050 N   0  0  0  0  0  0  0  0  0  0  0  0
  144.0620   74.9920  219.2270 C   0  0  0  0  0  0  0  0  0  0  0  0
  144.2690   73.5780  219.4370 C   0  0  0  0  0  0  0  0  0  0  0  0
  145.4340   73.1530  218.9890 O   0  0  0  0  0  0  0  0  0  0  0  0
  143.4800   72.5830  220.0110 N   0  0  0  0  0  0  0  0  0  0  0  0
  143.6850   71.4900  220.9280 C   0  0  0  0  0  0  0  0  0  0  0  0
  143.1420   70.3320  220.0780 C   0  0  0  0  0  0  0  0  0  0  0  0
  142.0420   70.9840  219.2590 C   0  0  0  0  0  0  0  0  0  0  0  0
  142.0210   72.4540  219.7040 C   0  0  1  0  0  0  0  0  0  0  0  0
  141.2070   72.5190  220.9250 C   0  0  0  0  0  0  0  0  0  0  0  0
  140.2150   73.3790  221.1350 N   0  0  0  0  0  0  0  0  0  0  0  0
  139.7230   73.1240  222.3560 C   0  0  0  0  0  0  0  0  0  0  0  0
  140.4620   72.0490  222.9130 C   0  0  0  0  0  0  0  0  0  0  0  0
  140.1740   71.5810  224.1510 O   0  0  0  0  0  0  0  0  0  0  0  0
  140.4180   70.3760  224.7690 C   0  0  0  0  0  0  0  0  0  0  0  0
  141.0550   70.5090  226.1040 C   0  0  0  0  0  0  0  0  0  0  0  0
  141.1240   71.8830  226.6740 C   0  0  0  0  0  0  0  0  0  0  0  0
  140.9830   71.2270  228.0640 C   0  0  0  0  0  0  0  0  0  0  0  0
  140.2290   70.1090  227.3130 C   0  0  0  0  0  0  0  0  0  0  0  0
  141.3180   71.7620  221.9870 O   0  0  0  0  0  0  0  0  0  0  0  0
  140.8690   76.6140  220.6360 C   0  0  0  0  0  0  0  0  0  0  0  0
  139.5160   76.3430  220.5840 C   0  0  0  0  0  0  0  0  0  0  0  0
  138.7050   77.1320  221.4000 C   0  0  0  0  0  0  0  0  0  0  0  0
  139.2350   78.1220  222.2080 C   0  0  0  0  0  0  0  0  0  0  0  0
  138.4430   78.9150  223.0250 C   0  0  0  0  0  0  0  0  0  0  0  0
  139.0140   79.8940  223.8170 C   0  0  0  0  0  0  0  0  0  0  0  0
  138.0190   80.9000  224.8540 Cl  0  0  0  0  0  0  0  0  0  0  0  0
  140.3770   80.1180  223.8280 C   0  0  0  0  0  0  0  0  0  0  0  0
  141.1760   79.3330  223.0160 C   0  0  0  0  0  0  0  0  0  0  0  0
  140.5960   78.3580  222.2290 C   0  0  0  0  0  0  0  0  0  0  0  0
  141.3650   77.5920  221.4400 N   0  0  0  0  0  0  0  0  0  0  0  0
  143.4800   76.3550  220.8270 H   0  0  0  0  0  0  0  0  0  0  0  0
  143.7275   75.1002  218.1847 H   0  0  0  0  0  0  0  0  0  0  0  0
  145.0333   75.4095  219.5307 H   0  0  0  0  0  0  0  0  0  0  0  0
  144.7490   71.3546  221.1721 H   0  0  0  0  0  0  0  0  0  0  0  0
  143.2062   71.6107  221.9109 H   0  0  0  0  0  0  0  0  0  0  0  0
  143.9267   69.9201  219.4264 H   0  0  0  0  0  0  0  0  0  0  0  0
  142.7837   69.4859  220.6828 H   0  0  0  0  0  0  0  0  0  0  0  0
  142.2664   70.9100  218.1847 H   0  0  0  0  0  0  0  0  0  0  0  0
  141.0695   70.4945  219.4159 H   0  0  0  0  0  0  0  0  0  0  0  0
  141.6213   73.2145  219.0170 H   0  0  0  0  0  0  0  0  0  0  0  0
  138.8913   73.6558  222.8412 H   0  0  0  0  0  0  0  0  0  0  0  0
  139.4607   69.8484  224.8918 H   0  0  0  0  0  0  0  0  0  0  0  0
  141.1223   69.8233  224.1299 H   0  0  0  0  0  0  0  0  0  0  0  0
  141.9625   69.9512  225.8295 H   0  0  0  0  0  0  0  0  0  0  0  0
  142.0779   72.4042  226.5053 H   0  0  0  0  0  0  0  0  0  0  0  0
  140.4526   72.6872  226.3386 H   0  0  0  0  0  0  0  0  0  0  0  0
  141.9286   70.9194  228.5343 H   0  0  0  0  0  0  0  0  0  0  0  0
  140.5634   71.7523  228.9346 H   0  0  0  0  0  0  0  0  0  0  0  0
  140.4154   69.0913  227.6866 H   0  0  0  0  0  0  0  0  0  0  0  0
  139.1308   70.0517  227.2859 H   0  0  0  0  0  0  0  0  0  0  0  0
  139.1031   75.5535  219.9388 H   0  0  0  0  0  0  0  0  0  0  0  0
  137.6181   76.9629  221.4010 H   0  0  0  0  0  0  0  0  0  0  0  0
  137.3535   78.7641  223.0430 H   0  0  0  0  0  0  0  0  0  0  0  0
  140.8155   80.8998  224.4655 H   0  0  0  0  0  0  0  0  0  0  0  0
  142.2654   79.4845  222.9975 H   0  0  0  0  0  0  0  0  0  0  0  0
  1  2  2  0
  2  3  1  0
  3  4  1  0
  4  5  1  0
  5  6  2  0
  5  7  1  0
  7  8  1  0
  8  9  1  0
  9 10  1  0
 10 11  1  0
 11 12  1  0
 12 13  2  0
 13 14  1  0
 14 15  2  0
 15 16  1  0
 16 17  1  0
 17 18  1  0
 18 19  1  0
 19 20  1  0
 20 21  1  0
 15 22  1  0
  2 23  1  0
 23 24  2  0
 24 25  1  0
 25 26  2  0
 26 27  1  0
 27 28  2  0
 28 29  1  0
 28 30  1  0
 30 31  2  0
 31 32  1  0
 32 33  2  0
 11  7  1  0
 22 12  1  0
 33 23  1  0
 21 18  1  0
 32 26  1  0
  3 34  1  0
  4 35  1  0
  4 36  1  0
  8 37  1  0
  8 38  1  0
  9 39  1  0
  9 40  1  0
 10 41  1  0
 10 42  1  0
 11 43  1  6
 14 44  1  0
 17 45  1  0
 17 46  1  0
 18 47  1  0
 19 48  1  0
 19 49  1  0
 20 50  1  0
 20 51  1  0
 21 52  1  0
 21 53  1  0
 24 54  1  0
 25 55  1  0
 27 56  1  0
 30 57  1  0
 31 58  1  0
M  END
>  <smiles>  (3) 
O=C(NCC(=O)N1CCC[C@H]1c1ncc(OCC2CCC2)o1)c1ccc2cc(Cl)ccc2n1

>  <score_type>  (3) 
oracle

>  <origin>  (3) 
autodockgpu

>  <m_score__min__energy>  (3) 
-8.2899999999999991

>  <m_primary>  (3) 
energy

>  <rmsd>  (3) 
7.556668243786838

>  <m_score__min__rmsd>  (3) 
7.556668243786838

>  <meeko>  (3) 
{"free_energy": -6.95, "intermolecular_energy": -9.34, "internal_energy": -2.07, "cluster_size": 3, "cluster_id": 9, "rank_in_cluster": 3}

>  <energy>  (3) 
-7.86

>  <cluster_rmsd>  (3) 
0.69

>  <cluster>  (3) 
1

$$$$

     RDKit          3D

 58 62  0  0  0  0  0  0  0  0999 V2000
  138.2810   72.9740  220.6210 O   0  0  0  0  0  0  0  0  0  0  0  0
  138.1790   73.7060  221.6370 C   0  0  0  0  0  0  0  0  0  0  0  0
  137.1410   73.3230  222.5670 N   0  0  0  0  0  0  0  0  0  0  0  0
  136.2840   72.2190  222.3980 C   0  0  0  0  0  0  0  0  0  0  0  0
  136.7600   70.9240  221.9710 C   0  0  0  0  0  0  0  0  0  0  0  0
  135.9570   70.3370  221.1060 O   0  0  0  0  0  0  0  0  0  0  0  0
  137.8910   70.1790  222.2970 N   0  0  0  0  0  0  0  0  0  0  0  0
  139.3130   70.4130  222.3500 C   0  0  0  0  0  0  0  0  0  0  0  0
  139.7970   69.2800  221.4320 C   0  0  0  0  0  0  0  0  0  0  0  0
  138.7810   68.1770  221.6690 C   0  0  0  0  0  0  0  0  0  0  0  0
  137.8020   68.7430  222.7090 C   0  0  1  0  0  0  0  0  0  0  0  0
  138.4090   68.5250  224.0290 C   0  0  0  0  0  0  0  0  0  0  0  0
  139.2030   67.5070  224.3450 N   0  0  0  0  0  0  0  0  0  0  0  0
  139.5480   67.6580  225.6310 C   0  0  0  0  0  0  0  0  0  0  0  0
  138.9250   68.8350  226.1190 C   0  0  0  0  0  0  0  0  0  0  0  0
  139.1040   69.2320  227.4010 O   0  0  0  0  0  0  0  0  0  0  0  0
  140.2070   69.2520  228.2230 C   0  0  0  0  0  0  0  0  0  0  0  0
  141.0820   70.4340  228.0180 C   0  0  0  0  0  0  0  0  0  0  0  0
  141.2600   70.8940  226.6140 C   0  0  0  0  0  0  0  0  0  0  0  0
  141.3790   72.3240  227.1820 C   0  0  0  0  0  0  0  0  0  0  0  0
  140.4950   71.7990  228.3330 C   0  0  0  0  0  0  0  0  0  0  0  0
  138.2720   69.2760  225.0930 O   0  0  0  0  0  0  0  0  0  0  0  0
  139.0340   74.8610  221.8780 C   0  0  0  0  0  0  0  0  0  0  0  0
  140.3760   74.7160  221.5880 C   0  0  0  0  0  0  0  0  0  0  0  0
  141.1750   75.8350  221.8270 C   0  0  0  0  0  0  0  0  0  0  0  0
  140.6440   77.0110  222.3230 C   0  0  0  0  0  0  0  0  0  0  0  0
  141.4230   78.1320  222.5660 C   0  0  0  0  0  0  0  0  0  0  0  0
  140.8510   79.2890  223.0630 C   0  0  0  0  0  0  0  0  0  0  0  0
  141.8310   80.7100  223.3730 Cl  0  0  0  0  0  0  0  0  0  0  0  0
  139.4990   79.3740  223.3340 C   0  0  0  0  0  0  0  0  0  0  0  0
  138.7120   78.2610  223.0950 C   0  0  0  0  0  0  0  0  0  0  0  0
  139.2930   77.1110  222.5980 C   0  0  0  0  0  0  0  0  0  0  0  0
  138.5370   76.0280  222.3640 N   0  0  0  0  0  0  0  0  0  0  0  0
  137.0900   73.9740  223.4120 H   0  0  0  0  0  0  0  0  0  0  0  0
  135.7964   72.0594  223.3710 H   0  0  0  0  0  0  0  0  0  0  0  0
  135.6804   72.5330  221.5336 H   0  0  0  0  0  0  0  0  0  0  0  0
  139.5799   71.4036  221.9533 H   0  0  0  0  0  0  0  0  0  0  0  0
  139.7480   70.4121  223.3603 H   0  0  0  0  0  0  0  0  0  0  0  0
  139.7942   69.5982  220.3790 H   0  0  0  0  0  0  0  0  0  0  0  0
  140.8295   68.9660  221.6451 H   0  0  0  0  0  0  0  0  0  0  0  0
  138.2527   67.9329  220.7356 H   0  0  0  0  0  0  0  0  0  0  0  0
  139.2576   67.2489  222.0175 H   0  0  0  0  0  0  0  0  0  0  0  0
  136.7813   68.3358  222.7584 H   0  0  0  0  0  0  0  0  0  0  0  0
  140.2007   66.9861  226.2077 H   0  0  0  0  0  0  0  0  0  0  0  0
  139.8619   69.2522  229.2675 H   0  0  0  0  0  0  0  0  0  0  0  0
  140.8060   68.3621  227.9794 H   0  0  0  0  0  0  0  0  0  0  0  0
  141.9209   70.0305  228.6040 H   0  0  0  0  0  0  0  0  0  0  0  0
  142.1672   70.5186  226.1179 H   0  0  0  0  0  0  0  0  0  0  0  0
  140.5401   70.6398  225.8220 H   0  0  0  0  0  0  0  0  0  0  0  0
  142.3950   72.6283  227.4739 H   0  0  0  0  0  0  0  0  0  0  0  0
  141.1306   73.2227  226.5983 H   0  0  0  0  0  0  0  0  0  0  0  0
  140.7456   72.1940  229.3286 H   0  0  0  0  0  0  0  0  0  0  0  0
  139.4111   71.9811  228.3769 H   0  0  0  0  0  0  0  0  0  0  0  0
  140.7899   73.7765  221.1930 H   0  0  0  0  0  0  0  0  0  0  0  0
  142.2531   75.7799  221.6156 H   0  0  0  0  0  0  0  0  0  0  0  0
  142.5035   78.1009  222.3621 H   0  0  0  0  0  0  0  0  0  0  0  0
  139.0597   80.3018  223.7293 H   0  0  0  0  0  0  0  0  0  0  0  0
  137.6316   78.2921  223.2994 H   0  0  0  0  0  0  0  0  0  0  0  0
  1  2  2  0
  2  3  1  0
  3  4  1  0
  4  5  1  0
  5  6  2  0
  5  7  1  0
  7  8  1  0
  8  9  1  0
  9 10  1  0
 10 11  1  0
 11 12  1  0
 12 13  2  0
 13 14  1  0
 14 15  2  0
 15 16  1  0
 16 17  1  0
 17 18  1  0
 18 19  1  0
 19 20  1  0
 20 21  1  0
 15 22  1  0
  2 23  1  0
 23 24  2  0
 24 25  1  0
 25 26  2  0
 26 27  1  0
 27 28  2  0
 28 29  1  0
 28 30  1  0
 30 31  2  0
 31 32  1  0
 32 33  2  0
 11  7  1  0
 22 12  1  0
 33 23  1  0
 21 18  1  0
 32 26  1  0
  3 34  1  0
  4 35  1  0
  4 36  1  0
  8 37  1  0
  8 38  1  0
  9 39  1  0
  9 40  1  0
 10 41  1  0
 10 42  1  0
 11 43  1  1
 14 44  1  0
 17 45  1  0
 17 46  1  0
 18 47  1  0
 19 48  1  0
 19 49  1  0
 20 50  1  0
 20 51  1  0
 21 52  1  0
 21 53  1  0
 24 54  1  0
 25 55  1  0
 27 56  1  0
 30 57  1  0
 31 58  1  0
M  END
>  <smiles>  (4) 
O=C(NCC(=O)N1CCC[C@H]1c1ncc(OCC2CCC2)o1)c1ccc2cc(Cl)ccc2n1

>  <score_type>  (4) 
oracle

>  <origin>  (4) 
autodockgpu

>  <m_score__min__energy>  (4) 
-8.2899999999999991

>  <m_primary>  (4) 
energy

>  <rmsd>  (4) 
8.161752812685727

>  <m_score__min__rmsd>  (4) 
8.161752812685727

>  <meeko>  (4) 
{"free_energy": -7.88, "intermolecular_energy": -10.26, "internal_energy": -2.0, "cluster_size": 7, "cluster_id": 3, "rank_in_cluster": 2}

>  <energy>  (4) 
-7.82

>  <cluster_rmsd>  (4) 
1.15

>  <cluster>  (4) 
1

$$$$

     RDKit          3D

 58 62  0  0  0  0  0  0  0  0999 V2000
  136.2460   74.3100  221.9730 O   0  0  0  0  0  0  0  0  0  0  0  0
  137.3590   74.3410  221.3920 C   0  0  0  0  0  0  0  0  0  0  0  0
  137.5170   73.3810  220.3220 N   0  0  0  0  0  0  0  0  0  0  0  0
  136.5300   72.4630  219.9180 C   0  0  0  0  0  0  0  0  0  0  0  0
  136.2840   71.2260  220.6220 C   0  0  0  0  0  0  0  0  0  0  0  0
  135.8230   70.2690  219.8420 O   0  0  0  0  0  0  0  0  0  0  0  0
  136.4350   70.8540  221.9560 N   0  0  0  0  0  0  0  0  0  0  0  0
  135.5910   70.3020  222.9860 C   0  0  0  0  0  0  0  0  0  0  0  0
  135.7860   71.3640  224.0780 C   0  0  0  0  0  0  0  0  0  0  0  0
  137.2120   71.8350  223.8610 C   0  0  0  0  0  0  0  0  0  0  0  0
  137.7370   71.0070  222.6790 C   0  0  1  0  0  0  0  0  0  0  0  0
  138.2010   69.7250  223.2270 C   0  0  0  0  0  0  0  0  0  0  0  0
  138.4310   68.6280  222.5130 N   0  0  0  0  0  0  0  0  0  0  0  0
  138.8370   67.6780  223.3670 C   0  0  0  0  0  0  0  0  0  0  0  0
  138.8530   68.2350  224.6710 C   0  0  0  0  0  0  0  0  0  0  0  0
  139.2290   67.4900  225.7370 O   0  0  0  0  0  0  0  0  0  0  0  0
  140.3990   67.4210  226.4580 C   0  0  0  0  0  0  0  0  0  0  0  0
  140.7210   68.6710  227.1920 C   0  0  0  0  0  0  0  0  0  0  0  0
  141.0710   69.8570  226.3630 C   0  0  0  0  0  0  0  0  0  0  0  0
  140.4220   70.7200  227.4660 C   0  0  0  0  0  0  0  0  0  0  0  0
  139.5580   69.4720  227.7480 C   0  0  0  0  0  0  0  0  0  0  0  0
  138.4610   69.4530  224.4810 O   0  0  0  0  0  0  0  0  0  0  0  0
  138.4240   75.2660  221.7550 C   0  0  0  0  0  0  0  0  0  0  0  0
  139.7200   74.8250  221.5790 C   0  0  0  0  0  0  0  0  0  0  0  0
  140.7240   75.7280  221.9330 C   0  0  0  0  0  0  0  0  0  0  0  0
  140.4250   76.9840  222.4280 C   0  0  0  0  0  0  0  0  0  0  0  0
  141.4100   77.8940  222.7850 C   0  0  0  0  0  0  0  0  0  0  0  0
  141.0670   79.1400  223.2760 C   0  0  0  0  0  0  0  0  0  0  0  0
  142.3070   80.2960  223.7290 Cl  0  0  0  0  0  0  0  0  0  0  0  0
  139.7490   79.5250  223.4300 C   0  0  0  0  0  0  0  0  0  0  0  0
  138.7590   78.6260  223.0770 C   0  0  0  0  0  0  0  0  0  0  0  0
  139.1120   77.3830  222.5870 C   0  0  0  0  0  0  0  0  0  0  0  0
  138.1570   76.5060  222.2430 N   0  0  0  0  0  0  0  0  0  0  0  0
  138.4790   73.4420  219.8600 H   0  0  0  0  0  0  0  0  0  0  0  0
  135.5782   73.0143  219.9279 H   0  0  0  0  0  0  0  0  0  0  0  0
  136.9375   72.1007  218.9627 H   0  0  0  0  0  0  0  0  0  0  0  0
  134.5416   70.2348  222.6630 H   0  0  0  0  0  0  0  0  0  0  0  0
  135.8362   69.2730  223.2876 H   0  0  0  0  0  0  0  0  0  0  0  0
  135.0743   72.1932  223.9520 H   0  0  0  0  0  0  0  0  0  0  0  0
  135.6125   70.9739  225.0918 H   0  0  0  0  0  0  0  0  0  0  0  0
  137.2307   72.9077  223.6184 H   0  0  0  0  0  0  0  0  0  0  0  0
  137.8295   71.7014  224.7615 H   0  0  0  0  0  0  0  0  0  0  0  0
  138.5618   71.4080  222.0716 H   0  0  0  0  0  0  0  0  0  0  0  0
  139.1103   66.6459  223.1024 H   0  0  0  0  0  0  0  0  0  0  0  0
  140.3098   66.6027  227.1877 H   0  0  0  0  0  0  0  0  0  0  0  0
  141.2123   67.2525  225.7367 H   0  0  0  0  0  0  0  0  0  0  0  0
  141.4536   68.1983  227.8627 H   0  0  0  0  0  0  0  0  0  0  0  0
  142.1501   70.0205  226.2256 H   0  0  0  0  0  0  0  0  0  0  0  0
  140.7715   69.9388  225.3077 H   0  0  0  0  0  0  0  0  0  0  0  0
  141.0948   71.0180  228.2837 H   0  0  0  0  0  0  0  0  0  0  0  0
  139.9934   71.7148  227.2742 H   0  0  0  0  0  0  0  0  0  0  0  0
  139.3355   69.2916  228.8101 H   0  0  0  0  0  0  0  0  0  0  0  0
  138.5314   69.3655  227.3675 H   0  0  0  0  0  0  0  0  0  0  0  0
  139.9477   73.8239  221.1842 H   0  0  0  0  0  0  0  0  0  0  0  0
  141.7773   75.4336  221.8155 H   0  0  0  0  0  0  0  0  0  0  0  0
  142.4704   77.6222  222.6766 H   0  0  0  0  0  0  0  0  0  0  0  0
  139.4938   80.5202  223.8230 H   0  0  0  0  0  0  0  0  0  0  0  0
  137.6988   78.8983  223.1854 H   0  0  0  0  0  0  0  0  0  0  0  0
  1  2  2  0
  2  3  1  0
  3  4  1  0
  4  5  1  0
  5  6  2  0
  5  7  1  0
  7  8  1  0
  8  9  1  0
  9 10  1  0
 10 11  1  0
 11 12  1  0
 12 13  2  0
 13 14  1  0
 14 15  2  0
 15 16  1  0
 16 17  1  0
 17 18  1  0
 18 19  1  0
 19 20  1  0
 20 21  1  0
 15 22  1  0
  2 23  1  0
 23 24  2  0
 24 25  1  0
 25 26  2  0
 26 27  1  0
 27 28  2  0
 28 29  1  0
 28 30  1  0
 30 31  2  0
 31 32  1  0
 32 33  2  0
 11  7  1  0
 22 12  1  0
 33 23  1  0
 21 18  1  0
 32 26  1  0
  3 34  1  0
  4 35  1  0
  4 36  1  0
  8 37  1  0
  8 38  1  0
  9 39  1  0
  9 40  1  0
 10 41  1  0
 10 42  1  0
 11 43  1  6
 14 44  1  0
 17 45  1  0
 17 46  1  0
 18 47  1  0
 19 48  1  0
 19 49  1  0
 20 50  1  0
 20 51  1  0
 21 52  1  0
 21 53  1  0
 24 54  1  0
 25 55  1  0
 27 56  1  0
 30 57  1  0
 31 58  1  0
M  END
>  <smiles>  (5) 
O=C(NCC(=O)N1CCC[C@H]1c1ncc(OCC2CCC2)o1)c1ccc2cc(Cl)ccc2n1

>  <score_type>  (5) 
oracle

>  <origin>  (5) 
autodockgpu

>  <m_score__min__energy>  (5) 
-8.2899999999999991

>  <m_primary>  (5) 
energy

>  <rmsd>  (5) 
8.017477626813552

>  <m_score__min__rmsd>  (5) 
8.017477626813552

>  <meeko>  (5) 
{"free_energy": -6.76, "intermolecular_energy": -9.14, "internal_energy": -2.09, "cluster_size": 7, "cluster_id": 3, "rank_in_cluster": 6}

>  <energy>  (5) 
-7.69

>  <cluster_rmsd>  (5) 
1.48

>  <cluster>  (5) 
1

$$$$

     RDKit          3D

 58 62  0  0  0  0  0  0  0  0999 V2000
  133.9090   70.2730  226.1170 O   0  0  0  0  0  0  0  0  0  0  0  0
  134.0630   71.4490  225.7040 C   0  0  0  0  0  0  0  0  0  0  0  0
  134.9290   71.5850  224.5530 N   0  0  0  0  0  0  0  0  0  0  0  0
  135.5710   70.5130  223.9050 C   0  0  0  0  0  0  0  0  0  0  0  0
  136.6470   69.7670  224.5160 C   0  0  0  0  0  0  0  0  0  0  0  0
  136.2240   68.8280  225.3380 O   0  0  0  0  0  0  0  0  0  0  0  0
  138.0340   69.8510  224.4080 N   0  0  0  0  0  0  0  0  0  0  0  0
  139.1250   68.9230  224.2530 C   0  0  0  0  0  0  0  0  0  0  0  0
  139.9820   69.3230  225.4630 C   0  0  0  0  0  0  0  0  0  0  0  0
  139.7210   70.8130  225.6000 C   0  0  0  0  0  0  0  0  0  0  0  0
  138.7540   71.1630  224.4600 C   0  0  1  0  0  0  0  0  0  0  0  0
  139.5700   71.3750  223.2570 C   0  0  0  0  0  0  0  0  0  0  0  0
  139.4640   70.6780  222.1300 N   0  0  0  0  0  0  0  0  0  0  0  0
  140.3740   71.1670  221.2760 C   0  0  0  0  0  0  0  0  0  0  0  0
  141.0680   72.2200  221.9250 C   0  0  0  0  0  0  0  0  0  0  0  0
  142.0500   72.8980  221.2860 O   0  0  0  0  0  0  0  0  0  0  0  0
  142.9830   72.5200  220.3490 C   0  0  0  0  0  0  0  0  0  0  0  0
  144.3870   72.6810  220.8060 C   0  0  0  0  0  0  0  0  0  0  0  0
  145.4500   72.3180  219.8300 C   0  0  0  0  0  0  0  0  0  0  0  0
  146.3090   73.4270  220.4730 C   0  0  0  0  0  0  0  0  0  0  0  0
  144.9580   74.0880  220.8210 C   0  0  0  0  0  0  0  0  0  0  0  0
  140.5170   72.2650  223.0950 O   0  0  0  0  0  0  0  0  0  0  0  0
  133.4270   72.6030  226.3230 C   0  0  0  0  0  0  0  0  0  0  0  0
  132.2820   72.3670  227.0580 C   0  0  0  0  0  0  0  0  0  0  0  0
  131.6910   73.4880  227.6410 C   0  0  0  0  0  0  0  0  0  0  0  0
  132.2280   74.7530  227.4870 C   0  0  0  0  0  0  0  0  0  0  0  0
  131.6530   75.8770  228.0600 C   0  0  0  0  0  0  0  0  0  0  0  0
  132.2230   77.1240  227.8800 C   0  0  0  0  0  0  0  0  0  0  0  0
  131.5010   78.5510  228.6020 Cl  0  0  0  0  0  0  0  0  0  0  0  0
  133.3720   77.2980  227.1330 C   0  0  0  0  0  0  0  0  0  0  0  0
  133.9530   76.1840  226.5570 C   0  0  0  0  0  0  0  0  0  0  0  0
  133.3770   74.9430  226.7430 C   0  0  0  0  0  0  0  0  0  0  0  0
  133.9350   73.8570  226.1870 N   0  0  0  0  0  0  0  0  0  0  0  0
  135.0330   72.6000  224.2390 H   0  0  0  0  0  0  0  0  0  0  0  0
  134.7838   69.7800  223.6748 H   0  0  0  0  0  0  0  0  0  0  0  0
  136.0917   71.0264  223.0833 H   0  0  0  0  0  0  0  0  0  0  0  0
  138.7862   67.8786  224.3190 H   0  0  0  0  0  0  0  0  0  0  0  0
  139.6404   68.9686  223.2823 H   0  0  0  0  0  0  0  0  0  0  0  0
  139.6639   68.7827  226.3668 H   0  0  0  0  0  0  0  0  0  0  0  0
  141.0477   69.0832  225.3333 H   0  0  0  0  0  0  0  0  0  0  0  0
  139.2633   71.0357  226.5752 H   0  0  0  0  0  0  0  0  0  0  0  0
  140.6505   71.3985  225.5428 H   0  0  0  0  0  0  0  0  0  0  0  0
  138.1059   72.0459  224.5622 H   0  0  0  0  0  0  0  0  0  0  0  0
  140.5517   70.8130  220.2498 H   0  0  0  0  0  0  0  0  0  0  0  0
  142.8175   71.4610  220.1017 H   0  0  0  0  0  0  0  0  0  0  0  0
  142.8504   73.1798  219.4789 H   0  0  0  0  0  0  0  0  0  0  0  0
  144.2448   72.1184  221.7405 H   0  0  0  0  0  0  0  0  0  0  0  0
  145.8516   71.3003  219.9440 H   0  0  0  0  0  0  0  0  0  0  0  0
  145.2591   72.2836  218.7472 H   0  0  0  0  0  0  0  0  0  0  0  0
  146.9113   73.1104  221.3373 H   0  0  0  0  0  0  0  0  0  0  0  0
  147.1113   73.9518  219.9337 H   0  0  0  0  0  0  0  0  0  0  0  0
  144.9255   74.5921  221.7982 H   0  0  0  0  0  0  0  0  0  0  0  0
  144.5291   74.9067  220.2246 H   0  0  0  0  0  0  0  0  0  0  0  0
  131.8619   71.3573  227.1764 H   0  0  0  0  0  0  0  0  0  0  0  0
  130.7755   73.3627  228.2378 H   0  0  0  0  0  0  0  0  0  0  0  0
  130.7376   75.7762  228.6616 H   0  0  0  0  0  0  0  0  0  0  0  0
  133.8129   78.2970  227.0001 H   0  0  0  0  0  0  0  0  0  0  0  0
  134.8678   76.2854  225.9547 H   0  0  0  0  0  0  0  0  0  0  0  0
  1  2  2  0
  2  3  1  0
  3  4  1  0
  4  5  1  0
  5  6  2  0
  5  7  1  0
  7  8  1  0
  8  9  1  0
  9 10  1  0
 10 11  1  0
 11 12  1  0
 12 13  2  0
 13 14  1  0
 14 15  2  0
 15 16  1  0
 16 17  1  0
 17 18  1  0
 18 19  1  0
 19 20  1  0
 20 21  1  0
 15 22  1  0
  2 23  1  0
 23 24  2  0
 24 25  1  0
 25 26  2  0
 26 27  1  0
 27 28  2  0
 28 29  1  0
 28 30  1  0
 30 31  2  0
 31 32  1  0
 32 33  2  0
 11  7  1  0
 22 12  1  0
 33 23  1  0
 21 18  1  0
 32 26  1  0
  3 34  1  0
  4 35  1  0
  4 36  1  0
  8 37  1  0
  8 38  1  0
  9 39  1  0
  9 40  1  0
 10 41  1  0
 10 42  1  0
 11 43  1  1
 14 44  1  0
 17 45  1  0
 17 46  1  0
 18 47  1  0
 19 48  1  0
 19 49  1  0
 20 50  1  0
 20 51  1  0
 21 52  1  0
 21 53  1  0
 24 54  1  0
 25 55  1  0
 27 56  1  0
 30 57  1  0
 31 58  1  0
M  END
>  <smiles>  (6) 
O=C(NCC(=O)N1CCC[C@H]1c1ncc(OCC2CCC2)o1)c1ccc2cc(Cl)ccc2n1

>  <score_type>  (6) 
oracle

>  <origin>  (6) 
autodockgpu

>  <m_score__min__energy>  (6) 
-8.2899999999999991

>  <m_primary>  (6) 
energy

>  <rmsd>  (6) 
8.516255910616108

>  <m_score__min__rmsd>  (6) 
8.516255910616108

>  <meeko>  (6) 
{"free_energy": -7.37, "intermolecular_energy": -9.75, "internal_energy": -1.47, "cluster_size": 1, "cluster_id": 10, "rank_in_cluster": 1}

>  <energy>  (6) 
-7.69

>  <cluster_rmsd>  (6) 
0.73

>  <cluster>  (6) 
1

$$$$

     RDKit          3D

 58 62  0  0  0  0  0  0  0  0999 V2000
  139.4580   73.8240  221.8450 O   0  0  0  0  0  0  0  0  0  0  0  0
  140.3130   72.9190  222.0130 C   0  0  0  0  0  0  0  0  0  0  0  0
  141.3960   72.9130  221.0560 N   0  0  0  0  0  0  0  0  0  0  0  0
  141.5350   73.8320  219.9990 C   0  0  0  0  0  0  0  0  0  0  0  0
  141.4620   75.2610  220.1970 C   0  0  0  0  0  0  0  0  0  0  0  0
  141.5330   75.6110  221.4650 O   0  0  0  0  0  0  0  0  0  0  0  0
  141.3280   76.3310  219.3140 N   0  0  0  0  0  0  0  0  0  0  0  0
  140.2660   76.9050  218.5260 C   0  0  0  0  0  0  0  0  0  0  0  0
  140.9200   76.8610  217.1380 C   0  0  0  0  0  0  0  0  0  0  0  0
  142.3950   77.0590  217.4370 C   0  0  0  0  0  0  0  0  0  0  0  0
  142.4820   77.2160  218.9620 C   0  0  1  0  0  0  0  0  0  0  0  0
  142.1910   78.6240  219.2640 C   0  0  0  0  0  0  0  0  0  0  0  0
  142.4850   79.6510  218.4730 N   0  0  0  0  0  0  0  0  0  0  0  0
  142.0640   80.7620  219.0930 C   0  0  0  0  0  0  0  0  0  0  0  0
  141.4820   80.3830  220.3290 C   0  0  0  0  0  0  0  0  0  0  0  0
  140.9690   81.3150  221.1660 O   0  0  0  0  0  0  0  0  0  0  0  0
  141.3710   81.7830  222.3960 C   0  0  0  0  0  0  0  0  0  0  0  0
  141.5860   80.7110  223.4010 C   0  0  0  0  0  0  0  0  0  0  0  0
  140.6530   79.5520  223.3460 C   0  0  0  0  0  0  0  0  0  0  0  0
  141.8300   78.6840  223.8380 C   0  0  0  0  0  0  0  0  0  0  0  0
  142.7230   79.7370  223.1480 C   0  0  0  0  0  0  0  0  0  0  0  0
  141.6060   79.0960  220.3370 O   0  0  0  0  0  0  0  0  0  0  0  0
  140.2350   71.9370  223.0870 C   0  0  0  0  0  0  0  0  0  0  0  0
  139.6790   70.7130  222.7750 C   0  0  0  0  0  0  0  0  0  0  0  0
  139.6150   69.7890  223.8200 C   0  0  0  0  0  0  0  0  0  0  0  0
  140.0840   70.0940  225.0840 C   0  0  0  0  0  0  0  0  0  0  0  0
  140.0290   69.1880  226.1330 C   0  0  0  0  0  0  0  0  0  0  0  0
  140.5090   69.5330  227.3830 C   0  0  0  0  0  0  0  0  0  0  0  0
  140.4420   68.3920  228.7140 Cl  0  0  0  0  0  0  0  0  0  0  0  0
  141.0560   70.7770  227.6350 C   0  0  0  0  0  0  0  0  0  0  0  0
  141.1160   71.6880  226.5960 C   0  0  0  0  0  0  0  0  0  0  0  0
  140.6340   71.3330  225.3510 C   0  0  0  0  0  0  0  0  0  0  0  0
  140.6890   72.2110  224.3380 N   0  0  0  0  0  0  0  0  0  0  0  0
  142.0960   72.1260  221.2370 H   0  0  0  0  0  0  0  0  0  0  0  0
  142.5205   73.6358  219.5515 H   0  0  0  0  0  0  0  0  0  0  0  0
  140.6247   73.6394  219.4122 H   0  0  0  0  0  0  0  0  0  0  0  0
  139.3509   76.2960  218.5668 H   0  0  0  0  0  0  0  0  0  0  0  0
  139.9301   77.9006  218.8515 H   0  0  0  0  0  0  0  0  0  0  0  0
  140.7441   75.8907  216.6507 H   0  0  0  0  0  0  0  0  0  0  0  0
  140.5163   77.6177  216.4492 H   0  0  0  0  0  0  0  0  0  0  0  0
  142.9759   76.1855  217.1059 H   0  0  0  0  0  0  0  0  0  0  0  0
  142.8063   77.9330  216.9107 H   0  0  0  0  0  0  0  0  0  0  0  0
  143.4265   76.9724  219.4705 H   0  0  0  0  0  0  0  0  0  0  0  0
  142.1543   81.7891  218.7097 H   0  0  0  0  0  0  0  0  0  0  0  0
  142.3151   82.3326  222.2669 H   0  0  0  0  0  0  0  0  0  0  0  0
  140.5616   82.4232  222.7768 H   0  0  0  0  0  0  0  0  0  0  0  0
  141.6081   81.3943  224.2627 H   0  0  0  0  0  0  0  0  0  0  0  0
  139.8027   79.6118  224.0413 H   0  0  0  0  0  0  0  0  0  0  0  0
  140.0857   79.3033  222.4369 H   0  0  0  0  0  0  0  0  0  0  0  0
  141.9400   78.6210  224.9307 H   0  0  0  0  0  0  0  0  0  0  0  0
  141.9064   77.6062  223.6316 H   0  0  0  0  0  0  0  0  0  0  0  0
  143.6598   79.9693  223.6757 H   0  0  0  0  0  0  0  0  0  0  0  0
  143.1575   79.5814  222.1495 H   0  0  0  0  0  0  0  0  0  0  0  0
  139.3092   70.4797  221.7656 H   0  0  0  0  0  0  0  0  0  0  0  0
  139.1814   68.7955  223.6330 H   0  0  0  0  0  0  0  0  0  0  0  0
  139.6006   68.1882  225.9693 H   0  0  0  0  0  0  0  0  0  0  0  0
  141.4336   71.0357  228.6353 H   0  0  0  0  0  0  0  0  0  0  0  0
  141.5444   72.6878  226.7598 H   0  0  0  0  0  0  0  0  0  0  0  0
  1  2  2  0
  2  3  1  0
  3  4  1  0
  4  5  1  0
  5  6  2  0
  5  7  1  0
  7  8  1  0
  8  9  1  0
  9 10  1  0
 10 11  1  0
 11 12  1  0
 12 13  2  0
 13 14  1  0
 14 15  2  0
 15 16  1  0
 16 17  1  0
 17 18  1  0
 18 19  1  0
 19 20  1  0
 20 21  1  0
 15 22  1  0
  2 23  1  0
 23 24  2  0
 24 25  1  0
 25 26  2  0
 26 27  1  0
 27 28  2  0
 28 29  1  0
 28 30  1  0
 30 31  2  0
 31 32  1  0
 32 33  2  0
 11  7  1  0
 22 12  1  0
 33 23  1  0
 21 18  1  0
 32 26  1  0
  3 34  1  0
  4 35  1  0
  4 36  1  0
  8 37  1  0
  8 38  1  0
  9 39  1  0
  9 40  1  0
 10 41  1  0
 10 42  1  0
 11 43  1  1
 14 44  1  0
 17 45  1  0
 17 46  1  0
 18 47  1  0
 19 48  1  0
 19 49  1  0
 20 50  1  0
 20 51  1  0
 21 52  1  0
 21 53  1  0
 24 54  1  0
 25 55  1  0
 27 56  1  0
 30 57  1  0
 31 58  1  0
M  END
>  <smiles>  (7) 
O=C(NCC(=O)N1CCC[C@H]1c1ncc(OCC2CCC2)o1)c1ccc2cc(Cl)ccc2n1

>  <score_type>  (7) 
oracle

>  <origin>  (7) 
autodockgpu

>  <m_score__min__energy>  (7) 
-8.2899999999999991

>  <m_primary>  (7) 
energy

>  <rmsd>  (7) 
2.3856887354921046

>  <m_score__min__rmsd>  (7) 
2.3856887354921046

>  <meeko>  (7) 
{"free_energy": -7.82, "intermolecular_energy": -10.2, "internal_energy": -1.75, "cluster_size": 14, "cluster_id": 1, "rank_in_cluster": 4}

>  <energy>  (7) 
-7.68

>  <cluster_rmsd>  (7) 
0.59

>  <cluster>  (7) 
1

$$$$

     RDKit          3D

 58 62  0  0  0  0  0  0  0  0999 V2000
  138.2210   71.4290  220.7620 O   0  0  0  0  0  0  0  0  0  0  0  0
  138.3730   71.8920  221.9190 C   0  0  0  0  0  0  0  0  0  0  0  0
  138.1020   73.3060  222.0540 N   0  0  0  0  0  0  0  0  0  0  0  0
  137.6910   74.1460  221.0020 C   0  0  0  0  0  0  0  0  0  0  0  0
  138.2780   75.4460  220.7710 C   0  0  0  0  0  0  0  0  0  0  0  0
  137.5130   76.2370  220.0460 O   0  0  0  0  0  0  0  0  0  0  0  0
  139.4880   76.0180  221.1590 N   0  0  0  0  0  0  0  0  0  0  0  0
  140.3210   75.9960  222.3350 C   0  0  0  0  0  0  0  0  0  0  0  0
  140.4220   77.5040  222.6090 C   0  0  0  0  0  0  0  0  0  0  0  0
  140.3700   78.1180  221.2210 C   0  0  0  0  0  0  0  0  0  0  0  0
  140.2580   76.9300  220.2550 C   0  0  1  0  0  0  0  0  0  0  0  0
  141.6220   76.4340  220.0280 C   0  0  0  0  0  0  0  0  0  0  0  0
  142.6280   77.1590  219.5480 N   0  0  0  0  0  0  0  0  0  0  0  0
  143.7000   76.3580  219.4870 C   0  0  0  0  0  0  0  0  0  0  0  0
  143.3190   75.0750  219.9580 C   0  0  0  0  0  0  0  0  0  0  0  0
  144.2160   74.0620  220.0060 O   0  0  0  0  0  0  0  0  0  0  0  0
  144.3290   72.9580  220.8190 C   0  0  0  0  0  0  0  0  0  0  0  0
  143.2250   71.9790  220.6520 C   0  0  0  0  0  0  0  0  0  0  0  0
  141.9030   72.3640  221.2180 C   0  0  0  0  0  0  0  0  0  0  0  0
  141.2650   71.5680  220.0610 C   0  0  0  0  0  0  0  0  0  0  0  0
  142.5580   71.9060  219.2900 C   0  0  0  0  0  0  0  0  0  0  0  0
  142.0690   75.2240  220.2540 O   0  0  0  0  0  0  0  0  0  0  0  0
  138.7910   71.0820  223.0550 C   0  0  0  0  0  0  0  0  0  0  0  0
  138.4430   69.7460  223.0320 C   0  0  0  0  0  0  0  0  0  0  0  0
  138.8540   68.9900  224.1300 C   0  0  0  0  0  0  0  0  0  0  0  0
  139.5670   69.5550  225.1720 C   0  0  0  0  0  0  0  0  0  0  0  0
  139.9840   68.8180  226.2700 C   0  0  0  0  0  0  0  0  0  0  0  0
  140.6950   69.4230  227.2910 C   0  0  0  0  0  0  0  0  0  0  0  0
  141.2250   68.4970  228.6830 Cl  0  0  0  0  0  0  0  0  0  0  0  0
  141.0150   70.7660  227.2570 C   0  0  0  0  0  0  0  0  0  0  0  0
  140.6040   71.5110  226.1660 C   0  0  0  0  0  0  0  0  0  0  0  0
  139.8950   70.8970  225.1530 C   0  0  0  0  0  0  0  0  0  0  0  0
  139.4930   71.6130  224.0910 N   0  0  0  0  0  0  0  0  0  0  0  0
  138.2470   73.6560  223.0530 H   0  0  0  0  0  0  0  0  0  0  0  0
  137.8445   73.5728  220.0758 H   0  0  0  0  0  0  0  0  0  0  0  0
  136.6697   74.4120  221.3122 H   0  0  0  0  0  0  0  0  0  0  0  0
  139.8409   75.4599  223.1669 H   0  0  0  0  0  0  0  0  0  0  0  0
  141.2842   75.4785  222.2145 H   0  0  0  0  0  0  0  0  0  0  0  0
  139.5782   77.8497  223.2242 H   0  0  0  0  0  0  0  0  0  0  0  0
  141.3292   77.7794  223.1667 H   0  0  0  0  0  0  0  0  0  0  0  0
  139.4946   78.7770  221.1240 H   0  0  0  0  0  0  0  0  0  0  0  0
  141.2573   78.7336  221.0120 H   0  0  0  0  0  0  0  0  0  0  0  0
  139.8099   77.0891  219.2631 H   0  0  0  0  0  0  0  0  0  0  0  0
  144.7013   76.6450  219.1333 H   0  0  0  0  0  0  0  0  0  0  0  0
  145.2788   72.4531  220.5892 H   0  0  0  0  0  0  0  0  0  0  0  0
  144.2858   73.3175  221.8577 H   0  0  0  0  0  0  0  0  0  0  0  0
  143.7970   71.1270  221.0481 H   0  0  0  0  0  0  0  0  0  0  0  0
  141.6972   71.9628  222.2214 H   0  0  0  0  0  0  0  0  0  0  0  0
  141.6385   73.4127  221.4188 H   0  0  0  0  0  0  0  0  0  0  0  0
  141.1059   70.4981  220.2612 H   0  0  0  0  0  0  0  0  0  0  0  0
  140.2602   71.7836  219.6686 H   0  0  0  0  0  0  0  0  0  0  0  0
  142.9297   71.1058  218.6331 H   0  0  0  0  0  0  0  0  0  0  0  0
  142.6136   72.7267  218.5596 H   0  0  0  0  0  0  0  0  0  0  0  0
  137.8763   69.3048  222.1988 H   0  0  0  0  0  0  0  0  0  0  0  0
  138.6052   67.9192  224.1681 H   0  0  0  0  0  0  0  0  0  0  0  0
  139.7479   67.7453  226.3297 H   0  0  0  0  0  0  0  0  0  0  0  0
  141.5822   71.2316  228.0765 H   0  0  0  0  0  0  0  0  0  0  0  0
  140.8402   72.5837  226.1062 H   0  0  0  0  0  0  0  0  0  0  0  0
  1  2  2  0
  2  3  1  0
  3  4  1  0
  4  5  1  0
  5  6  2  0
  5  7  1  0
  7  8  1  0
  8  9  1  0
  9 10  1  0
 10 11  1  0
 11 12  1  0
 12 13  2  0
 13 14  1  0
 14 15  2  0
 15 16  1  0
 16 17  1  0
 17 18  1  0
 18 19  1  0
 19 20  1  0
 20 21  1  0
 15 22  1  0
  2 23  1  0
 23 24  2  0
 24 25  1  0
 25 26  2  0
 26 27  1  0
 27 28  2  0
 28 29  1  0
 28 30  1  0
 30 31  2  0
 31 32  1  0
 32 33  2  0
 11  7  1  0
 22 12  1  0
 33 23  1  0
 21 18  1  0
 32 26  1  0
  3 34  1  0
  4 35  1  0
  4 36  1  0
  8 37  1  0
  8 38  1  0
  9 39  1  0
  9 40  1  0
 10 41  1  0
 10 42  1  0
 11 43  1  6
 14 44  1  0
 17 45  1  0
 17 46  1  0
 18 47  1  0
 19 48  1  0
 19 49  1  0
 20 50  1  0
 20 51  1  0
 21 52  1  0
 21 53  1  0
 24 54  1  0
 25 55  1  0
 27 56  1  0
 30 57  1  0
 31 58  1  0
M  END
>  <smiles>  (8) 
O=C(NCC(=O)N1CCC[C@H]1c1ncc(OCC2CCC2)o1)c1ccc2cc(Cl)ccc2n1

>  <score_type>  (8) 
oracle

>  <origin>  (8) 
autodockgpu

>  <m_score__min__energy>  (8) 
-8.2899999999999991

>  <m_primary>  (8) 
energy

>  <rmsd>  (8) 
2.807984462415577

>  <m_score__min__rmsd>  (8) 
2.807984462415577

>  <meeko>  (8) 
{"free_energy": -6.58, "intermolecular_energy": -8.96, "internal_energy": -2.62, "cluster_size": 5, "cluster_id": 4, "rank_in_cluster": 5}

>  <energy>  (8) 
-7.54

>  <cluster_rmsd>  (8) 
1.06

>  <cluster>  (8) 
1

$$$$

     RDKit          3D

 58 62  0  0  0  0  0  0  0  0999 V2000
  140.7410   78.7210  218.3160 O   0  0  0  0  0  0  0  0  0  0  0  0
  141.9770   78.5190  218.2240 C   0  0  0  0  0  0  0  0  0  0  0  0
  142.7890   79.7130  218.1430 N   0  0  0  0  0  0  0  0  0  0  0  0
  142.2840   81.0270  218.1650 C   0  0  0  0  0  0  0  0  0  0  0  0
  141.6130   81.5810  219.3180 C   0  0  0  0  0  0  0  0  0  0  0  0
  141.2520   82.8380  219.1520 O   0  0  0  0  0  0  0  0  0  0  0  0
  141.2810   81.0510  220.5630 N   0  0  0  0  0  0  0  0  0  0  0  0
  140.1450   81.1020  221.4490 C   0  0  0  0  0  0  0  0  0  0  0  0
  140.8340   81.6090  222.7250 C   0  0  0  0  0  0  0  0  0  0  0  0
  142.2250   81.0070  222.6370 C   0  0  0  0  0  0  0  0  0  0  0  0
  142.2320   80.1910  221.3360 C   0  0  1  0  0  0  0  0  0  0  0  0
  141.6410   78.8830  221.6480 C   0  0  0  0  0  0  0  0  0  0  0  0
  141.6760   78.2950  222.8400 N   0  0  0  0  0  0  0  0  0  0  0  0
  141.0350   77.1240  222.7230 C   0  0  0  0  0  0  0  0  0  0  0  0
  140.5870   76.9990  221.3830 C   0  0  0  0  0  0  0  0  0  0  0  0
  139.9010   75.9030  220.9820 O   0  0  0  0  0  0  0  0  0  0  0  0
  140.2500   74.8170  220.2130 C   0  0  0  0  0  0  0  0  0  0  0  0
  141.1570   73.8650  220.9030 C   0  0  0  0  0  0  0  0  0  0  0  0
  140.5590   73.0510  221.9960 C   0  0  0  0  0  0  0  0  0  0  0  0
  141.5410   71.9310  221.5920 C   0  0  0  0  0  0  0  0  0  0  0  0
  141.4790   72.5650  220.1870 C   0  0  0  0  0  0  0  0  0  0  0  0
  140.9960   78.0930  220.8270 O   0  0  0  0  0  0  0  0  0  0  0  0
  142.5690   77.1880  218.1990 C   0  0  0  0  0  0  0  0  0  0  0  0
  142.4910   76.4920  217.0090 C   0  0  0  0  0  0  0  0  0  0  0  0
  143.0640   75.2200  217.0090 C   0  0  0  0  0  0  0  0  0  0  0  0
  143.6710   74.6990  218.1370 C   0  0  0  0  0  0  0  0  0  0  0  0
  144.2460   73.4370  218.1540 C   0  0  0  0  0  0  0  0  0  0  0  0
  144.8430   72.9550  219.3050 C   0  0  0  0  0  0  0  0  0  0  0  0
  145.5720   71.3600  219.3340 Cl  0  0  0  0  0  0  0  0  0  0  0  0
  144.8900   73.7000  220.4680 C   0  0  0  0  0  0  0  0  0  0  0  0
  144.3200   74.9600  220.4610 C   0  0  0  0  0  0  0  0  0  0  0  0
  143.7260   75.4330  219.3070 C   0  0  0  0  0  0  0  0  0  0  0  0
  143.1710   76.6540  219.2940 N   0  0  0  0  0  0  0  0  0  0  0  0
  143.8310   79.4920  218.0630 H   0  0  0  0  0  0  0  0  0  0  0  0
  143.1407   81.6870  217.9636 H   0  0  0  0  0  0  0  0  0  0  0  0
  141.4639   80.9658  217.4344 H   0  0  0  0  0  0  0  0  0  0  0  0
  139.3779   81.8045  221.0912 H   0  0  0  0  0  0  0  0  0  0  0  0
  139.5976   80.1544  221.5600 H   0  0  0  0  0  0  0  0  0  0  0  0
  140.8808   82.7079  222.7369 H   0  0  0  0  0  0  0  0  0  0  0  0
  140.3001   81.3239  223.6435 H   0  0  0  0  0  0  0  0  0  0  0  0
  142.9863   81.8001  222.5985 H   0  0  0  0  0  0  0  0  0  0  0  0
  142.4584   80.3840  223.5130 H   0  0  0  0  0  0  0  0  0  0  0  0
  143.1914   79.9928  220.8358 H   0  0  0  0  0  0  0  0  0  0  0  0
  140.8828   76.3880  223.5262 H   0  0  0  0  0  0  0  0  0  0  0  0
  139.3316   74.2805  219.9322 H   0  0  0  0  0  0  0  0  0  0  0  0
  140.7938   75.2033  219.3383 H   0  0  0  0  0  0  0  0  0  0  0  0
  141.9409   74.6110  221.1005 H   0  0  0  0  0  0  0  0  0  0  0  0
  140.7123   73.4550  223.0076 H   0  0  0  0  0  0  0  0  0  0  0  0
  139.4751   72.8775  222.0665 H   0  0  0  0  0  0  0  0  0  0  0  0
  142.5254   71.9729  222.0812 H   0  0  0  0  0  0  0  0  0  0  0  0
  141.3428   70.8650  221.7774 H   0  0  0  0  0  0  0  0  0  0  0  0
  142.4300   72.5626  219.6341 H   0  0  0  0  0  0  0  0  0  0  0  0
  140.8462   72.1604  219.3834 H   0  0  0  0  0  0  0  0  0  0  0  0
  142.0069   76.9144  216.1161 H   0  0  0  0  0  0  0  0  0  0  0  0
  143.0322   74.6170  216.0896 H   0  0  0  0  0  0  0  0  0  0  0  0
  144.2272   72.8155  217.2466 H   0  0  0  0  0  0  0  0  0  0  0  0
  145.3680   73.3014  221.3750 H   0  0  0  0  0  0  0  0  0  0  0  0
  144.3395   75.5815  221.3684 H   0  0  0  0  0  0  0  0  0  0  0  0
  1  2  2  0
  2  3  1  0
  3  4  1  0
  4  5  1  0
  5  6  2  0
  5  7  1  0
  7  8  1  0
  8  9  1  0
  9 10  1  0
 10 11  1  0
 11 12  1  0
 12 13  2  0
 13 14  1  0
 14 15  2  0
 15 16  1  0
 16 17  1  0
 17 18  1  0
 18 19  1  0
 19 20  1  0
 20 21  1  0
 15 22  1  0
  2 23  1  0
 23 24  2  0
 24 25  1  0
 25 26  2  0
 26 27  1  0
 27 28  2  0
 28 29  1  0
 28 30  1  0
 30 31  2  0
 31 32  1  0
 32 33  2  0
 11  7  1  0
 22 12  1  0
 33 23  1  0
 21 18  1  0
 32 26  1  0
  3 34  1  0
  4 35  1  0
  4 36  1  0
  8 37  1  0
  8 38  1  0
  9 39  1  0
  9 40  1  0
 10 41  1  0
 10 42  1  0
 11 43  1  6
 14 44  1  0
 17 45  1  0
 17 46  1  0
 18 47  1  0
 19 48  1  0
 19 49  1  0
 20 50  1  0
 20 51  1  0
 21 52  1  0
 21 53  1  0
 24 54  1  0
 25 55  1  0
 27 56  1  0
 30 57  1  0
 31 58  1  0
M  END
>  <smiles>  (9) 
O=C(NCC(=O)N1CCC[C@H]1c1ncc(OCC2CCC2)o1)c1ccc2cc(Cl)ccc2n1

>  <score_type>  (9) 
oracle

>  <origin>  (9) 
autodockgpu

>  <m_score__min__energy>  (9) 
-8.2899999999999991

>  <m_primary>  (9) 
energy

>  <rmsd>  (9) 
8.113785524133576

>  <m_score__min__rmsd>  (9) 
8.113785524133576

>  <meeko>  (9) 
{"free_energy": -5.69, "intermolecular_energy": -8.08, "internal_energy": -3.47, "cluster_size": 1, "cluster_id": 14, "rank_in_cluster": 1}

>  <energy>  (9) 
-7.38

>  <cluster_rmsd>  (9) 
0.82

>  <cluster>  (9) 
1

$$$$

     RDKit          3D

 58 62  0  0  0  0  0  0  0  0999 V2000
  140.2470   72.5510  221.1100 O   0  0  0  0  0  0  0  0  0  0  0  0
  139.5110   72.4980  222.1260 C   0  0  0  0  0  0  0  0  0  0  0  0
  138.4450   73.4750  222.1620 N   0  0  0  0  0  0  0  0  0  0  0  0
  138.2020   74.4310  221.1580 C   0  0  0  0  0  0  0  0  0  0  0  0
  138.6230   75.8080  221.2790 C   0  0  0  0  0  0  0  0  0  0  0  0
  137.6170   76.6590  221.2790 O   0  0  0  0  0  0  0  0  0  0  0  0
  139.8770   76.4050  221.3900 N   0  0  0  0  0  0  0  0  0  0  0  0
  140.7630   76.7780  222.4640 C   0  0  0  0  0  0  0  0  0  0  0  0
  140.9520   78.2670  222.1400 C   0  0  0  0  0  0  0  0  0  0  0  0
  140.8660   78.3100  220.6250 C   0  0  0  0  0  0  0  0  0  0  0  0
  140.6490   76.8540  220.1880 C   0  0  1  0  0  0  0  0  0  0  0  0
  141.9750   76.2220  220.1350 C   0  0  0  0  0  0  0  0  0  0  0  0
  143.0460   76.7460  219.5470 N   0  0  0  0  0  0  0  0  0  0  0  0
  144.0520   75.8760  219.7120 C   0  0  0  0  0  0  0  0  0  0  0  0
  143.5590   74.7640  220.4410 C   0  0  0  0  0  0  0  0  0  0  0  0
  144.3700   73.7250  220.7520 O   0  0  0  0  0  0  0  0  0  0  0  0
  144.3300   72.3870  220.4370 C   0  0  0  0  0  0  0  0  0  0  0  0
  142.9630   71.8830  220.1480 C   0  0  0  0  0  0  0  0  0  0  0  0
  142.3900   72.2390  218.8210 C   0  0  0  0  0  0  0  0  0  0  0  0
  141.6520   70.8840  218.8670 C   0  0  0  0  0  0  0  0  0  0  0  0
  142.8270   70.4230  219.7540 C   0  0  0  0  0  0  0  0  0  0  0  0
  142.3180   75.0660  220.6440 O   0  0  0  0  0  0  0  0  0  0  0  0
  139.7010   71.5330  223.2000 C   0  0  0  0  0  0  0  0  0  0  0  0
  139.3700   70.2210  222.9280 C   0  0  0  0  0  0  0  0  0  0  0  0
  139.5610   69.3150  223.9720 C   0  0  0  0  0  0  0  0  0  0  0  0
  140.0520   69.7190  225.2000 C   0  0  0  0  0  0  0  0  0  0  0  0
  140.2480   68.8320  226.2480 C   0  0  0  0  0  0  0  0  0  0  0  0
  140.7410   69.2780  227.4600 C   0  0  0  0  0  0  0  0  0  0  0  0
  140.9910   68.1610  228.7900 Cl  0  0  0  0  0  0  0  0  0  0  0  0
  141.0560   70.6060  227.6740 C   0  0  0  0  0  0  0  0  0  0  0  0
  140.8640   71.4990  226.6350 C   0  0  0  0  0  0  0  0  0  0  0  0
  140.3710   71.0440  225.4280 C   0  0  0  0  0  0  0  0  0  0  0  0
  140.1830   71.9040  224.4160 N   0  0  0  0  0  0  0  0  0  0  0  0
  137.8480   73.3940  223.0450 H   0  0  0  0  0  0  0  0  0  0  0  0
  138.6801   74.0444  220.2459 H   0  0  0  0  0  0  0  0  0  0  0  0
  137.1068   74.5257  221.1972 H   0  0  0  0  0  0  0  0  0  0  0  0
  140.2970   76.6295  223.4493 H   0  0  0  0  0  0  0  0  0  0  0  0
  141.6926   76.1931  222.5254 H   0  0  0  0  0  0  0  0  0  0  0  0
  140.1562   78.8735  222.5970 H   0  0  0  0  0  0  0  0  0  0  0  0
  141.8967   78.6749  222.5287 H   0  0  0  0  0  0  0  0  0  0  0  0
  140.0214   78.9379  220.3050 H   0  0  0  0  0  0  0  0  0  0  0  0
  141.7726   78.7414  220.1756 H   0  0  0  0  0  0  0  0  0  0  0  0
  140.1636   76.6532  219.2215 H   0  0  0  0  0  0  0  0  0  0  0  0
  145.0814   76.0025  219.3456 H   0  0  0  0  0  0  0  0  0  0  0  0
  144.9568   72.2204  219.5485 H   0  0  0  0  0  0  0  0  0  0  0  0
  144.6959   71.8381  221.3172 H   0  0  0  0  0  0  0  0  0  0  0  0
  142.5261   72.2584  221.0851 H   0  0  0  0  0  0  0  0  0  0  0  0
  141.7334   73.1216  218.8245 H   0  0  0  0  0  0  0  0  0  0  0  0
  143.0248   72.5284  217.9706 H   0  0  0  0  0  0  0  0  0  0  0  0
  140.6705   70.9026  219.3634 H   0  0  0  0  0  0  0  0  0  0  0  0
  141.3366   70.3431  217.9626 H   0  0  0  0  0  0  0  0  0  0  0  0
  142.5512   69.7442  220.5745 H   0  0  0  0  0  0  0  0  0  0  0  0
  143.6698   69.8355  219.3609 H   0  0  0  0  0  0  0  0  0  0  0  0
  138.9795   69.9086  221.9482 H   0  0  0  0  0  0  0  0  0  0  0  0
  139.3152   68.2545  223.8144 H   0  0  0  0  0  0  0  0  0  0  0  0
  140.0096   67.7666  226.1139 H   0  0  0  0  0  0  0  0  0  0  0  0
  141.4488   70.9442  228.6442 H   0  0  0  0  0  0  0  0  0  0  0  0
  141.1025   72.5644  226.7694 H   0  0  0  0  0  0  0  0  0  0  0  0
  1  2  2  0
  2  3  1  0
  3  4  1  0
  4  5  1  0
  5  6  2  0
  5  7  1  0
  7  8  1  0
  8  9  1  0
  9 10  1  0
 10 11  1  0
 11 12  1  0
 12 13  2  0
 13 14  1  0
 14 15  2  0
 15 16  1  0
 16 17  1  0
 17 18  1  0
 18 19  1  0
 19 20  1  0
 20 21  1  0
 15 22  1  0
  2 23  1  0
 23 24  2  0
 24 25  1  0
 25 26  2  0
 26 27  1  0
 27 28  2  0
 28 29  1  0
 28 30  1  0
 30 31  2  0
 31 32  1  0
 32 33  2  0
 11  7  1  0
 22 12  1  0
 33 23  1  0
 21 18  1  0
 32 26  1  0
  3 34  1  0
  4 35  1  0
  4 36  1  0
  8 37  1  0
  8 38  1  0
  9 39  1  0
  9 40  1  0
 10 41  1  0
 10 42  1  0
 11 43  1  6
 14 44  1  0
 17 45  1  0
 17 46  1  0
 18 47  1  0
 19 48  1  0
 19 49  1  0
 20 50  1  0
 20 51  1  0
 21 52  1  0
 21 53  1  0
 24 54  1  0
 25 55  1  0
 27 56  1  0
 30 57  1  0
 31 58  1  0
M  END
>  <smiles>  (10) 
O=C(NCC(=O)N1CCC[C@H]1c1ncc(OCC2CCC2)o1)c1ccc2cc(Cl)ccc2n1

>  <score_type>  (10) 
oracle

>  <origin>  (10) 
autodockgpu

>  <m_score__min__energy>  (10) 
-8.2899999999999991

>  <m_primary>  (10) 
energy

>  <rmsd>  (10) 
2.9119834341854216

>  <m_score__min__rmsd>  (10) 
2.9119834341854216

>  <meeko>  (10) 
{"free_energy": -6.95, "intermolecular_energy": -9.34, "internal_energy": -2.37, "cluster_size": 5, "cluster_id": 4, "rank_in_cluster": 3}

>  <energy>  (10) 
-7.34

>  <cluster_rmsd>  (10) 
0.99

>  <cluster>  (10) 
1

$$$$

     RDKit          3D

 58 62  0  0  0  0  0  0  0  0999 V2000
  137.9440   70.7020  221.2260 O   0  0  0  0  0  0  0  0  0  0  0  0
  138.4350   71.2270  222.2560 C   0  0  0  0  0  0  0  0  0  0  0  0
  138.5220   72.6700  222.2250 N   0  0  0  0  0  0  0  0  0  0  0  0
  138.0990   73.4740  221.1500 C   0  0  0  0  0  0  0  0  0  0  0  0
  139.0240   74.2140  220.3220 C   0  0  0  0  0  0  0  0  0  0  0  0
  139.5430   73.4890  219.3520 O   0  0  0  0  0  0  0  0  0  0  0  0
  139.4730   75.5320  220.3540 N   0  0  0  0  0  0  0  0  0  0  0  0
  139.3760   76.6880  219.4980 C   0  0  0  0  0  0  0  0  0  0  0  0
  140.8670   77.0110  219.3270 C   0  0  0  0  0  0  0  0  0  0  0  0
  141.4740   76.5820  220.6510 C   0  0  0  0  0  0  0  0  0  0  0  0
  140.2960   76.0610  221.4880 C   0  0  1  0  0  0  0  0  0  0  0  0
  139.6630   77.2310  222.1100 C   0  0  0  0  0  0  0  0  0  0  0  0
  138.4360   77.2540  222.6210 N   0  0  0  0  0  0  0  0  0  0  0  0
  138.2250   78.4920  223.0910 C   0  0  0  0  0  0  0  0  0  0  0  0
  139.3930   79.2600  222.8490 C   0  0  0  0  0  0  0  0  0  0  0  0
  139.4570   80.5580  223.2250 O   0  0  0  0  0  0  0  0  0  0  0  0
  140.1420   81.6400  222.7230 C   0  0  0  0  0  0  0  0  0  0  0  0
  141.6180   81.4730  222.7460 C   0  0  0  0  0  0  0  0  0  0  0  0
  142.1770   80.6510  223.8540 C   0  0  0  0  0  0  0  0  0  0  0  0
  143.2810   80.2160  222.8670 C   0  0  0  0  0  0  0  0  0  0  0  0
  142.2230   80.4760  221.7740 C   0  0  0  0  0  0  0  0  0  0  0  0
  140.1870   78.4220  222.2640 O   0  0  0  0  0  0  0  0  0  0  0  0
  138.8890   70.4580  223.4060 C   0  0  0  0  0  0  0  0  0  0  0  0
  138.6220   69.1030  223.3970 C   0  0  0  0  0  0  0  0  0  0  0  0
  139.0670   68.3870  224.5090 C   0  0  0  0  0  0  0  0  0  0  0  0
  139.7320   69.0070  225.5500 C   0  0  0  0  0  0  0  0  0  0  0  0
  140.1810   68.3100  226.6630 C   0  0  0  0  0  0  0  0  0  0  0  0
  140.8430   68.9700  227.6820 C   0  0  0  0  0  0  0  0  0  0  0  0
  141.4130   68.0950  229.0920 Cl  0  0  0  0  0  0  0  0  0  0  0  0
  141.0810   70.3290  227.6350 C   0  0  0  0  0  0  0  0  0  0  0  0
  140.6380   71.0340  226.5300 C   0  0  0  0  0  0  0  0  0  0  0  0
  139.9780   70.3660  225.5170 C   0  0  0  0  0  0  0  0  0  0  0  0
  139.5460   71.0430  224.4420 N   0  0  0  0  0  0  0  0  0  0  0  0
  138.9480   73.0720  223.1190 H   0  0  0  0  0  0  0  0  0  0  0  0
  137.5458   72.8090  220.4705 H   0  0  0  0  0  0  0  0  0  0  0  0
  137.5655   74.2832  221.6703 H   0  0  0  0  0  0  0  0  0  0  0  0
  138.8967   76.4471  218.5377 H   0  0  0  0  0  0  0  0  0  0  0  0
  138.7637   77.5112  219.8948 H   0  0  0  0  0  0  0  0  0  0  0  0
  141.3001   76.4405  218.4922 H   0  0  0  0  0  0  0  0  0  0  0  0
  141.0530   78.0694  219.0922 H   0  0  0  0  0  0  0  0  0  0  0  0
  142.2169   75.7861  220.4942 H   0  0  0  0  0  0  0  0  0  0  0  0
  141.9963   77.4114  221.1503 H   0  0  0  0  0  0  0  0  0  0  0  0
  140.4926   75.3410  222.2961 H   0  0  0  0  0  0  0  0  0  0  0  0
  137.3064   78.8497  223.5791 H   0  0  0  0  0  0  0  0  0  0  0  0
  139.8263   81.7985  221.6813 H   0  0  0  0  0  0  0  0  0  0  0  0
  139.9047   82.4991  223.3677 H   0  0  0  0  0  0  0  0  0  0  0  0
  141.8332   82.5482  222.6591 H   0  0  0  0  0  0  0  0  0  0  0  0
  142.5345   81.2274  224.7200 H   0  0  0  0  0  0  0  0  0  0  0  0
  141.5653   79.9200  224.4030 H   0  0  0  0  0  0  0  0  0  0  0  0
  144.1620   80.8737  222.8311 H   0  0  0  0  0  0  0  0  0  0  0  0
  143.8255   79.2647  222.9590 H   0  0  0  0  0  0  0  0  0  0  0  0
  142.6142   80.9133  220.8436 H   0  0  0  0  0  0  0  0  0  0  0  0
  141.6360   79.6669  221.3149 H   0  0  0  0  0  0  0  0  0  0  0  0
  138.0912   68.6180  222.5645 H   0  0  0  0  0  0  0  0  0  0  0  0
  138.8842   67.3034  224.5582 H   0  0  0  0  0  0  0  0  0  0  0  0
  140.0092   67.2259  226.7350 H   0  0  0  0  0  0  0  0  0  0  0  0
  141.6091   70.8381  228.4547 H   0  0  0  0  0  0  0  0  0  0  0  0
  140.8101   72.1181  226.4587 H   0  0  0  0  0  0  0  0  0  0  0  0
  1  2  2  0
  2  3  1  0
  3  4  1  0
  4  5  1  0
  5  6  2  0
  5  7  1  0
  7  8  1  0
  8  9  1  0
  9 10  1  0
 10 11  1  0
 11 12  1  0
 12 13  2  0
 13 14  1  0
 14 15  2  0
 15 16  1  0
 16 17  1  0
 17 18  1  0
 18 19  1  0
 19 20  1  0
 20 21  1  0
 15 22  1  0
  2 23  1  0
 23 24  2  0
 24 25  1  0
 25 26  2  0
 26 27  1  0
 27 28  2  0
 28 29  1  0
 28 30  1  0
 30 31  2  0
 31 32  1  0
 32 33  2  0
 11  7  1  0
 22 12  1  0
 33 23  1  0
 21 18  1  0
 32 26  1  0
  3 34  1  0
  4 35  1  0
  4 36  1  0
  8 37  1  0
  8 38  1  0
  9 39  1  0
  9 40  1  0
 10 41  1  0
 10 42  1  0
 11 43  1  1
 14 44  1  0
 17 45  1  0
 17 46  1  0
 18 47  1  0
 19 48  1  0
 19 49  1  0
 20 50  1  0
 20 51  1  0
 21 52  1  0
 21 53  1  0
 24 54  1  0
 25 55  1  0
 27 56  1  0
 30 57  1  0
 31 58  1  0
M  END
>  <smiles>  (11) 
O=C(NCC(=O)N1CCC[C@H]1c1ncc(OCC2CCC2)o1)c1ccc2cc(Cl)ccc2n1

>  <score_type>  (11) 
oracle

>  <origin>  (11) 
autodockgpu

>  <m_score__min__energy>  (11) 
-8.2899999999999991

>  <m_primary>  (11) 
energy

>  <rmsd>  (11) 
1.7552308798162874

>  <m_score__min__rmsd>  (11) 
1.7552308798162874

>  <meeko>  (11) 
{"free_energy": -7.38, "intermolecular_energy": -9.77, "internal_energy": -2.01, "cluster_size": 5, "cluster_id": 2, "rank_in_cluster": 4}

>  <energy>  (11) 
-7.26

>  <cluster_rmsd>  (11) 
1.88

>  <cluster>  (11) 
1

$$$$

     RDKit          3D

 58 62  0  0  0  0  0  0  0  0999 V2000
  138.4060   71.5670  221.2440 O   0  0  0  0  0  0  0  0  0  0  0  0
  139.0190   71.9410  222.2740 C   0  0  0  0  0  0  0  0  0  0  0  0
  139.4260   73.3290  222.2760 N   0  0  0  0  0  0  0  0  0  0  0  0
  139.1760   74.2370  221.2290 C   0  0  0  0  0  0  0  0  0  0  0  0
  139.8440   75.5130  221.1310 C   0  0  0  0  0  0  0  0  0  0  0  0
  140.1250   76.0410  222.3060 O   0  0  0  0  0  0  0  0  0  0  0  0
  140.2420   76.2900  220.0450 N   0  0  0  0  0  0  0  0  0  0  0  0
  139.6120   76.8420  218.8720 C   0  0  0  0  0  0  0  0  0  0  0  0
  140.5290   76.2590  217.7860 C   0  0  0  0  0  0  0  0  0  0  0  0
  141.8840   76.1940  218.4680 C   0  0  0  0  0  0  0  0  0  0  0  0
  141.6560   76.7540  219.8790 C   0  0  1  0  0  0  0  0  0  0  0  0
  141.7320   78.2170  219.7760 C   0  0  0  0  0  0  0  0  0  0  0  0
  142.2900   78.8830  218.7700 N   0  0  0  0  0  0  0  0  0  0  0  0
  142.1610   80.1900  219.0400 C   0  0  0  0  0  0  0  0  0  0  0  0
  141.4870   80.3190  220.2810 C   0  0  0  0  0  0  0  0  0  0  0  0
  141.2200   81.5410  220.7990 O   0  0  0  0  0  0  0  0  0  0  0  0
  141.6200   82.1670  221.9570 C   0  0  0  0  0  0  0  0  0  0  0  0
  141.7050   81.2570  223.1280 C   0  0  0  0  0  0  0  0  0  0  0  0
  140.6540   80.2090  223.2340 C   0  0  0  0  0  0  0  0  0  0  0  0
  141.7250   79.3150  223.8950 C   0  0  0  0  0  0  0  0  0  0  0  0
  142.7340   80.1420  223.0700 C   0  0  0  0  0  0  0  0  0  0  0  0
  141.2750   79.0930  220.6360 O   0  0  0  0  0  0  0  0  0  0  0  0
  139.3080   71.0580  223.3960 C   0  0  0  0  0  0  0  0  0  0  0  0
  138.9740   69.7270  223.2460 C   0  0  0  0  0  0  0  0  0  0  0  0
  139.2610   68.9010  224.3330 C   0  0  0  0  0  0  0  0  0  0  0  0
  139.8430   69.3960  225.4850 C   0  0  0  0  0  0  0  0  0  0  0  0
  140.1350   68.5890  226.5740 C   0  0  0  0  0  0  0  0  0  0  0  0
  140.7180   69.1260  227.7080 C   0  0  0  0  0  0  0  0  0  0  0  0
  141.0900   68.1110  229.0890 Cl  0  0  0  0  0  0  0  0  0  0  0  0
  141.0300   70.4690  227.8000 C   0  0  0  0  0  0  0  0  0  0  0  0
  140.7430   71.2830  226.7190 C   0  0  0  0  0  0  0  0  0  0  0  0
  140.1610   70.7370  225.5910 C   0  0  0  0  0  0  0  0  0  0  0  0
  139.8810   71.5200  224.5390 N   0  0  0  0  0  0  0  0  0  0  0  0
  139.9450   73.6010  223.1690 H   0  0  0  0  0  0  0  0  0  0  0  0
  139.4065   73.6995  220.2974 H   0  0  0  0  0  0  0  0  0  0  0  0
  138.1398   74.5412  221.4379 H   0  0  0  0  0  0  0  0  0  0  0  0
  138.5745   76.4934  218.7622 H   0  0  0  0  0  0  0  0  0  0  0  0
  139.5198   77.9381  218.8648 H   0  0  0  0  0  0  0  0  0  0  0  0
  140.1923   75.2566  217.4829 H   0  0  0  0  0  0  0  0  0  0  0  0
  140.5400   76.8601  216.8648 H   0  0  0  0  0  0  0  0  0  0  0  0
  142.2399   75.1544  218.5192 H   0  0  0  0  0  0  0  0  0  0  0  0
  142.6468   76.7655  217.9188 H   0  0  0  0  0  0  0  0  0  0  0  0
  142.3407   76.4581  220.6874 H   0  0  0  0  0  0  0  0  0  0  0  0
  142.5161   81.0180  218.4088 H   0  0  0  0  0  0  0  0  0  0  0  0
  142.6129   82.6092  221.7878 H   0  0  0  0  0  0  0  0  0  0  0  0
  140.8583   82.9247  222.1929 H   0  0  0  0  0  0  0  0  0  0  0  0
  141.7891   82.0664  223.8681 H   0  0  0  0  0  0  0  0  0  0  0  0
  139.8068   80.4706  223.8850 H   0  0  0  0  0  0  0  0  0  0  0  0
  140.0743   79.8749  222.3609 H   0  0  0  0  0  0  0  0  0  0  0  0
  141.8145   79.4211  224.9862 H   0  0  0  0  0  0  0  0  0  0  0  0
  141.6876   78.2160  223.8684 H   0  0  0  0  0  0  0  0  0  0  0  0
  143.6838   80.3594  223.5805 H   0  0  0  0  0  0  0  0  0  0  0  0
  143.1613   79.7801  222.1232 H   0  0  0  0  0  0  0  0  0  0  0  0
  138.5102   69.3415  222.3261 H   0  0  0  0  0  0  0  0  0  0  0  0
  139.0183   67.8299  224.2719 H   0  0  0  0  0  0  0  0  0  0  0  0
  139.9016   67.5147  226.5361 H   0  0  0  0  0  0  0  0  0  0  0  0
  141.4942   70.8799  228.7087 H   0  0  0  0  0  0  0  0  0  0  0  0
  140.9764   72.3573  226.7571 H   0  0  0  0  0  0  0  0  0  0  0  0
  1  2  2  0
  2  3  1  0
  3  4  1  0
  4  5  1  0
  5  6  2  0
  5  7  1  0
  7  8  1  0
  8  9  1  0
  9 10  1  0
 10 11  1  0
 11 12  1  0
 12 13  2  0
 13 14  1  0
 14 15  2  0
 15 16  1  0
 16 17  1  0
 17 18  1  0
 18 19  1  0
 19 20  1  0
 20 21  1  0
 15 22  1  0
  2 23  1  0
 23 24  2  0
 24 25  1  0
 25 26  2  0
 26 27  1  0
 27 28  2  0
 28 29  1  0
 28 30  1  0
 30 31  2  0
 31 32  1  0
 32 33  2  0
 11  7  1  0
 22 12  1  0
 33 23  1  0
 21 18  1  0
 32 26  1  0
  3 34  1  0
  4 35  1  0
  4 36  1  0
  8 37  1  0
  8 38  1  0
  9 39  1  0
  9 40  1  0
 10 41  1  0
 10 42  1  0
 11 43  1  1
 14 44  1  0
 17 45  1  0
 17 46  1  0
 18 47  1  0
 19 48  1  0
 19 49  1  0
 20 50  1  0
 20 51  1  0
 21 52  1  0
 21 53  1  0
 24 54  1  0
 25 55  1  0
 27 56  1  0
 30 57  1  0
 31 58  1  0
M  END
>  <smiles>  (12) 
O=C(NCC(=O)N1CCC[C@H]1c1ncc(OCC2CCC2)o1)c1ccc2cc(Cl)ccc2n1

>  <score_type>  (12) 
oracle

>  <origin>  (12) 
autodockgpu

>  <m_score__min__energy>  (12) 
-8.2899999999999991

>  <m_primary>  (12) 
energy

>  <rmsd>  (12) 
1.652194293580464

>  <m_score__min__rmsd>  (12) 
1.652194293580464

>  <meeko>  (12) 
{"free_energy": -7.86, "intermolecular_energy": -10.24, "internal_energy": -2.06, "cluster_size": 14, "cluster_id": 1, "rank_in_cluster": 3}

>  <energy>  (12) 
-7.21

>  <cluster_rmsd>  (12) 
1.89

>  <cluster>  (12) 
1

$$$$

     RDKit          3D

 58 62  0  0  0  0  0  0  0  0999 V2000
  133.7610   72.3020  224.2150 O   0  0  0  0  0  0  0  0  0  0  0  0
  133.8690   72.6540  225.4150 C   0  0  0  0  0  0  0  0  0  0  0  0
  134.1770   71.5860  226.3410 N   0  0  0  0  0  0  0  0  0  0  0  0
  134.3580   70.2380  225.9760 C   0  0  0  0  0  0  0  0  0  0  0  0
  135.3310   69.8230  224.9930 C   0  0  0  0  0  0  0  0  0  0  0  0
  135.3260   68.5230  224.7760 O   0  0  0  0  0  0  0  0  0  0  0  0
  136.2700   70.5250  224.2400 N   0  0  0  0  0  0  0  0  0  0  0  0
  136.4750   71.8960  223.8440 C   0  0  0  0  0  0  0  0  0  0  0  0
  136.5480   71.7180  222.3200 C   0  0  0  0  0  0  0  0  0  0  0  0
  137.1750   70.3450  222.1560 C   0  0  0  0  0  0  0  0  0  0  0  0
  137.4300   69.8420  223.5840 C   0  0  1  0  0  0  0  0  0  0  0  0
  138.7090   70.4190  224.0180 C   0  0  0  0  0  0  0  0  0  0  0  0
  139.7260   70.7120  223.2140 N   0  0  0  0  0  0  0  0  0  0  0  0
  140.7040   71.2160  223.9800 C   0  0  0  0  0  0  0  0  0  0  0  0
  140.2500   71.2260  225.3240 C   0  0  0  0  0  0  0  0  0  0  0  0
  141.0440   71.6890  226.3180 O   0  0  0  0  0  0  0  0  0  0  0  0
  141.0560   71.4720  227.6760 C   0  0  0  0  0  0  0  0  0  0  0  0
  140.8390   70.0520  228.0550 C   0  0  0  0  0  0  0  0  0  0  0  0
  139.4340   69.5630  228.0270 C   0  0  0  0  0  0  0  0  0  0  0  0
  140.0040   68.1870  227.6250 C   0  0  0  0  0  0  0  0  0  0  0  0
  141.1690   68.9950  227.0160 C   0  0  0  0  0  0  0  0  0  0  0  0
  139.0570   70.7350  225.2410 O   0  0  0  0  0  0  0  0  0  0  0  0
  133.6990   74.0290  225.8630 C   0  0  0  0  0  0  0  0  0  0  0  0
  134.4840   74.9870  225.2520 C   0  0  0  0  0  0  0  0  0  0  0  0
  134.3040   76.2970  225.6980 C   0  0  0  0  0  0  0  0  0  0  0  0
  133.3930   76.6050  226.6910 C   0  0  0  0  0  0  0  0  0  0  0  0
  133.2010   77.9010  227.1450 C   0  0  0  0  0  0  0  0  0  0  0  0
  132.2790   78.1650  228.1410 C   0  0  0  0  0  0  0  0  0  0  0  0
  132.0320   79.8020  228.7200 Cl  0  0  0  0  0  0  0  0  0  0  0  0
  131.5210   77.1630  228.7160 C   0  0  0  0  0  0  0  0  0  0  0  0
  131.7040   75.8670  228.2700 C   0  0  0  0  0  0  0  0  0  0  0  0
  132.6280   75.6130  227.2750 C   0  0  0  0  0  0  0  0  0  0  0  0
  132.8100   74.3580  226.8370 N   0  0  0  0  0  0  0  0  0  0  0  0
  134.2560   71.9310  227.3490 H   0  0  0  0  0  0  0  0  0  0  0  0
  134.6127   69.7025  226.9025 H   0  0  0  0  0  0  0  0  0  0  0  0
  133.4109   70.0148  225.4630 H   0  0  0  0  0  0  0  0  0  0  0  0
  135.6329   72.5382  224.1412 H   0  0  0  0  0  0  0  0  0  0  0  0
  137.3486   72.3865  224.2982 H   0  0  0  0  0  0  0  0  0  0  0  0
  135.5440   71.7484  221.8716 H   0  0  0  0  0  0  0  0  0  0  0  0
  137.1206   72.5140  221.8215 H   0  0  0  0  0  0  0  0  0  0  0  0
  136.4880   69.6686  221.6263 H   0  0  0  0  0  0  0  0  0  0  0  0
  138.1014   70.3856  221.5643 H   0  0  0  0  0  0  0  0  0  0  0  0
  137.4943   68.7589  223.7649 H   0  0  0  0  0  0  0  0  0  0  0  0
  141.6871   71.5616  223.6278 H   0  0  0  0  0  0  0  0  0  0  0  0
  142.0319   71.7916  228.0703 H   0  0  0  0  0  0  0  0  0  0  0  0
  140.2223   72.0497  228.1016 H   0  0  0  0  0  0  0  0  0  0  0  0
  141.4082   70.1196  228.9939 H   0  0  0  0  0  0  0  0  0  0  0  0
  138.9204   69.5822  228.9995 H   0  0  0  0  0  0  0  0  0  0  0  0
  138.6544   70.0655  227.4356 H   0  0  0  0  0  0  0  0  0  0  0  0
  140.2781   67.5309  228.4643 H   0  0  0  0  0  0  0  0  0  0  0  0
  139.4280   67.4437  227.0543 H   0  0  0  0  0  0  0  0  0  0  0  0
  142.1611   68.5322  227.1232 H   0  0  0  0  0  0  0  0  0  0  0  0
  141.2333   69.2217  225.9416 H   0  0  0  0  0  0  0  0  0  0  0  0
  135.2066   74.7331  224.4624 H   0  0  0  0  0  0  0  0  0  0  0  0
  134.9014   77.1039  225.2486 H   0  0  0  0  0  0  0  0  0  0  0  0
  133.7861   78.7246  226.7099 H   0  0  0  0  0  0  0  0  0  0  0  0
  130.7915   77.3902  229.5074 H   0  0  0  0  0  0  0  0  0  0  0  0
  131.1178   75.0439  228.7046 H   0  0  0  0  0  0  0  0  0  0  0  0
  1  2  2  0
  2  3  1  0
  3  4  1  0
  4  5  1  0
  5  6  2  0
  5  7  1  0
  7  8  1  0
  8  9  1  0
  9 10  1  0
 10 11  1  0
 11 12  1  0
 12 13  2  0
 13 14  1  0
 14 15  2  0
 15 16  1  0
 16 17  1  0
 17 18  1  0
 18 19  1  0
 19 20  1  0
 20 21  1  0
 15 22  1  0
  2 23  1  0
 23 24  2  0
 24 25  1  0
 25 26  2  0
 26 27  1  0
 27 28  2  0
 28 29  1  0
 28 30  1  0
 30 31  2  0
 31 32  1  0
 32 33  2  0
 11  7  1  0
 22 12  1  0
 33 23  1  0
 21 18  1  0
 32 26  1  0
  3 34  1  0
  4 35  1  0
  4 36  1  0
  8 37  1  0
  8 38  1  0
  9 39  1  0
  9 40  1  0
 10 41  1  0
 10 42  1  0
 11 43  1  6
 14 44  1  0
 17 45  1  0
 17 46  1  0
 18 47  1  0
 19 48  1  0
 19 49  1  0
 20 50  1  0
 20 51  1  0
 21 52  1  0
 21 53  1  0
 24 54  1  0
 25 55  1  0
 27 56  1  0
 30 57  1  0
 31 58  1  0
M  END
>  <smiles>  (13) 
O=C(NCC(=O)N1CCC[C@H]1c1ncc(OCC2CCC2)o1)c1ccc2cc(Cl)ccc2n1

>  <score_type>  (13) 
oracle

>  <origin>  (13) 
autodockgpu

>  <m_score__min__energy>  (13) 
-8.2899999999999991

>  <m_primary>  (13) 
energy

>  <rmsd>  (13) 
8.761144303652824

>  <m_score__min__rmsd>  (13) 
8.761144303652824

>  <meeko>  (13) 
{"free_energy": -7.44, "intermolecular_energy": -9.83, "internal_energy": -1.82, "cluster_size": 2, "cluster_id": 5, "rank_in_cluster": 2}

>  <energy>  (13) 
-7.15

>  <cluster_rmsd>  (13) 
1.8

>  <cluster>  (13) 
1

$$$$

     RDKit          3D

 58 62  0  0  0  0  0  0  0  0999 V2000
  138.4960   71.6210  221.1830 O   0  0  0  0  0  0  0  0  0  0  0  0
  139.1470   71.9670  222.2000 C   0  0  0  0  0  0  0  0  0  0  0  0
  139.6430   73.3250  222.1770 N   0  0  0  0  0  0  0  0  0  0  0  0
  139.4370   74.2350  221.1230 C   0  0  0  0  0  0  0  0  0  0  0  0
  139.8390   75.6200  221.2010 C   0  0  0  0  0  0  0  0  0  0  0  0
  140.4250   75.9240  222.3420 O   0  0  0  0  0  0  0  0  0  0  0  0
  139.7240   76.6880  220.3140 N   0  0  0  0  0  0  0  0  0  0  0  0
  138.7410   77.7020  220.0250 C   0  0  0  0  0  0  0  0  0  0  0  0
  138.5460   77.4540  218.5220 C   0  0  0  0  0  0  0  0  0  0  0  0
  139.9140   76.9840  218.0620 C   0  0  0  0  0  0  0  0  0  0  0  0
  140.7960   77.0100  219.3190 C   0  0  1  0  0  0  0  0  0  0  0  0
  141.2770   78.3890  219.4760 C   0  0  0  0  0  0  0  0  0  0  0  0
  141.7850   79.1350  218.5000 N   0  0  0  0  0  0  0  0  0  0  0  0
  142.1060   80.3210  219.0350 C   0  0  0  0  0  0  0  0  0  0  0  0
  141.7730   80.2880  220.4130 C   0  0  0  0  0  0  0  0  0  0  0  0
  141.9920   81.3650  221.2040 O   0  0  0  0  0  0  0  0  0  0  0  0
  141.4320   81.7770  222.3900 C   0  0  0  0  0  0  0  0  0  0  0  0
  141.5690   80.7880  223.4900 C   0  0  0  0  0  0  0  0  0  0  0  0
  140.6300   79.6330  223.4670 C   0  0  0  0  0  0  0  0  0  0  0  0
  141.7640   78.8010  224.1030 C   0  0  0  0  0  0  0  0  0  0  0  0
  142.7100   79.7910  223.3920 C   0  0  0  0  0  0  0  0  0  0  0  0
  141.2880   79.1000  220.5750 O   0  0  0  0  0  0  0  0  0  0  0  0
  139.3950   71.0810  223.3290 C   0  0  0  0  0  0  0  0  0  0  0  0
  139.0020   69.7650  223.1880 C   0  0  0  0  0  0  0  0  0  0  0  0
  139.2500   68.9350  224.2820 C   0  0  0  0  0  0  0  0  0  0  0  0
  139.8530   69.4130  225.4310 C   0  0  0  0  0  0  0  0  0  0  0  0
  140.1060   68.6020  226.5280 C   0  0  0  0  0  0  0  0  0  0  0  0
  140.7110   69.1210  227.6580 C   0  0  0  0  0  0  0  0  0  0  0  0
  141.0350   68.1010  229.0480 Cl  0  0  0  0  0  0  0  0  0  0  0  0
  141.0830   70.4490  227.7400 C   0  0  0  0  0  0  0  0  0  0  0  0
  140.8340   71.2660  226.6520 C   0  0  0  0  0  0  0  0  0  0  0  0
  140.2300   70.7390  225.5280 C   0  0  0  0  0  0  0  0  0  0  0  0
  139.9860   71.5250  224.4690 N   0  0  0  0  0  0  0  0  0  0  0  0
  140.1910   73.5740  223.0600 H   0  0  0  0  0  0  0  0  0  0  0  0
  139.9589   73.8146  220.2507 H   0  0  0  0  0  0  0  0  0  0  0  0
  138.3404   74.3200  221.1111 H   0  0  0  0  0  0  0  0  0  0  0  0
  137.8107   77.5432  220.5901 H   0  0  0  0  0  0  0  0  0  0  0  0
  139.0363   78.7270  220.2935 H   0  0  0  0  0  0  0  0  0  0  0  0
  137.7844   76.6799  218.3465 H   0  0  0  0  0  0  0  0  0  0  0  0
  138.1945   78.3455  217.9820 H   0  0  0  0  0  0  0  0  0  0  0  0
  139.8540   75.9640  217.6546 H   0  0  0  0  0  0  0  0  0  0  0  0
  140.3196   77.6226  217.2634 H   0  0  0  0  0  0  0  0  0  0  0  0
  141.6820   76.3595  219.3624 H   0  0  0  0  0  0  0  0  0  0  0  0
  142.5506   81.1722  218.4985 H   0  0  0  0  0  0  0  0  0  0  0  0
  141.9229   82.7114  222.6998 H   0  0  0  0  0  0  0  0  0  0  0  0
  140.3552   81.9091  222.2085 H   0  0  0  0  0  0  0  0  0  0  0  0
  141.5411   81.5388  224.2934 H   0  0  0  0  0  0  0  0  0  0  0  0
  139.7371   79.7528  224.0981 H   0  0  0  0  0  0  0  0  0  0  0  0
  140.1205   79.3148  222.5455 H   0  0  0  0  0  0  0  0  0  0  0  0
  141.8020   78.8250  225.2021 H   0  0  0  0  0  0  0  0  0  0  0  0
  141.8430   77.7098  223.9884 H   0  0  0  0  0  0  0  0  0  0  0  0
  143.6124   80.0606  223.9604 H   0  0  0  0  0  0  0  0  0  0  0  0
  143.2072   79.5534  222.4400 H   0  0  0  0  0  0  0  0  0  0  0  0
  138.5230   69.3937  222.2700 H   0  0  0  0  0  0  0  0  0  0  0  0
  138.9590   67.8755  224.2292 H   0  0  0  0  0  0  0  0  0  0  0  0
  139.8235   67.5393  226.4986 H   0  0  0  0  0  0  0  0  0  0  0  0
  141.5642   70.8459  228.6461 H   0  0  0  0  0  0  0  0  0  0  0  0
  141.1155   72.3289  226.6821 H   0  0  0  0  0  0  0  0  0  0  0  0
  1  2  2  0
  2  3  1  0
  3  4  1  0
  4  5  1  0
  5  6  2  0
  5  7  1  0
  7  8  1  0
  8  9  1  0
  9 10  1  0
 10 11  1  0
 11 12  1  0
 12 13  2  0
 13 14  1  0
 14 15  2  0
 15 16  1  0
 16 17  1  0
 17 18  1  0
 18 19  1  0
 19 20  1  0
 20 21  1  0
 15 22  1  0
  2 23  1  0
 23 24  2  0
 24 25  1  0
 25 26  2  0
 26 27  1  0
 27 28  2  0
 28 29  1  0
 28 30  1  0
 30 31  2  0
 31 32  1  0
 32 33  2  0
 11  7  1  0
 22 12  1  0
 33 23  1  0
 21 18  1  0
 32 26  1  0
  3 34  1  0
  4 35  1  0
  4 36  1  0
  8 37  1  0
  8 38  1  0
  9 39  1  0
  9 40  1  0
 10 41  1  0
 10 42  1  0
 11 43  1  6
 14 44  1  0
 17 45  1  0
 17 46  1  0
 18 47  1  0
 19 48  1  0
 19 49  1  0
 20 50  1  0
 20 51  1  0
 21 52  1  0
 21 53  1  0
 24 54  1  0
 25 55  1  0
 27 56  1  0
 30 57  1  0
 31 58  1  0
M  END
>  <smiles>  (14) 
O=C(NCC(=O)N1CCC[C@H]1c1ncc(OCC2CCC2)o1)c1ccc2cc(Cl)ccc2n1

>  <score_type>  (14) 
oracle

>  <origin>  (14) 
autodockgpu

>  <m_score__min__energy>  (14) 
-8.2899999999999991

>  <m_primary>  (14) 
energy

>  <rmsd>  (14) 
1.9035849607138327

>  <m_score__min__rmsd>  (14) 
1.9035849607138327

>  <meeko>  (14) 
{"free_energy": -7.38, "intermolecular_energy": -9.77, "internal_energy": -2.37, "cluster_size": 14, "cluster_id": 1, "rank_in_cluster": 9}

>  <energy>  (14) 
-6.78

>  <cluster_rmsd>  (14) 
1.61

>  <cluster>  (14) 
1

$$$$

     RDKit          3D

 58 62  0  0  0  0  0  0  0  0999 V2000
  138.2780   71.2790  220.9250 O   0  0  0  0  0  0  0  0  0  0  0  0
  138.6530   71.7410  222.0310 C   0  0  0  0  0  0  0  0  0  0  0  0
  138.6780   73.1840  222.1160 N   0  0  0  0  0  0  0  0  0  0  0  0
  138.3130   74.0530  221.0700 C   0  0  0  0  0  0  0  0  0  0  0  0
  138.6120   75.4660  221.0950 C   0  0  0  0  0  0  0  0  0  0  0  0
  137.5420   76.2240  220.9570 O   0  0  0  0  0  0  0  0  0  0  0  0
  139.8020   76.1770  221.2300 N   0  0  0  0  0  0  0  0  0  0  0  0
  140.6110   76.6590  222.3220 C   0  0  0  0  0  0  0  0  0  0  0  0
  140.6790   78.1490  221.9570 C   0  0  0  0  0  0  0  0  0  0  0  0
  140.6440   78.1420  220.4400 C   0  0  0  0  0  0  0  0  0  0  0  0
  140.5750   76.6600  220.0420 C   0  0  1  0  0  0  0  0  0  0  0  0
  141.9530   76.1500  220.0540 C   0  0  0  0  0  0  0  0  0  0  0  0
  143.0080   76.7910  219.5630 N   0  0  0  0  0  0  0  0  0  0  0  0
  144.0760   76.0060  219.7610 C   0  0  0  0  0  0  0  0  0  0  0  0
  143.6390   74.8220  220.4090 C   0  0  0  0  0  0  0  0  0  0  0  0
  144.5190   73.8460  220.7330 O   0  0  0  0  0  0  0  0  0  0  0  0
  144.7150   72.5730  220.2490 C   0  0  0  0  0  0  0  0  0  0  0  0
  143.6420   71.6190  220.6310 C   0  0  0  0  0  0  0  0  0  0  0  0
  142.2550   71.9850  220.2350 C   0  0  0  0  0  0  0  0  0  0  0  0
  141.9830   70.4730  220.0880 C   0  0  0  0  0  0  0  0  0  0  0  0
  143.4930   70.3650  219.7880 C   0  0  0  0  0  0  0  0  0  0  0  0
  142.3650   75.0050  220.5390 O   0  0  0  0  0  0  0  0  0  0  0  0
  139.0410   70.9020  223.1570 C   0  0  0  0  0  0  0  0  0  0  0  0
  138.7550   69.5550  223.0590 C   0  0  0  0  0  0  0  0  0  0  0  0
  139.1350   68.7710  224.1500 C   0  0  0  0  0  0  0  0  0  0  0  0
  139.7600   69.3210  225.2540 C   0  0  0  0  0  0  0  0  0  0  0  0
  140.1440   68.5560  226.3450 C   0  0  0  0  0  0  0  0  0  0  0  0
  140.7660   69.1480  227.4300 C   0  0  0  0  0  0  0  0  0  0  0  0
  141.2560   68.1870  228.8140 Cl  0  0  0  0  0  0  0  0  0  0  0  0
  141.0270   70.5040  227.4700 C   0  0  0  0  0  0  0  0  0  0  0  0
  140.6470   71.2750  226.3860 C   0  0  0  0  0  0  0  0  0  0  0  0
  140.0270   70.6760  225.3080 C   0  0  0  0  0  0  0  0  0  0  0  0
  139.6560   71.4180  224.2530 N   0  0  0  0  0  0  0  0  0  0  0  0
  139.0060   73.5310  223.0720 H   0  0  0  0  0  0  0  0  0  0  0  0
  138.7904   73.6557  220.1621 H   0  0  0  0  0  0  0  0  0  0  0  0
  137.2159   74.0532  221.1494 H   0  0  0  0  0  0  0  0  0  0  0  0
  140.1235   76.4977  223.2948 H   0  0  0  0  0  0  0  0  0  0  0  0
  141.5858   76.1619  222.4344 H   0  0  0  0  0  0  0  0  0  0  0  0
  139.8168   78.6946  222.3680 H   0  0  0  0  0  0  0  0  0  0  0  0
  141.5698   78.6503  222.3635 H   0  0  0  0  0  0  0  0  0  0  0  0
  139.7583   78.6810  220.0727 H   0  0  0  0  0  0  0  0  0  0  0  0
  141.5233   78.6418  220.0076 H   0  0  0  0  0  0  0  0  0  0  0  0
  140.1458   76.3885  219.0663 H   0  0  0  0  0  0  0  0  0  0  0  0
  145.1113   76.2391  219.4715 H   0  0  0  0  0  0  0  0  0  0  0  0
  144.7620   72.6219  219.1511 H   0  0  0  0  0  0  0  0  0  0  0  0
  145.6504   72.2003  220.6919 H   0  0  0  0  0  0  0  0  0  0  0  0
  143.9436   71.5581  221.6871 H   0  0  0  0  0  0  0  0  0  0  0  0
  141.6685   72.4841  221.0204 H   0  0  0  0  0  0  0  0  0  0  0  0
  142.0502   72.6955  219.4206 H   0  0  0  0  0  0  0  0  0  0  0  0
  141.6509   69.9660  221.0060 H   0  0  0  0  0  0  0  0  0  0  0  0
  141.2091   70.0657  219.4207 H   0  0  0  0  0  0  0  0  0  0  0  0
  143.9848   69.4697  220.1962 H   0  0  0  0  0  0  0  0  0  0  0  0
  143.8887   70.2901  218.7644 H   0  0  0  0  0  0  0  0  0  0  0  0
  138.2585   69.1260  222.1761 H   0  0  0  0  0  0  0  0  0  0  0  0
  138.9323   67.6900  224.1308 H   0  0  0  0  0  0  0  0  0  0  0  0
  139.9531   67.4727  226.3479 H   0  0  0  0  0  0  0  0  0  0  0  0
  141.5235   70.9583  228.3401 H   0  0  0  0  0  0  0  0  0  0  0  0
  140.8377   72.3583  226.3832 H   0  0  0  0  0  0  0  0  0  0  0  0
  1  2  2  0
  2  3  1  0
  3  4  1  0
  4  5  1  0
  5  6  2  0
  5  7  1  0
  7  8  1  0
  8  9  1  0
  9 10  1  0
 10 11  1  0
 11 12  1  0
 12 13  2  0
 13 14  1  0
 14 15  2  0
 15 16  1  0
 16 17  1  0
 17 18  1  0
 18 19  1  0
 19 20  1  0
 20 21  1  0
 15 22  1  0
  2 23  1  0
 23 24  2  0
 24 25  1  0
 25 26  2  0
 26 27  1  0
 27 28  2  0
 28 29  1  0
 28 30  1  0
 30 31  2  0
 31 32  1  0
 32 33  2  0
 11  7  1  0
 22 12  1  0
 33 23  1  0
 21 18  1  0
 32 26  1  0
  3 34  1  0
  4 35  1  0
  4 36  1  0
  8 37  1  0
  8 38  1  0
  9 39  1  0
  9 40  1  0
 10 41  1  0
 10 42  1  0
 11 43  1  6
 14 44  1  0
 17 45  1  0
 17 46  1  0
 18 47  1  0
 19 48  1  0
 19 49  1  0
 20 50  1  0
 20 51  1  0
 21 52  1  0
 21 53  1  0
 24 54  1  0
 25 55  1  0
 27 56  1  0
 30 57  1  0
 31 58  1  0
M  END
>  <smiles>  (15) 
O=C(NCC(=O)N1CCC[C@H]1c1ncc(OCC2CCC2)o1)c1ccc2cc(Cl)ccc2n1

>  <score_type>  (15) 
oracle

>  <origin>  (15) 
autodockgpu

>  <m_score__min__energy>  (15) 
-8.2899999999999991

>  <m_primary>  (15) 
energy

>  <rmsd>  (15) 
2.760103691381497

>  <m_score__min__rmsd>  (15) 
2.760103691381497

>  <meeko>  (15) 
{"free_energy": -6.8, "intermolecular_energy": -9.19, "internal_energy": -2.31, "cluster_size": 5, "cluster_id": 4, "rank_in_cluster": 4}

>  <energy>  (15) 
-8.09

>  <cluster_rmsd>  (15) 
0.0

>  <cluster>  (15) 
2

$$$$

     RDKit          3D

 58 62  0  0  0  0  0  0  0  0999 V2000
  138.5670   71.5710  221.4250 O   0  0  0  0  0  0  0  0  0  0  0  0
  138.2170   71.7030  222.6240 C   0  0  0  0  0  0  0  0  0  0  0  0
  137.2690   72.7670  222.8720 N   0  0  0  0  0  0  0  0  0  0  0  0
  136.7430   73.6170  221.8810 C   0  0  0  0  0  0  0  0  0  0  0  0
  137.5230   74.6630  221.2620 C   0  0  0  0  0  0  0  0  0  0  0  0
  136.8980   75.8230  221.2280 O   0  0  0  0  0  0  0  0  0  0  0  0
  138.7950   74.6820  220.6940 N   0  0  0  0  0  0  0  0  0  0  0  0
  139.3540   74.4780  219.3810 C   0  0  0  0  0  0  0  0  0  0  0  0
  140.3700   73.3710  219.6990 C   0  0  0  0  0  0  0  0  0  0  0  0
  140.8020   73.6880  221.1200 C   0  0  0  0  0  0  0  0  0  0  0  0
  140.0220   74.9530  221.5090 C   0  0  1  0  0  0  0  0  0  0  0  0
  140.7750   76.0980  220.9810 C   0  0  0  0  0  0  0  0  0  0  0  0
  141.9940   76.0330  220.4530 N   0  0  0  0  0  0  0  0  0  0  0  0
  142.3350   77.2770  220.0910 C   0  0  0  0  0  0  0  0  0  0  0  0
  141.2610   78.1430  220.4190 C   0  0  0  0  0  0  0  0  0  0  0  0
  141.3370   79.4690  220.1590 O   0  0  0  0  0  0  0  0  0  0  0  0
  141.9650   80.5090  220.8050 C   0  0  0  0  0  0  0  0  0  0  0  0
  141.8080   80.4760  222.2810 C   0  0  0  0  0  0  0  0  0  0  0  0
  140.5410   79.8930  222.8020 C   0  0  0  0  0  0  0  0  0  0  0  0
  141.3590   79.4020  224.0150 C   0  0  0  0  0  0  0  0  0  0  0  0
  142.5530   79.3900  223.0380 C   0  0  0  0  0  0  0  0  0  0  0  0
  140.3840   77.3470  220.9410 O   0  0  0  0  0  0  0  0  0  0  0  0
  138.7170   70.8570  223.6990 C   0  0  0  0  0  0  0  0  0  0  0  0
  138.4410   69.5070  223.6120 C   0  0  0  0  0  0  0  0  0  0  0  0
  138.9300   68.7170  224.6530 C   0  0  0  0  0  0  0  0  0  0  0  0
  139.6450   69.2640  225.7030 C   0  0  0  0  0  0  0  0  0  0  0  0
  140.1380   68.4940  226.7450 C   0  0  0  0  0  0  0  0  0  0  0  0
  140.8480   69.0820  227.7760 C   0  0  0  0  0  0  0  0  0  0  0  0
  141.4750   68.1130  229.0980 Cl  0  0  0  0  0  0  0  0  0  0  0  0
  141.0930   70.4410  227.8080 C   0  0  0  0  0  0  0  0  0  0  0  0
  140.6050   71.2190  226.7740 C   0  0  0  0  0  0  0  0  0  0  0  0
  139.8980   70.6220  225.7490 C   0  0  0  0  0  0  0  0  0  0  0  0
  139.4220   71.3700  224.7420 N   0  0  0  0  0  0  0  0  0  0  0  0
  137.0030   72.8430  223.9040 H   0  0  0  0  0  0  0  0  0  0  0  0
  136.4071   72.9620  221.0636 H   0  0  0  0  0  0  0  0  0  0  0  0
  136.0014   74.1960  222.4510 H   0  0  0  0  0  0  0  0  0  0  0  0
  138.5940   74.1412  218.6606 H   0  0  0  0  0  0  0  0  0  0  0  0
  139.7778   75.3776  218.9107 H   0  0  0  0  0  0  0  0  0  0  0  0
  139.9006   72.3778  219.6425 H   0  0  0  0  0  0  0  0  0  0  0  0
  141.2109   73.3432  218.9904 H   0  0  0  0  0  0  0  0  0  0  0  0
  140.5485   72.8566  221.7942 H   0  0  0  0  0  0  0  0  0  0  0  0
  141.8892   73.8380  221.1940 H   0  0  0  0  0  0  0  0  0  0  0  0
  139.8369   75.1598  222.5734 H   0  0  0  0  0  0  0  0  0  0  0  0
  143.2837   77.5750  219.6208 H   0  0  0  0  0  0  0  0  0  0  0  0
  143.0385   80.4670  220.5688 H   0  0  0  0  0  0  0  0  0  0  0  0
  141.4939   81.4383  220.4521 H   0  0  0  0  0  0  0  0  0  0  0  0
  142.0575   81.5378  222.4238 H   0  0  0  0  0  0  0  0  0  0  0  0
  139.7595   80.6292  223.0412 H   0  0  0  0  0  0  0  0  0  0  0  0
  139.9238   79.2094  222.2005 H   0  0  0  0  0  0  0  0  0  0  0  0
  141.4410   80.1191  224.8451 H   0  0  0  0  0  0  0  0  0  0  0  0
  141.0700   78.5287  224.6182 H   0  0  0  0  0  0  0  0  0  0  0  0
  143.5131   79.7030  223.4741 H   0  0  0  0  0  0  0  0  0  0  0  0
  142.9106   78.4699  222.5526 H   0  0  0  0  0  0  0  0  0  0  0  0
  137.8707   69.0805  222.7736 H   0  0  0  0  0  0  0  0  0  0  0  0
  138.7423   67.6332  224.6382 H   0  0  0  0  0  0  0  0  0  0  0  0
  139.9633   67.4080  226.7519 H   0  0  0  0  0  0  0  0  0  0  0  0
  141.6614   70.8927  228.6344 H   0  0  0  0  0  0  0  0  0  0  0  0
  140.7787   72.3052  226.7681 H   0  0  0  0  0  0  0  0  0  0  0  0
  1  2  2  0
  2  3  1  0
  3  4  1  0
  4  5  1  0
  5  6  2  0
  5  7  1  0
  7  8  1  0
  8  9  1  0
  9 10  1  0
 10 11  1  0
 11 12  1  0
 12 13  2  0
 13 14  1  0
 14 15  2  0
 15 16  1  0
 16 17  1  0
 17 18  1  0
 18 19  1  0
 19 20  1  0
 20 21  1  0
 15 22  1  0
  2 23  1  0
 23 24  2  0
 24 25  1  0
 25 26  2  0
 26 27  1  0
 27 28  2  0
 28 29  1  0
 28 30  1  0
 30 31  2  0
 31 32  1  0
 32 33  2  0
 11  7  1  0
 22 12  1  0
 33 23  1  0
 21 18  1  0
 32 26  1  0
  3 34  1  0
  4 35  1  0
  4 36  1  0
  8 37  1  0
  8 38  1  0
  9 39  1  0
  9 40  1  0
 10 41  1  0
 10 42  1  0
 11 43  1  1
 14 44  1  0
 17 45  1  0
 17 46  1  0
 18 47  1  0
 19 48  1  0
 19 49  1  0
 20 50  1  0
 20 51  1  0
 21 52  1  0
 21 53  1  0
 24 54  1  0
 25 55  1  0
 27 56  1  0
 30 57  1  0
 31 58  1  0
M  END
>  <smiles>  (16) 
O=C(NCC(=O)N1CCC[C@H]1c1ncc(OCC2CCC2)o1)c1ccc2cc(Cl)ccc2n1

>  <score_type>  (16) 
oracle

>  <origin>  (16) 
autodockgpu

>  <m_score__min__energy>  (16) 
-8.2899999999999991

>  <m_primary>  (16) 
energy

>  <rmsd>  (16) 
2.3753618992752825

>  <m_score__min__rmsd>  (16) 
2.3753618992752825

>  <meeko>  (16) 
{"free_energy": -7.15, "intermolecular_energy": -9.53, "internal_energy": -1.98, "cluster_size": 14, "cluster_id": 1, "rank_in_cluster": 13}

>  <energy>  (16) 
-7.85

>  <cluster_rmsd>  (16) 
0.49

>  <cluster>  (16) 
2

$$$$

     RDKit          3D

 58 62  0  0  0  0  0  0  0  0999 V2000
  138.5120   71.5590  221.1220 O   0  0  0  0  0  0  0  0  0  0  0  0
  138.9220   71.9700  222.2350 C   0  0  0  0  0  0  0  0  0  0  0  0
  139.0690   73.4050  222.3430 N   0  0  0  0  0  0  0  0  0  0  0  0
  138.7830   74.3180  221.3110 C   0  0  0  0  0  0  0  0  0  0  0  0
  138.7930   75.7480  221.5130 C   0  0  0  0  0  0  0  0  0  0  0  0
  137.7820   76.1750  222.2420 O   0  0  0  0  0  0  0  0  0  0  0  0
  139.6570   76.7550  221.0870 N   0  0  0  0  0  0  0  0  0  0  0  0
  139.6200   77.8150  220.1090 C   0  0  0  0  0  0  0  0  0  0  0  0
  140.8860   77.4740  219.3100 C   0  0  0  0  0  0  0  0  0  0  0  0
  141.8110   76.8750  220.3540 C   0  0  0  0  0  0  0  0  0  0  0  0
  141.0240   76.9260  221.6720 C   0  0  1  0  0  0  0  0  0  0  0  0
  141.2060   78.2750  222.2250 C   0  0  0  0  0  0  0  0  0  0  0  0
  141.1730   78.5800  223.5190 N   0  0  0  0  0  0  0  0  0  0  0  0
  141.3790   79.9000  223.6200 C   0  0  0  0  0  0  0  0  0  0  0  0
  141.5450   80.4220  222.3120 C   0  0  0  0  0  0  0  0  0  0  0  0
  141.7710   81.7420  222.1170 O   0  0  0  0  0  0  0  0  0  0  0  0
  141.0560   82.7220  221.4680 C   0  0  0  0  0  0  0  0  0  0  0  0
  140.7480   82.3970  220.0520 C   0  0  0  0  0  0  0  0  0  0  0  0
  141.7310   81.5360  219.3390 C   0  0  0  0  0  0  0  0  0  0  0  0
  140.5370   80.9690  218.5430 C   0  0  0  0  0  0  0  0  0  0  0  0
  139.7050   81.3250  219.7930 C   0  0  0  0  0  0  0  0  0  0  0  0
  141.4260   79.3790  221.5560 O   0  0  0  0  0  0  0  0  0  0  0  0
  139.2340   71.0840  223.3490 C   0  0  0  0  0  0  0  0  0  0  0  0
  138.9370   69.7460  223.1830 C   0  0  0  0  0  0  0  0  0  0  0  0
  139.2440   68.9160  224.2630 C   0  0  0  0  0  0  0  0  0  0  0  0
  139.8100   69.4150  225.4210 C   0  0  0  0  0  0  0  0  0  0  0  0
  140.1220   68.6040  226.5030 C   0  0  0  0  0  0  0  0  0  0  0  0
  140.6880   69.1450  227.6430 C   0  0  0  0  0  0  0  0  0  0  0  0
  141.0840   68.1260  229.0150 Cl  0  0  0  0  0  0  0  0  0  0  0  0
  140.9620   70.4950  227.7500 C   0  0  0  0  0  0  0  0  0  0  0  0
  140.6560   71.3120  226.6770 C   0  0  0  0  0  0  0  0  0  0  0  0
  140.0910   70.7630  225.5420 C   0  0  0  0  0  0  0  0  0  0  0  0
  139.7910   71.5490  224.4970 N   0  0  0  0  0  0  0  0  0  0  0  0
  139.4220   73.7070  223.3050 H   0  0  0  0  0  0  0  0  0  0  0  0
  139.5147   74.1172  220.5146 H   0  0  0  0  0  0  0  0  0  0  0  0
  137.7156   74.1243  221.1291 H   0  0  0  0  0  0  0  0  0  0  0  0
  138.7158   77.7647  219.4846 H   0  0  0  0  0  0  0  0  0  0  0  0
  139.5914   78.8328  220.5253 H   0  0  0  0  0  0  0  0  0  0  0  0
  140.6656   76.7460  218.5154 H   0  0  0  0  0  0  0  0  0  0  0  0
  141.3209   78.3472  218.8016 H   0  0  0  0  0  0  0  0  0  0  0  0
  142.0619   75.8357  220.0953 H   0  0  0  0  0  0  0  0  0  0  0  0
  142.7613   77.4248  220.4229 H   0  0  0  0  0  0  0  0  0  0  0  0
  141.2787   76.2176  222.4741 H   0  0  0  0  0  0  0  0  0  0  0  0
  141.4134   80.4783  224.5551 H   0  0  0  0  0  0  0  0  0  0  0  0
  140.1074   82.8726  222.0041 H   0  0  0  0  0  0  0  0  0  0  0  0
  141.6823   83.6263  221.4616 H   0  0  0  0  0  0  0  0  0  0  0  0
  140.5711   83.4411  219.7543 H   0  0  0  0  0  0  0  0  0  0  0  0
  142.4692   82.0833  218.7344 H   0  0  0  0  0  0  0  0  0  0  0  0
  142.4334   80.8839  219.8789 H   0  0  0  0  0  0  0  0  0  0  0  0
  140.2748   81.5269  217.6320 H   0  0  0  0  0  0  0  0  0  0  0  0
  140.5403   79.9660  218.0914 H   0  0  0  0  0  0  0  0  0  0  0  0
  138.6929   81.7024  219.5852 H   0  0  0  0  0  0  0  0  0  0  0  0
  139.4253   80.5772  220.5497 H   0  0  0  0  0  0  0  0  0  0  0  0
  138.4865   69.3580  222.2575 H   0  0  0  0  0  0  0  0  0  0  0  0
  139.0303   67.8394  224.1905 H   0  0  0  0  0  0  0  0  0  0  0  0
  139.9179   67.5242  226.4536 H   0  0  0  0  0  0  0  0  0  0  0  0
  141.4117   70.9090  228.6645 H   0  0  0  0  0  0  0  0  0  0  0  0
  140.8610   72.3916  226.7268 H   0  0  0  0  0  0  0  0  0  0  0  0
  1  2  2  0
  2  3  1  0
  3  4  1  0
  4  5  1  0
  5  6  2  0
  5  7  1  0
  7  8  1  0
  8  9  1  0
  9 10  1  0
 10 11  1  0
 11 12  1  0
 12 13  2  0
 13 14  1  0
 14 15  2  0
 15 16  1  0
 16 17  1  0
 17 18  1  0
 18 19  1  0
 19 20  1  0
 20 21  1  0
 15 22  1  0
  2 23  1  0
 23 24  2  0
 24 25  1  0
 25 26  2  0
 26 27  1  0
 27 28  2  0
 28 29  1  0
 28 30  1  0
 30 31  2  0
 31 32  1  0
 32 33  2  0
 11  7  1  0
 22 12  1  0
 33 23  1  0
 21 18  1  0
 32 26  1  0
  3 34  1  0
  4 35  1  0
  4 36  1  0
  8 37  1  0
  8 38  1  0
  9 39  1  0
  9 40  1  0
 10 41  1  0
 10 42  1  0
 11 43  1  1
 14 44  1  0
 17 45  1  0
 17 46  1  0
 18 47  1  0
 19 48  1  0
 19 49  1  0
 20 50  1  0
 20 51  1  0
 21 52  1  0
 21 53  1  0
 24 54  1  0
 25 55  1  0
 27 56  1  0
 30 57  1  0
 31 58  1  0
M  END
>  <smiles>  (17) 
O=C(NCC(=O)N1CCC[C@H]1c1ncc(OCC2CCC2)o1)c1ccc2cc(Cl)ccc2n1

>  <score_type>  (17) 
oracle

>  <origin>  (17) 
autodockgpu

>  <m_score__min__energy>  (17) 
-8.2899999999999991

>  <m_primary>  (17) 
energy

>  <rmsd>  (17) 
1.7769284458234595

>  <m_score__min__rmsd>  (17) 
1.7769284458234595

>  <meeko>  (17) 
{"free_energy": -7.21, "intermolecular_energy": -9.59, "internal_energy": -2.08, "cluster_size": 14, "cluster_id": 1, "rank_in_cluster": 12}

>  <energy>  (17) 
-7.42

>  <cluster_rmsd>  (17) 
1.08

>  <cluster>  (17) 
2

$$$$

     RDKit          3D

 58 62  0  0  0  0  0  0  0  0999 V2000
  138.2070   71.9750  220.9010 O   0  0  0  0  0  0  0  0  0  0  0  0
  138.6580   72.3810  222.0000 C   0  0  0  0  0  0  0  0  0  0  0  0
  138.9000   73.8050  222.0750 N   0  0  0  0  0  0  0  0  0  0  0  0
  138.6610   74.7120  221.0250 C   0  0  0  0  0  0  0  0  0  0  0  0
  137.5350   75.6160  221.0210 C   0  0  0  0  0  0  0  0  0  0  0  0
  137.5980   76.5180  220.0630 O   0  0  0  0  0  0  0  0  0  0  0  0
  136.4050   75.7200  221.8310 N   0  0  0  0  0  0  0  0  0  0  0  0
  134.9770   75.7240  221.6340 C   0  0  0  0  0  0  0  0  0  0  0  0
  134.6240   77.0530  222.3170 C   0  0  0  0  0  0  0  0  0  0  0  0
  135.6530   77.1620  223.4280 C   0  0  0  0  0  0  0  0  0  0  0  0
  136.5080   75.8910  223.3150 C   0  0  1  0  0  0  0  0  0  0  0  0
  135.7900   74.8280  224.0290 C   0  0  0  0  0  0  0  0  0  0  0  0
  135.8620   73.5320  223.7420 N   0  0  0  0  0  0  0  0  0  0  0  0
  135.0690   72.8890  224.6110 C   0  0  0  0  0  0  0  0  0  0  0  0
  134.4860   73.8530  225.4720 C   0  0  0  0  0  0  0  0  0  0  0  0
  133.6340   73.4770  226.4550 O   0  0  0  0  0  0  0  0  0  0  0  0
  132.5780   74.1140  227.0640 C   0  0  0  0  0  0  0  0  0  0  0  0
  132.7850   75.5730  227.2440 C   0  0  0  0  0  0  0  0  0  0  0  0
  132.5080   76.4350  226.0630 C   0  0  0  0  0  0  0  0  0  0  0  0
  132.0640   77.5250  227.0610 C   0  0  0  0  0  0  0  0  0  0  0  0
  131.7090   76.3440  227.9880 C   0  0  0  0  0  0  0  0  0  0  0  0
  134.9760   74.9720  225.0460 O   0  0  0  0  0  0  0  0  0  0  0  0
  138.9250   71.5000  223.1290 C   0  0  0  0  0  0  0  0  0  0  0  0
  138.3220   70.2580  223.1080 C   0  0  0  0  0  0  0  0  0  0  0  0
  138.5920   69.4310  224.2000 C   0  0  0  0  0  0  0  0  0  0  0  0
  139.4150   69.8420  225.2320 C   0  0  0  0  0  0  0  0  0  0  0  0
  139.6940   69.0330  226.3240 C   0  0  0  0  0  0  0  0  0  0  0  0
  140.5230   69.4830  227.3350 C   0  0  0  0  0  0  0  0  0  0  0  0
  140.8810   68.4660  228.7190 Cl  0  0  0  0  0  0  0  0  0  0  0  0
  141.0990   70.7380  227.3000 C   0  0  0  0  0  0  0  0  0  0  0  0
  140.8270   71.5530  226.2160 C   0  0  0  0  0  0  0  0  0  0  0  0
  139.9990   71.0940  225.2110 C   0  0  0  0  0  0  0  0  0  0  0  0
  139.7310   71.8790  224.1560 N   0  0  0  0  0  0  0  0  0  0  0  0
  139.2860   74.1030  223.0250 H   0  0  0  0  0  0  0  0  0  0  0  0
  139.5594   75.3430  220.9562 H   0  0  0  0  0  0  0  0  0  0  0  0
  138.4090   74.0349  220.1955 H   0  0  0  0  0  0  0  0  0  0  0  0
  134.7111   75.7291  220.5666 H   0  0  0  0  0  0  0  0  0  0  0  0
  134.4499   74.8430  222.0289 H   0  0  0  0  0  0  0  0  0  0  0  0
  134.7143   77.8934  221.6131 H   0  0  0  0  0  0  0  0  0  0  0  0
  133.5883   77.0841  222.6864 H   0  0  0  0  0  0  0  0  0  0  0  0
  136.2753   78.0585  223.2901 H   0  0  0  0  0  0  0  0  0  0  0  0
  135.1804   77.2516  224.4172 H   0  0  0  0  0  0  0  0  0  0  0  0
  137.5339   75.9009  223.7119 H   0  0  0  0  0  0  0  0  0  0  0  0
  134.9001   71.8027  224.6493 H   0  0  0  0  0  0  0  0  0  0  0  0
  131.6796   73.9641  226.4473 H   0  0  0  0  0  0  0  0  0  0  0  0
  132.4750   73.6775  228.0684 H   0  0  0  0  0  0  0  0  0  0  0  0
  133.7981   75.4709  227.6602 H   0  0  0  0  0  0  0  0  0  0  0  0
  133.3935   76.6929  225.4636 H   0  0  0  0  0  0  0  0  0  0  0  0
  131.8603   76.1021  225.2386 H   0  0  0  0  0  0  0  0  0  0  0  0
  132.8681   78.1810  227.4259 H   0  0  0  0  0  0  0  0  0  0  0  0
  131.3485   78.3193  226.8017 H   0  0  0  0  0  0  0  0  0  0  0  0
  131.9136   76.5139  229.0554 H   0  0  0  0  0  0  0  0  0  0  0  0
  130.6814   75.9674  228.0981 H   0  0  0  0  0  0  0  0  0  0  0  0
  137.6692   69.9398  222.2819 H   0  0  0  0  0  0  0  0  0  0  0  0
  138.1394   68.4292  224.2402 H   0  0  0  0  0  0  0  0  0  0  0  0
  139.2529   68.0272  226.3859 H   0  0  0  0  0  0  0  0  0  0  0  0
  141.7566   71.0802  228.1127 H   0  0  0  0  0  0  0  0  0  0  0  0
  141.2671   72.5593  226.1551 H   0  0  0  0  0  0  0  0  0  0  0  0
  1  2  2  0
  2  3  1  0
  3  4  1  0
  4  5  1  0
  5  6  2  0
  5  7  1  0
  7  8  1  0
  8  9  1  0
  9 10  1  0
 10 11  1  0
 11 12  1  0
 12 13  2  0
 13 14  1  0
 14 15  2  0
 15 16  1  0
 16 17  1  0
 17 18  1  0
 18 19  1  0
 19 20  1  0
 20 21  1  0
 15 22  1  0
  2 23  1  0
 23 24  2  0
 24 25  1  0
 25 26  2  0
 26 27  1  0
 27 28  2  0
 28 29  1  0
 28 30  1  0
 30 31  2  0
 31 32  1  0
 32 33  2  0
 11  7  1  0
 22 12  1  0
 33 23  1  0
 21 18  1  0
 32 26  1  0
  3 34  1  0
  4 35  1  0
  4 36  1  0
  8 37  1  0
  8 38  1  0
  9 39  1  0
  9 40  1  0
 10 41  1  0
 10 42  1  0
 11 43  1  1
 14 44  1  0
 17 45  1  0
 17 46  1  0
 18 47  1  0
 19 48  1  0
 19 49  1  0
 20 50  1  0
 20 51  1  0
 21 52  1  0
 21 53  1  0
 24 54  1  0
 25 55  1  0
 27 56  1  0
 30 57  1  0
 31 58  1  0
M  END
>  <smiles>  (18) 
O=C(NCC(=O)N1CCC[C@H]1c1ncc(OCC2CCC2)o1)c1ccc2cc(Cl)ccc2n1

>  <score_type>  (18) 
oracle

>  <origin>  (18) 
autodockgpu

>  <m_score__min__energy>  (18) 
-8.2899999999999991

>  <m_primary>  (18) 
energy

>  <rmsd>  (18) 
4.636921934981141

>  <m_score__min__rmsd>  (18) 
4.636921934981141

>  <meeko>  (18) 
{"free_energy": -6.97, "intermolecular_energy": -9.36, "internal_energy": -2.41, "cluster_size": 3, "cluster_id": 6, "rank_in_cluster": 3}

>  <energy>  (18) 
-7.38

>  <cluster_rmsd>  (18) 
1.8

>  <cluster>  (18) 
2

$$$$

     RDKit          3D

 58 62  0  0  0  0  0  0  0  0999 V2000
  141.0290   74.8580  221.4330 O   0  0  0  0  0  0  0  0  0  0  0  0
  139.9530   75.1910  221.9870 C   0  0  0  0  0  0  0  0  0  0  0  0
  139.0220   74.1090  222.2200 N   0  0  0  0  0  0  0  0  0  0  0  0
  139.2570   72.7650  221.8750 C   0  0  0  0  0  0  0  0  0  0  0  0
  138.3900   71.6910  222.3010 C   0  0  0  0  0  0  0  0  0  0  0  0
  137.1420   72.0740  222.4800 O   0  0  0  0  0  0  0  0  0  0  0  0
  138.6170   70.3410  222.5600 N   0  0  0  0  0  0  0  0  0  0  0  0
  139.5960   69.3550  222.1760 C   0  0  0  0  0  0  0  0  0  0  0  0
  138.6680   68.2790  221.5940 C   0  0  0  0  0  0  0  0  0  0  0  0
  137.4070   68.4140  222.4280 C   0  0  0  0  0  0  0  0  0  0  0  0
  137.7020   69.5380  223.4320 C   0  0  1  0  0  0  0  0  0  0  0  0
  138.4280   68.9280  224.5540 C   0  0  0  0  0  0  0  0  0  0  0  0
  139.0370   67.7470  224.5180 N   0  0  0  0  0  0  0  0  0  0  0  0
  139.5800   67.5440  225.7260 C   0  0  0  0  0  0  0  0  0  0  0  0
  139.2800   68.6670  226.5390 C   0  0  0  0  0  0  0  0  0  0  0  0
  139.7110   68.7280  227.8210 O   0  0  0  0  0  0  0  0  0  0  0  0
  140.9270   69.0440  228.3790 C   0  0  0  0  0  0  0  0  0  0  0  0
  141.3660   70.4360  228.1030 C   0  0  0  0  0  0  0  0  0  0  0  0
  141.4370   70.8390  226.6720 C   0  0  0  0  0  0  0  0  0  0  0  0
  141.0500   72.2590  227.1360 C   0  0  0  0  0  0  0  0  0  0  0  0
  140.3470   71.5420  228.3070 C   0  0  0  0  0  0  0  0  0  0  0  0
  138.5940   69.4310  225.7520 O   0  0  0  0  0  0  0  0  0  0  0  0
  139.6450   76.5610  222.3740 C   0  0  0  0  0  0  0  0  0  0  0  0
  140.7150   77.4130  222.5620 C   0  0  0  0  0  0  0  0  0  0  0  0
  140.3960   78.7200  222.9320 C   0  0  0  0  0  0  0  0  0  0  0  0
  139.0840   79.1250  223.0980 C   0  0  0  0  0  0  0  0  0  0  0  0
  138.7500   80.4200  223.4660 C   0  0  0  0  0  0  0  0  0  0  0  0
  137.4240   80.7830  223.6220 C   0  0  0  0  0  0  0  0  0  0  0  0
  136.9930   82.4190  224.0860 Cl  0  0  0  0  0  0  0  0  0  0  0  0
  136.3950   79.8850  223.4200 C   0  0  0  0  0  0  0  0  0  0  0  0
  136.7180   78.5910  223.0530 C   0  0  0  0  0  0  0  0  0  0  0  0
  138.0440   78.2380  222.9000 C   0  0  0  0  0  0  0  0  0  0  0  0
  138.3650   76.9850  222.5440 N   0  0  0  0  0  0  0  0  0  0  0  0
  138.1220   74.4400  222.6890 H   0  0  0  0  0  0  0  0  0  0  0  0
  139.2695   72.7296  220.7756 H   0  0  0  0  0  0  0  0  0  0  0  0
  140.1783   72.5464  222.4349 H   0  0  0  0  0  0  0  0  0  0  0  0
  140.2947   69.7446  221.4210 H   0  0  0  0  0  0  0  0  0  0  0  0
  140.2546   69.0122  222.9877 H   0  0  0  0  0  0  0  0  0  0  0  0
  138.4596   68.4718  220.5312 H   0  0  0  0  0  0  0  0  0  0  0  0
  139.1031   67.2695  221.6334 H   0  0  0  0  0  0  0  0  0  0  0  0
  136.5509   68.6814  221.7911 H   0  0  0  0  0  0  0  0  0  0  0  0
  137.1469   67.4718  222.9327 H   0  0  0  0  0  0  0  0  0  0  0  0
  136.8621   70.0999  223.8665 H   0  0  0  0  0  0  0  0  0  0  0  0
  140.1580   66.6601  226.0338 H   0  0  0  0  0  0  0  0  0  0  0  0
  140.8540   68.9123  229.4686 H   0  0  0  0  0  0  0  0  0  0  0  0
  141.6730   68.3752  227.9249 H   0  0  0  0  0  0  0  0  0  0  0  0
  142.2668   70.3748  228.7313 H   0  0  0  0  0  0  0  0  0  0  0  0
  142.4366   70.7586  226.2199 H   0  0  0  0  0  0  0  0  0  0  0  0
  140.8755   70.3087  225.8888 H   0  0  0  0  0  0  0  0  0  0  0  0
  141.8940   72.9041  227.4214 H   0  0  0  0  0  0  0  0  0  0  0  0
  140.5397   72.9836  226.4845 H   0  0  0  0  0  0  0  0  0  0  0  0
  140.4118   72.0604  229.2750 H   0  0  0  0  0  0  0  0  0  0  0  0
  139.2635   71.3526  228.3194 H   0  0  0  0  0  0  0  0  0  0  0  0
  141.7554   77.0817  222.4283 H   0  0  0  0  0  0  0  0  0  0  0  0
  141.2068   79.4451  223.0955 H   0  0  0  0  0  0  0  0  0  0  0  0
  139.5438   81.1626  223.6348 H   0  0  0  0  0  0  0  0  0  0  0  0
  135.3460   80.1905  223.5475 H   0  0  0  0  0  0  0  0  0  0  0  0
  135.9241   77.8485  222.8842 H   0  0  0  0  0  0  0  0  0  0  0  0
  1  2  2  0
  2  3  1  0
  3  4  1  0
  4  5  1  0
  5  6  2  0
  5  7  1  0
  7  8  1  0
  8  9  1  0
  9 10  1  0
 10 11  1  0
 11 12  1  0
 12 13  2  0
 13 14  1  0
 14 15  2  0
 15 16  1  0
 16 17  1  0
 17 18  1  0
 18 19  1  0
 19 20  1  0
 20 21  1  0
 15 22  1  0
  2 23  1  0
 23 24  2  0
 24 25  1  0
 25 26  2  0
 26 27  1  0
 27 28  2  0
 28 29  1  0
 28 30  1  0
 30 31  2  0
 31 32  1  0
 32 33  2  0
 11  7  1  0
 22 12  1  0
 33 23  1  0
 21 18  1  0
 32 26  1  0
  3 34  1  0
  4 35  1  0
  4 36  1  0
  8 37  1  0
  8 38  1  0
  9 39  1  0
  9 40  1  0
 10 41  1  0
 10 42  1  0
 11 43  1  1
 14 44  1  0
 17 45  1  0
 17 46  1  0
 18 47  1  0
 19 48  1  0
 19 49  1  0
 20 50  1  0
 20 51  1  0
 21 52  1  0
 21 53  1  0
 24 54  1  0
 25 55  1  0
 27 56  1  0
 30 57  1  0
 31 58  1  0
M  END
>  <smiles>  (19) 
O=C(NCC(=O)N1CCC[C@H]1c1ncc(OCC2CCC2)o1)c1ccc2cc(Cl)ccc2n1

>  <score_type>  (19) 
oracle

>  <origin>  (19) 
autodockgpu

>  <m_score__min__energy>  (19) 
-8.2899999999999991

>  <m_primary>  (19) 
energy

>  <rmsd>  (19) 
8.946783317605231

>  <m_score__min__rmsd>  (19) 
8.946783317605231

>  <meeko>  (19) 
{"free_energy": -7.48, "intermolecular_energy": -9.86, "internal_energy": -1.91, "cluster_size": 1, "cluster_id": 8, "rank_in_cluster": 1}

>  <energy>  (19) 
-7.11

>  <cluster_rmsd>  (19) 
1.89

>  <cluster>  (19) 
2

$$$$

     RDKit          3D

 58 62  0  0  0  0  0  0  0  0999 V2000
  139.4570   72.2730  220.1710 O   0  0  0  0  0  0  0  0  0  0  0  0
  140.2190   71.4670  220.7590 C   0  0  0  0  0  0  0  0  0  0  0  0
  141.3920   71.0750  220.0110 N   0  0  0  0  0  0  0  0  0  0  0  0
  141.7070   71.5360  218.7180 C   0  0  0  0  0  0  0  0  0  0  0  0
  141.5900   72.9240  218.3390 C   0  0  0  0  0  0  0  0  0  0  0  0
  141.1840   73.0890  217.0960 O   0  0  0  0  0  0  0  0  0  0  0  0
  141.8260   74.1140  219.0260 N   0  0  0  0  0  0  0  0  0  0  0  0
  141.9380   75.5100  218.6850 C   0  0  0  0  0  0  0  0  0  0  0  0
  143.3230   75.8120  219.2750 C   0  0  0  0  0  0  0  0  0  0  0  0
  143.4010   74.8900  220.4790 C   0  0  0  0  0  0  0  0  0  0  0  0
  142.0600   74.1410  220.5040 C   0  0  1  0  0  0  0  0  0  0  0  0
  141.0960   75.0150  221.1840 C   0  0  0  0  0  0  0  0  0  0  0  0
  140.1190   74.5970  221.9840 N   0  0  0  0  0  0  0  0  0  0  0  0
  139.4600   75.6850  222.4060 C   0  0  0  0  0  0  0  0  0  0  0  0
  140.0750   76.8250  221.8270 C   0  0  0  0  0  0  0  0  0  0  0  0
  139.6080   78.0690  222.0870 O   0  0  0  0  0  0  0  0  0  0  0  0
  139.6890   78.8800  223.1950 C   0  0  0  0  0  0  0  0  0  0  0  0
  140.9160   79.7170  223.2330 C   0  0  0  0  0  0  0  0  0  0  0  0
  142.1600   79.0530  223.7090 C   0  0  0  0  0  0  0  0  0  0  0  0
  142.9280   79.9760  222.7410 C   0  0  0  0  0  0  0  0  0  0  0  0
  141.6240   79.9760  221.9160 C   0  0  0  0  0  0  0  0  0  0  0  0
  141.0340   76.3210  221.1210 O   0  0  0  0  0  0  0  0  0  0  0  0
  139.9580   70.9530  222.0970 C   0  0  0  0  0  0  0  0  0  0  0  0
  139.0640   69.9060  222.2000 C   0  0  0  0  0  0  0  0  0  0  0  0
  138.8290   69.4300  223.4910 C   0  0  0  0  0  0  0  0  0  0  0  0
  139.4600   69.9810  224.5910 C   0  0  0  0  0  0  0  0  0  0  0  0
  139.2390   69.5200  225.8800 C   0  0  0  0  0  0  0  0  0  0  0  0
  139.8910   70.1000  226.9530 C   0  0  0  0  0  0  0  0  0  0  0  0
  139.6170   69.5220  228.5860 Cl  0  0  0  0  0  0  0  0  0  0  0  0
  140.7770   71.1470  226.7870 C   0  0  0  0  0  0  0  0  0  0  0  0
  141.0050   71.6150  225.5050 C   0  0  0  0  0  0  0  0  0  0  0  0
  140.3490   71.0280  224.4400 C   0  0  0  0  0  0  0  0  0  0  0  0
  140.5650   71.4760  223.1940 N   0  0  0  0  0  0  0  0  0  0  0  0
  142.0080   70.3870  220.5480 H   0  0  0  0  0  0  0  0  0  0  0  0
  142.7570   71.2590  218.5424 H   0  0  0  0  0  0  0  0  0  0  0  0
  140.9149   71.0699  218.1135 H   0  0  0  0  0  0  0  0  0  0  0  0
  141.9133   75.6687  217.5968 H   0  0  0  0  0  0  0  0  0  0  0  0
  141.1234   76.1475  219.0593 H   0  0  0  0  0  0  0  0  0  0  0  0
  144.1182   75.5817  218.5507 H   0  0  0  0  0  0  0  0  0  0  0  0
  143.4567   76.8721  219.5364 H   0  0  0  0  0  0  0  0  0  0  0  0
  144.2357   74.1821  220.3687 H   0  0  0  0  0  0  0  0  0  0  0  0
  143.5769   75.4469  221.4111 H   0  0  0  0  0  0  0  0  0  0  0  0
  142.0048   73.1614  221.0014 H   0  0  0  0  0  0  0  0  0  0  0  0
  138.5933   75.6928  223.0833 H   0  0  0  0  0  0  0  0  0  0  0  0
  138.8136   79.5461  223.2028 H   0  0  0  0  0  0  0  0  0  0  0  0
  139.7218   78.2206  224.0748 H   0  0  0  0  0  0  0  0  0  0  0  0
  140.4489   80.5391  223.7952 H   0  0  0  0  0  0  0  0  0  0  0  0
  142.3877   79.2106  224.7736 H   0  0  0  0  0  0  0  0  0  0  0  0
  142.2805   77.9598  223.6903 H   0  0  0  0  0  0  0  0  0  0  0  0
  143.2185   80.9521  223.1568 H   0  0  0  0  0  0  0  0  0  0  0  0
  143.9071   79.7138  222.3136 H   0  0  0  0  0  0  0  0  0  0  0  0
  141.3775   80.9350  221.4369 H   0  0  0  0  0  0  0  0  0  0  0  0
  141.4829   79.3356  221.0328 H   0  0  0  0  0  0  0  0  0  0  0  0
  138.5674   69.4735  221.3189 H   0  0  0  0  0  0  0  0  0  0  0  0
  138.1254   68.5971  223.6366 H   0  0  0  0  0  0  0  0  0  0  0  0
  138.5405   68.6875  226.0502 H   0  0  0  0  0  0  0  0  0  0  0  0
  141.2877   71.5967  227.6513 H   0  0  0  0  0  0  0  0  0  0  0  0
  141.7031   72.4479  225.3350 H   0  0  0  0  0  0  0  0  0  0  0  0
  1  2  2  0
  2  3  1  0
  3  4  1  0
  4  5  1  0
  5  6  2  0
  5  7  1  0
  7  8  1  0
  8  9  1  0
  9 10  1  0
 10 11  1  0
 11 12  1  0
 12 13  2  0
 13 14  1  0
 14 15  2  0
 15 16  1  0
 16 17  1  0
 17 18  1  0
 18 19  1  0
 19 20  1  0
 20 21  1  0
 15 22  1  0
  2 23  1  0
 23 24  2  0
 24 25  1  0
 25 26  2  0
 26 27  1  0
 27 28  2  0
 28 29  1  0
 28 30  1  0
 30 31  2  0
 31 32  1  0
 32 33  2  0
 11  7  1  0
 22 12  1  0
 33 23  1  0
 21 18  1  0
 32 26  1  0
  3 34  1  0
  4 35  1  0
  4 36  1  0
  8 37  1  0
  8 38  1  0
  9 39  1  0
  9 40  1  0
 10 41  1  0
 10 42  1  0
 11 43  1  1
 14 44  1  0
 17 45  1  0
 17 46  1  0
 18 47  1  0
 19 48  1  0
 19 49  1  0
 20 50  1  0
 20 51  1  0
 21 52  1  0
 21 53  1  0
 24 54  1  0
 25 55  1  0
 27 56  1  0
 30 57  1  0
 31 58  1  0
M  END
>  <smiles>  (20) 
O=C(NCC(=O)N1CCC[C@H]1c1ncc(OCC2CCC2)o1)c1ccc2cc(Cl)ccc2n1

>  <score_type>  (20) 
oracle

>  <origin>  (20) 
autodockgpu

>  <m_score__min__energy>  (20) 
-8.2899999999999991

>  <m_primary>  (20) 
energy

>  <rmsd>  (20) 
3.2265943105101687

>  <m_score__min__rmsd>  (20) 
3.2265943105101687

>  <meeko>  (20) 
{"free_energy": -6.95, "intermolecular_energy": -9.34, "internal_energy": -2.15, "cluster_size": 4, "cluster_id": 7, "rank_in_cluster": 4}

>  <energy>  (20) 
-7.93

>  <cluster_rmsd>  (20) 
0.0

>  <cluster>  (20) 
3

$$$$

     RDKit          3D

 58 62  0  0  0  0  0  0  0  0999 V2000
  139.0930   71.1100  221.1250 O   0  0  0  0  0  0  0  0  0  0  0  0
  138.7320   71.5280  222.2530 C   0  0  0  0  0  0  0  0  0  0  0  0
  137.6450   72.4810  222.2340 N   0  0  0  0  0  0  0  0  0  0  0  0
  137.0010   72.9370  221.0670 C   0  0  0  0  0  0  0  0  0  0  0  0
  137.1410   74.2890  220.5810 C   0  0  0  0  0  0  0  0  0  0  0  0
  136.2990   74.5790  219.6090 O   0  0  0  0  0  0  0  0  0  0  0  0
  137.9890   75.3360  220.9340 N   0  0  0  0  0  0  0  0  0  0  0  0
  138.7860   76.3140  220.2350 C   0  0  0  0  0  0  0  0  0  0  0  0
  140.1570   76.0320  220.8670 C   0  0  0  0  0  0  0  0  0  0  0  0
  139.8100   75.5960  222.2790 C   0  0  0  0  0  0  0  0  0  0  0  0
  138.2790   75.6730  222.3640 C   0  0  1  0  0  0  0  0  0  0  0  0
  137.9370   77.0690  222.6670 C   0  0  0  0  0  0  0  0  0  0  0  0
  136.7140   77.5870  222.6030 N   0  0  0  0  0  0  0  0  0  0  0  0
  136.8120   78.8770  222.9490 C   0  0  0  0  0  0  0  0  0  0  0  0
  138.1730   79.1550  223.2380 C   0  0  0  0  0  0  0  0  0  0  0  0
  138.5600   80.3950  223.6180 O   0  0  0  0  0  0  0  0  0  0  0  0
  139.7970   80.9600  223.8240 C   0  0  0  0  0  0  0  0  0  0  0  0
  140.8970   80.2670  223.1050 C   0  0  0  0  0  0  0  0  0  0  0  0
  142.1940   80.9920  223.0170 C   0  0  0  0  0  0  0  0  0  0  0  0
  142.8780   79.6090  223.0610 C   0  0  0  0  0  0  0  0  0  0  0  0
  141.6270   79.1620  223.8470 C   0  0  0  0  0  0  0  0  0  0  0  0
  138.7580   78.0180  223.0410 O   0  0  0  0  0  0  0  0  0  0  0  0
  139.3500   71.0980  223.5000 C   0  0  0  0  0  0  0  0  0  0  0  0
  140.3240   71.9200  224.0310 C   0  0  0  0  0  0  0  0  0  0  0  0
  140.9020   71.4870  225.2250 C   0  0  0  0  0  0  0  0  0  0  0  0
  140.5140   70.3060  225.8300 C   0  0  0  0  0  0  0  0  0  0  0  0
  141.0770   69.8610  227.0170 C   0  0  0  0  0  0  0  0  0  0  0  0
  140.6590   68.6730  227.5890 C   0  0  0  0  0  0  0  0  0  0  0  0
  141.3670   68.1050  229.0900 Cl  0  0  0  0  0  0  0  0  0  0  0  0
  139.6780   67.8920  227.0100 C   0  0  0  0  0  0  0  0  0  0  0  0
  139.1100   68.3260  225.8260 C   0  0  0  0  0  0  0  0  0  0  0  0
  139.5330   69.5140  225.2630 C   0  0  0  0  0  0  0  0  0  0  0  0
  138.9860   69.9420  224.1150 N   0  0  0  0  0  0  0  0  0  0  0  0
  137.3740   72.8110  223.2130 H   0  0  0  0  0  0  0  0  0  0  0  0
  137.3454   72.2826  220.2527 H   0  0  0  0  0  0  0  0  0  0  0  0
  135.9438   72.9150  221.3700 H   0  0  0  0  0  0  0  0  0  0  0  0
  138.7916   76.1371  219.1493 H   0  0  0  0  0  0  0  0  0  0  0  0
  138.4354   77.3525  220.3272 H   0  0  0  0  0  0  0  0  0  0  0  0
  140.6828   75.2316  220.3258 H   0  0  0  0  0  0  0  0  0  0  0  0
  140.8300   76.9016  220.8391 H   0  0  0  0  0  0  0  0  0  0  0  0
  140.1544   74.5671  222.4598 H   0  0  0  0  0  0  0  0  0  0  0  0
  140.2945   76.2320  223.0345 H   0  0  0  0  0  0  0  0  0  0  0  0
  137.7537   75.0515  223.1041 H   0  0  0  0  0  0  0  0  0  0  0  0
  135.9814   79.5963  223.0003 H   0  0  0  0  0  0  0  0  0  0  0  0
  139.7628   82.0050  223.4822 H   0  0  0  0  0  0  0  0  0  0  0  0
  140.0133   80.8772  224.8993 H   0  0  0  0  0  0  0  0  0  0  0  0
  140.2974   80.0459  222.2097 H   0  0  0  0  0  0  0  0  0  0  0  0
  142.3463   81.5517  222.0823 H   0  0  0  0  0  0  0  0  0  0  0  0
  142.4606   81.7965  223.7182 H   0  0  0  0  0  0  0  0  0  0  0  0
  143.0146   79.1233  222.0835 H   0  0  0  0  0  0  0  0  0  0  0  0
  143.9030   79.4593  223.4312 H   0  0  0  0  0  0  0  0  0  0  0  0
  141.2776   78.1431  223.6237 H   0  0  0  0  0  0  0  0  0  0  0  0
  141.6161   79.0787  224.9438 H   0  0  0  0  0  0  0  0  0  0  0  0
  140.6258   72.8584  223.5429 H   0  0  0  0  0  0  0  0  0  0  0  0
  141.6848   72.0998  225.6960 H   0  0  0  0  0  0  0  0  0  0  0  0
  141.8612   70.4569  227.5068 H   0  0  0  0  0  0  0  0  0  0  0  0
  139.3569   66.9498  227.4781 H   0  0  0  0  0  0  0  0  0  0  0  0
  138.3267   67.7290  225.3361 H   0  0  0  0  0  0  0  0  0  0  0  0
  1  2  2  0
  2  3  1  0
  3  4  1  0
  4  5  1  0
  5  6  2  0
  5  7  1  0
  7  8  1  0
  8  9  1  0
  9 10  1  0
 10 11  1  0
 11 12  1  0
 12 13  2  0
 13 14  1  0
 14 15  2  0
 15 16  1  0
 16 17  1  0
 17 18  1  0
 18 19  1  0
 19 20  1  0
 20 21  1  0
 15 22  1  0
  2 23  1  0
 23 24  2  0
 24 25  1  0
 25 26  2  0
 26 27  1  0
 27 28  2  0
 28 29  1  0
 28 30  1  0
 30 31  2  0
 31 32  1  0
 32 33  2  0
 11  7  1  0
 22 12  1  0
 33 23  1  0
 21 18  1  0
 32 26  1  0
  3 34  1  0
  4 35  1  0
  4 36  1  0
  8 37  1  0
  8 38  1  0
  9 39  1  0
  9 40  1  0
 10 41  1  0
 10 42  1  0
 11 43  1  1
 14 44  1  0
 17 45  1  0
 17 46  1  0
 18 47  1  0
 19 48  1  0
 19 49  1  0
 20 50  1  0
 20 51  1  0
 21 52  1  0
 21 53  1  0
 24 54  1  0
 25 55  1  0
 27 56  1  0
 30 57  1  0
 31 58  1  0
M  END
>  <smiles>  (21) 
O=C(NCC(=O)N1CCC[C@H]1c1ncc(OCC2CCC2)o1)c1ccc2cc(Cl)ccc2n1

>  <score_type>  (21) 
oracle

>  <origin>  (21) 
autodockgpu

>  <m_score__min__energy>  (21) 
-8.2899999999999991

>  <m_primary>  (21) 
energy

>  <rmsd>  (21) 
3.3752511029210464

>  <m_score__min__rmsd>  (21) 
3.3752511029210464

>  <meeko>  (21) 
{"free_energy": -7.35, "intermolecular_energy": -9.73, "internal_energy": -1.97, "cluster_size": 1, "cluster_id": 11, "rank_in_cluster": 1}

>  <energy>  (21) 
-7.88

>  <cluster_rmsd>  (21) 
1.79

>  <cluster>  (21) 
3

$$$$

     RDKit          3D

 58 62  0  0  0  0  0  0  0  0999 V2000
  140.7620   76.0500  219.4240 O   0  0  0  0  0  0  0  0  0  0  0  0
  141.4360   76.9820  219.9290 C   0  0  0  0  0  0  0  0  0  0  0  0
  142.7760   77.1240  219.4030 N   0  0  0  0  0  0  0  0  0  0  0  0
  143.3300   76.3100  218.3970 C   0  0  0  0  0  0  0  0  0  0  0  0
  143.3750   74.8700  218.4990 C   0  0  0  0  0  0  0  0  0  0  0  0
  143.4950   74.2710  217.3310 O   0  0  0  0  0  0  0  0  0  0  0  0
  143.3110   73.9980  219.5850 N   0  0  0  0  0  0  0  0  0  0  0  0
  143.9840   73.8610  220.8530 C   0  0  0  0  0  0  0  0  0  0  0  0
  144.4840   72.4150  220.7260 C   0  0  0  0  0  0  0  0  0  0  0  0
  143.4090   71.7420  219.8920 C   0  0  0  0  0  0  0  0  0  0  0  0
  142.3680   72.8360  219.6130 C   0  0  1  0  0  0  0  0  0  0  0  0
  141.4820   72.8910  220.7830 C   0  0  0  0  0  0  0  0  0  0  0  0
  140.4970   73.7670  220.9550 N   0  0  0  0  0  0  0  0  0  0  0  0
  139.9270   73.4960  222.1360 C   0  0  0  0  0  0  0  0  0  0  0  0
  140.6070   72.3920  222.7110 C   0  0  0  0  0  0  0  0  0  0  0  0
  140.2350   71.9020  223.9170 O   0  0  0  0  0  0  0  0  0  0  0  0
  140.8590   71.0670  224.8150 C   0  0  0  0  0  0  0  0  0  0  0  0
  140.4930   71.3320  226.2290 C   0  0  0  0  0  0  0  0  0  0  0  0
  140.8010   70.2550  227.2090 C   0  0  0  0  0  0  0  0  0  0  0  0
  141.0340   71.3740  228.2460 C   0  0  0  0  0  0  0  0  0  0  0  0
  141.4090   72.2430  227.0270 C   0  0  0  0  0  0  0  0  0  0  0  0
  141.5120   72.1070  221.8320 O   0  0  0  0  0  0  0  0  0  0  0  0
  140.9260   77.8640  220.9690 C   0  0  0  0  0  0  0  0  0  0  0  0
  141.8520   78.6240  221.6540 C   0  0  0  0  0  0  0  0  0  0  0  0
  141.3400   79.4620  222.6460 C   0  0  0  0  0  0  0  0  0  0  0  0
  139.9850   79.5180  222.9170 C   0  0  0  0  0  0  0  0  0  0  0  0
  139.4590   80.3450  223.8980 C   0  0  0  0  0  0  0  0  0  0  0  0
  138.0970   80.3700  224.1360 C   0  0  0  0  0  0  0  0  0  0  0  0
  137.4250   81.4140  225.3760 Cl  0  0  0  0  0  0  0  0  0  0  0  0
  137.2170   79.5850  223.4170 C   0  0  0  0  0  0  0  0  0  0  0  0
  137.7310   78.7570  222.4350 C   0  0  0  0  0  0  0  0  0  0  0  0
  139.0930   78.7390  222.2050 C   0  0  0  0  0  0  0  0  0  0  0  0
  139.5990   77.9390  221.2540 N   0  0  0  0  0  0  0  0  0  0  0  0
  143.3120   77.9250  219.8630 H   0  0  0  0  0  0  0  0  0  0  0  0
  142.7666   76.5334  217.4790 H   0  0  0  0  0  0  0  0  0  0  0  0
  144.3964   76.5730  218.4571 H   0  0  0  0  0  0  0  0  0  0  0  0
  144.8153   74.5742  220.9545 H   0  0  0  0  0  0  0  0  0  0  0  0
  143.3599   74.0625  221.7361 H   0  0  0  0  0  0  0  0  0  0  0  0
  145.4579   72.3788  220.2159 H   0  0  0  0  0  0  0  0  0  0  0  0
  144.6394   71.9277  221.6998 H   0  0  0  0  0  0  0  0  0  0  0  0
  143.8326   71.3640  218.9498 H   0  0  0  0  0  0  0  0  0  0  0  0
  142.9674   70.8788  220.4115 H   0  0  0  0  0  0  0  0  0  0  0  0
  141.7193   72.7426  218.7296 H   0  0  0  0  0  0  0  0  0  0  0  0
  139.0789   74.0357  222.5826 H   0  0  0  0  0  0  0  0  0  0  0  0
  140.5842   70.0296  224.5736 H   0  0  0  0  0  0  0  0  0  0  0  0
  141.9404   71.2465  224.7235 H   0  0  0  0  0  0  0  0  0  0  0  0
  139.4581   71.6280  226.0024 H   0  0  0  0  0  0  0  0  0  0  0  0
  139.9589   69.5848  227.4363 H   0  0  0  0  0  0  0  0  0  0  0  0
  141.5572   69.4823  227.0064 H   0  0  0  0  0  0  0  0  0  0  0  0
  140.1370   71.6985  228.7938 H   0  0  0  0  0  0  0  0  0  0  0  0
  141.6904   71.2533  229.1204 H   0  0  0  0  0  0  0  0  0  0  0  0
  141.0834   73.2920  227.0868 H   0  0  0  0  0  0  0  0  0  0  0  0
  142.4524   72.4343  226.7359 H   0  0  0  0  0  0  0  0  0  0  0  0
  142.9281   78.5726  221.4318 H   0  0  0  0  0  0  0  0  0  0  0  0
  142.0303   80.0925  223.2256 H   0  0  0  0  0  0  0  0  0  0  0  0
  140.1293   80.9851  224.4905 H   0  0  0  0  0  0  0  0  0  0  0  0
  136.1363   79.6173  223.6197 H   0  0  0  0  0  0  0  0  0  0  0  0
  137.0603   78.1179  221.8419 H   0  0  0  0  0  0  0  0  0  0  0  0
  1  2  2  0
  2  3  1  0
  3  4  1  0
  4  5  1  0
  5  6  2  0
  5  7  1  0
  7  8  1  0
  8  9  1  0
  9 10  1  0
 10 11  1  0
 11 12  1  0
 12 13  2  0
 13 14  1  0
 14 15  2  0
 15 16  1  0
 16 17  1  0
 17 18  1  0
 18 19  1  0
 19 20  1  0
 20 21  1  0
 15 22  1  0
  2 23  1  0
 23 24  2  0
 24 25  1  0
 25 26  2  0
 26 27  1  0
 27 28  2  0
 28 29  1  0
 28 30  1  0
 30 31  2  0
 31 32  1  0
 32 33  2  0
 11  7  1  0
 22 12  1  0
 33 23  1  0
 21 18  1  0
 32 26  1  0
  3 34  1  0
  4 35  1  0
  4 36  1  0
  8 37  1  0
  8 38  1  0
  9 39  1  0
  9 40  1  0
 10 41  1  0
 10 42  1  0
 11 43  1  6
 14 44  1  0
 17 45  1  0
 17 46  1  0
 18 47  1  0
 19 48  1  0
 19 49  1  0
 20 50  1  0
 20 51  1  0
 21 52  1  0
 21 53  1  0
 24 54  1  0
 25 55  1  0
 27 56  1  0
 30 57  1  0
 31 58  1  0
M  END
>  <smiles>  (22) 
O=C(NCC(=O)N1CCC[C@H]1c1ncc(OCC2CCC2)o1)c1ccc2cc(Cl)ccc2n1

>  <score_type>  (22) 
oracle

>  <origin>  (22) 
autodockgpu

>  <m_score__min__energy>  (22) 
-8.2899999999999991

>  <m_primary>  (22) 
energy

>  <rmsd>  (22) 
8.096882014279226

>  <m_score__min__rmsd>  (22) 
8.096882014279226

>  <meeko>  (22) 
{"free_energy": -7.41, "intermolecular_energy": -9.8, "internal_energy": -1.81, "cluster_size": 3, "cluster_id": 9, "rank_in_cluster": 1}

>  <energy>  (22) 
-7.87

>  <cluster_rmsd>  (22) 
1.59

>  <cluster>  (22) 
3

$$$$

     RDKit          3D

 58 62  0  0  0  0  0  0  0  0999 V2000
  136.0250   76.2010  221.3380 O   0  0  0  0  0  0  0  0  0  0  0  0
  137.0790   76.0920  222.0110 C   0  0  0  0  0  0  0  0  0  0  0  0
  137.4480   74.7370  222.3560 N   0  0  0  0  0  0  0  0  0  0  0  0
  136.7180   73.5900  221.9880 C   0  0  0  0  0  0  0  0  0  0  0  0
  137.0070   72.2800  222.5230 C   0  0  0  0  0  0  0  0  0  0  0  0
  135.9450   71.6790  223.0210 O   0  0  0  0  0  0  0  0  0  0  0  0
  138.1820   71.5370  222.6170 N   0  0  0  0  0  0  0  0  0  0  0  0
  139.3870   71.5890  223.4060 C   0  0  0  0  0  0  0  0  0  0  0  0
  140.4320   71.6310  222.2820 C   0  0  0  0  0  0  0  0  0  0  0  0
  139.7910   70.8140  221.1750 C   0  0  0  0  0  0  0  0  0  0  0  0
  138.4410   70.3510  221.7420 C   0  0  1  0  0  0  0  0  0  0  0  0
  138.7020   69.1440  222.5370 C   0  0  0  0  0  0  0  0  0  0  0  0
  138.6610   67.8990  222.0710 N   0  0  0  0  0  0  0  0  0  0  0  0
  138.9540   67.0840  223.0930 C   0  0  0  0  0  0  0  0  0  0  0  0
  139.1860   67.8830  224.2420 C   0  0  0  0  0  0  0  0  0  0  0  0
  139.5050   67.3130  225.4280 O   0  0  0  0  0  0  0  0  0  0  0  0
  139.9600   67.8340  226.6170 C   0  0  0  0  0  0  0  0  0  0  0  0
  139.8570   69.3130  226.6990 C   0  0  0  0  0  0  0  0  0  0  0  0
  140.0690   69.9220  228.0400 C   0  0  0  0  0  0  0  0  0  0  0  0
  140.6700   71.1390  227.3060 C   0  0  0  0  0  0  0  0  0  0  0  0
  141.0430   70.1230  226.2060 C   0  0  0  0  0  0  0  0  0  0  0  0
  139.0120   69.0890  223.8080 O   0  0  0  0  0  0  0  0  0  0  0  0
  137.8860   77.2320  222.4230 C   0  0  0  0  0  0  0  0  0  0  0  0
  137.2160   78.4110  222.6800 C   0  0  0  0  0  0  0  0  0  0  0  0
  138.0090   79.4900  223.0730 C   0  0  0  0  0  0  0  0  0  0  0  0
  139.3810   79.3730  223.1950 C   0  0  0  0  0  0  0  0  0  0  0  0
  140.1840   80.4340  223.5840 C   0  0  0  0  0  0  0  0  0  0  0  0
  141.5530   80.2730  223.6940 C   0  0  0  0  0  0  0  0  0  0  0  0
  142.5750   81.6110  224.1860 Cl  0  0  0  0  0  0  0  0  0  0  0  0
  142.1680   79.0660  223.4230 C   0  0  0  0  0  0  0  0  0  0  0  0
  141.3770   78.0010  223.0340 C   0  0  0  0  0  0  0  0  0  0  0  0
  140.0100   78.1720  222.9280 C   0  0  0  0  0  0  0  0  0  0  0  0
  139.2360   77.1430  222.5510 N   0  0  0  0  0  0  0  0  0  0  0  0
  138.3480   74.6920  222.9300 H   0  0  0  0  0  0  0  0  0  0  0  0
  135.6693   73.8001  222.2452 H   0  0  0  0  0  0  0  0  0  0  0  0
  137.0045   73.4701  220.9328 H   0  0  0  0  0  0  0  0  0  0  0  0
  139.4259   72.4906  224.0349 H   0  0  0  0  0  0  0  0  0  0  0  0
  139.5090   70.7654  224.1249 H   0  0  0  0  0  0  0  0  0  0  0  0
  140.6149   72.6646  221.9530 H   0  0  0  0  0  0  0  0  0  0  0  0
  141.4122   71.2397  222.5921 H   0  0  0  0  0  0  0  0  0  0  0  0
  139.6403   71.4323  220.2778 H   0  0  0  0  0  0  0  0  0  0  0  0
  140.4222   69.9648  220.8743 H   0  0  0  0  0  0  0  0  0  0  0  0
  137.6275   70.1004  221.0453 H   0  0  0  0  0  0  0  0  0  0  0  0
  139.0057   65.9861  223.0489 H   0  0  0  0  0  0  0  0  0  0  0  0
  139.3684   67.3988  227.4359 H   0  0  0  0  0  0  0  0  0  0  0  0
  141.0281   67.5816  226.6907 H   0  0  0  0  0  0  0  0  0  0  0  0
  138.8842   69.3653  226.1882 H   0  0  0  0  0  0  0  0  0  0  0  0
  139.1465   70.1324  228.6010 H   0  0  0  0  0  0  0  0  0  0  0  0
  140.6138   69.3966  228.8382 H   0  0  0  0  0  0  0  0  0  0  0  0
  139.9445   71.9092  227.0052 H   0  0  0  0  0  0  0  0  0  0  0  0
  141.4023   71.8166  227.7692 H   0  0  0  0  0  0  0  0  0  0  0  0
  140.9524   70.4993  225.1763 H   0  0  0  0  0  0  0  0  0  0  0  0
  142.0526   69.6963  226.1133 H   0  0  0  0  0  0  0  0  0  0  0  0
  136.1237   78.4950  222.5811 H   0  0  0  0  0  0  0  0  0  0  0  0
  137.5310   80.4565  223.2908 H   0  0  0  0  0  0  0  0  0  0  0  0
  139.7291   81.4105  223.8066 H   0  0  0  0  0  0  0  0  0  0  0  0
  143.2586   78.9552  223.5144 H   0  0  0  0  0  0  0  0  0  0  0  0
  141.8324   77.0249  222.8106 H   0  0  0  0  0  0  0  0  0  0  0  0
  1  2  2  0
  2  3  1  0
  3  4  1  0
  4  5  1  0
  5  6  2  0
  5  7  1  0
  7  8  1  0
  8  9  1  0
  9 10  1  0
 10 11  1  0
 11 12  1  0
 12 13  2  0
 13 14  1  0
 14 15  2  0
 15 16  1  0
 16 17  1  0
 17 18  1  0
 18 19  1  0
 19 20  1  0
 20 21  1  0
 15 22  1  0
  2 23  1  0
 23 24  2  0
 24 25  1  0
 25 26  2  0
 26 27  1  0
 27 28  2  0
 28 29  1  0
 28 30  1  0
 30 31  2  0
 31 32  1  0
 32 33  2  0
 11  7  1  0
 22 12  1  0
 33 23  1  0
 21 18  1  0
 32 26  1  0
  3 34  1  0
  4 35  1  0
  4 36  1  0
  8 37  1  0
  8 38  1  0
  9 39  1  0
  9 40  1  0
 10 41  1  0
 10 42  1  0
 11 43  1  6
 14 44  1  0
 17 45  1  0
 17 46  1  0
 18 47  1  0
 19 48  1  0
 19 49  1  0
 20 50  1  0
 20 51  1  0
 21 52  1  0
 21 53  1  0
 24 54  1  0
 25 55  1  0
 27 56  1  0
 30 57  1  0
 31 58  1  0
M  END
>  <smiles>  (23) 
O=C(NCC(=O)N1CCC[C@H]1c1ncc(OCC2CCC2)o1)c1ccc2cc(Cl)ccc2n1

>  <score_type>  (23) 
oracle

>  <origin>  (23) 
autodockgpu

>  <m_score__min__energy>  (23) 
-8.2899999999999991

>  <m_primary>  (23) 
energy

>  <rmsd>  (23) 
8.419634098038074

>  <m_score__min__rmsd>  (23) 
8.419634098038074

>  <meeko>  (23) 
{"free_energy": -7.93, "intermolecular_energy": -10.31, "internal_energy": -1.71, "cluster_size": 7, "cluster_id": 3, "rank_in_cluster": 1}

>  <energy>  (23) 
-7.83

>  <cluster_rmsd>  (23) 
1.29

>  <cluster>  (23) 
3

$$$$

     RDKit          3D

 58 62  0  0  0  0  0  0  0  0999 V2000
  138.9220   73.3770  220.8730 O   0  0  0  0  0  0  0  0  0  0  0  0
  139.7990   72.5250  221.1610 C   0  0  0  0  0  0  0  0  0  0  0  0
  140.8600   72.3860  220.1890 N   0  0  0  0  0  0  0  0  0  0  0  0
  140.9550   73.1280  218.9960 C   0  0  0  0  0  0  0  0  0  0  0  0
  140.6500   74.5380  218.9320 C   0  0  0  0  0  0  0  0  0  0  0  0
  140.2310   74.9240  217.7440 O   0  0  0  0  0  0  0  0  0  0  0  0
  140.7180   75.5620  219.8750 N   0  0  0  0  0  0  0  0  0  0  0  0
  141.4640   75.8200  221.0820 C   0  0  0  0  0  0  0  0  0  0  0  0
  140.3040   76.0650  222.0570 C   0  0  0  0  0  0  0  0  0  0  0  0
  139.2360   76.6960  221.1820 C   0  0  0  0  0  0  0  0  0  0  0  0
  139.8580   76.7830  219.7810 C   0  0  1  0  0  0  0  0  0  0  0  0
  140.6670   78.0090  219.7480 C   0  0  0  0  0  0  0  0  0  0  0  0
  141.5480   78.3170  218.8020 N   0  0  0  0  0  0  0  0  0  0  0  0
  142.0770   79.5050  219.1250 C   0  0  0  0  0  0  0  0  0  0  0  0
  141.4810   79.9380  220.3370 C   0  0  0  0  0  0  0  0  0  0  0  0
  141.8340   81.1190  220.8970 O   0  0  0  0  0  0  0  0  0  0  0  0
  141.4550   81.7450  222.0620 C   0  0  0  0  0  0  0  0  0  0  0  0
  141.6340   80.9070  223.2750 C   0  0  0  0  0  0  0  0  0  0  0  0
  140.6250   79.8350  223.4970 C   0  0  0  0  0  0  0  0  0  0  0  0
  141.7590   79.0130  224.1450 C   0  0  0  0  0  0  0  0  0  0  0  0
  142.6940   79.8220  223.2220 C   0  0  0  0  0  0  0  0  0  0  0  0
  140.6590   78.9820  220.6250 O   0  0  0  0  0  0  0  0  0  0  0  0
  139.7660   71.7250  222.3780 C   0  0  0  0  0  0  0  0  0  0  0  0
  139.0520   70.5440  222.3310 C   0  0  0  0  0  0  0  0  0  0  0  0
  139.0360   69.7950  223.5080 C   0  0  0  0  0  0  0  0  0  0  0  0
  139.6980   70.2200  224.6450 C   0  0  0  0  0  0  0  0  0  0  0  0
  139.6910   69.4880  225.8240 C   0  0  0  0  0  0  0  0  0  0  0  0
  140.3670   69.9500  226.9380 C   0  0  0  0  0  0  0  0  0  0  0  0
  140.3640   69.0290  228.4320 Cl  0  0  0  0  0  0  0  0  0  0  0  0
  141.0660   71.1410  226.9250 C   0  0  0  0  0  0  0  0  0  0  0  0
  141.0790   71.8790  225.7550 C   0  0  0  0  0  0  0  0  0  0  0  0
  140.4010   71.4090  224.6470 C   0  0  0  0  0  0  0  0  0  0  0  0
  140.4090   72.1190  223.5080 N   0  0  0  0  0  0  0  0  0  0  0  0
  141.5800   71.6490  220.4730 H   0  0  0  0  0  0  0  0  0  0  0  0
  141.9955   73.0249  218.6544 H   0  0  0  0  0  0  0  0  0  0  0  0
  140.1416   72.6943  218.3958 H   0  0  0  0  0  0  0  0  0  0  0  0
  142.0730   74.9537  221.3798 H   0  0  0  0  0  0  0  0  0  0  0  0
  142.1945   76.6394  221.0119 H   0  0  0  0  0  0  0  0  0  0  0  0
  139.9486   75.1190  222.4915 H   0  0  0  0  0  0  0  0  0  0  0  0
  140.5876   76.6970  222.9115 H   0  0  0  0  0  0  0  0  0  0  0  0
  138.3326   76.0686  221.1640 H   0  0  0  0  0  0  0  0  0  0  0  0
  138.9304   77.6840  221.5567 H   0  0  0  0  0  0  0  0  0  0  0  0
  139.1951   76.8181  218.9039 H   0  0  0  0  0  0  0  0  0  0  0  0
  142.8406   80.0496  218.5502 H   0  0  0  0  0  0  0  0  0  0  0  0
  142.0582   82.6575  222.1781 H   0  0  0  0  0  0  0  0  0  0  0  0
  140.3798   81.9610  221.9760 H   0  0  0  0  0  0  0  0  0  0  0  0
  141.7318   81.7597  223.9630 H   0  0  0  0  0  0  0  0  0  0  0  0
  139.8060   80.1074  224.1789 H   0  0  0  0  0  0  0  0  0  0  0  0
  140.0103   79.4347  222.6773 H   0  0  0  0  0  0  0  0  0  0  0  0
  141.9033   79.1830  225.2222 H   0  0  0  0  0  0  0  0  0  0  0  0
  141.7569   77.9136  224.1803 H   0  0  0  0  0  0  0  0  0  0  0  0
  143.6620   80.0963  223.6667 H   0  0  0  0  0  0  0  0  0  0  0  0
  143.0817   79.4201  222.2743 H   0  0  0  0  0  0  0  0  0  0  0  0
  138.5282   70.2141  221.4217 H   0  0  0  0  0  0  0  0  0  0  0  0
  138.4837   68.8440  223.5319 H   0  0  0  0  0  0  0  0  0  0  0  0
  139.1444   68.5346  225.8725 H   0  0  0  0  0  0  0  0  0  0  0  0
  141.5981   71.4934  227.8209 H   0  0  0  0  0  0  0  0  0  0  0  0
  141.6250   72.8327  225.7073 H   0  0  0  0  0  0  0  0  0  0  0  0
  1  2  2  0
  2  3  1  0
  3  4  1  0
  4  5  1  0
  5  6  2  0
  5  7  1  0
  7  8  1  0
  8  9  1  0
  9 10  1  0
 10 11  1  0
 11 12  1  0
 12 13  2  0
 13 14  1  0
 14 15  2  0
 15 16  1  0
 16 17  1  0
 17 18  1  0
 18 19  1  0
 19 20  1  0
 20 21  1  0
 15 22  1  0
  2 23  1  0
 23 24  2  0
 24 25  1  0
 25 26  2  0
 26 27  1  0
 27 28  2  0
 28 29  1  0
 28 30  1  0
 30 31  2  0
 31 32  1  0
 32 33  2  0
 11  7  1  0
 22 12  1  0
 33 23  1  0
 21 18  1  0
 32 26  1  0
  3 34  1  0
  4 35  1  0
  4 36  1  0
  8 37  1  0
  8 38  1  0
  9 39  1  0
  9 40  1  0
 10 41  1  0
 10 42  1  0
 11 43  1  6
 14 44  1  0
 17 45  1  0
 17 46  1  0
 18 47  1  0
 19 48  1  0
 19 49  1  0
 20 50  1  0
 20 51  1  0
 21 52  1  0
 21 53  1  0
 24 54  1  0
 25 55  1  0
 27 56  1  0
 30 57  1  0
 31 58  1  0
M  END
>  <smiles>  (24) 
O=C(NCC(=O)N1CCC[C@H]1c1ncc(OCC2CCC2)o1)c1ccc2cc(Cl)ccc2n1

>  <score_type>  (24) 
oracle

>  <origin>  (24) 
autodockgpu

>  <m_score__min__energy>  (24) 
-8.2899999999999991

>  <m_primary>  (24) 
energy

>  <rmsd>  (24) 
2.918905487535223

>  <m_score__min__rmsd>  (24) 
2.918905487535223

>  <meeko>  (24) 
{"free_energy": -6.78, "intermolecular_energy": -9.16, "internal_energy": -2.24, "cluster_size": 14, "cluster_id": 1, "rank_in_cluster": 14}

>  <energy>  (24) 
-7.54

>  <cluster_rmsd>  (24) 
1.61

>  <cluster>  (24) 
3

$$$$

     RDKit          3D

 58 62  0  0  0  0  0  0  0  0999 V2000
  140.0560   72.6430  220.8380 O   0  0  0  0  0  0  0  0  0  0  0  0
  139.8840   72.9220  222.0500 C   0  0  0  0  0  0  0  0  0  0  0  0
  139.6140   74.3160  222.3260 N   0  0  0  0  0  0  0  0  0  0  0  0
  139.5340   75.3240  221.3470 C   0  0  0  0  0  0  0  0  0  0  0  0
  140.5780   76.3030  221.1540 C   0  0  0  0  0  0  0  0  0  0  0  0
  141.6900   75.7860  220.6700 O   0  0  0  0  0  0  0  0  0  0  0  0
  140.6380   77.6770  221.3820 N   0  0  0  0  0  0  0  0  0  0  0  0
  140.4860   78.8730  220.5920 C   0  0  0  0  0  0  0  0  0  0  0  0
  141.8260   79.5580  220.8980 C   0  0  0  0  0  0  0  0  0  0  0  0
  142.1260   79.1250  222.3220 C   0  0  0  0  0  0  0  0  0  0  0  0
  140.9400   78.2410  222.7350 C   0  0  1  0  0  0  0  0  0  0  0  0
  139.8740   79.1440  223.1910 C   0  0  0  0  0  0  0  0  0  0  0  0
  140.0440   80.4180  223.5270 N   0  0  0  0  0  0  0  0  0  0  0  0
  138.8450   80.8970  223.8860 C   0  0  0  0  0  0  0  0  0  0  0  0
  137.8960   79.8510  223.7580 C   0  0  0  0  0  0  0  0  0  0  0  0
  136.5920   80.0590  224.0560 O   0  0  0  0  0  0  0  0  0  0  0  0
  135.8400   81.2030  224.1880 C   0  0  0  0  0  0  0  0  0  0  0  0
  135.6630   81.6420  225.5960 C   0  0  0  0  0  0  0  0  0  0  0  0
  136.8800   81.6320  226.4530 C   0  0  0  0  0  0  0  0  0  0  0  0
  136.2730   82.8440  227.1910 C   0  0  0  0  0  0  0  0  0  0  0  0
  135.5610   83.1350  225.8530 C   0  0  0  0  0  0  0  0  0  0  0  0
  138.6050   78.8530  223.3390 O   0  0  0  0  0  0  0  0  0  0  0  0
  139.9480   71.9300  223.1150 C   0  0  0  0  0  0  0  0  0  0  0  0
  139.5100   70.6570  222.8100 C   0  0  0  0  0  0  0  0  0  0  0  0
  139.5810   69.7240  223.8460 C   0  0  0  0  0  0  0  0  0  0  0  0
  140.0630   70.0660  225.0960 C   0  0  0  0  0  0  0  0  0  0  0  0
  140.1400   69.1510  226.1360 C   0  0  0  0  0  0  0  0  0  0  0  0
  140.6280   69.5360  227.3720 C   0  0  0  0  0  0  0  0  0  0  0  0
  140.7290   68.3840  228.6910 Cl  0  0  0  0  0  0  0  0  0  0  0  0
  141.0530   70.8270  227.6170 C   0  0  0  0  0  0  0  0  0  0  0  0
  140.9800   71.7470  226.5870 C   0  0  0  0  0  0  0  0  0  0  0  0
  140.4910   71.3540  225.3570 C   0  0  0  0  0  0  0  0  0  0  0  0
  140.4180   72.2400  224.3520 N   0  0  0  0  0  0  0  0  0  0  0  0
  139.4780   74.5060  223.3680 H   0  0  0  0  0  0  0  0  0  0  0  0
  139.4194   74.8057  220.3836 H   0  0  0  0  0  0  0  0  0  0  0  0
  138.7106   75.9450  221.7296 H   0  0  0  0  0  0  0  0  0  0  0  0
  140.3777   78.6454  219.5213 H   0  0  0  0  0  0  0  0  0  0  0  0
  139.5929   79.4728  220.8215 H   0  0  0  0  0  0  0  0  0  0  0  0
  142.6106   79.2134  220.2083 H   0  0  0  0  0  0  0  0  0  0  0  0
  141.7859   80.6510  220.7811 H   0  0  0  0  0  0  0  0  0  0  0  0
  143.0649   78.5531  222.3612 H   0  0  0  0  0  0  0  0  0  0  0  0
  142.2496   79.9862  222.9951 H   0  0  0  0  0  0  0  0  0  0  0  0
  141.0825   77.4928  223.5287 H   0  0  0  0  0  0  0  0  0  0  0  0
  138.6337   81.9230  224.2216 H   0  0  0  0  0  0  0  0  0  0  0  0
  136.3372   82.0115  223.6320 H   0  0  0  0  0  0  0  0  0  0  0  0
  134.8384   80.9767  223.7935 H   0  0  0  0  0  0  0  0  0  0  0  0
  134.8112   80.9749  225.7947 H   0  0  0  0  0  0  0  0  0  0  0  0
  137.0008   80.7299  227.0708 H   0  0  0  0  0  0  0  0  0  0  0  0
  137.8934   81.6578  226.0259 H   0  0  0  0  0  0  0  0  0  0  0  0
  135.6074   82.5951  228.0306 H   0  0  0  0  0  0  0  0  0  0  0  0
  136.8839   83.5910  227.7190 H   0  0  0  0  0  0  0  0  0  0  0  0
  134.5353   83.5211  225.9471 H   0  0  0  0  0  0  0  0  0  0  0  0
  135.9300   83.8847  225.1376 H   0  0  0  0  0  0  0  0  0  0  0  0
  139.1286   70.3940  221.8123 H   0  0  0  0  0  0  0  0  0  0  0  0
  139.2456   68.6924  223.6636 H   0  0  0  0  0  0  0  0  0  0  0  0
  139.8111   68.1134  225.9770 H   0  0  0  0  0  0  0  0  0  0  0  0
  141.4394   71.1160  228.6055 H   0  0  0  0  0  0  0  0  0  0  0  0
  141.3091   72.7844  226.7465 H   0  0  0  0  0  0  0  0  0  0  0  0
  1  2  2  0
  2  3  1  0
  3  4  1  0
  4  5  1  0
  5  6  2  0
  5  7  1  0
  7  8  1  0
  8  9  1  0
  9 10  1  0
 10 11  1  0
 11 12  1  0
 12 13  2  0
 13 14  1  0
 14 15  2  0
 15 16  1  0
 16 17  1  0
 17 18  1  0
 18 19  1  0
 19 20  1  0
 20 21  1  0
 15 22  1  0
  2 23  1  0
 23 24  2  0
 24 25  1  0
 25 26  2  0
 26 27  1  0
 27 28  2  0
 28 29  1  0
 28 30  1  0
 30 31  2  0
 31 32  1  0
 32 33  2  0
 11  7  1  0
 22 12  1  0
 33 23  1  0
 21 18  1  0
 32 26  1  0
  3 34  1  0
  4 35  1  0
  4 36  1  0
  8 37  1  0
  8 38  1  0
  9 39  1  0
  9 40  1  0
 10 41  1  0
 10 42  1  0
 11 43  1  1
 14 44  1  0
 17 45  1  0
 17 46  1  0
 18 47  1  0
 19 48  1  0
 19 49  1  0
 20 50  1  0
 20 51  1  0
 21 52  1  0
 21 53  1  0
 24 54  1  0
 25 55  1  0
 27 56  1  0
 30 57  1  0
 31 58  1  0
M  END
>  <smiles>  (25) 
O=C(NCC(=O)N1CCC[C@H]1c1ncc(OCC2CCC2)o1)c1ccc2cc(Cl)ccc2n1

>  <score_type>  (25) 
oracle

>  <origin>  (25) 
autodockgpu

>  <m_score__min__energy>  (25) 
-8.2899999999999991

>  <m_primary>  (25) 
energy

>  <rmsd>  (25) 
2.941931341046337

>  <m_score__min__rmsd>  (25) 
2.941931341046337

>  <meeko>  (25) 
{"free_energy": -8.09, "intermolecular_energy": -10.48, "internal_energy": -1.62, "cluster_size": 5, "cluster_id": 2, "rank_in_cluster": 1}

>  <energy>  (25) 
-6.76

>  <cluster_rmsd>  (25) 
1.73

>  <cluster>  (25) 
3

$$$$

     RDKit          3D

 58 62  0  0  0  0  0  0  0  0999 V2000
  138.8360   73.3010  220.7840 O   0  0  0  0  0  0  0  0  0  0  0  0
  138.5850   74.2130  221.6100 C   0  0  0  0  0  0  0  0  0  0  0  0
  137.4080   73.9980  222.4210 N   0  0  0  0  0  0  0  0  0  0  0  0
  136.5730   72.8670  222.3350 C   0  0  0  0  0  0  0  0  0  0  0  0
  136.8870   71.6180  222.9890 C   0  0  0  0  0  0  0  0  0  0  0  0
  135.8420   71.0600  223.5670 O   0  0  0  0  0  0  0  0  0  0  0  0
  138.0710   70.8980  223.1290 N   0  0  0  0  0  0  0  0  0  0  0  0
  139.4540   71.2070  223.3980 C   0  0  0  0  0  0  0  0  0  0  0  0
  140.1110   70.5370  222.1830 C   0  0  0  0  0  0  0  0  0  0  0  0
  139.2090   69.3480  221.9060 C   0  0  0  0  0  0  0  0  0  0  0  0
  138.1140   69.4090  222.9820 C   0  0  1  0  0  0  0  0  0  0  0  0
  138.6610   68.7660  224.1840 C   0  0  0  0  0  0  0  0  0  0  0  0
  139.1990   67.5510  224.2220 N   0  0  0  0  0  0  0  0  0  0  0  0
  139.5770   67.3250  225.4880 C   0  0  0  0  0  0  0  0  0  0  0  0
  139.2490   68.4700  226.2570 C   0  0  0  0  0  0  0  0  0  0  0  0
  139.5230   68.5160  227.5820 O   0  0  0  0  0  0  0  0  0  0  0  0
  140.2400   69.4000  228.3540 C   0  0  0  0  0  0  0  0  0  0  0  0
  140.3380   70.7610  227.7660 C   0  0  0  0  0  0  0  0  0  0  0  0
  141.3390   71.6790  228.3750 C   0  0  0  0  0  0  0  0  0  0  0  0
  141.5140   72.2920  226.9700 C   0  0  0  0  0  0  0  0  0  0  0  0
  141.0910   70.9010  226.4540 C   0  0  0  0  0  0  0  0  0  0  0  0
  138.7100   69.2680  225.3930 O   0  0  0  0  0  0  0  0  0  0  0  0
  139.4070   75.4070  221.7550 C   0  0  0  0  0  0  0  0  0  0  0  0
  140.6260   75.4090  221.1070 C   0  0  0  0  0  0  0  0  0  0  0  0
  141.3950   76.5630  221.2610 C   0  0  0  0  0  0  0  0  0  0  0  0
  140.9530   77.6320  222.0190 C   0  0  0  0  0  0  0  0  0  0  0  0
  141.7050   78.7860  222.1820 C   0  0  0  0  0  0  0  0  0  0  0  0
  141.2250   79.8320  222.9490 C   0  0  0  0  0  0  0  0  0  0  0  0
  142.1700   81.2950  223.1600 Cl  0  0  0  0  0  0  0  0  0  0  0  0
  139.9950   79.7710  223.5750 C   0  0  0  0  0  0  0  0  0  0  0  0
  139.2370   78.6240  223.4190 C   0  0  0  0  0  0  0  0  0  0  0  0
  139.7250   77.5860  222.6500 C   0  0  0  0  0  0  0  0  0  0  0  0
  138.9950   76.4710  222.4940 N   0  0  0  0  0  0  0  0  0  0  0  0
  137.2320   74.7990  223.1050 H   0  0  0  0  0  0  0  0  0  0  0  0
  135.5942   73.1796  222.7277 H   0  0  0  0  0  0  0  0  0  0  0  0
  136.6700   72.5958  221.2734 H   0  0  0  0  0  0  0  0  0  0  0  0
  139.6352   72.2918  223.4149 H   0  0  0  0  0  0  0  0  0  0  0  0
  139.8258   70.8662  224.3755 H   0  0  0  0  0  0  0  0  0  0  0  0
  140.1359   71.2211  221.3220 H   0  0  0  0  0  0  0  0  0  0  0  0
  141.1570   70.2492  222.3649 H   0  0  0  0  0  0  0  0  0  0  0  0
  138.7669   69.4257  220.9018 H   0  0  0  0  0  0  0  0  0  0  0  0
  139.7623   68.3978  221.9380 H   0  0  0  0  0  0  0  0  0  0  0  0
  137.1424   68.9332  222.7831 H   0  0  0  0  0  0  0  0  0  0  0  0
  140.0580   66.4103  225.8647 H   0  0  0  0  0  0  0  0  0  0  0  0
  139.7508   69.4800  229.3360 H   0  0  0  0  0  0  0  0  0  0  0  0
  141.2645   69.0062  228.4273 H   0  0  0  0  0  0  0  0  0  0  0  0
  139.2584   70.9639  227.8235 H   0  0  0  0  0  0  0  0  0  0  0  0
  140.9326   72.3676  229.1304 H   0  0  0  0  0  0  0  0  0  0  0  0
  142.1937   71.3048  228.9577 H   0  0  0  0  0  0  0  0  0  0  0  0
  140.8212   73.1113  226.7276 H   0  0  0  0  0  0  0  0  0  0  0  0
  142.4375   72.7949  226.6471 H   0  0  0  0  0  0  0  0  0  0  0  0
  140.4583   70.9120  225.5542 H   0  0  0  0  0  0  0  0  0  0  0  0
  141.8186   70.1526  226.1068 H   0  0  0  0  0  0  0  0  0  0  0  0
  140.9697   74.5539  220.5065 H   0  0  0  0  0  0  0  0  0  0  0  0
  142.3763   76.6240  220.7677 H   0  0  0  0  0  0  0  0  0  0  0  0
  142.6893   78.8698  221.6982 H   0  0  0  0  0  0  0  0  0  0  0  0
  139.6279   80.6121  224.1814 H   0  0  0  0  0  0  0  0  0  0  0  0
  138.2532   78.5396  223.9038 H   0  0  0  0  0  0  0  0  0  0  0  0
  1  2  2  0
  2  3  1  0
  3  4  1  0
  4  5  1  0
  5  6  2  0
  5  7  1  0
  7  8  1  0
  8  9  1  0
  9 10  1  0
 10 11  1  0
 11 12  1  0
 12 13  2  0
 13 14  1  0
 14 15  2  0
 15 16  1  0
 16 17  1  0
 17 18  1  0
 18 19  1  0
 19 20  1  0
 20 21  1  0
 15 22  1  0
  2 23  1  0
 23 24  2  0
 24 25  1  0
 25 26  2  0
 26 27  1  0
 27 28  2  0
 28 29  1  0
 28 30  1  0
 30 31  2  0
 31 32  1  0
 32 33  2  0
 11  7  1  0
 22 12  1  0
 33 23  1  0
 21 18  1  0
 32 26  1  0
  3 34  1  0
  4 35  1  0
  4 36  1  0
  8 37  1  0
  8 38  1  0
  9 39  1  0
  9 40  1  0
 10 41  1  0
 10 42  1  0
 11 43  1  6
 14 44  1  0
 17 45  1  0
 17 46  1  0
 18 47  1  0
 19 48  1  0
 19 49  1  0
 20 50  1  0
 20 51  1  0
 21 52  1  0
 21 53  1  0
 24 54  1  0
 25 55  1  0
 27 56  1  0
 30 57  1  0
 31 58  1  0
M  END
>  <smiles>  (26) 
O=C(NCC(=O)N1CCC[C@H]1c1ncc(OCC2CCC2)o1)c1ccc2cc(Cl)ccc2n1

>  <score_type>  (26) 
oracle

>  <origin>  (26) 
autodockgpu

>  <m_score__min__energy>  (26) 
-8.2899999999999991

>  <m_primary>  (26) 
energy

>  <rmsd>  (26) 
8.243029707193768

>  <m_score__min__rmsd>  (26) 
8.243029707193768

>  <meeko>  (26) 
{"free_energy": -7.87, "intermolecular_energy": -10.26, "internal_energy": -2.29, "cluster_size": 7, "cluster_id": 3, "rank_in_cluster": 3}

>  <energy>  (26) 
-6.69

>  <cluster_rmsd>  (26) 
1.68

>  <cluster>  (26) 
3

$$$$

     RDKit          3D

 58 62  0  0  0  0  0  0  0  0999 V2000
  138.9410   72.7450  221.1660 O   0  0  0  0  0  0  0  0  0  0  0  0
  139.7140   71.7740  221.3520 C   0  0  0  0  0  0  0  0  0  0  0  0
  140.5780   71.4540  220.2370 N   0  0  0  0  0  0  0  0  0  0  0  0
  140.5940   72.1500  219.0130 C   0  0  0  0  0  0  0  0  0  0  0  0
  141.4660   73.2750  218.7700 C   0  0  0  0  0  0  0  0  0  0  0  0
  142.4730   72.9850  217.9710 O   0  0  0  0  0  0  0  0  0  0  0  0
  141.4530   74.5940  219.2180 N   0  0  0  0  0  0  0  0  0  0  0  0
  141.0010   75.8640  218.7070 C   0  0  0  0  0  0  0  0  0  0  0  0
  142.3050   76.6680  218.8160 C   0  0  0  0  0  0  0  0  0  0  0  0
  142.9840   76.0710  220.0360 C   0  0  0  0  0  0  0  0  0  0  0  0
  142.0240   74.9860  220.5450 C   0  0  1  0  0  0  0  0  0  0  0  0
  141.0230   75.6610  221.3830 C   0  0  0  0  0  0  0  0  0  0  0  0
  140.0890   75.0460  222.1010 N   0  0  0  0  0  0  0  0  0  0  0  0
  139.3760   75.9960  222.7200 C   0  0  0  0  0  0  0  0  0  0  0  0
  139.9110   77.2580  222.3550 C   0  0  0  0  0  0  0  0  0  0  0  0
  139.3780   78.4030  222.8420 O   0  0  0  0  0  0  0  0  0  0  0  0
  139.9050   79.6540  223.0630 C   0  0  0  0  0  0  0  0  0  0  0  0
  141.3340   79.6360  223.4670 C   0  0  0  0  0  0  0  0  0  0  0  0
  142.3340   79.5180  222.3710 C   0  0  0  0  0  0  0  0  0  0  0  0
  143.2730   80.3790  223.2420 C   0  0  0  0  0  0  0  0  0  0  0  0
  141.9720   80.9650  223.8310 C   0  0  0  0  0  0  0  0  0  0  0  0
  140.8840   76.9510  221.5600 O   0  0  0  0  0  0  0  0  0  0  0  0
  139.7550   71.0120  222.5930 C   0  0  0  0  0  0  0  0  0  0  0  0
  139.1560   69.7680  222.5820 C   0  0  0  0  0  0  0  0  0  0  0  0
  139.2060   69.0570  223.7820 C   0  0  0  0  0  0  0  0  0  0  0  0
  139.8220   69.5760  224.9060 C   0  0  0  0  0  0  0  0  0  0  0  0
  139.8820   68.8830  226.1060 C   0  0  0  0  0  0  0  0  0  0  0  0
  140.5080   69.4400  227.2060 C   0  0  0  0  0  0  0  0  0  0  0  0
  140.5870   68.5690  228.7260 Cl  0  0  0  0  0  0  0  0  0  0  0  0
  141.0910   70.6910  227.1560 C   0  0  0  0  0  0  0  0  0  0  0  0
  141.0370   71.3910  225.9640 C   0  0  0  0  0  0  0  0  0  0  0  0
  140.4100   70.8270  224.8710 C   0  0  0  0  0  0  0  0  0  0  0  0
  140.3540   71.4990  223.7110 N   0  0  0  0  0  0  0  0  0  0  0  0
  141.2150   70.6210  220.4400 H   0  0  0  0  0  0  0  0  0  0  0  0
  140.8355   71.4044  218.2411 H   0  0  0  0  0  0  0  0  0  0  0  0
  139.6038   72.6292  219.0139 H   0  0  0  0  0  0  0  0  0  0  0  0
  140.6541   75.7862  217.6660 H   0  0  0  0  0  0  0  0  0  0  0  0
  140.1403   76.2990  219.2362 H   0  0  0  0  0  0  0  0  0  0  0  0
  142.9248   76.5370  217.9167 H   0  0  0  0  0  0  0  0  0  0  0  0
  142.1360   77.7513  218.9050 H   0  0  0  0  0  0  0  0  0  0  0  0
  143.9529   75.6293  219.7600 H   0  0  0  0  0  0  0  0  0  0  0  0
  143.1876   76.8312  220.8046 H   0  0  0  0  0  0  0  0  0  0  0  0
  142.4266   74.1539  221.1413 H   0  0  0  0  0  0  0  0  0  0  0  0
  138.5236   75.8269  223.3943 H   0  0  0  0  0  0  0  0  0  0  0  0
  139.8135   80.2384  222.1356 H   0  0  0  0  0  0  0  0  0  0  0  0
  139.3406   80.0985  223.8960 H   0  0  0  0  0  0  0  0  0  0  0  0
  141.2068   78.8444  224.2201 H   0  0  0  0  0  0  0  0  0  0  0  0
  142.6910   78.4949  222.1817 H   0  0  0  0  0  0  0  0  0  0  0  0
  142.0936   79.7876  221.3320 H   0  0  0  0  0  0  0  0  0  0  0  0
  143.8972   79.8178  223.9529 H   0  0  0  0  0  0  0  0  0  0  0  0
  144.0748   81.0037  222.8215 H   0  0  0  0  0  0  0  0  0  0  0  0
  142.0072   81.1836  224.9085 H   0  0  0  0  0  0  0  0  0  0  0  0
  141.5567   81.9296  223.5038 H   0  0  0  0  0  0  0  0  0  0  0  0
  138.6693   69.3623  221.6828 H   0  0  0  0  0  0  0  0  0  0  0  0
  138.7443   68.0600  223.8349 H   0  0  0  0  0  0  0  0  0  0  0  0
  139.4286   67.8838  226.1831 H   0  0  0  0  0  0  0  0  0  0  0  0
  141.5851   71.1194  228.0405 H   0  0  0  0  0  0  0  0  0  0  0  0
  141.4906   72.3902  225.8876 H   0  0  0  0  0  0  0  0  0  0  0  0
  1  2  2  0
  2  3  1  0
  3  4  1  0
  4  5  1  0
  5  6  2  0
  5  7  1  0
  7  8  1  0
  8  9  1  0
  9 10  1  0
 10 11  1  0
 11 12  1  0
 12 13  2  0
 13 14  1  0
 14 15  2  0
 15 16  1  0
 16 17  1  0
 17 18  1  0
 18 19  1  0
 19 20  1  0
 20 21  1  0
 15 22  1  0
  2 23  1  0
 23 24  2  0
 24 25  1  0
 25 26  2  0
 26 27  1  0
 27 28  2  0
 28 29  1  0
 28 30  1  0
 30 31  2  0
 31 32  1  0
 32 33  2  0
 11  7  1  0
 22 12  1  0
 33 23  1  0
 21 18  1  0
 32 26  1  0
  3 34  1  0
  4 35  1  0
  4 36  1  0
  8 37  1  0
  8 38  1  0
  9 39  1  0
  9 40  1  0
 10 41  1  0
 10 42  1  0
 11 43  1  1
 14 44  1  0
 17 45  1  0
 17 46  1  0
 18 47  1  0
 19 48  1  0
 19 49  1  0
 20 50  1  0
 20 51  1  0
 21 52  1  0
 21 53  1  0
 24 54  1  0
 25 55  1  0
 27 56  1  0
 30 57  1  0
 31 58  1  0
M  END
>  <smiles>  (27) 
O=C(NCC(=O)N1CCC[C@H]1c1ncc(OCC2CCC2)o1)c1ccc2cc(Cl)ccc2n1

>  <score_type>  (27) 
oracle

>  <origin>  (27) 
autodockgpu

>  <m_score__min__energy>  (27) 
-8.2899999999999991

>  <m_primary>  (27) 
energy

>  <rmsd>  (27) 
2.5454892358024863

>  <m_score__min__rmsd>  (27) 
2.5454892358024863

>  <meeko>  (27) 
{"free_energy": -7.56, "intermolecular_energy": -9.95, "internal_energy": -2.03, "cluster_size": 4, "cluster_id": 7, "rank_in_cluster": 1}

>  <energy>  (27) 
-7.68

>  <cluster_rmsd>  (27) 
0.0

>  <cluster>  (27) 
4

$$$$

     RDKit          3D

 58 62  0  0  0  0  0  0  0  0999 V2000
  140.7320   72.4360  221.2930 O   0  0  0  0  0  0  0  0  0  0  0  0
  139.9230   72.4600  222.2520 C   0  0  0  0  0  0  0  0  0  0  0  0
  138.9320   73.5120  222.1930 N   0  0  0  0  0  0  0  0  0  0  0  0
  138.8360   74.4620  221.1580 C   0  0  0  0  0  0  0  0  0  0  0  0
  139.7030   75.6140  221.0770 C   0  0  0  0  0  0  0  0  0  0  0  0
  140.6670   75.5990  221.9760 O   0  0  0  0  0  0  0  0  0  0  0  0
  139.7140   76.7300  220.2440 N   0  0  0  0  0  0  0  0  0  0  0  0
  138.7890   77.7790  219.8940 C   0  0  0  0  0  0  0  0  0  0  0  0
  138.7770   77.6160  218.3670 C   0  0  0  0  0  0  0  0  0  0  0  0
  140.1850   77.1430  218.0530 C   0  0  0  0  0  0  0  0  0  0  0  0
  140.9050   77.0820  219.4080 C   0  0  1  0  0  0  0  0  0  0  0  0
  141.3830   78.4400  219.6990 C   0  0  0  0  0  0  0  0  0  0  0  0
  141.8750   79.2850  218.7990 N   0  0  0  0  0  0  0  0  0  0  0  0
  142.1990   80.4120  219.4480 C   0  0  0  0  0  0  0  0  0  0  0  0
  141.8840   80.2360  220.8200 C   0  0  0  0  0  0  0  0  0  0  0  0
  142.1100   81.2270  221.7140 O   0  0  0  0  0  0  0  0  0  0  0  0
  142.2640   81.2290  223.0810 C   0  0  0  0  0  0  0  0  0  0  0  0
  141.1160   80.6330  223.8120 C   0  0  0  0  0  0  0  0  0  0  0  0
  139.7860   80.7300  223.1520 C   0  0  0  0  0  0  0  0  0  0  0  0
  139.4470   79.3790  223.8150 C   0  0  0  0  0  0  0  0  0  0  0  0
  140.9680   79.1220  223.7630 C   0  0  0  0  0  0  0  0  0  0  0  0
  141.4060   79.0350  220.8660 O   0  0  0  0  0  0  0  0  0  0  0  0
  139.9610   71.5070  223.3540 C   0  0  0  0  0  0  0  0  0  0  0  0
  139.4630   70.2440  223.1050 C   0  0  0  0  0  0  0  0  0  0  0  0
  139.5100   69.3490  224.1750 C   0  0  0  0  0  0  0  0  0  0  0  0
  140.0280   69.7170  225.4030 C   0  0  0  0  0  0  0  0  0  0  0  0
  140.0830   68.8400  226.4770 C   0  0  0  0  0  0  0  0  0  0  0  0
  140.6080   69.2490  227.6890 C   0  0  0  0  0  0  0  0  0  0  0  0
  140.6810   68.1450  229.0500 Cl  0  0  0  0  0  0  0  0  0  0  0  0
  141.0930   70.5280  227.8770 C   0  0  0  0  0  0  0  0  0  0  0  0
  141.0430   71.4110  226.8130 C   0  0  0  0  0  0  0  0  0  0  0  0
  140.5170   70.9930  225.6070 C   0  0  0  0  0  0  0  0  0  0  0  0
  140.4650   71.8430  224.5700 N   0  0  0  0  0  0  0  0  0  0  0  0
  138.2690   73.4950  223.0290 H   0  0  0  0  0  0  0  0  0  0  0  0
  138.9787   73.9062  220.2195 H   0  0  0  0  0  0  0  0  0  0  0  0
  137.8625   74.9280  221.3705 H   0  0  0  0  0  0  0  0  0  0  0  0
  137.7940   77.6101  220.3315 H   0  0  0  0  0  0  0  0  0  0  0  0
  139.0640   78.7816  220.2533 H   0  0  0  0  0  0  0  0  0  0  0  0
  138.0322   76.8684  218.0567 H   0  0  0  0  0  0  0  0  0  0  0  0
  138.5069   78.5420  217.8382 H   0  0  0  0  0  0  0  0  0  0  0  0
  140.1615   76.1481  217.5843 H   0  0  0  0  0  0  0  0  0  0  0  0
  140.6953   77.8156  217.3479 H   0  0  0  0  0  0  0  0  0  0  0  0
  141.7690   76.4111  219.5238 H   0  0  0  0  0  0  0  0  0  0  0  0
  142.6334   81.3158  218.9957 H   0  0  0  0  0  0  0  0  0  0  0  0
  143.1693   80.6556  223.3294 H   0  0  0  0  0  0  0  0  0  0  0  0
  142.3342   82.2808  223.3952 H   0  0  0  0  0  0  0  0  0  0  0  0
  141.3299   81.1500  224.7590 H   0  0  0  0  0  0  0  0  0  0  0  0
  139.1666   81.5753  223.4864 H   0  0  0  0  0  0  0  0  0  0  0  0
  139.6838   80.8888  222.0683 H   0  0  0  0  0  0  0  0  0  0  0  0
  139.0186   79.4484  224.8258 H   0  0  0  0  0  0  0  0  0  0  0  0
  138.7067   78.6781  223.4017 H   0  0  0  0  0  0  0  0  0  0  0  0
  141.3787   78.5865  224.6316 H   0  0  0  0  0  0  0  0  0  0  0  0
  141.4379   78.5063  222.9819 H   0  0  0  0  0  0  0  0  0  0  0  0
  139.0543   69.9604  222.1239 H   0  0  0  0  0  0  0  0  0  0  0  0
  139.1261   68.3273  224.0382 H   0  0  0  0  0  0  0  0  0  0  0  0
  139.7065   67.8127  226.3634 H   0  0  0  0  0  0  0  0  0  0  0  0
  141.5084   70.8369  228.8476 H   0  0  0  0  0  0  0  0  0  0  0  0
  141.4195   72.4382  226.9272 H   0  0  0  0  0  0  0  0  0  0  0  0
  1  2  2  0
  2  3  1  0
  3  4  1  0
  4  5  1  0
  5  6  2  0
  5  7  1  0
  7  8  1  0
  8  9  1  0
  9 10  1  0
 10 11  1  0
 11 12  1  0
 12 13  2  0
 13 14  1  0
 14 15  2  0
 15 16  1  0
 16 17  1  0
 17 18  1  0
 18 19  1  0
 19 20  1  0
 20 21  1  0
 15 22  1  0
  2 23  1  0
 23 24  2  0
 24 25  1  0
 25 26  2  0
 26 27  1  0
 27 28  2  0
 28 29  1  0
 28 30  1  0
 30 31  2  0
 31 32  1  0
 32 33  2  0
 11  7  1  0
 22 12  1  0
 33 23  1  0
 21 18  1  0
 32 26  1  0
  3 34  1  0
  4 35  1  0
  4 36  1  0
  8 37  1  0
  8 38  1  0
  9 39  1  0
  9 40  1  0
 10 41  1  0
 10 42  1  0
 11 43  1  6
 14 44  1  0
 17 45  1  0
 17 46  1  0
 18 47  1  0
 19 48  1  0
 19 49  1  0
 20 50  1  0
 20 51  1  0
 21 52  1  0
 21 53  1  0
 24 54  1  0
 25 55  1  0
 27 56  1  0
 30 57  1  0
 31 58  1  0
M  END
>  <smiles>  (28) 
O=C(NCC(=O)N1CCC[C@H]1c1ncc(OCC2CCC2)o1)c1ccc2cc(Cl)ccc2n1

>  <score_type>  (28) 
oracle

>  <origin>  (28) 
autodockgpu

>  <m_score__min__energy>  (28) 
-8.2899999999999991

>  <m_primary>  (28) 
energy

>  <rmsd>  (28) 
1.8702443810847735

>  <m_score__min__rmsd>  (28) 
1.8702443810847735

>  <meeko>  (28) 
{"free_energy": -7.69, "intermolecular_energy": -10.08, "internal_energy": -1.91, "cluster_size": 14, "cluster_id": 1, "rank_in_cluster": 6}

>  <energy>  (28) 
-7.13

>  <cluster_rmsd>  (28) 
0.84

>  <cluster>  (28) 
4

$$$$

     RDKit          3D

 58 62  0  0  0  0  0  0  0  0999 V2000
  138.6400   71.9710  220.8900 O   0  0  0  0  0  0  0  0  0  0  0  0
  139.0920   72.3420  222.0020 C   0  0  0  0  0  0  0  0  0  0  0  0
  139.3260   73.7630  222.1250 N   0  0  0  0  0  0  0  0  0  0  0  0
  139.0790   74.7060  221.1090 C   0  0  0  0  0  0  0  0  0  0  0  0
  139.9950   75.7810  220.8080 C   0  0  0  0  0  0  0  0  0  0  0  0
  140.8790   75.4640  219.8830 O   0  0  0  0  0  0  0  0  0  0  0  0
  140.1260   77.0760  221.3050 N   0  0  0  0  0  0  0  0  0  0  0  0
  140.5170   78.3600  220.7780 C   0  0  0  0  0  0  0  0  0  0  0  0
  141.6440   78.7120  221.7600 C   0  0  0  0  0  0  0  0  0  0  0  0
  141.1940   78.0650  223.0580 C   0  0  0  0  0  0  0  0  0  0  0  0
  139.8440   77.4070  222.7370 C   0  0  1  0  0  0  0  0  0  0  0  0
  138.8190   78.4530  222.8550 C   0  0  0  0  0  0  0  0  0  0  0  0
  137.7680   78.5860  222.0520 N   0  0  0  0  0  0  0  0  0  0  0  0
  137.0750   79.6500  222.4810 C   0  0  0  0  0  0  0  0  0  0  0  0
  137.7470   80.1890  223.6070 C   0  0  0  0  0  0  0  0  0  0  0  0
  137.2600   81.2790  224.2470 O   0  0  0  0  0  0  0  0  0  0  0  0
  137.5130   81.8210  225.4850 C   0  0  0  0  0  0  0  0  0  0  0  0
  136.2860   82.1320  226.2620 C   0  0  0  0  0  0  0  0  0  0  0  0
  135.1080   81.2540  226.0240 C   0  0  0  0  0  0  0  0  0  0  0  0
  134.7360   81.4880  227.5040 C   0  0  0  0  0  0  0  0  0  0  0  0
  136.2500   81.6930  227.7150 C   0  0  0  0  0  0  0  0  0  0  0  0
  138.7680   79.4090  223.7490 O   0  0  0  0  0  0  0  0  0  0  0  0
  139.3670   71.4230  223.0990 C   0  0  0  0  0  0  0  0  0  0  0  0
  139.0270   70.0990  222.9050 C   0  0  0  0  0  0  0  0  0  0  0  0
  139.3000   69.2390  223.9690 C   0  0  0  0  0  0  0  0  0  0  0  0
  139.8750   69.6950  225.1400 C   0  0  0  0  0  0  0  0  0  0  0  0
  140.1530   68.8540  226.2070 C   0  0  0  0  0  0  0  0  0  0  0  0
  140.7290   69.3530  227.3610 C   0  0  0  0  0  0  0  0  0  0  0  0
  141.0840   68.2940  228.7140 Cl  0  0  0  0  0  0  0  0  0  0  0  0
  141.0480   70.6900  227.4960 C   0  0  0  0  0  0  0  0  0  0  0  0
  140.7750   71.5380  226.4380 C   0  0  0  0  0  0  0  0  0  0  0  0
  140.1990   71.0300  225.2900 C   0  0  0  0  0  0  0  0  0  0  0  0
  139.9320   71.8470  224.2600 N   0  0  0  0  0  0  0  0  0  0  0  0
  139.7120   74.0310  223.0840 H   0  0  0  0  0  0  0  0  0  0  0  0
  138.9677   74.1301  220.1784 H   0  0  0  0  0  0  0  0  0  0  0  0
  138.2153   75.2531  221.5147 H   0  0  0  0  0  0  0  0  0  0  0  0
  140.8842   78.2834  219.7439 H   0  0  0  0  0  0  0  0  0  0  0  0
  139.7079   79.1023  220.7121 H   0  0  0  0  0  0  0  0  0  0  0  0
  142.6041   78.2936  221.4237 H   0  0  0  0  0  0  0  0  0  0  0  0
  141.8086   79.7955  221.8545 H   0  0  0  0  0  0  0  0  0  0  0  0
  141.9231   77.3088  223.3844 H   0  0  0  0  0  0  0  0  0  0  0  0
  141.1088   78.7984  223.8734 H   0  0  0  0  0  0  0  0  0  0  0  0
  139.5035   76.5607  223.3516 H   0  0  0  0  0  0  0  0  0  0  0  0
  136.1464   80.0376  222.0367 H   0  0  0  0  0  0  0  0  0  0  0  0
  138.1167   81.1044  226.0612 H   0  0  0  0  0  0  0  0  0  0  0  0
  138.0382   82.7730  225.3182 H   0  0  0  0  0  0  0  0  0  0  0  0
  136.2753   83.1987  225.9935 H   0  0  0  0  0  0  0  0  0  0  0  0
  134.3802   81.6464  225.2985 H   0  0  0  0  0  0  0  0  0  0  0  0
  135.2103   80.2435  225.6016 H   0  0  0  0  0  0  0  0  0  0  0  0
  134.1128   82.3740  227.6953 H   0  0  0  0  0  0  0  0  0  0  0  0
  134.1406   80.7740  228.0920 H   0  0  0  0  0  0  0  0  0  0  0  0
  136.5159   82.4738  228.4427 H   0  0  0  0  0  0  0  0  0  0  0  0
  136.9043   80.9018  228.1099 H   0  0  0  0  0  0  0  0  0  0  0  0
  138.5693   69.7443  221.9697 H   0  0  0  0  0  0  0  0  0  0  0  0
  139.0515   68.1717  223.8735 H   0  0  0  0  0  0  0  0  0  0  0  0
  139.9137   67.7828  226.1350 H   0  0  0  0  0  0  0  0  0  0  0  0
  141.5070   71.0703  228.4205 H   0  0  0  0  0  0  0  0  0  0  0  0
  141.0148   72.6091  226.5103 H   0  0  0  0  0  0  0  0  0  0  0  0
  1  2  2  0
  2  3  1  0
  3  4  1  0
  4  5  1  0
  5  6  2  0
  5  7  1  0
  7  8  1  0
  8  9  1  0
  9 10  1  0
 10 11  1  0
 11 12  1  0
 12 13  2  0
 13 14  1  0
 14 15  2  0
 15 16  1  0
 16 17  1  0
 17 18  1  0
 18 19  1  0
 19 20  1  0
 20 21  1  0
 15 22  1  0
  2 23  1  0
 23 24  2  0
 24 25  1  0
 25 26  2  0
 26 27  1  0
 27 28  2  0
 28 29  1  0
 28 30  1  0
 30 31  2  0
 31 32  1  0
 32 33  2  0
 11  7  1  0
 22 12  1  0
 33 23  1  0
 21 18  1  0
 32 26  1  0
  3 34  1  0
  4 35  1  0
  4 36  1  0
  8 37  1  0
  8 38  1  0
  9 39  1  0
  9 40  1  0
 10 41  1  0
 10 42  1  0
 11 43  1  1
 14 44  1  0
 17 45  1  0
 17 46  1  0
 18 47  1  0
 19 48  1  0
 19 49  1  0
 20 50  1  0
 20 51  1  0
 21 52  1  0
 21 53  1  0
 24 54  1  0
 25 55  1  0
 27 56  1  0
 30 57  1  0
 31 58  1  0
M  END
>  <smiles>  (29) 
O=C(NCC(=O)N1CCC[C@H]1c1ncc(OCC2CCC2)o1)c1ccc2cc(Cl)ccc2n1

>  <score_type>  (29) 
oracle

>  <origin>  (29) 
autodockgpu

>  <m_score__min__energy>  (29) 
-8.2899999999999991

>  <m_primary>  (29) 
energy

>  <rmsd>  (29) 
2.91095078856722

>  <m_score__min__rmsd>  (29) 
2.91095078856722

>  <meeko>  (29) 
{"free_energy": -7.42, "intermolecular_energy": -9.81, "internal_energy": -1.67, "cluster_size": 5, "cluster_id": 2, "rank_in_cluster": 3}

>  <energy>  (29) 
-6.95

>  <cluster_rmsd>  (29) 
1.1

>  <cluster>  (29) 
4

$$$$

     RDKit          3D

 58 62  0  0  0  0  0  0  0  0999 V2000
  140.5470   72.2510  220.9460 O   0  0  0  0  0  0  0  0  0  0  0  0
  139.9800   72.4670  222.0450 C   0  0  0  0  0  0  0  0  0  0  0  0
  139.2920   73.7360  222.1410 N   0  0  0  0  0  0  0  0  0  0  0  0
  139.2290   74.6910  221.1080 C   0  0  0  0  0  0  0  0  0  0  0  0
  140.2700   75.6690  220.8900 C   0  0  0  0  0  0  0  0  0  0  0  0
  141.0910   75.7870  221.9130 O   0  0  0  0  0  0  0  0  0  0  0  0
  140.5680   76.5060  219.8170 N   0  0  0  0  0  0  0  0  0  0  0  0
  139.8400   77.0990  218.7230 C   0  0  0  0  0  0  0  0  0  0  0  0
  140.6820   76.5910  217.5440 C   0  0  0  0  0  0  0  0  0  0  0  0
  142.0860   76.5260  218.1170 C   0  0  0  0  0  0  0  0  0  0  0  0
  141.9550   77.0110  219.5680 C   0  0  1  0  0  0  0  0  0  0  0  0
  141.9940   78.4790  219.5330 C   0  0  0  0  0  0  0  0  0  0  0  0
  142.2580   79.2100  218.4540 N   0  0  0  0  0  0  0  0  0  0  0  0
  142.2000   80.4970  218.8240 C   0  0  0  0  0  0  0  0  0  0  0  0
  141.8830   80.5450  220.2050 C   0  0  0  0  0  0  0  0  0  0  0  0
  141.7600   81.7310  220.8460 O   0  0  0  0  0  0  0  0  0  0  0  0
  141.0780   82.1100  221.9780 C   0  0  0  0  0  0  0  0  0  0  0  0
  141.3230   81.2250  223.1460 C   0  0  0  0  0  0  0  0  0  0  0  0
  140.6330   79.9070  223.1370 C   0  0  0  0  0  0  0  0  0  0  0  0
  141.8550   79.3510  223.8970 C   0  0  0  0  0  0  0  0  0  0  0  0
  142.6410   80.4730  223.1860 C   0  0  0  0  0  0  0  0  0  0  0  0
  141.7810   79.2980  220.5330 O   0  0  0  0  0  0  0  0  0  0  0  0
  140.0000   71.5230  223.1540 C   0  0  0  0  0  0  0  0  0  0  0  0
  139.5070   70.2580  222.9070 C   0  0  0  0  0  0  0  0  0  0  0  0
  139.5370   69.3710  223.9840 C   0  0  0  0  0  0  0  0  0  0  0  0
  140.0330   69.7490  225.2190 C   0  0  0  0  0  0  0  0  0  0  0  0
  140.0710   68.8800  226.3000 C   0  0  0  0  0  0  0  0  0  0  0  0
  140.5750   69.2990  227.5170 C   0  0  0  0  0  0  0  0  0  0  0  0
  140.6260   68.2060  228.8880 Cl  0  0  0  0  0  0  0  0  0  0  0  0
  141.0550   70.5800  227.7040 C   0  0  0  0  0  0  0  0  0  0  0  0
  141.0230   71.4550  226.6330 C   0  0  0  0  0  0  0  0  0  0  0  0
  140.5170   71.0270  225.4210 C   0  0  0  0  0  0  0  0  0  0  0  0
  140.4830   71.8690  224.3770 N   0  0  0  0  0  0  0  0  0  0  0  0
  138.8280   73.8780  223.0920 H   0  0  0  0  0  0  0  0  0  0  0  0
  139.1436   74.1218  220.1706 H   0  0  0  0  0  0  0  0  0  0  0  0
  138.3910   75.3233  221.4365 H   0  0  0  0  0  0  0  0  0  0  0  0
  138.8041   76.7321  218.6742 H   0  0  0  0  0  0  0  0  0  0  0  0
  139.7265   78.1918  218.7774 H   0  0  0  0  0  0  0  0  0  0  0  0
  140.3434   75.5965  217.2181 H   0  0  0  0  0  0  0  0  0  0  0  0
  140.6101   77.2356  216.6556 H   0  0  0  0  0  0  0  0  0  0  0  0
  142.4662   75.4942  218.0886 H   0  0  0  0  0  0  0  0  0  0  0  0
  142.7926   77.1418  217.5412 H   0  0  0  0  0  0  0  0  0  0  0  0
  142.7051   76.6923  220.3068 H   0  0  0  0  0  0  0  0  0  0  0  0
  142.3690   81.3651  218.1699 H   0  0  0  0  0  0  0  0  0  0  0  0
  141.3878   83.1312  222.2448 H   0  0  0  0  0  0  0  0  0  0  0  0
  140.0051   82.0451  221.7443 H   0  0  0  0  0  0  0  0  0  0  0  0
  141.0883   81.9946  223.8961 H   0  0  0  0  0  0  0  0  0  0  0  0
  139.6884   79.8780  223.7000 H   0  0  0  0  0  0  0  0  0  0  0  0
  140.2674   79.4475  222.2068 H   0  0  0  0  0  0  0  0  0  0  0  0
  141.8037   79.4374  224.9924 H   0  0  0  0  0  0  0  0  0  0  0  0
  142.1539   78.2931  223.8584 H   0  0  0  0  0  0  0  0  0  0  0  0
  143.4273   80.9457  223.7929 H   0  0  0  0  0  0  0  0  0  0  0  0
  143.2463   80.2920  222.2855 H   0  0  0  0  0  0  0  0  0  0  0  0
  139.1144   69.9666  221.9216 H   0  0  0  0  0  0  0  0  0  0  0  0
  139.1575   68.3476  223.8478 H   0  0  0  0  0  0  0  0  0  0  0  0
  139.6978   67.8513  226.1878 H   0  0  0  0  0  0  0  0  0  0  0  0
  141.4526   70.8967  228.6795 H   0  0  0  0  0  0  0  0  0  0  0  0
  141.3974   72.4832  226.7456 H   0  0  0  0  0  0  0  0  0  0  0  0
  1  2  2  0
  2  3  1  0
  3  4  1  0
  4  5  1  0
  5  6  2  0
  5  7  1  0
  7  8  1  0
  8  9  1  0
  9 10  1  0
 10 11  1  0
 11 12  1  0
 12 13  2  0
 13 14  1  0
 14 15  2  0
 15 16  1  0
 16 17  1  0
 17 18  1  0
 18 19  1  0
 19 20  1  0
 20 21  1  0
 15 22  1  0
  2 23  1  0
 23 24  2  0
 24 25  1  0
 25 26  2  0
 26 27  1  0
 27 28  2  0
 28 29  1  0
 28 30  1  0
 30 31  2  0
 31 32  1  0
 32 33  2  0
 11  7  1  0
 22 12  1  0
 33 23  1  0
 21 18  1  0
 32 26  1  0
  3 34  1  0
  4 35  1  0
  4 36  1  0
  8 37  1  0
  8 38  1  0
  9 39  1  0
  9 40  1  0
 10 41  1  0
 10 42  1  0
 11 43  1  1
 14 44  1  0
 17 45  1  0
 17 46  1  0
 18 47  1  0
 19 48  1  0
 19 49  1  0
 20 50  1  0
 20 51  1  0
 21 52  1  0
 21 53  1  0
 24 54  1  0
 25 55  1  0
 27 56  1  0
 30 57  1  0
 31 58  1  0
M  END
>  <smiles>  (30) 
O=C(NCC(=O)N1CCC[C@H]1c1ncc(OCC2CCC2)o1)c1ccc2cc(Cl)ccc2n1

>  <score_type>  (30) 
oracle

>  <origin>  (30) 
autodockgpu

>  <m_score__min__energy>  (30) 
-8.2899999999999991

>  <m_primary>  (30) 
energy

>  <rmsd>  (30) 
1.8750580051327388

>  <m_score__min__rmsd>  (30) 
1.8750580051327388

>  <meeko>  (30) 
{"free_energy": -8.29, "intermolecular_energy": -10.68, "internal_energy": -1.79, "cluster_size": 14, "cluster_id": 1, "rank_in_cluster": 1}

>  <energy>  (30) 
-6.8

>  <cluster_rmsd>  (30) 
1.26

>  <cluster>  (30) 
4

$$$$

     RDKit          3D

 58 62  0  0  0  0  0  0  0  0999 V2000
  137.9630   71.2070  220.7900 O   0  0  0  0  0  0  0  0  0  0  0  0
  138.2670   71.7160  221.8970 C   0  0  0  0  0  0  0  0  0  0  0  0
  138.1550   73.1560  221.9600 N   0  0  0  0  0  0  0  0  0  0  0  0
  137.7370   73.9740  220.8920 C   0  0  0  0  0  0  0  0  0  0  0  0
  138.4610   75.1580  220.4920 C   0  0  0  0  0  0  0  0  0  0  0  0
  137.7670   75.9430  219.6920 O   0  0  0  0  0  0  0  0  0  0  0  0
  139.7420   75.6240  220.7810 N   0  0  0  0  0  0  0  0  0  0  0  0
  140.8530   75.1870  221.5880 C   0  0  0  0  0  0  0  0  0  0  0  0
  141.0530   76.4380  222.4550 C   0  0  0  0  0  0  0  0  0  0  0  0
  140.6520   77.5740  221.5310 C   0  0  0  0  0  0  0  0  0  0  0  0
  140.2680   76.9020  220.2050 C   0  0  1  0  0  0  0  0  0  0  0  0
  141.5150   76.6820  219.4600 C   0  0  0  0  0  0  0  0  0  0  0  0
  142.2840   77.6430  218.9590 N   0  0  0  0  0  0  0  0  0  0  0  0
  143.3200   77.0470  218.3550 C   0  0  0  0  0  0  0  0  0  0  0  0
  143.1670   75.6440  218.4990 C   0  0  0  0  0  0  0  0  0  0  0  0
  144.0810   74.7910  217.9800 O   0  0  0  0  0  0  0  0  0  0  0  0
  144.4300   73.4980  218.2930 C   0  0  0  0  0  0  0  0  0  0  0  0
  144.6690   73.2790  219.7420 C   0  0  0  0  0  0  0  0  0  0  0  0
  145.8980   72.5230  220.1060 C   0  0  0  0  0  0  0  0  0  0  0  0
  145.9540   73.3840  221.3850 C   0  0  0  0  0  0  0  0  0  0  0  0
  145.2180   74.4470  220.5420 C   0  0  0  0  0  0  0  0  0  0  0  0
  142.0660   75.5310  219.1690 O   0  0  0  0  0  0  0  0  0  0  0  0
  138.7030   70.9310  223.0440 C   0  0  0  0  0  0  0  0  0  0  0  0
  138.4110   69.5820  223.0250 C   0  0  0  0  0  0  0  0  0  0  0  0
  138.8380   68.8510  224.1350 C   0  0  0  0  0  0  0  0  0  0  0  0
  139.5110   69.4530  225.1820 C   0  0  0  0  0  0  0  0  0  0  0  0
  139.9430   68.7410  226.2920 C   0  0  0  0  0  0  0  0  0  0  0  0
  140.6130   69.3830  227.3180 C   0  0  0  0  0  0  0  0  0  0  0  0
  141.1620   68.4890  228.7240 Cl  0  0  0  0  0  0  0  0  0  0  0  0
  140.8770   70.7380  227.2790 C   0  0  0  0  0  0  0  0  0  0  0  0
  140.4510   71.4570  226.1770 C   0  0  0  0  0  0  0  0  0  0  0  0
  139.7830   70.8080  225.1580 C   0  0  0  0  0  0  0  0  0  0  0  0
  139.3670   71.4980  224.0860 N   0  0  0  0  0  0  0  0  0  0  0  0
  138.4260   73.5440  222.9170 H   0  0  0  0  0  0  0  0  0  0  0  0
  137.7008   73.3240  220.0054 H   0  0  0  0  0  0  0  0  0  0  0  0
  136.8046   74.4028  221.2879 H   0  0  0  0  0  0  0  0  0  0  0  0
  140.5967   74.3056  222.1942 H   0  0  0  0  0  0  0  0  0  0  0  0
  141.7404   74.8651  221.0234 H   0  0  0  0  0  0  0  0  0  0  0  0
  140.4070   76.4076  223.3448 H   0  0  0  0  0  0  0  0  0  0  0  0
  142.0801   76.5366  222.8363 H   0  0  0  0  0  0  0  0  0  0  0  0
  139.7948   78.1242  221.9464 H   0  0  0  0  0  0  0  0  0  0  0  0
  141.4654   78.3030  221.4007 H   0  0  0  0  0  0  0  0  0  0  0  0
  139.5799   77.4226  219.5227 H   0  0  0  0  0  0  0  0  0  0  0  0
  144.1460   77.5567  217.8373 H   0  0  0  0  0  0  0  0  0  0  0  0
  143.6170   72.8309  217.9703 H   0  0  0  0  0  0  0  0  0  0  0  0
  145.3770   73.2860  217.7751 H   0  0  0  0  0  0  0  0  0  0  0  0
  143.6641   72.8789  219.9421 H   0  0  0  0  0  0  0  0  0  0  0  0
  145.7424   71.4482  220.2811 H   0  0  0  0  0  0  0  0  0  0  0  0
  146.7551   72.4410  219.4215 H   0  0  0  0  0  0  0  0  0  0  0  0
  145.3857   72.9892  222.2401 H   0  0  0  0  0  0  0  0  0  0  0  0
  146.8883   73.5911  221.9274 H   0  0  0  0  0  0  0  0  0  0  0  0
  144.4630   75.0317  221.0881 H   0  0  0  0  0  0  0  0  0  0  0  0
  145.7396   75.2932  220.0710 H   0  0  0  0  0  0  0  0  0  0  0  0
  137.8751   69.1121  222.1871 H   0  0  0  0  0  0  0  0  0  0  0  0
  138.6343   67.7709  224.1776 H   0  0  0  0  0  0  0  0  0  0  0  0
  139.7515   67.6597  226.3565 H   0  0  0  0  0  0  0  0  0  0  0  0
  141.4122   71.2326  228.1030 H   0  0  0  0  0  0  0  0  0  0  0  0
  140.6431   72.5382  226.1129 H   0  0  0  0  0  0  0  0  0  0  0  0
  1  2  2  0
  2  3  1  0
  3  4  1  0
  4  5  1  0
  5  6  2  0
  5  7  1  0
  7  8  1  0
  8  9  1  0
  9 10  1  0
 10 11  1  0
 11 12  1  0
 12 13  2  0
 13 14  1  0
 14 15  2  0
 15 16  1  0
 16 17  1  0
 17 18  1  0
 18 19  1  0
 19 20  1  0
 20 21  1  0
 15 22  1  0
  2 23  1  0
 23 24  2  0
 24 25  1  0
 25 26  2  0
 26 27  1  0
 27 28  2  0
 28 29  1  0
 28 30  1  0
 30 31  2  0
 31 32  1  0
 32 33  2  0
 11  7  1  0
 22 12  1  0
 33 23  1  0
 21 18  1  0
 32 26  1  0
  3 34  1  0
  4 35  1  0
  4 36  1  0
  8 37  1  0
  8 38  1  0
  9 39  1  0
  9 40  1  0
 10 41  1  0
 10 42  1  0
 11 43  1  6
 14 44  1  0
 17 45  1  0
 17 46  1  0
 18 47  1  0
 19 48  1  0
 19 49  1  0
 20 50  1  0
 20 51  1  0
 21 52  1  0
 21 53  1  0
 24 54  1  0
 25 55  1  0
 27 56  1  0
 30 57  1  0
 31 58  1  0
M  END
>  <smiles>  (31) 
O=C(NCC(=O)N1CCC[C@H]1c1ncc(OCC2CCC2)o1)c1ccc2cc(Cl)ccc2n1

>  <score_type>  (31) 
oracle

>  <origin>  (31) 
autodockgpu

>  <m_score__min__energy>  (31) 
-8.2899999999999991

>  <m_primary>  (31) 
energy

>  <rmsd>  (31) 
2.7588399643129167

>  <m_score__min__rmsd>  (31) 
2.7588399643129167

>  <meeko>  (31) 
{"free_energy": -7.13, "intermolecular_energy": -9.52, "internal_energy": -1.89, "cluster_size": 5, "cluster_id": 4, "rank_in_cluster": 2}

>  <energy>  (31) 
-6.58

>  <cluster_rmsd>  (31) 
1.1

>  <cluster>  (31) 
4

$$$$

     RDKit          3D

 58 62  0  0  0  0  0  0  0  0999 V2000
  135.8500   75.2220  221.4240 O   0  0  0  0  0  0  0  0  0  0  0  0
  136.9680   75.2300  221.9960 C   0  0  0  0  0  0  0  0  0  0  0  0
  137.5190   73.9240  222.2820 N   0  0  0  0  0  0  0  0  0  0  0  0
  136.8940   72.7040  221.9620 C   0  0  0  0  0  0  0  0  0  0  0  0
  136.9380   71.5550  222.8370 C   0  0  0  0  0  0  0  0  0  0  0  0
  136.1450   71.6710  223.8830 O   0  0  0  0  0  0  0  0  0  0  0  0
  137.6540   70.3610  222.7900 N   0  0  0  0  0  0  0  0  0  0  0  0
  138.8640   69.8940  222.1610 C   0  0  0  0  0  0  0  0  0  0  0  0
  138.3110   68.6790  221.4030 C   0  0  0  0  0  0  0  0  0  0  0  0
  137.1920   68.1840  222.3010 C   0  0  0  0  0  0  0  0  0  0  0  0
  137.1910   69.1320  223.5090 C   0  0  1  0  0  0  0  0  0  0  0  0
  138.2130   68.6380  224.4410 C   0  0  0  0  0  0  0  0  0  0  0  0
  138.8680   67.4880  224.3160 N   0  0  0  0  0  0  0  0  0  0  0  0
  139.7080   67.3960  225.3550 C   0  0  0  0  0  0  0  0  0  0  0  0
  139.5500   68.5570  226.1550 C   0  0  0  0  0  0  0  0  0  0  0  0
  140.2840   68.7270  227.2800 O   0  0  0  0  0  0  0  0  0  0  0  0
  140.1390   69.5560  228.3680 C   0  0  0  0  0  0  0  0  0  0  0  0
  140.2570   71.0000  228.0370 C   0  0  0  0  0  0  0  0  0  0  0  0
  141.4720   71.6990  228.5350 C   0  0  0  0  0  0  0  0  0  0  0  0
  141.3870   72.5790  227.2700 C   0  0  0  0  0  0  0  0  0  0  0  0
  140.6950   71.3580  226.6280 C   0  0  0  0  0  0  0  0  0  0  0  0
  138.6410   69.2300  225.5280 O   0  0  0  0  0  0  0  0  0  0  0  0
  137.6730   76.4530  222.3530 C   0  0  0  0  0  0  0  0  0  0  0  0
  136.8990   77.5580  222.6450 C   0  0  0  0  0  0  0  0  0  0  0  0
  137.5970   78.7190  222.9840 C   0  0  0  0  0  0  0  0  0  0  0  0
  138.9790   78.7460  223.0220 C   0  0  0  0  0  0  0  0  0  0  0  0
  139.6880   79.8910  223.3570 C   0  0  0  0  0  0  0  0  0  0  0  0
  141.0710   79.8750  223.3840 C   0  0  0  0  0  0  0  0  0  0  0  0
  141.9740   81.3180  223.8070 Cl  0  0  0  0  0  0  0  0  0  0  0  0
  141.7920   78.7360  223.0820 C   0  0  0  0  0  0  0  0  0  0  0  0
  141.0940   77.5890  222.7470 C   0  0  0  0  0  0  0  0  0  0  0  0
  139.7140   77.6150  222.7230 C   0  0  0  0  0  0  0  0  0  0  0  0
  139.0310   76.5070  222.3990 N   0  0  0  0  0  0  0  0  0  0  0  0
  138.4670   73.9800  222.7710 H   0  0  0  0  0  0  0  0  0  0  0  0
  135.8287   72.9359  221.8160 H   0  0  0  0  0  0  0  0  0  0  0  0
  137.4963   72.3598  221.1083 H   0  0  0  0  0  0  0  0  0  0  0  0
  139.2862   70.6453  221.4775 H   0  0  0  0  0  0  0  0  0  0  0  0
  139.6927   69.6751  222.8505 H   0  0  0  0  0  0  0  0  0  0  0  0
  137.9231   68.9735  220.4167 H   0  0  0  0  0  0  0  0  0  0  0  0
  139.0744   67.9120  221.2055 H   0  0  0  0  0  0  0  0  0  0  0  0
  136.2271   68.2297  221.7748 H   0  0  0  0  0  0  0  0  0  0  0  0
  137.3414   67.1367  222.6023 H   0  0  0  0  0  0  0  0  0  0  0  0
  136.2655   69.2543  224.0909 H   0  0  0  0  0  0  0  0  0  0  0  0
  140.4003   66.5646  225.5537 H   0  0  0  0  0  0  0  0  0  0  0  0
  139.1466   69.3805  228.8089 H   0  0  0  0  0  0  0  0  0  0  0  0
  140.9555   69.3177  229.0656 H   0  0  0  0  0  0  0  0  0  0  0  0
  139.2519   71.2606  228.4000 H   0  0  0  0  0  0  0  0  0  0  0  0
  141.3358   72.2406  229.4827 H   0  0  0  0  0  0  0  0  0  0  0  0
  142.3884   71.1535  228.8046 H   0  0  0  0  0  0  0  0  0  0  0  0
  140.7581   73.4764  227.3658 H   0  0  0  0  0  0  0  0  0  0  0  0
  142.2626   73.0740  226.8247 H   0  0  0  0  0  0  0  0  0  0  0  0
  139.8763   71.5996  225.9343 H   0  0  0  0  0  0  0  0  0  0  0  0
  141.2287   70.6503  225.9766 H   0  0  0  0  0  0  0  0  0  0  0  0
  135.7999   77.5260  222.6127 H   0  0  0  0  0  0  0  0  0  0  0  0
  137.0347   79.6328  223.2263 H   0  0  0  0  0  0  0  0  0  0  0  0
  139.1470   80.8168  223.6025 H   0  0  0  0  0  0  0  0  0  0  0  0
  142.8917   78.7407  223.1071 H   0  0  0  0  0  0  0  0  0  0  0  0
  141.6349   76.6632  222.5016 H   0  0  0  0  0  0  0  0  0  0  0  0
  1  2  2  0
  2  3  1  0
  3  4  1  0
  4  5  1  0
  5  6  2  0
  5  7  1  0
  7  8  1  0
  8  9  1  0
  9 10  1  0
 10 11  1  0
 11 12  1  0
 12 13  2  0
 13 14  1  0
 14 15  2  0
 15 16  1  0
 16 17  1  0
 17 18  1  0
 18 19  1  0
 19 20  1  0
 20 21  1  0
 15 22  1  0
  2 23  1  0
 23 24  2  0
 24 25  1  0
 25 26  2  0
 26 27  1  0
 27 28  2  0
 28 29  1  0
 28 30  1  0
 30 31  2  0
 31 32  1  0
 32 33  2  0
 11  7  1  0
 22 12  1  0
 33 23  1  0
 21 18  1  0
 32 26  1  0
  3 34  1  0
  4 35  1  0
  4 36  1  0
  8 37  1  0
  8 38  1  0
  9 39  1  0
  9 40  1  0
 10 41  1  0
 10 42  1  0
 11 43  1  1
 14 44  1  0
 17 45  1  0
 17 46  1  0
 18 47  1  0
 19 48  1  0
 19 49  1  0
 20 50  1  0
 20 51  1  0
 21 52  1  0
 21 53  1  0
 24 54  1  0
 25 55  1  0
 27 56  1  0
 30 57  1  0
 31 58  1  0
M  END
>  <smiles>  (32) 
O=C(NCC(=O)N1CCC[C@H]1c1ncc(OCC2CCC2)o1)c1ccc2cc(Cl)ccc2n1

>  <score_type>  (32) 
oracle

>  <origin>  (32) 
autodockgpu

>  <m_score__min__energy>  (32) 
-8.2899999999999991

>  <m_primary>  (32) 
energy

>  <rmsd>  (32) 
8.729844451650253

>  <m_score__min__rmsd>  (32) 
8.729844451650253

>  <meeko>  (32) 
{"free_energy": -7.83, "intermolecular_energy": -10.21, "internal_energy": -1.66, "cluster_size": 7, "cluster_id": 3, "rank_in_cluster": 4}

>  <energy>  (32) 
-7.66

>  <cluster_rmsd>  (32) 
0.0

>  <cluster>  (32) 
5

$$$$

     RDKit          3D

 58 62  0  0  0  0  0  0  0  0999 V2000
  139.2320   72.9650  220.8410 O   0  0  0  0  0  0  0  0  0  0  0  0
  139.9630   71.9800  221.1100 C   0  0  0  0  0  0  0  0  0  0  0  0
  140.9000   71.6110  220.0730 N   0  0  0  0  0  0  0  0  0  0  0  0
  141.0280   72.2730  218.8370 C   0  0  0  0  0  0  0  0  0  0  0  0
  141.8170   73.4720  218.6770 C   0  0  0  0  0  0  0  0  0  0  0  0
  142.9370   73.2690  218.0120 O   0  0  0  0  0  0  0  0  0  0  0  0
  141.6280   74.7890  219.0890 N   0  0  0  0  0  0  0  0  0  0  0  0
  140.9700   75.9610  218.5680 C   0  0  0  0  0  0  0  0  0  0  0  0
  142.1440   76.9510  218.5910 C   0  0  0  0  0  0  0  0  0  0  0  0
  142.9590   76.5010  219.7900 C   0  0  0  0  0  0  0  0  0  0  0  0
  142.1940   75.3050  220.3760 C   0  0  1  0  0  0  0  0  0  0  0  0
  141.1440   75.8530  221.2440 C   0  0  0  0  0  0  0  0  0  0  0  0
  140.3390   75.1310  222.0170 N   0  0  0  0  0  0  0  0  0  0  0  0
  139.5240   75.9870  222.6490 C   0  0  0  0  0  0  0  0  0  0  0  0
  139.8560   77.3010  222.2310 C   0  0  0  0  0  0  0  0  0  0  0  0
  139.1840   78.3710  222.7180 O   0  0  0  0  0  0  0  0  0  0  0  0
  139.5970   79.6080  223.1560 C   0  0  0  0  0  0  0  0  0  0  0  0
  141.0280   79.8920  222.8760 C   0  0  0  0  0  0  0  0  0  0  0  0
  141.5470   81.2090  223.3350 C   0  0  0  0  0  0  0  0  0  0  0  0
  142.9030   80.5080  223.5600 C   0  0  0  0  0  0  0  0  0  0  0  0
  142.0580   79.2350  223.7780 C   0  0  0  0  0  0  0  0  0  0  0  0
  140.8280   77.1140  221.3990 O   0  0  0  0  0  0  0  0  0  0  0  0
  139.8880   71.2500  222.3690 C   0  0  0  0  0  0  0  0  0  0  0  0
  139.1560   70.0800  222.3700 C   0  0  0  0  0  0  0  0  0  0  0  0
  139.0980   69.3990  223.5860 C   0  0  0  0  0  0  0  0  0  0  0  0
  139.7400   69.8760  224.7140 C   0  0  0  0  0  0  0  0  0  0  0  0
  139.6930   69.2110  225.9310 C   0  0  0  0  0  0  0  0  0  0  0  0
  140.3500   69.7240  227.0340 C   0  0  0  0  0  0  0  0  0  0  0  0
  140.2960   68.8880  228.5760 Cl  0  0  0  0  0  0  0  0  0  0  0  0
  141.0690   70.9010  226.9720 C   0  0  0  0  0  0  0  0  0  0  0  0
  141.1220   71.5720  225.7630 C   0  0  0  0  0  0  0  0  0  0  0  0
  140.4630   71.0520  224.6670 C   0  0  0  0  0  0  0  0  0  0  0  0
  140.5100   71.6970  223.4910 N   0  0  0  0  0  0  0  0  0  0  0  0
  141.4970   70.7680  220.3440 H   0  0  0  0  0  0  0  0  0  0  0  0
  141.4480   71.5353  218.1374 H   0  0  0  0  0  0  0  0  0  0  0  0
  140.0076   72.6515  218.6772 H   0  0  0  0  0  0  0  0  0  0  0  0
  140.5917   75.7985  217.5479 H   0  0  0  0  0  0  0  0  0  0  0  0
  140.0791   76.2822  219.1276 H   0  0  0  0  0  0  0  0  0  0  0  0
  142.7346   76.8830  217.6655 H   0  0  0  0  0  0  0  0  0  0  0  0
  141.8203   78.0000  218.6606 H   0  0  0  0  0  0  0  0  0  0  0  0
  143.9685   76.1964  219.4769 H   0  0  0  0  0  0  0  0  0  0  0  0
  143.0836   77.3082  220.5268 H   0  0  0  0  0  0  0  0  0  0  0  0
  142.7416   74.5618  220.9741 H   0  0  0  0  0  0  0  0  0  0  0  0
  138.7352   75.7174  223.3667 H   0  0  0  0  0  0  0  0  0  0  0  0
  138.9864   80.3750  222.6572 H   0  0  0  0  0  0  0  0  0  0  0  0
  139.4741   79.6202  224.2491 H   0  0  0  0  0  0  0  0  0  0  0  0
  140.9656   79.6363  221.8080 H   0  0  0  0  0  0  0  0  0  0  0  0
  141.5568   81.9938  222.5643 H   0  0  0  0  0  0  0  0  0  0  0  0
  141.0507   81.7852  224.1298 H   0  0  0  0  0  0  0  0  0  0  0  0
  143.5683   80.4838  222.6843 H   0  0  0  0  0  0  0  0  0  0  0  0
  143.6483   80.8641  224.2864 H   0  0  0  0  0  0  0  0  0  0  0  0
  142.5008   78.3099  223.3804 H   0  0  0  0  0  0  0  0  0  0  0  0
  141.8097   78.8546  224.7798 H   0  0  0  0  0  0  0  0  0  0  0  0
  138.6495   69.7074  221.4674 H   0  0  0  0  0  0  0  0  0  0  0  0
  138.5281   68.4603  223.6491 H   0  0  0  0  0  0  0  0  0  0  0  0
  139.1297   68.2702  226.0187 H   0  0  0  0  0  0  0  0  0  0  0  0
  141.5857   71.2947  227.8597 H   0  0  0  0  0  0  0  0  0  0  0  0
  141.6851   72.5129  225.6758 H   0  0  0  0  0  0  0  0  0  0  0  0
  1  2  2  0
  2  3  1  0
  3  4  1  0
  4  5  1  0
  5  6  2  0
  5  7  1  0
  7  8  1  0
  8  9  1  0
  9 10  1  0
 10 11  1  0
 11 12  1  0
 12 13  2  0
 13 14  1  0
 14 15  2  0
 15 16  1  0
 16 17  1  0
 17 18  1  0
 18 19  1  0
 19 20  1  0
 20 21  1  0
 15 22  1  0
  2 23  1  0
 23 24  2  0
 24 25  1  0
 25 26  2  0
 26 27  1  0
 27 28  2  0
 28 29  1  0
 28 30  1  0
 30 31  2  0
 31 32  1  0
 32 33  2  0
 11  7  1  0
 22 12  1  0
 33 23  1  0
 21 18  1  0
 32 26  1  0
  3 34  1  0
  4 35  1  0
  4 36  1  0
  8 37  1  0
  8 38  1  0
  9 39  1  0
  9 40  1  0
 10 41  1  0
 10 42  1  0
 11 43  1  1
 14 44  1  0
 17 45  1  0
 17 46  1  0
 18 47  1  0
 19 48  1  0
 19 49  1  0
 20 50  1  0
 20 51  1  0
 21 52  1  0
 21 53  1  0
 24 54  1  0
 25 55  1  0
 27 56  1  0
 30 57  1  0
 31 58  1  0
M  END
>  <smiles>  (33) 
O=C(NCC(=O)N1CCC[C@H]1c1ncc(OCC2CCC2)o1)c1ccc2cc(Cl)ccc2n1

>  <score_type>  (33) 
oracle

>  <origin>  (33) 
autodockgpu

>  <m_score__min__energy>  (33) 
-8.2899999999999991

>  <m_primary>  (33) 
energy

>  <rmsd>  (33) 
2.6091006379799686

>  <m_score__min__rmsd>  (33) 
2.6091006379799686

>  <meeko>  (33) 
{"free_energy": -7.42, "intermolecular_energy": -9.8, "internal_energy": -2.07, "cluster_size": 4, "cluster_id": 7, "rank_in_cluster": 2}

>  <energy>  (33) 
-7.44

>  <cluster_rmsd>  (33) 
1.24

>  <cluster>  (33) 
5

$$$$

     RDKit          3D

 58 62  0  0  0  0  0  0  0  0999 V2000
  138.4290   72.4340  221.2030 O   0  0  0  0  0  0  0  0  0  0  0  0
  139.4210   72.4430  221.9730 C   0  0  0  0  0  0  0  0  0  0  0  0
  140.4030   73.4670  221.6950 N   0  0  0  0  0  0  0  0  0  0  0  0
  140.3030   74.4100  220.6550 C   0  0  0  0  0  0  0  0  0  0  0  0
  141.4320   74.7860  219.8360 C   0  0  0  0  0  0  0  0  0  0  0  0
  142.4740   73.9960  219.9970 O   0  0  0  0  0  0  0  0  0  0  0  0
  141.6310   75.8170  218.9190 N   0  0  0  0  0  0  0  0  0  0  0  0
  140.9280   76.3480  217.7780 C   0  0  0  0  0  0  0  0  0  0  0  0
  142.0380   76.2510  216.7210 C   0  0  0  0  0  0  0  0  0  0  0  0
  143.3070   76.4750  217.5230 C   0  0  0  0  0  0  0  0  0  0  0  0
  142.8410   76.6970  218.9690 C   0  0  1  0  0  0  0  0  0  0  0  0
  142.4700   78.1140  219.0850 C   0  0  0  0  0  0  0  0  0  0  0  0
  142.7340   79.0480  218.1780 N   0  0  0  0  0  0  0  0  0  0  0  0
  142.2400   80.2030  218.6440 C   0  0  0  0  0  0  0  0  0  0  0  0
  141.6440   79.9510  219.9060 C   0  0  0  0  0  0  0  0  0  0  0  0
  141.0610   80.9500  220.6090 O   0  0  0  0  0  0  0  0  0  0  0  0
  141.4720   81.6850  221.6970 C   0  0  0  0  0  0  0  0  0  0  0  0
  141.6180   80.8810  222.9380 C   0  0  0  0  0  0  0  0  0  0  0  0
  140.7010   79.7190  223.0890 C   0  0  0  0  0  0  0  0  0  0  0  0
  141.8430   79.0190  223.8540 C   0  0  0  0  0  0  0  0  0  0  0  0
  142.7780   79.9040  223.0030 C   0  0  0  0  0  0  0  0  0  0  0  0
  141.8330   78.6820  220.0780 O   0  0  0  0  0  0  0  0  0  0  0  0
  139.5880   71.5000  223.0710 C   0  0  0  0  0  0  0  0  0  0  0  0
  139.1390   70.2120  222.8620 C   0  0  0  0  0  0  0  0  0  0  0  0
  139.3090   69.3270  223.9280 C   0  0  0  0  0  0  0  0  0  0  0  0
  139.8940   69.7270  225.1140 C   0  0  0  0  0  0  0  0  0  0  0  0
  140.0710   68.8610  226.1830 C   0  0  0  0  0  0  0  0  0  0  0  0
  140.6610   69.3040  227.3530 C   0  0  0  0  0  0  0  0  0  0  0  0
  140.8890   68.2130  228.7080 Cl  0  0  0  0  0  0  0  0  0  0  0  0
  141.0920   70.6070  227.5030 C   0  0  0  0  0  0  0  0  0  0  0  0
  140.9200   71.4800  226.4440 C   0  0  0  0  0  0  0  0  0  0  0  0
  140.3300   71.0280  225.2790 C   0  0  0  0  0  0  0  0  0  0  0  0
  140.1600   71.8690  224.2470 N   0  0  0  0  0  0  0  0  0  0  0  0
  141.2290   73.4340  222.3730 H   0  0  0  0  0  0  0  0  0  0  0  0
  139.5400   74.0225  219.9638 H   0  0  0  0  0  0  0  0  0  0  0  0
  140.1092   75.3390  221.2113 H   0  0  0  0  0  0  0  0  0  0  0  0
  140.0551   75.7334  217.5126 H   0  0  0  0  0  0  0  0  0  0  0  0
  140.5046   77.3535  217.9181 H   0  0  0  0  0  0  0  0  0  0  0  0
  142.0429   75.2593  216.2451 H   0  0  0  0  0  0  0  0  0  0  0  0
  141.9148   76.9737  215.9009 H   0  0  0  0  0  0  0  0  0  0  0  0
  143.9623   75.5937  217.4608 H   0  0  0  0  0  0  0  0  0  0  0  0
  143.8854   77.3302  217.1435 H   0  0  0  0  0  0  0  0  0  0  0  0
  143.5375   76.4837  219.7933 H   0  0  0  0  0  0  0  0  0  0  0  0
  142.2883   81.1775  218.1360 H   0  0  0  0  0  0  0  0  0  0  0  0
  142.4452   82.1404  221.4613 H   0  0  0  0  0  0  0  0  0  0  0  0
  140.6934   82.4376  221.8903 H   0  0  0  0  0  0  0  0  0  0  0  0
  141.5694   81.7466  223.6150 H   0  0  0  0  0  0  0  0  0  0  0  0
  139.8000   79.9182  223.6878 H   0  0  0  0  0  0  0  0  0  0  0  0
  140.2063   79.2513  222.2250 H   0  0  0  0  0  0  0  0  0  0  0  0
  141.8702   79.2150  224.9361 H   0  0  0  0  0  0  0  0  0  0  0  0
  141.9426   77.9250  223.9118 H   0  0  0  0  0  0  0  0  0  0  0  0
  143.6701   80.2763  223.5279 H   0  0  0  0  0  0  0  0  0  0  0  0
  143.2884   79.5309  222.1029 H   0  0  0  0  0  0  0  0  0  0  0  0
  138.6757   69.9018  221.9138 H   0  0  0  0  0  0  0  0  0  0  0  0
  138.9691   68.2863  223.8212 H   0  0  0  0  0  0  0  0  0  0  0  0
  139.7401   67.8153  226.0998 H   0  0  0  0  0  0  0  0  0  0  0  0
  141.5600   70.9422  228.4403 H   0  0  0  0  0  0  0  0  0  0  0  0
  141.2503   72.5258  226.5285 H   0  0  0  0  0  0  0  0  0  0  0  0
  1  2  2  0
  2  3  1  0
  3  4  1  0
  4  5  1  0
  5  6  2  0
  5  7  1  0
  7  8  1  0
  8  9  1  0
  9 10  1  0
 10 11  1  0
 11 12  1  0
 12 13  2  0
 13 14  1  0
 14 15  2  0
 15 16  1  0
 16 17  1  0
 17 18  1  0
 18 19  1  0
 19 20  1  0
 20 21  1  0
 15 22  1  0
  2 23  1  0
 23 24  2  0
 24 25  1  0
 25 26  2  0
 26 27  1  0
 27 28  2  0
 28 29  1  0
 28 30  1  0
 30 31  2  0
 31 32  1  0
 32 33  2  0
 11  7  1  0
 22 12  1  0
 33 23  1  0
 21 18  1  0
 32 26  1  0
  3 34  1  0
  4 35  1  0
  4 36  1  0
  8 37  1  0
  8 38  1  0
  9 39  1  0
  9 40  1  0
 10 41  1  0
 10 42  1  0
 11 43  1  1
 14 44  1  0
 17 45  1  0
 17 46  1  0
 18 47  1  0
 19 48  1  0
 19 49  1  0
 20 50  1  0
 20 51  1  0
 21 52  1  0
 21 53  1  0
 24 54  1  0
 25 55  1  0
 27 56  1  0
 30 57  1  0
 31 58  1  0
M  END
>  <smiles>  (34) 
O=C(NCC(=O)N1CCC[C@H]1c1ncc(OCC2CCC2)o1)c1ccc2cc(Cl)ccc2n1

>  <score_type>  (34) 
oracle

>  <origin>  (34) 
autodockgpu

>  <m_score__min__energy>  (34) 
-8.2899999999999991

>  <m_primary>  (34) 
energy

>  <rmsd>  (34) 
2.256008375771644

>  <m_score__min__rmsd>  (34) 
2.256008375771644

>  <meeko>  (34) 
{"free_energy": -7.54, "intermolecular_energy": -9.93, "internal_energy": -1.89, "cluster_size": 14, "cluster_id": 1, "rank_in_cluster": 8}

>  <energy>  (34) 
-7.61

>  <cluster_rmsd>  (34) 
0.0

>  <cluster>  (34) 
6

$$$$

     RDKit          3D

 58 62  0  0  0  0  0  0  0  0999 V2000
  140.4140   72.7980  221.0500 O   0  0  0  0  0  0  0  0  0  0  0  0
  139.6120   72.7550  222.0160 C   0  0  0  0  0  0  0  0  0  0  0  0
  138.5600   73.7460  221.9830 N   0  0  0  0  0  0  0  0  0  0  0  0
  138.3970   74.7070  220.9670 C   0  0  0  0  0  0  0  0  0  0  0  0
  137.4070   75.7560  221.0420 C   0  0  0  0  0  0  0  0  0  0  0  0
  137.5650   76.6830  220.1180 O   0  0  0  0  0  0  0  0  0  0  0  0
  136.3290   75.9780  221.8960 N   0  0  0  0  0  0  0  0  0  0  0  0
  134.8960   76.0640  221.7670 C   0  0  0  0  0  0  0  0  0  0  0  0
  134.6620   77.4490  222.3880 C   0  0  0  0  0  0  0  0  0  0  0  0
  135.7510   77.5510  223.4400 C   0  0  0  0  0  0  0  0  0  0  0  0
  136.5180   76.2230  223.3610 C   0  0  1  0  0  0  0  0  0  0  0  0
  135.7720   75.2500  224.1690 C   0  0  0  0  0  0  0  0  0  0  0  0
  135.7940   73.9320  223.9910 N   0  0  0  0  0  0  0  0  0  0  0  0
  134.9910   73.3930  224.9180 C   0  0  0  0  0  0  0  0  0  0  0  0
  134.4530   74.4460  225.7010 C   0  0  0  0  0  0  0  0  0  0  0  0
  133.6010   74.1850  226.7200 O   0  0  0  0  0  0  0  0  0  0  0  0
  132.4210   73.4820  226.7890 C   0  0  0  0  0  0  0  0  0  0  0  0
  132.6080   72.0180  226.9610 C   0  0  0  0  0  0  0  0  0  0  0  0
  132.8290   71.2260  225.7200 C   0  0  0  0  0  0  0  0  0  0  0  0
  133.7160   70.2920  226.5700 C   0  0  0  0  0  0  0  0  0  0  0  0
  133.9660   71.5400  227.4420 C   0  0  0  0  0  0  0  0  0  0  0  0
  134.9770   75.5070  225.1770 O   0  0  0  0  0  0  0  0  0  0  0  0
  139.7180   71.7860  223.0980 C   0  0  0  0  0  0  0  0  0  0  0  0
  139.2070   70.5260  222.8610 C   0  0  0  0  0  0  0  0  0  0  0  0
  139.3180   69.6150  223.9130 C   0  0  0  0  0  0  0  0  0  0  0  0
  139.9080   69.9650  225.1130 C   0  0  0  0  0  0  0  0  0  0  0  0
  140.0270   69.0730  226.1680 C   0  0  0  0  0  0  0  0  0  0  0  0
  140.6240   69.4650  227.3530 C   0  0  0  0  0  0  0  0  0  0  0  0
  140.7790   68.3410  228.6910 Cl  0  0  0  0  0  0  0  0  0  0  0  0
  141.1180   70.7420  227.5320 C   0  0  0  0  0  0  0  0  0  0  0  0
  141.0030   71.6400  226.4860 C   0  0  0  0  0  0  0  0  0  0  0  0
  140.4070   71.2390  225.3070 C   0  0  0  0  0  0  0  0  0  0  0  0
  140.2930   72.1050  224.2880 N   0  0  0  0  0  0  0  0  0  0  0  0
  137.9050   73.6730  222.8240 H   0  0  0  0  0  0  0  0  0  0  0  0
  139.3692   75.2114  220.8649 H   0  0  0  0  0  0  0  0  0  0  0  0
  138.0141   74.0948  220.1372 H   0  0  0  0  0  0  0  0  0  0  0  0
  134.5768   76.0279  220.7149 H   0  0  0  0  0  0  0  0  0  0  0  0
  134.3358   75.2421  222.2367 H   0  0  0  0  0  0  0  0  0  0  0  0
  134.7684   78.2420  221.6331 H   0  0  0  0  0  0  0  0  0  0  0  0
  133.6506   77.5680  222.8038 H   0  0  0  0  0  0  0  0  0  0  0  0
  136.4203   78.3959  223.2207 H   0  0  0  0  0  0  0  0  0  0  0  0
  135.3360   77.7253  224.4437 H   0  0  0  0  0  0  0  0  0  0  0  0
  137.5614   76.1875  223.7076 H   0  0  0  0  0  0  0  0  0  0  0  0
  134.7848   72.3205  225.0490 H   0  0  0  0  0  0  0  0  0  0  0  0
  131.8404   73.8608  227.6430 H   0  0  0  0  0  0  0  0  0  0  0  0
  131.9019   73.6297  225.8305 H   0  0  0  0  0  0  0  0  0  0  0  0
  131.7093   71.8824  227.5807 H   0  0  0  0  0  0  0  0  0  0  0  0
  131.9251   70.7536  225.3080 H   0  0  0  0  0  0  0  0  0  0  0  0
  133.1929   71.6885  224.7907 H   0  0  0  0  0  0  0  0  0  0  0  0
  133.1840   69.4700  227.0713 H   0  0  0  0  0  0  0  0  0  0  0  0
  134.5295   69.6868  226.1434 H   0  0  0  0  0  0  0  0  0  0  0  0
  134.0339   71.3455  228.5225 H   0  0  0  0  0  0  0  0  0  0  0  0
  134.8749   72.1528  227.3504 H   0  0  0  0  0  0  0  0  0  0  0  0
  138.7408   70.2561  221.9019 H   0  0  0  0  0  0  0  0  0  0  0  0
  138.9269   68.5950  223.7839 H   0  0  0  0  0  0  0  0  0  0  0  0
  139.6443   68.0472  226.0621 H   0  0  0  0  0  0  0  0  0  0  0  0
  141.5902   71.0372  228.4806 H   0  0  0  0  0  0  0  0  0  0  0  0
  141.3838   72.6664  226.5929 H   0  0  0  0  0  0  0  0  0  0  0  0
  1  2  2  0
  2  3  1  0
  3  4  1  0
  4  5  1  0
  5  6  2  0
  5  7  1  0
  7  8  1  0
  8  9  1  0
  9 10  1  0
 10 11  1  0
 11 12  1  0
 12 13  2  0
 13 14  1  0
 14 15  2  0
 15 16  1  0
 16 17  1  0
 17 18  1  0
 18 19  1  0
 19 20  1  0
 20 21  1  0
 15 22  1  0
  2 23  1  0
 23 24  2  0
 24 25  1  0
 25 26  2  0
 26 27  1  0
 27 28  2  0
 28 29  1  0
 28 30  1  0
 30 31  2  0
 31 32  1  0
 32 33  2  0
 11  7  1  0
 22 12  1  0
 33 23  1  0
 21 18  1  0
 32 26  1  0
  3 34  1  0
  4 35  1  0
  4 36  1  0
  8 37  1  0
  8 38  1  0
  9 39  1  0
  9 40  1  0
 10 41  1  0
 10 42  1  0
 11 43  1  6
 14 44  1  0
 17 45  1  0
 17 46  1  0
 18 47  1  0
 19 48  1  0
 19 49  1  0
 20 50  1  0
 20 51  1  0
 21 52  1  0
 21 53  1  0
 24 54  1  0
 25 55  1  0
 27 56  1  0
 30 57  1  0
 31 58  1  0
M  END
>  <smiles>  (35) 
O=C(NCC(=O)N1CCC[C@H]1c1ncc(OCC2CCC2)o1)c1ccc2cc(Cl)ccc2n1

>  <score_type>  (35) 
oracle

>  <origin>  (35) 
autodockgpu

>  <m_score__min__energy>  (35) 
-8.2899999999999991

>  <m_primary>  (35) 
energy

>  <rmsd>  (35) 
4.628025243689519

>  <m_score__min__rmsd>  (35) 
4.628025243689519

>  <meeko>  (35) 
{"free_energy": -7.61, "intermolecular_energy": -9.99, "internal_energy": -2.08, "cluster_size": 3, "cluster_id": 6, "rank_in_cluster": 1}

>  <energy>  (35) 
-6.99

>  <cluster_rmsd>  (35) 
1.44

>  <cluster>  (35) 
6

$$$$

     RDKit          3D

 58 62  0  0  0  0  0  0  0  0999 V2000
  138.6100   71.6370  221.0530 O   0  0  0  0  0  0  0  0  0  0  0  0
  139.2610   71.9680  222.0740 C   0  0  0  0  0  0  0  0  0  0  0  0
  139.8300   73.2970  222.0330 N   0  0  0  0  0  0  0  0  0  0  0  0
  139.6910   74.1940  220.9570 C   0  0  0  0  0  0  0  0  0  0  0  0
  140.4470   75.4220  220.8670 C   0  0  0  0  0  0  0  0  0  0  0  0
  140.9350   75.8160  222.0260 O   0  0  0  0  0  0  0  0  0  0  0  0
  140.7530   76.2660  219.8010 N   0  0  0  0  0  0  0  0  0  0  0  0
  140.0510   76.8030  218.6620 C   0  0  0  0  0  0  0  0  0  0  0  0
  140.9860   76.3350  217.5370 C   0  0  0  0  0  0  0  0  0  0  0  0
  142.3580   76.3600  218.1860 C   0  0  0  0  0  0  0  0  0  0  0  0
  142.1190   76.8500  219.6220 C   0  0  1  0  0  0  0  0  0  0  0  0
  142.0730   78.3180  219.5690 C   0  0  0  0  0  0  0  0  0  0  0  0
  142.3630   79.0530  218.5000 N   0  0  0  0  0  0  0  0  0  0  0  0
  142.2040   80.3370  218.8490 C   0  0  0  0  0  0  0  0  0  0  0  0
  141.7960   80.3790  220.2060 C   0  0  0  0  0  0  0  0  0  0  0  0
  141.5600   81.5620  220.8210 O   0  0  0  0  0  0  0  0  0  0  0  0
  140.8570   81.8970  221.9550 C   0  0  0  0  0  0  0  0  0  0  0  0
  141.1660   81.0350  223.1250 C   0  0  0  0  0  0  0  0  0  0  0  0
  140.5650   79.6730  223.1250 C   0  0  0  0  0  0  0  0  0  0  0  0
  141.8260   79.2030  223.8800 C   0  0  0  0  0  0  0  0  0  0  0  0
  142.5320   80.3720  223.1610 C   0  0  0  0  0  0  0  0  0  0  0  0
  141.7470   79.1310  220.5430 O   0  0  0  0  0  0  0  0  0  0  0  0
  139.4430   71.0930  223.2240 C   0  0  0  0  0  0  0  0  0  0  0  0
  138.9710   69.8010  223.1060 C   0  0  0  0  0  0  0  0  0  0  0  0
  139.1560   68.9810  224.2210 C   0  0  0  0  0  0  0  0  0  0  0  0
  139.7750   69.4460  225.3660 C   0  0  0  0  0  0  0  0  0  0  0  0
  139.9670   68.6450  226.4820 C   0  0  0  0  0  0  0  0  0  0  0  0
  140.5910   69.1510  227.6080 C   0  0  0  0  0  0  0  0  0  0  0  0
  140.8380   68.1440  229.0230 Cl  0  0  0  0  0  0  0  0  0  0  0  0
  141.0430   70.4550  227.6660 C   0  0  0  0  0  0  0  0  0  0  0  0
  140.8560   71.2620  226.5590 C   0  0  0  0  0  0  0  0  0  0  0  0
  140.2320   70.7480  225.4390 C   0  0  0  0  0  0  0  0  0  0  0  0
  140.0480   71.5250  224.3610 N   0  0  0  0  0  0  0  0  0  0  0  0
  140.3770   73.5330  222.9200 H   0  0  0  0  0  0  0  0  0  0  0  0
  139.9299   73.6210  220.0489 H   0  0  0  0  0  0  0  0  0  0  0  0
  138.6681   74.5696  221.1075 H   0  0  0  0  0  0  0  0  0  0  0  0
  139.0433   76.3733  218.5622 H   0  0  0  0  0  0  0  0  0  0  0  0
  139.8686   77.8872  218.6957 H   0  0  0  0  0  0  0  0  0  0  0  0
  140.7256   75.3188  217.2061 H   0  0  0  0  0  0  0  0  0  0  0  0
  140.9249   76.9657  216.6378 H   0  0  0  0  0  0  0  0  0  0  0  0
  142.8000   75.3527  218.1913 H   0  0  0  0  0  0  0  0  0  0  0  0
  143.0571   77.0118  217.6416 H   0  0  0  0  0  0  0  0  0  0  0  0
  142.8443   76.5837  220.4050 H   0  0  0  0  0  0  0  0  0  0  0  0
  142.3626   81.2076  218.1957 H   0  0  0  0  0  0  0  0  0  0  0  0
  141.0967   82.9380  222.2175 H   0  0  0  0  0  0  0  0  0  0  0  0
  139.7903   81.7574  221.7253 H   0  0  0  0  0  0  0  0  0  0  0  0
  140.8842   81.7905  223.8732 H   0  0  0  0  0  0  0  0  0  0  0  0
  139.6277   79.5833  223.6937 H   0  0  0  0  0  0  0  0  0  0  0  0
  140.2255   79.1863  222.1988 H   0  0  0  0  0  0  0  0  0  0  0  0
  141.7750   79.2900  224.9754 H   0  0  0  0  0  0  0  0  0  0  0  0
  142.1947   78.1673  223.8431 H   0  0  0  0  0  0  0  0  0  0  0  0
  143.2881   80.8983  223.7621 H   0  0  0  0  0  0  0  0  0  0  0  0
  143.1435   80.2281  222.2580 H   0  0  0  0  0  0  0  0  0  0  0  0
  138.4797   69.4399  222.1905 H   0  0  0  0  0  0  0  0  0  0  0  0
  138.8008   67.9405  224.1873 H   0  0  0  0  0  0  0  0  0  0  0  0
  139.6209   67.6009  226.4715 H   0  0  0  0  0  0  0  0  0  0  0  0
  141.5386   70.8411  228.5689 H   0  0  0  0  0  0  0  0  0  0  0  0
  141.2018   72.3062  226.5701 H   0  0  0  0  0  0  0  0  0  0  0  0
  1  2  2  0
  2  3  1  0
  3  4  1  0
  4  5  1  0
  5  6  2  0
  5  7  1  0
  7  8  1  0
  8  9  1  0
  9 10  1  0
 10 11  1  0
 11 12  1  0
 12 13  2  0
 13 14  1  0
 14 15  2  0
 15 16  1  0
 16 17  1  0
 17 18  1  0
 18 19  1  0
 19 20  1  0
 20 21  1  0
 15 22  1  0
  2 23  1  0
 23 24  2  0
 24 25  1  0
 25 26  2  0
 26 27  1  0
 27 28  2  0
 28 29  1  0
 28 30  1  0
 30 31  2  0
 31 32  1  0
 32 33  2  0
 11  7  1  0
 22 12  1  0
 33 23  1  0
 21 18  1  0
 32 26  1  0
  3 34  1  0
  4 35  1  0
  4 36  1  0
  8 37  1  0
  8 38  1  0
  9 39  1  0
  9 40  1  0
 10 41  1  0
 10 42  1  0
 11 43  1  1
 14 44  1  0
 17 45  1  0
 17 46  1  0
 18 47  1  0
 19 48  1  0
 19 49  1  0
 20 50  1  0
 20 51  1  0
 21 52  1  0
 21 53  1  0
 24 54  1  0
 25 55  1  0
 27 56  1  0
 30 57  1  0
 31 58  1  0
M  END
>  <smiles>  (36) 
O=C(NCC(=O)N1CCC[C@H]1c1ncc(OCC2CCC2)o1)c1ccc2cc(Cl)ccc2n1

>  <score_type>  (36) 
oracle

>  <origin>  (36) 
autodockgpu

>  <m_score__min__energy>  (36) 
-8.2899999999999991

>  <m_primary>  (36) 
energy

>  <rmsd>  (36) 
1.7998581634664996

>  <m_score__min__rmsd>  (36) 
1.7998581634664996

>  <meeko>  (36) 
{"free_energy": -7.68, "intermolecular_energy": -10.06, "internal_energy": -2.16, "cluster_size": 14, "cluster_id": 1, "rank_in_cluster": 7}

>  <energy>  (36) 
-6.97

>  <cluster_rmsd>  (36) 
1.29

>  <cluster>  (36) 
6

$$$$

     RDKit          3D

 58 62  0  0  0  0  0  0  0  0999 V2000
  140.5630   72.2510  220.7620 O   0  0  0  0  0  0  0  0  0  0  0  0
  139.8890   72.4500  221.8020 C   0  0  0  0  0  0  0  0  0  0  0  0
  139.0970   73.6600  221.7960 N   0  0  0  0  0  0  0  0  0  0  0  0
  139.0450   74.5770  220.7290 C   0  0  0  0  0  0  0  0  0  0  0  0
  139.1090   76.0060  220.9300 C   0  0  0  0  0  0  0  0  0  0  0  0
  140.0840   76.5800  220.2530 O   0  0  0  0  0  0  0  0  0  0  0  0
  138.3500   76.8870  221.6970 N   0  0  0  0  0  0  0  0  0  0  0  0
  138.0800   77.0830  223.0990 C   0  0  0  0  0  0  0  0  0  0  0  0
  136.5460   77.0140  223.0820 C   0  0  0  0  0  0  0  0  0  0  0  0
  136.1840   77.5950  221.7270 C   0  0  0  0  0  0  0  0  0  0  0  0
  137.5220   77.9680  221.0730 C   0  0  1  0  0  0  0  0  0  0  0  0
  137.8940   79.2930  221.5880 C   0  0  0  0  0  0  0  0  0  0  0  0
  137.0690   80.1300  222.2090 N   0  0  0  0  0  0  0  0  0  0  0  0
  137.7760   81.2240  222.5220 C   0  0  0  0  0  0  0  0  0  0  0  0
  139.1050   81.0370  222.0620 C   0  0  0  0  0  0  0  0  0  0  0  0
  140.0420   81.9960  222.2480 O   0  0  0  0  0  0  0  0  0  0  0  0
  141.4030   82.0160  222.0490 C   0  0  0  0  0  0  0  0  0  0  0  0
  142.1130   80.8650  222.6630 C   0  0  0  0  0  0  0  0  0  0  0  0
  141.4780   80.2550  223.8630 C   0  0  0  0  0  0  0  0  0  0  0  0
  142.0660   78.9090  223.3910 C   0  0  0  0  0  0  0  0  0  0  0  0
  141.9800   79.5180  221.9760 C   0  0  0  0  0  0  0  0  0  0  0  0
  139.0720   79.8610  221.5230 O   0  0  0  0  0  0  0  0  0  0  0  0
  139.8910   71.5430  222.9420 C   0  0  0  0  0  0  0  0  0  0  0  0
  139.3090   70.3060  222.7560 C   0  0  0  0  0  0  0  0  0  0  0  0
  139.3230   69.4540  223.8620 C   0  0  0  0  0  0  0  0  0  0  0  0
  139.8890   69.8370  225.0630 C   0  0  0  0  0  0  0  0  0  0  0  0
  139.9120   69.0030  226.1720 C   0  0  0  0  0  0  0  0  0  0  0  0
  140.4890   69.4270  227.3550 C   0  0  0  0  0  0  0  0  0  0  0  0
  140.5220   68.3770  228.7600 Cl  0  0  0  0  0  0  0  0  0  0  0  0
  141.0580   70.6790  227.4800 C   0  0  0  0  0  0  0  0  0  0  0  0
  141.0400   71.5190  226.3810 C   0  0  0  0  0  0  0  0  0  0  0  0
  140.4620   71.0870  225.2040 C   0  0  0  0  0  0  0  0  0  0  0  0
  140.4420   71.8950  224.1330 N   0  0  0  0  0  0  0  0  0  0  0  0
  138.5440   73.7900  222.7010 H   0  0  0  0  0  0  0  0  0  0  0  0
  139.8863   74.3236  220.0672 H   0  0  0  0  0  0  0  0  0  0  0  0
  138.0139   74.4459  220.3690 H   0  0  0  0  0  0  0  0  0  0  0  0
  138.5186   76.2846  223.7156 H   0  0  0  0  0  0  0  0  0  0  0  0
  138.4995   78.0044  223.5292 H   0  0  0  0  0  0  0  0  0  0  0  0
  136.1975   75.9744  223.1706 H   0  0  0  0  0  0  0  0  0  0  0  0
  136.0820   77.5552  223.9197 H   0  0  0  0  0  0  0  0  0  0  0  0
  135.6526   76.8490  221.1179 H   0  0  0  0  0  0  0  0  0  0  0  0
  135.5173   78.4650  221.8197 H   0  0  0  0  0  0  0  0  0  0  0  0
  137.5823   78.0259  219.9762 H   0  0  0  0  0  0  0  0  0  0  0  0
  137.3928   82.1127  223.0448 H   0  0  0  0  0  0  0  0  0  0  0  0
  141.5958   82.0054  220.9661 H   0  0  0  0  0  0  0  0  0  0  0  0
  141.7856   82.9259  222.5345 H   0  0  0  0  0  0  0  0  0  0  0  0
  143.0850   81.3766  222.7215 H   0  0  0  0  0  0  0  0  0  0  0  0
  141.8696   80.6165  224.8252 H   0  0  0  0  0  0  0  0  0  0  0  0
  140.4070   80.3783  224.0815 H   0  0  0  0  0  0  0  0  0  0  0  0
  143.0844   78.6931  223.7463 H   0  0  0  0  0  0  0  0  0  0  0  0
  141.6222   77.9371  223.6526 H   0  0  0  0  0  0  0  0  0  0  0  0
  142.8113   79.2544  221.3056 H   0  0  0  0  0  0  0  0  0  0  0  0
  141.1588   79.2868  221.2816 H   0  0  0  0  0  0  0  0  0  0  0  0
  138.8617   70.0094  221.7958 H   0  0  0  0  0  0  0  0  0  0  0  0
  138.8728   68.4541  223.7753 H   0  0  0  0  0  0  0  0  0  0  0  0
  139.4684   67.9983  226.1096 H   0  0  0  0  0  0  0  0  0  0  0  0
  141.5135   70.9999  228.4284 H   0  0  0  0  0  0  0  0  0  0  0  0
  141.4830   72.5239  226.4444 H   0  0  0  0  0  0  0  0  0  0  0  0
  1  2  2  0
  2  3  1  0
  3  4  1  0
  4  5  1  0
  5  6  2  0
  5  7  1  0
  7  8  1  0
  8  9  1  0
  9 10  1  0
 10 11  1  0
 11 12  1  0
 12 13  2  0
 13 14  1  0
 14 15  2  0
 15 16  1  0
 16 17  1  0
 17 18  1  0
 18 19  1  0
 19 20  1  0
 20 21  1  0
 15 22  1  0
  2 23  1  0
 23 24  2  0
 24 25  1  0
 25 26  2  0
 26 27  1  0
 27 28  2  0
 28 29  1  0
 28 30  1  0
 30 31  2  0
 31 32  1  0
 32 33  2  0
 11  7  1  0
 22 12  1  0
 33 23  1  0
 21 18  1  0
 32 26  1  0
  3 34  1  0
  4 35  1  0
  4 36  1  0
  8 37  1  0
  8 38  1  0
  9 39  1  0
  9 40  1  0
 10 41  1  0
 10 42  1  0
 11 43  1  6
 14 44  1  0
 17 45  1  0
 17 46  1  0
 18 47  1  0
 19 48  1  0
 19 49  1  0
 20 50  1  0
 20 51  1  0
 21 52  1  0
 21 53  1  0
 24 54  1  0
 25 55  1  0
 27 56  1  0
 30 57  1  0
 31 58  1  0
M  END
>  <smiles>  (37) 
O=C(NCC(=O)N1CCC[C@H]1c1ncc(OCC2CCC2)o1)c1ccc2cc(Cl)ccc2n1

>  <score_type>  (37) 
oracle

>  <origin>  (37) 
autodockgpu

>  <m_score__min__energy>  (37) 
-8.2899999999999991

>  <m_primary>  (37) 
energy

>  <rmsd>  (37) 
3.3698236679812386

>  <m_score__min__rmsd>  (37) 
3.3698236679812386

>  <meeko>  (37) 
{"free_energy": -7.11, "intermolecular_energy": -9.5, "internal_energy": -1.84, "cluster_size": 5, "cluster_id": 2, "rank_in_cluster": 5}

>  <energy>  (37) 
-7.56

>  <cluster_rmsd>  (37) 
0.0

>  <cluster>  (37) 
7

$$$$

     RDKit          3D

 58 62  0  0  0  0  0  0  0  0999 V2000
  140.1740   74.6960  222.0240 O   0  0  0  0  0  0  0  0  0  0  0  0
  139.5340   75.6600  221.5360 C   0  0  0  0  0  0  0  0  0  0  0  0
  138.3070   75.3020  220.8590 N   0  0  0  0  0  0  0  0  0  0  0  0
  137.8190   73.9880  220.7320 C   0  0  0  0  0  0  0  0  0  0  0  0
  137.7220   73.0830  221.8530 C   0  0  0  0  0  0  0  0  0  0  0  0
  136.6040   73.2250  222.5380 O   0  0  0  0  0  0  0  0  0  0  0  0
  138.5750   72.1000  222.3500 N   0  0  0  0  0  0  0  0  0  0  0  0
  139.7940   72.0690  223.1190 C   0  0  0  0  0  0  0  0  0  0  0  0
  140.6800   71.2490  222.1700 C   0  0  0  0  0  0  0  0  0  0  0  0
  139.6970   70.3100  221.4950 C   0  0  0  0  0  0  0  0  0  0  0  0
  138.3300   70.6430  222.1100 C   0  0  1  0  0  0  0  0  0  0  0  0
  138.2360   69.8990  223.3730 C   0  0  0  0  0  0  0  0  0  0  0  0
  137.2980   70.0780  224.2970 N   0  0  0  0  0  0  0  0  0  0  0  0
  137.5530   69.2190  225.2930 C   0  0  0  0  0  0  0  0  0  0  0  0
  138.7130   68.4780  224.9500 C   0  0  0  0  0  0  0  0  0  0  0  0
  139.2000   67.5300  225.7840 O   0  0  0  0  0  0  0  0  0  0  0  0
  140.3970   67.4020  226.4490 C   0  0  0  0  0  0  0  0  0  0  0  0
  140.7490   68.5850  227.2760 C   0  0  0  0  0  0  0  0  0  0  0  0
  141.0590   69.8410  226.5410 C   0  0  0  0  0  0  0  0  0  0  0  0
  140.4580   70.5990  227.7430 C   0  0  0  0  0  0  0  0  0  0  0  0
  139.6100   69.3270  227.9520 C   0  0  0  0  0  0  0  0  0  0  0  0
  139.0420   68.9560  223.7930 O   0  0  0  0  0  0  0  0  0  0  0  0
  139.9770   77.0440  221.6340 C   0  0  0  0  0  0  0  0  0  0  0  0
  141.0300   77.3040  222.4880 C   0  0  0  0  0  0  0  0  0  0  0  0
  141.4370   78.6370  222.5650 C   0  0  0  0  0  0  0  0  0  0  0  0
  140.8160   79.6270  221.8260 C   0  0  0  0  0  0  0  0  0  0  0  0
  141.2080   80.9560  221.8910 C   0  0  0  0  0  0  0  0  0  0  0  0
  140.5590   81.9150  221.1350 C   0  0  0  0  0  0  0  0  0  0  0  0
  141.0500   83.5980  221.2110 Cl  0  0  0  0  0  0  0  0  0  0  0  0
  139.5100   81.5940  220.2960 C   0  0  0  0  0  0  0  0  0  0  0  0
  139.1110   80.2710  220.2240 C   0  0  0  0  0  0  0  0  0  0  0  0
  139.7650   79.3210  220.9830 C   0  0  0  0  0  0  0  0  0  0  0  0
  139.3840   78.0360  220.9180 N   0  0  0  0  0  0  0  0  0  0  0  0
  137.7990   76.1520  220.4590 H   0  0  0  0  0  0  0  0  0  0  0  0
  136.8015   74.0785  220.3240 H   0  0  0  0  0  0  0  0  0  0  0  0
  138.6061   73.5135  220.1276 H   0  0  0  0  0  0  0  0  0  0  0  0
  140.1981   73.0783  223.2863 H   0  0  0  0  0  0  0  0  0  0  0  0
  139.6937   71.6575  224.1342 H   0  0  0  0  0  0  0  0  0  0  0  0
  141.1736   71.8988  221.4324 H   0  0  0  0  0  0  0  0  0  0  0  0
  141.4918   70.7195  222.6903 H   0  0  0  0  0  0  0  0  0  0  0  0
  139.6831   70.4828  220.4087 H   0  0  0  0  0  0  0  0  0  0  0  0
  139.9684   69.2548  221.6462 H   0  0  0  0  0  0  0  0  0  0  0  0
  137.4183   70.4127  221.5393 H   0  0  0  0  0  0  0  0  0  0  0  0
  136.9652   69.1077  226.2161 H   0  0  0  0  0  0  0  0  0  0  0  0
  140.3363   66.5232  227.1077 H   0  0  0  0  0  0  0  0  0  0  0  0
  141.1808   67.2991  225.6841 H   0  0  0  0  0  0  0  0  0  0  0  0
  141.5119   68.0593  227.8690 H   0  0  0  0  0  0  0  0  0  0  0  0
  142.1305   70.0226  226.3712 H   0  0  0  0  0  0  0  0  0  0  0  0
  140.7127   70.0138  225.5113 H   0  0  0  0  0  0  0  0  0  0  0  0
  141.1659   70.8277  228.5533 H   0  0  0  0  0  0  0  0  0  0  0  0
  140.0193   71.6042  227.6586 H   0  0  0  0  0  0  0  0  0  0  0  0
  139.4357   69.0524  229.0028 H   0  0  0  0  0  0  0  0  0  0  0  0
  138.5675   69.2484  227.6099 H   0  0  0  0  0  0  0  0  0  0  0  0
  141.5182   76.5097  223.0718 H   0  0  0  0  0  0  0  0  0  0  0  0
  142.2714   78.9062  223.2293 H   0  0  0  0  0  0  0  0  0  0  0  0
  142.0402   81.2489  222.5480 H   0  0  0  0  0  0  0  0  0  0  0  0
  139.0052   82.3693  219.7009 H   0  0  0  0  0  0  0  0  0  0  0  0
  138.2788   79.9783  219.5669 H   0  0  0  0  0  0  0  0  0  0  0  0
  1  2  2  0
  2  3  1  0
  3  4  1  0
  4  5  1  0
  5  6  2  0
  5  7  1  0
  7  8  1  0
  8  9  1  0
  9 10  1  0
 10 11  1  0
 11 12  1  0
 12 13  2  0
 13 14  1  0
 14 15  2  0
 15 16  1  0
 16 17  1  0
 17 18  1  0
 18 19  1  0
 19 20  1  0
 20 21  1  0
 15 22  1  0
  2 23  1  0
 23 24  2  0
 24 25  1  0
 25 26  2  0
 26 27  1  0
 27 28  2  0
 28 29  1  0
 28 30  1  0
 30 31  2  0
 31 32  1  0
 32 33  2  0
 11  7  1  0
 22 12  1  0
 33 23  1  0
 21 18  1  0
 32 26  1  0
  3 34  1  0
  4 35  1  0
  4 36  1  0
  8 37  1  0
  8 38  1  0
  9 39  1  0
  9 40  1  0
 10 41  1  0
 10 42  1  0
 11 43  1  6
 14 44  1  0
 17 45  1  0
 17 46  1  0
 18 47  1  0
 19 48  1  0
 19 49  1  0
 20 50  1  0
 20 51  1  0
 21 52  1  0
 21 53  1  0
 24 54  1  0
 25 55  1  0
 27 56  1  0
 30 57  1  0
 31 58  1  0
M  END
>  <smiles>  (38) 
O=C(NCC(=O)N1CCC[C@H]1c1ncc(OCC2CCC2)o1)c1ccc2cc(Cl)ccc2n1

>  <score_type>  (38) 
oracle

>  <origin>  (38) 
autodockgpu

>  <m_score__min__energy>  (38) 
-8.2899999999999991

>  <m_primary>  (38) 
energy

>  <rmsd>  (38) 
8.820314360550014

>  <m_score__min__rmsd>  (38) 
8.820314360550014

>  <meeko>  (38) 
{"free_energy": -6.83, "intermolecular_energy": -9.21, "internal_energy": -2.14, "cluster_size": 1, "cluster_id": 12, "rank_in_cluster": 1}

>  <energy>  (38) 
-7.42

>  <cluster_rmsd>  (38) 
0.42

>  <cluster>  (38) 
7

$$$$

     RDKit          3D

 58 62  0  0  0  0  0  0  0  0999 V2000
  137.7300   72.6040  221.6120 O   0  0  0  0  0  0  0  0  0  0  0  0
  138.7630   71.8990  221.7230 C   0  0  0  0  0  0  0  0  0  0  0  0
  139.6540   71.9330  220.5850 N   0  0  0  0  0  0  0  0  0  0  0  0
  139.4300   72.6860  219.4160 C   0  0  0  0  0  0  0  0  0  0  0  0
  139.0940   74.0900  219.4500 C   0  0  0  0  0  0  0  0  0  0  0  0
  138.1150   74.4070  218.6270 O   0  0  0  0  0  0  0  0  0  0  0  0
  139.6030   75.1660  220.1750 N   0  0  0  0  0  0  0  0  0  0  0  0
  140.2620   76.4110  219.8680 C   0  0  0  0  0  0  0  0  0  0  0  0
  141.5290   76.2510  220.7200 C   0  0  0  0  0  0  0  0  0  0  0  0
  141.0520   75.4400  221.9120 C   0  0  0  0  0  0  0  0  0  0  0  0
  139.5540   75.2070  221.6700 C   0  0  1  0  0  0  0  0  0  0  0  0
  138.8520   76.4040  222.1520 C   0  0  0  0  0  0  0  0  0  0  0  0
  137.5320   76.5290  222.2440 N   0  0  0  0  0  0  0  0  0  0  0  0
  137.2830   77.7570  222.7210 C   0  0  0  0  0  0  0  0  0  0  0  0
  138.5250   78.4090  222.9280 C   0  0  0  0  0  0  0  0  0  0  0  0
  138.5700   79.6740  223.4110 O   0  0  0  0  0  0  0  0  0  0  0  0
  139.6050   80.4640  223.8540 C   0  0  0  0  0  0  0  0  0  0  0  0
  140.8760   80.2500  223.1160 C   0  0  0  0  0  0  0  0  0  0  0  0
  141.9710   81.2220  223.3840 C   0  0  0  0  0  0  0  0  0  0  0  0
  142.9550   80.0580  223.1410 C   0  0  0  0  0  0  0  0  0  0  0  0
  141.7990   79.1550  223.6200 C   0  0  0  0  0  0  0  0  0  0  0  0
  139.3930   77.5240  222.5610 O   0  0  0  0  0  0  0  0  0  0  0  0
  139.0600   71.0980  222.9030 C   0  0  0  0  0  0  0  0  0  0  0  0
  138.5730   69.8070  222.9210 C   0  0  0  0  0  0  0  0  0  0  0  0
  138.8700   69.0590  224.0620 C   0  0  0  0  0  0  0  0  0  0  0  0
  139.6080   69.5900  225.1030 C   0  0  0  0  0  0  0  0  0  0  0  0
  139.9120   68.8620  226.2430 C   0  0  0  0  0  0  0  0  0  0  0  0
  140.6530   69.4320  227.2620 C   0  0  0  0  0  0  0  0  0  0  0  0
  141.0420   68.5160  228.7070 Cl  0  0  0  0  0  0  0  0  0  0  0  0
  141.1140   70.7320  227.1870 C   0  0  0  0  0  0  0  0  0  0  0  0
  140.8160   71.4680  226.0550 C   0  0  0  0  0  0  0  0  0  0  0  0
  140.0760   70.8890  225.0420 C   0  0  0  0  0  0  0  0  0  0  0  0
  139.7830   71.5970  223.9410 N   0  0  0  0  0  0  0  0  0  0  0  0
  140.5160   71.3170  220.7230 H   0  0  0  0  0  0  0  0  0  0  0  0
  140.3513   72.6067  218.8203 H   0  0  0  0  0  0  0  0  0  0  0  0
  138.4989   72.2405  219.0357 H   0  0  0  0  0  0  0  0  0  0  0  0
  140.4971   76.4965  218.7968 H   0  0  0  0  0  0  0  0  0  0  0  0
  139.6710   77.3149  220.0771 H   0  0  0  0  0  0  0  0  0  0  0  0
  142.3110   75.7121  220.1650 H   0  0  0  0  0  0  0  0  0  0  0  0
  141.9774   77.2135  221.0074 H   0  0  0  0  0  0  0  0  0  0  0  0
  141.5876   74.4807  221.9645 H   0  0  0  0  0  0  0  0  0  0  0  0
  141.2377   75.9606  222.8630 H   0  0  0  0  0  0  0  0  0  0  0  0
  139.0654   74.3422  222.1427 H   0  0  0  0  0  0  0  0  0  0  0  0
  136.2886   78.1842  222.9175 H   0  0  0  0  0  0  0  0  0  0  0  0
  139.3107   81.5179  223.7410 H   0  0  0  0  0  0  0  0  0  0  0  0
  139.7920   80.1913  224.9031 H   0  0  0  0  0  0  0  0  0  0  0  0
  140.3983   80.1757  222.1279 H   0  0  0  0  0  0  0  0  0  0  0  0
  142.0436   82.0456  222.6584 H   0  0  0  0  0  0  0  0  0  0  0  0
  142.0005   81.8280  224.3016 H   0  0  0  0  0  0  0  0  0  0  0  0
  143.2587   79.9131  222.0937 H   0  0  0  0  0  0  0  0  0  0  0  0
  143.9629   80.0242  223.5804 H   0  0  0  0  0  0  0  0  0  0  0  0
  141.7110   78.1939  223.0922 H   0  0  0  0  0  0  0  0  0  0  0  0
  141.7431   78.7598  224.6450 H   0  0  0  0  0  0  0  0  0  0  0  0
  137.9868   69.3926  222.0876 H   0  0  0  0  0  0  0  0  0  0  0  0
  138.5081   68.0227  224.1341 H   0  0  0  0  0  0  0  0  0  0  0  0
  139.5613   67.8237  226.3376 H   0  0  0  0  0  0  0  0  0  0  0  0
  141.7027   71.1702  228.0063 H   0  0  0  0  0  0  0  0  0  0  0  0
  141.1655   72.5068  225.9616 H   0  0  0  0  0  0  0  0  0  0  0  0
  1  2  2  0
  2  3  1  0
  3  4  1  0
  4  5  1  0
  5  6  2  0
  5  7  1  0
  7  8  1  0
  8  9  1  0
  9 10  1  0
 10 11  1  0
 11 12  1  0
 12 13  2  0
 13 14  1  0
 14 15  2  0
 15 16  1  0
 16 17  1  0
 17 18  1  0
 18 19  1  0
 19 20  1  0
 20 21  1  0
 15 22  1  0
  2 23  1  0
 23 24  2  0
 24 25  1  0
 25 26  2  0
 26 27  1  0
 27 28  2  0
 28 29  1  0
 28 30  1  0
 30 31  2  0
 31 32  1  0
 32 33  2  0
 11  7  1  0
 22 12  1  0
 33 23  1  0
 21 18  1  0
 32 26  1  0
  3 34  1  0
  4 35  1  0
  4 36  1  0
  8 37  1  0
  8 38  1  0
  9 39  1  0
  9 40  1  0
 10 41  1  0
 10 42  1  0
 11 43  1  1
 14 44  1  0
 17 45  1  0
 17 46  1  0
 18 47  1  0
 19 48  1  0
 19 49  1  0
 20 50  1  0
 20 51  1  0
 21 52  1  0
 21 53  1  0
 24 54  1  0
 25 55  1  0
 27 56  1  0
 30 57  1  0
 31 58  1  0
M  END
>  <smiles>  (39) 
O=C(NCC(=O)N1CCC[C@H]1c1ncc(OCC2CCC2)o1)c1ccc2cc(Cl)ccc2n1

>  <score_type>  (39) 
oracle

>  <origin>  (39) 
autodockgpu

>  <m_score__min__energy>  (39) 
-8.2899999999999991

>  <m_primary>  (39) 
energy

>  <rmsd>  (39) 
2.643876476861673

>  <m_score__min__rmsd>  (39) 
2.643876476861673

>  <meeko>  (39) 
{"free_energy": -7.08, "intermolecular_energy": -9.46, "internal_energy": -2.11, "cluster_size": 4, "cluster_id": 7, "rank_in_cluster": 3}

>  <energy>  (39) 
-7.08

>  <cluster_rmsd>  (39) 
1.45

>  <cluster>  (39) 
7

$$$$

     RDKit          3D

 58 62  0  0  0  0  0  0  0  0999 V2000
  138.4830   71.6230  221.1770 O   0  0  0  0  0  0  0  0  0  0  0  0
  139.3090   71.8610  222.0920 C   0  0  0  0  0  0  0  0  0  0  0  0
  140.0950   73.0610  221.9120 N   0  0  0  0  0  0  0  0  0  0  0  0
  139.9810   73.9350  220.8140 C   0  0  0  0  0  0  0  0  0  0  0  0
  140.8670   75.0580  220.6200 C   0  0  0  0  0  0  0  0  0  0  0  0
  141.3930   75.5030  221.7440 O   0  0  0  0  0  0  0  0  0  0  0  0
  141.2670   75.7600  219.4840 N   0  0  0  0  0  0  0  0  0  0  0  0
  140.7110   76.0450  218.1850 C   0  0  0  0  0  0  0  0  0  0  0  0
  141.8430   75.5130  217.2950 C   0  0  0  0  0  0  0  0  0  0  0  0
  143.0910   75.7760  218.1180 C   0  0  0  0  0  0  0  0  0  0  0  0
  142.5940   76.4490  219.4060 C   0  0  1  0  0  0  0  0  0  0  0  0
  142.4390   77.8790  219.1080 C   0  0  0  0  0  0  0  0  0  0  0  0
  142.8690   78.4800  218.0030 N   0  0  0  0  0  0  0  0  0  0  0  0
  142.5420   79.7750  218.1040 C   0  0  0  0  0  0  0  0  0  0  0  0
  141.8770   79.9680  219.3420 C   0  0  0  0  0  0  0  0  0  0  0  0
  141.4320   81.1940  219.7050 O   0  0  0  0  0  0  0  0  0  0  0  0
  141.0910   81.7360  220.9220 C   0  0  0  0  0  0  0  0  0  0  0  0
  141.9980   81.3360  222.0280 C   0  0  0  0  0  0  0  0  0  0  0  0
  141.5130   81.5910  223.4110 C   0  0  0  0  0  0  0  0  0  0  0  0
  142.2920   80.3280  223.8330 C   0  0  0  0  0  0  0  0  0  0  0  0
  142.0590   79.8610  222.3800 C   0  0  0  0  0  0  0  0  0  0  0  0
  141.8660   78.7830  219.8620 O   0  0  0  0  0  0  0  0  0  0  0  0
  139.4780   71.0030  223.2580 C   0  0  0  0  0  0  0  0  0  0  0  0
  138.9860   69.7170  223.1640 C   0  0  0  0  0  0  0  0  0  0  0  0
  139.1590   68.9140  224.2920 C   0  0  0  0  0  0  0  0  0  0  0  0
  139.7880   69.3900  225.4280 C   0  0  0  0  0  0  0  0  0  0  0  0
  139.9680   68.6050  226.5580 C   0  0  0  0  0  0  0  0  0  0  0  0
  140.6030   69.1210  227.6740 C   0  0  0  0  0  0  0  0  0  0  0  0
  140.8350   68.1350  229.1060 Cl  0  0  0  0  0  0  0  0  0  0  0  0
  141.0750   70.4180  227.7090 C   0  0  0  0  0  0  0  0  0  0  0  0
  140.9000   71.2090  226.5870 C   0  0  0  0  0  0  0  0  0  0  0  0
  140.2660   70.6850  225.4780 C   0  0  0  0  0  0  0  0  0  0  0  0
  140.0930   71.4460  224.3860 N   0  0  0  0  0  0  0  0  0  0  0  0
  140.7850   73.2200  222.7120 H   0  0  0  0  0  0  0  0  0  0  0  0
  140.0795   73.3095  219.9145 H   0  0  0  0  0  0  0  0  0  0  0  0
  139.0248   74.4365  221.0240 H   0  0  0  0  0  0  0  0  0  0  0  0
  139.7685   75.5038  218.0156 H   0  0  0  0  0  0  0  0  0  0  0  0
  140.4405   77.0976  218.0150 H   0  0  0  0  0  0  0  0  0  0  0  0
  141.7188   74.4374  217.1012 H   0  0  0  0  0  0  0  0  0  0  0  0
  141.8724   75.9923  216.3053 H   0  0  0  0  0  0  0  0  0  0  0  0
  143.6051   74.8317  218.3505 H   0  0  0  0  0  0  0  0  0  0  0  0
  143.8123   76.4070  217.5781 H   0  0  0  0  0  0  0  0  0  0  0  0
  143.2084   76.3799  220.3158 H   0  0  0  0  0  0  0  0  0  0  0  0
  142.7527   80.5539  217.3564 H   0  0  0  0  0  0  0  0  0  0  0  0
  141.1141   82.8321  220.8329 H   0  0  0  0  0  0  0  0  0  0  0  0
  140.0896   81.3569  221.1739 H   0  0  0  0  0  0  0  0  0  0  0  0
  142.8766   81.8566  221.6194 H   0  0  0  0  0  0  0  0  0  0  0  0
  141.8756   82.5271  223.8607 H   0  0  0  0  0  0  0  0  0  0  0  0
  140.4445   81.7190  223.6387 H   0  0  0  0  0  0  0  0  0  0  0  0
  143.3438   80.4968  224.1074 H   0  0  0  0  0  0  0  0  0  0  0  0
  142.0196   79.7206  224.7087 H   0  0  0  0  0  0  0  0  0  0  0  0
  142.8976   79.3102  221.9291 H   0  0  0  0  0  0  0  0  0  0  0  0
  141.2615   79.1544  222.1067 H   0  0  0  0  0  0  0  0  0  0  0  0
  138.4879   69.3476  222.2554 H   0  0  0  0  0  0  0  0  0  0  0  0
  138.7867   67.8790  224.2774 H   0  0  0  0  0  0  0  0  0  0  0  0
  139.6040   67.5670  226.5667 H   0  0  0  0  0  0  0  0  0  0  0  0
  141.5769   70.8122  228.6050 H   0  0  0  0  0  0  0  0  0  0  0  0
  141.2632   72.2473  226.5788 H   0  0  0  0  0  0  0  0  0  0  0  0
  1  2  2  0
  2  3  1  0
  3  4  1  0
  4  5  1  0
  5  6  2  0
  5  7  1  0
  7  8  1  0
  8  9  1  0
  9 10  1  0
 10 11  1  0
 11 12  1  0
 12 13  2  0
 13 14  1  0
 14 15  2  0
 15 16  1  0
 16 17  1  0
 17 18  1  0
 18 19  1  0
 19 20  1  0
 20 21  1  0
 15 22  1  0
  2 23  1  0
 23 24  2  0
 24 25  1  0
 25 26  2  0
 26 27  1  0
 27 28  2  0
 28 29  1  0
 28 30  1  0
 30 31  2  0
 31 32  1  0
 32 33  2  0
 11  7  1  0
 22 12  1  0
 33 23  1  0
 21 18  1  0
 32 26  1  0
  3 34  1  0
  4 35  1  0
  4 36  1  0
  8 37  1  0
  8 38  1  0
  9 39  1  0
  9 40  1  0
 10 41  1  0
 10 42  1  0
 11 43  1  1
 14 44  1  0
 17 45  1  0
 17 46  1  0
 18 47  1  0
 19 48  1  0
 19 49  1  0
 20 50  1  0
 20 51  1  0
 21 52  1  0
 21 53  1  0
 24 54  1  0
 25 55  1  0
 27 56  1  0
 30 57  1  0
 31 58  1  0
M  END
>  <smiles>  (40) 
O=C(NCC(=O)N1CCC[C@H]1c1ncc(OCC2CCC2)o1)c1ccc2cc(Cl)ccc2n1

>  <score_type>  (40) 
oracle

>  <origin>  (40) 
autodockgpu

>  <m_score__min__energy>  (40) 
-8.2899999999999991

>  <m_primary>  (40) 
energy

>  <rmsd>  (40) 
2.1096781717650543

>  <m_score__min__rmsd>  (40) 
2.1096781717650543

>  <meeko>  (40) 
{"free_energy": -7.34, "intermolecular_energy": -9.73, "internal_energy": -1.86, "cluster_size": 14, "cluster_id": 1, "rank_in_cluster": 10}

>  <energy>  (40) 
-6.95

>  <cluster_rmsd>  (40) 
0.86

>  <cluster>  (40) 
7

$$$$

     RDKit          3D

 58 62  0  0  0  0  0  0  0  0999 V2000
  140.8390   72.7750  220.9660 O   0  0  0  0  0  0  0  0  0  0  0  0
  140.2280   72.9680  222.0460 C   0  0  0  0  0  0  0  0  0  0  0  0
  139.5800   74.2560  222.1610 N   0  0  0  0  0  0  0  0  0  0  0  0
  139.5970   75.2520  221.1670 C   0  0  0  0  0  0  0  0  0  0  0  0
  140.6070   76.2840  221.1180 C   0  0  0  0  0  0  0  0  0  0  0  0
  141.8270   75.8070  220.9790 O   0  0  0  0  0  0  0  0  0  0  0  0
  140.5410   77.6740  221.1940 N   0  0  0  0  0  0  0  0  0  0  0  0
  140.0790   78.7430  220.3450 C   0  0  0  0  0  0  0  0  0  0  0  0
  141.3560   79.5920  220.2780 C   0  0  0  0  0  0  0  0  0  0  0  0
  141.9990   79.3680  221.6350 C   0  0  0  0  0  0  0  0  0  0  0  0
  141.0460   78.4260  222.3850 C   0  0  1  0  0  0  0  0  0  0  0  0
  139.9950   79.2650  222.9760 C   0  0  0  0  0  0  0  0  0  0  0  0
  140.2020   80.2510  223.8430 N   0  0  0  0  0  0  0  0  0  0  0  0
  139.0040   80.7700  224.1460 C   0  0  0  0  0  0  0  0  0  0  0  0
  138.0180   80.0560  223.4200 C   0  0  0  0  0  0  0  0  0  0  0  0
  136.7070   80.3740  223.5360 O   0  0  0  0  0  0  0  0  0  0  0  0
  135.8050   80.2380  224.5660 C   0  0  0  0  0  0  0  0  0  0  0  0
  135.6970   81.4440  225.4270 C   0  0  0  0  0  0  0  0  0  0  0  0
  136.5570   81.4730  226.6410 C   0  0  0  0  0  0  0  0  0  0  0  0
  136.6280   83.0040  226.4570 C   0  0  0  0  0  0  0  0  0  0  0  0
  136.4090   82.7010  224.9590 C   0  0  0  0  0  0  0  0  0  0  0  0
  138.7060   79.1840  222.7560 O   0  0  0  0  0  0  0  0  0  0  0  0
  140.1650   71.9820  223.1150 C   0  0  0  0  0  0  0  0  0  0  0  0
  139.6070   70.7580  222.8050 C   0  0  0  0  0  0  0  0  0  0  0  0
  139.5580   69.8290  223.8450 C   0  0  0  0  0  0  0  0  0  0  0  0
  140.0420   70.1280  225.1050 C   0  0  0  0  0  0  0  0  0  0  0  0
  140.0010   69.2170  226.1500 C   0  0  0  0  0  0  0  0  0  0  0  0
  140.4970   69.5570  227.3960 C   0  0  0  0  0  0  0  0  0  0  0  0
  140.4480   68.4090  228.7220 Cl  0  0  0  0  0  0  0  0  0  0  0  0
  141.0450   70.8000  227.6470 C   0  0  0  0  0  0  0  0  0  0  0  0
  141.0910   71.7160  226.6120 C   0  0  0  0  0  0  0  0  0  0  0  0
  140.5940   71.3670  225.3710 C   0  0  0  0  0  0  0  0  0  0  0  0
  140.6350   72.2500  224.3620 N   0  0  0  0  0  0  0  0  0  0  0  0
  139.0760   74.3770  223.0960 H   0  0  0  0  0  0  0  0  0  0  0  0
  139.6551   74.7221  220.2048 H   0  0  0  0  0  0  0  0  0  0  0  0
  138.6951   75.8314  221.4136 H   0  0  0  0  0  0  0  0  0  0  0  0
  139.7786   78.3766  219.3523 H   0  0  0  0  0  0  0  0  0  0  0  0
  139.1858   79.2729  220.7076 H   0  0  0  0  0  0  0  0  0  0  0  0
  142.0158   79.2474  219.4681 H   0  0  0  0  0  0  0  0  0  0  0  0
  141.1558   80.6530  220.0675 H   0  0  0  0  0  0  0  0  0  0  0  0
  142.9891   78.9027  221.5200 H   0  0  0  0  0  0  0  0  0  0  0  0
  142.1521   80.3129  222.1770 H   0  0  0  0  0  0  0  0  0  0  0  0
  141.4437   77.7986  223.1963 H   0  0  0  0  0  0  0  0  0  0  0  0
  138.8183   81.6048  224.8378 H   0  0  0  0  0  0  0  0  0  0  0  0
  134.8147   80.0287  224.1353 H   0  0  0  0  0  0  0  0  0  0  0  0
  136.1662   79.4181  225.2042 H   0  0  0  0  0  0  0  0  0  0  0  0
  134.5998   81.4092  225.4974 H   0  0  0  0  0  0  0  0  0  0  0  0
  136.0602   81.1429  227.5652 H   0  0  0  0  0  0  0  0  0  0  0  0
  137.4623   80.8543  226.7283 H   0  0  0  0  0  0  0  0  0  0  0  0
  135.8204   83.5715  226.9425 H   0  0  0  0  0  0  0  0  0  0  0  0
  137.4646   83.6138  226.8287 H   0  0  0  0  0  0  0  0  0  0  0  0
  135.7734   83.4241  224.4269 H   0  0  0  0  0  0  0  0  0  0  0  0
  137.2353   82.6774  224.2333 H   0  0  0  0  0  0  0  0  0  0  0  0
  139.2243   70.5290  221.7994 H   0  0  0  0  0  0  0  0  0  0  0  0
  139.1242   68.8356  223.6580 H   0  0  0  0  0  0  0  0  0  0  0  0
  139.5713   68.2176  225.9871 H   0  0  0  0  0  0  0  0  0  0  0  0
  141.4345   71.0544  228.6438 H   0  0  0  0  0  0  0  0  0  0  0  0
  141.5203   72.7155  226.7756 H   0  0  0  0  0  0  0  0  0  0  0  0
  1  2  2  0
  2  3  1  0
  3  4  1  0
  4  5  1  0
  5  6  2  0
  5  7  1  0
  7  8  1  0
  8  9  1  0
  9 10  1  0
 10 11  1  0
 11 12  1  0
 12 13  2  0
 13 14  1  0
 14 15  2  0
 15 16  1  0
 16 17  1  0
 17 18  1  0
 18 19  1  0
 19 20  1  0
 20 21  1  0
 15 22  1  0
  2 23  1  0
 23 24  2  0
 24 25  1  0
 25 26  2  0
 26 27  1  0
 27 28  2  0
 28 29  1  0
 28 30  1  0
 30 31  2  0
 31 32  1  0
 32 33  2  0
 11  7  1  0
 22 12  1  0
 33 23  1  0
 21 18  1  0
 32 26  1  0
  3 34  1  0
  4 35  1  0
  4 36  1  0
  8 37  1  0
  8 38  1  0
  9 39  1  0
  9 40  1  0
 10 41  1  0
 10 42  1  0
 11 43  1  1
 14 44  1  0
 17 45  1  0
 17 46  1  0
 18 47  1  0
 19 48  1  0
 19 49  1  0
 20 50  1  0
 20 51  1  0
 21 52  1  0
 21 53  1  0
 24 54  1  0
 25 55  1  0
 27 56  1  0
 30 57  1  0
 31 58  1  0
M  END
>  <smiles>  (41) 
O=C(NCC(=O)N1CCC[C@H]1c1ncc(OCC2CCC2)o1)c1ccc2cc(Cl)ccc2n1

>  <score_type>  (41) 
oracle

>  <origin>  (41) 
autodockgpu

>  <m_score__min__energy>  (41) 
-8.2899999999999991

>  <m_primary>  (41) 
energy

>  <rmsd>  (41) 
2.7685709120814406

>  <m_score__min__rmsd>  (41) 
2.7685709120814406

>  <meeko>  (41) 
{"free_energy": -7.85, "intermolecular_energy": -10.23, "internal_energy": -1.49, "cluster_size": 5, "cluster_id": 2, "rank_in_cluster": 2}

>  <energy>  (41) 
-7.48

>  <cluster_rmsd>  (41) 
0.0

>  <cluster>  (41) 
8

$$$$

     RDKit          3D

 58 62  0  0  0  0  0  0  0  0999 V2000
  141.1680   76.9910  217.9380 O   0  0  0  0  0  0  0  0  0  0  0  0
  142.0280   77.8970  217.8130 C   0  0  0  0  0  0  0  0  0  0  0  0
  143.2570   77.4910  217.1660 N   0  0  0  0  0  0  0  0  0  0  0  0
  143.5190   76.1920  216.6910 C   0  0  0  0  0  0  0  0  0  0  0  0
  143.4690   75.0270  217.5440 C   0  0  0  0  0  0  0  0  0  0  0  0
  143.5670   73.8940  216.8790 O   0  0  0  0  0  0  0  0  0  0  0  0
  143.3330   74.8720  218.9220 N   0  0  0  0  0  0  0  0  0  0  0  0
  144.1250   75.1720  220.0880 C   0  0  0  0  0  0  0  0  0  0  0  0
  144.1830   73.7770  220.7290 C   0  0  0  0  0  0  0  0  0  0  0  0
  142.8510   73.1590  220.3450 C   0  0  0  0  0  0  0  0  0  0  0  0
  142.1210   74.2380  219.5320 C   0  0  1  0  0  0  0  0  0  0  0  0
  141.4730   75.1350  220.4970 C   0  0  0  0  0  0  0  0  0  0  0  0
  140.8090   74.7410  221.5790 N   0  0  0  0  0  0  0  0  0  0  0  0
  140.3690   75.8450  222.1980 C   0  0  0  0  0  0  0  0  0  0  0  0
  140.7920   76.9710  221.4450 C   0  0  0  0  0  0  0  0  0  0  0  0
  140.4830   78.2260  221.8460 O   0  0  0  0  0  0  0  0  0  0  0  0
  140.2580   78.7780  223.0860 C   0  0  0  0  0  0  0  0  0  0  0  0
  141.4570   79.4270  223.6760 C   0  0  0  0  0  0  0  0  0  0  0  0
  142.6560   79.5300  222.8010 C   0  0  0  0  0  0  0  0  0  0  0  0
  142.9810   80.8470  223.5360 C   0  0  0  0  0  0  0  0  0  0  0  0
  141.4570   80.9430  223.7620 C   0  0  0  0  0  0  0  0  0  0  0  0
  141.4390   76.4440  220.4570 O   0  0  0  0  0  0  0  0  0  0  0  0
  141.8240   79.2620  218.2770 C   0  0  0  0  0  0  0  0  0  0  0  0
  142.5730   80.2480  217.6670 C   0  0  0  0  0  0  0  0  0  0  0  0
  142.3600   81.5480  218.1290 C   0  0  0  0  0  0  0  0  0  0  0  0
  141.4510   81.8190  219.1350 C   0  0  0  0  0  0  0  0  0  0  0  0
  141.2270   83.1050  219.6050 C   0  0  0  0  0  0  0  0  0  0  0  0
  140.3090   83.3310  220.6150 C   0  0  0  0  0  0  0  0  0  0  0  0
  140.0210   84.9540  221.2140 Cl  0  0  0  0  0  0  0  0  0  0  0  0
  139.5880   82.3010  221.1870 C   0  0  0  0  0  0  0  0  0  0  0  0
  139.8040   81.0150  220.7260 C   0  0  0  0  0  0  0  0  0  0  0  0
  140.7220   80.7990  219.7170 C   0  0  0  0  0  0  0  0  0  0  0  0
  140.9370   79.5550  219.2640 N   0  0  0  0  0  0  0  0  0  0  0  0
  143.9580   78.2920  217.0840 H   0  0  0  0  0  0  0  0  0  0  0  0
  142.7942   76.0104  215.8837 H   0  0  0  0  0  0  0  0  0  0  0  0
  144.5916   76.2514  216.4545 H   0  0  0  0  0  0  0  0  0  0  0  0
  145.1258   75.5408  219.8191 H   0  0  0  0  0  0  0  0  0  0  0  0
  143.7207   75.9651  220.7342 H   0  0  0  0  0  0  0  0  0  0  0  0
  145.0207   73.1913  220.3224 H   0  0  0  0  0  0  0  0  0  0  0  0
  144.3439   73.8101  221.8167 H   0  0  0  0  0  0  0  0  0  0  0  0
  143.0067   72.2569  219.7351 H   0  0  0  0  0  0  0  0  0  0  0  0
  142.2727   72.8509  221.2286 H   0  0  0  0  0  0  0  0  0  0  0  0
  141.3449   73.9328  218.8147 H   0  0  0  0  0  0  0  0  0  0  0  0
  139.7821   75.8735  223.1279 H   0  0  0  0  0  0  0  0  0  0  0  0
  139.4649   79.5342  222.9910 H   0  0  0  0  0  0  0  0  0  0  0  0
  139.9739   77.9549  223.7581 H   0  0  0  0  0  0  0  0  0  0  0  0
  141.4582   78.8089  224.5859 H   0  0  0  0  0  0  0  0  0  0  0  0
  143.3978   78.7298  222.9403 H   0  0  0  0  0  0  0  0  0  0  0  0
  142.5831   79.4776  221.7047 H   0  0  0  0  0  0  0  0  0  0  0  0
  143.5834   80.7364  224.4497 H   0  0  0  0  0  0  0  0  0  0  0  0
  143.5712   81.6565  223.0816 H   0  0  0  0  0  0  0  0  0  0  0  0
  141.1569   81.3530  224.7376 H   0  0  0  0  0  0  0  0  0  0  0  0
  140.8046   81.5711  223.1375 H   0  0  0  0  0  0  0  0  0  0  0  0
  143.2931   80.0233  216.8664 H   0  0  0  0  0  0  0  0  0  0  0  0
  142.9289   82.3766  217.6820 H   0  0  0  0  0  0  0  0  0  0  0  0
  141.7826   83.9499  219.1720 H   0  0  0  0  0  0  0  0  0  0  0  0
  138.8608   82.4984  221.9884 H   0  0  0  0  0  0  0  0  0  0  0  0
  139.2487   80.1704  221.1598 H   0  0  0  0  0  0  0  0  0  0  0  0
  1  2  2  0
  2  3  1  0
  3  4  1  0
  4  5  1  0
  5  6  2  0
  5  7  1  0
  7  8  1  0
  8  9  1  0
  9 10  1  0
 10 11  1  0
 11 12  1  0
 12 13  2  0
 13 14  1  0
 14 15  2  0
 15 16  1  0
 16 17  1  0
 17 18  1  0
 18 19  1  0
 19 20  1  0
 20 21  1  0
 15 22  1  0
  2 23  1  0
 23 24  2  0
 24 25  1  0
 25 26  2  0
 26 27  1  0
 27 28  2  0
 28 29  1  0
 28 30  1  0
 30 31  2  0
 31 32  1  0
 32 33  2  0
 11  7  1  0
 22 12  1  0
 33 23  1  0
 21 18  1  0
 32 26  1  0
  3 34  1  0
  4 35  1  0
  4 36  1  0
  8 37  1  0
  8 38  1  0
  9 39  1  0
  9 40  1  0
 10 41  1  0
 10 42  1  0
 11 43  1  6
 14 44  1  0
 17 45  1  0
 17 46  1  0
 18 47  1  0
 19 48  1  0
 19 49  1  0
 20 50  1  0
 20 51  1  0
 21 52  1  0
 21 53  1  0
 24 54  1  0
 25 55  1  0
 27 56  1  0
 30 57  1  0
 31 58  1  0
M  END
>  <smiles>  (42) 
O=C(NCC(=O)N1CCC[C@H]1c1ncc(OCC2CCC2)o1)c1ccc2cc(Cl)ccc2n1

>  <score_type>  (42) 
oracle

>  <origin>  (42) 
autodockgpu

>  <m_score__min__energy>  (42) 
-8.2899999999999991

>  <m_primary>  (42) 
energy

>  <rmsd>  (42) 
9.629003806993284

>  <m_score__min__rmsd>  (42) 
9.629003806993284

>  <meeko>  (42) 
{"free_energy": -6.15, "intermolecular_energy": -8.53, "internal_energy": -3.11, "cluster_size": 2, "cluster_id": 13, "rank_in_cluster": 1}

>  <energy>  (42) 
-7.41

>  <cluster_rmsd>  (42) 
0.0

>  <cluster>  (42) 
9

$$$$

     RDKit          3D

 58 62  0  0  0  0  0  0  0  0999 V2000
  134.3040   70.5270  227.0770 O   0  0  0  0  0  0  0  0  0  0  0  0
  133.7530   71.3520  226.3080 C   0  0  0  0  0  0  0  0  0  0  0  0
  133.7100   70.9590  224.9170 N   0  0  0  0  0  0  0  0  0  0  0  0
  134.2290   69.7520  224.4100 C   0  0  0  0  0  0  0  0  0  0  0  0
  135.5540   69.6530  223.8440 C   0  0  0  0  0  0  0  0  0  0  0  0
  136.0130   68.4180  223.8160 O   0  0  0  0  0  0  0  0  0  0  0  0
  136.4340   70.6030  223.3300 N   0  0  0  0  0  0  0  0  0  0  0  0
  136.4700   72.0400  223.2200 C   0  0  0  0  0  0  0  0  0  0  0  0
  136.6730   72.1790  221.7040 C   0  0  0  0  0  0  0  0  0  0  0  0
  137.4980   70.9560  221.3460 C   0  0  0  0  0  0  0  0  0  0  0  0
  137.7220   70.2140  222.6720 C   0  0  1  0  0  0  0  0  0  0  0  0
  138.8730   70.8490  223.3280 C   0  0  0  0  0  0  0  0  0  0  0  0
  139.7830   71.5990  222.7140 N   0  0  0  0  0  0  0  0  0  0  0  0
  140.6650   71.9910  223.6440 C   0  0  0  0  0  0  0  0  0  0  0  0
  140.2640   71.4460  224.8900 C   0  0  0  0  0  0  0  0  0  0  0  0
  140.9810   71.6850  226.0130 O   0  0  0  0  0  0  0  0  0  0  0  0
  140.7070   71.5030  227.3480 C   0  0  0  0  0  0  0  0  0  0  0  0
  140.8070   70.0880  227.7900 C   0  0  0  0  0  0  0  0  0  0  0  0
  139.5250   69.3890  228.0780 C   0  0  0  0  0  0  0  0  0  0  0  0
  140.2110   68.0970  227.5860 C   0  0  0  0  0  0  0  0  0  0  0  0
  141.0740   69.0420  226.7230 C   0  0  0  0  0  0  0  0  0  0  0  0
  139.1910   70.7850  224.5960 O   0  0  0  0  0  0  0  0  0  0  0  0
  133.1920   72.6170  226.7630 C   0  0  0  0  0  0  0  0  0  0  0  0
  132.0080   72.5570  227.4690 C   0  0  0  0  0  0  0  0  0  0  0  0
  131.4890   73.7810  227.8950 C   0  0  0  0  0  0  0  0  0  0  0  0
  132.1320   74.9740  227.6200 C   0  0  0  0  0  0  0  0  0  0  0  0
  131.6310   76.1990  228.0350 C   0  0  0  0  0  0  0  0  0  0  0  0
  132.3060   77.3690  227.7380 C   0  0  0  0  0  0  0  0  0  0  0  0
  131.6790   78.9210  228.2600 Cl  0  0  0  0  0  0  0  0  0  0  0  0
  133.4900   77.3650  227.0260 C   0  0  0  0  0  0  0  0  0  0  0  0
  133.9980   76.1490  226.6070 C   0  0  0  0  0  0  0  0  0  0  0  0
  133.3170   74.9860  226.9090 C   0  0  0  0  0  0  0  0  0  0  0  0
  133.8040   73.8030  226.5060 N   0  0  0  0  0  0  0  0  0  0  0  0
  133.2360   71.6920  224.3000 H   0  0  0  0  0  0  0  0  0  0  0  0
  134.1979   69.0330  225.2419 H   0  0  0  0  0  0  0  0  0  0  0  0
  133.5942   69.5875  223.5268 H   0  0  0  0  0  0  0  0  0  0  0  0
  135.5269   72.4997  223.5506 H   0  0  0  0  0  0  0  0  0  0  0  0
  137.2317   72.5359  223.8396 H   0  0  0  0  0  0  0  0  0  0  0  0
  135.7084   72.1716  221.1754 H   0  0  0  0  0  0  0  0  0  0  0  0
  137.1602   73.1237  221.4208 H   0  0  0  0  0  0  0  0  0  0  0  0
  136.9523   70.3180  220.6352 H   0  0  0  0  0  0  0  0  0  0  0  0
  138.4483   71.2297  220.8643 H   0  0  0  0  0  0  0  0  0  0  0  0
  137.9265   69.1334  222.6513 H   0  0  0  0  0  0  0  0  0  0  0  0
  141.5468   72.6254  223.4707 H   0  0  0  0  0  0  0  0  0  0  0  0
  141.4204   72.1012  227.9338 H   0  0  0  0  0  0  0  0  0  0  0  0
  139.6652   71.8174  227.5085 H   0  0  0  0  0  0  0  0  0  0  0  0
  141.5446   70.2903  228.5806 H   0  0  0  0  0  0  0  0  0  0  0  0
  139.2334   69.3803  229.1386 H   0  0  0  0  0  0  0  0  0  0  0  0
  138.5670   69.7345  227.6621 H   0  0  0  0  0  0  0  0  0  0  0  0
  140.7595   67.5357  228.3568 H   0  0  0  0  0  0  0  0  0  0  0  0
  139.6546   67.2450  227.1683 H   0  0  0  0  0  0  0  0  0  0  0  0
  142.1275   68.7433  226.6188 H   0  0  0  0  0  0  0  0  0  0  0  0
  140.8705   69.2198  225.6567 H   0  0  0  0  0  0  0  0  0  0  0  0
  131.5038   71.6031  227.6831 H   0  0  0  0  0  0  0  0  0  0  0  0
  130.5468   73.7968  228.4625 H   0  0  0  0  0  0  0  0  0  0  0  0
  130.6906   76.2402  228.6041 H   0  0  0  0  0  0  0  0  0  0  0  0
  134.0149   78.3045  226.7984 H   0  0  0  0  0  0  0  0  0  0  0  0
  134.9380   76.1083  226.0371 H   0  0  0  0  0  0  0  0  0  0  0  0
  1  2  2  0
  2  3  1  0
  3  4  1  0
  4  5  1  0
  5  6  2  0
  5  7  1  0
  7  8  1  0
  8  9  1  0
  9 10  1  0
 10 11  1  0
 11 12  1  0
 12 13  2  0
 13 14  1  0
 14 15  2  0
 15 16  1  0
 16 17  1  0
 17 18  1  0
 18 19  1  0
 19 20  1  0
 20 21  1  0
 15 22  1  0
  2 23  1  0
 23 24  2  0
 24 25  1  0
 25 26  2  0
 26 27  1  0
 27 28  2  0
 28 29  1  0
 28 30  1  0
 30 31  2  0
 31 32  1  0
 32 33  2  0
 11  7  1  0
 22 12  1  0
 33 23  1  0
 21 18  1  0
 32 26  1  0
  3 34  1  0
  4 35  1  0
  4 36  1  0
  8 37  1  0
  8 38  1  0
  9 39  1  0
  9 40  1  0
 10 41  1  0
 10 42  1  0
 11 43  1  6
 14 44  1  0
 17 45  1  0
 17 46  1  0
 18 47  1  0
 19 48  1  0
 19 49  1  0
 20 50  1  0
 20 51  1  0
 21 52  1  0
 21 53  1  0
 24 54  1  0
 25 55  1  0
 27 56  1  0
 30 57  1  0
 31 58  1  0
M  END
>  <smiles>  (43) 
O=C(NCC(=O)N1CCC[C@H]1c1ncc(OCC2CCC2)o1)c1ccc2cc(Cl)ccc2n1

>  <score_type>  (43) 
oracle

>  <origin>  (43) 
autodockgpu

>  <m_score__min__energy>  (43) 
-8.2899999999999991

>  <m_primary>  (43) 
energy

>  <rmsd>  (43) 
8.239538722178988

>  <m_score__min__rmsd>  (43) 
8.239538722178988

>  <meeko>  (43) 
{"free_energy": -7.66, "intermolecular_energy": -10.04, "internal_energy": -1.76, "cluster_size": 2, "cluster_id": 5, "rank_in_cluster": 1}

>  <energy>  (43) 
-7.34

>  <cluster_rmsd>  (43) 
1.55

>  <cluster>  (43) 
9

$$$$

     RDKit          3D

 58 62  0  0  0  0  0  0  0  0999 V2000
  142.2750   76.3200  217.9030 O   0  0  0  0  0  0  0  0  0  0  0  0
  142.6560   77.0850  218.8230 C   0  0  0  0  0  0  0  0  0  0  0  0
  143.4200   76.4470  219.8730 N   0  0  0  0  0  0  0  0  0  0  0  0
  143.7440   75.0780  219.9070 C   0  0  0  0  0  0  0  0  0  0  0  0
  142.8470   74.0800  220.4420 C   0  0  0  0  0  0  0  0  0  0  0  0
  143.3920   72.8830  220.5210 O   0  0  0  0  0  0  0  0  0  0  0  0
  141.5270   74.1380  220.8840 N   0  0  0  0  0  0  0  0  0  0  0  0
  140.7630   73.5680  221.9650 C   0  0  0  0  0  0  0  0  0  0  0  0
  139.6400   72.8950  221.1640 C   0  0  0  0  0  0  0  0  0  0  0  0
  139.4690   73.8070  219.9630 C   0  0  0  0  0  0  0  0  0  0  0  0
  140.4860   74.9390  220.1650 C   0  0  1  0  0  0  0  0  0  0  0  0
  139.8580   75.9250  221.0550 C   0  0  0  0  0  0  0  0  0  0  0  0
  138.6940   75.7600  221.6750 N   0  0  0  0  0  0  0  0  0  0  0  0
  138.4640   76.8720  222.3880 C   0  0  0  0  0  0  0  0  0  0  0  0
  139.5520   77.7580  222.1840 C   0  0  0  0  0  0  0  0  0  0  0  0
  139.5810   78.9680  222.7910 O   0  0  0  0  0  0  0  0  0  0  0  0
  140.0890   79.3910  223.9980 C   0  0  0  0  0  0  0  0  0  0  0  0
  141.5690   79.5070  224.0150 C   0  0  0  0  0  0  0  0  0  0  0  0
  142.2870   79.0320  222.8010 C   0  0  0  0  0  0  0  0  0  0  0  0
  143.3320   80.1310  223.0860 C   0  0  0  0  0  0  0  0  0  0  0  0
  142.1650   80.8800  223.7620 C   0  0  0  0  0  0  0  0  0  0  0  0
  140.3250   77.1050  221.3790 O   0  0  0  0  0  0  0  0  0  0  0  0
  142.3610   78.5110  218.8500 C   0  0  0  0  0  0  0  0  0  0  0  0
  142.9150   79.2830  217.8490 C   0  0  0  0  0  0  0  0  0  0  0  0
  142.6190   80.6460  217.8950 C   0  0  0  0  0  0  0  0  0  0  0  0
  141.8180   81.1780  218.8890 C   0  0  0  0  0  0  0  0  0  0  0  0
  141.5130   82.5300  218.9500 C   0  0  0  0  0  0  0  0  0  0  0  0
  140.7080   83.0220  219.9610 C   0  0  0  0  0  0  0  0  0  0  0  0
  140.3180   84.7300  220.0440 Cl  0  0  0  0  0  0  0  0  0  0  0  0
  140.1810   82.1980  220.9370 C   0  0  0  0  0  0  0  0  0  0  0  0
  140.4790   80.8490  220.8860 C   0  0  0  0  0  0  0  0  0  0  0  0
  141.2840   80.3670  219.8720 C   0  0  0  0  0  0  0  0  0  0  0  0
  141.5770   79.0590  219.8150 N   0  0  0  0  0  0  0  0  0  0  0  0
  143.7200   77.1350  220.6340 H   0  0  0  0  0  0  0  0  0  0  0  0
  143.9403   74.7848  218.8651 H   0  0  0  0  0  0  0  0  0  0  0  0
  144.5642   75.0591  220.6397 H   0  0  0  0  0  0  0  0  0  0  0  0
  141.3502   72.8369  222.5400 H   0  0  0  0  0  0  0  0  0  0  0  0
  140.4255   74.2869  222.7261 H   0  0  0  0  0  0  0  0  0  0  0  0
  139.9328   71.8821  220.8505 H   0  0  0  0  0  0  0  0  0  0  0  0
  138.7137   72.7709  221.7442 H   0  0  0  0  0  0  0  0  0  0  0  0
  139.6802   73.2611  219.0317 H   0  0  0  0  0  0  0  0  0  0  0  0
  138.4408   74.1894  219.8819 H   0  0  0  0  0  0  0  0  0  0  0  0
  140.8493   75.4924  219.2865 H   0  0  0  0  0  0  0  0  0  0  0  0
  137.5848   77.0635  223.0207 H   0  0  0  0  0  0  0  0  0  0  0  0
  139.6607   80.3776  224.2284 H   0  0  0  0  0  0  0  0  0  0  0  0
  139.8176   78.6307  224.7452 H   0  0  0  0  0  0  0  0  0  0  0  0
  141.6884   79.0100  224.9890 H   0  0  0  0  0  0  0  0  0  0  0  0
  142.6712   78.0033  222.8662 H   0  0  0  0  0  0  0  0  0  0  0  0
  141.7863   78.9434  221.8256 H   0  0  0  0  0  0  0  0  0  0  0  0
  144.1504   79.8352  223.7588 H   0  0  0  0  0  0  0  0  0  0  0  0
  143.9578   80.5806  222.3010 H   0  0  0  0  0  0  0  0  0  0  0  0
  142.4366   81.4423  224.6675 H   0  0  0  0  0  0  0  0  0  0  0  0
  141.6070   81.6828  223.2580 H   0  0  0  0  0  0  0  0  0  0  0  0
  143.5511   78.8503  217.0628 H   0  0  0  0  0  0  0  0  0  0  0  0
  143.0321   81.3122  217.1233 H   0  0  0  0  0  0  0  0  0  0  0  0
  141.9143   83.2153  218.1889 H   0  0  0  0  0  0  0  0  0  0  0  0
  139.5410   82.6048  221.7338 H   0  0  0  0  0  0  0  0  0  0  0  0
  140.0779   80.1641  221.6476 H   0  0  0  0  0  0  0  0  0  0  0  0
  1  2  2  0
  2  3  1  0
  3  4  1  0
  4  5  1  0
  5  6  2  0
  5  7  1  0
  7  8  1  0
  8  9  1  0
  9 10  1  0
 10 11  1  0
 11 12  1  0
 12 13  2  0
 13 14  1  0
 14 15  2  0
 15 16  1  0
 16 17  1  0
 17 18  1  0
 18 19  1  0
 19 20  1  0
 20 21  1  0
 15 22  1  0
  2 23  1  0
 23 24  2  0
 24 25  1  0
 25 26  2  0
 26 27  1  0
 27 28  2  0
 28 29  1  0
 28 30  1  0
 30 31  2  0
 31 32  1  0
 32 33  2  0
 11  7  1  0
 22 12  1  0
 33 23  1  0
 21 18  1  0
 32 26  1  0
  3 34  1  0
  4 35  1  0
  4 36  1  0
  8 37  1  0
  8 38  1  0
  9 39  1  0
  9 40  1  0
 10 41  1  0
 10 42  1  0
 11 43  1  6
 14 44  1  0
 17 45  1  0
 17 46  1  0
 18 47  1  0
 19 48  1  0
 19 49  1  0
 20 50  1  0
 20 51  1  0
 21 52  1  0
 21 53  1  0
 24 54  1  0
 25 55  1  0
 27 56  1  0
 30 57  1  0
 31 58  1  0
M  END
>  <smiles>  (44) 
O=C(NCC(=O)N1CCC[C@H]1c1ncc(OCC2CCC2)o1)c1ccc2cc(Cl)ccc2n1

>  <score_type>  (44) 
oracle

>  <origin>  (44) 
autodockgpu

>  <m_score__min__energy>  (44) 
-8.2899999999999991

>  <m_primary>  (44) 
energy

>  <rmsd>  (44) 
9.029103098494911

>  <m_score__min__rmsd>  (44) 
9.029103098494911

>  <meeko>  (44) 
{"free_energy": -6.08, "intermolecular_energy": -8.46, "internal_energy": -3.13, "cluster_size": 2, "cluster_id": 13, "rank_in_cluster": 2}

>  <energy>  (44) 
-6.95

>  <cluster_rmsd>  (44) 
1.22

>  <cluster>  (44) 
9

$$$$

     RDKit          3D

 58 62  0  0  0  0  0  0  0  0999 V2000
  139.8770   74.1340  222.3450 O   0  0  0  0  0  0  0  0  0  0  0  0
  140.1300   72.9180  222.1550 C   0  0  0  0  0  0  0  0  0  0  0  0
  140.4580   72.5670  220.7910 N   0  0  0  0  0  0  0  0  0  0  0  0
  140.5090   73.4800  219.7200 C   0  0  0  0  0  0  0  0  0  0  0  0
  141.6480   74.3350  219.4810 C   0  0  0  0  0  0  0  0  0  0  0  0
  142.6360   74.1290  220.3290 O   0  0  0  0  0  0  0  0  0  0  0  0
  141.9010   75.3300  218.5390 N   0  0  0  0  0  0  0  0  0  0  0  0
  141.3350   75.7390  217.2780 C   0  0  0  0  0  0  0  0  0  0  0  0
  142.5940   75.6840  216.3990 C   0  0  0  0  0  0  0  0  0  0  0  0
  143.7090   76.0570  217.3590 C   0  0  0  0  0  0  0  0  0  0  0  0
  143.0170   76.3130  218.7060 C   0  0  1  0  0  0  0  0  0  0  0  0
  142.5240   77.6960  218.6770 C   0  0  0  0  0  0  0  0  0  0  0  0
  142.7340   78.5610  217.6900 N   0  0  0  0  0  0  0  0  0  0  0  0
  142.1310   79.7070  218.0320 C   0  0  0  0  0  0  0  0  0  0  0  0
  141.5220   79.5230  219.3000 C   0  0  0  0  0  0  0  0  0  0  0  0
  140.8360   80.5300  219.8900 O   0  0  0  0  0  0  0  0  0  0  0  0
  140.4710   80.7670  221.1950 C   0  0  0  0  0  0  0  0  0  0  0  0
  141.2980   80.0340  222.1880 C   0  0  0  0  0  0  0  0  0  0  0  0
  142.6860   80.5300  222.3940 C   0  0  0  0  0  0  0  0  0  0  0  0
  142.5480   80.0700  223.8600 C   0  0  0  0  0  0  0  0  0  0  0  0
  141.0380   80.3160  223.6570 C   0  0  0  0  0  0  0  0  0  0  0  0
  141.8120   78.2980  219.5970 O   0  0  0  0  0  0  0  0  0  0  0  0
  140.1010   71.9210  223.2150 C   0  0  0  0  0  0  0  0  0  0  0  0
  139.5560   70.6910  222.9020 C   0  0  0  0  0  0  0  0  0  0  0  0
  139.5380   69.7520  223.9340 C   0  0  0  0  0  0  0  0  0  0  0  0
  140.0390   70.0460  225.1890 C   0  0  0  0  0  0  0  0  0  0  0  0
  140.0290   69.1240  226.2250 C   0  0  0  0  0  0  0  0  0  0  0  0
  140.5400   69.4600  227.4660 C   0  0  0  0  0  0  0  0  0  0  0  0
  140.5320   68.2990  228.7810 Cl  0  0  0  0  0  0  0  0  0  0  0  0
  141.0740   70.7080  227.7190 C   0  0  0  0  0  0  0  0  0  0  0  0
  141.0880   71.6350  226.6930 C   0  0  0  0  0  0  0  0  0  0  0  0
  140.5760   71.2900  225.4580 C   0  0  0  0  0  0  0  0  0  0  0  0
  140.5870   72.1840  224.4570 N   0  0  0  0  0  0  0  0  0  0  0  0
  140.6620   71.5250  220.6760 H   0  0  0  0  0  0  0  0  0  0  0  0
  140.3772   72.8843  218.8047 H   0  0  0  0  0  0  0  0  0  0  0  0
  139.7376   74.2089  220.0091 H   0  0  0  0  0  0  0  0  0  0  0  0
  140.5616   75.0385  216.9299 H   0  0  0  0  0  0  0  0  0  0  0  0
  140.8182   76.7100  217.2920 H   0  0  0  0  0  0  0  0  0  0  0  0
  142.7463   74.6734  215.9922 H   0  0  0  0  0  0  0  0  0  0  0  0
  142.5379   76.3506  215.5258 H   0  0  0  0  0  0  0  0  0  0  0  0
  144.4322   75.2330  217.4481 H   0  0  0  0  0  0  0  0  0  0  0  0
  144.2701   76.9376  217.0128 H   0  0  0  0  0  0  0  0  0  0  0  0
  143.5976   76.2042  219.6340 H   0  0  0  0  0  0  0  0  0  0  0  0
  142.1114   80.6300  217.4339 H   0  0  0  0  0  0  0  0  0  0  0  0
  140.5658   81.8451  221.3920 H   0  0  0  0  0  0  0  0  0  0  0  0
  139.4372   80.4091  221.3102 H   0  0  0  0  0  0  0  0  0  0  0  0
  141.0973   79.0412  221.7589 H   0  0  0  0  0  0  0  0  0  0  0  0
  143.4556   79.9984  221.8151 H   0  0  0  0  0  0  0  0  0  0  0  0
  142.9828   81.5561  222.1311 H   0  0  0  0  0  0  0  0  0  0  0  0
  142.8301   79.0240  224.0506 H   0  0  0  0  0  0  0  0  0  0  0  0
  143.1221   80.5177  224.6846 H   0  0  0  0  0  0  0  0  0  0  0  0
  140.3780   79.5932  224.1590 H   0  0  0  0  0  0  0  0  0  0  0  0
  140.5360   81.2313  224.0037 H   0  0  0  0  0  0  0  0  0  0  0  0
  139.1605   70.4655  221.9006 H   0  0  0  0  0  0  0  0  0  0  0  0
  139.1153   68.7542  223.7448 H   0  0  0  0  0  0  0  0  0  0  0  0
  139.6123   68.1196  226.0590 H   0  0  0  0  0  0  0  0  0  0  0  0
  141.4779   70.9583  228.7111 H   0  0  0  0  0  0  0  0  0  0  0  0
  141.5039   72.6397  226.8595 H   0  0  0  0  0  0  0  0  0  0  0  0
  1  2  2  0
  2  3  1  0
  3  4  1  0
  4  5  1  0
  5  6  2  0
  5  7  1  0
  7  8  1  0
  8  9  1  0
  9 10  1  0
 10 11  1  0
 11 12  1  0
 12 13  2  0
 13 14  1  0
 14 15  2  0
 15 16  1  0
 16 17  1  0
 17 18  1  0
 18 19  1  0
 19 20  1  0
 20 21  1  0
 15 22  1  0
  2 23  1  0
 23 24  2  0
 24 25  1  0
 25 26  2  0
 26 27  1  0
 27 28  2  0
 28 29  1  0
 28 30  1  0
 30 31  2  0
 31 32  1  0
 32 33  2  0
 11  7  1  0
 22 12  1  0
 33 23  1  0
 21 18  1  0
 32 26  1  0
  3 34  1  0
  4 35  1  0
  4 36  1  0
  8 37  1  0
  8 38  1  0
  9 39  1  0
  9 40  1  0
 10 41  1  0
 10 42  1  0
 11 43  1  1
 14 44  1  0
 17 45  1  0
 17 46  1  0
 18 47  1  0
 19 48  1  0
 19 49  1  0
 20 50  1  0
 20 51  1  0
 21 52  1  0
 21 53  1  0
 24 54  1  0
 25 55  1  0
 27 56  1  0
 30 57  1  0
 31 58  1  0
M  END
>  <smiles>  (45) 
O=C(NCC(=O)N1CCC[C@H]1c1ncc(OCC2CCC2)o1)c1ccc2cc(Cl)ccc2n1

>  <score_type>  (45) 
oracle

>  <origin>  (45) 
autodockgpu

>  <m_score__min__energy>  (45) 
-8.2899999999999991

>  <m_primary>  (45) 
energy

>  <rmsd>  (45) 
2.6380117155904745

>  <m_score__min__rmsd>  (45) 
2.6380117155904745

>  <meeko>  (45) 
{"free_energy": -7.69, "intermolecular_energy": -10.08, "internal_energy": -1.54, "cluster_size": 14, "cluster_id": 1, "rank_in_cluster": 5}

>  <energy>  (45) 
-7.37

>  <cluster_rmsd>  (45) 
0.0

>  <cluster>  (45) 
10

$$$$

     RDKit          3D

 58 62  0  0  0  0  0  0  0  0999 V2000
  140.1130   73.5850  222.2920 O   0  0  0  0  0  0  0  0  0  0  0  0
  139.5610   72.4570  222.3160 C   0  0  0  0  0  0  0  0  0  0  0  0
  138.7190   72.1630  221.1780 N   0  0  0  0  0  0  0  0  0  0  0  0
  138.5030   73.0370  220.0950 C   0  0  0  0  0  0  0  0  0  0  0  0
  139.3280   73.0230  218.9090 C   0  0  0  0  0  0  0  0  0  0  0  0
  138.8510   72.2480  217.9560 O   0  0  0  0  0  0  0  0  0  0  0  0
  140.5220   73.6620  218.5830 N   0  0  0  0  0  0  0  0  0  0  0  0
  141.1190   74.2130  217.3920 C   0  0  0  0  0  0  0  0  0  0  0  0
  142.4440   73.4370  217.3820 C   0  0  0  0  0  0  0  0  0  0  0  0
  142.7440   73.2360  218.8560 C   0  0  0  0  0  0  0  0  0  0  0  0
  141.5880   73.9170  219.6030 C   0  0  1  0  0  0  0  0  0  0  0  0
  141.9180   75.3460  219.6890 C   0  0  0  0  0  0  0  0  0  0  0  0
  142.9230   75.9370  219.0500 N   0  0  0  0  0  0  0  0  0  0  0  0
  142.8960   77.2340  219.3830 C   0  0  0  0  0  0  0  0  0  0  0  0
  141.8120   77.4380  220.2760 C   0  0  0  0  0  0  0  0  0  0  0  0
  141.5490   78.6680  220.7760 O   0  0  0  0  0  0  0  0  0  0  0  0
  140.5670   79.1400  221.6150 C   0  0  0  0  0  0  0  0  0  0  0  0
  141.0930   79.8870  222.7870 C   0  0  0  0  0  0  0  0  0  0  0  0
  142.1280   79.1980  223.6050 C   0  0  0  0  0  0  0  0  0  0  0  0
  142.7260   80.5930  223.8800 C   0  0  0  0  0  0  0  0  0  0  0  0
  142.1130   80.9790  222.5170 C   0  0  0  0  0  0  0  0  0  0  0  0
  141.2960   76.2570  220.3930 O   0  0  0  0  0  0  0  0  0  0  0  0
  139.7420   71.5020  223.4010 C   0  0  0  0  0  0  0  0  0  0  0  0
  139.3510   70.2010  223.1590 C   0  0  0  0  0  0  0  0  0  0  0  0
  139.5340   69.3040  224.2120 C   0  0  0  0  0  0  0  0  0  0  0  0
  140.0750   69.7060  225.4190 C   0  0  0  0  0  0  0  0  0  0  0  0
  140.2640   68.8280  226.4760 C   0  0  0  0  0  0  0  0  0  0  0  0
  140.8090   69.2720  227.6670 C   0  0  0  0  0  0  0  0  0  0  0  0
  141.0510   68.1670  229.0080 Cl  0  0  0  0  0  0  0  0  0  0  0  0
  141.1820   70.5900  227.8500 C   0  0  0  0  0  0  0  0  0  0  0  0
  140.9980   71.4740  226.8020 C   0  0  0  0  0  0  0  0  0  0  0  0
  140.4530   71.0200  225.6170 C   0  0  0  0  0  0  0  0  0  0  0  0
  140.2720   71.8720  224.5960 N   0  0  0  0  0  0  0  0  0  0  0  0
  138.2690   71.1960  221.2420 H   0  0  0  0  0  0  0  0  0  0  0  0
  137.4740   72.8514  219.7534 H   0  0  0  0  0  0  0  0  0  0  0  0
  138.7603   74.0110  220.5368 H   0  0  0  0  0  0  0  0  0  0  0  0
  140.5151   74.0032  216.4968 H   0  0  0  0  0  0  0  0  0  0  0  0
  141.2208   75.3083  217.3861 H   0  0  0  0  0  0  0  0  0  0  0  0
  142.3308   72.4711  216.8679 H   0  0  0  0  0  0  0  0  0  0  0  0
  143.2475   73.9654  216.8480 H   0  0  0  0  0  0  0  0  0  0  0  0
  142.7806   72.1637  219.0987 H   0  0  0  0  0  0  0  0  0  0  0  0
  143.7193   73.6601  219.1369 H   0  0  0  0  0  0  0  0  0  0  0  0
  141.3438   73.5868  220.6234 H   0  0  0  0  0  0  0  0  0  0  0  0
  143.5929   78.0068  219.0263 H   0  0  0  0  0  0  0  0  0  0  0  0
  139.9120   79.8114  221.0404 H   0  0  0  0  0  0  0  0  0  0  0  0
  140.0291   78.2639  222.0063 H   0  0  0  0  0  0  0  0  0  0  0  0
  140.1006   80.1284  223.1954 H   0  0  0  0  0  0  0  0  0  0  0  0
  141.7416   78.6792  224.4947 H   0  0  0  0  0  0  0  0  0  0  0  0
  142.7347   78.3735  223.2023 H   0  0  0  0  0  0  0  0  0  0  0  0
  142.3042   81.1198  224.7487 H   0  0  0  0  0  0  0  0  0  0  0  0
  143.7861   80.7522  224.1265 H   0  0  0  0  0  0  0  0  0  0  0  0
  141.7005   81.9974  222.4648 H   0  0  0  0  0  0  0  0  0  0  0  0
  142.7062   81.0186  221.5915 H   0  0  0  0  0  0  0  0  0  0  0  0
  138.9215   69.8901  222.1952 H   0  0  0  0  0  0  0  0  0  0  0  0
  139.2409   68.2522  224.0786 H   0  0  0  0  0  0  0  0  0  0  0  0
  139.9785   67.7714  226.3662 H   0  0  0  0  0  0  0  0  0  0  0  0
  141.6138   70.9273  228.8038 H   0  0  0  0  0  0  0  0  0  0  0  0
  141.2836   72.5306  226.9117 H   0  0  0  0  0  0  0  0  0  0  0  0
  1  2  2  0
  2  3  1  0
  3  4  1  0
  4  5  1  0
  5  6  2  0
  5  7  1  0
  7  8  1  0
  8  9  1  0
  9 10  1  0
 10 11  1  0
 11 12  1  0
 12 13  2  0
 13 14  1  0
 14 15  2  0
 15 16  1  0
 16 17  1  0
 17 18  1  0
 18 19  1  0
 19 20  1  0
 20 21  1  0
 15 22  1  0
  2 23  1  0
 23 24  2  0
 24 25  1  0
 25 26  2  0
 26 27  1  0
 27 28  2  0
 28 29  1  0
 28 30  1  0
 30 31  2  0
 31 32  1  0
 32 33  2  0
 11  7  1  0
 22 12  1  0
 33 23  1  0
 21 18  1  0
 32 26  1  0
  3 34  1  0
  4 35  1  0
  4 36  1  0
  8 37  1  0
  8 38  1  0
  9 39  1  0
  9 40  1  0
 10 41  1  0
 10 42  1  0
 11 43  1  1
 14 44  1  0
 17 45  1  0
 17 46  1  0
 18 47  1  0
 19 48  1  0
 19 49  1  0
 20 50  1  0
 20 51  1  0
 21 52  1  0
 21 53  1  0
 24 54  1  0
 25 55  1  0
 27 56  1  0
 30 57  1  0
 31 58  1  0
M  END
>  <smiles>  (46) 
O=C(NCC(=O)N1CCC[C@H]1c1ncc(OCC2CCC2)o1)c1ccc2cc(Cl)ccc2n1

>  <score_type>  (46) 
oracle

>  <origin>  (46) 
autodockgpu

>  <m_score__min__energy>  (46) 
-8.2899999999999991

>  <m_primary>  (46) 
energy

>  <rmsd>  (46) 
2.7121754621655945

>  <m_score__min__rmsd>  (46) 
2.7121754621655945

>  <meeko>  (46) 
{"free_energy": -7.26, "intermolecular_energy": -9.65, "internal_energy": -1.59, "cluster_size": 14, "cluster_id": 1, "rank_in_cluster": 11}

>  <energy>  (46) 
-7.35

>  <cluster_rmsd>  (46) 
0.0

>  <cluster>  (46) 
11

$$$$

     RDKit          3D

 58 62  0  0  0  0  0  0  0  0999 V2000
  137.7070   71.6500  220.9440 O   0  0  0  0  0  0  0  0  0  0  0  0
  138.2320   72.0940  221.9950 C   0  0  0  0  0  0  0  0  0  0  0  0
  138.5000   73.5150  221.9950 N   0  0  0  0  0  0  0  0  0  0  0  0
  138.2100   74.3830  220.9250 C   0  0  0  0  0  0  0  0  0  0  0  0
  137.0390   75.2280  220.9060 C   0  0  0  0  0  0  0  0  0  0  0  0
  137.0160   76.0580  219.8830 O   0  0  0  0  0  0  0  0  0  0  0  0
  135.9400   75.3380  221.7560 N   0  0  0  0  0  0  0  0  0  0  0  0
  134.5100   75.1960  221.6360 C   0  0  0  0  0  0  0  0  0  0  0  0
  134.0680   76.5660  222.1700 C   0  0  0  0  0  0  0  0  0  0  0  0
  135.1290   76.9000  223.2030 C   0  0  0  0  0  0  0  0  0  0  0  0
  136.0900   75.7020  223.2000 C   0  0  1  0  0  0  0  0  0  0  0  0
  135.5010   74.6800  224.0760 C   0  0  0  0  0  0  0  0  0  0  0  0
  135.7460   73.3760  223.9990 N   0  0  0  0  0  0  0  0  0  0  0  0
  135.0260   72.7810  224.9600 C   0  0  0  0  0  0  0  0  0  0  0  0
  134.3050   73.7840  225.6560 C   0  0  0  0  0  0  0  0  0  0  0  0
  133.4900   73.4600  226.6880 O   0  0  0  0  0  0  0  0  0  0  0  0
  132.4400   74.1170  227.2850 C   0  0  0  0  0  0  0  0  0  0  0  0
  132.3520   75.5550  226.9220 C   0  0  0  0  0  0  0  0  0  0  0  0
  131.5670   76.4260  227.8380 C   0  0  0  0  0  0  0  0  0  0  0  0
  132.5470   77.5600  227.4700 C   0  0  0  0  0  0  0  0  0  0  0  0
  133.5610   76.4240  227.2200 C   0  0  0  0  0  0  0  0  0  0  0  0
  134.6550   74.8750  225.0570 O   0  0  0  0  0  0  0  0  0  0  0  0
  138.5550   71.2550  223.1410 C   0  0  0  0  0  0  0  0  0  0  0  0
  137.8900   70.0490  223.2410 C   0  0  0  0  0  0  0  0  0  0  0  0
  138.2160   69.2630  224.3470 C   0  0  0  0  0  0  0  0  0  0  0  0
  139.1500   69.6770  225.2780 C   0  0  0  0  0  0  0  0  0  0  0  0
  139.4860   68.9080  226.3830 C   0  0  0  0  0  0  0  0  0  0  0  0
  140.4260   69.3600  227.2910 C   0  0  0  0  0  0  0  0  0  0  0  0
  140.8560   68.3920  228.6900 Cl  0  0  0  0  0  0  0  0  0  0  0  0
  141.0600   70.5770  227.1380 C   0  0  0  0  0  0  0  0  0  0  0  0
  140.7320   71.3520  226.0400 C   0  0  0  0  0  0  0  0  0  0  0  0
  139.7930   70.8920  225.1380 C   0  0  0  0  0  0  0  0  0  0  0  0
  139.4700   71.6380  224.0710 N   0  0  0  0  0  0  0  0  0  0  0  0
  138.9480   73.8450  222.9060 H   0  0  0  0  0  0  0  0  0  0  0  0
  139.0746   75.0573  220.8359 H   0  0  0  0  0  0  0  0  0  0  0  0
  137.9893   73.6741  220.1134 H   0  0  0  0  0  0  0  0  0  0  0  0
  134.1998   75.0441  220.5916 H   0  0  0  0  0  0  0  0  0  0  0  0
  134.0817   74.3303  222.1624 H   0  0  0  0  0  0  0  0  0  0  0  0
  134.0523   77.3158  221.3652 H   0  0  0  0  0  0  0  0  0  0  0  0
  133.0503   76.5562  222.5874 H   0  0  0  0  0  0  0  0  0  0  0  0
  135.6613   77.8214  222.9244 H   0  0  0  0  0  0  0  0  0  0  0  0
  134.6924   77.0726  224.1978 H   0  0  0  0  0  0  0  0  0  0  0  0
  137.1268   75.8481  223.5373 H   0  0  0  0  0  0  0  0  0  0  0  0
  134.9991   71.7020  225.1720 H   0  0  0  0  0  0  0  0  0  0  0  0
  131.5044   73.6243  226.9818 H   0  0  0  0  0  0  0  0  0  0  0  0
  132.6063   74.0690  228.3713 H   0  0  0  0  0  0  0  0  0  0  0  0
  132.0306   75.3689  225.8866 H   0  0  0  0  0  0  0  0  0  0  0  0
  130.5256   76.5990  227.5291 H   0  0  0  0  0  0  0  0  0  0  0  0
  131.3684   76.1438  228.8825 H   0  0  0  0  0  0  0  0  0  0  0  0
  132.2719   78.1457  226.5804 H   0  0  0  0  0  0  0  0  0  0  0  0
  132.7539   78.4118  228.1346 H   0  0  0  0  0  0  0  0  0  0  0  0
  134.2385   76.5851  226.3685 H   0  0  0  0  0  0  0  0  0  0  0  0
  134.3257   76.1406  227.9582 H   0  0  0  0  0  0  0  0  0  0  0  0
  137.1487   69.7276  222.4946 H   0  0  0  0  0  0  0  0  0  0  0  0
  137.7181   68.2913  224.4810 H   0  0  0  0  0  0  0  0  0  0  0  0
  139.0016   67.9326  226.5377 H   0  0  0  0  0  0  0  0  0  0  0  0
  141.8059   70.9211  227.8696 H   0  0  0  0  0  0  0  0  0  0  0  0
  141.2158   72.3279  225.8865 H   0  0  0  0  0  0  0  0  0  0  0  0
  1  2  2  0
  2  3  1  0
  3  4  1  0
  4  5  1  0
  5  6  2  0
  5  7  1  0
  7  8  1  0
  8  9  1  0
  9 10  1  0
 10 11  1  0
 11 12  1  0
 12 13  2  0
 13 14  1  0
 14 15  2  0
 15 16  1  0
 16 17  1  0
 17 18  1  0
 18 19  1  0
 19 20  1  0
 20 21  1  0
 15 22  1  0
  2 23  1  0
 23 24  2  0
 24 25  1  0
 25 26  2  0
 26 27  1  0
 27 28  2  0
 28 29  1  0
 28 30  1  0
 30 31  2  0
 31 32  1  0
 32 33  2  0
 11  7  1  0
 22 12  1  0
 33 23  1  0
 21 18  1  0
 32 26  1  0
  3 34  1  0
  4 35  1  0
  4 36  1  0
  8 37  1  0
  8 38  1  0
  9 39  1  0
  9 40  1  0
 10 41  1  0
 10 42  1  0
 11 43  1  1
 14 44  1  0
 17 45  1  0
 17 46  1  0
 18 47  1  0
 19 48  1  0
 19 49  1  0
 20 50  1  0
 20 51  1  0
 21 52  1  0
 21 53  1  0
 24 54  1  0
 25 55  1  0
 27 56  1  0
 30 57  1  0
 31 58  1  0
M  END
>  <smiles>  (47) 
O=C(NCC(=O)N1CCC[C@H]1c1ncc(OCC2CCC2)o1)c1ccc2cc(Cl)ccc2n1

>  <score_type>  (47) 
oracle

>  <origin>  (47) 
autodockgpu

>  <m_score__min__energy>  (47) 
-8.2899999999999991

>  <m_primary>  (47) 
energy

>  <rmsd>  (47) 
4.790438918370637

>  <m_score__min__rmsd>  (47) 
4.790438918370637

>  <meeko>  (47) 
{"free_energy": -6.99, "intermolecular_energy": -9.38, "internal_energy": -2.36, "cluster_size": 3, "cluster_id": 6, "rank_in_cluster": 2}

>  <energy>  (47) 
-6.83

>  <cluster_rmsd>  (47) 
0.0

>  <cluster>  (47) 
12

$$$$

     RDKit          3D

 58 62  0  0  0  0  0  0  0  0999 V2000
  139.5210   73.7210  222.3380 O   0  0  0  0  0  0  0  0  0  0  0  0
  139.5590   72.4790  222.1590 C   0  0  0  0  0  0  0  0  0  0  0  0
  139.3990   72.0520  220.7870 N   0  0  0  0  0  0  0  0  0  0  0  0
  139.2160   72.9220  219.6950 C   0  0  0  0  0  0  0  0  0  0  0  0
  140.3220   73.5470  219.0060 C   0  0  0  0  0  0  0  0  0  0  0  0
  140.4090   73.1930  217.7400 O   0  0  0  0  0  0  0  0  0  0  0  0
  141.3070   74.4410  219.4200 N   0  0  0  0  0  0  0  0  0  0  0  0
  142.2680   75.3030  218.7780 C   0  0  0  0  0  0  0  0  0  0  0  0
  143.5570   74.7960  219.4410 C   0  0  0  0  0  0  0  0  0  0  0  0
  143.0980   74.3790  220.8270 C   0  0  0  0  0  0  0  0  0  0  0  0
  141.5950   74.6880  220.8680 C   0  0  1  0  0  0  0  0  0  0  0  0
  141.4600   76.1110  221.2060 C   0  0  0  0  0  0  0  0  0  0  0  0
  141.0320   76.5810  222.3740 N   0  0  0  0  0  0  0  0  0  0  0  0
  141.0500   77.9180  222.2930 C   0  0  0  0  0  0  0  0  0  0  0  0
  141.5150   78.2760  221.0020 C   0  0  0  0  0  0  0  0  0  0  0  0
  141.6330   79.5770  220.6460 O   0  0  0  0  0  0  0  0  0  0  0  0
  141.1890   80.7440  221.2230 C   0  0  0  0  0  0  0  0  0  0  0  0
  142.0310   81.2070  222.3550 C   0  0  0  0  0  0  0  0  0  0  0  0
  141.4660   81.0300  223.7210 C   0  0  0  0  0  0  0  0  0  0  0  0
  142.9160   80.8260  224.2080 C   0  0  0  0  0  0  0  0  0  0  0  0
  143.1850   80.3150  222.7770 C   0  0  0  0  0  0  0  0  0  0  0  0
  141.7310   77.1340  220.4350 O   0  0  0  0  0  0  0  0  0  0  0  0
  139.7490   71.5220  223.2410 C   0  0  0  0  0  0  0  0  0  0  0  0
  139.3700   70.2170  222.9940 C   0  0  0  0  0  0  0  0  0  0  0  0
  139.5610   69.3190  224.0450 C   0  0  0  0  0  0  0  0  0  0  0  0
  140.0980   69.7220  225.2530 C   0  0  0  0  0  0  0  0  0  0  0  0
  140.2940   68.8420  226.3070 C   0  0  0  0  0  0  0  0  0  0  0  0
  140.8340   69.2880  227.5000 C   0  0  0  0  0  0  0  0  0  0  0  0
  141.0860   68.1800  228.8370 Cl  0  0  0  0  0  0  0  0  0  0  0  0
  141.1950   70.6080  227.6880 C   0  0  0  0  0  0  0  0  0  0  0  0
  141.0030   71.4940  226.6430 C   0  0  0  0  0  0  0  0  0  0  0  0
  140.4630   71.0390  225.4560 C   0  0  0  0  0  0  0  0  0  0  0  0
  140.2750   71.8920  224.4380 N   0  0  0  0  0  0  0  0  0  0  0  0
  139.4350   70.9900  220.6830 H   0  0  0  0  0  0  0  0  0  0  0  0
  138.6683   72.3463  218.9343 H   0  0  0  0  0  0  0  0  0  0  0  0
  138.7317   73.7858  220.1738 H   0  0  0  0  0  0  0  0  0  0  0  0
  142.2841   75.1575  217.6878 H   0  0  0  0  0  0  0  0  0  0  0  0
  142.0776   76.3802  218.8939 H   0  0  0  0  0  0  0  0  0  0  0  0
  143.9729   73.9398  218.8897 H   0  0  0  0  0  0  0  0  0  0  0  0
  144.3557   75.5521  219.4620 H   0  0  0  0  0  0  0  0  0  0  0  0
  143.2746   73.3047  220.9840 H   0  0  0  0  0  0  0  0  0  0  0  0
  143.6471   74.9115  221.6175 H   0  0  0  0  0  0  0  0  0  0  0  0
  140.9557   74.1337  221.5709 H   0  0  0  0  0  0  0  0  0  0  0  0
  140.7553   78.6169  223.0896 H   0  0  0  0  0  0  0  0  0  0  0  0
  141.1785   81.5300  220.4535 H   0  0  0  0  0  0  0  0  0  0  0  0
  140.1869   80.5414  221.6290 H   0  0  0  0  0  0  0  0  0  0  0  0
  142.2139   82.2051  221.9304 H   0  0  0  0  0  0  0  0  0  0  0  0
  140.9636   81.9189  224.1302 H   0  0  0  0  0  0  0  0  0  0  0  0
  140.6722   80.2985  223.9326 H   0  0  0  0  0  0  0  0  0  0  0  0
  143.4506   81.7468  224.4841 H   0  0  0  0  0  0  0  0  0  0  0  0
  143.1695   80.2468  225.1082 H   0  0  0  0  0  0  0  0  0  0  0  0
  144.1641   80.5942  222.3606 H   0  0  0  0  0  0  0  0  0  0  0  0
  143.2254   79.2440  222.5296 H   0  0  0  0  0  0  0  0  0  0  0  0
  138.9441   69.9050  222.0290 H   0  0  0  0  0  0  0  0  0  0  0  0
  139.2773   68.2650  223.9087 H   0  0  0  0  0  0  0  0  0  0  0  0
  140.0184   67.7831  226.1936 H   0  0  0  0  0  0  0  0  0  0  0  0
  141.6237   70.9457  228.6431 H   0  0  0  0  0  0  0  0  0  0  0  0
  141.2784   72.5529  226.7566 H   0  0  0  0  0  0  0  0  0  0  0  0
  1  2  2  0
  2  3  1  0
  3  4  1  0
  4  5  1  0
  5  6  2  0
  5  7  1  0
  7  8  1  0
  8  9  1  0
  9 10  1  0
 10 11  1  0
 11 12  1  0
 12 13  2  0
 13 14  1  0
 14 15  2  0
 15 16  1  0
 16 17  1  0
 17 18  1  0
 18 19  1  0
 19 20  1  0
 20 21  1  0
 15 22  1  0
  2 23  1  0
 23 24  2  0
 24 25  1  0
 25 26  2  0
 26 27  1  0
 27 28  2  0
 28 29  1  0
 28 30  1  0
 30 31  2  0
 31 32  1  0
 32 33  2  0
 11  7  1  0
 22 12  1  0
 33 23  1  0
 21 18  1  0
 32 26  1  0
  3 34  1  0
  4 35  1  0
  4 36  1  0
  8 37  1  0
  8 38  1  0
  9 39  1  0
  9 40  1  0
 10 41  1  0
 10 42  1  0
 11 43  1  1
 14 44  1  0
 17 45  1  0
 17 46  1  0
 18 47  1  0
 19 48  1  0
 19 49  1  0
 20 50  1  0
 20 51  1  0
 21 52  1  0
 21 53  1  0
 24 54  1  0
 25 55  1  0
 27 56  1  0
 30 57  1  0
 31 58  1  0
M  END
>  <smiles>  (48) 
O=C(NCC(=O)N1CCC[C@H]1c1ncc(OCC2CCC2)o1)c1ccc2cc(Cl)ccc2n1

>  <score_type>  (48) 
oracle

>  <origin>  (48) 
autodockgpu

>  <m_score__min__energy>  (48) 
-8.2899999999999991

>  <m_primary>  (48) 
energy

>  <rmsd>  (48) 
2.539938456111535

>  <m_score__min__rmsd>  (48) 
2.539938456111535

>  <meeko>  (48) 
{"free_energy": -7.99, "intermolecular_energy": -10.38, "internal_energy": -1.32, "cluster_size": 14, "cluster_id": 1, "rank_in_cluster": 2}

>  <energy>  (48) 
-6.15

>  <cluster_rmsd>  (48) 
0.0

>  <cluster>  (48) 
13

$$$$

     RDKit          3D

 58 62  0  0  0  0  0  0  0  0999 V2000
  139.6670   74.0630  219.6720 O   0  0  0  0  0  0  0  0  0  0  0  0
  139.1490   74.9510  220.3940 C   0  0  0  0  0  0  0  0  0  0  0  0
  137.7500   74.7530  220.7000 N   0  0  0  0  0  0  0  0  0  0  0  0
  136.9800   73.6630  220.2530 C   0  0  0  0  0  0  0  0  0  0  0  0
  137.1380   72.3300  220.7860 C   0  0  0  0  0  0  0  0  0  0  0  0
  136.1720   71.5100  220.4230 O   0  0  0  0  0  0  0  0  0  0  0  0
  138.1030   71.7500  221.6070 N   0  0  0  0  0  0  0  0  0  0  0  0
  138.9860   72.1970  222.6550 C   0  0  0  0  0  0  0  0  0  0  0  0
  140.3310   71.7350  222.0750 C   0  0  0  0  0  0  0  0  0  0  0  0
  139.9690   70.4770  221.3060 C   0  0  0  0  0  0  0  0  0  0  0  0
  138.4570   70.2990  221.5080 C   0  0  1  0  0  0  0  0  0  0  0  0
  138.2770   69.6130  222.7950 C   0  0  0  0  0  0  0  0  0  0  0  0
  137.1580   69.6190  223.5130 N   0  0  0  0  0  0  0  0  0  0  0  0
  137.3880   68.8880  224.6110 C   0  0  0  0  0  0  0  0  0  0  0  0
  138.7230   68.4120  224.5530 C   0  0  0  0  0  0  0  0  0  0  0  0
  139.2260   67.6390  225.5440 O   0  0  0  0  0  0  0  0  0  0  0  0
  139.6780   67.9270  226.8100 C   0  0  0  0  0  0  0  0  0  0  0  0
  140.6250   69.0700  226.8590 C   0  0  0  0  0  0  0  0  0  0  0  0
  140.0780   70.4040  226.4890 C   0  0  0  0  0  0  0  0  0  0  0  0
  141.0720   71.0050  227.5040 C   0  0  0  0  0  0  0  0  0  0  0  0
  140.9540   69.6460  228.2250 C   0  0  0  0  0  0  0  0  0  0  0  0
  139.1650   68.8970  223.4380 O   0  0  0  0  0  0  0  0  0  0  0  0
  139.8860   76.1030  220.8950 C   0  0  0  0  0  0  0  0  0  0  0  0
  141.1350   76.3300  220.3520 C   0  0  0  0  0  0  0  0  0  0  0  0
  141.8220   77.4390  220.8470 C   0  0  0  0  0  0  0  0  0  0  0  0
  141.2750   78.2540  221.8210 C   0  0  0  0  0  0  0  0  0  0  0  0
  141.9450   79.3590  222.3250 C   0  0  0  0  0  0  0  0  0  0  0  0
  141.3600   80.1480  223.3000 C   0  0  0  0  0  0  0  0  0  0  0  0
  142.2010   81.5480  223.9400 Cl  0  0  0  0  0  0  0  0  0  0  0  0
  140.1050   79.8700  223.8040 C   0  0  0  0  0  0  0  0  0  0  0  0
  139.4290   78.7700  223.3100 C   0  0  0  0  0  0  0  0  0  0  0  0
  140.0200   77.9890  222.3360 C   0  0  0  0  0  0  0  0  0  0  0  0
  139.3710   76.9200  221.8510 N   0  0  0  0  0  0  0  0  0  0  0  0
  137.3520   75.5330  221.3120 H   0  0  0  0  0  0  0  0  0  0  0  0
  135.9296   73.9391  220.4277 H   0  0  0  0  0  0  0  0  0  0  0  0
  137.3437   73.5380  219.2224 H   0  0  0  0  0  0  0  0  0  0  0  0
  138.9490   73.2888  222.7837 H   0  0  0  0  0  0  0  0  0  0  0  0
  138.7530   71.8095  223.6578 H   0  0  0  0  0  0  0  0  0  0  0  0
  140.7536   72.4981  221.4048 H   0  0  0  0  0  0  0  0  0  0  0  0
  141.0948   71.5614  222.8473 H   0  0  0  0  0  0  0  0  0  0  0  0
  140.2034   70.5975  220.2380 H   0  0  0  0  0  0  0  0  0  0  0  0
  140.5355   69.6030  221.6598 H   0  0  0  0  0  0  0  0  0  0  0  0
  137.8817   69.7302  220.7626 H   0  0  0  0  0  0  0  0  0  0  0  0
  136.6669   68.6908  225.4179 H   0  0  0  0  0  0  0  0  0  0  0  0
  138.8106   68.1671  227.4424 H   0  0  0  0  0  0  0  0  0  0  0  0
  140.2240   67.0410  227.1662 H   0  0  0  0  0  0  0  0  0  0  0  0
  141.3978   68.5742  226.2533 H   0  0  0  0  0  0  0  0  0  0  0  0
  140.2522   70.6993  225.4438 H   0  0  0  0  0  0  0  0  0  0  0  0
  139.0008   70.6232  226.5291 H   0  0  0  0  0  0  0  0  0  0  0  0
  142.0693   71.2359  227.1015 H   0  0  0  0  0  0  0  0  0  0  0  0
  140.9034   71.9675  228.0092 H   0  0  0  0  0  0  0  0  0  0  0  0
  141.8878   69.2752  228.6728 H   0  0  0  0  0  0  0  0  0  0  0  0
  140.3067   69.4959  229.1016 H   0  0  0  0  0  0  0  0  0  0  0  0
  141.5622   75.6768  219.5769 H   0  0  0  0  0  0  0  0  0  0  0  0
  142.8226   77.6705  220.4530 H   0  0  0  0  0  0  0  0  0  0  0  0
  142.9473   79.6097  221.9475 H   0  0  0  0  0  0  0  0  0  0  0  0
  139.6545   80.5076  224.5789 H   0  0  0  0  0  0  0  0  0  0  0  0
  138.4278   78.5185  223.6898 H   0  0  0  0  0  0  0  0  0  0  0  0
  1  2  2  0
  2  3  1  0
  3  4  1  0
  4  5  1  0
  5  6  2  0
  5  7  1  0
  7  8  1  0
  8  9  1  0
  9 10  1  0
 10 11  1  0
 11 12  1  0
 12 13  2  0
 13 14  1  0
 14 15  2  0
 15 16  1  0
 16 17  1  0
 17 18  1  0
 18 19  1  0
 19 20  1  0
 20 21  1  0
 15 22  1  0
  2 23  1  0
 23 24  2  0
 24 25  1  0
 25 26  2  0
 26 27  1  0
 27 28  2  0
 28 29  1  0
 28 30  1  0
 30 31  2  0
 31 32  1  0
 32 33  2  0
 11  7  1  0
 22 12  1  0
 33 23  1  0
 21 18  1  0
 32 26  1  0
  3 34  1  0
  4 35  1  0
  4 36  1  0
  8 37  1  0
  8 38  1  0
  9 39  1  0
  9 40  1  0
 10 41  1  0
 10 42  1  0
 11 43  1  6
 14 44  1  0
 17 45  1  0
 17 46  1  0
 18 47  1  0
 19 48  1  0
 19 49  1  0
 20 50  1  0
 20 51  1  0
 21 52  1  0
 21 53  1  0
 24 54  1  0
 25 55  1  0
 27 56  1  0
 30 57  1  0
 31 58  1  0
M  END
>  <smiles>  (49) 
O=C(NCC(=O)N1CCC[C@H]1c1ncc(OCC2CCC2)o1)c1ccc2cc(Cl)ccc2n1

>  <score_type>  (49) 
oracle

>  <origin>  (49) 
autodockgpu

>  <m_score__min__energy>  (49) 
-8.2899999999999991

>  <m_primary>  (49) 
energy

>  <rmsd>  (49) 
7.9890229063506295

>  <m_score__min__rmsd>  (49) 
7.9890229063506295

>  <meeko>  (49) 
{"free_energy": -6.69, "intermolecular_energy": -9.07, "internal_energy": -2.25, "cluster_size": 7, "cluster_id": 3, "rank_in_cluster": 7}

>  <energy>  (49) 
-6.08

>  <cluster_rmsd>  (49) 
1.73

>  <cluster>  (49) 
13

$$$$

     RDKit          3D

 58 62  0  0  0  0  0  0  0  0999 V2000
  139.3160   73.2780  221.4460 O   0  0  0  0  0  0  0  0  0  0  0  0
  138.8080   74.3420  221.8760 C   0  0  0  0  0  0  0  0  0  0  0  0
  137.4490   74.2220  222.3550 N   0  0  0  0  0  0  0  0  0  0  0  0
  136.7070   73.0260  222.3650 C   0  0  0  0  0  0  0  0  0  0  0  0
  137.0550   71.9030  223.2030 C   0  0  0  0  0  0  0  0  0  0  0  0
  136.1310   71.6190  224.0990 O   0  0  0  0  0  0  0  0  0  0  0  0
  138.1730   71.0710  223.2510 N   0  0  0  0  0  0  0  0  0  0  0  0
  139.5950   71.2440  223.4090 C   0  0  0  0  0  0  0  0  0  0  0  0
  140.0870   70.5210  222.1470 C   0  0  0  0  0  0  0  0  0  0  0  0
  139.0560   69.4260  221.9440 C   0  0  0  0  0  0  0  0  0  0  0  0
  138.0610   69.5860  223.1030 C   0  0  1  0  0  0  0  0  0  0  0  0
  138.6360   68.8860  224.2600 C   0  0  0  0  0  0  0  0  0  0  0  0
  139.1310   67.6530  224.2370 N   0  0  0  0  0  0  0  0  0  0  0  0
  139.5560   67.3740  225.4770 C   0  0  0  0  0  0  0  0  0  0  0  0
  139.3020   68.5040  226.2950 C   0  0  0  0  0  0  0  0  0  0  0  0
  139.6360   68.4980  227.6070 O   0  0  0  0  0  0  0  0  0  0  0  0
  140.3630   69.3670  228.3860 C   0  0  0  0  0  0  0  0  0  0  0  0
  140.3590   70.7650  227.8820 C   0  0  0  0  0  0  0  0  0  0  0  0
  141.3530   71.6930  228.4880 C   0  0  0  0  0  0  0  0  0  0  0  0
  141.4090   72.4000  227.1180 C   0  0  0  0  0  0  0  0  0  0  0  0
  141.0190   71.0230  226.5400 C   0  0  0  0  0  0  0  0  0  0  0  0
  138.7560   69.3470  225.4800 O   0  0  0  0  0  0  0  0  0  0  0  0
  139.5180   75.6140  221.9000 C   0  0  0  0  0  0  0  0  0  0  0  0
  140.6570   75.7080  221.1250 C   0  0  0  0  0  0  0  0  0  0  0  0
  141.3200   76.9350  221.1630 C   0  0  0  0  0  0  0  0  0  0  0  0
  140.8550   77.9850  221.9340 C   0  0  0  0  0  0  0  0  0  0  0  0
  141.5020   79.2110  221.9830 C   0  0  0  0  0  0  0  0  0  0  0  0
  141.0020   80.2350  222.7680 C   0  0  0  0  0  0  0  0  0  0  0  0
  141.8150   81.7880  222.8350 Cl  0  0  0  0  0  0  0  0  0  0  0  0
  139.8560   80.0810  223.5230 C   0  0  0  0  0  0  0  0  0  0  0  0
  139.2030   78.8620  223.4800 C   0  0  0  0  0  0  0  0  0  0  0  0
  139.7090   77.8460  222.6940 C   0  0  0  0  0  0  0  0  0  0  0  0
  139.0820   76.6610  222.6480 N   0  0  0  0  0  0  0  0  0  0  0  0
  137.0570   75.1520  222.7080 H   0  0  0  0  0  0  0  0  0  0  0  0
  135.6798   73.3063  222.6413 H   0  0  0  0  0  0  0  0  0  0  0  0
  136.9089   72.6276  221.3597 H   0  0  0  0  0  0  0  0  0  0  0  0
  139.8804   72.3063  223.4096 H   0  0  0  0  0  0  0  0  0  0  0  0
  140.0082   70.8633  224.3547 H   0  0  0  0  0  0  0  0  0  0  0  0
  140.1099   71.2046  221.2855 H   0  0  0  0  0  0  0  0  0  0  0  0
  141.1115   70.1330  222.2464 H   0  0  0  0  0  0  0  0  0  0  0  0
  138.5455   69.5519  220.9778 H   0  0  0  0  0  0  0  0  0  0  0  0
  139.5158   68.4268  221.9333 H   0  0  0  0  0  0  0  0  0  0  0  0
  137.0355   69.2070  222.9818 H   0  0  0  0  0  0  0  0  0  0  0  0
  140.0210   66.4321  225.8035 H   0  0  0  0  0  0  0  0  0  0  0  0
  139.9387   69.3622  229.4009 H   0  0  0  0  0  0  0  0  0  0  0  0
  141.4069   69.0206  228.3668 H   0  0  0  0  0  0  0  0  0  0  0  0
  139.2769   70.9093  228.0172 H   0  0  0  0  0  0  0  0  0  0  0  0
  140.9639   72.3118  229.3100 H   0  0  0  0  0  0  0  0  0  0  0  0
  142.2596   71.3272  228.9922 H   0  0  0  0  0  0  0  0  0  0  0  0
  140.6647   73.1966  226.9718 H   0  0  0  0  0  0  0  0  0  0  0  0
  142.2852   72.9682  226.7726 H   0  0  0  0  0  0  0  0  0  0  0  0
  140.3305   71.0572  225.6828 H   0  0  0  0  0  0  0  0  0  0  0  0
  141.7571   70.3350  226.1020 H   0  0  0  0  0  0  0  0  0  0  0  0
  141.0193   74.8672  220.5152 H   0  0  0  0  0  0  0  0  0  0  0  0
  142.2338   77.0705  220.5659 H   0  0  0  0  0  0  0  0  0  0  0  0
  142.4176   79.3701  221.3946 H   0  0  0  0  0  0  0  0  0  0  0  0
  139.4726   80.9055  224.1420 H   0  0  0  0  0  0  0  0  0  0  0  0
  138.2870   78.7034  224.0680 H   0  0  0  0  0  0  0  0  0  0  0  0
  1  2  2  0
  2  3  1  0
  3  4  1  0
  4  5  1  0
  5  6  2  0
  5  7  1  0
  7  8  1  0
  8  9  1  0
  9 10  1  0
 10 11  1  0
 11 12  1  0
 12 13  2  0
 13 14  1  0
 14 15  2  0
 15 16  1  0
 16 17  1  0
 17 18  1  0
 18 19  1  0
 19 20  1  0
 20 21  1  0
 15 22  1  0
  2 23  1  0
 23 24  2  0
 24 25  1  0
 25 26  2  0
 26 27  1  0
 27 28  2  0
 28 29  1  0
 28 30  1  0
 30 31  2  0
 31 32  1  0
 32 33  2  0
 11  7  1  0
 22 12  1  0
 33 23  1  0
 21 18  1  0
 32 26  1  0
  3 34  1  0
  4 35  1  0
  4 36  1  0
  8 37  1  0
  8 38  1  0
  9 39  1  0
  9 40  1  0
 10 41  1  0
 10 42  1  0
 11 43  1  6
 14 44  1  0
 17 45  1  0
 17 46  1  0
 18 47  1  0
 19 48  1  0
 19 49  1  0
 20 50  1  0
 20 51  1  0
 21 52  1  0
 21 53  1  0
 24 54  1  0
 25 55  1  0
 27 56  1  0
 30 57  1  0
 31 58  1  0
M  END
>  <smiles>  (50) 
O=C(NCC(=O)N1CCC[C@H]1c1ncc(OCC2CCC2)o1)c1ccc2cc(Cl)ccc2n1

>  <score_type>  (50) 
oracle

>  <origin>  (50) 
autodockgpu

>  <m_score__min__energy>  (50) 
-8.2899999999999991

>  <m_primary>  (50) 
energy

>  <rmsd>  (50) 
8.349997885163479

>  <m_score__min__rmsd>  (50) 
8.349997885163479

>  <meeko>  (50) 
{"free_energy": -7.54, "intermolecular_energy": -9.93, "internal_energy": -2.18, "cluster_size": 7, "cluster_id": 3, "rank_in_cluster": 5}

>  <energy>  (50) 
-5.69

>  <cluster_rmsd>  (50) 
0.0

>  <cluster>  (50) 
14

$$$$
