
     RDKit          3D

 54 56  0  0  0  0  0  0  0  0999 V2000
  135.8220   70.7540  224.2290 C   0  0  0  0  0  0  0  0  0  0  0  0
  136.2070   72.3440  223.4610 S   0  0  0  0  0  0  0  0  0  0  0  0
  134.9850   73.5820  223.9790 C   0  0  0  0  0  0  0  0  0  0  0  0
  135.2280   74.8310  223.1660 C   0  0  0  0  0  0  0  0  0  0  0  0
  136.5170   75.5170  223.4510 C   0  0  0  0  0  0  0  0  0  0  0  0
  137.4940   75.5740  222.3220 C   0  0  2  0  0  0  0  0  0  0  0  0
  138.1080   74.2540  222.0790 N   0  0  0  0  0  0  0  0  0  0  0  0
  137.9920   73.6100  220.8180 C   0  0  0  0  0  0  0  0  0  0  0  0
  137.3410   74.2200  219.9280 O   0  0  0  0  0  0  0  0  0  0  0  0
  138.5910   72.2820  220.5220 C   0  0  0  0  0  0  0  0  0  0  0  0
  138.8000   71.5990  221.7860 N   0  0  0  0  0  0  0  0  0  0  0  0
  139.8350   71.9980  222.6810 C   0  0  0  0  0  0  0  0  0  0  0  0
  140.6000   72.9690  222.3780 O   0  0  0  0  0  0  0  0  0  0  0  0
  140.0240   71.2980  223.9480 C   0  0  0  0  0  0  0  0  0  0  0  0
  140.7190   71.9080  224.9710 C   0  0  0  0  0  0  0  0  0  0  0  0
  140.9380   71.3100  226.1940 C   0  0  0  0  0  0  0  0  0  0  0  0
  140.4310   70.0410  226.3860 C   0  0  0  0  0  0  0  0  0  0  0  0
  140.6500   69.4440  227.6090 C   0  0  0  0  0  0  0  0  0  0  0  0
  140.1420   68.1710  227.8070 C   0  0  0  0  0  0  0  0  0  0  0  0
  139.4420   67.5430  226.7900 C   0  0  0  0  0  0  0  0  0  0  0  0
  139.2360   68.1570  225.5790 C   0  0  0  0  0  0  0  0  0  0  0  0
  139.7340   69.4280  225.3590 C   0  0  0  0  0  0  0  0  0  0  0  0
  139.5520   70.0620  224.1870 N   0  0  0  0  0  0  0  0  0  0  0  0
  138.5370   76.6060  222.5020 C   0  0  0  0  0  0  0  0  0  0  0  0
  139.8670   76.2140  222.3530 C   0  0  0  0  0  0  0  0  0  0  0  0
  140.8910   77.1390  222.5070 C   0  0  0  0  0  0  0  0  0  0  0  0
  140.6210   78.4590  222.8110 C   0  0  0  0  0  0  0  0  0  0  0  0
  139.3000   78.8400  222.9590 C   0  0  0  0  0  0  0  0  0  0  0  0
  138.2840   77.9240  222.8050 C   0  0  0  0  0  0  0  0  0  0  0  0
  135.8476   70.8598  225.3236 H   0  0  0  0  0  0  0  0  0  0  0  0
  134.8191   70.4286  223.9154 H   0  0  0  0  0  0  0  0  0  0  0  0
  136.5650   70.0059  223.9154 H   0  0  0  0  0  0  0  0  0  0  0  0
  133.9681   73.2057  223.7937 H   0  0  0  0  0  0  0  0  0  0  0  0
  135.0828   73.7954  225.0537 H   0  0  0  0  0  0  0  0  0  0  0  0
  135.2149   74.5548  222.1013 H   0  0  0  0  0  0  0  0  0  0  0  0
  134.4319   75.5393  223.4391 H   0  0  0  0  0  0  0  0  0  0  0  0
  136.2888   76.5505  223.7507 H   0  0  0  0  0  0  0  0  0  0  0  0
  137.0044   74.9175  224.2340 H   0  0  0  0  0  0  0  0  0  0  0  0
  136.9121   75.8656  221.4352 H   0  0  0  0  0  0  0  0  0  0  0  0
  138.6410   73.7800  222.8430 H   0  0  0  0  0  0  0  0  0  0  0  0
  137.9087   71.6964  219.8883 H   0  0  0  0  0  0  0  0  0  0  0  0
  139.5446   72.4008  219.9866 H   0  0  0  0  0  0  0  0  0  0  0  0
  138.2090   70.7890  222.1030 H   0  0  0  0  0  0  0  0  0  0  0  0
  141.1175   72.9195  224.8034 H   0  0  0  0  0  0  0  0  0  0  0  0
  141.4970   71.8262  226.9884 H   0  0  0  0  0  0  0  0  0  0  0  0
  141.2099   69.9618  228.4017 H   0  0  0  0  0  0  0  0  0  0  0  0
  140.2939   67.6600  228.7692 H   0  0  0  0  0  0  0  0  0  0  0  0
  139.0428   66.5315  226.9558 H   0  0  0  0  0  0  0  0  0  0  0  0
  138.6763   67.6391  224.7862 H   0  0  0  0  0  0  0  0  0  0  0  0
  140.1059   75.1675  222.1124 H   0  0  0  0  0  0  0  0  0  0  0  0
  141.9351   76.8150  222.3848 H   0  0  0  0  0  0  0  0  0  0  0  0
  141.4356   79.1882  222.9322 H   0  0  0  0  0  0  0  0  0  0  0  0
  139.0586   79.8853  223.2022 H   0  0  0  0  0  0  0  0  0  0  0  0
  137.2420   78.2546  222.9274 H   0  0  0  0  0  0  0  0  0  0  0  0
  1  2  1  0
  2  3  1  0
  3  4  1  0
  4  5  1  0
  5  6  1  0
  6  7  1  0
  7  8  1  0
  8  9  2  0
  8 10  1  0
 10 11  1  0
 11 12  1  0
 12 13  2  0
 12 14  1  0
 14 15  2  0
 15 16  1  0
 16 17  2  0
 17 18  1  0
 18 19  2  0
 19 20  1  0
 20 21  2  0
 21 22  1  0
 22 23  2  0
  6 24  1  0
 24 25  2  0
 25 26  1  0
 26 27  2  0
 27 28  1  0
 28 29  2  0
 23 14  1  0
 29 24  1  0
 22 17  1  0
  1 30  1  0
  1 31  1  0
  1 32  1  0
  3 33  1  0
  3 34  1  0
  4 35  1  0
  4 36  1  0
  5 37  1  0
  5 38  1  0
  6 39  1  6
  7 40  1  0
 10 41  1  0
 10 42  1  0
 11 43  1  0
 15 44  1  0
 16 45  1  0
 18 46  1  0
 19 47  1  0
 20 48  1  0
 21 49  1  0
 25 50  1  0
 26 51  1  0
 27 52  1  0
 28 53  1  0
 29 54  1  0
M  END
>  <smiles>  (1) 
CSCCC[C@H](NC(=O)CNC(=O)c1ccc2ccccc2n1)c1ccccc1

>  <score_type>  (1) 
oracle

>  <origin>  (1) 
autodockgpu

>  <m_score__min__energy>  (1) 
-8.7400000000000002

>  <m_primary>  (1) 
energy

>  <rmsd>  (1) 
4.775621573955161

>  <m_score__min__rmsd>  (1) 
4.775621573955161

>  <meeko>  (1) 
{"free_energy": -6.94, "intermolecular_energy": -9.63, "internal_energy": -3.14, "cluster_size": 6, "cluster_id": 7, "rank_in_cluster": 6}

>  <energy>  (1) 
-8.74

>  <cluster_rmsd>  (1) 
0.0

>  <cluster>  (1) 
1

$$$$

     RDKit          3D

 54 56  0  0  0  0  0  0  0  0999 V2000
  142.8570   80.4980  223.4980 C   0  0  0  0  0  0  0  0  0  0  0  0
  141.8230   79.0510  223.8200 S   0  0  0  0  0  0  0  0  0  0  0  0
  140.2010   79.2750  223.0360 C   0  0  0  0  0  0  0  0  0  0  0  0
  140.0610   78.2160  221.9690 C   0  0  0  0  0  0  0  0  0  0  0  0
  139.8420   76.8390  222.4850 C   0  0  0  0  0  0  0  0  0  0  0  0
  139.7430   75.7600  221.4570 C   0  0  2  0  0  0  0  0  0  0  0  0
  138.8940   74.6480  221.9270 N   0  0  0  0  0  0  0  0  0  0  0  0
  137.6280   74.3900  221.3370 C   0  0  0  0  0  0  0  0  0  0  0  0
  137.2720   75.1540  220.4000 O   0  0  0  0  0  0  0  0  0  0  0  0
  136.7350   73.2840  221.7730 C   0  0  0  0  0  0  0  0  0  0  0  0
  137.3750   72.6130  222.8910 N   0  0  0  0  0  0  0  0  0  0  0  0
  138.6090   71.9190  222.7290 C   0  0  0  0  0  0  0  0  0  0  0  0
  139.1710   71.8750  221.5880 O   0  0  0  0  0  0  0  0  0  0  0  0
  139.2350   71.2540  223.8680 C   0  0  0  0  0  0  0  0  0  0  0  0
  140.2910   71.8560  224.5180 C   0  0  0  0  0  0  0  0  0  0  0  0
  140.9330   71.2910  225.6000 C   0  0  0  0  0  0  0  0  0  0  0  0
  140.4820   70.0630  226.0400 C   0  0  0  0  0  0  0  0  0  0  0  0
  141.1230   69.4980  227.1210 C   0  0  0  0  0  0  0  0  0  0  0  0
  140.6740   68.2670  227.5680 C   0  0  0  0  0  0  0  0  0  0  0  0
  139.6140   67.6460  226.9270 C   0  0  0  0  0  0  0  0  0  0  0  0
  138.9900   68.2280  225.8500 C   0  0  0  0  0  0  0  0  0  0  0  0
  139.4220   69.4570  225.3880 C   0  0  0  0  0  0  0  0  0  0  0  0
  138.8360   70.0590  224.3380 N   0  0  0  0  0  0  0  0  0  0  0  0
  141.0590   75.2540  221.0110 C   0  0  0  0  0  0  0  0  0  0  0  0
  141.8930   76.1370  220.3250 C   0  0  0  0  0  0  0  0  0  0  0  0
  143.1420   75.7210  219.8840 C   0  0  0  0  0  0  0  0  0  0  0  0
  143.5860   74.4330  220.1110 C   0  0  0  0  0  0  0  0  0  0  0  0
  142.7540   73.5630  220.7900 C   0  0  0  0  0  0  0  0  0  0  0  0
  141.5160   73.9740  221.2290 C   0  0  0  0  0  0  0  0  0  0  0  0
  143.1742   80.9419  224.4532 H   0  0  0  0  0  0  0  0  0  0  0  0
  143.7438   80.1942  222.9224 H   0  0  0  0  0  0  0  0  0  0  0  0
  142.2823   81.2386  222.9224 H   0  0  0  0  0  0  0  0  0  0  0  0
  139.4033   79.1611  223.7848 H   0  0  0  0  0  0  0  0  0  0  0  0
  140.1192   80.2801  222.5966 H   0  0  0  0  0  0  0  0  0  0  0  0
  139.2053   78.4831  221.3314 H   0  0  0  0  0  0  0  0  0  0  0  0
  141.0167   78.1953  221.4247 H   0  0  0  0  0  0  0  0  0  0  0  0
  140.6817   76.5923  223.1513 H   0  0  0  0  0  0  0  0  0  0  0  0
  138.8618   76.8628  222.9837 H   0  0  0  0  0  0  0  0  0  0  0  0
  139.2690   76.2243  220.5797 H   0  0  0  0  0  0  0  0  0  0  0  0
  139.2240   74.0360  222.7070 H   0  0  0  0  0  0  0  0  0  0  0  0
  135.7621   73.6899  222.0871 H   0  0  0  0  0  0  0  0  0  0  0  0
  136.5650   72.5781  220.9467 H   0  0  0  0  0  0  0  0  0  0  0  0
  136.9690   72.6060  223.8610 H   0  0  0  0  0  0  0  0  0  0  0  0
  140.6386   72.8349  224.1561 H   0  0  0  0  0  0  0  0  0  0  0  0
  141.7735   71.8003  226.0941 H   0  0  0  0  0  0  0  0  0  0  0  0
  141.9641   70.0084  227.6129 H   0  0  0  0  0  0  0  0  0  0  0  0
  141.1574   67.7833  228.4296 H   0  0  0  0  0  0  0  0  0  0  0  0
  139.2650   66.6672  227.2877 H   0  0  0  0  0  0  0  0  0  0  0  0
  138.1495   67.7175  225.3571 H   0  0  0  0  0  0  0  0  0  0  0  0
  141.5596   77.1675  220.1326 H   0  0  0  0  0  0  0  0  0  0  0  0
  143.7887   76.4289  219.3449 H   0  0  0  0  0  0  0  0  0  0  0  0
  144.5766   74.1079  219.7603 H   0  0  0  0  0  0  0  0  0  0  0  0
  143.0846   72.5315  220.9815 H   0  0  0  0  0  0  0  0  0  0  0  0
  140.8750   73.2610  221.7682 H   0  0  0  0  0  0  0  0  0  0  0  0
  1  2  1  0
  2  3  1  0
  3  4  1  0
  4  5  1  0
  5  6  1  0
  6  7  1  0
  7  8  1  0
  8  9  2  0
  8 10  1  0
 10 11  1  0
 11 12  1  0
 12 13  2  0
 12 14  1  0
 14 15  2  0
 15 16  1  0
 16 17  2  0
 17 18  1  0
 18 19  2  0
 19 20  1  0
 20 21  2  0
 21 22  1  0
 22 23  2  0
  6 24  1  0
 24 25  2  0
 25 26  1  0
 26 27  2  0
 27 28  1  0
 28 29  2  0
 23 14  1  0
 29 24  1  0
 22 17  1  0
  1 30  1  0
  1 31  1  0
  1 32  1  0
  3 33  1  0
  3 34  1  0
  4 35  1  0
  4 36  1  0
  5 37  1  0
  5 38  1  0
  6 39  1  6
  7 40  1  0
 10 41  1  0
 10 42  1  0
 11 43  1  0
 15 44  1  0
 16 45  1  0
 18 46  1  0
 19 47  1  0
 20 48  1  0
 21 49  1  0
 25 50  1  0
 26 51  1  0
 27 52  1  0
 28 53  1  0
 29 54  1  0
M  END
>  <smiles>  (2) 
CSCCC[C@H](NC(=O)CNC(=O)c1ccc2ccccc2n1)c1ccccc1

>  <score_type>  (2) 
oracle

>  <origin>  (2) 
autodockgpu

>  <m_score__min__energy>  (2) 
-8.7400000000000002

>  <m_primary>  (2) 
energy

>  <rmsd>  (2) 
5.4357306542026285

>  <m_score__min__rmsd>  (2) 
5.4357306542026285

>  <meeko>  (2) 
{"free_energy": -7.81, "intermolecular_energy": -10.5, "internal_energy": -2.01, "cluster_size": 17, "cluster_id": 2, "rank_in_cluster": 15}

>  <energy>  (2) 
-8.73

>  <cluster_rmsd>  (2) 
0.81

>  <cluster>  (2) 
1

$$$$

     RDKit          3D

 54 56  0  0  0  0  0  0  0  0999 V2000
  143.8080   74.9940  219.8540 C   0  0  0  0  0  0  0  0  0  0  0  0
  142.7760   75.1910  218.3840 S   0  0  0  0  0  0  0  0  0  0  0  0
  143.0430   76.8380  217.6680 C   0  0  0  0  0  0  0  0  0  0  0  0
  141.8410   77.6850  218.0120 C   0  0  0  0  0  0  0  0  0  0  0  0
  141.9620   78.4460  219.2840 C   0  0  0  0  0  0  0  0  0  0  0  0
  141.7230   77.6700  220.5390 C   0  0  2  0  0  0  0  0  0  0  0  0
  140.7890   76.5520  220.3070 N   0  0  0  0  0  0  0  0  0  0  0  0
  140.5980   75.5390  221.2840 C   0  0  0  0  0  0  0  0  0  0  0  0
  141.2640   75.6450  222.3490 O   0  0  0  0  0  0  0  0  0  0  0  0
  139.6690   74.3920  221.1000 C   0  0  0  0  0  0  0  0  0  0  0  0
  139.7030   73.5950  222.3130 N   0  0  0  0  0  0  0  0  0  0  0  0
  139.9110   72.1860  222.2670 C   0  0  0  0  0  0  0  0  0  0  0  0
  140.0680   71.6010  221.1470 O   0  0  0  0  0  0  0  0  0  0  0  0
  139.9440   71.4050  223.5000 C   0  0  0  0  0  0  0  0  0  0  0  0
  139.4600   70.1140  223.5070 C   0  0  0  0  0  0  0  0  0  0  0  0
  139.4570   69.3160  224.6320 C   0  0  0  0  0  0  0  0  0  0  0  0
  139.9680   69.8520  225.7970 C   0  0  0  0  0  0  0  0  0  0  0  0
  139.9660   69.0540  226.9210 C   0  0  0  0  0  0  0  0  0  0  0  0
  140.4770   69.5850  228.0920 C   0  0  0  0  0  0  0  0  0  0  0  0
  140.9680   70.8810  228.1040 C   0  0  0  0  0  0  0  0  0  0  0  0
  140.9590   71.6590  226.9720 C   0  0  0  0  0  0  0  0  0  0  0  0
  140.4530   71.1480  225.7910 C   0  0  0  0  0  0  0  0  0  0  0  0
  140.4290   71.8780  224.6620 N   0  0  0  0  0  0  0  0  0  0  0  0
  141.2600   78.5070  221.6650 C   0  0  0  0  0  0  0  0  0  0  0  0
  142.2220   79.2240  222.3770 C   0  0  0  0  0  0  0  0  0  0  0  0
  141.8470   80.0300  223.4440 C   0  0  0  0  0  0  0  0  0  0  0  0
  140.5250   80.1400  223.8250 C   0  0  0  0  0  0  0  0  0  0  0  0
  139.5760   79.4260  223.1160 C   0  0  0  0  0  0  0  0  0  0  0  0
  139.9460   78.6270  222.0570 C   0  0  0  0  0  0  0  0  0  0  0  0
  143.1886   75.1122  220.7553 H   0  0  0  0  0  0  0  0  0  0  0  0
  144.2634   73.9927  219.8508 H   0  0  0  0  0  0  0  0  0  0  0  0
  144.6002   75.7571  219.8508 H   0  0  0  0  0  0  0  0  0  0  0  0
  143.9529   77.2882  218.0915 H   0  0  0  0  0  0  0  0  0  0  0  0
  143.1684   76.7697  216.5773 H   0  0  0  0  0  0  0  0  0  0  0  0
  141.6839   78.4050  217.1953 H   0  0  0  0  0  0  0  0  0  0  0  0
  140.9983   76.9904  218.1438 H   0  0  0  0  0  0  0  0  0  0  0  0
  142.9802   78.8593  219.3330 H   0  0  0  0  0  0  0  0  0  0  0  0
  141.1677   79.2063  219.2505 H   0  0  0  0  0  0  0  0  0  0  0  0
  142.7019   77.2621  220.8311 H   0  0  0  0  0  0  0  0  0  0  0  0
  140.2540   76.4980  219.4100 H   0  0  0  0  0  0  0  0  0  0  0  0
  138.6481   74.7618  220.9236 H   0  0  0  0  0  0  0  0  0  0  0  0
  139.9728   73.7864  220.2335 H   0  0  0  0  0  0  0  0  0  0  0  0
  139.5800   74.0080  223.2720 H   0  0  0  0  0  0  0  0  0  0  0  0
  139.0570   69.7007  222.5706 H   0  0  0  0  0  0  0  0  0  0  0  0
  139.0618   68.2899  224.6020 H   0  0  0  0  0  0  0  0  0  0  0  0
  139.5708   68.0280  226.8880 H   0  0  0  0  0  0  0  0  0  0  0  0
  140.4935   68.9803  229.0107 H   0  0  0  0  0  0  0  0  0  0  0  0
  141.3732   71.2950  229.0391 H   0  0  0  0  0  0  0  0  0  0  0  0
  141.3531   72.6854  227.0049 H   0  0  0  0  0  0  0  0  0  0  0  0
  143.2819   79.1506  222.0921 H   0  0  0  0  0  0  0  0  0  0  0  0
  142.6168   80.5903  223.9949 H   0  0  0  0  0  0  0  0  0  0  0  0
  140.2334   80.7794  224.6712 H   0  0  0  0  0  0  0  0  0  0  0  0
  138.5158   79.4970  223.4006 H   0  0  0  0  0  0  0  0  0  0  0  0
  139.1710   78.0700  221.5100 H   0  0  0  0  0  0  0  0  0  0  0  0
  1  2  1  0
  2  3  1  0
  3  4  1  0
  4  5  1  0
  5  6  1  0
  6  7  1  0
  7  8  1  0
  8  9  2  0
  8 10  1  0
 10 11  1  0
 11 12  1  0
 12 13  2  0
 12 14  1  0
 14 15  2  0
 15 16  1  0
 16 17  2  0
 17 18  1  0
 18 19  2  0
 19 20  1  0
 20 21  2  0
 21 22  1  0
 22 23  2  0
  6 24  1  0
 24 25  2  0
 25 26  1  0
 26 27  2  0
 27 28  1  0
 28 29  2  0
 23 14  1  0
 29 24  1  0
 22 17  1  0
  1 30  1  0
  1 31  1  0
  1 32  1  0
  3 33  1  0
  3 34  1  0
  4 35  1  0
  4 36  1  0
  5 37  1  0
  5 38  1  0
  6 39  1  1
  7 40  1  0
 10 41  1  0
 10 42  1  0
 11 43  1  0
 15 44  1  0
 16 45  1  0
 18 46  1  0
 19 47  1  0
 20 48  1  0
 21 49  1  0
 25 50  1  0
 26 51  1  0
 27 52  1  0
 28 53  1  0
 29 54  1  0
M  END
>  <smiles>  (3) 
CSCCC[C@H](NC(=O)CNC(=O)c1ccc2ccccc2n1)c1ccccc1

>  <score_type>  (3) 
oracle

>  <origin>  (3) 
autodockgpu

>  <m_score__min__energy>  (3) 
-8.7400000000000002

>  <m_primary>  (3) 
energy

>  <rmsd>  (3) 
4.066811659379175

>  <m_score__min__rmsd>  (3) 
4.066811659379175

>  <meeko>  (3) 
{"free_energy": -8.0, "intermolecular_energy": -10.69, "internal_energy": -2.02, "cluster_size": 20, "cluster_id": 1, "rank_in_cluster": 13}

>  <energy>  (3) 
-8.68

>  <cluster_rmsd>  (3) 
0.83

>  <cluster>  (3) 
1

$$$$

     RDKit          3D

 54 56  0  0  0  0  0  0  0  0999 V2000
  143.8300   74.8720  220.0570 C   0  0  0  0  0  0  0  0  0  0  0  0
  142.9630   75.1850  218.5020 S   0  0  0  0  0  0  0  0  0  0  0  0
  143.2950   76.8830  217.9510 C   0  0  0  0  0  0  0  0  0  0  0  0
  141.9770   77.6200  217.9260 C   0  0  0  0  0  0  0  0  0  0  0  0
  141.6530   78.3560  219.1780 C   0  0  0  0  0  0  0  0  0  0  0  0
  141.5590   77.5300  220.4190 C   0  0  2  0  0  0  0  0  0  0  0  0
  140.7330   76.3270  220.2010 N   0  0  0  0  0  0  0  0  0  0  0  0
  140.5020   75.3940  221.2470 C   0  0  0  0  0  0  0  0  0  0  0  0
  141.0370   75.6470  222.3600 O   0  0  0  0  0  0  0  0  0  0  0  0
  139.6790   74.1680  221.0790 C   0  0  0  0  0  0  0  0  0  0  0  0
  139.7170   73.4330  222.3310 N   0  0  0  0  0  0  0  0  0  0  0  0
  139.9700   72.0310  222.3590 C   0  0  0  0  0  0  0  0  0  0  0  0
  140.1640   71.3960  221.2730 O   0  0  0  0  0  0  0  0  0  0  0  0
  140.0060   71.3140  223.6300 C   0  0  0  0  0  0  0  0  0  0  0  0
  139.5350   70.0200  223.7010 C   0  0  0  0  0  0  0  0  0  0  0  0
  139.5360   69.2800  224.8650 C   0  0  0  0  0  0  0  0  0  0  0  0
  140.0380   69.8790  226.0030 C   0  0  0  0  0  0  0  0  0  0  0  0
  140.0400   69.1390  227.1650 C   0  0  0  0  0  0  0  0  0  0  0  0
  140.5430   69.7340  228.3100 C   0  0  0  0  0  0  0  0  0  0  0  0
  141.0210   71.0330  228.2570 C   0  0  0  0  0  0  0  0  0  0  0  0
  141.0080   71.7520  227.0870 C   0  0  0  0  0  0  0  0  0  0  0  0
  140.5110   71.1780  225.9320 C   0  0  0  0  0  0  0  0  0  0  0  0
  140.4840   71.8490  224.7670 N   0  0  0  0  0  0  0  0  0  0  0  0
  141.0710   78.2880  221.5910 C   0  0  0  0  0  0  0  0  0  0  0  0
  139.7030   78.5520  221.6670 C   0  0  0  0  0  0  0  0  0  0  0  0
  139.1840   79.2570  222.7440 C   0  0  0  0  0  0  0  0  0  0  0  0
  140.0030   79.7130  223.7590 C   0  0  0  0  0  0  0  0  0  0  0  0
  141.3570   79.4490  223.6770 C   0  0  0  0  0  0  0  0  0  0  0  0
  141.8730   78.7490  222.6100 C   0  0  0  0  0  0  0  0  0  0  0  0
  143.1667   75.1114  220.9013 H   0  0  0  0  0  0  0  0  0  0  0  0
  144.1205   73.8123  220.1080 H   0  0  0  0  0  0  0  0  0  0  0  0
  144.7304   75.5018  220.1080 H   0  0  0  0  0  0  0  0  0  0  0  0
  143.9872   77.3756  218.6497 H   0  0  0  0  0  0  0  0  0  0  0  0
  143.7566   76.8822  216.9525 H   0  0  0  0  0  0  0  0  0  0  0  0
  142.0056   78.3454  217.0996 H   0  0  0  0  0  0  0  0  0  0  0  0
  141.1956   76.8556  217.8036 H   0  0  0  0  0  0  0  0  0  0  0  0
  142.4361   79.1122  219.3358 H   0  0  0  0  0  0  0  0  0  0  0  0
  140.6472   78.7739  219.0238 H   0  0  0  0  0  0  0  0  0  0  0  0
  142.5883   77.2185  220.6504 H   0  0  0  0  0  0  0  0  0  0  0  0
  140.3070   76.1520  219.2620 H   0  0  0  0  0  0  0  0  0  0  0  0
  138.6417   74.4437  220.8382 H   0  0  0  0  0  0  0  0  0  0  0  0
  140.0729   73.5502  220.2586 H   0  0  0  0  0  0  0  0  0  0  0  0
  139.5650   73.8890  223.2660 H   0  0  0  0  0  0  0  0  0  0  0  0
  139.1396   69.5557  222.7856 H   0  0  0  0  0  0  0  0  0  0  0  0
  139.1507   68.2499  224.8858 H   0  0  0  0  0  0  0  0  0  0  0  0
  139.6546   68.1089  227.1828 H   0  0  0  0  0  0  0  0  0  0  0  0
  140.5629   69.1769  229.2583 H   0  0  0  0  0  0  0  0  0  0  0  0
  141.4192   71.4982  229.1708 H   0  0  0  0  0  0  0  0  0  0  0  0
  141.3923   72.7825  227.0691 H   0  0  0  0  0  0  0  0  0  0  0  0
  139.0325   78.1996  220.8693 H   0  0  0  0  0  0  0  0  0  0  0  0
  138.1031   79.4559  222.7902 H   0  0  0  0  0  0  0  0  0  0  0  0
  139.5879   80.2719  224.6106 H   0  0  0  0  0  0  0  0  0  0  0  0
  142.0295   79.8019  224.4728 H   0  0  0  0  0  0  0  0  0  0  0  0
  142.9547   78.5529  222.5708 H   0  0  0  0  0  0  0  0  0  0  0  0
  1  2  1  0
  2  3  1  0
  3  4  1  0
  4  5  1  0
  5  6  1  0
  6  7  1  0
  7  8  1  0
  8  9  2  0
  8 10  1  0
 10 11  1  0
 11 12  1  0
 12 13  2  0
 12 14  1  0
 14 15  2  0
 15 16  1  0
 16 17  2  0
 17 18  1  0
 18 19  2  0
 19 20  1  0
 20 21  2  0
 21 22  1  0
 22 23  2  0
  6 24  1  0
 24 25  2  0
 25 26  1  0
 26 27  2  0
 27 28  1  0
 28 29  2  0
 23 14  1  0
 29 24  1  0
 22 17  1  0
  1 30  1  0
  1 31  1  0
  1 32  1  0
  3 33  1  0
  3 34  1  0
  4 35  1  0
  4 36  1  0
  5 37  1  0
  5 38  1  0
  6 39  1  1
  7 40  1  0
 10 41  1  0
 10 42  1  0
 11 43  1  0
 15 44  1  0
 16 45  1  0
 18 46  1  0
 19 47  1  0
 20 48  1  0
 21 49  1  0
 25 50  1  0
 26 51  1  0
 27 52  1  0
 28 53  1  0
 29 54  1  0
M  END
>  <smiles>  (4) 
CSCCC[C@H](NC(=O)CNC(=O)c1ccc2ccccc2n1)c1ccccc1

>  <score_type>  (4) 
oracle

>  <origin>  (4) 
autodockgpu

>  <m_score__min__energy>  (4) 
-8.7400000000000002

>  <m_primary>  (4) 
energy

>  <rmsd>  (4) 
4.057777197365998

>  <m_score__min__rmsd>  (4) 
4.057777197365998

>  <meeko>  (4) 
{"free_energy": -7.97, "intermolecular_energy": -10.66, "internal_energy": -2.04, "cluster_size": 20, "cluster_id": 1, "rank_in_cluster": 14}

>  <energy>  (4) 
-8.61

>  <cluster_rmsd>  (4) 
0.81

>  <cluster>  (4) 
1

$$$$

     RDKit          3D

 54 56  0  0  0  0  0  0  0  0999 V2000
  135.8910   70.9510  224.2090 C   0  0  0  0  0  0  0  0  0  0  0  0
  136.2520   72.4830  223.3220 S   0  0  0  0  0  0  0  0  0  0  0  0
  135.4180   73.8720  224.1410 C   0  0  0  0  0  0  0  0  0  0  0  0
  135.5040   75.0640  223.2180 C   0  0  0  0  0  0  0  0  0  0  0  0
  136.6840   75.9410  223.4450 C   0  0  0  0  0  0  0  0  0  0  0  0
  137.6590   76.0340  222.3170 C   0  0  2  0  0  0  0  0  0  0  0  0
  138.2530   74.7180  222.0130 N   0  0  0  0  0  0  0  0  0  0  0  0
  138.2030   74.1740  220.7020 C   0  0  0  0  0  0  0  0  0  0  0  0
  137.6300   74.8700  219.8210 O   0  0  0  0  0  0  0  0  0  0  0  0
  138.7850   72.8540  220.3440 C   0  0  0  0  0  0  0  0  0  0  0  0
  138.8430   72.0530  221.5530 N   0  0  0  0  0  0  0  0  0  0  0  0
  139.8190   72.3040  222.5620 C   0  0  0  0  0  0  0  0  0  0  0  0
  140.6640   73.2440  222.4110 O   0  0  0  0  0  0  0  0  0  0  0  0
  139.8560   71.4870  223.7700 C   0  0  0  0  0  0  0  0  0  0  0  0
  139.2790   70.2340  223.7700 C   0  0  0  0  0  0  0  0  0  0  0  0
  139.2740   69.4060  224.8710 C   0  0  0  0  0  0  0  0  0  0  0  0
  139.8810   69.8680  226.0220 C   0  0  0  0  0  0  0  0  0  0  0  0
  139.8760   69.0390  227.1230 C   0  0  0  0  0  0  0  0  0  0  0  0
  140.4840   69.4970  228.2790 C   0  0  0  0  0  0  0  0  0  0  0  0
  141.0700   70.7530  228.2990 C   0  0  0  0  0  0  0  0  0  0  0  0
  141.0620   71.5620  227.1890 C   0  0  0  0  0  0  0  0  0  0  0  0
  140.4600   71.1250  226.0240 C   0  0  0  0  0  0  0  0  0  0  0  0
  140.4340   71.8880  224.9170 N   0  0  0  0  0  0  0  0  0  0  0  0
  138.7180   77.0410  222.5400 C   0  0  0  0  0  0  0  0  0  0  0  0
  140.0410   76.6450  222.3390 C   0  0  0  0  0  0  0  0  0  0  0  0
  141.0790   77.5470  222.5300 C   0  0  0  0  0  0  0  0  0  0  0  0
  140.8300   78.8480  222.9230 C   0  0  0  0  0  0  0  0  0  0  0  0
  139.5180   79.2330  223.1220 C   0  0  0  0  0  0  0  0  0  0  0  0
  138.4880   78.3400  222.9320 C   0  0  0  0  0  0  0  0  0  0  0  0
  135.9345   71.1357  225.2925 H   0  0  0  0  0  0  0  0  0  0  0  0
  134.8852   70.5983  223.9373 H   0  0  0  0  0  0  0  0  0  0  0  0
  136.6336   70.1863  223.9373 H   0  0  0  0  0  0  0  0  0  0  0  0
  134.3643   73.6186  224.3294 H   0  0  0  0  0  0  0  0  0  0  0  0
  135.8962   74.0952  225.1061 H   0  0  0  0  0  0  0  0  0  0  0  0
  135.5460   74.6938  222.1830 H   0  0  0  0  0  0  0  0  0  0  0  0
  134.6153   75.6795  223.4212 H   0  0  0  0  0  0  0  0  0  0  0  0
  136.3138   76.9555  223.6540 H   0  0  0  0  0  0  0  0  0  0  0  0
  137.2376   75.4827  224.2777 H   0  0  0  0  0  0  0  0  0  0  0  0
  137.0789   76.3736  221.4463 H   0  0  0  0  0  0  0  0  0  0  0  0
  138.7200   74.1710  222.7720 H   0  0  0  0  0  0  0  0  0  0  0  0
  138.1514   72.3562  219.5952 H   0  0  0  0  0  0  0  0  0  0  0  0
  139.7911   72.9802  219.9176 H   0  0  0  0  0  0  0  0  0  0  0  0
  138.1800   71.2600  221.7460 H   0  0  0  0  0  0  0  0  0  0  0  0
  138.7996   69.8787  222.8459 H   0  0  0  0  0  0  0  0  0  0  0  0
  138.8033   68.4124  224.8345 H   0  0  0  0  0  0  0  0  0  0  0  0
  139.4043   68.0460  227.0843 H   0  0  0  0  0  0  0  0  0  0  0  0
  140.5021   68.8658  229.1797 H   0  0  0  0  0  0  0  0  0  0  0  0
  141.5510   71.1089  229.2220 H   0  0  0  0  0  0  0  0  0  0  0  0
  141.5335   72.5551  227.2271 H   0  0  0  0  0  0  0  0  0  0  0  0
  140.2624   75.6134  222.0278 H   0  0  0  0  0  0  0  0  0  0  0  0
  142.1165   77.2206  222.3658 H   0  0  0  0  0  0  0  0  0  0  0  0
  141.6554   79.5593  223.0737 H   0  0  0  0  0  0  0  0  0  0  0  0
  139.2945   80.2634  223.4354 H   0  0  0  0  0  0  0  0  0  0  0  0
  137.4530   78.6736  223.0980 H   0  0  0  0  0  0  0  0  0  0  0  0
  1  2  1  0
  2  3  1  0
  3  4  1  0
  4  5  1  0
  5  6  1  0
  6  7  1  0
  7  8  1  0
  8  9  2  0
  8 10  1  0
 10 11  1  0
 11 12  1  0
 12 13  2  0
 12 14  1  0
 14 15  2  0
 15 16  1  0
 16 17  2  0
 17 18  1  0
 18 19  2  0
 19 20  1  0
 20 21  2  0
 21 22  1  0
 22 23  2  0
  6 24  1  0
 24 25  2  0
 25 26  1  0
 26 27  2  0
 27 28  1  0
 28 29  2  0
 23 14  1  0
 29 24  1  0
 22 17  1  0
  1 30  1  0
  1 31  1  0
  1 32  1  0
  3 33  1  0
  3 34  1  0
  4 35  1  0
  4 36  1  0
  5 37  1  0
  5 38  1  0
  6 39  1  6
  7 40  1  0
 10 41  1  0
 10 42  1  0
 11 43  1  0
 15 44  1  0
 16 45  1  0
 18 46  1  0
 19 47  1  0
 20 48  1  0
 21 49  1  0
 25 50  1  0
 26 51  1  0
 27 52  1  0
 28 53  1  0
 29 54  1  0
M  END
>  <smiles>  (5) 
CSCCC[C@H](NC(=O)CNC(=O)c1ccc2ccccc2n1)c1ccccc1

>  <score_type>  (5) 
oracle

>  <origin>  (5) 
autodockgpu

>  <m_score__min__energy>  (5) 
-8.7400000000000002

>  <m_primary>  (5) 
energy

>  <rmsd>  (5) 
4.88893412492953

>  <m_score__min__rmsd>  (5) 
4.88893412492953

>  <meeko>  (5) 
{"free_energy": -7.41, "intermolecular_energy": -10.09, "internal_energy": -2.95, "cluster_size": 6, "cluster_id": 7, "rank_in_cluster": 2}

>  <energy>  (5) 
-8.61

>  <cluster_rmsd>  (5) 
1.04

>  <cluster>  (5) 
1

$$$$

     RDKit          3D

 54 56  0  0  0  0  0  0  0  0999 V2000
  141.8080   78.9590  223.7760 C   0  0  0  0  0  0  0  0  0  0  0  0
  141.8530   79.0500  221.9720 S   0  0  0  0  0  0  0  0  0  0  0  0
  140.6810   77.8530  221.2730 C   0  0  0  0  0  0  0  0  0  0  0  0
  141.2440   77.3820  219.9530 C   0  0  0  0  0  0  0  0  0  0  0  0
  142.5180   76.6220  220.0570 C   0  0  0  0  0  0  0  0  0  0  0  0
  142.5130   75.2480  219.4720 C   0  0  2  0  0  0  0  0  0  0  0  0
  141.2190   74.5750  219.6980 N   0  0  0  0  0  0  0  0  0  0  0  0
  140.7100   74.3840  221.0100 C   0  0  0  0  0  0  0  0  0  0  0  0
  141.4160   74.8150  221.9610 O   0  0  0  0  0  0  0  0  0  0  0  0
  139.4130   73.7130  221.2920 C   0  0  0  0  0  0  0  0  0  0  0  0
  139.5610   72.9650  222.5290 N   0  0  0  0  0  0  0  0  0  0  0  0
  139.4920   71.5420  222.5460 C   0  0  0  0  0  0  0  0  0  0  0  0
  139.2950   70.9000  221.4640 O   0  0  0  0  0  0  0  0  0  0  0  0
  139.6460   70.8120  223.8000 C   0  0  0  0  0  0  0  0  0  0  0  0
  139.2130   69.5060  223.8910 C   0  0  0  0  0  0  0  0  0  0  0  0
  139.3240   68.7530  225.0410 C   0  0  0  0  0  0  0  0  0  0  0  0
  139.8990   69.3510  226.1440 C   0  0  0  0  0  0  0  0  0  0  0  0
  140.0110   68.5980  227.2930 C   0  0  0  0  0  0  0  0  0  0  0  0
  140.5880   69.1930  228.4020 C   0  0  0  0  0  0  0  0  0  0  0  0
  141.0290   70.5040  228.3290 C   0  0  0  0  0  0  0  0  0  0  0  0
  140.9070   71.2360  227.1730 C   0  0  0  0  0  0  0  0  0  0  0  0
  140.3340   70.6620  226.0540 C   0  0  0  0  0  0  0  0  0  0  0  0
  140.1990   71.3460  224.9040 N   0  0  0  0  0  0  0  0  0  0  0  0
  143.6270   74.4030  219.9510 C   0  0  0  0  0  0  0  0  0  0  0  0
  143.4670   73.0190  219.8790 C   0  0  0  0  0  0  0  0  0  0  0  0
  144.4800   72.1740  220.3120 C   0  0  0  0  0  0  0  0  0  0  0  0
  145.6600   72.6770  220.8210 C   0  0  0  0  0  0  0  0  0  0  0  0
  145.8120   74.0500  220.8910 C   0  0  0  0  0  0  0  0  0  0  0  0
  144.8090   74.8890  220.4610 C   0  0  0  0  0  0  0  0  0  0  0  0
  142.2578   79.8687  224.2004 H   0  0  0  0  0  0  0  0  0  0  0  0
  140.7643   78.8745  224.1130 H   0  0  0  0  0  0  0  0  0  0  0  0
  142.3745   78.0783  224.1130 H   0  0  0  0  0  0  0  0  0  0  0  0
  140.5635   76.9995  221.9569 H   0  0  0  0  0  0  0  0  0  0  0  0
  139.6940   78.3168  221.1292 H   0  0  0  0  0  0  0  0  0  0  0  0
  140.4962   76.7334  219.4733 H   0  0  0  0  0  0  0  0  0  0  0  0
  141.4688   78.2874  219.3702 H   0  0  0  0  0  0  0  0  0  0  0  0
  143.2987   77.2028  219.5440 H   0  0  0  0  0  0  0  0  0  0  0  0
  142.6925   76.4838  221.1343 H   0  0  0  0  0  0  0  0  0  0  0  0
  142.6619   75.3820  218.3904 H   0  0  0  0  0  0  0  0  0  0  0  0
  140.6620   74.2300  218.8830 H   0  0  0  0  0  0  0  0  0  0  0  0
  138.6183   74.4655  221.4023 H   0  0  0  0  0  0  0  0  0  0  0  0
  139.1403   73.0400  220.4657 H   0  0  0  0  0  0  0  0  0  0  0  0
  139.7250   73.4270  223.4590 H   0  0  0  0  0  0  0  0  0  0  0  0
  138.7571   69.0425  223.0037 H   0  0  0  0  0  0  0  0  0  0  0  0
  138.9671   67.7132  225.0779 H   0  0  0  0  0  0  0  0  0  0  0  0
  139.6536   67.5583  227.3277 H   0  0  0  0  0  0  0  0  0  0  0  0
  140.6959   68.6262  229.3385 H   0  0  0  0  0  0  0  0  0  0  0  0
  141.4864   70.9686  229.2150 H   0  0  0  0  0  0  0  0  0  0  0  0
  141.2643   72.2758  227.1381 H   0  0  0  0  0  0  0  0  0  0  0  0
  142.5345   72.5955  219.4776 H   0  0  0  0  0  0  0  0  0  0  0  0
  144.3396   71.0849  220.2482 H   0  0  0  0  0  0  0  0  0  0  0  0
  146.4595   72.0030  221.1624 H   0  0  0  0  0  0  0  0  0  0  0  0
  146.7429   74.4754  221.2940 H   0  0  0  0  0  0  0  0  0  0  0  0
  144.9563   75.9771  220.5268 H   0  0  0  0  0  0  0  0  0  0  0  0
  1  2  1  0
  2  3  1  0
  3  4  1  0
  4  5  1  0
  5  6  1  0
  6  7  1  0
  7  8  1  0
  8  9  2  0
  8 10  1  0
 10 11  1  0
 11 12  1  0
 12 13  2  0
 12 14  1  0
 14 15  2  0
 15 16  1  0
 16 17  2  0
 17 18  1  0
 18 19  2  0
 19 20  1  0
 20 21  2  0
 21 22  1  0
 22 23  2  0
  6 24  1  0
 24 25  2  0
 25 26  1  0
 26 27  2  0
 27 28  1  0
 28 29  2  0
 23 14  1  0
 29 24  1  0
 22 17  1  0
  1 30  1  0
  1 31  1  0
  1 32  1  0
  3 33  1  0
  3 34  1  0
  4 35  1  0
  4 36  1  0
  5 37  1  0
  5 38  1  0
  6 39  1  6
  7 40  1  0
 10 41  1  0
 10 42  1  0
 11 43  1  0
 15 44  1  0
 16 45  1  0
 18 46  1  0
 19 47  1  0
 20 48  1  0
 21 49  1  0
 25 50  1  0
 26 51  1  0
 27 52  1  0
 28 53  1  0
 29 54  1  0
M  END
>  <smiles>  (6) 
CSCCC[C@H](NC(=O)CNC(=O)c1ccc2ccccc2n1)c1ccccc1

>  <score_type>  (6) 
oracle

>  <origin>  (6) 
autodockgpu

>  <m_score__min__energy>  (6) 
-8.7400000000000002

>  <m_primary>  (6) 
energy

>  <rmsd>  (6) 
6.33413903672503

>  <m_score__min__rmsd>  (6) 
6.33413903672503

>  <meeko>  (6) 
{"free_energy": -8.33, "intermolecular_energy": -11.01, "internal_energy": -1.87, "cluster_size": 17, "cluster_id": 2, "rank_in_cluster": 5}

>  <energy>  (6) 
-8.56

>  <cluster_rmsd>  (6) 
0.66

>  <cluster>  (6) 
1

$$$$

     RDKit          3D

 54 56  0  0  0  0  0  0  0  0999 V2000
  145.2020   73.7790  220.6580 C   0  0  0  0  0  0  0  0  0  0  0  0
  143.9900   74.3910  219.4650 S   0  0  0  0  0  0  0  0  0  0  0  0
  143.7140   76.1650  219.7330 C   0  0  0  0  0  0  0  0  0  0  0  0
  142.4500   76.5450  218.9990 C   0  0  0  0  0  0  0  0  0  0  0  0
  141.5250   77.4200  219.7680 C   0  0  0  0  0  0  0  0  0  0  0  0
  141.2640   77.0160  221.1830 C   0  0  2  0  0  0  0  0  0  0  0  0
  140.0650   76.1620  221.2830 N   0  0  0  0  0  0  0  0  0  0  0  0
  140.1020   74.7950  220.8960 C   0  0  0  0  0  0  0  0  0  0  0  0
  141.2030   74.3570  220.4670 O   0  0  0  0  0  0  0  0  0  0  0  0
  138.9240   73.8920  220.9770 C   0  0  0  0  0  0  0  0  0  0  0  0
  139.0080   73.1640  222.2310 N   0  0  0  0  0  0  0  0  0  0  0  0
  139.8970   72.0610  222.3880 C   0  0  0  0  0  0  0  0  0  0  0  0
  140.6340   71.6930  221.4180 O   0  0  0  0  0  0  0  0  0  0  0  0
  139.9660   71.3460  223.6590 C   0  0  0  0  0  0  0  0  0  0  0  0
  139.5190   70.0440  223.7390 C   0  0  0  0  0  0  0  0  0  0  0  0
  139.5520   69.3050  224.9020 C   0  0  0  0  0  0  0  0  0  0  0  0
  140.0610   69.9140  226.0320 C   0  0  0  0  0  0  0  0  0  0  0  0
  140.0950   69.1760  227.1950 C   0  0  0  0  0  0  0  0  0  0  0  0
  140.6050   69.7810  228.3310 C   0  0  0  0  0  0  0  0  0  0  0  0
  141.0590   71.0890  228.2700 C   0  0  0  0  0  0  0  0  0  0  0  0
  141.0150   71.8060  227.0990 C   0  0  0  0  0  0  0  0  0  0  0  0
  140.5090   71.2210  225.9530 C   0  0  0  0  0  0  0  0  0  0  0  0
  140.4520   71.8910  224.7880 N   0  0  0  0  0  0  0  0  0  0  0  0
  141.1610   78.1630  222.1090 C   0  0  0  0  0  0  0  0  0  0  0  0
  142.1910   79.1030  222.0930 C   0  0  0  0  0  0  0  0  0  0  0  0
  142.1490   80.2040  222.9380 C   0  0  0  0  0  0  0  0  0  0  0  0
  141.0950   80.3940  223.8100 C   0  0  0  0  0  0  0  0  0  0  0  0
  140.0770   79.4580  223.8220 C   0  0  0  0  0  0  0  0  0  0  0  0
  140.1180   78.3670  222.9830 C   0  0  0  0  0  0  0  0  0  0  0  0
  144.8368   73.9634  221.6791 H   0  0  0  0  0  0  0  0  0  0  0  0
  145.3486   72.6988  220.5105 H   0  0  0  0  0  0  0  0  0  0  0  0
  146.1582   74.3023  220.5105 H   0  0  0  0  0  0  0  0  0  0  0  0
  143.5996   76.3689  220.8079 H   0  0  0  0  0  0  0  0  0  0  0  0
  144.5681   76.7500  219.3611 H   0  0  0  0  0  0  0  0  0  0  0  0
  142.7346   77.0733  218.0771 H   0  0  0  0  0  0  0  0  0  0  0  0
  141.9063   75.6076  218.8098 H   0  0  0  0  0  0  0  0  0  0  0  0
  141.9533   78.4331  219.7810 H   0  0  0  0  0  0  0  0  0  0  0  0
  140.5543   77.3475  219.2556 H   0  0  0  0  0  0  0  0  0  0  0  0
  142.1436   76.4347  221.4967 H   0  0  0  0  0  0  0  0  0  0  0  0
  139.1690   76.5620  221.6430 H   0  0  0  0  0  0  0  0  0  0  0  0
  137.9968   74.4831  220.9489 H   0  0  0  0  0  0  0  0  0  0  0  0
  138.9160   73.1937  220.1271 H   0  0  0  0  0  0  0  0  0  0  0  0
  138.4300   73.4090  223.0740 H   0  0  0  0  0  0  0  0  0  0  0  0
  139.1165   69.5722  222.8305 H   0  0  0  0  0  0  0  0  0  0  0  0
  139.1862   68.2679  224.9290 H   0  0  0  0  0  0  0  0  0  0  0  0
  139.7286   68.1391  227.2201 H   0  0  0  0  0  0  0  0  0  0  0  0
  140.6497   69.2252  229.2792 H   0  0  0  0  0  0  0  0  0  0  0  0
  141.4626   71.5624  229.1772 H   0  0  0  0  0  0  0  0  0  0  0  0
  141.3814   72.8429  227.0732 H   0  0  0  0  0  0  0  0  0  0  0  0
  143.0411   78.9716  221.4074 H   0  0  0  0  0  0  0  0  0  0  0  0
  142.9688   80.9370  222.9125 H   0  0  0  0  0  0  0  0  0  0  0  0
  141.0660   81.2675  224.4779 H   0  0  0  0  0  0  0  0  0  0  0  0
  139.2268   79.5863  224.5081 H   0  0  0  0  0  0  0  0  0  0  0  0
  139.2943   77.6385  223.0122 H   0  0  0  0  0  0  0  0  0  0  0  0
  1  2  1  0
  2  3  1  0
  3  4  1  0
  4  5  1  0
  5  6  1  0
  6  7  1  0
  7  8  1  0
  8  9  2  0
  8 10  1  0
 10 11  1  0
 11 12  1  0
 12 13  2  0
 12 14  1  0
 14 15  2  0
 15 16  1  0
 16 17  2  0
 17 18  1  0
 18 19  2  0
 19 20  1  0
 20 21  2  0
 21 22  1  0
 22 23  2  0
  6 24  1  0
 24 25  2  0
 25 26  1  0
 26 27  2  0
 27 28  1  0
 28 29  2  0
 23 14  1  0
 29 24  1  0
 22 17  1  0
  1 30  1  0
  1 31  1  0
  1 32  1  0
  3 33  1  0
  3 34  1  0
  4 35  1  0
  4 36  1  0
  5 37  1  0
  5 38  1  0
  6 39  1  1
  7 40  1  0
 10 41  1  0
 10 42  1  0
 11 43  1  0
 15 44  1  0
 16 45  1  0
 18 46  1  0
 19 47  1  0
 20 48  1  0
 21 49  1  0
 25 50  1  0
 26 51  1  0
 27 52  1  0
 28 53  1  0
 29 54  1  0
M  END
>  <smiles>  (7) 
CSCCC[C@H](NC(=O)CNC(=O)c1ccc2ccccc2n1)c1ccccc1

>  <score_type>  (7) 
oracle

>  <origin>  (7) 
autodockgpu

>  <m_score__min__energy>  (7) 
-8.7400000000000002

>  <m_primary>  (7) 
energy

>  <rmsd>  (7) 
4.289536835049372

>  <m_score__min__rmsd>  (7) 
4.289536835049372

>  <meeko>  (7) 
{"free_energy": -8.56, "intermolecular_energy": -11.24, "internal_energy": -1.44, "cluster_size": 20, "cluster_id": 1, "rank_in_cluster": 6}

>  <energy>  (7) 
-8.46

>  <cluster_rmsd>  (7) 
0.94

>  <cluster>  (7) 
1

$$$$

     RDKit          3D

 54 56  0  0  0  0  0  0  0  0999 V2000
  136.2170   71.9350  223.6930 C   0  0  0  0  0  0  0  0  0  0  0  0
  135.3790   73.4290  224.2660 S   0  0  0  0  0  0  0  0  0  0  0  0
  134.7470   74.3580  222.8400 C   0  0  0  0  0  0  0  0  0  0  0  0
  135.2140   75.7870  222.9840 C   0  0  0  0  0  0  0  0  0  0  0  0
  136.6310   75.9370  223.4120 C   0  0  0  0  0  0  0  0  0  0  0  0
  137.6410   76.0340  222.3160 C   0  0  2  0  0  0  0  0  0  0  0  0
  138.2210   74.7130  222.0050 N   0  0  0  0  0  0  0  0  0  0  0  0
  138.1240   74.1560  220.7010 C   0  0  0  0  0  0  0  0  0  0  0  0
  137.5200   74.8430  219.8340 O   0  0  0  0  0  0  0  0  0  0  0  0
  138.6900   72.8300  220.3370 C   0  0  0  0  0  0  0  0  0  0  0  0
  138.7630   72.0320  221.5470 N   0  0  0  0  0  0  0  0  0  0  0  0
  139.7630   72.2730  222.5340 C   0  0  0  0  0  0  0  0  0  0  0  0
  140.6170   73.2020  222.3630 O   0  0  0  0  0  0  0  0  0  0  0  0
  139.8160   71.4590  223.7440 C   0  0  0  0  0  0  0  0  0  0  0  0
  139.3030   70.1780  223.7320 C   0  0  0  0  0  0  0  0  0  0  0  0
  139.3160   69.3500  224.8340 C   0  0  0  0  0  0  0  0  0  0  0  0
  139.8730   69.8420  225.9970 C   0  0  0  0  0  0  0  0  0  0  0  0
  139.8860   69.0140  227.0980 C   0  0  0  0  0  0  0  0  0  0  0  0
  140.4450   69.5020  228.2670 C   0  0  0  0  0  0  0  0  0  0  0  0
  140.9650   70.7860  228.2990 C   0  0  0  0  0  0  0  0  0  0  0  0
  140.9400   71.5950  227.1880 C   0  0  0  0  0  0  0  0  0  0  0  0
  140.3870   71.1270  226.0110 C   0  0  0  0  0  0  0  0  0  0  0  0
  140.3460   71.8880  224.9020 N   0  0  0  0  0  0  0  0  0  0  0  0
  138.7100   77.0170  222.5900 C   0  0  0  0  0  0  0  0  0  0  0  0
  140.0280   76.6240  222.3540 C   0  0  0  0  0  0  0  0  0  0  0  0
  141.0750   77.5050  222.5900 C   0  0  0  0  0  0  0  0  0  0  0  0
  140.8400   78.7820  223.0620 C   0  0  0  0  0  0  0  0  0  0  0  0
  139.5320   79.1650  223.2940 C   0  0  0  0  0  0  0  0  0  0  0  0
  138.4930   78.2930  223.0590 C   0  0  0  0  0  0  0  0  0  0  0  0
  136.5481   71.3448  224.5602 H   0  0  0  0  0  0  0  0  0  0  0  0
  135.5233   71.3358  223.0849 H   0  0  0  0  0  0  0  0  0  0  0  0
  137.0900   72.2146  223.0849 H   0  0  0  0  0  0  0  0  0  0  0  0
  135.1398   73.9270  221.9073 H   0  0  0  0  0  0  0  0  0  0  0  0
  133.6485   74.3118  222.8043 H   0  0  0  0  0  0  0  0  0  0  0  0
  135.0951   76.2862  222.0110 H   0  0  0  0  0  0  0  0  0  0  0  0
  134.5999   76.2364  223.7783 H   0  0  0  0  0  0  0  0  0  0  0  0
  136.7040   76.8518  224.0184 H   0  0  0  0  0  0  0  0  0  0  0  0
  136.8745   75.0135  223.9577 H   0  0  0  0  0  0  0  0  0  0  0  0
  137.0938   76.4007  221.4350 H   0  0  0  0  0  0  0  0  0  0  0  0
  138.7140   74.1730  222.7520 H   0  0  0  0  0  0  0  0  0  0  0  0
  138.0398   72.3348  219.6008 H   0  0  0  0  0  0  0  0  0  0  0  0
  139.6896   72.9474  219.8931 H   0  0  0  0  0  0  0  0  0  0  0  0
  138.0940   71.2480  221.7560 H   0  0  0  0  0  0  0  0  0  0  0  0
  138.8624   69.7993  222.7979 H   0  0  0  0  0  0  0  0  0  0  0  0
  138.8975   68.3337  224.7881 H   0  0  0  0  0  0  0  0  0  0  0  0
  139.4660   67.9985  227.0500 H   0  0  0  0  0  0  0  0  0  0  0  0
  140.4762   68.8719  229.1681 H   0  0  0  0  0  0  0  0  0  0  0  0
  141.4067   71.1655  229.2322 H   0  0  0  0  0  0  0  0  0  0  0  0
  141.3586   72.6111  227.2355 H   0  0  0  0  0  0  0  0  0  0  0  0
  140.2385   75.6115  221.9792 H   0  0  0  0  0  0  0  0  0  0  0  0
  142.1085   77.1809  222.3980 H   0  0  0  0  0  0  0  0  0  0  0  0
  141.6725   79.4764  223.2485 H   0  0  0  0  0  0  0  0  0  0  0  0
  139.3194   80.1766  223.6701 H   0  0  0  0  0  0  0  0  0  0  0  0
  137.4619   78.6246  223.2511 H   0  0  0  0  0  0  0  0  0  0  0  0
  1  2  1  0
  2  3  1  0
  3  4  1  0
  4  5  1  0
  5  6  1  0
  6  7  1  0
  7  8  1  0
  8  9  2  0
  8 10  1  0
 10 11  1  0
 11 12  1  0
 12 13  2  0
 12 14  1  0
 14 15  2  0
 15 16  1  0
 16 17  2  0
 17 18  1  0
 18 19  2  0
 19 20  1  0
 20 21  2  0
 21 22  1  0
 22 23  2  0
  6 24  1  0
 24 25  2  0
 25 26  1  0
 26 27  2  0
 27 28  1  0
 28 29  2  0
 23 14  1  0
 29 24  1  0
 22 17  1  0
  1 30  1  0
  1 31  1  0
  1 32  1  0
  3 33  1  0
  3 34  1  0
  4 35  1  0
  4 36  1  0
  5 37  1  0
  5 38  1  0
  6 39  1  6
  7 40  1  0
 10 41  1  0
 10 42  1  0
 11 43  1  0
 15 44  1  0
 16 45  1  0
 18 46  1  0
 19 47  1  0
 20 48  1  0
 21 49  1  0
 25 50  1  0
 26 51  1  0
 27 52  1  0
 28 53  1  0
 29 54  1  0
M  END
>  <smiles>  (8) 
CSCCC[C@H](NC(=O)CNC(=O)c1ccc2ccccc2n1)c1ccccc1

>  <score_type>  (8) 
oracle

>  <origin>  (8) 
autodockgpu

>  <m_score__min__energy>  (8) 
-8.7400000000000002

>  <m_primary>  (8) 
energy

>  <rmsd>  (8) 
4.929451792907975

>  <m_score__min__rmsd>  (8) 
4.929451792907975

>  <meeko>  (8) 
{"free_energy": -7.35, "intermolecular_energy": -10.04, "internal_energy": -2.69, "cluster_size": 6, "cluster_id": 7, "rank_in_cluster": 4}

>  <energy>  (8) 
-8.41

>  <cluster_rmsd>  (8) 
0.68

>  <cluster>  (8) 
1

$$$$

     RDKit          3D

 54 56  0  0  0  0  0  0  0  0999 V2000
  140.5740   77.6670  222.4130 C   0  0  0  0  0  0  0  0  0  0  0  0
  141.7710   78.6800  221.5140 S   0  0  0  0  0  0  0  0  0  0  0  0
  141.3110   78.7530  219.7590 C   0  0  0  0  0  0  0  0  0  0  0  0
  142.2470   77.8400  219.0040 C   0  0  0  0  0  0  0  0  0  0  0  0
  142.8070   76.7210  219.8100 C   0  0  0  0  0  0  0  0  0  0  0  0
  142.6890   75.3580  219.2100 C   0  0  2  0  0  0  0  0  0  0  0  0
  141.3250   74.8190  219.3680 N   0  0  0  0  0  0  0  0  0  0  0  0
  140.7960   74.5230  220.6540 C   0  0  0  0  0  0  0  0  0  0  0  0
  141.5490   74.7420  221.6410 O   0  0  0  0  0  0  0  0  0  0  0  0
  139.4290   73.9800  220.8680 C   0  0  0  0  0  0  0  0  0  0  0  0
  139.4220   73.2880  222.1450 N   0  0  0  0  0  0  0  0  0  0  0  0
  140.0450   72.0160  222.3010 C   0  0  0  0  0  0  0  0  0  0  0  0
  140.6200   71.4620  221.3090 O   0  0  0  0  0  0  0  0  0  0  0  0
  140.0280   71.3410  223.5950 C   0  0  0  0  0  0  0  0  0  0  0  0
  139.4850   70.0770  223.7020 C   0  0  0  0  0  0  0  0  0  0  0  0
  139.4320   69.3770  224.8880 C   0  0  0  0  0  0  0  0  0  0  0  0
  139.9530   69.9850  226.0130 C   0  0  0  0  0  0  0  0  0  0  0  0
  139.9010   69.2850  227.1980 C   0  0  0  0  0  0  0  0  0  0  0  0
  140.4240   69.8890  228.3300 C   0  0  0  0  0  0  0  0  0  0  0  0
  140.9730   71.1580  228.2410 C   0  0  0  0  0  0  0  0  0  0  0  0
  141.0140   71.8370  227.0480 C   0  0  0  0  0  0  0  0  0  0  0  0
  140.4980   71.2530  225.9060 C   0  0  0  0  0  0  0  0  0  0  0  0
  140.5210   71.8860  224.7200 N   0  0  0  0  0  0  0  0  0  0  0  0
  143.6880   74.4010  219.7320 C   0  0  0  0  0  0  0  0  0  0  0  0
  144.7720   74.9180  220.4410 C   0  0  0  0  0  0  0  0  0  0  0  0
  145.7400   74.0690  220.9580 C   0  0  0  0  0  0  0  0  0  0  0  0
  145.6560   72.7020  220.7850 C   0  0  0  0  0  0  0  0  0  0  0  0
  144.5800   72.1950  220.0800 C   0  0  0  0  0  0  0  0  0  0  0  0
  143.6180   73.0360  219.5680 C   0  0  0  0  0  0  0  0  0  0  0  0
  140.7249   77.7947  223.4951 H   0  0  0  0  0  0  0  0  0  0  0  0
  139.5541   77.9805  222.1455 H   0  0  0  0  0  0  0  0  0  0  0  0
  140.7145   76.6093  222.1455 H   0  0  0  0  0  0  0  0  0  0  0  0
  140.2721   78.4158  219.6291 H   0  0  0  0  0  0  0  0  0  0  0  0
  141.3882   79.7834  219.3817 H   0  0  0  0  0  0  0  0  0  0  0  0
  141.6952   77.4089  218.1556 H   0  0  0  0  0  0  0  0  0  0  0  0
  143.1021   78.4585  218.6938 H   0  0  0  0  0  0  0  0  0  0  0  0
  143.8755   76.9255  219.9729 H   0  0  0  0  0  0  0  0  0  0  0  0
  142.2083   76.6916  220.7323 H   0  0  0  0  0  0  0  0  0  0  0  0
  142.9006   75.4827  218.1378 H   0  0  0  0  0  0  0  0  0  0  0  0
  140.7310   74.6510  218.5250 H   0  0  0  0  0  0  0  0  0  0  0  0
  138.6979   74.8018  220.8835 H   0  0  0  0  0  0  0  0  0  0  0  0
  139.1576   73.2902  220.0553 H   0  0  0  0  0  0  0  0  0  0  0  0
  138.9670   73.6830  223.0060 H   0  0  0  0  0  0  0  0  0  0  0  0
  139.0746   69.6053  222.7970 H   0  0  0  0  0  0  0  0  0  0  0  0
  138.9907   68.3706  224.9366 H   0  0  0  0  0  0  0  0  0  0  0  0
  139.4586   68.2790  227.2442 H   0  0  0  0  0  0  0  0  0  0  0  0
  140.4034   69.3630  229.2958 H   0  0  0  0  0  0  0  0  0  0  0  0
  141.3846   71.6314  229.1446 H   0  0  0  0  0  0  0  0  0  0  0  0
  141.4563   72.8431  227.0011 H   0  0  0  0  0  0  0  0  0  0  0  0
  144.8600   76.0042  220.5911 H   0  0  0  0  0  0  0  0  0  0  0  0
  146.5887   74.4924  221.5151 H   0  0  0  0  0  0  0  0  0  0  0  0
  146.4256   72.0330  221.1976 H   0  0  0  0  0  0  0  0  0  0  0  0
  144.4919   71.1093  219.9268 H   0  0  0  0  0  0  0  0  0  0  0  0
  142.7710   72.6060  219.0132 H   0  0  0  0  0  0  0  0  0  0  0  0
  1  2  1  0
  2  3  1  0
  3  4  1  0
  4  5  1  0
  5  6  1  0
  6  7  1  0
  7  8  1  0
  8  9  2  0
  8 10  1  0
 10 11  1  0
 11 12  1  0
 12 13  2  0
 12 14  1  0
 14 15  2  0
 15 16  1  0
 16 17  2  0
 17 18  1  0
 18 19  2  0
 19 20  1  0
 20 21  2  0
 21 22  1  0
 22 23  2  0
  6 24  1  0
 24 25  2  0
 25 26  1  0
 26 27  2  0
 27 28  1  0
 28 29  2  0
 23 14  1  0
 29 24  1  0
 22 17  1  0
  1 30  1  0
  1 31  1  0
  1 32  1  0
  3 33  1  0
  3 34  1  0
  4 35  1  0
  4 36  1  0
  5 37  1  0
  5 38  1  0
  6 39  1  6
  7 40  1  0
 10 41  1  0
 10 42  1  0
 11 43  1  0
 15 44  1  0
 16 45  1  0
 18 46  1  0
 19 47  1  0
 20 48  1  0
 21 49  1  0
 25 50  1  0
 26 51  1  0
 27 52  1  0
 28 53  1  0
 29 54  1  0
M  END
>  <smiles>  (9) 
CSCCC[C@H](NC(=O)CNC(=O)c1ccc2ccccc2n1)c1ccccc1

>  <score_type>  (9) 
oracle

>  <origin>  (9) 
autodockgpu

>  <m_score__min__energy>  (9) 
-8.7400000000000002

>  <m_primary>  (9) 
energy

>  <rmsd>  (9) 
6.383738022962403

>  <m_score__min__rmsd>  (9) 
6.383738022962403

>  <meeko>  (9) 
{"free_energy": -8.18, "intermolecular_energy": -10.87, "internal_energy": -1.95, "cluster_size": 17, "cluster_id": 2, "rank_in_cluster": 10}

>  <energy>  (9) 
-8.32

>  <cluster_rmsd>  (9) 
0.9

>  <cluster>  (9) 
1

$$$$

     RDKit          3D

 54 56  0  0  0  0  0  0  0  0999 V2000
  144.4390   74.2800  220.2870 C   0  0  0  0  0  0  0  0  0  0  0  0
  143.2130   74.6920  219.0250 S   0  0  0  0  0  0  0  0  0  0  0  0
  143.6360   76.2840  218.2610 C   0  0  0  0  0  0  0  0  0  0  0  0
  142.3490   77.0480  218.0590 C   0  0  0  0  0  0  0  0  0  0  0  0
  142.0340   78.0290  219.1330 C   0  0  0  0  0  0  0  0  0  0  0  0
  141.7670   77.4560  220.4870 C   0  0  2  0  0  0  0  0  0  0  0  0
  140.5640   76.6020  220.4790 N   0  0  0  0  0  0  0  0  0  0  0  0
  140.5660   75.3240  221.1000 C   0  0  0  0  0  0  0  0  0  0  0  0
  141.6410   74.9630  221.6510 O   0  0  0  0  0  0  0  0  0  0  0  0
  139.3820   74.4250  221.1200 C   0  0  0  0  0  0  0  0  0  0  0  0
  139.4690   73.6050  222.3150 N   0  0  0  0  0  0  0  0  0  0  0  0
  139.8550   72.2350  222.2460 C   0  0  0  0  0  0  0  0  0  0  0  0
  140.1300   71.7060  221.1210 O   0  0  0  0  0  0  0  0  0  0  0  0
  139.9380   71.4300  223.4610 C   0  0  0  0  0  0  0  0  0  0  0  0
  139.5140   70.1180  223.4450 C   0  0  0  0  0  0  0  0  0  0  0  0
  139.5600   69.2970  224.5510 C   0  0  0  0  0  0  0  0  0  0  0  0
  140.0590   69.8300  225.7230 C   0  0  0  0  0  0  0  0  0  0  0  0
  140.1060   69.0090  226.8280 C   0  0  0  0  0  0  0  0  0  0  0  0
  140.6070   69.5380  228.0060 C   0  0  0  0  0  0  0  0  0  0  0  0
  141.0380   70.8550  228.0410 C   0  0  0  0  0  0  0  0  0  0  0  0
  140.9810   71.6550  226.9260 C   0  0  0  0  0  0  0  0  0  0  0  0
  140.4850   71.1470  225.7400 C   0  0  0  0  0  0  0  0  0  0  0  0
  140.4150   71.8990  224.6270 N   0  0  0  0  0  0  0  0  0  0  0  0
  141.6670   78.4820  221.5460 C   0  0  0  0  0  0  0  0  0  0  0  0
  141.8310   79.8160  221.1730 C   0  0  0  0  0  0  0  0  0  0  0  0
  141.7460   80.8250  222.1230 C   0  0  0  0  0  0  0  0  0  0  0  0
  141.4990   80.5360  223.4510 C   0  0  0  0  0  0  0  0  0  0  0  0
  141.3380   79.2110  223.8140 C   0  0  0  0  0  0  0  0  0  0  0  0
  141.4220   78.2100  222.8730 C   0  0  0  0  0  0  0  0  0  0  0  0
  144.0012   74.4271  221.2854 H   0  0  0  0  0  0  0  0  0  0  0  0
  144.7449   73.2297  220.1719 H   0  0  0  0  0  0  0  0  0  0  0  0
  145.3171   74.9324  220.1719 H   0  0  0  0  0  0  0  0  0  0  0  0
  144.3090   76.8503  218.9216 H   0  0  0  0  0  0  0  0  0  0  0  0
  144.1484   76.1281  217.3002 H   0  0  0  0  0  0  0  0  0  0  0  0
  142.4201   77.5936  217.1065 H   0  0  0  0  0  0  0  0  0  0  0  0
  141.5398   76.3030  218.0711 H   0  0  0  0  0  0  0  0  0  0  0  0
  142.8878   78.7169  219.2212 H   0  0  0  0  0  0  0  0  0  0  0  0
  141.0952   78.5131  218.8259 H   0  0  0  0  0  0  0  0  0  0  0  0
  142.6426   76.8359  220.7294 H   0  0  0  0  0  0  0  0  0  0  0  0
  139.6920   76.9370  220.0110 H   0  0  0  0  0  0  0  0  0  0  0  0
  138.4586   75.0224  221.1422 H   0  0  0  0  0  0  0  0  0  0  0  0
  139.3637   73.7928  220.2200 H   0  0  0  0  0  0  0  0  0  0  0  0
  139.2570   73.9720  223.2770 H   0  0  0  0  0  0  0  0  0  0  0  0
  139.1200   69.7067  222.5039 H   0  0  0  0  0  0  0  0  0  0  0  0
  139.2118   68.2547  224.5019 H   0  0  0  0  0  0  0  0  0  0  0  0
  139.7570   67.9671  226.7766 H   0  0  0  0  0  0  0  0  0  0  0  0
  140.6627   68.9150  228.9109 H   0  0  0  0  0  0  0  0  0  0  0  0
  141.4336   71.2677  228.9807 H   0  0  0  0  0  0  0  0  0  0  0  0
  141.3292   72.6972  226.9767 H   0  0  0  0  0  0  0  0  0  0  0  0
  142.0286   80.0699  220.1211 H   0  0  0  0  0  0  0  0  0  0  0  0
  141.8776   81.8721  221.8129 H   0  0  0  0  0  0  0  0  0  0  0  0
  141.4321   81.3386  224.2003 H   0  0  0  0  0  0  0  0  0  0  0  0
  141.1408   78.9547  224.8654 H   0  0  0  0  0  0  0  0  0  0  0  0
  141.2898   77.1649  223.1898 H   0  0  0  0  0  0  0  0  0  0  0  0
  1  2  1  0
  2  3  1  0
  3  4  1  0
  4  5  1  0
  5  6  1  0
  6  7  1  0
  7  8  1  0
  8  9  2  0
  8 10  1  0
 10 11  1  0
 11 12  1  0
 12 13  2  0
 12 14  1  0
 14 15  2  0
 15 16  1  0
 16 17  2  0
 17 18  1  0
 18 19  2  0
 19 20  1  0
 20 21  2  0
 21 22  1  0
 22 23  2  0
  6 24  1  0
 24 25  2  0
 25 26  1  0
 26 27  2  0
 27 28  1  0
 28 29  2  0
 23 14  1  0
 29 24  1  0
 22 17  1  0
  1 30  1  0
  1 31  1  0
  1 32  1  0
  3 33  1  0
  3 34  1  0
  4 35  1  0
  4 36  1  0
  5 37  1  0
  5 38  1  0
  6 39  1  1
  7 40  1  0
 10 41  1  0
 10 42  1  0
 11 43  1  0
 15 44  1  0
 16 45  1  0
 18 46  1  0
 19 47  1  0
 20 48  1  0
 21 49  1  0
 25 50  1  0
 26 51  1  0
 27 52  1  0
 28 53  1  0
 29 54  1  0
M  END
>  <smiles>  (10) 
CSCCC[C@H](NC(=O)CNC(=O)c1ccc2ccccc2n1)c1ccccc1

>  <score_type>  (10) 
oracle

>  <origin>  (10) 
autodockgpu

>  <m_score__min__energy>  (10) 
-8.7400000000000002

>  <m_primary>  (10) 
energy

>  <rmsd>  (10) 
4.150006394943579

>  <m_score__min__rmsd>  (10) 
4.150006394943579

>  <meeko>  (10) 
{"free_energy": -8.24, "intermolecular_energy": -10.93, "internal_energy": -1.77, "cluster_size": 20, "cluster_id": 1, "rank_in_cluster": 10}

>  <energy>  (10) 
-8.24

>  <cluster_rmsd>  (10) 
1.08

>  <cluster>  (10) 
1

$$$$

     RDKit          3D

 54 56  0  0  0  0  0  0  0  0999 V2000
  141.8320   80.9120  221.5660 C   0  0  0  0  0  0  0  0  0  0  0  0
  142.5340   80.5820  223.1980 S   0  0  0  0  0  0  0  0  0  0  0  0
  141.8420   79.0380  223.8580 C   0  0  0  0  0  0  0  0  0  0  0  0
  140.5560   78.7610  223.1160 C   0  0  0  0  0  0  0  0  0  0  0  0
  140.4040   77.3610  222.6390 C   0  0  0  0  0  0  0  0  0  0  0  0
  139.8620   77.1940  221.2570 C   0  0  2  0  0  0  0  0  0  0  0  0
  139.1220   75.9240  221.1220 N   0  0  0  0  0  0  0  0  0  0  0  0
  139.7060   74.6880  221.5090 C   0  0  0  0  0  0  0  0  0  0  0  0
  140.8790   74.7350  221.9690 O   0  0  0  0  0  0  0  0  0  0  0  0
  139.0040   73.3830  221.3940 C   0  0  0  0  0  0  0  0  0  0  0  0
  139.2610   72.6330  222.6100 N   0  0  0  0  0  0  0  0  0  0  0  0
  139.1050   71.2170  222.6540 C   0  0  0  0  0  0  0  0  0  0  0  0
  138.7310   70.5840  221.6140 O   0  0  0  0  0  0  0  0  0  0  0  0
  139.3720   70.4840  223.8870 C   0  0  0  0  0  0  0  0  0  0  0  0
  138.9990   69.1600  223.9920 C   0  0  0  0  0  0  0  0  0  0  0  0
  139.2170   68.4030  225.1240 C   0  0  0  0  0  0  0  0  0  0  0  0
  139.8390   69.0150  226.1930 C   0  0  0  0  0  0  0  0  0  0  0  0
  140.0570   68.2580  227.3240 C   0  0  0  0  0  0  0  0  0  0  0  0
  140.6830   68.8670  228.3990 C   0  0  0  0  0  0  0  0  0  0  0  0
  141.0640   70.1960  228.3110 C   0  0  0  0  0  0  0  0  0  0  0  0
  140.8360   70.9320  227.1740 C   0  0  0  0  0  0  0  0  0  0  0  0
  140.2130   70.3440  226.0890 C   0  0  0  0  0  0  0  0  0  0  0  0
  139.9740   71.0310  224.9570 N   0  0  0  0  0  0  0  0  0  0  0  0
  140.8960   77.3050  220.2060 C   0  0  0  0  0  0  0  0  0  0  0  0
  142.1320   76.7070  220.4490 C   0  0  0  0  0  0  0  0  0  0  0  0
  143.1420   76.7750  219.4980 C   0  0  0  0  0  0  0  0  0  0  0  0
  142.9500   77.4320  218.2990 C   0  0  0  0  0  0  0  0  0  0  0  0
  141.7220   78.0230  218.0650 C   0  0  0  0  0  0  0  0  0  0  0  0
  140.7200   77.9560  219.0060 C   0  0  0  0  0  0  0  0  0  0  0  0
  140.8419   81.3775  221.6800 H   0  0  0  0  0  0  0  0  0  0  0  0
  142.4955   81.5925  221.0122 H   0  0  0  0  0  0  0  0  0  0  0  0
  141.7313   79.9669  221.0122 H   0  0  0  0  0  0  0  0  0  0  0  0
  142.5511   78.2118  223.7012 H   0  0  0  0  0  0  0  0  0  0  0  0
  141.6534   79.1293  224.9379 H   0  0  0  0  0  0  0  0  0  0  0  0
  139.7162   78.9867  223.7896 H   0  0  0  0  0  0  0  0  0  0  0  0
  140.5724   79.3956  222.2177 H   0  0  0  0  0  0  0  0  0  0  0  0
  141.3953   76.8852  222.6713 H   0  0  0  0  0  0  0  0  0  0  0  0
  139.6608   76.9000  223.3062 H   0  0  0  0  0  0  0  0  0  0  0  0
  139.1649   78.0311  221.1043 H   0  0  0  0  0  0  0  0  0  0  0  0
  138.1510   75.9270  220.7360 H   0  0  0  0  0  0  0  0  0  0  0  0
  137.9228   73.5486  221.2778 H   0  0  0  0  0  0  0  0  0  0  0  0
  139.3658   72.8278  220.5160 H   0  0  0  0  0  0  0  0  0  0  0  0
  139.5710   73.0860  223.5070 H   0  0  0  0  0  0  0  0  0  0  0  0
  138.5041   68.6855  223.1318 H   0  0  0  0  0  0  0  0  0  0  0  0
  138.9061   67.3490  225.1730 H   0  0  0  0  0  0  0  0  0  0  0  0
  139.7440   67.2045  227.3713 H   0  0  0  0  0  0  0  0  0  0  0  0
  140.8770   68.2972  229.3197 H   0  0  0  0  0  0  0  0  0  0  0  0
  141.5596   70.6719  229.1700 H   0  0  0  0  0  0  0  0  0  0  0  0
  141.1481   71.9858  227.1269 H   0  0  0  0  0  0  0  0  0  0  0  0
  142.3079   76.1792  221.3979 H   0  0  0  0  0  0  0  0  0  0  0  0
  144.1113   76.2973  219.7036 H   0  0  0  0  0  0  0  0  0  0  0  0
  143.7532   77.4840  217.5492 H   0  0  0  0  0  0  0  0  0  0  0  0
  141.5442   78.5521  217.1171 H   0  0  0  0  0  0  0  0  0  0  0  0
  139.7530   78.4353  218.7936 H   0  0  0  0  0  0  0  0  0  0  0  0
  1  2  1  0
  2  3  1  0
  3  4  1  0
  4  5  1  0
  5  6  1  0
  6  7  1  0
  7  8  1  0
  8  9  2  0
  8 10  1  0
 10 11  1  0
 11 12  1  0
 12 13  2  0
 12 14  1  0
 14 15  2  0
 15 16  1  0
 16 17  2  0
 17 18  1  0
 18 19  2  0
 19 20  1  0
 20 21  2  0
 21 22  1  0
 22 23  2  0
  6 24  1  0
 24 25  2  0
 25 26  1  0
 26 27  2  0
 27 28  1  0
 28 29  2  0
 23 14  1  0
 29 24  1  0
 22 17  1  0
  1 30  1  0
  1 31  1  0
  1 32  1  0
  3 33  1  0
  3 34  1  0
  4 35  1  0
  4 36  1  0
  5 37  1  0
  5 38  1  0
  6 39  1  6
  7 40  1  0
 10 41  1  0
 10 42  1  0
 11 43  1  0
 15 44  1  0
 16 45  1  0
 18 46  1  0
 19 47  1  0
 20 48  1  0
 21 49  1  0
 25 50  1  0
 26 51  1  0
 27 52  1  0
 28 53  1  0
 29 54  1  0
M  END
>  <smiles>  (11) 
CSCCC[C@H](NC(=O)CNC(=O)c1ccc2ccccc2n1)c1ccccc1

>  <score_type>  (11) 
oracle

>  <origin>  (11) 
autodockgpu

>  <m_score__min__energy>  (11) 
-8.7400000000000002

>  <m_primary>  (11) 
energy

>  <rmsd>  (11) 
4.746446780657381

>  <m_score__min__rmsd>  (11) 
4.746446780657381

>  <meeko>  (11) 
{"free_energy": -8.03, "intermolecular_energy": -10.72, "internal_energy": -1.78, "cluster_size": 1, "cluster_id": 5, "rank_in_cluster": 1}

>  <energy>  (11) 
-8.05

>  <cluster_rmsd>  (11) 
1.05

>  <cluster>  (11) 
1

$$$$

     RDKit          3D

 54 56  0  0  0  0  0  0  0  0999 V2000
  141.8080   80.5850  221.0310 C   0  0  0  0  0  0  0  0  0  0  0  0
  142.4640   80.3150  222.6930 S   0  0  0  0  0  0  0  0  0  0  0  0
  141.6220   78.9010  223.4580 C   0  0  0  0  0  0  0  0  0  0  0  0
  140.9340   78.1300  222.3570 C   0  0  0  0  0  0  0  0  0  0  0  0
  140.5920   76.7240  222.7020 C   0  0  0  0  0  0  0  0  0  0  0  0
  140.3370   75.8080  221.5500 C   0  0  2  0  0  0  0  0  0  0  0  0
  139.3920   74.7360  221.9170 N   0  0  0  0  0  0  0  0  0  0  0  0
  138.3440   74.3480  221.0400 C   0  0  0  0  0  0  0  0  0  0  0  0
  138.2660   74.9630  219.9420 O   0  0  0  0  0  0  0  0  0  0  0  0
  137.3660   73.2760  221.3610 C   0  0  0  0  0  0  0  0  0  0  0  0
  137.8040   72.6300  222.5860 N   0  0  0  0  0  0  0  0  0  0  0  0
  138.9210   71.7440  222.5970 C   0  0  0  0  0  0  0  0  0  0  0  0
  139.5540   71.5040  221.5190 O   0  0  0  0  0  0  0  0  0  0  0  0
  139.3440   71.1080  223.8400 C   0  0  0  0  0  0  0  0  0  0  0  0
  139.1840   69.7480  224.0040 C   0  0  0  0  0  0  0  0  0  0  0  0
  139.5590   69.0770  225.1490 C   0  0  0  0  0  0  0  0  0  0  0  0
  140.1210   69.8180  226.1690 C   0  0  0  0  0  0  0  0  0  0  0  0
  140.4960   69.1470  227.3130 C   0  0  0  0  0  0  0  0  0  0  0  0
  141.0610   69.8840  228.3390 C   0  0  0  0  0  0  0  0  0  0  0  0
  141.2300   71.2520  228.1920 C   0  0  0  0  0  0  0  0  0  0  0  0
  140.8480   71.9000  227.0430 C   0  0  0  0  0  0  0  0  0  0  0  0
  140.2820   71.1830  226.0060 C   0  0  0  0  0  0  0  0  0  0  0  0
  139.8970   71.7810  224.8650 N   0  0  0  0  0  0  0  0  0  0  0  0
  141.5720   75.2340  220.9750 C   0  0  0  0  0  0  0  0  0  0  0  0
  141.8260   73.8820  221.2030 C   0  0  0  0  0  0  0  0  0  0  0  0
  142.9680   73.2860  220.6860 C   0  0  0  0  0  0  0  0  0  0  0  0
  143.8750   74.0110  219.9390 C   0  0  0  0  0  0  0  0  0  0  0  0
  143.6180   75.3510  219.7170 C   0  0  0  0  0  0  0  0  0  0  0  0
  142.4860   75.9430  220.2280 C   0  0  0  0  0  0  0  0  0  0  0  0
  140.7928   81.0028  221.1009 H   0  0  0  0  0  0  0  0  0  0  0  0
  142.4577   81.2888  220.4902 H   0  0  0  0  0  0  0  0  0  0  0  0
  141.7741   79.6277  220.4902 H   0  0  0  0  0  0  0  0  0  0  0  0
  142.3555   78.2570  223.9652 H   0  0  0  0  0  0  0  0  0  0  0  0
  140.8909   79.2442  224.2048 H   0  0  0  0  0  0  0  0  0  0  0  0
  140.0026   78.6561  222.1009 H   0  0  0  0  0  0  0  0  0  0  0  0
  141.6470   78.0798  221.5209 H   0  0  0  0  0  0  0  0  0  0  0  0
  141.4278   76.3079  223.2836 H   0  0  0  0  0  0  0  0  0  0  0  0
  139.6413   76.7778  223.2527 H   0  0  0  0  0  0  0  0  0  0  0  0
  139.8826   76.4314  220.7658 H   0  0  0  0  0  0  0  0  0  0  0  0
  139.4890   74.2500  222.8370 H   0  0  0  0  0  0  0  0  0  0  0  0
  136.3662   73.7118  221.5042 H   0  0  0  0  0  0  0  0  0  0  0  0
  137.3110   72.5465  220.5395 H   0  0  0  0  0  0  0  0  0  0  0  0
  137.3300   72.7790  223.5120 H   0  0  0  0  0  0  0  0  0  0  0  0
  138.7357   69.1707  223.1820 H   0  0  0  0  0  0  0  0  0  0  0  0
  139.4155   67.9907  225.2459 H   0  0  0  0  0  0  0  0  0  0  0  0
  140.3509   68.0607  227.4074 H   0  0  0  0  0  0  0  0  0  0  0  0
  141.3750   69.3859  229.2682 H   0  0  0  0  0  0  0  0  0  0  0  0
  141.6793   71.8305  229.0126 H   0  0  0  0  0  0  0  0  0  0  0  0
  140.9921   72.9864  226.9484 H   0  0  0  0  0  0  0  0  0  0  0  0
  141.1176   73.2846  221.7957 H   0  0  0  0  0  0  0  0  0  0  0  0
  143.1535   72.2183  220.8746 H   0  0  0  0  0  0  0  0  0  0  0  0
  144.7787   73.5347  219.5311 H   0  0  0  0  0  0  0  0  0  0  0  0
  144.3259   75.9503  219.1256 H   0  0  0  0  0  0  0  0  0  0  0  0
  142.3064   77.0109  220.0347 H   0  0  0  0  0  0  0  0  0  0  0  0
  1  2  1  0
  2  3  1  0
  3  4  1  0
  4  5  1  0
  5  6  1  0
  6  7  1  0
  7  8  1  0
  8  9  2  0
  8 10  1  0
 10 11  1  0
 11 12  1  0
 12 13  2  0
 12 14  1  0
 14 15  2  0
 15 16  1  0
 16 17  2  0
 17 18  1  0
 18 19  2  0
 19 20  1  0
 20 21  2  0
 21 22  1  0
 22 23  2  0
  6 24  1  0
 24 25  2  0
 25 26  1  0
 26 27  2  0
 27 28  1  0
 28 29  2  0
 23 14  1  0
 29 24  1  0
 22 17  1  0
  1 30  1  0
  1 31  1  0
  1 32  1  0
  3 33  1  0
  3 34  1  0
  4 35  1  0
  4 36  1  0
  5 37  1  0
  5 38  1  0
  6 39  1  6
  7 40  1  0
 10 41  1  0
 10 42  1  0
 11 43  1  0
 15 44  1  0
 16 45  1  0
 18 46  1  0
 19 47  1  0
 20 48  1  0
 21 49  1  0
 25 50  1  0
 26 51  1  0
 27 52  1  0
 28 53  1  0
 29 54  1  0
M  END
>  <smiles>  (12) 
CSCCC[C@H](NC(=O)CNC(=O)c1ccc2ccccc2n1)c1ccccc1

>  <score_type>  (12) 
oracle

>  <origin>  (12) 
autodockgpu

>  <m_score__min__energy>  (12) 
-8.7400000000000002

>  <m_primary>  (12) 
energy

>  <rmsd>  (12) 
5.595840638345985

>  <m_score__min__rmsd>  (12) 
5.595840638345985

>  <meeko>  (12) 
{"free_energy": -8.06, "intermolecular_energy": -10.74, "internal_energy": -1.91, "cluster_size": 17, "cluster_id": 2, "rank_in_cluster": 13}

>  <energy>  (12) 
-8.0

>  <cluster_rmsd>  (12) 
0.76

>  <cluster>  (12) 
1

$$$$

     RDKit          3D

 54 56  0  0  0  0  0  0  0  0999 V2000
  134.2740   73.7200  224.8600 C   0  0  0  0  0  0  0  0  0  0  0  0
  134.5930   75.3060  225.6650 S   0  0  0  0  0  0  0  0  0  0  0  0
  134.4210   76.6490  224.4540 C   0  0  0  0  0  0  0  0  0  0  0  0
  135.2000   76.2540  223.2230 C   0  0  0  0  0  0  0  0  0  0  0  0
  136.5220   75.6290  223.4980 C   0  0  0  0  0  0  0  0  0  0  0  0
  137.5160   75.6780  222.3840 C   0  0  2  0  0  0  0  0  0  0  0  0
  138.1210   74.3530  222.1480 N   0  0  0  0  0  0  0  0  0  0  0  0
  137.6210   73.4840  221.1410 C   0  0  0  0  0  0  0  0  0  0  0  0
  136.6420   73.9030  220.4670 O   0  0  0  0  0  0  0  0  0  0  0  0
  138.1940   72.1410  220.8640 C   0  0  0  0  0  0  0  0  0  0  0  0
  138.4940   71.5160  222.1400 N   0  0  0  0  0  0  0  0  0  0  0  0
  139.6410   71.8910  222.8980 C   0  0  0  0  0  0  0  0  0  0  0  0
  140.4290   72.7890  222.4580 O   0  0  0  0  0  0  0  0  0  0  0  0
  139.9200   71.2500  224.1790 C   0  0  0  0  0  0  0  0  0  0  0  0
  140.6790   71.9090  225.1240 C   0  0  0  0  0  0  0  0  0  0  0  0
  140.9840   71.3690  226.3550 C   0  0  0  0  0  0  0  0  0  0  0  0
  140.4990   70.1080  226.6390 C   0  0  0  0  0  0  0  0  0  0  0  0
  140.8040   69.5690  227.8700 C   0  0  0  0  0  0  0  0  0  0  0  0
  140.3190   68.3050  228.1600 C   0  0  0  0  0  0  0  0  0  0  0  0
  139.5550   67.6280  227.2220 C   0  0  0  0  0  0  0  0  0  0  0  0
  139.2650   68.1850  226.0010 C   0  0  0  0  0  0  0  0  0  0  0  0
  139.7380   69.4460  225.6900 C   0  0  0  0  0  0  0  0  0  0  0  0
  139.4730   70.0250  224.5060 N   0  0  0  0  0  0  0  0  0  0  0  0
  138.5660   76.6990  222.5800 C   0  0  0  0  0  0  0  0  0  0  0  0
  139.8880   76.3220  222.3480 C   0  0  0  0  0  0  0  0  0  0  0  0
  140.9180   77.2380  222.5140 C   0  0  0  0  0  0  0  0  0  0  0  0
  140.6610   78.5360  222.9100 C   0  0  0  0  0  0  0  0  0  0  0  0
  139.3480   78.9040  223.1390 C   0  0  0  0  0  0  0  0  0  0  0  0
  138.3260   77.9960  222.9740 C   0  0  0  0  0  0  0  0  0  0  0  0
  134.1182   72.9452  225.6251 H   0  0  0  0  0  0  0  0  0  0  0  0
  133.3743   73.8017  224.2324 H   0  0  0  0  0  0  0  0  0  0  0  0
  135.1353   73.4475  224.2324 H   0  0  0  0  0  0  0  0  0  0  0  0
  133.3606   76.7900  224.1979 H   0  0  0  0  0  0  0  0  0  0  0  0
  134.8034   77.5940  224.8672 H   0  0  0  0  0  0  0  0  0  0  0  0
  134.5944   75.5366  222.6498 H   0  0  0  0  0  0  0  0  0  0  0  0
  135.4045   77.1843  222.6729 H   0  0  0  0  0  0  0  0  0  0  0  0
  136.9630   76.1429  224.3649 H   0  0  0  0  0  0  0  0  0  0  0  0
  136.3156   74.5613  223.6634 H   0  0  0  0  0  0  0  0  0  0  0  0
  136.9494   75.9765  221.4897 H   0  0  0  0  0  0  0  0  0  0  0  0
  138.9330   74.0410  222.7290 H   0  0  0  0  0  0  0  0  0  0  0  0
  137.4660   71.5303  220.3099 H   0  0  0  0  0  0  0  0  0  0  0  0
  139.1059   72.2298  220.2552 H   0  0  0  0  0  0  0  0  0  0  0  0
  137.8900   70.7670  222.5650 H   0  0  0  0  0  0  0  0  0  0  0  0
  141.0588   72.9130  224.8837 H   0  0  0  0  0  0  0  0  0  0  0  0
  141.5922   71.9231  227.0851 H   0  0  0  0  0  0  0  0  0  0  0  0
  141.4128   70.1247  228.5983 H   0  0  0  0  0  0  0  0  0  0  0  0
  140.5393   67.8393  229.1319 H   0  0  0  0  0  0  0  0  0  0  0  0
  139.1734   66.6243  227.4608 H   0  0  0  0  0  0  0  0  0  0  0  0
  138.6575   67.6289  225.2718 H   0  0  0  0  0  0  0  0  0  0  0  0
  140.1162   75.2934  222.0318 H   0  0  0  0  0  0  0  0  0  0  0  0
  141.9558   76.9249  222.3271 H   0  0  0  0  0  0  0  0  0  0  0  0
  141.4801   79.2587  223.0399 H   0  0  0  0  0  0  0  0  0  0  0  0
  139.1177   79.9318  223.4560 H   0  0  0  0  0  0  0  0  0  0  0  0
  137.2904   78.3155  223.1620 H   0  0  0  0  0  0  0  0  0  0  0  0
  1  2  1  0
  2  3  1  0
  3  4  1  0
  4  5  1  0
  5  6  1  0
  6  7  1  0
  7  8  1  0
  8  9  2  0
  8 10  1  0
 10 11  1  0
 11 12  1  0
 12 13  2  0
 12 14  1  0
 14 15  2  0
 15 16  1  0
 16 17  2  0
 17 18  1  0
 18 19  2  0
 19 20  1  0
 20 21  2  0
 21 22  1  0
 22 23  2  0
  6 24  1  0
 24 25  2  0
 25 26  1  0
 26 27  2  0
 27 28  1  0
 28 29  2  0
 23 14  1  0
 29 24  1  0
 22 17  1  0
  1 30  1  0
  1 31  1  0
  1 32  1  0
  3 33  1  0
  3 34  1  0
  4 35  1  0
  4 36  1  0
  5 37  1  0
  5 38  1  0
  6 39  1  6
  7 40  1  0
 10 41  1  0
 10 42  1  0
 11 43  1  0
 15 44  1  0
 16 45  1  0
 18 46  1  0
 19 47  1  0
 20 48  1  0
 21 49  1  0
 25 50  1  0
 26 51  1  0
 27 52  1  0
 28 53  1  0
 29 54  1  0
M  END
>  <smiles>  (13) 
CSCCC[C@H](NC(=O)CNC(=O)c1ccc2ccccc2n1)c1ccccc1

>  <score_type>  (13) 
oracle

>  <origin>  (13) 
autodockgpu

>  <m_score__min__energy>  (13) 
-8.7400000000000002

>  <m_primary>  (13) 
energy

>  <rmsd>  (13) 
4.893420331833705

>  <m_score__min__rmsd>  (13) 
4.893420331833705

>  <meeko>  (13) 
{"free_energy": -7.28, "intermolecular_energy": -9.97, "internal_energy": -2.45, "cluster_size": 6, "cluster_id": 7, "rank_in_cluster": 5}

>  <energy>  (13) 
-8.0

>  <cluster_rmsd>  (13) 
1.2

>  <cluster>  (13) 
1

$$$$

     RDKit          3D

 54 56  0  0  0  0  0  0  0  0999 V2000
  142.9170   80.1490  222.7500 C   0  0  0  0  0  0  0  0  0  0  0  0
  141.8240   79.1970  223.8280 S   0  0  0  0  0  0  0  0  0  0  0  0
  140.1760   79.0790  223.0750 C   0  0  0  0  0  0  0  0  0  0  0  0
  140.2600   78.0770  221.9490 C   0  0  0  0  0  0  0  0  0  0  0  0
  140.5990   76.6920  222.3740 C   0  0  0  0  0  0  0  0  0  0  0  0
  140.3850   75.6210  221.3550 C   0  0  2  0  0  0  0  0  0  0  0  0
  139.4590   74.5850  221.8530 N   0  0  0  0  0  0  0  0  0  0  0  0
  138.5430   73.9390  220.9810 C   0  0  0  0  0  0  0  0  0  0  0  0
  138.5620   74.2950  219.7720 O   0  0  0  0  0  0  0  0  0  0  0  0
  137.5900   72.8900  221.4310 C   0  0  0  0  0  0  0  0  0  0  0  0
  138.0520   72.3940  222.7160 N   0  0  0  0  0  0  0  0  0  0  0  0
  139.2480   71.6260  222.8260 C   0  0  0  0  0  0  0  0  0  0  0  0
  139.9320   71.3590  221.7860 O   0  0  0  0  0  0  0  0  0  0  0  0
  139.6940   71.1400  224.1270 C   0  0  0  0  0  0  0  0  0  0  0  0
  140.5790   71.8900  224.8720 C   0  0  0  0  0  0  0  0  0  0  0  0
  141.0460   71.4980  226.1090 C   0  0  0  0  0  0  0  0  0  0  0  0
  140.5940   70.2930  226.6100 C   0  0  0  0  0  0  0  0  0  0  0  0
  141.0600   69.9020  227.8470 C   0  0  0  0  0  0  0  0  0  0  0  0
  140.6090   68.6960  228.3550 C   0  0  0  0  0  0  0  0  0  0  0  0
  139.7180   67.9280  227.6210 C   0  0  0  0  0  0  0  0  0  0  0  0
  139.2680   68.3390  226.3900 C   0  0  0  0  0  0  0  0  0  0  0  0
  139.7050   69.5400  225.8630 C   0  0  0  0  0  0  0  0  0  0  0  0
  139.2850   69.9760  224.6620 N   0  0  0  0  0  0  0  0  0  0  0  0
  141.6430   75.0070  220.8790 C   0  0  0  0  0  0  0  0  0  0  0  0
  141.8700   73.6680  221.1980 C   0  0  0  0  0  0  0  0  0  0  0  0
  143.0320   73.0350  220.7770 C   0  0  0  0  0  0  0  0  0  0  0  0
  143.9840   73.7090  220.0390 C   0  0  0  0  0  0  0  0  0  0  0  0
  143.7530   75.0360  219.7270 C   0  0  0  0  0  0  0  0  0  0  0  0
  142.6010   75.6650  220.1430 C   0  0  0  0  0  0  0  0  0  0  0  0
  143.6056   80.7487  223.3634 H   0  0  0  0  0  0  0  0  0  0  0  0
  143.4954   79.4617  222.1151 H   0  0  0  0  0  0  0  0  0  0  0  0
  142.3156   80.8163  222.1151 H   0  0  0  0  0  0  0  0  0  0  0  0
  139.4446   78.7413  223.8240 H   0  0  0  0  0  0  0  0  0  0  0  0
  139.8529   80.0599  222.6963 H   0  0  0  0  0  0  0  0  0  0  0  0
  139.2850   78.0505  221.4404 H   0  0  0  0  0  0  0  0  0  0  0  0
  141.0796   78.4112  221.2959 H   0  0  0  0  0  0  0  0  0  0  0  0
  141.6616   76.6782  222.6580 H   0  0  0  0  0  0  0  0  0  0  0  0
  139.9085   76.4583  223.1977 H   0  0  0  0  0  0  0  0  0  0  0  0
  139.9286   76.1189  220.4868 H   0  0  0  0  0  0  0  0  0  0  0  0
  139.4730   74.3180  222.8630 H   0  0  0  0  0  0  0  0  0  0  0  0
  136.5826   73.3192  221.5355 H   0  0  0  0  0  0  0  0  0  0  0  0
  137.5433   72.0721  220.6970 H   0  0  0  0  0  0  0  0  0  0  0  0
  137.5390   72.5730  223.6160 H   0  0  0  0  0  0  0  0  0  0  0  0
  140.9297   72.8476  224.4597 H   0  0  0  0  0  0  0  0  0  0  0  0
  141.7525   72.1222  226.6758 H   0  0  0  0  0  0  0  0  0  0  0  0
  141.7669   70.5277  228.4117 H   0  0  0  0  0  0  0  0  0  0  0  0
  140.9567   68.3477  229.3388 H   0  0  0  0  0  0  0  0  0  0  0  0
  139.3646   66.9710  228.0325 H   0  0  0  0  0  0  0  0  0  0  0  0
  138.5613   67.7137  225.8246 H   0  0  0  0  0  0  0  0  0  0  0  0
  141.1252   73.1112  221.7856 H   0  0  0  0  0  0  0  0  0  0  0  0
  143.1966   71.9787  221.0360 H   0  0  0  0  0  0  0  0  0  0  0  0
  144.9029   73.2033  219.7076 H   0  0  0  0  0  0  0  0  0  0  0  0
  144.4971   75.5949  219.1405 H   0  0  0  0  0  0  0  0  0  0  0  0
  142.4425   76.7213  219.8800 H   0  0  0  0  0  0  0  0  0  0  0  0
  1  2  1  0
  2  3  1  0
  3  4  1  0
  4  5  1  0
  5  6  1  0
  6  7  1  0
  7  8  1  0
  8  9  2  0
  8 10  1  0
 10 11  1  0
 11 12  1  0
 12 13  2  0
 12 14  1  0
 14 15  2  0
 15 16  1  0
 16 17  2  0
 17 18  1  0
 18 19  2  0
 19 20  1  0
 20 21  2  0
 21 22  1  0
 22 23  2  0
  6 24  1  0
 24 25  2  0
 25 26  1  0
 26 27  2  0
 27 28  1  0
 28 29  2  0
 23 14  1  0
 29 24  1  0
 22 17  1  0
  1 30  1  0
  1 31  1  0
  1 32  1  0
  3 33  1  0
  3 34  1  0
  4 35  1  0
  4 36  1  0
  5 37  1  0
  5 38  1  0
  6 39  1  6
  7 40  1  0
 10 41  1  0
 10 42  1  0
 11 43  1  0
 15 44  1  0
 16 45  1  0
 18 46  1  0
 19 47  1  0
 20 48  1  0
 21 49  1  0
 25 50  1  0
 26 51  1  0
 27 52  1  0
 28 53  1  0
 29 54  1  0
M  END
>  <smiles>  (14) 
CSCCC[C@H](NC(=O)CNC(=O)c1ccc2ccccc2n1)c1ccccc1

>  <score_type>  (14) 
oracle

>  <origin>  (14) 
autodockgpu

>  <m_score__min__energy>  (14) 
-8.7400000000000002

>  <m_primary>  (14) 
energy

>  <rmsd>  (14) 
5.501199550496948

>  <m_score__min__rmsd>  (14) 
5.501199550496948

>  <meeko>  (14) 
{"free_energy": -8.28, "intermolecular_energy": -10.96, "internal_energy": -1.86, "cluster_size": 17, "cluster_id": 2, "rank_in_cluster": 7}

>  <energy>  (14) 
-7.97

>  <cluster_rmsd>  (14) 
1.2

>  <cluster>  (14) 
1

$$$$

     RDKit          3D

 54 56  0  0  0  0  0  0  0  0999 V2000
  135.8960   70.9650  224.1790 C   0  0  0  0  0  0  0  0  0  0  0  0
  136.2000   72.4770  223.2370 S   0  0  0  0  0  0  0  0  0  0  0  0
  135.4090   73.8830  224.0690 C   0  0  0  0  0  0  0  0  0  0  0  0
  135.5020   75.0720  223.1420 C   0  0  0  0  0  0  0  0  0  0  0  0
  136.6750   75.9550  223.3810 C   0  0  0  0  0  0  0  0  0  0  0  0
  137.6800   76.0240  222.2780 C   0  0  2  0  0  0  0  0  0  0  0  0
  138.2340   74.6910  221.9740 N   0  0  0  0  0  0  0  0  0  0  0  0
  138.1910   74.1600  220.6570 C   0  0  0  0  0  0  0  0  0  0  0  0
  137.6590   74.8820  219.7710 O   0  0  0  0  0  0  0  0  0  0  0  0
  138.7340   72.8230  220.2980 C   0  0  0  0  0  0  0  0  0  0  0  0
  138.8050   72.0330  221.5150 N   0  0  0  0  0  0  0  0  0  0  0  0
  139.7890   72.2960  222.5120 C   0  0  0  0  0  0  0  0  0  0  0  0
  140.6300   73.2380  222.3450 O   0  0  0  0  0  0  0  0  0  0  0  0
  139.8390   71.4910  223.7280 C   0  0  0  0  0  0  0  0  0  0  0  0
  139.2890   70.2260  223.7350 C   0  0  0  0  0  0  0  0  0  0  0  0
  139.2980   69.4070  224.8440 C   0  0  0  0  0  0  0  0  0  0  0  0
  139.8900   69.8920  225.9930 C   0  0  0  0  0  0  0  0  0  0  0  0
  139.8990   69.0720  227.1010 C   0  0  0  0  0  0  0  0  0  0  0  0
  140.4930   69.5530  228.2560 C   0  0  0  0  0  0  0  0  0  0  0  0
  141.0510   70.8220  228.2670 C   0  0  0  0  0  0  0  0  0  0  0  0
  141.0290   71.6210  227.1500 C   0  0  0  0  0  0  0  0  0  0  0  0
  140.4420   71.1610  225.9870 C   0  0  0  0  0  0  0  0  0  0  0  0
  140.4030   71.9140  224.8730 N   0  0  0  0  0  0  0  0  0  0  0  0
  138.7680   76.9900  222.5370 C   0  0  0  0  0  0  0  0  0  0  0  0
  138.4150   78.2480  223.0260 C   0  0  0  0  0  0  0  0  0  0  0  0
  139.3930   79.1970  223.2910 C   0  0  0  0  0  0  0  0  0  0  0  0
  140.7300   78.9220  223.0790 C   0  0  0  0  0  0  0  0  0  0  0  0
  141.0730   77.6740  222.5940 C   0  0  0  0  0  0  0  0  0  0  0  0
  140.1040   76.7320  222.3310 C   0  0  0  0  0  0  0  0  0  0  0  0
  135.9409   71.1882  225.2552 H   0  0  0  0  0  0  0  0  0  0  0  0
  134.9005   70.5703  223.9276 H   0  0  0  0  0  0  0  0  0  0  0  0
  136.6616   70.2162  223.9276 H   0  0  0  0  0  0  0  0  0  0  0  0
  134.3541   73.6509  224.2770 H   0  0  0  0  0  0  0  0  0  0  0  0
  135.9089   74.0979  225.0250 H   0  0  0  0  0  0  0  0  0  0  0  0
  135.5593   74.6978  222.1092 H   0  0  0  0  0  0  0  0  0  0  0  0
  134.6080   75.6844  223.3308 H   0  0  0  0  0  0  0  0  0  0  0  0
  136.2988   76.9735  223.5573 H   0  0  0  0  0  0  0  0  0  0  0  0
  137.2062   75.5158  224.2383 H   0  0  0  0  0  0  0  0  0  0  0  0
  137.1336   76.3926  221.3973 H   0  0  0  0  0  0  0  0  0  0  0  0
  138.6670   74.1210  222.7360 H   0  0  0  0  0  0  0  0  0  0  0  0
  138.0703   72.3321  219.5710 H   0  0  0  0  0  0  0  0  0  0  0  0
  139.7312   72.9217  219.8444 H   0  0  0  0  0  0  0  0  0  0  0  0
  138.1460   71.2410  221.7210 H   0  0  0  0  0  0  0  0  0  0  0  0
  138.8210   69.8530  222.8120 H   0  0  0  0  0  0  0  0  0  0  0  0
  138.8495   68.4030  224.8144 H   0  0  0  0  0  0  0  0  0  0  0  0
  139.4492   68.0687  227.0689 H   0  0  0  0  0  0  0  0  0  0  0  0
  140.5219   68.9299  229.1620 H   0  0  0  0  0  0  0  0  0  0  0  0
  141.5207   71.1964  229.1885 H   0  0  0  0  0  0  0  0  0  0  0  0
  141.4777   72.6248  227.1813 H   0  0  0  0  0  0  0  0  0  0  0  0
  137.3564   78.4892  223.2025 H   0  0  0  0  0  0  0  0  0  0  0  0
  139.0984   80.1843  223.6762 H   0  0  0  0  0  0  0  0  0  0  0  0
  141.5017   79.6767  223.2907 H   0  0  0  0  0  0  0  0  0  0  0  0
  142.1310   77.4309  222.4163 H   0  0  0  0  0  0  0  0  0  0  0  0
  140.4058   75.7468  221.9459 H   0  0  0  0  0  0  0  0  0  0  0  0
  1  2  1  0
  2  3  1  0
  3  4  1  0
  4  5  1  0
  5  6  1  0
  6  7  1  0
  7  8  1  0
  8  9  2  0
  8 10  1  0
 10 11  1  0
 11 12  1  0
 12 13  2  0
 12 14  1  0
 14 15  2  0
 15 16  1  0
 16 17  2  0
 17 18  1  0
 18 19  2  0
 19 20  1  0
 20 21  2  0
 21 22  1  0
 22 23  2  0
  6 24  1  0
 24 25  2  0
 25 26  1  0
 26 27  2  0
 27 28  1  0
 28 29  2  0
 23 14  1  0
 29 24  1  0
 22 17  1  0
  1 30  1  0
  1 31  1  0
  1 32  1  0
  3 33  1  0
  3 34  1  0
  4 35  1  0
  4 36  1  0
  5 37  1  0
  5 38  1  0
  6 39  1  6
  7 40  1  0
 10 41  1  0
 10 42  1  0
 11 43  1  0
 15 44  1  0
 16 45  1  0
 18 46  1  0
 19 47  1  0
 20 48  1  0
 21 49  1  0
 25 50  1  0
 26 51  1  0
 27 52  1  0
 28 53  1  0
 29 54  1  0
M  END
>  <smiles>  (15) 
CSCCC[C@H](NC(=O)CNC(=O)c1ccc2ccccc2n1)c1ccccc1

>  <score_type>  (15) 
oracle

>  <origin>  (15) 
autodockgpu

>  <m_score__min__energy>  (15) 
-8.7400000000000002

>  <m_primary>  (15) 
energy

>  <rmsd>  (15) 
4.779495511510383

>  <m_score__min__rmsd>  (15) 
4.779495511510383

>  <meeko>  (15) 
{"free_energy": -7.42, "intermolecular_energy": -10.11, "internal_energy": -2.92, "cluster_size": 6, "cluster_id": 7, "rank_in_cluster": 1}

>  <energy>  (15) 
-7.96

>  <cluster_rmsd>  (15) 
1.0

>  <cluster>  (15) 
1

$$$$

     RDKit          3D

 54 56  0  0  0  0  0  0  0  0999 V2000
  145.1780   73.8820  220.7040 C   0  0  0  0  0  0  0  0  0  0  0  0
  143.6290   74.3500  219.9000 S   0  0  0  0  0  0  0  0  0  0  0  0
  143.6920   76.1030  219.4310 C   0  0  0  0  0  0  0  0  0  0  0  0
  142.4120   76.4230  218.6960 C   0  0  0  0  0  0  0  0  0  0  0  0
  141.4500   77.2600  219.4610 C   0  0  0  0  0  0  0  0  0  0  0  0
  141.2010   76.8480  220.8750 C   0  0  2  0  0  0  0  0  0  0  0  0
  140.0530   75.9270  220.9710 N   0  0  0  0  0  0  0  0  0  0  0  0
  140.1870   74.6450  221.5680 C   0  0  0  0  0  0  0  0  0  0  0  0
  141.3280   74.3400  222.0070 O   0  0  0  0  0  0  0  0  0  0  0  0
  139.0620   73.6800  221.6880 C   0  0  0  0  0  0  0  0  0  0  0  0
  139.3690   72.7760  222.7830 N   0  0  0  0  0  0  0  0  0  0  0  0
  138.8420   71.4520  222.8200 C   0  0  0  0  0  0  0  0  0  0  0  0
  138.0850   71.0410  221.8830 O   0  0  0  0  0  0  0  0  0  0  0  0
  139.1670   70.5620  223.9300 C   0  0  0  0  0  0  0  0  0  0  0  0
  138.8390   69.2240  223.8530 C   0  0  0  0  0  0  0  0  0  0  0  0
  139.1130   68.3220  224.8600 C   0  0  0  0  0  0  0  0  0  0  0  0
  139.7460   68.7980  225.9900 C   0  0  0  0  0  0  0  0  0  0  0  0
  140.0200   67.8960  226.9960 C   0  0  0  0  0  0  0  0  0  0  0  0
  140.6550   68.3680  228.1320 C   0  0  0  0  0  0  0  0  0  0  0  0
  140.9920   69.7080  228.2260 C   0  0  0  0  0  0  0  0  0  0  0  0
  140.7080   70.5900  227.2110 C   0  0  0  0  0  0  0  0  0  0  0  0
  140.0740   70.1400  226.0680 C   0  0  0  0  0  0  0  0  0  0  0  0
  139.7820   70.9720  225.0530 N   0  0  0  0  0  0  0  0  0  0  0  0
  141.0260   77.9920  221.7960 C   0  0  0  0  0  0  0  0  0  0  0  0
  139.8440   78.0530  222.5340 C   0  0  0  0  0  0  0  0  0  0  0  0
  139.6230   79.1010  223.4170 C   0  0  0  0  0  0  0  0  0  0  0  0
  140.5590   80.1020  223.5840 C   0  0  0  0  0  0  0  0  0  0  0  0
  141.7280   80.0370  222.8480 C   0  0  0  0  0  0  0  0  0  0  0  0
  141.9490   78.9970  221.9730 C   0  0  0  0  0  0  0  0  0  0  0  0
  145.0506   73.9205  221.7959 H   0  0  0  0  0  0  0  0  0  0  0  0
  145.4534   72.8605  220.4028 H   0  0  0  0  0  0  0  0  0  0  0  0
  145.9730   74.5801  220.4028 H   0  0  0  0  0  0  0  0  0  0  0  0
  143.7749   76.7298  220.3312 H   0  0  0  0  0  0  0  0  0  0  0  0
  144.5653   76.3019  218.7925 H   0  0  0  0  0  0  0  0  0  0  0  0
  142.6724   76.9585  217.7711 H   0  0  0  0  0  0  0  0  0  0  0  0
  141.9102   75.4616  218.5120 H   0  0  0  0  0  0  0  0  0  0  0  0
  141.8366   78.2897  219.4740 H   0  0  0  0  0  0  0  0  0  0  0  0
  140.4848   77.1469  218.9457 H   0  0  0  0  0  0  0  0  0  0  0  0
  142.1100   76.3190  221.1973 H   0  0  0  0  0  0  0  0  0  0  0  0
  139.1210   76.2160  220.5940 H   0  0  0  0  0  0  0  0  0  0  0  0
  138.1268   74.2195  221.8988 H   0  0  0  0  0  0  0  0  0  0  0  0
  138.9343   73.1192  220.7503 H   0  0  0  0  0  0  0  0  0  0  0  0
  139.9850   73.0460  223.5910 H   0  0  0  0  0  0  0  0  0  0  0  0
  138.3352   68.8594  222.9457 H   0  0  0  0  0  0  0  0  0  0  0  0
  138.8369   67.2614  224.7656 H   0  0  0  0  0  0  0  0  0  0  0  0
  139.7431   66.8358  226.8992 H   0  0  0  0  0  0  0  0  0  0  0  0
  140.8912   67.6806  228.9577 H   0  0  0  0  0  0  0  0  0  0  0  0
  141.4975   70.0740  229.1318 H   0  0  0  0  0  0  0  0  0  0  0  0
  140.9842   71.6503  227.3078 H   0  0  0  0  0  0  0  0  0  0  0  0
  139.0835   77.2671  222.4157 H   0  0  0  0  0  0  0  0  0  0  0  0
  138.6866   79.1345  223.9932 H   0  0  0  0  0  0  0  0  0  0  0  0
  140.3794   80.9305  224.2849 H   0  0  0  0  0  0  0  0  0  0  0  0
  142.4884   80.8235  222.9627 H   0  0  0  0  0  0  0  0  0  0  0  0
  142.8879   78.9689  221.4006 H   0  0  0  0  0  0  0  0  0  0  0  0
  1  2  1  0
  2  3  1  0
  3  4  1  0
  4  5  1  0
  5  6  1  0
  6  7  1  0
  7  8  1  0
  8  9  2  0
  8 10  1  0
 10 11  1  0
 11 12  1  0
 12 13  2  0
 12 14  1  0
 14 15  2  0
 15 16  1  0
 16 17  2  0
 17 18  1  0
 18 19  2  0
 19 20  1  0
 20 21  2  0
 21 22  1  0
 22 23  2  0
  6 24  1  0
 24 25  2  0
 25 26  1  0
 26 27  2  0
 27 28  1  0
 28 29  2  0
 23 14  1  0
 29 24  1  0
 22 17  1  0
  1 30  1  0
  1 31  1  0
  1 32  1  0
  3 33  1  0
  3 34  1  0
  4 35  1  0
  4 36  1  0
  5 37  1  0
  5 38  1  0
  6 39  1  1
  7 40  1  0
 10 41  1  0
 10 42  1  0
 11 43  1  0
 15 44  1  0
 16 45  1  0
 18 46  1  0
 19 47  1  0
 20 48  1  0
 21 49  1  0
 25 50  1  0
 26 51  1  0
 27 52  1  0
 28 53  1  0
 29 54  1  0
M  END
>  <smiles>  (16) 
CSCCC[C@H](NC(=O)CNC(=O)c1ccc2ccccc2n1)c1ccccc1

>  <score_type>  (16) 
oracle

>  <origin>  (16) 
autodockgpu

>  <m_score__min__energy>  (16) 
-8.7400000000000002

>  <m_primary>  (16) 
energy

>  <rmsd>  (16) 
4.230857279294693

>  <m_score__min__rmsd>  (16) 
4.230857279294693

>  <meeko>  (16) 
{"free_energy": -8.0, "intermolecular_energy": -10.69, "internal_energy": -2.01, "cluster_size": 20, "cluster_id": 1, "rank_in_cluster": 12}

>  <energy>  (16) 
-7.9

>  <cluster_rmsd>  (16) 
0.93

>  <cluster>  (16) 
1

$$$$

     RDKit          3D

 54 56  0  0  0  0  0  0  0  0999 V2000
  141.3980   81.7430  221.0100 C   0  0  0  0  0  0  0  0  0  0  0  0
  140.7260   80.7260  219.6760 S   0  0  0  0  0  0  0  0  0  0  0  0
  142.0840   80.0840  218.6560 C   0  0  0  0  0  0  0  0  0  0  0  0
  142.2300   78.6140  218.9660 C   0  0  0  0  0  0  0  0  0  0  0  0
  140.9560   77.9180  219.2910 C   0  0  0  0  0  0  0  0  0  0  0  0
  140.9280   77.1710  220.5850 C   0  0  2  0  0  0  0  0  0  0  0  0
  140.0070   76.0200  220.5180 N   0  0  0  0  0  0  0  0  0  0  0  0
  140.1270   74.9300  221.4210 C   0  0  0  0  0  0  0  0  0  0  0  0
  141.0520   74.9990  222.2740 O   0  0  0  0  0  0  0  0  0  0  0  0
  139.2260   73.7470  221.3960 C   0  0  0  0  0  0  0  0  0  0  0  0
  139.4770   72.9730  222.5990 N   0  0  0  0  0  0  0  0  0  0  0  0
  139.1800   71.5810  222.6590 C   0  0  0  0  0  0  0  0  0  0  0  0
  138.6830   70.9910  221.6460 O   0  0  0  0  0  0  0  0  0  0  0  0
  139.4430   70.8230  223.8780 C   0  0  0  0  0  0  0  0  0  0  0  0
  139.0790   69.4950  223.9530 C   0  0  0  0  0  0  0  0  0  0  0  0
  139.2940   68.7150  225.0690 C   0  0  0  0  0  0  0  0  0  0  0  0
  139.9050   69.3090  226.1550 C   0  0  0  0  0  0  0  0  0  0  0  0
  140.1210   68.5290  227.2710 C   0  0  0  0  0  0  0  0  0  0  0  0
  140.7350   69.1190  228.3630 C   0  0  0  0  0  0  0  0  0  0  0  0
  141.1080   70.4520  228.3070 C   0  0  0  0  0  0  0  0  0  0  0  0
  140.8820   71.2100  227.1840 C   0  0  0  0  0  0  0  0  0  0  0  0
  140.2710   70.6420  226.0820 C   0  0  0  0  0  0  0  0  0  0  0  0
  140.0350   71.3510  224.9640 N   0  0  0  0  0  0  0  0  0  0  0  0
  140.6040   78.0260  221.7470 C   0  0  0  0  0  0  0  0  0  0  0  0
  139.2580   78.2630  222.0210 C   0  0  0  0  0  0  0  0  0  0  0  0
  138.8920   79.0550  223.1010 C   0  0  0  0  0  0  0  0  0  0  0  0
  139.8440   79.6250  223.9230 C   0  0  0  0  0  0  0  0  0  0  0  0
  141.1770   79.3870  223.6450 C   0  0  0  0  0  0  0  0  0  0  0  0
  141.5410   78.6000  222.5750 C   0  0  0  0  0  0  0  0  0  0  0  0
  141.1123   81.3106  221.9803 H   0  0  0  0  0  0  0  0  0  0  0  0
  142.4947   81.7736  220.9309 H   0  0  0  0  0  0  0  0  0  0  0  0
  140.9960   82.7639  220.9309 H   0  0  0  0  0  0  0  0  0  0  0  0
  141.8501   80.2214  217.5900 H   0  0  0  0  0  0  0  0  0  0  0  0
  143.0192   80.6203  218.8747 H   0  0  0  0  0  0  0  0  0  0  0  0
  142.6756   78.1215  218.0891 H   0  0  0  0  0  0  0  0  0  0  0  0
  142.8590   78.5471  219.8659 H   0  0  0  0  0  0  0  0  0  0  0  0
  140.1579   78.6744  219.3220 H   0  0  0  0  0  0  0  0  0  0  0  0
  140.8259   77.1573  218.5071 H   0  0  0  0  0  0  0  0  0  0  0  0
  141.9520   76.8007  220.7408 H   0  0  0  0  0  0  0  0  0  0  0  0
  139.2520   75.9990  219.7950 H   0  0  0  0  0  0  0  0  0  0  0  0
  138.1766   74.0761  221.3748 H   0  0  0  0  0  0  0  0  0  0  0  0
  139.4162   73.1377  220.5001 H   0  0  0  0  0  0  0  0  0  0  0  0
  139.8840   73.3920  223.4730 H   0  0  0  0  0  0  0  0  0  0  0  0
  138.5933   69.0357  223.0795 H   0  0  0  0  0  0  0  0  0  0  0  0
  138.9899   67.6581  225.0933 H   0  0  0  0  0  0  0  0  0  0  0  0
  139.8156   67.4725  227.2933 H   0  0  0  0  0  0  0  0  0  0  0  0
  140.9261   68.5307  229.2726 H   0  0  0  0  0  0  0  0  0  0  0  0
  141.5949   70.9126  229.1792 H   0  0  0  0  0  0  0  0  0  0  0  0
  141.1866   72.2667  227.1618 H   0  0  0  0  0  0  0  0  0  0  0  0
  138.4823   77.8206  221.3787 H   0  0  0  0  0  0  0  0  0  0  0  0
  137.8256   79.2314  223.3053 H   0  0  0  0  0  0  0  0  0  0  0  0
  139.5491   80.2523  224.7771 H   0  0  0  0  0  0  0  0  0  0  0  0
  141.9544   79.8304  224.2845 H   0  0  0  0  0  0  0  0  0  0  0  0
  142.6089   78.4257  222.3772 H   0  0  0  0  0  0  0  0  0  0  0  0
  1  2  1  0
  2  3  1  0
  3  4  1  0
  4  5  1  0
  5  6  1  0
  6  7  1  0
  7  8  1  0
  8  9  2  0
  8 10  1  0
 10 11  1  0
 11 12  1  0
 12 13  2  0
 12 14  1  0
 14 15  2  0
 15 16  1  0
 16 17  2  0
 17 18  1  0
 18 19  2  0
 19 20  1  0
 20 21  2  0
 21 22  1  0
 22 23  2  0
  6 24  1  0
 24 25  2  0
 25 26  1  0
 26 27  2  0
 27 28  1  0
 28 29  2  0
 23 14  1  0
 29 24  1  0
 22 17  1  0
  1 30  1  0
  1 31  1  0
  1 32  1  0
  3 33  1  0
  3 34  1  0
  4 35  1  0
  4 36  1  0
  5 37  1  0
  5 38  1  0
  6 39  1  1
  7 40  1  0
 10 41  1  0
 10 42  1  0
 11 43  1  0
 15 44  1  0
 16 45  1  0
 18 46  1  0
 19 47  1  0
 20 48  1  0
 21 49  1  0
 25 50  1  0
 26 51  1  0
 27 52  1  0
 28 53  1  0
 29 54  1  0
M  END
>  <smiles>  (17) 
CSCCC[C@H](NC(=O)CNC(=O)c1ccc2ccccc2n1)c1ccccc1

>  <score_type>  (17) 
oracle

>  <origin>  (17) 
autodockgpu

>  <m_score__min__energy>  (17) 
-8.7400000000000002

>  <m_primary>  (17) 
energy

>  <rmsd>  (17) 
4.269993683705294

>  <m_score__min__rmsd>  (17) 
4.269993683705294

>  <meeko>  (17) 
{"free_energy": -7.56, "intermolecular_energy": -10.24, "internal_energy": -2.34, "cluster_size": 20, "cluster_id": 1, "rank_in_cluster": 19}

>  <energy>  (17) 
-7.88

>  <cluster_rmsd>  (17) 
1.33

>  <cluster>  (17) 
1

$$$$

     RDKit          3D

 54 56  0  0  0  0  0  0  0  0999 V2000
  140.0000   69.4210  220.5410 C   0  0  0  0  0  0  0  0  0  0  0  0
  138.5900   68.3290  220.8320 S   0  0  0  0  0  0  0  0  0  0  0  0
  138.8340   67.4230  222.3870 C   0  0  0  0  0  0  0  0  0  0  0  0
  138.3900   68.3250  223.5140 C   0  0  0  0  0  0  0  0  0  0  0  0
  139.4990   68.8980  224.3230 C   0  0  0  0  0  0  0  0  0  0  0  0
  139.3890   70.3520  224.6510 C   0  0  2  0  0  0  0  0  0  0  0  0
  139.9320   71.1880  223.5630 N   0  0  0  0  0  0  0  0  0  0  0  0
  139.0810   72.0040  222.7690 C   0  0  0  0  0  0  0  0  0  0  0  0
  137.8510   71.9730  223.0410 O   0  0  0  0  0  0  0  0  0  0  0  0
  139.5770   72.8640  221.6620 C   0  0  0  0  0  0  0  0  0  0  0  0
  139.5250   74.2420  222.1150 N   0  0  0  0  0  0  0  0  0  0  0  0
  140.4380   75.2190  221.6210 C   0  0  0  0  0  0  0  0  0  0  0  0
  141.3230   74.8900  220.7670 O   0  0  0  0  0  0  0  0  0  0  0  0
  140.3640   76.6000  222.0890 C   0  0  0  0  0  0  0  0  0  0  0  0
  139.1350   77.1750  222.3360 C   0  0  0  0  0  0  0  0  0  0  0  0
  138.9850   78.4720  222.7790 C   0  0  0  0  0  0  0  0  0  0  0  0
  140.1310   79.2150  222.9800 C   0  0  0  0  0  0  0  0  0  0  0  0
  139.9810   80.5120  223.4240 C   0  0  0  0  0  0  0  0  0  0  0  0
  141.1270   81.2620  223.6280 C   0  0  0  0  0  0  0  0  0  0  0  0
  142.3700   80.7000  223.3850 C   0  0  0  0  0  0  0  0  0  0  0  0
  142.4950   79.4060  222.9430 C   0  0  0  0  0  0  0  0  0  0  0  0
  141.3650   78.6390  222.7320 C   0  0  0  0  0  0  0  0  0  0  0  0
  141.4470   77.3680  222.3010 N   0  0  0  0  0  0  0  0  0  0  0  0
  140.0150   70.7100  225.9420 C   0  0  0  0  0  0  0  0  0  0  0  0
  140.7910   71.8680  225.9850 C   0  0  0  0  0  0  0  0  0  0  0  0
  141.4020   72.2570  227.1690 C   0  0  0  0  0  0  0  0  0  0  0  0
  141.2600   71.5130  228.3240 C   0  0  0  0  0  0  0  0  0  0  0  0
  140.4900   70.3660  228.2740 C   0  0  0  0  0  0  0  0  0  0  0  0
  139.8830   69.9790  227.1000 C   0  0  0  0  0  0  0  0  0  0  0  0
  140.4182   69.7448  221.5055 H   0  0  0  0  0  0  0  0  0  0  0  0
  140.7700   68.8814  219.9702 H   0  0  0  0  0  0  0  0  0  0  0  0
  139.6701   70.3015  219.9702 H   0  0  0  0  0  0  0  0  0  0  0  0
  138.2318   66.5025  222.3835 H   0  0  0  0  0  0  0  0  0  0  0  0
  139.8905   67.1423  222.5095 H   0  0  0  0  0  0  0  0  0  0  0  0
  137.8157   69.1573  223.0812 H   0  0  0  0  0  0  0  0  0  0  0  0
  137.7964   67.7002  224.1976 H   0  0  0  0  0  0  0  0  0  0  0  0
  139.5458   68.3420  225.2710 H   0  0  0  0  0  0  0  0  0  0  0  0
  140.4001   68.8026  223.6994 H   0  0  0  0  0  0  0  0  0  0  0  0
  138.3132   70.5563  224.7552 H   0  0  0  0  0  0  0  0  0  0  0  0
  140.9590   71.1860  223.3680 H   0  0  0  0  0  0  0  0  0  0  0  0
  140.6127   72.5912  221.4111 H   0  0  0  0  0  0  0  0  0  0  0  0
  138.9565   72.7306  220.7635 H   0  0  0  0  0  0  0  0  0  0  0  0
  138.8230   74.5870  222.8180 H   0  0  0  0  0  0  0  0  0  0  0  0
  138.2312   76.5699  222.1717 H   0  0  0  0  0  0  0  0  0  0  0  0
  137.9886   78.8991  222.9655 H   0  0  0  0  0  0  0  0  0  0  0  0
  138.9836   80.9369  223.6100 H   0  0  0  0  0  0  0  0  0  0  0  0
  141.0508   82.3007  223.9819 H   0  0  0  0  0  0  0  0  0  0  0  0
  143.2752   81.3029  223.5495 H   0  0  0  0  0  0  0  0  0  0  0  0
  143.4924   78.9809  222.7573 H   0  0  0  0  0  0  0  0  0  0  0  0
  140.9194   72.4755  225.0770 H   0  0  0  0  0  0  0  0  0  0  0  0
  142.0098   73.1736  227.1878 H   0  0  0  0  0  0  0  0  0  0  0  0
  141.7471   71.8251  229.2596 H   0  0  0  0  0  0  0  0  0  0  0  0
  140.3609   69.7566  229.1806 H   0  0  0  0  0  0  0  0  0  0  0  0
  139.2767   69.0613  227.0878 H   0  0  0  0  0  0  0  0  0  0  0  0
  1  2  1  0
  2  3  1  0
  3  4  1  0
  4  5  1  0
  5  6  1  0
  6  7  1  0
  7  8  1  0
  8  9  2  0
  8 10  1  0
 10 11  1  0
 11 12  1  0
 12 13  2  0
 12 14  1  0
 14 15  2  0
 15 16  1  0
 16 17  2  0
 17 18  1  0
 18 19  2  0
 19 20  1  0
 20 21  2  0
 21 22  1  0
 22 23  2  0
  6 24  1  0
 24 25  2  0
 25 26  1  0
 26 27  2  0
 27 28  1  0
 28 29  2  0
 23 14  1  0
 29 24  1  0
 22 17  1  0
  1 30  1  0
  1 31  1  0
  1 32  1  0
  3 33  1  0
  3 34  1  0
  4 35  1  0
  4 36  1  0
  5 37  1  0
  5 38  1  0
  6 39  1  1
  7 40  1  0
 10 41  1  0
 10 42  1  0
 11 43  1  0
 15 44  1  0
 16 45  1  0
 18 46  1  0
 19 47  1  0
 20 48  1  0
 21 49  1  0
 25 50  1  0
 26 51  1  0
 27 52  1  0
 28 53  1  0
 29 54  1  0
M  END
>  <smiles>  (18) 
CSCCC[C@H](NC(=O)CNC(=O)c1ccc2ccccc2n1)c1ccccc1

>  <score_type>  (18) 
oracle

>  <origin>  (18) 
autodockgpu

>  <m_score__min__energy>  (18) 
-8.7400000000000002

>  <m_primary>  (18) 
energy

>  <rmsd>  (18) 
10.074983079182802

>  <m_score__min__rmsd>  (18) 
10.074983079182802

>  <meeko>  (18) 
{"free_energy": -7.99, "intermolecular_energy": -10.67, "internal_energy": -1.54, "cluster_size": 1, "cluster_id": 6, "rank_in_cluster": 1}

>  <energy>  (18) 
-7.88

>  <cluster_rmsd>  (18) 
0.89

>  <cluster>  (18) 
1

$$$$

     RDKit          3D

 54 56  0  0  0  0  0  0  0  0999 V2000
  135.6910   75.2700  224.3190 C   0  0  0  0  0  0  0  0  0  0  0  0
  136.5110   75.6440  222.7520 S   0  0  0  0  0  0  0  0  0  0  0  0
  136.0490   77.3130  222.2060 C   0  0  0  0  0  0  0  0  0  0  0  0
  137.1170   77.7920  221.2530 C   0  0  0  0  0  0  0  0  0  0  0  0
  138.2700   78.4710  221.9020 C   0  0  0  0  0  0  0  0  0  0  0  0
  139.5640   78.4250  221.1570 C   0  0  2  0  0  0  0  0  0  0  0  0
  139.8680   77.0570  220.6970 N   0  0  0  0  0  0  0  0  0  0  0  0
  139.7960   75.9500  221.5850 C   0  0  0  0  0  0  0  0  0  0  0  0
  139.4640   76.1980  222.7750 O   0  0  0  0  0  0  0  0  0  0  0  0
  140.0930   74.5530  221.1720 C   0  0  0  0  0  0  0  0  0  0  0  0
  139.9490   73.7050  222.3430 N   0  0  0  0  0  0  0  0  0  0  0  0
  140.3970   72.3520  222.3370 C   0  0  0  0  0  0  0  0  0  0  0  0
  140.9350   71.8640  221.2910 O   0  0  0  0  0  0  0  0  0  0  0  0
  140.2440   71.5200  223.5260 C   0  0  0  0  0  0  0  0  0  0  0  0
  139.6420   70.2840  223.4240 C   0  0  0  0  0  0  0  0  0  0  0  0
  139.4610   69.4420  224.5020 C   0  0  0  0  0  0  0  0  0  0  0  0
  139.9120   69.8740  225.7330 C   0  0  0  0  0  0  0  0  0  0  0  0
  139.7320   69.0330  226.8090 C   0  0  0  0  0  0  0  0  0  0  0  0
  140.1830   69.4600  228.0460 C   0  0  0  0  0  0  0  0  0  0  0  0
  140.7910   70.6990  228.1670 C   0  0  0  0  0  0  0  0  0  0  0  0
  140.9590   71.5220  227.0800 C   0  0  0  0  0  0  0  0  0  0  0  0
  140.5160   71.1150  225.8360 C   0  0  0  0  0  0  0  0  0  0  0  0
  140.6650   71.8910  224.7480 N   0  0  0  0  0  0  0  0  0  0  0  0
  140.7010   78.9790  221.9230 C   0  0  0  0  0  0  0  0  0  0  0  0
  141.4590   79.9830  221.3220 C   0  0  0  0  0  0  0  0  0  0  0  0
  142.5380   80.5430  221.9930 C   0  0  0  0  0  0  0  0  0  0  0  0
  142.8840   80.1230  223.2620 C   0  0  0  0  0  0  0  0  0  0  0  0
  142.1290   79.1270  223.8520 C   0  0  0  0  0  0  0  0  0  0  0  0
  141.0590   78.5710  223.1880 C   0  0  0  0  0  0  0  0  0  0  0  0
  136.3426   75.5672  225.1539 H   0  0  0  0  0  0  0  0  0  0  0  0
  134.7430   75.8248  224.3783 H   0  0  0  0  0  0  0  0  0  0  0  0
  135.4884   74.1904  224.3783 H   0  0  0  0  0  0  0  0  0  0  0  0
  135.0753   77.2846  221.6950 H   0  0  0  0  0  0  0  0  0  0  0  0
  135.9658   77.9925  223.0670 H   0  0  0  0  0  0  0  0  0  0  0  0
  137.4990   76.9208  220.7006 H   0  0  0  0  0  0  0  0  0  0  0  0
  136.6406   78.5413  220.6037 H   0  0  0  0  0  0  0  0  0  0  0  0
  138.0012   79.5282  222.0437 H   0  0  0  0  0  0  0  0  0  0  0  0
  138.4482   77.9211  222.8379 H   0  0  0  0  0  0  0  0  0  0  0  0
  139.4286   79.0747  220.2798 H   0  0  0  0  0  0  0  0  0  0  0  0
  140.1410   76.8910  219.7010 H   0  0  0  0  0  0  0  0  0  0  0  0
  139.3869   74.2354  220.3906 H   0  0  0  0  0  0  0  0  0  0  0  0
  141.1132   74.4800  220.7671 H   0  0  0  0  0  0  0  0  0  0  0  0
  139.5140   74.0390  223.2400 H   0  0  0  0  0  0  0  0  0  0  0  0
  139.2891   69.9532  222.4360 H   0  0  0  0  0  0  0  0  0  0  0  0
  138.9750   68.4622  224.3847 H   0  0  0  0  0  0  0  0  0  0  0  0
  139.2456   68.0537  226.6891 H   0  0  0  0  0  0  0  0  0  0  0  0
  140.0591   68.8176  228.9303 H   0  0  0  0  0  0  0  0  0  0  0  0
  141.1465   71.0305  229.1538 H   0  0  0  0  0  0  0  0  0  0  0  0
  141.4446   72.5018  227.1995 H   0  0  0  0  0  0  0  0  0  0  0  0
  141.2011   80.3331  220.3116 H   0  0  0  0  0  0  0  0  0  0  0  0
  143.1267   81.3341  221.5056 H   0  0  0  0  0  0  0  0  0  0  0  0
  143.7392   80.5699  223.7902 H   0  0  0  0  0  0  0  0  0  0  0  0
  142.3856   78.7751  224.8621 H   0  0  0  0  0  0  0  0  0  0  0  0
  140.4748   77.7801  223.6811 H   0  0  0  0  0  0  0  0  0  0  0  0
  1  2  1  0
  2  3  1  0
  3  4  1  0
  4  5  1  0
  5  6  1  0
  6  7  1  0
  7  8  1  0
  8  9  2  0
  8 10  1  0
 10 11  1  0
 11 12  1  0
 12 13  2  0
 12 14  1  0
 14 15  2  0
 15 16  1  0
 16 17  2  0
 17 18  1  0
 18 19  2  0
 19 20  1  0
 20 21  2  0
 21 22  1  0
 22 23  2  0
  6 24  1  0
 24 25  2  0
 25 26  1  0
 26 27  2  0
 27 28  1  0
 28 29  2  0
 23 14  1  0
 29 24  1  0
 22 17  1  0
  1 30  1  0
  1 31  1  0
  1 32  1  0
  3 33  1  0
  3 34  1  0
  4 35  1  0
  4 36  1  0
  5 37  1  0
  5 38  1  0
  6 39  1  6
  7 40  1  0
 10 41  1  0
 10 42  1  0
 11 43  1  0
 15 44  1  0
 16 45  1  0
 18 46  1  0
 19 47  1  0
 20 48  1  0
 21 49  1  0
 25 50  1  0
 26 51  1  0
 27 52  1  0
 28 53  1  0
 29 54  1  0
M  END
>  <smiles>  (19) 
CSCCC[C@H](NC(=O)CNC(=O)c1ccc2ccccc2n1)c1ccccc1

>  <score_type>  (19) 
oracle

>  <origin>  (19) 
autodockgpu

>  <m_score__min__energy>  (19) 
-8.7400000000000002

>  <m_primary>  (19) 
energy

>  <rmsd>  (19) 
4.162004907393252

>  <m_score__min__rmsd>  (19) 
4.162004907393252

>  <meeko>  (19) 
{"free_energy": -7.79, "intermolecular_energy": -10.47, "internal_energy": -2.03, "cluster_size": 3, "cluster_id": 3, "rank_in_cluster": 3}

>  <energy>  (19) 
-7.56

>  <cluster_rmsd>  (19) 
1.87

>  <cluster>  (19) 
1

$$$$

     RDKit          3D

 54 56  0  0  0  0  0  0  0  0999 V2000
  135.8590   70.8640  224.1700 C   0  0  0  0  0  0  0  0  0  0  0  0
  136.2090   72.3950  223.2760 S   0  0  0  0  0  0  0  0  0  0  0  0
  135.4700   73.7990  224.1600 C   0  0  0  0  0  0  0  0  0  0  0  0
  135.4890   74.9860  223.2270 C   0  0  0  0  0  0  0  0  0  0  0  0
  136.6440   75.9040  223.4130 C   0  0  0  0  0  0  0  0  0  0  0  0
  137.6340   75.9490  222.2950 C   0  0  2  0  0  0  0  0  0  0  0  0
  138.1520   74.6020  221.9850 N   0  0  0  0  0  0  0  0  0  0  0  0
  138.2650   74.1480  220.6440 C   0  0  0  0  0  0  0  0  0  0  0  0
  137.9010   74.9500  219.7420 O   0  0  0  0  0  0  0  0  0  0  0  0
  138.7800   72.8020  220.2780 C   0  0  0  0  0  0  0  0  0  0  0  0
  138.8490   72.0100  221.4930 N   0  0  0  0  0  0  0  0  0  0  0  0
  139.7680   72.3300  222.5350 C   0  0  0  0  0  0  0  0  0  0  0  0
  140.5510   73.3260  222.4090 O   0  0  0  0  0  0  0  0  0  0  0  0
  139.8180   71.5210  223.7480 C   0  0  0  0  0  0  0  0  0  0  0  0
  139.2350   70.2710  223.7620 C   0  0  0  0  0  0  0  0  0  0  0  0
  139.2410   69.4490  224.8690 C   0  0  0  0  0  0  0  0  0  0  0  0
  139.8650   69.9160  226.0090 C   0  0  0  0  0  0  0  0  0  0  0  0
  139.8710   69.0940  227.1150 C   0  0  0  0  0  0  0  0  0  0  0  0
  140.4960   69.5560  228.2610 C   0  0  0  0  0  0  0  0  0  0  0  0
  141.0870   70.8100  228.2650 C   0  0  0  0  0  0  0  0  0  0  0  0
  141.0680   71.6120  227.1500 C   0  0  0  0  0  0  0  0  0  0  0  0
  140.4490   71.1700  225.9960 C   0  0  0  0  0  0  0  0  0  0  0  0
  140.4120   71.9260  224.8840 N   0  0  0  0  0  0  0  0  0  0  0  0
  138.7480   76.8890  222.5370 C   0  0  0  0  0  0  0  0  0  0  0  0
  138.4290   78.1670  222.9970 C   0  0  0  0  0  0  0  0  0  0  0  0
  139.4330   79.0930  223.2450 C   0  0  0  0  0  0  0  0  0  0  0  0
  140.7610   78.7770  223.0440 C   0  0  0  0  0  0  0  0  0  0  0  0
  141.0710   77.5090  222.5870 C   0  0  0  0  0  0  0  0  0  0  0  0
  140.0770   76.5890  222.3420 C   0  0  0  0  0  0  0  0  0  0  0  0
  135.9023   71.0535  225.2527 H   0  0  0  0  0  0  0  0  0  0  0  0
  134.8552   70.5034  223.9007 H   0  0  0  0  0  0  0  0  0  0  0  0
  136.6064   70.1031  223.9007 H   0  0  0  0  0  0  0  0  0  0  0  0
  134.4341   73.5609  224.4432 H   0  0  0  0  0  0  0  0  0  0  0  0
  136.0356   74.0192  225.0774 H   0  0  0  0  0  0  0  0  0  0  0  0
  135.5136   74.6094  222.1938 H   0  0  0  0  0  0  0  0  0  0  0  0
  134.5863   75.5728  223.4523 H   0  0  0  0  0  0  0  0  0  0  0  0
  136.2467   76.9204  223.5513 H   0  0  0  0  0  0  0  0  0  0  0  0
  137.1956   75.5131  224.2808 H   0  0  0  0  0  0  0  0  0  0  0  0
  137.0841   76.3301  221.4219 H   0  0  0  0  0  0  0  0  0  0  0  0
  138.4430   73.9650  222.7620 H   0  0  0  0  0  0  0  0  0  0  0  0
  138.1001   72.3240  219.5574 H   0  0  0  0  0  0  0  0  0  0  0  0
  139.7741   72.8831  219.8141 H   0  0  0  0  0  0  0  0  0  0  0  0
  138.2350   71.1740  221.6660 H   0  0  0  0  0  0  0  0  0  0  0  0
  138.7418   69.9128  222.8463 H   0  0  0  0  0  0  0  0  0  0  0  0
  138.7659   68.4572  224.8450 H   0  0  0  0  0  0  0  0  0  0  0  0
  139.3947   68.1028  227.0883 H   0  0  0  0  0  0  0  0  0  0  0  0
  140.5235   68.9301  229.1652 H   0  0  0  0  0  0  0  0  0  0  0  0
  141.5811   71.1700  229.1795 H   0  0  0  0  0  0  0  0  0  0  0  0
  141.5441   72.6033  227.1755 H   0  0  0  0  0  0  0  0  0  0  0  0
  137.3771   78.4421  223.1639 H   0  0  0  0  0  0  0  0  0  0  0  0
  139.1652   80.0962  223.6081 H   0  0  0  0  0  0  0  0  0  0  0  0
  141.5527   79.5145  223.2421 H   0  0  0  0  0  0  0  0  0  0  0  0
  142.1223   77.2330  222.4177 H   0  0  0  0  0  0  0  0  0  0  0  0
  140.3521   75.5871  221.9807 H   0  0  0  0  0  0  0  0  0  0  0  0
  1  2  1  0
  2  3  1  0
  3  4  1  0
  4  5  1  0
  5  6  1  0
  6  7  1  0
  7  8  1  0
  8  9  2  0
  8 10  1  0
 10 11  1  0
 11 12  1  0
 12 13  2  0
 12 14  1  0
 14 15  2  0
 15 16  1  0
 16 17  2  0
 17 18  1  0
 18 19  2  0
 19 20  1  0
 20 21  2  0
 21 22  1  0
 22 23  2  0
  6 24  1  0
 24 25  2  0
 25 26  1  0
 26 27  2  0
 27 28  1  0
 28 29  2  0
 23 14  1  0
 29 24  1  0
 22 17  1  0
  1 30  1  0
  1 31  1  0
  1 32  1  0
  3 33  1  0
  3 34  1  0
  4 35  1  0
  4 36  1  0
  5 37  1  0
  5 38  1  0
  6 39  1  6
  7 40  1  0
 10 41  1  0
 10 42  1  0
 11 43  1  0
 15 44  1  0
 16 45  1  0
 18 46  1  0
 19 47  1  0
 20 48  1  0
 21 49  1  0
 25 50  1  0
 26 51  1  0
 27 52  1  0
 28 53  1  0
 29 54  1  0
M  END
>  <smiles>  (20) 
CSCCC[C@H](NC(=O)CNC(=O)c1ccc2ccccc2n1)c1ccccc1

>  <score_type>  (20) 
oracle

>  <origin>  (20) 
autodockgpu

>  <m_score__min__energy>  (20) 
-8.7400000000000002

>  <m_primary>  (20) 
energy

>  <rmsd>  (20) 
4.8253379197976205

>  <m_score__min__rmsd>  (20) 
4.8253379197976205

>  <meeko>  (20) 
{"free_energy": -7.38, "intermolecular_energy": -10.06, "internal_energy": -2.88, "cluster_size": 6, "cluster_id": 7, "rank_in_cluster": 3}

>  <energy>  (20) 
-7.54

>  <cluster_rmsd>  (20) 
1.83

>  <cluster>  (20) 
1

$$$$

     RDKit          3D

 54 56  0  0  0  0  0  0  0  0999 V2000
  142.2260   81.1090  223.7790 C   0  0  0  0  0  0  0  0  0  0  0  0
  142.4480   79.4980  222.9920 S   0  0  0  0  0  0  0  0  0  0  0  0
  141.1240   79.2240  221.7800 C   0  0  0  0  0  0  0  0  0  0  0  0
  140.1430   78.2510  222.3890 C   0  0  0  0  0  0  0  0  0  0  0  0
  140.6720   76.8730  222.5770 C   0  0  0  0  0  0  0  0  0  0  0  0
  140.3880   75.9040  221.4750 C   0  0  2  0  0  0  0  0  0  0  0  0
  139.4220   74.8750  221.9040 N   0  0  0  0  0  0  0  0  0  0  0  0
  138.7470   74.0600  220.9550 C   0  0  0  0  0  0  0  0  0  0  0  0
  139.0140   74.2640  219.7410 O   0  0  0  0  0  0  0  0  0  0  0  0
  137.7650   73.0100  221.3340 C   0  0  0  0  0  0  0  0  0  0  0  0
  138.1800   72.4560  222.6110 N   0  0  0  0  0  0  0  0  0  0  0  0
  139.3840   71.7030  222.7350 C   0  0  0  0  0  0  0  0  0  0  0  0
  140.1190   71.5030  221.7140 O   0  0  0  0  0  0  0  0  0  0  0  0
  139.7820   71.1580  224.0290 C   0  0  0  0  0  0  0  0  0  0  0  0
  140.6440   71.8700  224.8370 C   0  0  0  0  0  0  0  0  0  0  0  0
  141.0650   71.4210  226.0710 C   0  0  0  0  0  0  0  0  0  0  0  0
  140.5910   70.1980  226.5020 C   0  0  0  0  0  0  0  0  0  0  0  0
  141.0110   69.7500  227.7350 C   0  0  0  0  0  0  0  0  0  0  0  0
  140.5380   68.5250  228.1740 C   0  0  0  0  0  0  0  0  0  0  0  0
  139.6710   67.7960  227.3760 C   0  0  0  0  0  0  0  0  0  0  0  0
  139.2660   68.2620  226.1490 C   0  0  0  0  0  0  0  0  0  0  0  0
  139.7260   69.4830  225.6920 C   0  0  0  0  0  0  0  0  0  0  0  0
  139.3510   69.9740  224.4970 N   0  0  0  0  0  0  0  0  0  0  0  0
  141.6050   75.2740  220.9220 C   0  0  0  0  0  0  0  0  0  0  0  0
  142.4370   76.0610  220.1260 C   0  0  0  0  0  0  0  0  0  0  0  0
  143.5960   75.5260  219.5800 C   0  0  0  0  0  0  0  0  0  0  0  0
  143.9510   74.2120  219.8090 C   0  0  0  0  0  0  0  0  0  0  0  0
  143.1220   73.4370  220.5990 C   0  0  0  0  0  0  0  0  0  0  0  0
  141.9730   73.9660  221.1410 C   0  0  0  0  0  0  0  0  0  0  0  0
  142.2426   80.9884  224.8723 H   0  0  0  0  0  0  0  0  0  0  0  0
  143.0398   81.7823  223.4720 H   0  0  0  0  0  0  0  0  0  0  0  0
  141.2604   81.5371  223.4720 H   0  0  0  0  0  0  0  0  0  0  0  0
  140.6187   80.1748  221.5548 H   0  0  0  0  0  0  0  0  0  0  0  0
  141.5353   78.8224  220.8422 H   0  0  0  0  0  0  0  0  0  0  0  0
  139.8405   78.6394  223.3727 H   0  0  0  0  0  0  0  0  0  0  0  0
  139.3053   78.1691  221.6809 H   0  0  0  0  0  0  0  0  0  0  0  0
  141.7640   76.9445  222.6887 H   0  0  0  0  0  0  0  0  0  0  0  0
  140.1530   76.4752  223.4615 H   0  0  0  0  0  0  0  0  0  0  0  0
  139.9419   76.4954  220.6618 H   0  0  0  0  0  0  0  0  0  0  0  0
  139.2260   74.7360  222.9220 H   0  0  0  0  0  0  0  0  0  0  0  0
  136.7616   73.4513  221.4256 H   0  0  0  0  0  0  0  0  0  0  0  0
  137.7281   72.2227  220.5667 H   0  0  0  0  0  0  0  0  0  0  0  0
  137.6250   72.5790  223.4950 H   0  0  0  0  0  0  0  0  0  0  0  0
  141.0133   72.8427  224.4798 H   0  0  0  0  0  0  0  0  0  0  0  0
  141.7534   72.0156  226.6895 H   0  0  0  0  0  0  0  0  0  0  0  0
  141.7001   70.3463  228.3511 H   0  0  0  0  0  0  0  0  0  0  0  0
  140.8494   68.1318  229.1530 H   0  0  0  0  0  0  0  0  0  0  0  0
  139.2994   66.8240  227.7325 H   0  0  0  0  0  0  0  0  0  0  0  0
  138.5779   67.6656  225.5320 H   0  0  0  0  0  0  0  0  0  0  0  0
  142.1736   77.1108  219.9298 H   0  0  0  0  0  0  0  0  0  0  0  0
  144.2419   76.1598  218.9546 H   0  0  0  0  0  0  0  0  0  0  0  0
  144.8700   73.7920  219.3741 H   0  0  0  0  0  0  0  0  0  0  0  0
  143.3836   72.3869  220.7962 H   0  0  0  0  0  0  0  0  0  0  0  0
  141.3319   73.3267  221.7657 H   0  0  0  0  0  0  0  0  0  0  0  0
  1  2  1  0
  2  3  1  0
  3  4  1  0
  4  5  1  0
  5  6  1  0
  6  7  1  0
  7  8  1  0
  8  9  2  0
  8 10  1  0
 10 11  1  0
 11 12  1  0
 12 13  2  0
 12 14  1  0
 14 15  2  0
 15 16  1  0
 16 17  2  0
 17 18  1  0
 18 19  2  0
 19 20  1  0
 20 21  2  0
 21 22  1  0
 22 23  2  0
  6 24  1  0
 24 25  2  0
 25 26  1  0
 26 27  2  0
 27 28  1  0
 28 29  2  0
 23 14  1  0
 29 24  1  0
 22 17  1  0
  1 30  1  0
  1 31  1  0
  1 32  1  0
  3 33  1  0
  3 34  1  0
  4 35  1  0
  4 36  1  0
  5 37  1  0
  5 38  1  0
  6 39  1  6
  7 40  1  0
 10 41  1  0
 10 42  1  0
 11 43  1  0
 15 44  1  0
 16 45  1  0
 18 46  1  0
 19 47  1  0
 20 48  1  0
 21 49  1  0
 25 50  1  0
 26 51  1  0
 27 52  1  0
 28 53  1  0
 29 54  1  0
M  END
>  <smiles>  (21) 
CSCCC[C@H](NC(=O)CNC(=O)c1ccc2ccccc2n1)c1ccccc1

>  <score_type>  (21) 
oracle

>  <origin>  (21) 
autodockgpu

>  <m_score__min__energy>  (21) 
-8.7400000000000002

>  <m_primary>  (21) 
energy

>  <rmsd>  (21) 
5.460583208998767

>  <m_score__min__rmsd>  (21) 
5.460583208998767

>  <meeko>  (21) 
{"free_energy": -8.29, "intermolecular_energy": -10.97, "internal_energy": -1.84, "cluster_size": 17, "cluster_id": 2, "rank_in_cluster": 6}

>  <energy>  (21) 
-8.58

>  <cluster_rmsd>  (21) 
0.0

>  <cluster>  (21) 
2

$$$$

     RDKit          3D

 54 56  0  0  0  0  0  0  0  0999 V2000
  144.1100   71.0490  220.0760 C   0  0  0  0  0  0  0  0  0  0  0  0
  145.6420   71.9270  219.6930 S   0  0  0  0  0  0  0  0  0  0  0  0
  146.0510   73.0590  221.0530 C   0  0  0  0  0  0  0  0  0  0  0  0
  145.2840   74.3400  220.8250 C   0  0  0  0  0  0  0  0  0  0  0  0
  144.0690   74.1940  219.9780 C   0  0  0  0  0  0  0  0  0  0  0  0
  142.9110   75.0680  220.3360 C   0  0  2  0  0  0  0  0  0  0  0  0
  141.6530   74.2980  220.3780 N   0  0  0  0  0  0  0  0  0  0  0  0
  140.4850   74.8330  220.9850 C   0  0  0  0  0  0  0  0  0  0  0  0
  140.5810   75.9870  221.4810 O   0  0  0  0  0  0  0  0  0  0  0  0
  139.1940   74.0990  221.0540 C   0  0  0  0  0  0  0  0  0  0  0  0
  139.2100   73.2860  222.2570 N   0  0  0  0  0  0  0  0  0  0  0  0
  140.1250   72.2020  222.4060 C   0  0  0  0  0  0  0  0  0  0  0  0
  140.9460   71.9300  221.4720 O   0  0  0  0  0  0  0  0  0  0  0  0
  140.1240   71.4000  223.6250 C   0  0  0  0  0  0  0  0  0  0  0  0
  139.6250   70.1150  223.5990 C   0  0  0  0  0  0  0  0  0  0  0  0
  139.5920   69.2970  224.7090 C   0  0  0  0  0  0  0  0  0  0  0  0
  140.0860   69.8060  225.8940 C   0  0  0  0  0  0  0  0  0  0  0  0
  140.0520   68.9880  227.0020 C   0  0  0  0  0  0  0  0  0  0  0  0
  140.5470   69.4930  228.1930 C   0  0  0  0  0  0  0  0  0  0  0  0
  141.0530   70.7820  228.2370 C   0  0  0  0  0  0  0  0  0  0  0  0
  141.0750   71.5800  227.1190 C   0  0  0  0  0  0  0  0  0  0  0  0
  140.5860   71.0960  225.9200 C   0  0  0  0  0  0  0  0  0  0  0  0
  140.5930   71.8460  224.8030 N   0  0  0  0  0  0  0  0  0  0  0  0
  142.7700   76.2430  219.4500 C   0  0  0  0  0  0  0  0  0  0  0  0
  143.1170   76.0880  218.1080 C   0  0  0  0  0  0  0  0  0  0  0  0
  143.0040   77.1550  217.2270 C   0  0  0  0  0  0  0  0  0  0  0  0
  142.5490   78.3870  217.6540 C   0  0  0  0  0  0  0  0  0  0  0  0
  142.2070   78.5340  218.9850 C   0  0  0  0  0  0  0  0  0  0  0  0
  142.3180   77.4770  219.8600 C   0  0  0  0  0  0  0  0  0  0  0  0
  143.9898   70.9801  221.1673 H   0  0  0  0  0  0  0  0  0  0  0  0
  143.2571   71.5954  219.6470 H   0  0  0  0  0  0  0  0  0  0  0  0
  144.1503   70.0369  219.6470 H   0  0  0  0  0  0  0  0  0  0  0  0
  145.7579   72.6120  222.0144 H   0  0  0  0  0  0  0  0  0  0  0  0
  147.1329   73.2555  221.0809 H   0  0  0  0  0  0  0  0  0  0  0  0
  144.9738   74.7328  221.8045 H   0  0  0  0  0  0  0  0  0  0  0  0
  145.9616   75.0160  220.2830 H   0  0  0  0  0  0  0  0  0  0  0  0
  144.3534   74.4209  218.9399 H   0  0  0  0  0  0  0  0  0  0  0  0
  143.7210   73.1623  220.1347 H   0  0  0  0  0  0  0  0  0  0  0  0
  143.1259   75.4555  221.3428 H   0  0  0  0  0  0  0  0  0  0  0  0
  141.6130   73.3430  219.9560 H   0  0  0  0  0  0  0  0  0  0  0  0
  138.3589   74.8137  221.0963 H   0  0  0  0  0  0  0  0  0  0  0  0
  139.0636   73.4660  220.1639 H   0  0  0  0  0  0  0  0  0  0  0  0
  138.5610   73.4510  223.0680 H   0  0  0  0  0  0  0  0  0  0  0  0
  139.2347   69.7236  222.6479 H   0  0  0  0  0  0  0  0  0  0  0  0
  139.1868   68.2759  224.6525 H   0  0  0  0  0  0  0  0  0  0  0  0
  139.6453   67.9677  226.9428 H   0  0  0  0  0  0  0  0  0  0  0  0
  140.5384   68.8725  229.1012 H   0  0  0  0  0  0  0  0  0  0  0  0
  141.4452   71.1745  229.1868 H   0  0  0  0  0  0  0  0  0  0  0  0
  141.4804   72.6009  227.1777 H   0  0  0  0  0  0  0  0  0  0  0  0
  143.4820   75.1156  217.7459 H   0  0  0  0  0  0  0  0  0  0  0  0
  143.2814   77.0168  216.1716 H   0  0  0  0  0  0  0  0  0  0  0  0
  142.4610   79.2298  216.9527 H   0  0  0  0  0  0  0  0  0  0  0  0
  141.8423   79.5058  219.3490 H   0  0  0  0  0  0  0  0  0  0  0  0
  142.0383   77.6222  220.9139 H   0  0  0  0  0  0  0  0  0  0  0  0
  1  2  1  0
  2  3  1  0
  3  4  1  0
  4  5  1  0
  5  6  1  0
  6  7  1  0
  7  8  1  0
  8  9  2  0
  8 10  1  0
 10 11  1  0
 11 12  1  0
 12 13  2  0
 12 14  1  0
 14 15  2  0
 15 16  1  0
 16 17  2  0
 17 18  1  0
 18 19  2  0
 19 20  1  0
 20 21  2  0
 21 22  1  0
 22 23  2  0
  6 24  1  0
 24 25  2  0
 25 26  1  0
 26 27  2  0
 27 28  1  0
 28 29  2  0
 23 14  1  0
 29 24  1  0
 22 17  1  0
  1 30  1  0
  1 31  1  0
  1 32  1  0
  3 33  1  0
  3 34  1  0
  4 35  1  0
  4 36  1  0
  5 37  1  0
  5 38  1  0
  6 39  1  1
  7 40  1  0
 10 41  1  0
 10 42  1  0
 11 43  1  0
 15 44  1  0
 16 45  1  0
 18 46  1  0
 19 47  1  0
 20 48  1  0
 21 49  1  0
 25 50  1  0
 26 51  1  0
 27 52  1  0
 28 53  1  0
 29 54  1  0
M  END
>  <smiles>  (22) 
CSCCC[C@H](NC(=O)CNC(=O)c1ccc2ccccc2n1)c1ccccc1

>  <score_type>  (22) 
oracle

>  <origin>  (22) 
autodockgpu

>  <m_score__min__energy>  (22) 
-8.7400000000000002

>  <m_primary>  (22) 
energy

>  <rmsd>  (22) 
5.095827946253864

>  <m_score__min__rmsd>  (22) 
5.095827946253864

>  <meeko>  (22) 
{"free_energy": -7.96, "intermolecular_energy": -10.64, "internal_energy": -2.11, "cluster_size": 2, "cluster_id": 4, "rank_in_cluster": 2}

>  <energy>  (22) 
-8.42

>  <cluster_rmsd>  (22) 
1.68

>  <cluster>  (22) 
2

$$$$

     RDKit          3D

 54 56  0  0  0  0  0  0  0  0999 V2000
  143.6700   73.1520  220.4700 C   0  0  0  0  0  0  0  0  0  0  0  0
  144.0970   74.8660  220.0890 S   0  0  0  0  0  0  0  0  0  0  0  0
  143.2140   75.3950  218.5930 C   0  0  0  0  0  0  0  0  0  0  0  0
  143.3040   76.9000  218.5190 C   0  0  0  0  0  0  0  0  0  0  0  0
  142.1570   77.6220  219.1340 C   0  0  0  0  0  0  0  0  0  0  0  0
  141.7140   77.1290  220.4720 C   0  0  2  0  0  0  0  0  0  0  0  0
  140.4870   76.3160  220.3640 N   0  0  0  0  0  0  0  0  0  0  0  0
  140.2960   75.1630  221.1730 C   0  0  0  0  0  0  0  0  0  0  0  0
  141.2210   74.8770  221.9800 O   0  0  0  0  0  0  0  0  0  0  0  0
  139.0800   74.3100  221.1020 C   0  0  0  0  0  0  0  0  0  0  0  0
  139.0690   73.4570  222.2770 N   0  0  0  0  0  0  0  0  0  0  0  0
  139.9850   72.3720  222.4120 C   0  0  0  0  0  0  0  0  0  0  0  0
  140.8320   72.1350  221.4920 O   0  0  0  0  0  0  0  0  0  0  0  0
  139.9570   71.5290  223.6030 C   0  0  0  0  0  0  0  0  0  0  0  0
  139.3530   70.2900  223.5520 C   0  0  0  0  0  0  0  0  0  0  0  0
  139.2860   69.4380  224.6340 C   0  0  0  0  0  0  0  0  0  0  0  0
  139.8570   69.8620  225.8170 C   0  0  0  0  0  0  0  0  0  0  0  0
  139.7920   69.0110  226.8990 C   0  0  0  0  0  0  0  0  0  0  0  0
  140.3640   69.4300  228.0880 C   0  0  0  0  0  0  0  0  0  0  0  0
  140.9750   70.6710  228.1580 C   0  0  0  0  0  0  0  0  0  0  0  0
  141.0280   71.5040  227.0670 C   0  0  0  0  0  0  0  0  0  0  0  0
  140.4630   71.1060  225.8700 C   0  0  0  0  0  0  0  0  0  0  0  0
  140.4970   71.8920  224.7800 N   0  0  0  0  0  0  0  0  0  0  0  0
  141.5310   78.2110  221.4630 C   0  0  0  0  0  0  0  0  0  0  0  0
  141.8180   79.5150  221.0580 C   0  0  0  0  0  0  0  0  0  0  0  0
  141.6630   80.5730  221.9430 C   0  0  0  0  0  0  0  0  0  0  0  0
  141.2260   80.3640  223.2360 C   0  0  0  0  0  0  0  0  0  0  0  0
  140.9440   79.0700  223.6310 C   0  0  0  0  0  0  0  0  0  0  0  0
  141.0960   78.0190  222.7550 C   0  0  0  0  0  0  0  0  0  0  0  0
  143.6362   73.0164  221.5611 H   0  0  0  0  0  0  0  0  0  0  0  0
  142.6854   72.9152  220.0404 H   0  0  0  0  0  0  0  0  0  0  0  0
  144.4284   72.4810  220.0404 H   0  0  0  0  0  0  0  0  0  0  0  0
  143.6810   74.9470  217.7035 H   0  0  0  0  0  0  0  0  0  0  0  0
  142.1632   75.0718  218.6296 H   0  0  0  0  0  0  0  0  0  0  0  0
  144.2232   77.2142  219.0351 H   0  0  0  0  0  0  0  0  0  0  0  0
  143.2978   77.1597  217.4501 H   0  0  0  0  0  0  0  0  0  0  0  0
  142.4437   78.6784  219.2427 H   0  0  0  0  0  0  0  0  0  0  0  0
  141.3048   77.4537  218.4592 H   0  0  0  0  0  0  0  0  0  0  0  0
  142.5319   76.4942  220.8435 H   0  0  0  0  0  0  0  0  0  0  0  0
  139.7430   76.5860  219.6820 H   0  0  0  0  0  0  0  0  0  0  0  0
  138.1796   74.9417  221.0894 H   0  0  0  0  0  0  0  0  0  0  0  0
  139.0891   73.7022  220.1852 H   0  0  0  0  0  0  0  0  0  0  0  0
  138.3990   73.5910  223.0750 H   0  0  0  0  0  0  0  0  0  0  0  0
  138.9029   69.9659  222.6021 H   0  0  0  0  0  0  0  0  0  0  0  0
  138.7955   68.4564  224.5573 H   0  0  0  0  0  0  0  0  0  0  0  0
  139.3011   68.0298  226.8204 H   0  0  0  0  0  0  0  0  0  0  0  0
  140.3333   68.7794  228.9744 H   0  0  0  0  0  0  0  0  0  0  0  0
  141.4271   70.9962  229.1066 H   0  0  0  0  0  0  0  0  0  0  0  0
  141.5188   72.4853  227.1458 H   0  0  0  0  0  0  0  0  0  0  0  0
  142.1686   79.7054  220.0329 H   0  0  0  0  0  0  0  0  0  0  0  0
  141.8922   81.5955  221.6085 H   0  0  0  0  0  0  0  0  0  0  0  0
  141.1054   81.2058  223.9337 H   0  0  0  0  0  0  0  0  0  0  0  0
  140.5944   78.8779  224.6561 H   0  0  0  0  0  0  0  0  0  0  0  0
  140.8639   76.9993  223.0962 H   0  0  0  0  0  0  0  0  0  0  0  0
  1  2  1  0
  2  3  1  0
  3  4  1  0
  4  5  1  0
  5  6  1  0
  6  7  1  0
  7  8  1  0
  8  9  2  0
  8 10  1  0
 10 11  1  0
 11 12  1  0
 12 13  2  0
 12 14  1  0
 14 15  2  0
 15 16  1  0
 16 17  2  0
 17 18  1  0
 18 19  2  0
 19 20  1  0
 20 21  2  0
 21 22  1  0
 22 23  2  0
  6 24  1  0
 24 25  2  0
 25 26  1  0
 26 27  2  0
 27 28  1  0
 28 29  2  0
 23 14  1  0
 29 24  1  0
 22 17  1  0
  1 30  1  0
  1 31  1  0
  1 32  1  0
  3 33  1  0
  3 34  1  0
  4 35  1  0
  4 36  1  0
  5 37  1  0
  5 38  1  0
  6 39  1  1
  7 40  1  0
 10 41  1  0
 10 42  1  0
 11 43  1  0
 15 44  1  0
 16 45  1  0
 18 46  1  0
 19 47  1  0
 20 48  1  0
 21 49  1  0
 25 50  1  0
 26 51  1  0
 27 52  1  0
 28 53  1  0
 29 54  1  0
M  END
>  <smiles>  (23) 
CSCCC[C@H](NC(=O)CNC(=O)c1ccc2ccccc2n1)c1ccccc1

>  <score_type>  (23) 
oracle

>  <origin>  (23) 
autodockgpu

>  <m_score__min__energy>  (23) 
-8.7400000000000002

>  <m_primary>  (23) 
energy

>  <rmsd>  (23) 
4.193963206088775

>  <m_score__min__rmsd>  (23) 
4.193963206088775

>  <meeko>  (23) 
{"free_energy": -8.61, "intermolecular_energy": -11.29, "internal_energy": -1.69, "cluster_size": 20, "cluster_id": 1, "rank_in_cluster": 5}

>  <energy>  (23) 
-8.38

>  <cluster_rmsd>  (23) 
0.47

>  <cluster>  (23) 
2

$$$$

     RDKit          3D

 54 56  0  0  0  0  0  0  0  0999 V2000
  142.5940   80.1700  223.4770 C   0  0  0  0  0  0  0  0  0  0  0  0
  141.4700   78.7750  223.2340 S   0  0  0  0  0  0  0  0  0  0  0  0
  141.2230   78.4940  221.4580 C   0  0  0  0  0  0  0  0  0  0  0  0
  140.5600   77.1470  221.2980 C   0  0  0  0  0  0  0  0  0  0  0  0
  141.4030   75.9880  221.6960 C   0  0  0  0  0  0  0  0  0  0  0  0
  141.4000   74.8220  220.7620 C   0  0  2  0  0  0  0  0  0  0  0  0
  140.3510   73.8490  221.1240 N   0  0  0  0  0  0  0  0  0  0  0  0
  138.9980   74.0490  220.7380 C   0  0  0  0  0  0  0  0  0  0  0  0
  138.7450   75.0920  220.0770 O   0  0  0  0  0  0  0  0  0  0  0  0
  137.9050   73.1010  221.0780 C   0  0  0  0  0  0  0  0  0  0  0  0
  138.2340   72.4820  222.3490 N   0  0  0  0  0  0  0  0  0  0  0  0
  139.1930   71.4310  222.4350 C   0  0  0  0  0  0  0  0  0  0  0  0
  139.7780   71.0150  221.3830 O   0  0  0  0  0  0  0  0  0  0  0  0
  139.5100   70.8260  223.7250 C   0  0  0  0  0  0  0  0  0  0  0  0
  139.2490   69.4880  223.9370 C   0  0  0  0  0  0  0  0  0  0  0  0
  139.5200   68.8470  225.1270 C   0  0  0  0  0  0  0  0  0  0  0  0
  140.0790   69.5950  226.1430 C   0  0  0  0  0  0  0  0  0  0  0  0
  140.3510   68.9530  227.3320 C   0  0  0  0  0  0  0  0  0  0  0  0
  140.9130   69.6980  228.3550 C   0  0  0  0  0  0  0  0  0  0  0  0
  141.1820   71.0430  228.1600 C   0  0  0  0  0  0  0  0  0  0  0  0
  140.9020   71.6620  226.9660 C   0  0  0  0  0  0  0  0  0  0  0  0
  140.3410   70.9370  225.9310 C   0  0  0  0  0  0  0  0  0  0  0  0
  140.0550   71.5070  224.7470 N   0  0  0  0  0  0  0  0  0  0  0  0
  142.7130   74.1520  220.6570 C   0  0  0  0  0  0  0  0  0  0  0  0
  142.7460   72.7650  220.7980 C   0  0  0  0  0  0  0  0  0  0  0  0
  143.9490   72.0800  220.7060 C   0  0  0  0  0  0  0  0  0  0  0  0
  145.1350   72.7480  220.4760 C   0  0  0  0  0  0  0  0  0  0  0  0
  145.0970   74.1230  220.3380 C   0  0  0  0  0  0  0  0  0  0  0  0
  143.9030   74.8040  220.4270 C   0  0  0  0  0  0  0  0  0  0  0  0
  142.7345   80.3444  224.5540 H   0  0  0  0  0  0  0  0  0  0  0  0
  143.5651   79.9437  223.0125 H   0  0  0  0  0  0  0  0  0  0  0  0
  142.1663   81.0707  223.0125 H   0  0  0  0  0  0  0  0  0  0  0  0
  140.5789   79.2814  221.0394 H   0  0  0  0  0  0  0  0  0  0  0  0
  142.1851   78.5173  220.9252 H   0  0  0  0  0  0  0  0  0  0  0  0
  139.6503   77.1373  221.9163 H   0  0  0  0  0  0  0  0  0  0  0  0
  140.3547   77.0275  220.2240 H   0  0  0  0  0  0  0  0  0  0  0  0
  142.4402   76.3426  221.7877 H   0  0  0  0  0  0  0  0  0  0  0  0
  140.9687   75.6154  222.6354 H   0  0  0  0  0  0  0  0  0  0  0  0
  141.1764   75.2353  219.7674 H   0  0  0  0  0  0  0  0  0  0  0  0
  140.6000   72.9960  221.6740 H   0  0  0  0  0  0  0  0  0  0  0  0
  136.9517   73.6434  221.1616 H   0  0  0  0  0  0  0  0  0  0  0  0
  137.8015   72.3367  220.2937 H   0  0  0  0  0  0  0  0  0  0  0  0
  137.7910   72.7720  223.2580 H   0  0  0  0  0  0  0  0  0  0  0  0
  138.8035   68.9049  223.1175 H   0  0  0  0  0  0  0  0  0  0  0  0
  139.2987   67.7780  225.2618 H   0  0  0  0  0  0  0  0  0  0  0  0
  140.1289   67.8838  227.4639 H   0  0  0  0  0  0  0  0  0  0  0  0
  141.1452   69.2233  229.3197 H   0  0  0  0  0  0  0  0  0  0  0  0
  141.6289   71.6272  228.9779 H   0  0  0  0  0  0  0  0  0  0  0  0
  141.1235   72.7313  226.8338 H   0  0  0  0  0  0  0  0  0  0  0  0
  141.8137   72.2113  220.9831 H   0  0  0  0  0  0  0  0  0  0  0  0
  143.9579   70.9858  220.8182 H   0  0  0  0  0  0  0  0  0  0  0  0
  146.0861   72.2001  220.4044 H   0  0  0  0  0  0  0  0  0  0  0  0
  146.0288   74.6783  220.1554 H   0  0  0  0  0  0  0  0  0  0  0  0
  143.9005   75.8979  220.3112 H   0  0  0  0  0  0  0  0  0  0  0  0
  1  2  1  0
  2  3  1  0
  3  4  1  0
  4  5  1  0
  5  6  1  0
  6  7  1  0
  7  8  1  0
  8  9  2  0
  8 10  1  0
 10 11  1  0
 11 12  1  0
 12 13  2  0
 12 14  1  0
 14 15  2  0
 15 16  1  0
 16 17  2  0
 17 18  1  0
 18 19  2  0
 19 20  1  0
 20 21  2  0
 21 22  1  0
 22 23  2  0
  6 24  1  0
 24 25  2  0
 25 26  1  0
 26 27  2  0
 27 28  1  0
 28 29  2  0
 23 14  1  0
 29 24  1  0
 22 17  1  0
  1 30  1  0
  1 31  1  0
  1 32  1  0
  3 33  1  0
  3 34  1  0
  4 35  1  0
  4 36  1  0
  5 37  1  0
  5 38  1  0
  6 39  1  6
  7 40  1  0
 10 41  1  0
 10 42  1  0
 11 43  1  0
 15 44  1  0
 16 45  1  0
 18 46  1  0
 19 47  1  0
 20 48  1  0
 21 49  1  0
 25 50  1  0
 26 51  1  0
 27 52  1  0
 28 53  1  0
 29 54  1  0
M  END
>  <smiles>  (24) 
CSCCC[C@H](NC(=O)CNC(=O)c1ccc2ccccc2n1)c1ccccc1

>  <score_type>  (24) 
oracle

>  <origin>  (24) 
autodockgpu

>  <m_score__min__energy>  (24) 
-8.7400000000000002

>  <m_primary>  (24) 
energy

>  <rmsd>  (24) 
6.231250376211728

>  <m_score__min__rmsd>  (24) 
6.231250376211728

>  <meeko>  (24) 
{"free_energy": -7.79, "intermolecular_energy": -10.47, "internal_energy": -2.23, "cluster_size": 17, "cluster_id": 2, "rank_in_cluster": 16}

>  <energy>  (24) 
-8.35

>  <cluster_rmsd>  (24) 
1.54

>  <cluster>  (24) 
2

$$$$

     RDKit          3D

 54 56  0  0  0  0  0  0  0  0999 V2000
  139.3570   82.1930  221.9870 C   0  0  0  0  0  0  0  0  0  0  0  0
  137.6890   81.5380  222.2150 S   0  0  0  0  0  0  0  0  0  0  0  0
  137.7120   80.2400  223.4850 C   0  0  0  0  0  0  0  0  0  0  0  0
  137.6250   78.9090  222.7770 C   0  0  0  0  0  0  0  0  0  0  0  0
  138.7330   77.9660  223.0890 C   0  0  0  0  0  0  0  0  0  0  0  0
  139.8990   77.9900  222.1560 C   0  0  2  0  0  0  0  0  0  0  0  0
  140.4430   76.6350  221.9440 N   0  0  0  0  0  0  0  0  0  0  0  0
  139.6840   75.6340  221.2800 C   0  0  0  0  0  0  0  0  0  0  0  0
  138.5330   75.9630  220.8870 O   0  0  0  0  0  0  0  0  0  0  0  0
  140.1860   74.2550  221.0410 C   0  0  0  0  0  0  0  0  0  0  0  0
  140.0180   73.5030  222.2730 N   0  0  0  0  0  0  0  0  0  0  0  0
  140.4660   72.1550  222.3840 C   0  0  0  0  0  0  0  0  0  0  0  0
  141.0250   71.5850  221.3920 O   0  0  0  0  0  0  0  0  0  0  0  0
  140.2890   71.4210  223.6330 C   0  0  0  0  0  0  0  0  0  0  0  0
  139.6570   70.1950  223.6230 C   0  0  0  0  0  0  0  0  0  0  0  0
  139.4530   69.4430  224.7610 C   0  0  0  0  0  0  0  0  0  0  0  0
  139.9090   69.9570  225.9580 C   0  0  0  0  0  0  0  0  0  0  0  0
  139.7050   69.2050  227.0940 C   0  0  0  0  0  0  0  0  0  0  0  0
  140.1620   69.7160  228.2980 C   0  0  0  0  0  0  0  0  0  0  0  0
  140.7990   70.9460  228.3270 C   0  0  0  0  0  0  0  0  0  0  0  0
  140.9910   71.6780  227.1810 C   0  0  0  0  0  0  0  0  0  0  0  0
  140.5430   71.1880  225.9680 C   0  0  0  0  0  0  0  0  0  0  0  0
  140.7140   71.8750  224.8250 N   0  0  0  0  0  0  0  0  0  0  0  0
  140.9690   78.9170  222.5810 C   0  0  0  0  0  0  0  0  0  0  0  0
  141.5690   79.7070  221.6000 C   0  0  0  0  0  0  0  0  0  0  0  0
  142.5780   80.5980  221.9390 C   0  0  0  0  0  0  0  0  0  0  0  0
  143.0100   80.7250  223.2440 C   0  0  0  0  0  0  0  0  0  0  0  0
  142.4120   79.9390  224.2120 C   0  0  0  0  0  0  0  0  0  0  0  0
  141.4110   79.0550  223.8770 C   0  0  0  0  0  0  0  0  0  0  0  0
  139.8174   82.3738  222.9695 H   0  0  0  0  0  0  0  0  0  0  0  0
  139.9629   81.4660  221.4263 H   0  0  0  0  0  0  0  0  0  0  0  0
  139.3064   83.1380  221.4263 H   0  0  0  0  0  0  0  0  0  0  0  0
  138.6460   80.2972  224.0633 H   0  0  0  0  0  0  0  0  0  0  0  0
  136.8689   80.3642  224.1805 H   0  0  0  0  0  0  0  0  0  0  0  0
  136.6767   78.4302  223.0625 H   0  0  0  0  0  0  0  0  0  0  0  0
  137.6937   79.1243  221.7005 H   0  0  0  0  0  0  0  0  0  0  0  0
  139.1039   78.2050  224.0966 H   0  0  0  0  0  0  0  0  0  0  0  0
  138.2996   76.9594  222.9942 H   0  0  0  0  0  0  0  0  0  0  0  0
  139.5111   78.3722  221.2002 H   0  0  0  0  0  0  0  0  0  0  0  0
  141.4030   76.4010  222.2860 H   0  0  0  0  0  0  0  0  0  0  0  0
  139.6102   73.7818  220.2320 H   0  0  0  0  0  0  0  0  0  0  0  0
  141.2452   74.2769  220.7449 H   0  0  0  0  0  0  0  0  0  0  0  0
  139.5650   73.9070  223.1310 H   0  0  0  0  0  0  0  0  0  0  0  0
  139.2986   69.7982  222.6617 H   0  0  0  0  0  0  0  0  0  0  0  0
  138.9450   68.4684  224.7162 H   0  0  0  0  0  0  0  0  0  0  0  0
  139.1961   68.2310  227.0468 H   0  0  0  0  0  0  0  0  0  0  0  0
  140.0195   69.1467  229.2284 H   0  0  0  0  0  0  0  0  0  0  0  0
  141.1582   71.3443  229.2874 H   0  0  0  0  0  0  0  0  0  0  0  0
  141.5001   72.6520  227.2279 H   0  0  0  0  0  0  0  0  0  0  0  0
  141.2411   79.6234  220.5534 H   0  0  0  0  0  0  0  0  0  0  0  0
  143.0415   81.2136  221.1540 H   0  0  0  0  0  0  0  0  0  0  0  0
  143.8094   81.4333  223.5071 H   0  0  0  0  0  0  0  0  0  0  0  0
  142.7390   80.0208  225.2591 H   0  0  0  0  0  0  0  0  0  0  0  0
  140.9520   78.4423  224.6668 H   0  0  0  0  0  0  0  0  0  0  0  0
  1  2  1  0
  2  3  1  0
  3  4  1  0
  4  5  1  0
  5  6  1  0
  6  7  1  0
  7  8  1  0
  8  9  2  0
  8 10  1  0
 10 11  1  0
 11 12  1  0
 12 13  2  0
 12 14  1  0
 14 15  2  0
 15 16  1  0
 16 17  2  0
 17 18  1  0
 18 19  2  0
 19 20  1  0
 20 21  2  0
 21 22  1  0
 22 23  2  0
  6 24  1  0
 24 25  2  0
 25 26  1  0
 26 27  2  0
 27 28  1  0
 28 29  2  0
 23 14  1  0
 29 24  1  0
 22 17  1  0
  1 30  1  0
  1 31  1  0
  1 32  1  0
  3 33  1  0
  3 34  1  0
  4 35  1  0
  4 36  1  0
  5 37  1  0
  5 38  1  0
  6 39  1  6
  7 40  1  0
 10 41  1  0
 10 42  1  0
 11 43  1  0
 15 44  1  0
 16 45  1  0
 18 46  1  0
 19 47  1  0
 20 48  1  0
 21 49  1  0
 25 50  1  0
 26 51  1  0
 27 52  1  0
 28 53  1  0
 29 54  1  0
M  END
>  <smiles>  (25) 
CSCCC[C@H](NC(=O)CNC(=O)c1ccc2ccccc2n1)c1ccccc1

>  <score_type>  (25) 
oracle

>  <origin>  (25) 
autodockgpu

>  <m_score__min__energy>  (25) 
-8.7400000000000002

>  <m_primary>  (25) 
energy

>  <rmsd>  (25) 
4.174696511960319

>  <m_score__min__rmsd>  (25) 
4.174696511960319

>  <meeko>  (25) 
{"free_energy": -8.3, "intermolecular_energy": -10.99, "internal_energy": -1.59, "cluster_size": 3, "cluster_id": 3, "rank_in_cluster": 1}

>  <energy>  (25) 
-8.33

>  <cluster_rmsd>  (25) 
0.65

>  <cluster>  (25) 
2

$$$$

     RDKit          3D

 54 56  0  0  0  0  0  0  0  0999 V2000
  140.6340   82.0160  220.4770 C   0  0  0  0  0  0  0  0  0  0  0  0
  141.8230   80.6560  220.5160 S   0  0  0  0  0  0  0  0  0  0  0  0
  141.8990   79.8660  218.8830 C   0  0  0  0  0  0  0  0  0  0  0  0
  142.1350   78.3910  219.1000 C   0  0  0  0  0  0  0  0  0  0  0  0
  140.9030   77.5960  219.3520 C   0  0  0  0  0  0  0  0  0  0  0  0
  140.8280   76.9030  220.6740 C   0  0  2  0  0  0  0  0  0  0  0  0
  139.8710   75.7810  220.6360 N   0  0  0  0  0  0  0  0  0  0  0  0
  140.0030   74.6710  221.5140 C   0  0  0  0  0  0  0  0  0  0  0  0
  140.9740   74.6970  222.3170 O   0  0  0  0  0  0  0  0  0  0  0  0
  139.0670   73.5170  221.5160 C   0  0  0  0  0  0  0  0  0  0  0  0
  139.3690   72.7030  222.6810 N   0  0  0  0  0  0  0  0  0  0  0  0
  138.9320   71.3490  222.7720 C   0  0  0  0  0  0  0  0  0  0  0  0
  138.2610   70.8310  221.8220 O   0  0  0  0  0  0  0  0  0  0  0  0
  139.2510   70.5510  223.9510 C   0  0  0  0  0  0  0  0  0  0  0  0
  138.9100   69.2150  223.9860 C   0  0  0  0  0  0  0  0  0  0  0  0
  139.1770   68.3970  225.0640 C   0  0  0  0  0  0  0  0  0  0  0  0
  139.8170   68.9590  226.1500 C   0  0  0  0  0  0  0  0  0  0  0  0
  140.0840   68.1410  227.2270 C   0  0  0  0  0  0  0  0  0  0  0  0
  140.7270   68.6990  228.3190 C   0  0  0  0  0  0  0  0  0  0  0  0
  141.0770   70.0400  228.3010 C   0  0  0  0  0  0  0  0  0  0  0  0
  140.7990   70.8360  227.2170 C   0  0  0  0  0  0  0  0  0  0  0  0
  140.1580   70.3000  226.1160 C   0  0  0  0  0  0  0  0  0  0  0  0
  139.8720   71.0470  225.0350 N   0  0  0  0  0  0  0  0  0  0  0  0
  140.5150   77.8130  221.7950 C   0  0  0  0  0  0  0  0  0  0  0  0
  139.2010   78.2660  221.9140 C   0  0  0  0  0  0  0  0  0  0  0  0
  138.8460   79.1210  222.9490 C   0  0  0  0  0  0  0  0  0  0  0  0
  139.7760   79.5420  223.8770 C   0  0  0  0  0  0  0  0  0  0  0  0
  141.0770   79.0910  223.7540 C   0  0  0  0  0  0  0  0  0  0  0  0
  141.4310   78.2420  222.7290 C   0  0  0  0  0  0  0  0  0  0  0  0
  140.3780   82.3088  221.5059 H   0  0  0  0  0  0  0  0  0  0  0  0
  141.0763   82.8747  219.9507 H   0  0  0  0  0  0  0  0  0  0  0  0
  139.7239   81.6924  219.9507 H   0  0  0  0  0  0  0  0  0  0  0  0
  140.9504   80.0193  218.3477 H   0  0  0  0  0  0  0  0  0  0  0  0
  142.7091   80.3022  218.2802 H   0  0  0  0  0  0  0  0  0  0  0  0
  142.6264   77.9867  218.2027 H   0  0  0  0  0  0  0  0  0  0  0  0
  142.7520   78.3046  220.0066 H   0  0  0  0  0  0  0  0  0  0  0  0
  140.0425   78.2774  219.2802 H   0  0  0  0  0  0  0  0  0  0  0  0
  140.9081   76.7952  218.5979 H   0  0  0  0  0  0  0  0  0  0  0  0
  141.8364   76.5060  220.8626 H   0  0  0  0  0  0  0  0  0  0  0  0
  139.0780   75.7960  219.9540 H   0  0  0  0  0  0  0  0  0  0  0  0
  138.0290   73.8771  221.5698 H   0  0  0  0  0  0  0  0  0  0  0  0
  139.1818   72.9272  220.5946 H   0  0  0  0  0  0  0  0  0  0  0  0
  139.9170   73.0630  223.5020 H   0  0  0  0  0  0  0  0  0  0  0  0
  138.4009   68.7812  223.1127 H   0  0  0  0  0  0  0  0  0  0  0  0
  138.8902   67.3351  225.0584 H   0  0  0  0  0  0  0  0  0  0  0  0
  139.7956   67.0795  227.2192 H   0  0  0  0  0  0  0  0  0  0  0  0
  140.9593   68.0799  229.1981 H   0  0  0  0  0  0  0  0  0  0  0  0
  141.5877   70.4754  229.1725 H   0  0  0  0  0  0  0  0  0  0  0  0
  141.0858   71.8979  227.2249 H   0  0  0  0  0  0  0  0  0  0  0  0
  138.4428   77.9445  221.1848 H   0  0  0  0  0  0  0  0  0  0  0  0
  137.8055   79.4685  223.0304 H   0  0  0  0  0  0  0  0  0  0  0  0
  139.4894   80.2198  224.6946 H   0  0  0  0  0  0  0  0  0  0  0  0
  141.8365   79.4132  224.4815 H   0  0  0  0  0  0  0  0  0  0  0  0
  142.4730   77.8976  222.6546 H   0  0  0  0  0  0  0  0  0  0  0  0
  1  2  1  0
  2  3  1  0
  3  4  1  0
  4  5  1  0
  5  6  1  0
  6  7  1  0
  7  8  1  0
  8  9  2  0
  8 10  1  0
 10 11  1  0
 11 12  1  0
 12 13  2  0
 12 14  1  0
 14 15  2  0
 15 16  1  0
 16 17  2  0
 17 18  1  0
 18 19  2  0
 19 20  1  0
 20 21  2  0
 21 22  1  0
 22 23  2  0
  6 24  1  0
 24 25  2  0
 25 26  1  0
 26 27  2  0
 27 28  1  0
 28 29  2  0
 23 14  1  0
 29 24  1  0
 22 17  1  0
  1 30  1  0
  1 31  1  0
  1 32  1  0
  3 33  1  0
  3 34  1  0
  4 35  1  0
  4 36  1  0
  5 37  1  0
  5 38  1  0
  6 39  1  1
  7 40  1  0
 10 41  1  0
 10 42  1  0
 11 43  1  0
 15 44  1  0
 16 45  1  0
 18 46  1  0
 19 47  1  0
 20 48  1  0
 21 49  1  0
 25 50  1  0
 26 51  1  0
 27 52  1  0
 28 53  1  0
 29 54  1  0
M  END
>  <smiles>  (26) 
CSCCC[C@H](NC(=O)CNC(=O)c1ccc2ccccc2n1)c1ccccc1

>  <score_type>  (26) 
oracle

>  <origin>  (26) 
autodockgpu

>  <m_score__min__energy>  (26) 
-8.7400000000000002

>  <m_primary>  (26) 
energy

>  <rmsd>  (26) 
4.403845748839637

>  <m_score__min__rmsd>  (26) 
4.403845748839637

>  <meeko>  (26) 
{"free_energy": -7.54, "intermolecular_energy": -10.23, "internal_energy": -2.35, "cluster_size": 20, "cluster_id": 1, "rank_in_cluster": 20}

>  <energy>  (26) 
-8.29

>  <cluster_rmsd>  (26) 
1.6

>  <cluster>  (26) 
2

$$$$

     RDKit          3D

 54 56  0  0  0  0  0  0  0  0999 V2000
  142.9730   80.2750  223.0070 C   0  0  0  0  0  0  0  0  0  0  0  0
  141.7460   79.2650  223.8670 S   0  0  0  0  0  0  0  0  0  0  0  0
  140.2780   79.0650  222.8170 C   0  0  0  0  0  0  0  0  0  0  0  0
  140.5950   78.0070  221.7880 C   0  0  0  0  0  0  0  0  0  0  0  0
  140.6790   76.6220  222.3250 C   0  0  0  0  0  0  0  0  0  0  0  0
  140.4540   75.5210  221.3410 C   0  0  2  0  0  0  0  0  0  0  0  0
  139.4920   74.5290  221.8580 N   0  0  0  0  0  0  0  0  0  0  0  0
  138.6510   73.7940  220.9800 C   0  0  0  0  0  0  0  0  0  0  0  0
  138.7690   74.0330  219.7490 O   0  0  0  0  0  0  0  0  0  0  0  0
  137.6660   72.7840  221.4500 C   0  0  0  0  0  0  0  0  0  0  0  0
  138.1170   72.2920  222.7400 N   0  0  0  0  0  0  0  0  0  0  0  0
  139.3430   71.5760  222.8720 C   0  0  0  0  0  0  0  0  0  0  0  0
  140.0650   71.3550  221.8470 O   0  0  0  0  0  0  0  0  0  0  0  0
  139.7770   71.0940  224.1790 C   0  0  0  0  0  0  0  0  0  0  0  0
  140.5710   71.8920  224.9750 C   0  0  0  0  0  0  0  0  0  0  0  0
  141.0210   71.5050  226.2200 C   0  0  0  0  0  0  0  0  0  0  0  0
  140.6470   70.2570  226.6750 C   0  0  0  0  0  0  0  0  0  0  0  0
  141.0960   69.8710  227.9200 C   0  0  0  0  0  0  0  0  0  0  0  0
  140.7230   68.6200  228.3820 C   0  0  0  0  0  0  0  0  0  0  0  0
  139.9250   67.8040  227.5960 C   0  0  0  0  0  0  0  0  0  0  0  0
  139.4900   68.2100  226.3580 C   0  0  0  0  0  0  0  0  0  0  0  0
  139.8500   69.4550  225.8770 C   0  0  0  0  0  0  0  0  0  0  0  0
  139.4420   69.8880  224.6710 N   0  0  0  0  0  0  0  0  0  0  0  0
  141.7030   74.8570  220.9110 C   0  0  0  0  0  0  0  0  0  0  0  0
  142.6230   75.6140  220.1860 C   0  0  0  0  0  0  0  0  0  0  0  0
  143.8150   75.0460  219.7570 C   0  0  0  0  0  0  0  0  0  0  0  0
  144.1160   73.7270  220.0340 C   0  0  0  0  0  0  0  0  0  0  0  0
  143.2000   72.9810  220.7520 C   0  0  0  0  0  0  0  0  0  0  0  0
  142.0180   73.5440  221.1780 C   0  0  0  0  0  0  0  0  0  0  0  0
  143.6031   80.7936  223.7446 H   0  0  0  0  0  0  0  0  0  0  0  0
  143.6022   79.6297  222.3764 H   0  0  0  0  0  0  0  0  0  0  0  0
  142.4606   81.0165  222.3764 H   0  0  0  0  0  0  0  0  0  0  0  0
  139.4197   78.7489  223.4281 H   0  0  0  0  0  0  0  0  0  0  0  0
  140.0201   80.0157  222.3275 H   0  0  0  0  0  0  0  0  0  0  0  0
  139.8078   78.0294  221.0200 H   0  0  0  0  0  0  0  0  0  0  0  0
  141.5929   78.2477  221.3926 H   0  0  0  0  0  0  0  0  0  0  0  0
  141.6826   76.4885  222.7550 H   0  0  0  0  0  0  0  0  0  0  0  0
  139.8603   76.5379  223.0549 H   0  0  0  0  0  0  0  0  0  0  0  0
  140.0267   75.9992  220.4473 H   0  0  0  0  0  0  0  0  0  0  0  0
  139.4230   74.3590  222.8870 H   0  0  0  0  0  0  0  0  0  0  0  0
  136.6739   73.2480  221.5523 H   0  0  0  0  0  0  0  0  0  0  0  0
  137.5890   71.9572  220.7286 H   0  0  0  0  0  0  0  0  0  0  0  0
  137.5740   72.4360  223.6280 H   0  0  0  0  0  0  0  0  0  0  0  0
  140.8594   72.8848  224.5992 H   0  0  0  0  0  0  0  0  0  0  0  0
  141.6549   72.1670  226.8281 H   0  0  0  0  0  0  0  0  0  0  0  0
  141.7297   70.5349  228.5264 H   0  0  0  0  0  0  0  0  0  0  0  0
  141.0594   68.2747  229.3707 H   0  0  0  0  0  0  0  0  0  0  0  0
  139.6342   66.8116  227.9709 H   0  0  0  0  0  0  0  0  0  0  0  0
  138.8569   67.5462  225.7509 H   0  0  0  0  0  0  0  0  0  0  0  0
  142.4031   76.6663  219.9529 H   0  0  0  0  0  0  0  0  0  0  0  0
  144.5312   75.6564  219.1873 H   0  0  0  0  0  0  0  0  0  0  0  0
  145.0614   73.2809  219.6917 H   0  0  0  0  0  0  0  0  0  0  0  0
  143.4174   71.9282  220.9850 H   0  0  0  0  0  0  0  0  0  0  0  0
  141.3062   72.9279  221.7470 H   0  0  0  0  0  0  0  0  0  0  0  0
  1  2  1  0
  2  3  1  0
  3  4  1  0
  4  5  1  0
  5  6  1  0
  6  7  1  0
  7  8  1  0
  8  9  2  0
  8 10  1  0
 10 11  1  0
 11 12  1  0
 12 13  2  0
 12 14  1  0
 14 15  2  0
 15 16  1  0
 16 17  2  0
 17 18  1  0
 18 19  2  0
 19 20  1  0
 20 21  2  0
 21 22  1  0
 22 23  2  0
  6 24  1  0
 24 25  2  0
 25 26  1  0
 26 27  2  0
 27 28  1  0
 28 29  2  0
 23 14  1  0
 29 24  1  0
 22 17  1  0
  1 30  1  0
  1 31  1  0
  1 32  1  0
  3 33  1  0
  3 34  1  0
  4 35  1  0
  4 36  1  0
  5 37  1  0
  5 38  1  0
  6 39  1  6
  7 40  1  0
 10 41  1  0
 10 42  1  0
 11 43  1  0
 15 44  1  0
 16 45  1  0
 18 46  1  0
 19 47  1  0
 20 48  1  0
 21 49  1  0
 25 50  1  0
 26 51  1  0
 27 52  1  0
 28 53  1  0
 29 54  1  0
M  END
>  <smiles>  (27) 
CSCCC[C@H](NC(=O)CNC(=O)c1ccc2ccccc2n1)c1ccccc1

>  <score_type>  (27) 
oracle

>  <origin>  (27) 
autodockgpu

>  <m_score__min__energy>  (27) 
-8.7400000000000002

>  <m_primary>  (27) 
energy

>  <rmsd>  (27) 
5.74503435403438

>  <m_score__min__rmsd>  (27) 
5.74503435403438

>  <meeko>  (27) 
{"free_energy": -8.35, "intermolecular_energy": -11.04, "internal_energy": -1.81, "cluster_size": 17, "cluster_id": 2, "rank_in_cluster": 4}

>  <energy>  (27) 
-8.28

>  <cluster_rmsd>  (27) 
1.57

>  <cluster>  (27) 
2

$$$$

     RDKit          3D

 54 56  0  0  0  0  0  0  0  0999 V2000
  140.3980   78.1620  222.7240 C   0  0  0  0  0  0  0  0  0  0  0  0
  141.8470   78.8620  221.9010 S   0  0  0  0  0  0  0  0  0  0  0  0
  141.5200   79.0210  220.1230 C   0  0  0  0  0  0  0  0  0  0  0  0
  141.5070   77.6300  219.5350 C   0  0  0  0  0  0  0  0  0  0  0  0
  142.5400   76.7130  220.0880 C   0  0  0  0  0  0  0  0  0  0  0  0
  142.5720   75.3360  219.5100 C   0  0  2  0  0  0  0  0  0  0  0  0
  141.2550   74.6800  219.6170 N   0  0  0  0  0  0  0  0  0  0  0  0
  140.5420   74.6580  220.8470 C   0  0  0  0  0  0  0  0  0  0  0  0
  141.0920   75.2230  221.8300 O   0  0  0  0  0  0  0  0  0  0  0  0
  139.2130   74.0120  221.0080 C   0  0  0  0  0  0  0  0  0  0  0  0
  139.2370   73.2530  222.2460 N   0  0  0  0  0  0  0  0  0  0  0  0
  140.0980   72.1290  222.4090 C   0  0  0  0  0  0  0  0  0  0  0  0
  140.8640   71.7690  221.4580 O   0  0  0  0  0  0  0  0  0  0  0  0
  140.1060   71.3830  223.6640 C   0  0  0  0  0  0  0  0  0  0  0  0
  139.6010   70.1010  223.7020 C   0  0  0  0  0  0  0  0  0  0  0  0
  139.5740   69.3350  224.8490 C   0  0  0  0  0  0  0  0  0  0  0  0
  140.0820   69.8950  226.0040 C   0  0  0  0  0  0  0  0  0  0  0  0
  140.0560   69.1290  227.1490 C   0  0  0  0  0  0  0  0  0  0  0  0
  140.5650   69.6860  228.3100 C   0  0  0  0  0  0  0  0  0  0  0  0
  141.0770   70.9730  228.2900 C   0  0  0  0  0  0  0  0  0  0  0  0
  141.0920   71.7180  227.1370 C   0  0  0  0  0  0  0  0  0  0  0  0
  140.5890   71.1820  225.9660 C   0  0  0  0  0  0  0  0  0  0  0  0
  140.5880   71.8800  224.8160 N   0  0  0  0  0  0  0  0  0  0  0  0
  143.6260   74.4800  220.0950 C   0  0  0  0  0  0  0  0  0  0  0  0
  143.3370   73.1270  220.2720 C   0  0  0  0  0  0  0  0  0  0  0  0
  144.2870   72.2730  220.8150 C   0  0  0  0  0  0  0  0  0  0  0  0
  145.5320   72.7380  221.1900 C   0  0  0  0  0  0  0  0  0  0  0  0
  145.8120   74.0800  221.0130 C   0  0  0  0  0  0  0  0  0  0  0  0
  144.8710   74.9280  220.4750 C   0  0  0  0  0  0  0  0  0  0  0  0
  140.5293   78.2254  223.8143 H   0  0  0  0  0  0  0  0  0  0  0  0
  139.5008   78.7260  222.4293 H   0  0  0  0  0  0  0  0  0  0  0  0
  140.2821   77.1086  222.4293 H   0  0  0  0  0  0  0  0  0  0  0  0
  140.5454   79.5051  219.9627 H   0  0  0  0  0  0  0  0  0  0  0  0
  142.2939   79.6368  219.6414 H   0  0  0  0  0  0  0  0  0  0  0  0
  140.5182   77.1868  219.7246 H   0  0  0  0  0  0  0  0  0  0  0  0
  141.7319   77.7426  218.4641 H   0  0  0  0  0  0  0  0  0  0  0  0
  143.5244   77.1728  219.9163 H   0  0  0  0  0  0  0  0  0  0  0  0
  142.2823   76.5825  221.1494 H   0  0  0  0  0  0  0  0  0  0  0  0
  142.8224   75.4626  218.4464 H   0  0  0  0  0  0  0  0  0  0  0  0
  140.8320   74.2220  218.7780 H   0  0  0  0  0  0  0  0  0  0  0  0
  138.4266   74.7798  221.0546 H   0  0  0  0  0  0  0  0  0  0  0  0
  139.0007   73.3506  220.1551 H   0  0  0  0  0  0  0  0  0  0  0  0
  138.6330   73.4900  223.0730 H   0  0  0  0  0  0  0  0  0  0  0  0
  139.2004   69.6681  222.7735 H   0  0  0  0  0  0  0  0  0  0  0  0
  139.1626   68.3149  224.8434 H   0  0  0  0  0  0  0  0  0  0  0  0
  139.6446   68.1089  227.1410 H   0  0  0  0  0  0  0  0  0  0  0  0
  140.5628   69.1080  229.2459 H   0  0  0  0  0  0  0  0  0  0  0  0
  141.4798   71.4070  229.2170 H   0  0  0  0  0  0  0  0  0  0  0  0
  141.5030   72.7383  227.1448 H   0  0  0  0  0  0  0  0  0  0  0  0
  142.3516   72.7349  219.9799 H   0  0  0  0  0  0  0  0  0  0  0  0
  144.0442   71.2085  220.9488 H   0  0  0  0  0  0  0  0  0  0  0  0
  146.2822   72.0574  221.6189 H   0  0  0  0  0  0  0  0  0  0  0  0
  146.7966   74.4740  221.3050 H   0  0  0  0  0  0  0  0  0  0  0  0
  145.1202   75.9915  220.3453 H   0  0  0  0  0  0  0  0  0  0  0  0
  1  2  1  0
  2  3  1  0
  3  4  1  0
  4  5  1  0
  5  6  1  0
  6  7  1  0
  7  8  1  0
  8  9  2  0
  8 10  1  0
 10 11  1  0
 11 12  1  0
 12 13  2  0
 12 14  1  0
 14 15  2  0
 15 16  1  0
 16 17  2  0
 17 18  1  0
 18 19  2  0
 19 20  1  0
 20 21  2  0
 21 22  1  0
 22 23  2  0
  6 24  1  0
 24 25  2  0
 25 26  1  0
 26 27  2  0
 27 28  1  0
 28 29  2  0
 23 14  1  0
 29 24  1  0
 22 17  1  0
  1 30  1  0
  1 31  1  0
  1 32  1  0
  3 33  1  0
  3 34  1  0
  4 35  1  0
  4 36  1  0
  5 37  1  0
  5 38  1  0
  6 39  1  6
  7 40  1  0
 10 41  1  0
 10 42  1  0
 11 43  1  0
 15 44  1  0
 16 45  1  0
 18 46  1  0
 19 47  1  0
 20 48  1  0
 21 49  1  0
 25 50  1  0
 26 51  1  0
 27 52  1  0
 28 53  1  0
 29 54  1  0
M  END
>  <smiles>  (28) 
CSCCC[C@H](NC(=O)CNC(=O)c1ccc2ccccc2n1)c1ccccc1

>  <score_type>  (28) 
oracle

>  <origin>  (28) 
autodockgpu

>  <m_score__min__energy>  (28) 
-8.7400000000000002

>  <m_primary>  (28) 
energy

>  <rmsd>  (28) 
6.211633239537413

>  <m_score__min__rmsd>  (28) 
6.211633239537413

>  <meeko>  (28) 
{"free_energy": -8.38, "intermolecular_energy": -11.07, "internal_energy": -1.81, "cluster_size": 17, "cluster_id": 2, "rank_in_cluster": 3}

>  <energy>  (28) 
-8.24

>  <cluster_rmsd>  (28) 
1.7

>  <cluster>  (28) 
2

$$$$

     RDKit          3D

 54 56  0  0  0  0  0  0  0  0999 V2000
  142.1920   79.4150  222.4950 C   0  0  0  0  0  0  0  0  0  0  0  0
  141.1570   78.5730  221.2760 S   0  0  0  0  0  0  0  0  0  0  0  0
  141.7710   78.9310  219.6050 C   0  0  0  0  0  0  0  0  0  0  0  0
  142.2810   77.6350  219.0200 C   0  0  0  0  0  0  0  0  0  0  0  0
  142.4650   76.5380  220.0070 C   0  0  0  0  0  0  0  0  0  0  0  0
  142.4810   75.1510  219.4520 C   0  0  2  0  0  0  0  0  0  0  0  0
  141.1960   74.4650  219.6880 N   0  0  0  0  0  0  0  0  0  0  0  0
  140.5870   74.4660  220.9720 C   0  0  0  0  0  0  0  0  0  0  0  0
  141.1990   75.0780  221.8890 O   0  0  0  0  0  0  0  0  0  0  0  0
  139.2950   73.7910  221.2630 C   0  0  0  0  0  0  0  0  0  0  0  0
  139.4540   73.0450  222.4990 N   0  0  0  0  0  0  0  0  0  0  0  0
  139.4700   71.6190  222.5060 C   0  0  0  0  0  0  0  0  0  0  0  0
  139.3420   70.9750  221.4150 O   0  0  0  0  0  0  0  0  0  0  0  0
  139.6330   70.8910  223.7590 C   0  0  0  0  0  0  0  0  0  0  0  0
  139.2770   69.5600  223.8300 C   0  0  0  0  0  0  0  0  0  0  0  0
  139.4020   68.8070  224.9780 C   0  0  0  0  0  0  0  0  0  0  0  0
  139.9090   69.4300  226.1000 C   0  0  0  0  0  0  0  0  0  0  0  0
  140.0350   68.6760  227.2470 C   0  0  0  0  0  0  0  0  0  0  0  0
  140.5440   69.2960  228.3760 C   0  0  0  0  0  0  0  0  0  0  0  0
  140.9080   70.6320  228.3230 C   0  0  0  0  0  0  0  0  0  0  0  0
  140.7730   71.3640  227.1690 C   0  0  0  0  0  0  0  0  0  0  0  0
  140.2670   70.7650  226.0300 C   0  0  0  0  0  0  0  0  0  0  0  0
  140.1220   71.4480  224.8810 N   0  0  0  0  0  0  0  0  0  0  0  0
  143.6050   74.3320  219.9540 C   0  0  0  0  0  0  0  0  0  0  0  0
  143.4850   72.9460  219.8660 C   0  0  0  0  0  0  0  0  0  0  0  0
  144.5090   72.1240  220.3180 C   0  0  0  0  0  0  0  0  0  0  0  0
  145.6620   72.6550  220.8630 C   0  0  0  0  0  0  0  0  0  0  0  0
  145.7730   74.0310  220.9480 C   0  0  0  0  0  0  0  0  0  0  0  0
  144.7590   74.8460  220.4990 C   0  0  0  0  0  0  0  0  0  0  0  0
  141.8594   79.1444  223.5080 H   0  0  0  0  0  0  0  0  0  0  0  0
  143.2401   79.1098  222.3595 H   0  0  0  0  0  0  0  0  0  0  0  0
  142.1065   80.5033  222.3595 H   0  0  0  0  0  0  0  0  0  0  0  0
  140.9557   79.3286  218.9827 H   0  0  0  0  0  0  0  0  0  0  0  0
  142.5740   79.6820  219.6405 H   0  0  0  0  0  0  0  0  0  0  0  0
  141.5616   77.2954  218.2603 H   0  0  0  0  0  0  0  0  0  0  0  0
  143.2771   77.8513  218.6065 H   0  0  0  0  0  0  0  0  0  0  0  0
  143.4230   76.7055  220.5211 H   0  0  0  0  0  0  0  0  0  0  0  0
  141.5854   76.5826  220.6661 H   0  0  0  0  0  0  0  0  0  0  0  0
  142.6320   75.2635  218.3682 H   0  0  0  0  0  0  0  0  0  0  0  0
  140.7190   73.9680  218.9020 H   0  0  0  0  0  0  0  0  0  0  0  0
  138.4984   74.5408  221.3780 H   0  0  0  0  0  0  0  0  0  0  0  0
  139.0191   73.1164  220.4391 H   0  0  0  0  0  0  0  0  0  0  0  0
  139.5640   73.5080  223.4360 H   0  0  0  0  0  0  0  0  0  0  0  0
  138.8743   69.0766  222.9277 H   0  0  0  0  0  0  0  0  0  0  0  0
  139.1080   67.7472  224.9988 H   0  0  0  0  0  0  0  0  0  0  0  0
  139.7408   67.6162  227.2650 H   0  0  0  0  0  0  0  0  0  0  0  0
  140.6590   68.7296  229.3119 H   0  0  0  0  0  0  0  0  0  0  0  0
  141.3134   71.1161  229.2237 H   0  0  0  0  0  0  0  0  0  0  0  0
  141.0666   72.4239  227.1507 H   0  0  0  0  0  0  0  0  0  0  0  0
  142.5751   72.5014  219.4366 H   0  0  0  0  0  0  0  0  0  0  0  0
  144.4002   71.0321  220.2408 H   0  0  0  0  0  0  0  0  0  0  0  0
  146.4708   72.0005  221.2201 H   0  0  0  0  0  0  0  0  0  0  0  0
  146.6809   74.4784  221.3788 H   0  0  0  0  0  0  0  0  0  0  0  0
  144.8742   75.9371  220.5779 H   0  0  0  0  0  0  0  0  0  0  0  0
  1  2  1  0
  2  3  1  0
  3  4  1  0
  4  5  1  0
  5  6  1  0
  6  7  1  0
  7  8  1  0
  8  9  2  0
  8 10  1  0
 10 11  1  0
 11 12  1  0
 12 13  2  0
 12 14  1  0
 14 15  2  0
 15 16  1  0
 16 17  2  0
 17 18  1  0
 18 19  2  0
 19 20  1  0
 20 21  2  0
 21 22  1  0
 22 23  2  0
  6 24  1  0
 24 25  2  0
 25 26  1  0
 26 27  2  0
 27 28  1  0
 28 29  2  0
 23 14  1  0
 29 24  1  0
 22 17  1  0
  1 30  1  0
  1 31  1  0
  1 32  1  0
  3 33  1  0
  3 34  1  0
  4 35  1  0
  4 36  1  0
  5 37  1  0
  5 38  1  0
  6 39  1  6
  7 40  1  0
 10 41  1  0
 10 42  1  0
 11 43  1  0
 15 44  1  0
 16 45  1  0
 18 46  1  0
 19 47  1  0
 20 48  1  0
 21 49  1  0
 25 50  1  0
 26 51  1  0
 27 52  1  0
 28 53  1  0
 29 54  1  0
M  END
>  <smiles>  (29) 
CSCCC[C@H](NC(=O)CNC(=O)c1ccc2ccccc2n1)c1ccccc1

>  <score_type>  (29) 
oracle

>  <origin>  (29) 
autodockgpu

>  <m_score__min__energy>  (29) 
-8.7400000000000002

>  <m_primary>  (29) 
energy

>  <rmsd>  (29) 
6.340882825190538

>  <m_score__min__rmsd>  (29) 
6.340882825190538

>  <meeko>  (29) 
{"free_energy": -8.22, "intermolecular_energy": -10.9, "internal_energy": -1.78, "cluster_size": 17, "cluster_id": 2, "rank_in_cluster": 9}

>  <energy>  (29) 
-8.22

>  <cluster_rmsd>  (29) 
0.54

>  <cluster>  (29) 
2

$$$$

     RDKit          3D

 54 56  0  0  0  0  0  0  0  0999 V2000
  142.9160   80.2040  223.0330 C   0  0  0  0  0  0  0  0  0  0  0  0
  141.7720   78.9070  223.5570 S   0  0  0  0  0  0  0  0  0  0  0  0
  140.0740   79.3790  223.1180 C   0  0  0  0  0  0  0  0  0  0  0  0
  139.3910   78.1550  222.5570 C   0  0  0  0  0  0  0  0  0  0  0  0
  140.1800   76.8990  222.6670 C   0  0  0  0  0  0  0  0  0  0  0  0
  140.0600   75.9460  221.5230 C   0  0  2  0  0  0  0  0  0  0  0  0
  139.2380   74.7750  221.8860 N   0  0  0  0  0  0  0  0  0  0  0  0
  138.6820   73.9300  220.8890 C   0  0  0  0  0  0  0  0  0  0  0  0
  138.9260   74.2310  219.6890 O   0  0  0  0  0  0  0  0  0  0  0  0
  137.8470   72.7400  221.2010 C   0  0  0  0  0  0  0  0  0  0  0  0
  138.2400   72.2550  222.5120 N   0  0  0  0  0  0  0  0  0  0  0  0
  139.5280   71.6870  222.7360 C   0  0  0  0  0  0  0  0  0  0  0  0
  140.3590   71.5940  221.7760 O   0  0  0  0  0  0  0  0  0  0  0  0
  139.9010   71.2080  224.0630 C   0  0  0  0  0  0  0  0  0  0  0  0
  140.7470   71.9620  224.8500 C   0  0  0  0  0  0  0  0  0  0  0  0
  141.1440   71.5760  226.1130 C   0  0  0  0  0  0  0  0  0  0  0  0
  140.6620   70.3760  226.5970 C   0  0  0  0  0  0  0  0  0  0  0  0
  141.0590   69.9920  227.8590 C   0  0  0  0  0  0  0  0  0  0  0  0
  140.5780   68.7900  228.3500 C   0  0  0  0  0  0  0  0  0  0  0  0
  139.7270   68.0200  227.5740 C   0  0  0  0  0  0  0  0  0  0  0  0
  139.3460   68.4230  226.3170 C   0  0  0  0  0  0  0  0  0  0  0  0
  139.8140   69.6200  225.8080 C   0  0  0  0  0  0  0  0  0  0  0  0
  139.4610   70.0490  224.5830 N   0  0  0  0  0  0  0  0  0  0  0  0
  141.3660   75.5130  220.9820 C   0  0  0  0  0  0  0  0  0  0  0  0
  142.0880   76.4330  220.2210 C   0  0  0  0  0  0  0  0  0  0  0  0
  143.3220   76.0860  219.6880 C   0  0  0  0  0  0  0  0  0  0  0  0
  143.8610   74.8320  219.8950 C   0  0  0  0  0  0  0  0  0  0  0  0
  143.1400   73.9240  220.6490 C   0  0  0  0  0  0  0  0  0  0  0  0
  141.9170   74.2680  221.1790 C   0  0  0  0  0  0  0  0  0  0  0  0
  143.3470   80.6927  223.9192 H   0  0  0  0  0  0  0  0  0  0  0  0
  143.7222   79.7603  222.4304 H   0  0  0  0  0  0  0  0  0  0  0  0
  142.3751   80.9485  222.4304 H   0  0  0  0  0  0  0  0  0  0  0  0
  139.5390   79.7302  224.0127 H   0  0  0  0  0  0  0  0  0  0  0  0
  140.0782   80.1927  222.3778 H   0  0  0  0  0  0  0  0  0  0  0  0
  138.4435   78.0131  223.0975 H   0  0  0  0  0  0  0  0  0  0  0  0
  139.2516   78.3417  221.4820 H   0  0  0  0  0  0  0  0  0  0  0  0
  141.2402   77.1754  222.7645 H   0  0  0  0  0  0  0  0  0  0  0  0
  139.7703   76.3677  223.5387 H   0  0  0  0  0  0  0  0  0  0  0  0
  139.5545   76.5030  220.7204 H   0  0  0  0  0  0  0  0  0  0  0  0
  139.0570   74.5580  222.8930 H   0  0  0  0  0  0  0  0  0  0  0  0
  136.7834   73.0205  221.2089 H   0  0  0  0  0  0  0  0  0  0  0  0
  137.9930   71.9577  220.4416 H   0  0  0  0  0  0  0  0  0  0  0  0
  137.6070   72.2980  223.3500 H   0  0  0  0  0  0  0  0  0  0  0  0
  141.1225   72.9159  224.4513 H   0  0  0  0  0  0  0  0  0  0  0  0
  141.8206   72.2018  226.7135 H   0  0  0  0  0  0  0  0  0  0  0  0
  141.7360   70.6197  228.4571 H   0  0  0  0  0  0  0  0  0  0  0  0
  140.8708   68.4474  229.3535 H   0  0  0  0  0  0  0  0  0  0  0  0
  139.3488   67.0669  227.9722 H   0  0  0  0  0  0  0  0  0  0  0  0
  138.6706   67.7950  225.7174 H   0  0  0  0  0  0  0  0  0  0  0  0
  141.6776   77.4378  220.0425 H   0  0  0  0  0  0  0  0  0  0  0  0
  143.8796   76.8225  219.0908 H   0  0  0  0  0  0  0  0  0  0  0  0
  144.8393   74.5618  219.4709 H   0  0  0  0  0  0  0  0  0  0  0  0
  143.5475   72.9179  220.8268 H   0  0  0  0  0  0  0  0  0  0  0  0
  141.3653   73.5272  221.7763 H   0  0  0  0  0  0  0  0  0  0  0  0
  1  2  1  0
  2  3  1  0
  3  4  1  0
  4  5  1  0
  5  6  1  0
  6  7  1  0
  7  8  1  0
  8  9  2  0
  8 10  1  0
 10 11  1  0
 11 12  1  0
 12 13  2  0
 12 14  1  0
 14 15  2  0
 15 16  1  0
 16 17  2  0
 17 18  1  0
 18 19  2  0
 19 20  1  0
 20 21  2  0
 21 22  1  0
 22 23  2  0
  6 24  1  0
 24 25  2  0
 25 26  1  0
 26 27  2  0
 27 28  1  0
 28 29  2  0
 23 14  1  0
 29 24  1  0
 22 17  1  0
  1 30  1  0
  1 31  1  0
  1 32  1  0
  3 33  1  0
  3 34  1  0
  4 35  1  0
  4 36  1  0
  5 37  1  0
  5 38  1  0
  6 39  1  6
  7 40  1  0
 10 41  1  0
 10 42  1  0
 11 43  1  0
 15 44  1  0
 16 45  1  0
 18 46  1  0
 19 47  1  0
 20 48  1  0
 21 49  1  0
 25 50  1  0
 26 51  1  0
 27 52  1  0
 28 53  1  0
 29 54  1  0
M  END
>  <smiles>  (30) 
CSCCC[C@H](NC(=O)CNC(=O)c1ccc2ccccc2n1)c1ccccc1

>  <score_type>  (30) 
oracle

>  <origin>  (30) 
autodockgpu

>  <m_score__min__energy>  (30) 
-8.7400000000000002

>  <m_primary>  (30) 
energy

>  <rmsd>  (30) 
5.342545914091819

>  <m_score__min__rmsd>  (30) 
5.342545914091819

>  <meeko>  (30) 
{"free_energy": -8.01, "intermolecular_energy": -10.7, "internal_energy": -1.93, "cluster_size": 17, "cluster_id": 2, "rank_in_cluster": 14}

>  <energy>  (30) 
-8.18

>  <cluster_rmsd>  (30) 
0.55

>  <cluster>  (30) 
2

$$$$

     RDKit          3D

 54 56  0  0  0  0  0  0  0  0999 V2000
  143.2280   73.6750  220.4480 C   0  0  0  0  0  0  0  0  0  0  0  0
  143.9990   75.2390  219.9730 S   0  0  0  0  0  0  0  0  0  0  0  0
  143.1800   75.8960  218.4910 C   0  0  0  0  0  0  0  0  0  0  0  0
  142.9280   77.3660  218.7240 C   0  0  0  0  0  0  0  0  0  0  0  0
  141.6030   77.6810  219.3240 C   0  0  0  0  0  0  0  0  0  0  0  0
  141.2750   76.9730  220.5980 C   0  0  2  0  0  0  0  0  0  0  0  0
  140.2030   75.9790  220.3960 N   0  0  0  0  0  0  0  0  0  0  0  0
  139.9840   74.9330  221.3330 C   0  0  0  0  0  0  0  0  0  0  0  0
  140.7480   74.9000  222.3340 O   0  0  0  0  0  0  0  0  0  0  0  0
  138.9190   73.9080  221.1760 C   0  0  0  0  0  0  0  0  0  0  0  0
  138.9430   73.0610  222.3560 N   0  0  0  0  0  0  0  0  0  0  0  0
  140.0000   72.1310  222.5780 C   0  0  0  0  0  0  0  0  0  0  0  0
  140.9470   72.0290  221.7340 O   0  0  0  0  0  0  0  0  0  0  0  0
  140.0040   71.2920  223.7730 C   0  0  0  0  0  0  0  0  0  0  0  0
  139.4540   70.0280  223.7250 C   0  0  0  0  0  0  0  0  0  0  0  0
  139.4210   69.1790  224.8100 C   0  0  0  0  0  0  0  0  0  0  0  0
  139.9690   69.6310  225.9930 C   0  0  0  0  0  0  0  0  0  0  0  0
  139.9360   68.7820  227.0780 C   0  0  0  0  0  0  0  0  0  0  0  0
  140.4860   69.2300  228.2670 C   0  0  0  0  0  0  0  0  0  0  0  0
  141.0430   70.4970  228.3340 C   0  0  0  0  0  0  0  0  0  0  0  0
  141.0640   71.3270  227.2400 C   0  0  0  0  0  0  0  0  0  0  0  0
  140.5210   70.9000  226.0430 C   0  0  0  0  0  0  0  0  0  0  0  0
  140.5250   71.6830  224.9490 N   0  0  0  0  0  0  0  0  0  0  0  0
  140.9290   77.8890  221.7050 C   0  0  0  0  0  0  0  0  0  0  0  0
  139.5850   78.0010  222.0570 C   0  0  0  0  0  0  0  0  0  0  0  0
  139.1990   78.8440  223.0900 C   0  0  0  0  0  0  0  0  0  0  0  0
  140.1290   79.5880  223.7890 C   0  0  0  0  0  0  0  0  0  0  0  0
  141.4610   79.4730  223.4350 C   0  0  0  0  0  0  0  0  0  0  0  0
  141.8440   78.6370  222.4110 C   0  0  0  0  0  0  0  0  0  0  0  0
  143.1921   73.6022  221.5450 H   0  0  0  0  0  0  0  0  0  0  0  0
  142.2057   73.6326  220.0441 H   0  0  0  0  0  0  0  0  0  0  0  0
  143.8169   72.8383  220.0441 H   0  0  0  0  0  0  0  0  0  0  0  0
  143.8285   75.7610  217.6128 H   0  0  0  0  0  0  0  0  0  0  0  0
  142.2342   75.3662  218.3048 H   0  0  0  0  0  0  0  0  0  0  0  0
  143.7091   77.7450  219.3995 H   0  0  0  0  0  0  0  0  0  0  0  0
  142.9432   77.8452  217.7340 H   0  0  0  0  0  0  0  0  0  0  0  0
  141.5723   78.7625  219.5227 H   0  0  0  0  0  0  0  0  0  0  0  0
  140.8572   77.3357  218.5929 H   0  0  0  0  0  0  0  0  0  0  0  0
  142.1958   76.4508  220.8970 H   0  0  0  0  0  0  0  0  0  0  0  0
  139.5890   76.0390  219.5510 H   0  0  0  0  0  0  0  0  0  0  0  0
  137.9381   74.3977  221.0864 H   0  0  0  0  0  0  0  0  0  0  0  0
  139.0911   73.3098  220.2691 H   0  0  0  0  0  0  0  0  0  0  0  0
  138.1960   73.0890  223.0950 H   0  0  0  0  0  0  0  0  0  0  0  0
  139.0210   69.6810  222.7752 H   0  0  0  0  0  0  0  0  0  0  0  0
  138.9738   68.1768  224.7357 H   0  0  0  0  0  0  0  0  0  0  0  0
  139.4872   67.7806  227.0019 H   0  0  0  0  0  0  0  0  0  0  0  0
  140.4808   68.5820  229.1559 H   0  0  0  0  0  0  0  0  0  0  0  0
  141.4772   70.8451  229.2828 H   0  0  0  0  0  0  0  0  0  0  0  0
  141.5117   72.3288  227.3163 H   0  0  0  0  0  0  0  0  0  0  0  0
  138.8265   77.4185  221.5135 H   0  0  0  0  0  0  0  0  0  0  0  0
  138.1345   78.9207  223.3563 H   0  0  0  0  0  0  0  0  0  0  0  0
  139.8183   80.2551  224.6066 H   0  0  0  0  0  0  0  0  0  0  0  0
  142.2211   80.0550  223.9768 H   0  0  0  0  0  0  0  0  0  0  0  0
  142.9100   78.5646  222.1496 H   0  0  0  0  0  0  0  0  0  0  0  0
  1  2  1  0
  2  3  1  0
  3  4  1  0
  4  5  1  0
  5  6  1  0
  6  7  1  0
  7  8  1  0
  8  9  2  0
  8 10  1  0
 10 11  1  0
 11 12  1  0
 12 13  2  0
 12 14  1  0
 14 15  2  0
 15 16  1  0
 16 17  2  0
 17 18  1  0
 18 19  2  0
 19 20  1  0
 20 21  2  0
 21 22  1  0
 22 23  2  0
  6 24  1  0
 24 25  2  0
 25 26  1  0
 26 27  2  0
 27 28  1  0
 28 29  2  0
 23 14  1  0
 29 24  1  0
 22 17  1  0
  1 30  1  0
  1 31  1  0
  1 32  1  0
  3 33  1  0
  3 34  1  0
  4 35  1  0
  4 36  1  0
  5 37  1  0
  5 38  1  0
  6 39  1  1
  7 40  1  0
 10 41  1  0
 10 42  1  0
 11 43  1  0
 15 44  1  0
 16 45  1  0
 18 46  1  0
 19 47  1  0
 20 48  1  0
 21 49  1  0
 25 50  1  0
 26 51  1  0
 27 52  1  0
 28 53  1  0
 29 54  1  0
M  END
>  <smiles>  (31) 
CSCCC[C@H](NC(=O)CNC(=O)c1ccc2ccccc2n1)c1ccccc1

>  <score_type>  (31) 
oracle

>  <origin>  (31) 
autodockgpu

>  <m_score__min__energy>  (31) 
-8.7400000000000002

>  <m_primary>  (31) 
energy

>  <rmsd>  (31) 
4.167468259468204

>  <m_score__min__rmsd>  (31) 
4.167468259468204

>  <meeko>  (31) 
{"free_energy": -8.32, "intermolecular_energy": -11.01, "internal_energy": -1.71, "cluster_size": 20, "cluster_id": 1, "rank_in_cluster": 9}

>  <energy>  (31) 
-8.16

>  <cluster_rmsd>  (31) 
1.65

>  <cluster>  (31) 
2

$$$$

     RDKit          3D

 54 56  0  0  0  0  0  0  0  0999 V2000
  143.7330   73.2710  220.4680 C   0  0  0  0  0  0  0  0  0  0  0  0
  143.0990   74.4850  219.2890 S   0  0  0  0  0  0  0  0  0  0  0  0
  143.7160   76.1360  219.7250 C   0  0  0  0  0  0  0  0  0  0  0  0
  142.9680   77.1390  218.8800 C   0  0  0  0  0  0  0  0  0  0  0  0
  141.9160   77.9010  219.6050 C   0  0  0  0  0  0  0  0  0  0  0  0
  141.4630   77.3200  220.9050 C   0  0  2  0  0  0  0  0  0  0  0  0
  140.3180   76.4100  220.7140 N   0  0  0  0  0  0  0  0  0  0  0  0
  140.3040   75.1140  221.2970 C   0  0  0  0  0  0  0  0  0  0  0  0
  141.3130   74.7880  221.9780 O   0  0  0  0  0  0  0  0  0  0  0  0
  139.1760   74.1590  221.1350 C   0  0  0  0  0  0  0  0  0  0  0  0
  139.1230   73.3300  222.3270 N   0  0  0  0  0  0  0  0  0  0  0  0
  140.0730   72.2900  222.5470 C   0  0  0  0  0  0  0  0  0  0  0  0
  140.9880   72.0710  221.6900 O   0  0  0  0  0  0  0  0  0  0  0  0
  140.0010   71.4710  223.7530 C   0  0  0  0  0  0  0  0  0  0  0  0
  139.3530   70.2550  223.7180 C   0  0  0  0  0  0  0  0  0  0  0  0
  139.2440   69.4260  224.8150 C   0  0  0  0  0  0  0  0  0  0  0  0
  139.8180   69.8520  225.9960 C   0  0  0  0  0  0  0  0  0  0  0  0
  139.7100   69.0230  227.0930 C   0  0  0  0  0  0  0  0  0  0  0  0
  140.2850   69.4440  228.2800 C   0  0  0  0  0  0  0  0  0  0  0  0
  140.9400   70.6640  228.3340 C   0  0  0  0  0  0  0  0  0  0  0  0
  141.0350   71.4730  227.2280 C   0  0  0  0  0  0  0  0  0  0  0  0
  140.4690   71.0730  226.0330 C   0  0  0  0  0  0  0  0  0  0  0  0
  140.5420   71.8370  224.9280 N   0  0  0  0  0  0  0  0  0  0  0  0
  141.1480   78.3430  221.9240 C   0  0  0  0  0  0  0  0  0  0  0  0
  142.1380   79.2750  222.2340 C   0  0  0  0  0  0  0  0  0  0  0  0
  141.9000   80.2610  223.1820 C   0  0  0  0  0  0  0  0  0  0  0  0
  140.6870   80.3430  223.8360 C   0  0  0  0  0  0  0  0  0  0  0  0
  139.7100   79.4160  223.5250 C   0  0  0  0  0  0  0  0  0  0  0  0
  139.9450   78.4380  222.5850 C   0  0  0  0  0  0  0  0  0  0  0  0
  143.5484   73.6244  221.4932 H   0  0  0  0  0  0  0  0  0  0  0  0
  143.2221   72.3090  220.3142 H   0  0  0  0  0  0  0  0  0  0  0  0
  144.8144   73.1406  220.3142 H   0  0  0  0  0  0  0  0  0  0  0  0
  143.5351   76.3347  220.7917 H   0  0  0  0  0  0  0  0  0  0  0  0
  144.7983   76.2057  219.5411 H   0  0  0  0  0  0  0  0  0  0  0  0
  143.6961   77.8585  218.4773 H   0  0  0  0  0  0  0  0  0  0  0  0
  142.4513   76.5628  218.0984 H   0  0  0  0  0  0  0  0  0  0  0  0
  142.3087   78.9087  219.8057 H   0  0  0  0  0  0  0  0  0  0  0  0
  141.0330   77.8835  218.9493 H   0  0  0  0  0  0  0  0  0  0  0  0
  142.3164   76.7429  221.2905 H   0  0  0  0  0  0  0  0  0  0  0  0
  139.4990   76.7170  220.1410 H   0  0  0  0  0  0  0  0  0  0  0  0
  138.2315   74.7111  221.0206 H   0  0  0  0  0  0  0  0  0  0  0  0
  139.3240   73.5369  220.2399 H   0  0  0  0  0  0  0  0  0  0  0  0
  138.3960   73.4520  223.0760 H   0  0  0  0  0  0  0  0  0  0  0  0
  138.9009   69.9299  222.7693 H   0  0  0  0  0  0  0  0  0  0  0  0
  138.7192   68.4613  224.7512 H   0  0  0  0  0  0  0  0  0  0  0  0
  139.1843   68.0590  227.0270 H   0  0  0  0  0  0  0  0  0  0  0  0
  140.2221   68.8117  229.1779 H   0  0  0  0  0  0  0  0  0  0  0  0
  141.3929   70.9911  229.2816 H   0  0  0  0  0  0  0  0  0  0  0  0
  141.5605   72.4371  227.2937 H   0  0  0  0  0  0  0  0  0  0  0  0
  143.1121   79.2287  221.7250 H   0  0  0  0  0  0  0  0  0  0  0  0
  142.6909   80.9888  223.4158 H   0  0  0  0  0  0  0  0  0  0  0  0
  140.5026   81.1264  224.5858 H   0  0  0  0  0  0  0  0  0  0  0  0
  138.7355   79.4601  224.0334 H   0  0  0  0  0  0  0  0  0  0  0  0
  139.1498   77.7132  222.3563 H   0  0  0  0  0  0  0  0  0  0  0  0
  1  2  1  0
  2  3  1  0
  3  4  1  0
  4  5  1  0
  5  6  1  0
  6  7  1  0
  7  8  1  0
  8  9  2  0
  8 10  1  0
 10 11  1  0
 11 12  1  0
 12 13  2  0
 12 14  1  0
 14 15  2  0
 15 16  1  0
 16 17  2  0
 17 18  1  0
 18 19  2  0
 19 20  1  0
 20 21  2  0
 21 22  1  0
 22 23  2  0
  6 24  1  0
 24 25  2  0
 25 26  1  0
 26 27  2  0
 27 28  1  0
 28 29  2  0
 23 14  1  0
 29 24  1  0
 22 17  1  0
  1 30  1  0
  1 31  1  0
  1 32  1  0
  3 33  1  0
  3 34  1  0
  4 35  1  0
  4 36  1  0
  5 37  1  0
  5 38  1  0
  6 39  1  1
  7 40  1  0
 10 41  1  0
 10 42  1  0
 11 43  1  0
 15 44  1  0
 16 45  1  0
 18 46  1  0
 19 47  1  0
 20 48  1  0
 21 49  1  0
 25 50  1  0
 26 51  1  0
 27 52  1  0
 28 53  1  0
 29 54  1  0
M  END
>  <smiles>  (32) 
CSCCC[C@H](NC(=O)CNC(=O)c1ccc2ccccc2n1)c1ccccc1

>  <score_type>  (32) 
oracle

>  <origin>  (32) 
autodockgpu

>  <m_score__min__energy>  (32) 
-8.7400000000000002

>  <m_primary>  (32) 
energy

>  <rmsd>  (32) 
4.163707391913431

>  <m_score__min__rmsd>  (32) 
4.163707391913431

>  <meeko>  (32) 
{"free_energy": -8.68, "intermolecular_energy": -11.36, "internal_energy": -1.69, "cluster_size": 20, "cluster_id": 1, "rank_in_cluster": 3}

>  <energy>  (32) 
-8.1

>  <cluster_rmsd>  (32) 
1.96

>  <cluster>  (32) 
2

$$$$

     RDKit          3D

 54 56  0  0  0  0  0  0  0  0999 V2000
  143.5300   73.9100  220.1320 C   0  0  0  0  0  0  0  0  0  0  0  0
  143.7890   75.6260  219.6270 S   0  0  0  0  0  0  0  0  0  0  0  0
  142.6470   76.0430  218.2800 C   0  0  0  0  0  0  0  0  0  0  0  0
  142.5950   77.5490  218.1770 C   0  0  0  0  0  0  0  0  0  0  0  0
  141.7380   78.2120  219.1960 C   0  0  0  0  0  0  0  0  0  0  0  0
  141.5640   77.4780  220.4850 C   0  0  2  0  0  0  0  0  0  0  0  0
  140.5160   76.4450  220.3760 N   0  0  0  0  0  0  0  0  0  0  0  0
  140.4980   75.3200  221.2440 C   0  0  0  0  0  0  0  0  0  0  0  0
  141.4170   75.2530  222.1040 O   0  0  0  0  0  0  0  0  0  0  0  0
  139.4660   74.2530  221.1760 C   0  0  0  0  0  0  0  0  0  0  0  0
  139.5900   73.4390  222.3720 N   0  0  0  0  0  0  0  0  0  0  0  0
  139.7110   72.0210  222.2930 C   0  0  0  0  0  0  0  0  0  0  0  0
  139.7090   71.4430  221.1590 O   0  0  0  0  0  0  0  0  0  0  0  0
  139.8370   71.2240  223.5090 C   0  0  0  0  0  0  0  0  0  0  0  0
  139.4530   69.8990  223.5040 C   0  0  0  0  0  0  0  0  0  0  0  0
  139.5420   69.0840  224.6120 C   0  0  0  0  0  0  0  0  0  0  0  0
  140.0410   69.6370  225.7740 C   0  0  0  0  0  0  0  0  0  0  0  0
  140.1310   68.8210  226.8810 C   0  0  0  0  0  0  0  0  0  0  0  0
  140.6320   69.3700  228.0490 C   0  0  0  0  0  0  0  0  0  0  0  0
  141.0230   70.6990  228.0740 C   0  0  0  0  0  0  0  0  0  0  0  0
  140.9240   71.4930  226.9580 C   0  0  0  0  0  0  0  0  0  0  0  0
  140.4260   70.9660  225.7810 C   0  0  0  0  0  0  0  0  0  0  0  0
  140.3160   71.7120  224.6670 N   0  0  0  0  0  0  0  0  0  0  0  0
  141.2950   78.3680  221.6340 C   0  0  0  0  0  0  0  0  0  0  0  0
  142.2170   79.3810  221.8970 C   0  0  0  0  0  0  0  0  0  0  0  0
  142.0180   80.2510  222.9610 C   0  0  0  0  0  0  0  0  0  0  0  0
  140.9120   80.1350  223.7790 C   0  0  0  0  0  0  0  0  0  0  0  0
  140.0020   79.1290  223.5140 C   0  0  0  0  0  0  0  0  0  0  0  0
  140.1980   78.2660  222.4590 C   0  0  0  0  0  0  0  0  0  0  0  0
  143.5207   73.8484  221.2302 H   0  0  0  0  0  0  0  0  0  0  0  0
  142.5677   73.5527  219.7366 H   0  0  0  0  0  0  0  0  0  0  0  0
  144.3439   73.2846  219.7366 H   0  0  0  0  0  0  0  0  0  0  0  0
  143.0098   75.6144  217.3341 H   0  0  0  0  0  0  0  0  0  0  0  0
  141.6458   75.6342  218.4811 H   0  0  0  0  0  0  0  0  0  0  0  0
  143.6190   77.9356  218.2864 H   0  0  0  0  0  0  0  0  0  0  0  0
  142.1483   77.7784  217.1983 H   0  0  0  0  0  0  0  0  0  0  0  0
  142.1836   79.1915  219.4243 H   0  0  0  0  0  0  0  0  0  0  0  0
  140.7346   78.2663  218.7486 H   0  0  0  0  0  0  0  0  0  0  0  0
  142.5289   76.9885  220.6835 H   0  0  0  0  0  0  0  0  0  0  0  0
  139.7700   76.5360  219.6490 H   0  0  0  0  0  0  0  0  0  0  0  0
  138.4637   74.7040  221.1325 H   0  0  0  0  0  0  0  0  0  0  0  0
  139.6085   73.6373  220.2756 H   0  0  0  0  0  0  0  0  0  0  0  0
  139.5970   73.8460  223.3410 H   0  0  0  0  0  0  0  0  0  0  0  0
  139.0567   69.4723  222.5708 H   0  0  0  0  0  0  0  0  0  0  0  0
  139.2268   68.0309  224.5716 H   0  0  0  0  0  0  0  0  0  0  0  0
  139.8152   67.7682  226.8379 H   0  0  0  0  0  0  0  0  0  0  0  0
  140.7195   68.7525  228.9551 H   0  0  0  0  0  0  0  0  0  0  0  0
  141.4206   71.1265  229.0063 H   0  0  0  0  0  0  0  0  0  0  0  0
  141.2402   72.5457  227.0005 H   0  0  0  0  0  0  0  0  0  0  0  0
  143.1060   79.4913  221.2586 H   0  0  0  0  0  0  0  0  0  0  0  0
  142.7536   81.0455  223.1551 H   0  0  0  0  0  0  0  0  0  0  0  0
  140.7587   80.8262  224.6209 H   0  0  0  0  0  0  0  0  0  0  0  0
  139.1129   79.0167  224.1518 H   0  0  0  0  0  0  0  0  0  0  0  0
  139.4582   77.4741  222.2706 H   0  0  0  0  0  0  0  0  0  0  0  0
  1  2  1  0
  2  3  1  0
  3  4  1  0
  4  5  1  0
  5  6  1  0
  6  7  1  0
  7  8  1  0
  8  9  2  0
  8 10  1  0
 10 11  1  0
 11 12  1  0
 12 13  2  0
 12 14  1  0
 14 15  2  0
 15 16  1  0
 16 17  2  0
 17 18  1  0
 18 19  2  0
 19 20  1  0
 20 21  2  0
 21 22  1  0
 22 23  2  0
  6 24  1  0
 24 25  2  0
 25 26  1  0
 26 27  2  0
 27 28  1  0
 28 29  2  0
 23 14  1  0
 29 24  1  0
 22 17  1  0
  1 30  1  0
  1 31  1  0
  1 32  1  0
  3 33  1  0
  3 34  1  0
  4 35  1  0
  4 36  1  0
  5 37  1  0
  5 38  1  0
  6 39  1  1
  7 40  1  0
 10 41  1  0
 10 42  1  0
 11 43  1  0
 15 44  1  0
 16 45  1  0
 18 46  1  0
 19 47  1  0
 20 48  1  0
 21 49  1  0
 25 50  1  0
 26 51  1  0
 27 52  1  0
 28 53  1  0
 29 54  1  0
M  END
>  <smiles>  (33) 
CSCCC[C@H](NC(=O)CNC(=O)c1ccc2ccccc2n1)c1ccccc1

>  <score_type>  (33) 
oracle

>  <origin>  (33) 
autodockgpu

>  <m_score__min__energy>  (33) 
-8.7400000000000002

>  <m_primary>  (33) 
energy

>  <rmsd>  (33) 
4.192461729689515

>  <m_score__min__rmsd>  (33) 
4.192461729689515

>  <meeko>  (33) 
{"free_energy": -8.05, "intermolecular_energy": -10.74, "internal_energy": -1.85, "cluster_size": 20, "cluster_id": 1, "rank_in_cluster": 11}

>  <energy>  (33) 
-8.06

>  <cluster_rmsd>  (33) 
1.53

>  <cluster>  (33) 
2

$$$$

     RDKit          3D

 54 56  0  0  0  0  0  0  0  0999 V2000
  142.7200   80.5520  223.8120 C   0  0  0  0  0  0  0  0  0  0  0  0
  141.6630   80.2590  222.3750 S   0  0  0  0  0  0  0  0  0  0  0  0
  141.7640   78.5120  221.8910 C   0  0  0  0  0  0  0  0  0  0  0  0
  140.4070   77.8950  222.1280 C   0  0  0  0  0  0  0  0  0  0  0  0
  140.4270   76.4290  222.3820 C   0  0  0  0  0  0  0  0  0  0  0  0
  140.4370   75.5530  221.1710 C   0  0  2  0  0  0  0  0  0  0  0  0
  139.6290   74.3370  221.3850 N   0  0  0  0  0  0  0  0  0  0  0  0
  138.2170   74.3550  221.2260 C   0  0  0  0  0  0  0  0  0  0  0  0
  137.6970   75.4550  220.8970 O   0  0  0  0  0  0  0  0  0  0  0  0
  137.3580   73.1580  221.4290 C   0  0  0  0  0  0  0  0  0  0  0  0
  137.8020   72.4960  222.6430 N   0  0  0  0  0  0  0  0  0  0  0  0
  138.9100   71.6000  222.6350 C   0  0  0  0  0  0  0  0  0  0  0  0
  139.5320   71.3650  221.5490 O   0  0  0  0  0  0  0  0  0  0  0  0
  139.3390   70.9480  223.8680 C   0  0  0  0  0  0  0  0  0  0  0  0
  139.1950   69.5840  224.0080 C   0  0  0  0  0  0  0  0  0  0  0  0
  139.5760   68.8970  225.1420 C   0  0  0  0  0  0  0  0  0  0  0  0
  140.1270   69.6270  226.1760 C   0  0  0  0  0  0  0  0  0  0  0  0
  140.5090   68.9410  227.3080 C   0  0  0  0  0  0  0  0  0  0  0  0
  141.0630   69.6680  228.3480 C   0  0  0  0  0  0  0  0  0  0  0  0
  141.2160   71.0390  228.2260 C   0  0  0  0  0  0  0  0  0  0  0  0
  140.8280   71.7020  227.0870 C   0  0  0  0  0  0  0  0  0  0  0  0
  140.2720   70.9970  226.0360 C   0  0  0  0  0  0  0  0  0  0  0  0
  139.8820   71.6100  224.9050 N   0  0  0  0  0  0  0  0  0  0  0  0
  141.7980   75.1980  220.7170 C   0  0  0  0  0  0  0  0  0  0  0  0
  142.2400   73.8970  220.9540 C   0  0  0  0  0  0  0  0  0  0  0  0
  143.5080   73.5030  220.5480 C   0  0  0  0  0  0  0  0  0  0  0  0
  144.3560   74.3830  219.9050 C   0  0  0  0  0  0  0  0  0  0  0  0
  143.9120   75.6720  219.6730 C   0  0  0  0  0  0  0  0  0  0  0  0
  142.6550   76.0630  220.0750 C   0  0  0  0  0  0  0  0  0  0  0  0
  142.1400   80.3912  224.7327 H   0  0  0  0  0  0  0  0  0  0  0  0
  143.5715   79.8560  223.7888 H   0  0  0  0  0  0  0  0  0  0  0  0
  143.0917   81.5870  223.7888 H   0  0  0  0  0  0  0  0  0  0  0  0
  142.0320   78.4322  220.8271 H   0  0  0  0  0  0  0  0  0  0  0  0
  142.5338   77.9914  222.4795 H   0  0  0  0  0  0  0  0  0  0  0  0
  139.9541   78.3879  223.0008 H   0  0  0  0  0  0  0  0  0  0  0  0
  139.8324   78.0423  221.2017 H   0  0  0  0  0  0  0  0  0  0  0  0
  141.3291   76.2017  222.9690 H   0  0  0  0  0  0  0  0  0  0  0  0
  139.4832   76.2057  222.9011 H   0  0  0  0  0  0  0  0  0  0  0  0
  139.9813   76.1474  220.3654 H   0  0  0  0  0  0  0  0  0  0  0  0
  140.0970   73.4430  221.6580 H   0  0  0  0  0  0  0  0  0  0  0  0
  136.3067   73.4646  221.5326 H   0  0  0  0  0  0  0  0  0  0  0  0
  137.4365   72.4773  220.5685 H   0  0  0  0  0  0  0  0  0  0  0  0
  137.3370   72.6400  223.5750 H   0  0  0  0  0  0  0  0  0  0  0  0
  138.7550   69.0160  223.1751 H   0  0  0  0  0  0  0  0  0  0  0  0
  139.4455   67.8075  225.2194 H   0  0  0  0  0  0  0  0  0  0  0  0
  140.3782   67.8514  227.3831 H   0  0  0  0  0  0  0  0  0  0  0  0
  141.3809   69.1577  229.2692 H   0  0  0  0  0  0  0  0  0  0  0  0
  141.6569   71.6084  229.0575 H   0  0  0  0  0  0  0  0  0  0  0  0
  140.9595   72.7915  227.0116 H   0  0  0  0  0  0  0  0  0  0  0  0
  141.5811   73.1795  221.4649 H   0  0  0  0  0  0  0  0  0  0  0  0
  143.8425   72.4731  220.7417 H   0  0  0  0  0  0  0  0  0  0  0  0
  145.3598   74.0665  219.5853 H   0  0  0  0  0  0  0  0  0  0  0  0
  144.5693   76.3913  219.1626 H   0  0  0  0  0  0  0  0  0  0  0  0
  142.3265   77.0942  219.8780 H   0  0  0  0  0  0  0  0  0  0  0  0
  1  2  1  0
  2  3  1  0
  3  4  1  0
  4  5  1  0
  5  6  1  0
  6  7  1  0
  7  8  1  0
  8  9  2  0
  8 10  1  0
 10 11  1  0
 11 12  1  0
 12 13  2  0
 12 14  1  0
 14 15  2  0
 15 16  1  0
 16 17  2  0
 17 18  1  0
 18 19  2  0
 19 20  1  0
 20 21  2  0
 21 22  1  0
 22 23  2  0
  6 24  1  0
 24 25  2  0
 25 26  1  0
 26 27  2  0
 27 28  1  0
 28 29  2  0
 23 14  1  0
 29 24  1  0
 22 17  1  0
  1 30  1  0
  1 31  1  0
  1 32  1  0
  3 33  1  0
  3 34  1  0
  4 35  1  0
  4 36  1  0
  5 37  1  0
  5 38  1  0
  6 39  1  6
  7 40  1  0
 10 41  1  0
 10 42  1  0
 11 43  1  0
 15 44  1  0
 16 45  1  0
 18 46  1  0
 19 47  1  0
 20 48  1  0
 21 49  1  0
 25 50  1  0
 26 51  1  0
 27 52  1  0
 28 53  1  0
 29 54  1  0
M  END
>  <smiles>  (34) 
CSCCC[C@H](NC(=O)CNC(=O)c1ccc2ccccc2n1)c1ccccc1

>  <score_type>  (34) 
oracle

>  <origin>  (34) 
autodockgpu

>  <m_score__min__energy>  (34) 
-8.7400000000000002

>  <m_primary>  (34) 
energy

>  <rmsd>  (34) 
5.655302164322845

>  <m_score__min__rmsd>  (34) 
5.655302164322845

>  <meeko>  (34) 
{"free_energy": -7.68, "intermolecular_energy": -10.36, "internal_energy": -2.21, "cluster_size": 17, "cluster_id": 2, "rank_in_cluster": 17}

>  <energy>  (34) 
-8.01

>  <cluster_rmsd>  (34) 
1.68

>  <cluster>  (34) 
2

$$$$

     RDKit          3D

 54 56  0  0  0  0  0  0  0  0999 V2000
  141.8030   81.4790  222.3320 C   0  0  0  0  0  0  0  0  0  0  0  0
  142.2370   80.3930  223.7110 S   0  0  0  0  0  0  0  0  0  0  0  0
  141.8060   78.6790  223.2950 C   0  0  0  0  0  0  0  0  0  0  0  0
  140.6720   78.7240  222.2980 C   0  0  0  0  0  0  0  0  0  0  0  0
  139.9370   77.4410  222.1370 C   0  0  0  0  0  0  0  0  0  0  0  0
  139.8700   76.8920  220.7480 C   0  0  2  0  0  0  0  0  0  0  0  0
  139.0810   75.6460  220.7030 N   0  0  0  0  0  0  0  0  0  0  0  0
  139.3930   74.5470  221.5470 C   0  0  0  0  0  0  0  0  0  0  0  0
  140.3710   74.6930  222.3290 O   0  0  0  0  0  0  0  0  0  0  0  0
  138.6310   73.2710  221.5400 C   0  0  0  0  0  0  0  0  0  0  0  0
  139.0430   72.5020  222.7020 N   0  0  0  0  0  0  0  0  0  0  0  0
  138.6810   71.1320  222.8480 C   0  0  0  0  0  0  0  0  0  0  0  0
  137.9810   70.5580  221.9530 O   0  0  0  0  0  0  0  0  0  0  0  0
  139.1090   70.3790  224.0230 C   0  0  0  0  0  0  0  0  0  0  0  0
  138.9050   69.0150  224.0750 C   0  0  0  0  0  0  0  0  0  0  0  0
  139.2820   68.2370  225.1490 C   0  0  0  0  0  0  0  0  0  0  0  0
  139.8910   68.8700  226.2150 C   0  0  0  0  0  0  0  0  0  0  0  0
  140.2680   68.0920  227.2880 C   0  0  0  0  0  0  0  0  0  0  0  0
  140.8800   68.7200  228.3590 C   0  0  0  0  0  0  0  0  0  0  0  0
  141.0930   70.0890  228.3240 C   0  0  0  0  0  0  0  0  0  0  0  0
  140.7080   70.8450  227.2430 C   0  0  0  0  0  0  0  0  0  0  0  0
  140.0950   70.2380  226.1630 C   0  0  0  0  0  0  0  0  0  0  0  0
  139.7070   70.9440  225.0870 N   0  0  0  0  0  0  0  0  0  0  0  0
  141.2000   76.6860  220.1360 C   0  0  0  0  0  0  0  0  0  0  0  0
  141.6000   77.5780  219.1420 C   0  0  0  0  0  0  0  0  0  0  0  0
  142.8400   77.4370  218.5320 C   0  0  0  0  0  0  0  0  0  0  0  0
  143.6990   76.4180  218.8910 C   0  0  0  0  0  0  0  0  0  0  0  0
  143.2960   75.5370  219.8760 C   0  0  0  0  0  0  0  0  0  0  0  0
  142.0680   75.6760  220.4830 C   0  0  0  0  0  0  0  0  0  0  0  0
  141.4215   82.4337  222.7232 H   0  0  0  0  0  0  0  0  0  0  0  0
  142.6958   81.6653  221.7170 H   0  0  0  0  0  0  0  0  0  0  0  0
  141.0277   80.9987  221.7170 H   0  0  0  0  0  0  0  0  0  0  0  0
  142.6750   78.1703  222.8523 H   0  0  0  0  0  0  0  0  0  0  0  0
  141.5064   78.1255  224.1971 H   0  0  0  0  0  0  0  0  0  0  0  0
  139.9555   79.4907  222.6279 H   0  0  0  0  0  0  0  0  0  0  0  0
  141.1250   78.9482  221.3210 H   0  0  0  0  0  0  0  0  0  0  0  0
  140.4290   76.6897  222.7721 H   0  0  0  0  0  0  0  0  0  0  0  0
  138.8964   77.6588  222.4195 H   0  0  0  0  0  0  0  0  0  0  0  0
  139.3607   77.6586  220.1455 H   0  0  0  0  0  0  0  0  0  0  0  0
  138.2770   75.5640  220.0400 H   0  0  0  0  0  0  0  0  0  0  0  0
  137.5521   73.4790  221.5921 H   0  0  0  0  0  0  0  0  0  0  0  0
  138.8312   72.7087  220.6160 H   0  0  0  0  0  0  0  0  0  0  0  0
  139.6200   72.9090  223.4800 H   0  0  0  0  0  0  0  0  0  0  0  0
  138.4184   68.5252  223.2187 H   0  0  0  0  0  0  0  0  0  0  0  0
  139.1042   67.1515  225.1567 H   0  0  0  0  0  0  0  0  0  0  0  0
  140.0884   67.0068  227.2933 H   0  0  0  0  0  0  0  0  0  0  0  0
  141.1962   68.1345  229.2349 H   0  0  0  0  0  0  0  0  0  0  0  0
  141.5802   70.5805  229.1790 H   0  0  0  0  0  0  0  0  0  0  0  0
  140.8871   71.9303  227.2372 H   0  0  0  0  0  0  0  0  0  0  0  0
  140.9308   78.3970  218.8395 H   0  0  0  0  0  0  0  0  0  0  0  0
  143.1423   78.1491  217.7500 H   0  0  0  0  0  0  0  0  0  0  0  0
  144.6799   76.3100  218.4050 H   0  0  0  0  0  0  0  0  0  0  0  0
  143.9630   74.7162  220.1784 H   0  0  0  0  0  0  0  0  0  0  0  0
  141.7731   74.9613  221.2655 H   0  0  0  0  0  0  0  0  0  0  0  0
  1  2  1  0
  2  3  1  0
  3  4  1  0
  4  5  1  0
  5  6  1  0
  6  7  1  0
  7  8  1  0
  8  9  2  0
  8 10  1  0
 10 11  1  0
 11 12  1  0
 12 13  2  0
 12 14  1  0
 14 15  2  0
 15 16  1  0
 16 17  2  0
 17 18  1  0
 18 19  2  0
 19 20  1  0
 20 21  2  0
 21 22  1  0
 22 23  2  0
  6 24  1  0
 24 25  2  0
 25 26  1  0
 26 27  2  0
 27 28  1  0
 28 29  2  0
 23 14  1  0
 29 24  1  0
 22 17  1  0
  1 30  1  0
  1 31  1  0
  1 32  1  0
  3 33  1  0
  3 34  1  0
  4 35  1  0
  4 36  1  0
  5 37  1  0
  5 38  1  0
  6 39  1  6
  7 40  1  0
 10 41  1  0
 10 42  1  0
 11 43  1  0
 15 44  1  0
 16 45  1  0
 18 46  1  0
 19 47  1  0
 20 48  1  0
 21 49  1  0
 25 50  1  0
 26 51  1  0
 27 52  1  0
 28 53  1  0
 29 54  1  0
M  END
>  <smiles>  (35) 
CSCCC[C@H](NC(=O)CNC(=O)c1ccc2ccccc2n1)c1ccccc1

>  <score_type>  (35) 
oracle

>  <origin>  (35) 
autodockgpu

>  <m_score__min__energy>  (35) 
-8.7400000000000002

>  <m_primary>  (35) 
energy

>  <rmsd>  (35) 
5.201568496056279

>  <m_score__min__rmsd>  (35) 
5.201568496056279

>  <meeko>  (35) 
{"free_energy": -8.1, "intermolecular_energy": -10.78, "internal_energy": -1.93, "cluster_size": 17, "cluster_id": 2, "rank_in_cluster": 12}

>  <energy>  (35) 
-7.81

>  <cluster_rmsd>  (35) 
1.88

>  <cluster>  (35) 
2

$$$$

     RDKit          3D

 54 56  0  0  0  0  0  0  0  0999 V2000
  146.4950   73.3930  221.9900 C   0  0  0  0  0  0  0  0  0  0  0  0
  145.6870   73.0130  220.4190 S   0  0  0  0  0  0  0  0  0  0  0  0
  143.9220   73.4250  220.5270 C   0  0  0  0  0  0  0  0  0  0  0  0
  143.6880   74.6530  219.6800 C   0  0  0  0  0  0  0  0  0  0  0  0
  142.3360   75.2570  219.8220 C   0  0  0  0  0  0  0  0  0  0  0  0
  141.8120   75.3720  221.2170 C   0  0  2  0  0  0  0  0  0  0  0  0
  140.7310   74.3990  221.4640 N   0  0  0  0  0  0  0  0  0  0  0  0
  139.4910   74.4860  220.7760 C   0  0  0  0  0  0  0  0  0  0  0  0
  139.3660   75.4310  219.9510 O   0  0  0  0  0  0  0  0  0  0  0  0
  138.3710   73.5320  220.9880 C   0  0  0  0  0  0  0  0  0  0  0  0
  138.5980   72.8580  222.2550 N   0  0  0  0  0  0  0  0  0  0  0  0
  139.6410   71.8980  222.4050 C   0  0  0  0  0  0  0  0  0  0  0  0
  140.3940   71.6140  221.4190 O   0  0  0  0  0  0  0  0  0  0  0  0
  139.8520   71.2350  223.6880 C   0  0  0  0  0  0  0  0  0  0  0  0
  139.5060   69.9080  223.8390 C   0  0  0  0  0  0  0  0  0  0  0  0
  139.6740   69.2150  225.0190 C   0  0  0  0  0  0  0  0  0  0  0  0
  140.2170   69.8970  226.0890 C   0  0  0  0  0  0  0  0  0  0  0  0
  140.3860   69.2030  227.2680 C   0  0  0  0  0  0  0  0  0  0  0  0
  140.9310   69.8820  228.3450 C   0  0  0  0  0  0  0  0  0  0  0  0
  141.2850   71.2150  228.2120 C   0  0  0  0  0  0  0  0  0  0  0  0
  141.1060   71.8860  227.0270 C   0  0  0  0  0  0  0  0  0  0  0  0
  140.5640   71.2280  225.9390 C   0  0  0  0  0  0  0  0  0  0  0  0
  140.3760   71.8510  224.7620 N   0  0  0  0  0  0  0  0  0  0  0  0
  141.3680   76.7390  221.5630 C   0  0  0  0  0  0  0  0  0  0  0  0
  141.8090   77.7870  220.7560 C   0  0  0  0  0  0  0  0  0  0  0  0
  141.4240   79.0930  221.0300 C   0  0  0  0  0  0  0  0  0  0  0  0
  140.6010   79.3840  222.1010 C   0  0  0  0  0  0  0  0  0  0  0  0
  140.1680   78.3400  222.8970 C   0  0  0  0  0  0  0  0  0  0  0  0
  140.5490   77.0450  222.6260 C   0  0  0  0  0  0  0  0  0  0  0  0
  145.8430   73.0864  222.8212 H   0  0  0  0  0  0  0  0  0  0  0  0
  147.4491   72.8492  222.0526 H   0  0  0  0  0  0  0  0  0  0  0  0
  146.6847   74.4747  222.0526 H   0  0  0  0  0  0  0  0  0  0  0  0
  143.3174   72.5875  220.1488 H   0  0  0  0  0  0  0  0  0  0  0  0
  143.6324   73.6145  221.5711 H   0  0  0  0  0  0  0  0  0  0  0  0
  144.4334   75.4111  219.9621 H   0  0  0  0  0  0  0  0  0  0  0  0
  143.7755   74.3294  218.6323 H   0  0  0  0  0  0  0  0  0  0  0  0
  142.3728   76.2688  219.3920 H   0  0  0  0  0  0  0  0  0  0  0  0
  141.6495   74.5716  219.3034 H   0  0  0  0  0  0  0  0  0  0  0  0
  142.6598   75.1382  221.8777 H   0  0  0  0  0  0  0  0  0  0  0  0
  140.8730   73.6290  222.1570 H   0  0  0  0  0  0  0  0  0  0  0  0
  137.4159   74.0767  221.0194 H   0  0  0  0  0  0  0  0  0  0  0  0
  138.3261   72.8021  220.1662 H   0  0  0  0  0  0  0  0  0  0  0  0
  138.0170   73.0400  223.1110 H   0  0  0  0  0  0  0  0  0  0  0  0
  139.0756   69.3776  222.9768 H   0  0  0  0  0  0  0  0  0  0  0  0
  139.3857   68.1569  225.1046 H   0  0  0  0  0  0  0  0  0  0  0  0
  140.0975   68.1447  227.3507 H   0  0  0  0  0  0  0  0  0  0  0  0
  141.0825   69.3643  229.3037 H   0  0  0  0  0  0  0  0  0  0  0  0
  141.7179   71.7463  229.0724 H   0  0  0  0  0  0  0  0  0  0  0  0
  141.3933   72.9446  226.9440 H   0  0  0  0  0  0  0  0  0  0  0  0
  142.4651   77.5784  219.8981 H   0  0  0  0  0  0  0  0  0  0  0  0
  141.7801   79.9089  220.3839 H   0  0  0  0  0  0  0  0  0  0  0  0
  140.2981   80.4197  222.3147 H   0  0  0  0  0  0  0  0  0  0  0  0
  139.5123   78.5460  223.7558 H   0  0  0  0  0  0  0  0  0  0  0  0
  140.1894   76.2337  223.2760 H   0  0  0  0  0  0  0  0  0  0  0  0
  1  2  1  0
  2  3  1  0
  3  4  1  0
  4  5  1  0
  5  6  1  0
  6  7  1  0
  7  8  1  0
  8  9  2  0
  8 10  1  0
 10 11  1  0
 11 12  1  0
 12 13  2  0
 12 14  1  0
 14 15  2  0
 15 16  1  0
 16 17  2  0
 17 18  1  0
 18 19  2  0
 19 20  1  0
 20 21  2  0
 21 22  1  0
 22 23  2  0
  6 24  1  0
 24 25  2  0
 25 26  1  0
 26 27  2  0
 27 28  1  0
 28 29  2  0
 23 14  1  0
 29 24  1  0
 22 17  1  0
  1 30  1  0
  1 31  1  0
  1 32  1  0
  3 33  1  0
  3 34  1  0
  4 35  1  0
  4 36  1  0
  5 37  1  0
  5 38  1  0
  6 39  1  1
  7 40  1  0
 10 41  1  0
 10 42  1  0
 11 43  1  0
 15 44  1  0
 16 45  1  0
 18 46  1  0
 19 47  1  0
 20 48  1  0
 21 49  1  0
 25 50  1  0
 26 51  1  0
 27 52  1  0
 28 53  1  0
 29 54  1  0
M  END
>  <smiles>  (36) 
CSCCC[C@H](NC(=O)CNC(=O)c1ccc2ccccc2n1)c1ccccc1

>  <score_type>  (36) 
oracle

>  <origin>  (36) 
autodockgpu

>  <m_score__min__energy>  (36) 
-8.7400000000000002

>  <m_primary>  (36) 
energy

>  <rmsd>  (36) 
4.66116885311522

>  <m_score__min__rmsd>  (36) 
4.66116885311522

>  <meeko>  (36) 
{"free_energy": -7.88, "intermolecular_energy": -10.57, "internal_energy": -2.15, "cluster_size": 20, "cluster_id": 1, "rank_in_cluster": 17}

>  <energy>  (36) 
-7.79

>  <cluster_rmsd>  (36) 
1.21

>  <cluster>  (36) 
2

$$$$

     RDKit          3D

 54 56  0  0  0  0  0  0  0  0999 V2000
  144.4510   73.6330  220.4720 C   0  0  0  0  0  0  0  0  0  0  0  0
  143.4320   74.6240  219.3570 S   0  0  0  0  0  0  0  0  0  0  0  0
  143.6750   76.3880  219.7150 C   0  0  0  0  0  0  0  0  0  0  0  0
  142.7020   77.1650  218.8610 C   0  0  0  0  0  0  0  0  0  0  0  0
  141.3440   77.3170  219.4490 C   0  0  0  0  0  0  0  0  0  0  0  0
  141.1890   76.8700  220.8660 C   0  0  2  0  0  0  0  0  0  0  0  0
  140.0450   75.9490  221.0130 N   0  0  0  0  0  0  0  0  0  0  0  0
  140.2230   74.6300  221.5110 C   0  0  0  0  0  0  0  0  0  0  0  0
  141.3980   74.2920  221.8150 O   0  0  0  0  0  0  0  0  0  0  0  0
  139.1050   73.6640  221.6790 C   0  0  0  0  0  0  0  0  0  0  0  0
  139.4510   72.7720  222.7710 N   0  0  0  0  0  0  0  0  0  0  0  0
  138.7140   71.5760  223.0110 C   0  0  0  0  0  0  0  0  0  0  0  0
  137.7300   71.2720  222.2630 O   0  0  0  0  0  0  0  0  0  0  0  0
  139.0820   70.6930  224.1140 C   0  0  0  0  0  0  0  0  0  0  0  0
  138.7570   69.3540  224.0580 C   0  0  0  0  0  0  0  0  0  0  0  0
  139.0700   68.4590  225.0590 C   0  0  0  0  0  0  0  0  0  0  0  0
  139.7420   68.9440  226.1620 C   0  0  0  0  0  0  0  0  0  0  0  0
  140.0560   68.0500  227.1630 C   0  0  0  0  0  0  0  0  0  0  0  0
  140.7310   68.5300  228.2720 C   0  0  0  0  0  0  0  0  0  0  0  0
  141.0670   69.8730  228.3450 C   0  0  0  0  0  0  0  0  0  0  0  0
  140.7430   70.7470  227.3360 C   0  0  0  0  0  0  0  0  0  0  0  0
  140.0690   70.2880  226.2200 C   0  0  0  0  0  0  0  0  0  0  0  0
  139.7370   71.1120  225.2110 N   0  0  0  0  0  0  0  0  0  0  0  0
  141.0790   77.9900  221.8240 C   0  0  0  0  0  0  0  0  0  0  0  0
  139.9010   78.0970  222.5630 C   0  0  0  0  0  0  0  0  0  0  0  0
  139.7400   79.1260  223.4800 C   0  0  0  0  0  0  0  0  0  0  0  0
  140.7340   80.0630  223.6820 C   0  0  0  0  0  0  0  0  0  0  0  0
  141.9000   79.9520  222.9460 C   0  0  0  0  0  0  0  0  0  0  0  0
  142.0600   78.9310  222.0370 C   0  0  0  0  0  0  0  0  0  0  0  0
  144.1989   73.8781  221.5143 H   0  0  0  0  0  0  0  0  0  0  0  0
  144.2611   72.5649  220.2903 H   0  0  0  0  0  0  0  0  0  0  0  0
  145.5134   73.8526  220.2903 H   0  0  0  0  0  0  0  0  0  0  0  0
  143.4802   76.5851  220.7795 H   0  0  0  0  0  0  0  0  0  0  0  0
  144.7096   76.6885  219.4929 H   0  0  0  0  0  0  0  0  0  0  0  0
  143.1181   78.1696  218.6949 H   0  0  0  0  0  0  0  0  0  0  0  0
  142.5760   76.5902  217.9316 H   0  0  0  0  0  0  0  0  0  0  0  0
  141.0740   78.3823  219.4009 H   0  0  0  0  0  0  0  0  0  0  0  0
  140.6900   76.6591  218.8578 H   0  0  0  0  0  0  0  0  0  0  0  0
  142.1155   76.3320  221.1154 H   0  0  0  0  0  0  0  0  0  0  0  0
  139.0840   76.2660  220.7500 H   0  0  0  0  0  0  0  0  0  0  0  0
  138.1763   74.2037  221.9163 H   0  0  0  0  0  0  0  0  0  0  0  0
  138.9467   73.0937  220.7518 H   0  0  0  0  0  0  0  0  0  0  0  0
  140.2490   72.9580  223.4300 H   0  0  0  0  0  0  0  0  0  0  0  0
  138.2221   68.9819  223.1717 H   0  0  0  0  0  0  0  0  0  0  0  0
  138.7940   67.3970  224.9810 H   0  0  0  0  0  0  0  0  0  0  0  0
  139.7789   66.9885  227.0830 H   0  0  0  0  0  0  0  0  0  0  0  0
  140.9998   67.8483  229.0924 H   0  0  0  0  0  0  0  0  0  0  0  0
  141.6042   70.2465  229.2293 H   0  0  0  0  0  0  0  0  0  0  0  0
  141.0191   71.8088  227.4159 H   0  0  0  0  0  0  0  0  0  0  0  0
  139.0955   77.3620  222.4182 H   0  0  0  0  0  0  0  0  0  0  0  0
  138.8052   79.1964  224.0554 H   0  0  0  0  0  0  0  0  0  0  0  0
  140.6019   80.8771  224.4098 H   0  0  0  0  0  0  0  0  0  0  0  0
  142.7065   80.6863  223.0885 H   0  0  0  0  0  0  0  0  0  0  0  0
  142.9975   78.8655  221.4653 H   0  0  0  0  0  0  0  0  0  0  0  0
  1  2  1  0
  2  3  1  0
  3  4  1  0
  4  5  1  0
  5  6  1  0
  6  7  1  0
  7  8  1  0
  8  9  2  0
  8 10  1  0
 10 11  1  0
 11 12  1  0
 12 13  2  0
 12 14  1  0
 14 15  2  0
 15 16  1  0
 16 17  2  0
 17 18  1  0
 18 19  2  0
 19 20  1  0
 20 21  2  0
 21 22  1  0
 22 23  2  0
  6 24  1  0
 24 25  2  0
 25 26  1  0
 26 27  2  0
 27 28  1  0
 28 29  2  0
 23 14  1  0
 29 24  1  0
 22 17  1  0
  1 30  1  0
  1 31  1  0
  1 32  1  0
  3 33  1  0
  3 34  1  0
  4 35  1  0
  4 36  1  0
  5 37  1  0
  5 38  1  0
  6 39  1  1
  7 40  1  0
 10 41  1  0
 10 42  1  0
 11 43  1  0
 15 44  1  0
 16 45  1  0
 18 46  1  0
 19 47  1  0
 20 48  1  0
 21 49  1  0
 25 50  1  0
 26 51  1  0
 27 52  1  0
 28 53  1  0
 29 54  1  0
M  END
>  <smiles>  (37) 
CSCCC[C@H](NC(=O)CNC(=O)c1ccc2ccccc2n1)c1ccccc1

>  <score_type>  (37) 
oracle

>  <origin>  (37) 
autodockgpu

>  <m_score__min__energy>  (37) 
-8.7400000000000002

>  <m_primary>  (37) 
energy

>  <rmsd>  (37) 
4.273339144038241

>  <m_score__min__rmsd>  (37) 
4.273339144038241

>  <meeko>  (37) 
{"free_energy": -7.88, "intermolecular_energy": -10.56, "internal_energy": -2.07, "cluster_size": 20, "cluster_id": 1, "rank_in_cluster": 18}

>  <energy>  (37) 
-7.68

>  <cluster_rmsd>  (37) 
1.52

>  <cluster>  (37) 
2

$$$$

     RDKit          3D

 54 56  0  0  0  0  0  0  0  0999 V2000
  142.2820   79.3880  223.0330 C   0  0  0  0  0  0  0  0  0  0  0  0
  141.3170   78.2620  222.0000 S   0  0  0  0  0  0  0  0  0  0  0  0
  141.2700   78.8890  220.2970 C   0  0  0  0  0  0  0  0  0  0  0  0
  141.7860   77.7930  219.3940 C   0  0  0  0  0  0  0  0  0  0  0  0
  142.5690   76.7350  220.0880 C   0  0  0  0  0  0  0  0  0  0  0  0
  142.5510   75.3830  219.4520 C   0  0  2  0  0  0  0  0  0  0  0  0
  141.2190   74.7560  219.5660 N   0  0  0  0  0  0  0  0  0  0  0  0
  140.6070   74.5550  220.8320 C   0  0  0  0  0  0  0  0  0  0  0  0
  141.2560   74.9360  221.8430 O   0  0  0  0  0  0  0  0  0  0  0  0
  139.2690   73.9290  221.0000 C   0  0  0  0  0  0  0  0  0  0  0  0
  139.2820   73.1860  222.2490 N   0  0  0  0  0  0  0  0  0  0  0  0
  140.0750   72.0130  222.4040 C   0  0  0  0  0  0  0  0  0  0  0  0
  140.7900   71.5940  221.4370 O   0  0  0  0  0  0  0  0  0  0  0  0
  140.0740   71.2840  223.6690 C   0  0  0  0  0  0  0  0  0  0  0  0
  139.5630   70.0040  223.7220 C   0  0  0  0  0  0  0  0  0  0  0  0
  139.5270   69.2540  224.8780 C   0  0  0  0  0  0  0  0  0  0  0  0
  140.0310   69.8280  226.0280 C   0  0  0  0  0  0  0  0  0  0  0  0
  139.9950   69.0790  227.1840 C   0  0  0  0  0  0  0  0  0  0  0  0
  140.5000   69.6490  228.3410 C   0  0  0  0  0  0  0  0  0  0  0  0
  141.0170   70.9340  228.3060 C   0  0  0  0  0  0  0  0  0  0  0  0
  141.0410   71.6630  227.1420 C   0  0  0  0  0  0  0  0  0  0  0  0
  140.5430   71.1130  225.9760 C   0  0  0  0  0  0  0  0  0  0  0  0
  140.5510   71.7950  224.8170 N   0  0  0  0  0  0  0  0  0  0  0  0
  143.5960   74.4770  219.9750 C   0  0  0  0  0  0  0  0  0  0  0  0
  143.3240   73.1090  219.9770 C   0  0  0  0  0  0  0  0  0  0  0  0
  144.2680   72.2080  220.4530 C   0  0  0  0  0  0  0  0  0  0  0  0
  145.4880   72.6400  220.9320 C   0  0  0  0  0  0  0  0  0  0  0  0
  145.7510   73.9980  220.9280 C   0  0  0  0  0  0  0  0  0  0  0  0
  144.8160   74.8920  220.4560 C   0  0  0  0  0  0  0  0  0  0  0  0
  142.0920   79.1663  224.0936 H   0  0  0  0  0  0  0  0  0  0  0  0
  143.3526   79.2570  222.8171 H   0  0  0  0  0  0  0  0  0  0  0  0
  141.9887   80.4260  222.8171 H   0  0  0  0  0  0  0  0  0  0  0  0
  140.2372   79.1479  220.0207 H   0  0  0  0  0  0  0  0  0  0  0  0
  141.8887   79.7934  220.2004 H   0  0  0  0  0  0  0  0  0  0  0  0
  140.9233   77.3165  218.9056 H   0  0  0  0  0  0  0  0  0  0  0  0
  142.4739   78.2735  218.6827 H   0  0  0  0  0  0  0  0  0  0  0  0
  143.6158   77.0693  220.1382 H   0  0  0  0  0  0  0  0  0  0  0  0
  142.0896   76.6072  221.0697 H   0  0  0  0  0  0  0  0  0  0  0  0
  142.7786   75.5476  218.3885 H   0  0  0  0  0  0  0  0  0  0  0  0
  140.7120   74.4530  218.7030 H   0  0  0  0  0  0  0  0  0  0  0  0
  138.4929   74.7077  221.0355 H   0  0  0  0  0  0  0  0  0  0  0  0
  139.0485   73.2592  220.1558 H   0  0  0  0  0  0  0  0  0  0  0  0
  138.7170   73.4710  223.0880 H   0  0  0  0  0  0  0  0  0  0  0  0
  139.1651   69.5604  222.7974 H   0  0  0  0  0  0  0  0  0  0  0  0
  139.1118   68.2354  224.8840 H   0  0  0  0  0  0  0  0  0  0  0  0
  139.5785   68.0609  227.1879 H   0  0  0  0  0  0  0  0  0  0  0  0
  140.4906   69.0834  229.2844 H   0  0  0  0  0  0  0  0  0  0  0  0
  141.4163   71.3795  229.2291 H   0  0  0  0  0  0  0  0  0  0  0  0
  141.4555   72.6819  227.1379 H   0  0  0  0  0  0  0  0  0  0  0  0
  142.3579   72.7421  219.6001 H   0  0  0  0  0  0  0  0  0  0  0  0
  144.0393   71.1321  220.4481 H   0  0  0  0  0  0  0  0  0  0  0  0
  146.2325   71.9225  221.3075 H   0  0  0  0  0  0  0  0  0  0  0  0
  146.7160   74.3672  221.3054 H   0  0  0  0  0  0  0  0  0  0  0  0
  145.0510   75.9666  220.4638 H   0  0  0  0  0  0  0  0  0  0  0  0
  1  2  1  0
  2  3  1  0
  3  4  1  0
  4  5  1  0
  5  6  1  0
  6  7  1  0
  7  8  1  0
  8  9  2  0
  8 10  1  0
 10 11  1  0
 11 12  1  0
 12 13  2  0
 12 14  1  0
 14 15  2  0
 15 16  1  0
 16 17  2  0
 17 18  1  0
 18 19  2  0
 19 20  1  0
 20 21  2  0
 21 22  1  0
 22 23  2  0
  6 24  1  0
 24 25  2  0
 25 26  1  0
 26 27  2  0
 27 28  1  0
 28 29  2  0
 23 14  1  0
 29 24  1  0
 22 17  1  0
  1 30  1  0
  1 31  1  0
  1 32  1  0
  3 33  1  0
  3 34  1  0
  4 35  1  0
  4 36  1  0
  5 37  1  0
  5 38  1  0
  6 39  1  6
  7 40  1  0
 10 41  1  0
 10 42  1  0
 11 43  1  0
 15 44  1  0
 16 45  1  0
 18 46  1  0
 19 47  1  0
 20 48  1  0
 21 49  1  0
 25 50  1  0
 26 51  1  0
 27 52  1  0
 28 53  1  0
 29 54  1  0
M  END
>  <smiles>  (38) 
CSCCC[C@H](NC(=O)CNC(=O)c1ccc2ccccc2n1)c1ccccc1

>  <score_type>  (38) 
oracle

>  <origin>  (38) 
autodockgpu

>  <m_score__min__energy>  (38) 
-8.7400000000000002

>  <m_primary>  (38) 
energy

>  <rmsd>  (38) 
6.239206675806897

>  <m_score__min__rmsd>  (38) 
6.239206675806897

>  <meeko>  (38) 
{"free_energy": -8.58, "intermolecular_energy": -11.26, "internal_energy": -1.82, "cluster_size": 17, "cluster_id": 2, "rank_in_cluster": 1}

>  <energy>  (38) 
-8.3

>  <cluster_rmsd>  (38) 
0.0

>  <cluster>  (38) 
3

$$$$

     RDKit          3D

 54 56  0  0  0  0  0  0  0  0999 V2000
  142.5440   80.1430  222.4380 C   0  0  0  0  0  0  0  0  0  0  0  0
  141.7680   79.1190  223.7090 S   0  0  0  0  0  0  0  0  0  0  0  0
  139.9610   79.2350  223.5640 C   0  0  0  0  0  0  0  0  0  0  0  0
  139.5050   78.1170  222.6570 C   0  0  0  0  0  0  0  0  0  0  0  0
  140.3860   76.9180  222.6580 C   0  0  0  0  0  0  0  0  0  0  0  0
  140.1980   75.9650  221.5230 C   0  0  2  0  0  0  0  0  0  0  0  0
  139.3610   74.8160  221.9210 N   0  0  0  0  0  0  0  0  0  0  0  0
  138.6200   74.0780  220.9600 C   0  0  0  0  0  0  0  0  0  0  0  0
  138.7150   74.4540  219.7600 O   0  0  0  0  0  0  0  0  0  0  0  0
  137.7630   72.9140  221.3090 C   0  0  0  0  0  0  0  0  0  0  0  0
  138.1890   72.4240  222.6070 N   0  0  0  0  0  0  0  0  0  0  0  0
  139.3520   71.6120  222.7460 C   0  0  0  0  0  0  0  0  0  0  0  0
  140.0390   71.3010  221.7200 O   0  0  0  0  0  0  0  0  0  0  0  0
  139.7630   71.1320  224.0620 C   0  0  0  0  0  0  0  0  0  0  0  0
  140.6200   71.8920  224.8320 C   0  0  0  0  0  0  0  0  0  0  0  0
  141.0520   71.5060  226.0830 C   0  0  0  0  0  0  0  0  0  0  0  0
  140.5940   70.2990  226.5730 C   0  0  0  0  0  0  0  0  0  0  0  0
  141.0260   69.9140  227.8240 C   0  0  0  0  0  0  0  0  0  0  0  0
  140.5700   68.7050  228.3210 C   0  0  0  0  0  0  0  0  0  0  0  0
  139.7080   67.9280  227.5620 C   0  0  0  0  0  0  0  0  0  0  0  0
  139.2920   68.3330  226.3170 C   0  0  0  0  0  0  0  0  0  0  0  0
  139.7350   69.5360  225.8010 C   0  0  0  0  0  0  0  0  0  0  0  0
  139.3480   69.9660  224.5870 N   0  0  0  0  0  0  0  0  0  0  0  0
  141.4700   75.4980  220.9330 C   0  0  0  0  0  0  0  0  0  0  0  0
  142.1760   76.3910  220.1260 C   0  0  0  0  0  0  0  0  0  0  0  0
  143.3790   76.0110  219.5470 C   0  0  0  0  0  0  0  0  0  0  0  0
  143.9030   74.7500  219.7530 C   0  0  0  0  0  0  0  0  0  0  0  0
  143.1990   73.8700  220.5530 C   0  0  0  0  0  0  0  0  0  0  0  0
  142.0060   74.2450  221.1280 C   0  0  0  0  0  0  0  0  0  0  0  0
  143.1420   80.9320  222.9174 H   0  0  0  0  0  0  0  0  0  0  0  0
  143.1970   79.5176  221.8115 H   0  0  0  0  0  0  0  0  0  0  0  0
  141.7654   80.6026  221.8115 H   0  0  0  0  0  0  0  0  0  0  0  0
  139.4971   79.1270  224.5555 H   0  0  0  0  0  0  0  0  0  0  0  0
  139.6676   80.2118  223.1520 H   0  0  0  0  0  0  0  0  0  0  0  0
  138.5001   77.8043  222.9770 H   0  0  0  0  0  0  0  0  0  0  0  0
  139.5273   78.5185  221.6331 H   0  0  0  0  0  0  0  0  0  0  0  0
  141.4289   77.2669  222.6350 H   0  0  0  0  0  0  0  0  0  0  0  0
  140.1190   76.3551  223.5646 H   0  0  0  0  0  0  0  0  0  0  0  0
  139.6759   76.5329  220.7388 H   0  0  0  0  0  0  0  0  0  0  0  0
  139.3080   74.5360  222.9270 H   0  0  0  0  0  0  0  0  0  0  0  0
  136.7089   73.2253  221.3539 H   0  0  0  0  0  0  0  0  0  0  0  0
  137.8589   72.1243  220.5493 H   0  0  0  0  0  0  0  0  0  0  0  0
  137.6730   72.6390  223.4970 H   0  0  0  0  0  0  0  0  0  0  0  0
  140.9753   72.8515  224.4282 H   0  0  0  0  0  0  0  0  0  0  0  0
  141.7366   72.1365  226.6694 H   0  0  0  0  0  0  0  0  0  0  0  0
  141.7105   70.5465  228.4082 H   0  0  0  0  0  0  0  0  0  0  0  0
  140.8907   68.3616  229.3156 H   0  0  0  0  0  0  0  0  0  0  0  0
  139.3504   66.9688  227.9646 H   0  0  0  0  0  0  0  0  0  0  0  0
  138.6077   67.7010  225.7320 H   0  0  0  0  0  0  0  0  0  0  0  0
  141.7774   77.4007  219.9479 H   0  0  0  0  0  0  0  0  0  0  0  0
  143.9240   76.7263  218.9135 H   0  0  0  0  0  0  0  0  0  0  0  0
  144.8567   74.4535  219.2920 H   0  0  0  0  0  0  0  0  0  0  0  0
  143.5960   72.8599  220.7320 H   0  0  0  0  0  0  0  0  0  0  0  0
  141.4665   73.5244  221.7602 H   0  0  0  0  0  0  0  0  0  0  0  0
  1  2  1  0
  2  3  1  0
  3  4  1  0
  4  5  1  0
  5  6  1  0
  6  7  1  0
  7  8  1  0
  8  9  2  0
  8 10  1  0
 10 11  1  0
 11 12  1  0
 12 13  2  0
 12 14  1  0
 14 15  2  0
 15 16  1  0
 16 17  2  0
 17 18  1  0
 18 19  2  0
 19 20  1  0
 20 21  2  0
 21 22  1  0
 22 23  2  0
  6 24  1  0
 24 25  2  0
 25 26  1  0
 26 27  2  0
 27 28  1  0
 28 29  2  0
 23 14  1  0
 29 24  1  0
 22 17  1  0
  1 30  1  0
  1 31  1  0
  1 32  1  0
  3 33  1  0
  3 34  1  0
  4 35  1  0
  4 36  1  0
  5 37  1  0
  5 38  1  0
  6 39  1  6
  7 40  1  0
 10 41  1  0
 10 42  1  0
 11 43  1  0
 15 44  1  0
 16 45  1  0
 18 46  1  0
 19 47  1  0
 20 48  1  0
 21 49  1  0
 25 50  1  0
 26 51  1  0
 27 52  1  0
 28 53  1  0
 29 54  1  0
M  END
>  <smiles>  (39) 
CSCCC[C@H](NC(=O)CNC(=O)c1ccc2ccccc2n1)c1ccccc1

>  <score_type>  (39) 
oracle

>  <origin>  (39) 
autodockgpu

>  <m_score__min__energy>  (39) 
-8.7400000000000002

>  <m_primary>  (39) 
energy

>  <rmsd>  (39) 
5.350796955436289

>  <m_score__min__rmsd>  (39) 
5.350796955436289

>  <meeko>  (39) 
{"free_energy": -8.24, "intermolecular_energy": -10.92, "internal_energy": -1.86, "cluster_size": 17, "cluster_id": 2, "rank_in_cluster": 8}

>  <energy>  (39) 
-7.98

>  <cluster_rmsd>  (39) 
1.86

>  <cluster>  (39) 
3

$$$$

     RDKit          3D

 54 56  0  0  0  0  0  0  0  0999 V2000
  144.1130   70.9810  220.0640 C   0  0  0  0  0  0  0  0  0  0  0  0
  145.5350   71.9200  219.4640 S   0  0  0  0  0  0  0  0  0  0  0  0
  146.1120   73.0470  220.7660 C   0  0  0  0  0  0  0  0  0  0  0  0
  145.1580   74.2170  220.8120 C   0  0  0  0  0  0  0  0  0  0  0  0
  143.9200   74.0400  220.0060 C   0  0  0  0  0  0  0  0  0  0  0  0
  142.8030   74.9870  220.3030 C   0  0  2  0  0  0  0  0  0  0  0  0
  141.5060   74.2860  220.3510 N   0  0  0  0  0  0  0  0  0  0  0  0
  140.4070   74.8210  221.0760 C   0  0  0  0  0  0  0  0  0  0  0  0
  140.6000   75.9150  221.6720 O   0  0  0  0  0  0  0  0  0  0  0  0
  139.0810   74.1550  221.1560 C   0  0  0  0  0  0  0  0  0  0  0  0
  139.0800   73.3110  222.3380 N   0  0  0  0  0  0  0  0  0  0  0  0
  140.0730   72.3070  222.5320 C   0  0  0  0  0  0  0  0  0  0  0  0
  140.9840   72.1350  221.6590 O   0  0  0  0  0  0  0  0  0  0  0  0
  140.0530   71.4720  223.7290 C   0  0  0  0  0  0  0  0  0  0  0  0
  139.5100   70.2050  223.6720 C   0  0  0  0  0  0  0  0  0  0  0  0
  139.4550   69.3590  224.7600 C   0  0  0  0  0  0  0  0  0  0  0  0
  139.9730   69.8190  225.9540 C   0  0  0  0  0  0  0  0  0  0  0  0
  139.9180   68.9730  227.0410 C   0  0  0  0  0  0  0  0  0  0  0  0
  140.4370   69.4280  228.2410 C   0  0  0  0  0  0  0  0  0  0  0  0
  140.9860   70.6980  228.3170 C   0  0  0  0  0  0  0  0  0  0  0  0
  141.0290   71.5240  227.2200 C   0  0  0  0  0  0  0  0  0  0  0  0
  140.5170   71.0900  226.0120 C   0  0  0  0  0  0  0  0  0  0  0  0
  140.5430   71.8690  224.9160 N   0  0  0  0  0  0  0  0  0  0  0  0
  142.7400   76.1290  219.3670 C   0  0  0  0  0  0  0  0  0  0  0  0
  142.2400   77.3370  219.8520 C   0  0  0  0  0  0  0  0  0  0  0  0
  142.1590   78.4470  219.0220 C   0  0  0  0  0  0  0  0  0  0  0  0
  142.5680   78.3820  217.7040 C   0  0  0  0  0  0  0  0  0  0  0  0
  143.0620   77.1820  217.2290 C   0  0  0  0  0  0  0  0  0  0  0  0
  143.1430   76.0820  218.0520 C   0  0  0  0  0  0  0  0  0  0  0  0
  144.1118   70.9802  221.1640 H   0  0  0  0  0  0  0  0  0  0  0  0
  143.1858   71.4450  219.6967 H   0  0  0  0  0  0  0  0  0  0  0  0
  144.1756   69.9460  219.6967 H   0  0  0  0  0  0  0  0  0  0  0  0
  146.1168   72.5284  221.7361 H   0  0  0  0  0  0  0  0  0  0  0  0
  147.1353   73.3906  220.5544 H   0  0  0  0  0  0  0  0  0  0  0  0
  144.8648   74.3794  221.8597 H   0  0  0  0  0  0  0  0  0  0  0  0
  145.6938   75.0729  220.3757 H   0  0  0  0  0  0  0  0  0  0  0  0
  144.1889   74.1588  218.9460 H   0  0  0  0  0  0  0  0  0  0  0  0
  143.5383   73.0413  220.2649 H   0  0  0  0  0  0  0  0  0  0  0  0
  143.0198   75.4051  221.2971 H   0  0  0  0  0  0  0  0  0  0  0  0
  141.3850   73.3790  219.8440 H   0  0  0  0  0  0  0  0  0  0  0  0
  138.2863   74.9114  221.2354 H   0  0  0  0  0  0  0  0  0  0  0  0
  138.8975   73.5534  220.2535 H   0  0  0  0  0  0  0  0  0  0  0  0
  138.3590   73.3940  223.0990 H   0  0  0  0  0  0  0  0  0  0  0  0
  139.1015   69.8528  222.7133 H   0  0  0  0  0  0  0  0  0  0  0  0
  139.0144   68.3543  224.6792 H   0  0  0  0  0  0  0  0  0  0  0  0
  139.4761   67.9691  226.9576 H   0  0  0  0  0  0  0  0  0  0  0  0
  140.4136   68.7831  229.1318 H   0  0  0  0  0  0  0  0  0  0  0  0
  141.3955   71.0519  229.2747 H   0  0  0  0  0  0  0  0  0  0  0  0
  141.4699   72.5283  227.3030 H   0  0  0  0  0  0  0  0  0  0  0  0
  141.9079   77.4109  220.8981 H   0  0  0  0  0  0  0  0  0  0  0  0
  141.7630   79.3929  219.4200 H   0  0  0  0  0  0  0  0  0  0  0  0
  142.5021   79.2633  217.0491 H   0  0  0  0  0  0  0  0  0  0  0  0
  143.3937   77.1053  216.1830 H   0  0  0  0  0  0  0  0  0  0  0  0
  143.5407   75.1395  217.6477 H   0  0  0  0  0  0  0  0  0  0  0  0
  1  2  1  0
  2  3  1  0
  3  4  1  0
  4  5  1  0
  5  6  1  0
  6  7  1  0
  7  8  1  0
  8  9  2  0
  8 10  1  0
 10 11  1  0
 11 12  1  0
 12 13  2  0
 12 14  1  0
 14 15  2  0
 15 16  1  0
 16 17  2  0
 17 18  1  0
 18 19  2  0
 19 20  1  0
 20 21  2  0
 21 22  1  0
 22 23  2  0
  6 24  1  0
 24 25  2  0
 25 26  1  0
 26 27  2  0
 27 28  1  0
 28 29  2  0
 23 14  1  0
 29 24  1  0
 22 17  1  0
  1 30  1  0
  1 31  1  0
  1 32  1  0
  3 33  1  0
  3 34  1  0
  4 35  1  0
  4 36  1  0
  5 37  1  0
  5 38  1  0
  6 39  1  1
  7 40  1  0
 10 41  1  0
 10 42  1  0
 11 43  1  0
 15 44  1  0
 16 45  1  0
 18 46  1  0
 19 47  1  0
 20 48  1  0
 21 49  1  0
 25 50  1  0
 26 51  1  0
 27 52  1  0
 28 53  1  0
 29 54  1  0
M  END
>  <smiles>  (40) 
CSCCC[C@H](NC(=O)CNC(=O)c1ccc2ccccc2n1)c1ccccc1

>  <score_type>  (40) 
oracle

>  <origin>  (40) 
autodockgpu

>  <m_score__min__energy>  (40) 
-8.7400000000000002

>  <m_primary>  (40) 
energy

>  <rmsd>  (40) 
5.079084916539081

>  <m_score__min__rmsd>  (40) 
5.079084916539081

>  <meeko>  (40) 
{"free_energy": -8.03, "intermolecular_energy": -10.72, "internal_energy": -1.91, "cluster_size": 2, "cluster_id": 4, "rank_in_cluster": 1}

>  <energy>  (40) 
-7.79

>  <cluster_rmsd>  (40) 
1.65

>  <cluster>  (40) 
3

$$$$

     RDKit          3D

 54 56  0  0  0  0  0  0  0  0999 V2000
  143.7770   73.2570  220.3460 C   0  0  0  0  0  0  0  0  0  0  0  0
  144.0720   75.0170  220.0640 S   0  0  0  0  0  0  0  0  0  0  0  0
  143.2360   75.5370  218.5380 C   0  0  0  0  0  0  0  0  0  0  0  0
  142.9940   77.0250  218.6360 C   0  0  0  0  0  0  0  0  0  0  0  0
  141.6960   77.4040  219.2560 C   0  0  0  0  0  0  0  0  0  0  0  0
  141.4840   76.9530  220.6640 C   0  0  2  0  0  0  0  0  0  0  0  0
  140.2710   76.1200  220.7830 N   0  0  0  0  0  0  0  0  0  0  0  0
  140.2970   74.8780  221.4710 C   0  0  0  0  0  0  0  0  0  0  0  0
  141.4010   74.5280  221.9690 O   0  0  0  0  0  0  0  0  0  0  0  0
  139.1050   74.0020  221.6190 C   0  0  0  0  0  0  0  0  0  0  0  0
  139.3690   73.0730  222.7030 N   0  0  0  0  0  0  0  0  0  0  0  0
  138.8210   71.7570  222.7010 C   0  0  0  0  0  0  0  0  0  0  0  0
  138.0810   71.3770  221.7380 O   0  0  0  0  0  0  0  0  0  0  0  0
  139.1020   70.8400  223.8010 C   0  0  0  0  0  0  0  0  0  0  0  0
  138.6690   69.5330  223.7310 C   0  0  0  0  0  0  0  0  0  0  0  0
  138.8960   68.6080  224.7280 C   0  0  0  0  0  0  0  0  0  0  0  0
  139.5930   69.0300  225.8430 C   0  0  0  0  0  0  0  0  0  0  0  0
  139.8210   68.1060  226.8400 C   0  0  0  0  0  0  0  0  0  0  0  0
  140.5210   68.5220  227.9600 C   0  0  0  0  0  0  0  0  0  0  0  0
  140.9640   69.8320  228.0480 C   0  0  0  0  0  0  0  0  0  0  0  0
  140.7240   70.7360  227.0420 C   0  0  0  0  0  0  0  0  0  0  0  0
  140.0280   70.3420  225.9140 C   0  0  0  0  0  0  0  0  0  0  0  0
  139.7760   71.1970  224.9080 N   0  0  0  0  0  0  0  0  0  0  0  0
  141.4450   78.0660  221.6360 C   0  0  0  0  0  0  0  0  0  0  0  0
  141.7880   79.3380  221.1770 C   0  0  0  0  0  0  0  0  0  0  0  0
  141.7680   80.4240  222.0420 C   0  0  0  0  0  0  0  0  0  0  0  0
  141.4110   80.2730  223.3670 C   0  0  0  0  0  0  0  0  0  0  0  0
  141.0730   79.0100  223.8160 C   0  0  0  0  0  0  0  0  0  0  0  0
  141.0920   77.9330  222.9590 C   0  0  0  0  0  0  0  0  0  0  0  0
  143.7439   73.0595  221.4276 H   0  0  0  0  0  0  0  0  0  0  0  0
  142.8180   72.9685  219.8910 H   0  0  0  0  0  0  0  0  0  0  0  0
  144.5895   72.6715  219.8910 H   0  0  0  0  0  0  0  0  0  0  0  0
  143.8718   75.3166  217.6678 H   0  0  0  0  0  0  0  0  0  0  0  0
  142.2853   74.9976  218.4145 H   0  0  0  0  0  0  0  0  0  0  0  0
  143.8027   77.4648  219.2381 H   0  0  0  0  0  0  0  0  0  0  0  0
  142.9678   77.4042  217.6038 H   0  0  0  0  0  0  0  0  0  0  0  0
  141.6237   78.5015  219.2401 H   0  0  0  0  0  0  0  0  0  0  0  0
  140.9243   76.8921  218.6623 H   0  0  0  0  0  0  0  0  0  0  0  0
  142.3628   76.3423  220.9186 H   0  0  0  0  0  0  0  0  0  0  0  0
  139.3740   76.4440  220.3550 H   0  0  0  0  0  0  0  0  0  0  0  0
  138.2200   74.6111  221.8553 H   0  0  0  0  0  0  0  0  0  0  0  0
  138.9107   73.4562  220.6839 H   0  0  0  0  0  0  0  0  0  0  0  0
  139.9690   73.3170  223.5310 H   0  0  0  0  0  0  0  0  0  0  0  0
  138.1154   69.2125  222.8361 H   0  0  0  0  0  0  0  0  0  0  0  0
  138.5354   67.5726  224.6386 H   0  0  0  0  0  0  0  0  0  0  0  0
  139.4586   67.0714  226.7489 H   0  0  0  0  0  0  0  0  0  0  0  0
  140.7248   67.8147  228.7774 H   0  0  0  0  0  0  0  0  0  0  0  0
  141.5190   70.1545  228.9413 H   0  0  0  0  0  0  0  0  0  0  0  0
  141.0847   71.7711  227.1335 H   0  0  0  0  0  0  0  0  0  0  0  0
  142.0756   79.4813  220.1250 H   0  0  0  0  0  0  0  0  0  0  0  0
  142.0411   81.4208  221.6654 H   0  0  0  0  0  0  0  0  0  0  0  0
  141.3959   81.1363  224.0486 H   0  0  0  0  0  0  0  0  0  0  0  0
  140.7862   78.8643  224.8679 H   0  0  0  0  0  0  0  0  0  0  0  0
  140.8175   76.9392  223.3423 H   0  0  0  0  0  0  0  0  0  0  0  0
  1  2  1  0
  2  3  1  0
  3  4  1  0
  4  5  1  0
  5  6  1  0
  6  7  1  0
  7  8  1  0
  8  9  2  0
  8 10  1  0
 10 11  1  0
 11 12  1  0
 12 13  2  0
 12 14  1  0
 14 15  2  0
 15 16  1  0
 16 17  2  0
 17 18  1  0
 18 19  2  0
 19 20  1  0
 20 21  2  0
 21 22  1  0
 22 23  2  0
  6 24  1  0
 24 25  2  0
 25 26  1  0
 26 27  2  0
 27 28  1  0
 28 29  2  0
 23 14  1  0
 29 24  1  0
 22 17  1  0
  1 30  1  0
  1 31  1  0
  1 32  1  0
  3 33  1  0
  3 34  1  0
  4 35  1  0
  4 36  1  0
  5 37  1  0
  5 38  1  0
  6 39  1  1
  7 40  1  0
 10 41  1  0
 10 42  1  0
 11 43  1  0
 15 44  1  0
 16 45  1  0
 18 46  1  0
 19 47  1  0
 20 48  1  0
 21 49  1  0
 25 50  1  0
 26 51  1  0
 27 52  1  0
 28 53  1  0
 29 54  1  0
M  END
>  <smiles>  (41) 
CSCCC[C@H](NC(=O)CNC(=O)c1ccc2ccccc2n1)c1ccccc1

>  <score_type>  (41) 
oracle

>  <origin>  (41) 
autodockgpu

>  <m_score__min__energy>  (41) 
-8.7400000000000002

>  <m_primary>  (41) 
energy

>  <rmsd>  (41) 
4.37486055865783

>  <m_score__min__rmsd>  (41) 
4.37486055865783

>  <meeko>  (41) 
{"free_energy": -7.96, "intermolecular_energy": -10.64, "internal_energy": -2.1, "cluster_size": 20, "cluster_id": 1, "rank_in_cluster": 15}

>  <energy>  (41) 
-8.03

>  <cluster_rmsd>  (41) 
0.0

>  <cluster>  (41) 
4

$$$$

     RDKit          3D

 54 56  0  0  0  0  0  0  0  0999 V2000
  143.5250   73.0610  220.5460 C   0  0  0  0  0  0  0  0  0  0  0  0
  144.1560   74.4240  219.5420 S   0  0  0  0  0  0  0  0  0  0  0  0
  142.7670   75.3910  218.8860 C   0  0  0  0  0  0  0  0  0  0  0  0
  143.0610   76.8480  219.1470 C   0  0  0  0  0  0  0  0  0  0  0  0
  141.9320   77.6140  219.7390 C   0  0  0  0  0  0  0  0  0  0  0  0
  141.4050   77.1050  221.0420 C   0  0  2  0  0  0  0  0  0  0  0  0
  140.2420   76.2190  220.8390 N   0  0  0  0  0  0  0  0  0  0  0  0
  140.2350   74.8890  221.3390 C   0  0  0  0  0  0  0  0  0  0  0  0
  141.2650   74.5100  221.9570 O   0  0  0  0  0  0  0  0  0  0  0  0
  139.0890   73.9580  221.1620 C   0  0  0  0  0  0  0  0  0  0  0  0
  139.0390   73.0920  222.3260 N   0  0  0  0  0  0  0  0  0  0  0  0
  140.0000   72.0560  222.5210 C   0  0  0  0  0  0  0  0  0  0  0  0
  140.9240   71.8750  221.6640 O   0  0  0  0  0  0  0  0  0  0  0  0
  139.9310   71.2000  223.7000 C   0  0  0  0  0  0  0  0  0  0  0  0
  139.2130   70.0230  223.6510 C   0  0  0  0  0  0  0  0  0  0  0  0
  139.1020   69.1620  224.7230 C   0  0  0  0  0  0  0  0  0  0  0  0
  139.7460   69.5120  225.8930 C   0  0  0  0  0  0  0  0  0  0  0  0
  139.6350   68.6520  226.9640 C   0  0  0  0  0  0  0  0  0  0  0  0
  140.2800   68.9960  228.1390 C   0  0  0  0  0  0  0  0  0  0  0  0
  141.0060   70.1750  228.2070 C   0  0  0  0  0  0  0  0  0  0  0  0
  141.1020   71.0180  227.1260 C   0  0  0  0  0  0  0  0  0  0  0  0
  140.4660   70.6930  225.9430 C   0  0  0  0  0  0  0  0  0  0  0  0
  140.5390   71.4910  224.8630 N   0  0  0  0  0  0  0  0  0  0  0  0
  141.0770   78.1800  222.0010 C   0  0  0  0  0  0  0  0  0  0  0  0
  139.7540   78.2810  222.4320 C   0  0  0  0  0  0  0  0  0  0  0  0
  139.3850   79.2700  223.3350 C   0  0  0  0  0  0  0  0  0  0  0  0
  140.3100   80.1710  223.8230 C   0  0  0  0  0  0  0  0  0  0  0  0
  141.6190   80.0660  223.3910 C   0  0  0  0  0  0  0  0  0  0  0  0
  141.9860   79.0860  222.4970 C   0  0  0  0  0  0  0  0  0  0  0  0
  143.6391   73.3074  221.6120 H   0  0  0  0  0  0  0  0  0  0  0  0
  142.4608   72.9002  220.3187 H   0  0  0  0  0  0  0  0  0  0  0  0
  144.0909   72.1455  220.3187 H   0  0  0  0  0  0  0  0  0  0  0  0
  142.6663   75.2166  217.8046 H   0  0  0  0  0  0  0  0  0  0  0  0
  141.8261   75.0939  219.3722 H   0  0  0  0  0  0  0  0  0  0  0  0
  143.9146   76.9067  219.8384 H   0  0  0  0  0  0  0  0  0  0  0  0
  143.2653   77.3039  218.1670 H   0  0  0  0  0  0  0  0  0  0  0  0
  142.2725   78.6483  219.8949 H   0  0  0  0  0  0  0  0  0  0  0  0
  141.1010   77.5157  219.0250 H   0  0  0  0  0  0  0  0  0  0  0  0
  142.2234   76.5226  221.4903 H   0  0  0  0  0  0  0  0  0  0  0  0
  139.4050   76.5710  220.3200 H   0  0  0  0  0  0  0  0  0  0  0  0
  138.1522   74.5286  221.0793 H   0  0  0  0  0  0  0  0  0  0  0  0
  139.2141   73.3635  220.2450 H   0  0  0  0  0  0  0  0  0  0  0  0
  138.3060   73.1810  223.0740 H   0  0  0  0  0  0  0  0  0  0  0  0
  138.7046   69.7584  222.7121 H   0  0  0  0  0  0  0  0  0  0  0  0
  138.5216   68.2306  224.6484 H   0  0  0  0  0  0  0  0  0  0  0  0
  139.0525   67.7221  226.8874 H   0  0  0  0  0  0  0  0  0  0  0  0
  140.2168   68.3358  229.0166 H   0  0  0  0  0  0  0  0  0  0  0  0
  141.5154   70.4410  229.1450 H   0  0  0  0  0  0  0  0  0  0  0  0
  141.6834   71.9487  227.2022 H   0  0  0  0  0  0  0  0  0  0  0  0
  138.9998   77.5745  222.0552 H   0  0  0  0  0  0  0  0  0  0  0  0
  138.3383   79.3363  223.6667 H   0  0  0  0  0  0  0  0  0  0  0  0
  140.0130   80.9528  224.5376 H   0  0  0  0  0  0  0  0  0  0  0  0
  142.3745   80.7725  223.7654 H   0  0  0  0  0  0  0  0  0  0  0  0
  143.0346   79.0254  222.1701 H   0  0  0  0  0  0  0  0  0  0  0  0
  1  2  1  0
  2  3  1  0
  3  4  1  0
  4  5  1  0
  5  6  1  0
  6  7  1  0
  7  8  1  0
  8  9  2  0
  8 10  1  0
 10 11  1  0
 11 12  1  0
 12 13  2  0
 12 14  1  0
 14 15  2  0
 15 16  1  0
 16 17  2  0
 17 18  1  0
 18 19  2  0
 19 20  1  0
 20 21  2  0
 21 22  1  0
 22 23  2  0
  6 24  1  0
 24 25  2  0
 25 26  1  0
 26 27  2  0
 27 28  1  0
 28 29  2  0
 23 14  1  0
 29 24  1  0
 22 17  1  0
  1 30  1  0
  1 31  1  0
  1 32  1  0
  3 33  1  0
  3 34  1  0
  4 35  1  0
  4 36  1  0
  5 37  1  0
  5 38  1  0
  6 39  1  1
  7 40  1  0
 10 41  1  0
 10 42  1  0
 11 43  1  0
 15 44  1  0
 16 45  1  0
 18 46  1  0
 19 47  1  0
 20 48  1  0
 21 49  1  0
 25 50  1  0
 26 51  1  0
 27 52  1  0
 28 53  1  0
 29 54  1  0
M  END
>  <smiles>  (42) 
CSCCC[C@H](NC(=O)CNC(=O)c1ccc2ccccc2n1)c1ccccc1

>  <score_type>  (42) 
oracle

>  <origin>  (42) 
autodockgpu

>  <m_score__min__energy>  (42) 
-8.7400000000000002

>  <m_primary>  (42) 
energy

>  <rmsd>  (42) 
4.019987793364937

>  <m_score__min__rmsd>  (42) 
4.019987793364937

>  <meeko>  (42) 
{"free_energy": -8.41, "intermolecular_energy": -11.1, "internal_energy": -1.58, "cluster_size": 20, "cluster_id": 1, "rank_in_cluster": 8}

>  <energy>  (42) 
-7.96

>  <cluster_rmsd>  (42) 
0.17

>  <cluster>  (42) 
4

$$$$

     RDKit          3D

 54 56  0  0  0  0  0  0  0  0999 V2000
  145.5410   73.8040  220.8010 C   0  0  0  0  0  0  0  0  0  0  0  0
  143.8040   74.1500  220.4430 S   0  0  0  0  0  0  0  0  0  0  0  0
  143.6550   75.7890  219.6770 C   0  0  0  0  0  0  0  0  0  0  0  0
  142.1920   76.0280  219.3930 C   0  0  0  0  0  0  0  0  0  0  0  0
  141.5950   77.1750  220.1300 C   0  0  0  0  0  0  0  0  0  0  0  0
  141.0690   76.8750  221.4960 C   0  0  2  0  0  0  0  0  0  0  0  0
  139.8700   76.0170  221.4310 N   0  0  0  0  0  0  0  0  0  0  0  0
  139.9750   74.6010  221.4990 C   0  0  0  0  0  0  0  0  0  0  0  0
  141.1350   74.1230  221.6160 O   0  0  0  0  0  0  0  0  0  0  0  0
  138.8000   73.6930  221.4380 C   0  0  0  0  0  0  0  0  0  0  0  0
  138.8510   72.8240  222.6010 N   0  0  0  0  0  0  0  0  0  0  0  0
  139.7400   71.7110  222.6540 C   0  0  0  0  0  0  0  0  0  0  0  0
  140.5090   71.4620  221.6700 O   0  0  0  0  0  0  0  0  0  0  0  0
  139.7760   70.8530  223.8340 C   0  0  0  0  0  0  0  0  0  0  0  0
  139.2130   69.5950  223.7830 C   0  0  0  0  0  0  0  0  0  0  0  0
  139.2080   68.7280  224.8560 C   0  0  0  0  0  0  0  0  0  0  0  0
  139.7990   69.1560  226.0270 C   0  0  0  0  0  0  0  0  0  0  0  0
  139.7950   68.2890  227.0980 C   0  0  0  0  0  0  0  0  0  0  0  0
  140.3880   68.7120  228.2750 C   0  0  0  0  0  0  0  0  0  0  0  0
  140.9590   69.9730  228.3440 C   0  0  0  0  0  0  0  0  0  0  0  0
  140.9510   70.8210  227.2630 C   0  0  0  0  0  0  0  0  0  0  0  0
  140.3650   70.4180  226.0780 C   0  0  0  0  0  0  0  0  0  0  0  0
  140.3390   71.2190  224.9980 N   0  0  0  0  0  0  0  0  0  0  0  0
  140.7970   78.0870  222.2970 C   0  0  0  0  0  0  0  0  0  0  0  0
  141.8640   78.9470  222.5540 C   0  0  0  0  0  0  0  0  0  0  0  0
  141.6690   80.1020  223.2980 C   0  0  0  0  0  0  0  0  0  0  0  0
  140.4240   80.4260  223.8000 C   0  0  0  0  0  0  0  0  0  0  0  0
  139.3700   79.5690  223.5420 C   0  0  0  0  0  0  0  0  0  0  0  0
  139.5620   78.4230  222.8040 C   0  0  0  0  0  0  0  0  0  0  0  0
  145.6920   73.7739  221.8902 H   0  0  0  0  0  0  0  0  0  0  0  0
  145.8188   72.8329  220.3654 H   0  0  0  0  0  0  0  0  0  0  0  0
  146.1697   74.5946  220.3654 H   0  0  0  0  0  0  0  0  0  0  0  0
  144.0348   76.5600  220.3636 H   0  0  0  0  0  0  0  0  0  0  0  0
  144.2419   75.8363  218.7479 H   0  0  0  0  0  0  0  0  0  0  0  0
  142.0785   76.2167  218.3153 H   0  0  0  0  0  0  0  0  0  0  0  0
  141.6583   75.1283  219.7332 H   0  0  0  0  0  0  0  0  0  0  0  0
  142.3693   77.9499  220.2305 H   0  0  0  0  0  0  0  0  0  0  0  0
  140.7213   77.4848  219.5378 H   0  0  0  0  0  0  0  0  0  0  0  0
  141.8708   76.3283  222.0139 H   0  0  0  0  0  0  0  0  0  0  0  0
  138.9250   76.4510  221.3330 H   0  0  0  0  0  0  0  0  0  0  0  0
  137.8709   74.2817  221.4509 H   0  0  0  0  0  0  0  0  0  0  0  0
  138.8206   73.0988  220.5125 H   0  0  0  0  0  0  0  0  0  0  0  0
  138.2470   72.9670  223.4490 H   0  0  0  0  0  0  0  0  0  0  0  0
  138.7460   69.2676  222.8424 H   0  0  0  0  0  0  0  0  0  0  0  0
  138.7492   67.7311  224.7807 H   0  0  0  0  0  0  0  0  0  0  0  0
  139.3353   67.2927  227.0201 H   0  0  0  0  0  0  0  0  0  0  0  0
  140.4060   68.0494  229.1529 H   0  0  0  0  0  0  0  0  0  0  0  0
  141.4281   70.3015  229.2832 H   0  0  0  0  0  0  0  0  0  0  0  0
  141.4097   71.8178  227.3405 H   0  0  0  0  0  0  0  0  0  0  0  0
  142.8650   78.7088  222.1652 H   0  0  0  0  0  0  0  0  0  0  0  0
  142.5206   80.7709  223.4912 H   0  0  0  0  0  0  0  0  0  0  0  0
  140.2746   81.3423  224.3900 H   0  0  0  0  0  0  0  0  0  0  0  0
  138.3683   79.8053  223.9303 H   0  0  0  0  0  0  0  0  0  0  0  0
  138.7063   77.7583  222.6144 H   0  0  0  0  0  0  0  0  0  0  0  0
  1  2  1  0
  2  3  1  0
  3  4  1  0
  4  5  1  0
  5  6  1  0
  6  7  1  0
  7  8  1  0
  8  9  2  0
  8 10  1  0
 10 11  1  0
 11 12  1  0
 12 13  2  0
 12 14  1  0
 14 15  2  0
 15 16  1  0
 16 17  2  0
 17 18  1  0
 18 19  2  0
 19 20  1  0
 20 21  2  0
 21 22  1  0
 22 23  2  0
  6 24  1  0
 24 25  2  0
 25 26  1  0
 26 27  2  0
 27 28  1  0
 28 29  2  0
 23 14  1  0
 29 24  1  0
 22 17  1  0
  1 30  1  0
  1 31  1  0
  1 32  1  0
  3 33  1  0
  3 34  1  0
  4 35  1  0
  4 36  1  0
  5 37  1  0
  5 38  1  0
  6 39  1  1
  7 40  1  0
 10 41  1  0
 10 42  1  0
 11 43  1  0
 15 44  1  0
 16 45  1  0
 18 46  1  0
 19 47  1  0
 20 48  1  0
 21 49  1  0
 25 50  1  0
 26 51  1  0
 27 52  1  0
 28 53  1  0
 29 54  1  0
M  END
>  <smiles>  (43) 
CSCCC[C@H](NC(=O)CNC(=O)c1ccc2ccccc2n1)c1ccccc1

>  <score_type>  (43) 
oracle

>  <origin>  (43) 
autodockgpu

>  <m_score__min__energy>  (43) 
-8.7400000000000002

>  <m_primary>  (43) 
energy

>  <rmsd>  (43) 
4.309188234454917

>  <m_score__min__rmsd>  (43) 
4.309188234454917

>  <meeko>  (43) 
{"free_energy": -8.74, "intermolecular_energy": -11.42, "internal_energy": -1.37, "cluster_size": 20, "cluster_id": 1, "rank_in_cluster": 1}

>  <energy>  (43) 
-8.03

>  <cluster_rmsd>  (43) 
0.0

>  <cluster>  (43) 
5

$$$$

     RDKit          3D

 54 56  0  0  0  0  0  0  0  0999 V2000
  144.2790   73.2970  220.1420 C   0  0  0  0  0  0  0  0  0  0  0  0
  143.5930   74.5080  218.9900 S   0  0  0  0  0  0  0  0  0  0  0  0
  143.7040   76.1690  219.7140 C   0  0  0  0  0  0  0  0  0  0  0  0
  142.8760   77.0960  218.8570 C   0  0  0  0  0  0  0  0  0  0  0  0
  141.7990   77.8190  219.5850 C   0  0  0  0  0  0  0  0  0  0  0  0
  141.4480   77.2870  220.9360 C   0  0  2  0  0  0  0  0  0  0  0  0
  140.2740   76.3950  220.8710 N   0  0  0  0  0  0  0  0  0  0  0  0
  140.4040   74.9940  221.0680 C   0  0  0  0  0  0  0  0  0  0  0  0
  141.5640   74.5580  221.2970 O   0  0  0  0  0  0  0  0  0  0  0  0
  139.2550   74.0520  221.0120 C   0  0  0  0  0  0  0  0  0  0  0  0
  139.2460   73.2900  222.2490 N   0  0  0  0  0  0  0  0  0  0  0  0
  140.0890   72.1540  222.4240 C   0  0  0  0  0  0  0  0  0  0  0  0
  140.8680   71.7880  221.4850 O   0  0  0  0  0  0  0  0  0  0  0  0
  140.0650   71.4060  223.6760 C   0  0  0  0  0  0  0  0  0  0  0  0
  139.5170   70.1400  223.7080 C   0  0  0  0  0  0  0  0  0  0  0  0
  139.4590   69.3730  224.8520 C   0  0  0  0  0  0  0  0  0  0  0  0
  139.9780   69.9120  226.0110 C   0  0  0  0  0  0  0  0  0  0  0  0
  139.9200   69.1450  227.1540 C   0  0  0  0  0  0  0  0  0  0  0  0
  140.4410   69.6800  228.3200 C   0  0  0  0  0  0  0  0  0  0  0  0
  140.9950   70.9500  228.3070 C   0  0  0  0  0  0  0  0  0  0  0  0
  141.0420   71.6980  227.1560 C   0  0  0  0  0  0  0  0  0  0  0  0
  140.5280   71.1820  225.9800 C   0  0  0  0  0  0  0  0  0  0  0  0
  140.5570   71.8830  224.8330 N   0  0  0  0  0  0  0  0  0  0  0  0
  141.2390   78.3460  221.9460 C   0  0  0  0  0  0  0  0  0  0  0  0
  142.2430   79.3010  222.1000 C   0  0  0  0  0  0  0  0  0  0  0  0
  142.1030   80.3210  223.0310 C   0  0  0  0  0  0  0  0  0  0  0  0
  140.9740   80.4150  223.8210 C   0  0  0  0  0  0  0  0  0  0  0  0
  139.9830   79.4650  223.6640 C   0  0  0  0  0  0  0  0  0  0  0  0
  140.1210   78.4530  222.7410 C   0  0  0  0  0  0  0  0  0  0  0  0
  144.0923   73.6266  221.1747 H   0  0  0  0  0  0  0  0  0  0  0  0
  143.7997   72.3209  219.9763 H   0  0  0  0  0  0  0  0  0  0  0  0
  145.3627   73.2062  219.9763 H   0  0  0  0  0  0  0  0  0  0  0  0
  143.3116   76.1574  220.7416 H   0  0  0  0  0  0  0  0  0  0  0  0
  144.7504   76.5063  219.7490 H   0  0  0  0  0  0  0  0  0  0  0  0
  143.5491   77.8429  218.4109 H   0  0  0  0  0  0  0  0  0  0  0  0
  142.3752   76.4635  218.1092 H   0  0  0  0  0  0  0  0  0  0  0  0
  142.1195   78.8641  219.7081 H   0  0  0  0  0  0  0  0  0  0  0  0
  140.8933   77.6938  218.9735 H   0  0  0  0  0  0  0  0  0  0  0  0
  142.3210   76.7047  221.2659 H   0  0  0  0  0  0  0  0  0  0  0  0
  139.3280   76.7940  220.6770 H   0  0  0  0  0  0  0  0  0  0  0  0
  138.3147   74.6140  220.9116 H   0  0  0  0  0  0  0  0  0  0  0  0
  139.3507   73.3796  220.1467 H   0  0  0  0  0  0  0  0  0  0  0  0
  138.6300   73.5330  223.0650 H   0  0  0  0  0  0  0  0  0  0  0  0
  139.1069   69.7230  222.7764 H   0  0  0  0  0  0  0  0  0  0  0  0
  139.0146   68.3668  224.8411 H   0  0  0  0  0  0  0  0  0  0  0  0
  139.4740   68.1396  227.1407 H   0  0  0  0  0  0  0  0  0  0  0  0
  140.4152   69.0988  229.2535 H   0  0  0  0  0  0  0  0  0  0  0  0
  141.4057   71.3679  229.2380 H   0  0  0  0  0  0  0  0  0  0  0  0
  141.4869   72.7039  227.1693 H   0  0  0  0  0  0  0  0  0  0  0  0
  143.1505   79.2459  221.4807 H   0  0  0  0  0  0  0  0  0  0  0  0
  142.9042   81.0665  223.1414 H   0  0  0  0  0  0  0  0  0  0  0  0
  140.8665   81.2257  224.5566 H   0  0  0  0  0  0  0  0  0  0  0  0
  139.0749   79.5179  224.2826 H   0  0  0  0  0  0  0  0  0  0  0  0
  139.3163   77.7103  222.6362 H   0  0  0  0  0  0  0  0  0  0  0  0
  1  2  1  0
  2  3  1  0
  3  4  1  0
  4  5  1  0
  5  6  1  0
  6  7  1  0
  7  8  1  0
  8  9  2  0
  8 10  1  0
 10 11  1  0
 11 12  1  0
 12 13  2  0
 12 14  1  0
 14 15  2  0
 15 16  1  0
 16 17  2  0
 17 18  1  0
 18 19  2  0
 19 20  1  0
 20 21  2  0
 21 22  1  0
 22 23  2  0
  6 24  1  0
 24 25  2  0
 25 26  1  0
 26 27  2  0
 27 28  1  0
 28 29  2  0
 23 14  1  0
 29 24  1  0
 22 17  1  0
  1 30  1  0
  1 31  1  0
  1 32  1  0
  3 33  1  0
  3 34  1  0
  4 35  1  0
  4 36  1  0
  5 37  1  0
  5 38  1  0
  6 39  1  1
  7 40  1  0
 10 41  1  0
 10 42  1  0
 11 43  1  0
 15 44  1  0
 16 45  1  0
 18 46  1  0
 19 47  1  0
 20 48  1  0
 21 49  1  0
 25 50  1  0
 26 51  1  0
 27 52  1  0
 28 53  1  0
 29 54  1  0
M  END
>  <smiles>  (44) 
CSCCC[C@H](NC(=O)CNC(=O)c1ccc2ccccc2n1)c1ccccc1

>  <score_type>  (44) 
oracle

>  <origin>  (44) 
autodockgpu

>  <m_score__min__energy>  (44) 
-8.7400000000000002

>  <m_primary>  (44) 
energy

>  <rmsd>  (44) 
4.210335193706821

>  <m_score__min__rmsd>  (44) 
4.210335193706821

>  <meeko>  (44) 
{"free_energy": -8.61, "intermolecular_energy": -11.3, "internal_energy": -1.6, "cluster_size": 20, "cluster_id": 1, "rank_in_cluster": 4}

>  <energy>  (44) 
-7.99

>  <cluster_rmsd>  (44) 
0.0

>  <cluster>  (44) 
6

$$$$

     RDKit          3D

 54 56  0  0  0  0  0  0  0  0999 V2000
  142.7660   80.1620  222.8480 C   0  0  0  0  0  0  0  0  0  0  0  0
  141.7890   78.9130  223.7140 S   0  0  0  0  0  0  0  0  0  0  0  0
  140.0310   79.1300  223.3170 C   0  0  0  0  0  0  0  0  0  0  0  0
  139.6350   78.0170  222.3770 C   0  0  0  0  0  0  0  0  0  0  0  0
  140.4250   76.7660  222.5290 C   0  0  0  0  0  0  0  0  0  0  0  0
  140.2610   75.7500  221.4460 C   0  0  2  0  0  0  0  0  0  0  0  0
  139.4170   74.6240  221.8920 N   0  0  0  0  0  0  0  0  0  0  0  0
  138.4430   74.0500  221.0310 C   0  0  0  0  0  0  0  0  0  0  0  0
  138.3400   74.5490  219.8790 O   0  0  0  0  0  0  0  0  0  0  0  0
  137.5690   72.9160  221.4310 C   0  0  0  0  0  0  0  0  0  0  0  0
  138.0470   72.4160  222.7080 N   0  0  0  0  0  0  0  0  0  0  0  0
  139.2300   71.6260  222.7980 C   0  0  0  0  0  0  0  0  0  0  0  0
  139.8880   71.3430  221.7450 O   0  0  0  0  0  0  0  0  0  0  0  0
  139.6930   71.1370  224.0920 C   0  0  0  0  0  0  0  0  0  0  0  0
  140.5990   71.8800  224.8220 C   0  0  0  0  0  0  0  0  0  0  0  0
  141.0820   71.4840  226.0510 C   0  0  0  0  0  0  0  0  0  0  0  0
  140.6260   70.2850  226.5610 C   0  0  0  0  0  0  0  0  0  0  0  0
  141.1090   69.8900  227.7900 C   0  0  0  0  0  0  0  0  0  0  0  0
  140.6550   68.6880  228.3070 C   0  0  0  0  0  0  0  0  0  0  0  0
  139.7450   67.9290  227.5890 C   0  0  0  0  0  0  0  0  0  0  0  0
  139.2790   68.3420  226.3650 C   0  0  0  0  0  0  0  0  0  0  0  0
  139.7180   69.5390  225.8300 C   0  0  0  0  0  0  0  0  0  0  0  0
  139.2830   69.9780  224.6360 N   0  0  0  0  0  0  0  0  0  0  0  0
  141.5450   75.2530  220.9100 C   0  0  0  0  0  0  0  0  0  0  0  0
  141.8910   73.9290  221.1800 C   0  0  0  0  0  0  0  0  0  0  0  0
  143.0840   73.4050  220.7010 C   0  0  0  0  0  0  0  0  0  0  0  0
  143.9510   74.1750  219.9510 C   0  0  0  0  0  0  0  0  0  0  0  0
  143.6030   75.4870  219.6870 C   0  0  0  0  0  0  0  0  0  0  0  0
  142.4200   76.0070  220.1620 C   0  0  0  0  0  0  0  0  0  0  0  0
  143.2705   80.8070  223.5825 H   0  0  0  0  0  0  0  0  0  0  0  0
  143.5186   79.6663  222.2172 H   0  0  0  0  0  0  0  0  0  0  0  0
  142.1037   80.7731  222.2172 H   0  0  0  0  0  0  0  0  0  0  0  0
  139.4294   79.0765  224.2364 H   0  0  0  0  0  0  0  0  0  0  0  0
  139.8586   80.1106  222.8493 H   0  0  0  0  0  0  0  0  0  0  0  0
  138.5763   77.7778  222.5556 H   0  0  0  0  0  0  0  0  0  0  0  0
  139.8289   78.3857  221.3589 H   0  0  0  0  0  0  0  0  0  0  0  0
  141.4887   77.0432  222.5717 H   0  0  0  0  0  0  0  0  0  0  0  0
  140.0466   76.2867  223.4439 H   0  0  0  0  0  0  0  0  0  0  0  0
  139.7548   76.2711  220.6200 H   0  0  0  0  0  0  0  0  0  0  0  0
  139.5320   74.2380  222.8560 H   0  0  0  0  0  0  0  0  0  0  0  0
  136.5294   73.2616  221.5299 H   0  0  0  0  0  0  0  0  0  0  0  0
  137.5994   72.1210  220.6714 H   0  0  0  0  0  0  0  0  0  0  0  0
  137.5560   72.6090  223.6170 H   0  0  0  0  0  0  0  0  0  0  0  0
  140.9524   72.8337  224.4030 H   0  0  0  0  0  0  0  0  0  0  0  0
  141.8046   72.1011  226.6052 H   0  0  0  0  0  0  0  0  0  0  0  0
  141.8314   70.5091  228.3421 H   0  0  0  0  0  0  0  0  0  0  0  0
  141.0159   68.3369  229.2850 H   0  0  0  0  0  0  0  0  0  0  0  0
  139.3886   66.9764  228.0079 H   0  0  0  0  0  0  0  0  0  0  0  0
  138.5583   67.7221  225.8116 H   0  0  0  0  0  0  0  0  0  0  0  0
  141.2154   73.2971  221.7752 H   0  0  0  0  0  0  0  0  0  0  0  0
  143.3430   72.3591  220.9225 H   0  0  0  0  0  0  0  0  0  0  0  0
  144.8949   73.7552  219.5731 H   0  0  0  0  0  0  0  0  0  0  0  0
  144.2773   76.1208  219.0923 H   0  0  0  0  0  0  0  0  0  0  0  0
  142.1674   77.0538  219.9375 H   0  0  0  0  0  0  0  0  0  0  0  0
  1  2  1  0
  2  3  1  0
  3  4  1  0
  4  5  1  0
  5  6  1  0
  6  7  1  0
  7  8  1  0
  8  9  2  0
  8 10  1  0
 10 11  1  0
 11 12  1  0
 12 13  2  0
 12 14  1  0
 14 15  2  0
 15 16  1  0
 16 17  2  0
 17 18  1  0
 18 19  2  0
 19 20  1  0
 20 21  2  0
 21 22  1  0
 22 23  2  0
  6 24  1  0
 24 25  2  0
 25 26  1  0
 26 27  2  0
 27 28  1  0
 28 29  2  0
 23 14  1  0
 29 24  1  0
 22 17  1  0
  1 30  1  0
  1 31  1  0
  1 32  1  0
  3 33  1  0
  3 34  1  0
  4 35  1  0
  4 36  1  0
  5 37  1  0
  5 38  1  0
  6 39  1  6
  7 40  1  0
 10 41  1  0
 10 42  1  0
 11 43  1  0
 15 44  1  0
 16 45  1  0
 18 46  1  0
 19 47  1  0
 20 48  1  0
 21 49  1  0
 25 50  1  0
 26 51  1  0
 27 52  1  0
 28 53  1  0
 29 54  1  0
M  END
>  <smiles>  (45) 
CSCCC[C@H](NC(=O)CNC(=O)c1ccc2ccccc2n1)c1ccccc1

>  <score_type>  (45) 
oracle

>  <origin>  (45) 
autodockgpu

>  <m_score__min__energy>  (45) 
-8.7400000000000002

>  <m_primary>  (45) 
energy

>  <rmsd>  (45) 
5.357843983207981

>  <m_score__min__rmsd>  (45) 
5.357843983207981

>  <meeko>  (45) 
{"free_energy": -8.16, "intermolecular_energy": -10.85, "internal_energy": -1.9, "cluster_size": 17, "cluster_id": 2, "rank_in_cluster": 11}

>  <energy>  (45) 
-7.42

>  <cluster_rmsd>  (45) 
0.0

>  <cluster>  (45) 
7

$$$$

     RDKit          3D

 54 56  0  0  0  0  0  0  0  0999 V2000
  139.8050   81.9450  221.9940 C   0  0  0  0  0  0  0  0  0  0  0  0
  141.4670   81.6950  222.6560 S   0  0  0  0  0  0  0  0  0  0  0  0
  141.5400   80.1090  223.5370 C   0  0  0  0  0  0  0  0  0  0  0  0
  142.1440   79.0930  222.5980 C   0  0  0  0  0  0  0  0  0  0  0  0
  141.3240   77.8690  222.3950 C   0  0  0  0  0  0  0  0  0  0  0  0
  140.6420   77.7480  221.0710 C   0  0  2  0  0  0  0  0  0  0  0  0
  140.5020   76.3350  220.6690 N   0  0  0  0  0  0  0  0  0  0  0  0
  139.9640   75.3670  221.5590 C   0  0  0  0  0  0  0  0  0  0  0  0
  139.6170   75.7770  222.7000 O   0  0  0  0  0  0  0  0  0  0  0  0
  139.8020   73.9330  221.2040 C   0  0  0  0  0  0  0  0  0  0  0  0
  139.7840   73.1700  222.4390 N   0  0  0  0  0  0  0  0  0  0  0  0
  140.0800   71.7750  222.4520 C   0  0  0  0  0  0  0  0  0  0  0  0
  140.3630   71.1740  221.3670 O   0  0  0  0  0  0  0  0  0  0  0  0
  140.0580   71.0290  223.7060 C   0  0  0  0  0  0  0  0  0  0  0  0
  139.5200   69.7600  223.7400 C   0  0  0  0  0  0  0  0  0  0  0  0
  139.4650   68.9950  224.8860 C   0  0  0  0  0  0  0  0  0  0  0  0
  139.9770   69.5410  226.0450 C   0  0  0  0  0  0  0  0  0  0  0  0
  139.9220   68.7760  227.1900 C   0  0  0  0  0  0  0  0  0  0  0  0
  140.4350   69.3190  228.3560 C   0  0  0  0  0  0  0  0  0  0  0  0
  140.9800   70.5930  228.3410 C   0  0  0  0  0  0  0  0  0  0  0  0
  141.0230   71.3380  227.1880 C   0  0  0  0  0  0  0  0  0  0  0  0
  140.5160   70.8160  226.0130 C   0  0  0  0  0  0  0  0  0  0  0  0
  140.5430   71.5130  224.8630 N   0  0  0  0  0  0  0  0  0  0  0  0
  141.2980   78.5280  220.0010 C   0  0  0  0  0  0  0  0  0  0  0  0
  142.2260   77.8690  219.1950 C   0  0  0  0  0  0  0  0  0  0  0  0
  142.8740   78.5480  218.1720 C   0  0  0  0  0  0  0  0  0  0  0  0
  142.6180   79.8830  217.9290 C   0  0  0  0  0  0  0  0  0  0  0  0
  141.6970   80.5310  218.7310 C   0  0  0  0  0  0  0  0  0  0  0  0
  141.0540   79.8580  219.7460 C   0  0  0  0  0  0  0  0  0  0  0  0
  139.0918   82.0523  222.8246 H   0  0  0  0  0  0  0  0  0  0  0  0
  139.7891   82.8556  221.3772 H   0  0  0  0  0  0  0  0  0  0  0  0
  139.5220   81.0793  221.3772 H   0  0  0  0  0  0  0  0  0  0  0  0
  142.1661   80.2077  224.4360 H   0  0  0  0  0  0  0  0  0  0  0  0
  140.5337   79.7947  223.8510 H   0  0  0  0  0  0  0  0  0  0  0  0
  142.2888   79.5744  221.6196 H   0  0  0  0  0  0  0  0  0  0  0  0
  143.0852   78.7627  223.0617 H   0  0  0  0  0  0  0  0  0  0  0  0
  141.9851   76.9979  222.5136 H   0  0  0  0  0  0  0  0  0  0  0  0
  140.5165   77.9269  223.1397 H   0  0  0  0  0  0  0  0  0  0  0  0
  139.6404   78.1816  221.2083 H   0  0  0  0  0  0  0  0  0  0  0  0
  140.8010   76.0340  219.7140 H   0  0  0  0  0  0  0  0  0  0  0  0
  138.8574   73.7865  220.6597 H   0  0  0  0  0  0  0  0  0  0  0  0
  140.6287   73.6008  220.5588 H   0  0  0  0  0  0  0  0  0  0  0  0
  139.5580   73.5980  223.3720 H   0  0  0  0  0  0  0  0  0  0  0  0
  139.1153   69.3376  222.8084 H   0  0  0  0  0  0  0  0  0  0  0  0
  139.0284   67.9854  224.8765 H   0  0  0  0  0  0  0  0  0  0  0  0
  139.4847   67.7667  227.1781 H   0  0  0  0  0  0  0  0  0  0  0  0
  140.4100   68.7407  229.2914 H   0  0  0  0  0  0  0  0  0  0  0  0
  141.3864   71.0162  229.2714 H   0  0  0  0  0  0  0  0  0  0  0  0
  141.4598   72.3475  227.1997 H   0  0  0  0  0  0  0  0  0  0  0  0
  142.4457   76.8056  219.3708 H   0  0  0  0  0  0  0  0  0  0  0  0
  143.6031   78.0139  217.5449 H   0  0  0  0  0  0  0  0  0  0  0  0
  143.1339   80.4175  217.1177 H   0  0  0  0  0  0  0  0  0  0  0  0
  141.4757   81.5943  218.5567 H   0  0  0  0  0  0  0  0  0  0  0  0
  140.3261   80.3979  220.3694 H   0  0  0  0  0  0  0  0  0  0  0  0
  1  2  1  0
  2  3  1  0
  3  4  1  0
  4  5  1  0
  5  6  1  0
  6  7  1  0
  7  8  1  0
  8  9  2  0
  8 10  1  0
 10 11  1  0
 11 12  1  0
 12 13  2  0
 12 14  1  0
 14 15  2  0
 15 16  1  0
 16 17  2  0
 17 18  1  0
 18 19  2  0
 19 20  1  0
 20 21  2  0
 21 22  1  0
 22 23  2  0
  6 24  1  0
 24 25  2  0
 25 26  1  0
 26 27  2  0
 27 28  1  0
 28 29  2  0
 23 14  1  0
 29 24  1  0
 22 17  1  0
  1 30  1  0
  1 31  1  0
  1 32  1  0
  3 33  1  0
  3 34  1  0
  4 35  1  0
  4 36  1  0
  5 37  1  0
  5 38  1  0
  6 39  1  1
  7 40  1  0
 10 41  1  0
 10 42  1  0
 11 43  1  0
 15 44  1  0
 16 45  1  0
 18 46  1  0
 19 47  1  0
 20 48  1  0
 21 49  1  0
 25 50  1  0
 26 51  1  0
 27 52  1  0
 28 53  1  0
 29 54  1  0
M  END
>  <smiles>  (46) 
CSCCC[C@H](NC(=O)CNC(=O)c1ccc2ccccc2n1)c1ccccc1

>  <score_type>  (46) 
oracle

>  <origin>  (46) 
autodockgpu

>  <m_score__min__energy>  (46) 
-8.7400000000000002

>  <m_primary>  (46) 
energy

>  <rmsd>  (46) 
4.136797236567778

>  <m_score__min__rmsd>  (46) 
4.136797236567778

>  <meeko>  (46) 
{"free_energy": -7.98, "intermolecular_energy": -10.66, "internal_energy": -1.89, "cluster_size": 3, "cluster_id": 3, "rank_in_cluster": 2}

>  <energy>  (46) 
-7.41

>  <cluster_rmsd>  (46) 
0.09

>  <cluster>  (46) 
7

$$$$

     RDKit          3D

 54 56  0  0  0  0  0  0  0  0999 V2000
  141.4780   81.6340  222.3140 C   0  0  0  0  0  0  0  0  0  0  0  0
  142.6890   80.4240  222.8930 S   0  0  0  0  0  0  0  0  0  0  0  0
  141.8280   78.9520  223.5180 C   0  0  0  0  0  0  0  0  0  0  0  0
  141.2220   78.2410  222.3320 C   0  0  0  0  0  0  0  0  0  0  0  0
  140.4690   77.0030  222.6690 C   0  0  0  0  0  0  0  0  0  0  0  0
  140.2110   76.0640  221.5360 C   0  0  2  0  0  0  0  0  0  0  0  0
  139.3000   74.9750  221.9410 N   0  0  0  0  0  0  0  0  0  0  0  0
  138.6140   74.1930  220.9730 C   0  0  0  0  0  0  0  0  0  0  0  0
  138.8220   74.4770  219.7630 O   0  0  0  0  0  0  0  0  0  0  0  0
  137.6870   73.0870  221.3280 C   0  0  0  0  0  0  0  0  0  0  0  0
  138.1410   72.5130  222.5820 N   0  0  0  0  0  0  0  0  0  0  0  0
  139.3390   71.7440  222.6530 C   0  0  0  0  0  0  0  0  0  0  0  0
  140.0330   71.5460  221.6040 O   0  0  0  0  0  0  0  0  0  0  0  0
  139.7780   71.1790  223.9250 C   0  0  0  0  0  0  0  0  0  0  0  0
  140.6670   71.8770  224.7150 C   0  0  0  0  0  0  0  0  0  0  0  0
  141.1260   71.4090  225.9280 C   0  0  0  0  0  0  0  0  0  0  0  0
  140.6630   70.1810  226.3560 C   0  0  0  0  0  0  0  0  0  0  0  0
  141.1220   69.7140  227.5690 C   0  0  0  0  0  0  0  0  0  0  0  0
  140.6610   68.4840  228.0050 C   0  0  0  0  0  0  0  0  0  0  0  0
  139.7670   67.7680  227.2240 C   0  0  0  0  0  0  0  0  0  0  0  0
  139.3240   68.2530  226.0180 C   0  0  0  0  0  0  0  0  0  0  0  0
  139.7720   69.4800  225.5640 C   0  0  0  0  0  0  0  0  0  0  0  0
  139.3590   69.9890  224.3900 N   0  0  0  0  0  0  0  0  0  0  0  0
  141.4460   75.5110  220.9400 C   0  0  0  0  0  0  0  0  0  0  0  0
  141.7600   74.1820  221.2190 C   0  0  0  0  0  0  0  0  0  0  0  0
  142.9060   73.6060  220.6860 C   0  0  0  0  0  0  0  0  0  0  0  0
  143.7560   74.3300  219.8730 C   0  0  0  0  0  0  0  0  0  0  0  0
  143.4390   75.6480  219.6010 C   0  0  0  0  0  0  0  0  0  0  0  0
  142.3030   76.2190  220.1280 C   0  0  0  0  0  0  0  0  0  0  0  0
  140.9972   82.1144  223.1789 H   0  0  0  0  0  0  0  0  0  0  0  0
  141.9846   82.3974  221.7053 H   0  0  0  0  0  0  0  0  0  0  0  0
  140.7150   81.1267  221.7053 H   0  0  0  0  0  0  0  0  0  0  0  0
  142.5414   78.2886  224.0289 H   0  0  0  0  0  0  0  0  0  0  0  0
  141.0471   79.2374  224.2383 H   0  0  0  0  0  0  0  0  0  0  0  0
  140.5322   78.9363  221.8312 H   0  0  0  0  0  0  0  0  0  0  0  0
  142.0618   77.9302  221.6931 H   0  0  0  0  0  0  0  0  0  0  0  0
  141.0421   76.4582  223.4337 H   0  0  0  0  0  0  0  0  0  0  0  0
  139.4777   77.3413  223.0051 H   0  0  0  0  0  0  0  0  0  0  0  0
  139.7249   76.6647  220.7531 H   0  0  0  0  0  0  0  0  0  0  0  0
  139.1530   74.7710  222.9550 H   0  0  0  0  0  0  0  0  0  0  0  0
  136.6652   73.4776  221.4434 H   0  0  0  0  0  0  0  0  0  0  0  0
  137.6788   72.3233  220.5364 H   0  0  0  0  0  0  0  0  0  0  0  0
  137.6210   72.6330  223.4870 H   0  0  0  0  0  0  0  0  0  0  0  0
  141.0272   72.8540  224.3604 H   0  0  0  0  0  0  0  0  0  0  0  0
  141.8354   71.9930  226.5327 H   0  0  0  0  0  0  0  0  0  0  0  0
  141.8319   70.3001  228.1711 H   0  0  0  0  0  0  0  0  0  0  0  0
  141.0027   68.0760  228.9677 H   0  0  0  0  0  0  0  0  0  0  0  0
  139.4050   66.7913  227.5776 H   0  0  0  0  0  0  0  0  0  0  0  0
  138.6148   67.6671  225.4148 H   0  0  0  0  0  0  0  0  0  0  0  0
  141.0972   73.5866  221.8642 H   0  0  0  0  0  0  0  0  0  0  0  0
  143.1405   72.5560  220.9152 H   0  0  0  0  0  0  0  0  0  0  0  0
  144.6622   73.8697  219.4525 H   0  0  0  0  0  0  0  0  0  0  0  0
  144.1010   76.2459  218.9573 H   0  0  0  0  0  0  0  0  0  0  0  0
  142.0737   77.2691  219.8941 H   0  0  0  0  0  0  0  0  0  0  0  0
  1  2  1  0
  2  3  1  0
  3  4  1  0
  4  5  1  0
  5  6  1  0
  6  7  1  0
  7  8  1  0
  8  9  2  0
  8 10  1  0
 10 11  1  0
 11 12  1  0
 12 13  2  0
 12 14  1  0
 14 15  2  0
 15 16  1  0
 16 17  2  0
 17 18  1  0
 18 19  2  0
 19 20  1  0
 20 21  2  0
 21 22  1  0
 22 23  2  0
  6 24  1  0
 24 25  2  0
 25 26  1  0
 26 27  2  0
 27 28  1  0
 28 29  2  0
 23 14  1  0
 29 24  1  0
 22 17  1  0
  1 30  1  0
  1 31  1  0
  1 32  1  0
  3 33  1  0
  3 34  1  0
  4 35  1  0
  4 36  1  0
  5 37  1  0
  5 38  1  0
  6 39  1  6
  7 40  1  0
 10 41  1  0
 10 42  1  0
 11 43  1  0
 15 44  1  0
 16 45  1  0
 18 46  1  0
 19 47  1  0
 20 48  1  0
 21 49  1  0
 25 50  1  0
 26 51  1  0
 27 52  1  0
 28 53  1  0
 29 54  1  0
M  END
>  <smiles>  (47) 
CSCCC[C@H](NC(=O)CNC(=O)c1ccc2ccccc2n1)c1ccccc1

>  <score_type>  (47) 
oracle

>  <origin>  (47) 
autodockgpu

>  <m_score__min__energy>  (47) 
-8.7400000000000002

>  <m_primary>  (47) 
energy

>  <rmsd>  (47) 
5.182192206461224

>  <m_score__min__rmsd>  (47) 
5.182192206461224

>  <meeko>  (47) 
{"free_energy": -8.42, "intermolecular_energy": -11.11, "internal_energy": -1.75, "cluster_size": 17, "cluster_id": 2, "rank_in_cluster": 2}

>  <energy>  (47) 
-7.38

>  <cluster_rmsd>  (47) 
0.11

>  <cluster>  (47) 
7

$$$$

     RDKit          3D

 54 56  0  0  0  0  0  0  0  0999 V2000
  143.9970   73.1880  220.4930 C   0  0  0  0  0  0  0  0  0  0  0  0
  143.1590   74.3330  219.3730 S   0  0  0  0  0  0  0  0  0  0  0  0
  143.6970   76.0310  219.7250 C   0  0  0  0  0  0  0  0  0  0  0  0
  142.8630   76.9590  218.8740 C   0  0  0  0  0  0  0  0  0  0  0  0
  141.9800   77.8790  219.6400 C   0  0  0  0  0  0  0  0  0  0  0  0
  141.4790   77.3680  220.9510 C   0  0  2  0  0  0  0  0  0  0  0  0
  140.3190   76.4740  220.7680 N   0  0  0  0  0  0  0  0  0  0  0  0
  140.3040   75.1660  221.3220 C   0  0  0  0  0  0  0  0  0  0  0  0
  141.3260   74.8140  221.9710 O   0  0  0  0  0  0  0  0  0  0  0  0
  139.1620   74.2270  221.1670 C   0  0  0  0  0  0  0  0  0  0  0  0
  139.1290   73.3730  222.3420 N   0  0  0  0  0  0  0  0  0  0  0  0
  140.0970   72.3460  222.5380 C   0  0  0  0  0  0  0  0  0  0  0  0
  141.0140   72.1600  221.6740 O   0  0  0  0  0  0  0  0  0  0  0  0
  140.0440   71.5010  223.7270 C   0  0  0  0  0  0  0  0  0  0  0  0
  139.4490   70.2590  223.6600 C   0  0  0  0  0  0  0  0  0  0  0  0
  139.3600   69.4060  224.7390 C   0  0  0  0  0  0  0  0  0  0  0  0
  139.9000   69.8320  225.9360 C   0  0  0  0  0  0  0  0  0  0  0  0
  139.8130   68.9780  227.0150 C   0  0  0  0  0  0  0  0  0  0  0  0
  140.3530   69.3990  228.2180 C   0  0  0  0  0  0  0  0  0  0  0  0
  140.9560   70.6440  228.3040 C   0  0  0  0  0  0  0  0  0  0  0  0
  141.0310   71.4780  227.2160 C   0  0  0  0  0  0  0  0  0  0  0  0
  140.4980   71.0780  226.0050 C   0  0  0  0  0  0  0  0  0  0  0  0
  140.5540   71.8660  224.9160 N   0  0  0  0  0  0  0  0  0  0  0  0
  141.1580   78.4430  221.9140 C   0  0  0  0  0  0  0  0  0  0  0  0
  142.1380   79.4030  222.1630 C   0  0  0  0  0  0  0  0  0  0  0  0
  141.8940   80.4380  223.0560 C   0  0  0  0  0  0  0  0  0  0  0  0
  140.6860   80.5420  223.7150 C   0  0  0  0  0  0  0  0  0  0  0  0
  139.7180   79.5860  223.4640 C   0  0  0  0  0  0  0  0  0  0  0  0
  139.9580   78.5600  222.5790 C   0  0  0  0  0  0  0  0  0  0  0  0
  143.7875   73.4743  221.5342 H   0  0  0  0  0  0  0  0  0  0  0  0
  143.6320   72.1660  220.3132 H   0  0  0  0  0  0  0  0  0  0  0  0
  145.0815   73.2269  220.3132 H   0  0  0  0  0  0  0  0  0  0  0  0
  143.5444   76.2598  220.7901 H   0  0  0  0  0  0  0  0  0  0  0  0
  144.7661   76.1531  219.4967 H   0  0  0  0  0  0  0  0  0  0  0  0
  143.5446   77.5683  218.2623 H   0  0  0  0  0  0  0  0  0  0  0  0
  142.1993   76.3186  218.2745 H   0  0  0  0  0  0  0  0  0  0  0  0
  142.5441   78.8034  219.8329 H   0  0  0  0  0  0  0  0  0  0  0  0
  141.0853   78.0185  219.0155 H   0  0  0  0  0  0  0  0  0  0  0  0
  142.3088   76.7920  221.3865 H   0  0  0  0  0  0  0  0  0  0  0  0
  139.4890   76.8030  220.2230 H   0  0  0  0  0  0  0  0  0  0  0  0
  138.2212   74.7914  221.0876 H   0  0  0  0  0  0  0  0  0  0  0  0
  139.2811   73.6231  220.2553 H   0  0  0  0  0  0  0  0  0  0  0  0
  138.4020   73.4660  223.0950 H   0  0  0  0  0  0  0  0  0  0  0  0
  139.0248   69.9331  222.6988 H   0  0  0  0  0  0  0  0  0  0  0  0
  138.8765   68.4220  224.6496 H   0  0  0  0  0  0  0  0  0  0  0  0
  139.3301   67.9940  226.9228 H   0  0  0  0  0  0  0  0  0  0  0  0
  140.3037   68.7475  229.1030 H   0  0  0  0  0  0  0  0  0  0  0  0
  141.3832   70.9706  229.2636 H   0  0  0  0  0  0  0  0  0  0  0  0
  141.5140   72.4620  227.3078 H   0  0  0  0  0  0  0  0  0  0  0  0
  143.1089   79.3402  221.6497 H   0  0  0  0  0  0  0  0  0  0  0  0
  142.6771   81.1879  223.2413 H   0  0  0  0  0  0  0  0  0  0  0  0
  140.4976   81.3638  224.4216 H   0  0  0  0  0  0  0  0  0  0  0  0
  138.7468   79.6467  223.9770 H   0  0  0  0  0  0  0  0  0  0  0  0
  139.1705   77.8137  222.3980 H   0  0  0  0  0  0  0  0  0  0  0  0
  1  2  1  0
  2  3  1  0
  3  4  1  0
  4  5  1  0
  5  6  1  0
  6  7  1  0
  7  8  1  0
  8  9  2  0
  8 10  1  0
 10 11  1  0
 11 12  1  0
 12 13  2  0
 12 14  1  0
 14 15  2  0
 15 16  1  0
 16 17  2  0
 17 18  1  0
 18 19  2  0
 19 20  1  0
 20 21  2  0
 21 22  1  0
 22 23  2  0
  6 24  1  0
 24 25  2  0
 25 26  1  0
 26 27  2  0
 27 28  1  0
 28 29  2  0
 23 14  1  0
 29 24  1  0
 22 17  1  0
  1 30  1  0
  1 31  1  0
  1 32  1  0
  3 33  1  0
  3 34  1  0
  4 35  1  0
  4 36  1  0
  5 37  1  0
  5 38  1  0
  6 39  1  1
  7 40  1  0
 10 41  1  0
 10 42  1  0
 11 43  1  0
 15 44  1  0
 16 45  1  0
 18 46  1  0
 19 47  1  0
 20 48  1  0
 21 49  1  0
 25 50  1  0
 26 51  1  0
 27 52  1  0
 28 53  1  0
 29 54  1  0
M  END
>  <smiles>  (48) 
CSCCC[C@H](NC(=O)CNC(=O)c1ccc2ccccc2n1)c1ccccc1

>  <score_type>  (48) 
oracle

>  <origin>  (48) 
autodockgpu

>  <m_score__min__energy>  (48) 
-8.7400000000000002

>  <m_primary>  (48) 
energy

>  <rmsd>  (48) 
4.1136542886452006

>  <m_score__min__rmsd>  (48) 
4.1136542886452006

>  <meeko>  (48) 
{"free_energy": -8.73, "intermolecular_energy": -11.42, "internal_energy": -1.64, "cluster_size": 20, "cluster_id": 1, "rank_in_cluster": 2}

>  <energy>  (48) 
-7.35

>  <cluster_rmsd>  (48) 
0.44

>  <cluster>  (48) 
7

$$$$

     RDKit          3D

 54 56  0  0  0  0  0  0  0  0999 V2000
  144.1170   74.6520  220.2310 C   0  0  0  0  0  0  0  0  0  0  0  0
  143.2980   74.3120  218.6570 S   0  0  0  0  0  0  0  0  0  0  0  0
  142.5990   75.8490  217.9900 C   0  0  0  0  0  0  0  0  0  0  0  0
  143.1520   76.9930  218.8060 C   0  0  0  0  0  0  0  0  0  0  0  0
  142.1230   77.8200  219.4920 C   0  0  0  0  0  0  0  0  0  0  0  0
  141.6390   77.3060  220.8090 C   0  0  2  0  0  0  0  0  0  0  0  0
  140.4640   76.4280  220.6410 N   0  0  0  0  0  0  0  0  0  0  0  0
  140.4030   75.1550  221.2690 C   0  0  0  0  0  0  0  0  0  0  0  0
  141.3960   74.8190  221.9680 O   0  0  0  0  0  0  0  0  0  0  0  0
  139.2450   74.2340  221.1320 C   0  0  0  0  0  0  0  0  0  0  0  0
  139.2090   73.3880  222.3120 N   0  0  0  0  0  0  0  0  0  0  0  0
  140.1590   72.3420  222.5020 C   0  0  0  0  0  0  0  0  0  0  0  0
  141.0590   72.1320  221.6270 O   0  0  0  0  0  0  0  0  0  0  0  0
  140.1050   71.5070  223.6980 C   0  0  0  0  0  0  0  0  0  0  0  0
  139.5030   70.2670  223.6410 C   0  0  0  0  0  0  0  0  0  0  0  0
  139.4140   69.4220  224.7270 C   0  0  0  0  0  0  0  0  0  0  0  0
  139.9580   69.8550  225.9200 C   0  0  0  0  0  0  0  0  0  0  0  0
  139.8690   69.0100  227.0050 C   0  0  0  0  0  0  0  0  0  0  0  0
  140.4150   69.4370  228.2040 C   0  0  0  0  0  0  0  0  0  0  0  0
  141.0230   70.6800  228.2790 C   0  0  0  0  0  0  0  0  0  0  0  0
  141.0990   71.5060  227.1840 C   0  0  0  0  0  0  0  0  0  0  0  0
  140.5620   71.0990  225.9780 C   0  0  0  0  0  0  0  0  0  0  0  0
  140.6190   71.8780  224.8830 N   0  0  0  0  0  0  0  0  0  0  0  0
  141.3490   78.3780  221.7850 C   0  0  0  0  0  0  0  0  0  0  0  0
  142.2150   79.4710  221.8220 C   0  0  0  0  0  0  0  0  0  0  0  0
  141.9940   80.5100  222.7160 C   0  0  0  0  0  0  0  0  0  0  0  0
  140.9200   80.4880  223.5830 C   0  0  0  0  0  0  0  0  0  0  0  0
  140.0660   79.4020  223.5420 C   0  0  0  0  0  0  0  0  0  0  0  0
  140.2840   78.3710  222.6560 C   0  0  0  0  0  0  0  0  0  0  0  0
  143.4487   74.3746  221.0595 H   0  0  0  0  0  0  0  0  0  0  0  0
  145.0448   74.0647  220.2959 H   0  0  0  0  0  0  0  0  0  0  0  0
  144.3561   75.7237  220.2959 H   0  0  0  0  0  0  0  0  0  0  0  0
  142.8884   75.9661  216.9353 H   0  0  0  0  0  0  0  0  0  0  0  0
  141.5006   75.8301  218.0454 H   0  0  0  0  0  0  0  0  0  0  0  0
  143.8225   76.5754  219.5715 H   0  0  0  0  0  0  0  0  0  0  0  0
  143.6663   77.6599  218.0984 H   0  0  0  0  0  0  0  0  0  0  0  0
  142.5508   78.8197  219.6578 H   0  0  0  0  0  0  0  0  0  0  0  0
  141.2450   77.8096  218.8294 H   0  0  0  0  0  0  0  0  0  0  0  0
  142.4692   76.7166  221.2253 H   0  0  0  0  0  0  0  0  0  0  0  0
  139.6600   76.7430  220.0520 H   0  0  0  0  0  0  0  0  0  0  0  0
  138.3128   74.8133  221.0582 H   0  0  0  0  0  0  0  0  0  0  0  0
  139.3458   73.6222  220.2234 H   0  0  0  0  0  0  0  0  0  0  0  0
  138.4950   73.5010  223.0750 H   0  0  0  0  0  0  0  0  0  0  0  0
  139.0736   69.9367  222.6837 H   0  0  0  0  0  0  0  0  0  0  0  0
  138.9274   68.4388  224.6459 H   0  0  0  0  0  0  0  0  0  0  0  0
  139.3801   68.0282  226.9214 H   0  0  0  0  0  0  0  0  0  0  0  0
  140.3662   68.7918  229.0936 H   0  0  0  0  0  0  0  0  0  0  0  0
  141.4537   71.0121  229.2352 H   0  0  0  0  0  0  0  0  0  0  0  0
  141.5861   72.4888  227.2672 H   0  0  0  0  0  0  0  0  0  0  0  0
  143.0770   79.5099  221.1397 H   0  0  0  0  0  0  0  0  0  0  0  0
  142.6861   81.3648  222.7337 H   0  0  0  0  0  0  0  0  0  0  0  0
  140.7482   81.3140  224.2888 H   0  0  0  0  0  0  0  0  0  0  0  0
  139.2038   79.3611  224.2239 H   0  0  0  0  0  0  0  0  0  0  0  0
  139.5882   77.5191  222.6442 H   0  0  0  0  0  0  0  0  0  0  0  0
  1  2  1  0
  2  3  1  0
  3  4  1  0
  4  5  1  0
  5  6  1  0
  6  7  1  0
  7  8  1  0
  8  9  2  0
  8 10  1  0
 10 11  1  0
 11 12  1  0
 12 13  2  0
 12 14  1  0
 14 15  2  0
 15 16  1  0
 16 17  2  0
 17 18  1  0
 18 19  2  0
 19 20  1  0
 20 21  2  0
 21 22  1  0
 22 23  2  0
  6 24  1  0
 24 25  2  0
 25 26  1  0
 26 27  2  0
 27 28  1  0
 28 29  2  0
 23 14  1  0
 29 24  1  0
 22 17  1  0
  1 30  1  0
  1 31  1  0
  1 32  1  0
  3 33  1  0
  3 34  1  0
  4 35  1  0
  4 36  1  0
  5 37  1  0
  5 38  1  0
  6 39  1  1
  7 40  1  0
 10 41  1  0
 10 42  1  0
 11 43  1  0
 15 44  1  0
 16 45  1  0
 18 46  1  0
 19 47  1  0
 20 48  1  0
 21 49  1  0
 25 50  1  0
 26 51  1  0
 27 52  1  0
 28 53  1  0
 29 54  1  0
M  END
>  <smiles>  (49) 
CSCCC[C@H](NC(=O)CNC(=O)c1ccc2ccccc2n1)c1ccccc1

>  <score_type>  (49) 
oracle

>  <origin>  (49) 
autodockgpu

>  <m_score__min__energy>  (49) 
-8.7400000000000002

>  <m_primary>  (49) 
energy

>  <rmsd>  (49) 
4.149725884834804

>  <m_score__min__rmsd>  (49) 
4.149725884834804

>  <meeko>  (49) 
{"free_energy": -8.46, "intermolecular_energy": -11.15, "internal_energy": -1.61, "cluster_size": 20, "cluster_id": 1, "rank_in_cluster": 7}

>  <energy>  (49) 
-7.28

>  <cluster_rmsd>  (49) 
1.24

>  <cluster>  (49) 
7

$$$$

     RDKit          3D

 54 56  0  0  0  0  0  0  0  0999 V2000
  143.9700   74.0600  220.4220 C   0  0  0  0  0  0  0  0  0  0  0  0
  143.1180   74.9780  219.1190 S   0  0  0  0  0  0  0  0  0  0  0  0
  143.3500   76.7600  219.3790 C   0  0  0  0  0  0  0  0  0  0  0  0
  142.2650   77.4770  218.6110 C   0  0  0  0  0  0  0  0  0  0  0  0
  140.9430   77.5150  219.2930 C   0  0  0  0  0  0  0  0  0  0  0  0
  140.8870   76.8960  220.6520 C   0  0  2  0  0  0  0  0  0  0  0  0
  139.8080   75.8930  220.7390 N   0  0  0  0  0  0  0  0  0  0  0  0
  139.9940   74.6730  221.4440 C   0  0  0  0  0  0  0  0  0  0  0  0
  141.1190   74.4960  221.9830 O   0  0  0  0  0  0  0  0  0  0  0  0
  138.9400   73.6310  221.5610 C   0  0  0  0  0  0  0  0  0  0  0  0
  139.2640   72.8030  222.7090 N   0  0  0  0  0  0  0  0  0  0  0  0
  138.8150   71.4520  222.7980 C   0  0  0  0  0  0  0  0  0  0  0  0
  138.1140   70.9510  221.8600 O   0  0  0  0  0  0  0  0  0  0  0  0
  139.1540   70.6380  223.9600 C   0  0  0  0  0  0  0  0  0  0  0  0
  138.8090   69.3030  223.9860 C   0  0  0  0  0  0  0  0  0  0  0  0
  139.0950   68.4710  225.0480 C   0  0  0  0  0  0  0  0  0  0  0  0
  139.7600   69.0170  226.1270 C   0  0  0  0  0  0  0  0  0  0  0  0
  140.0460   68.1850  227.1880 C   0  0  0  0  0  0  0  0  0  0  0  0
  140.7140   68.7270  228.2730 C   0  0  0  0  0  0  0  0  0  0  0  0
  141.0690   70.0660  228.2640 C   0  0  0  0  0  0  0  0  0  0  0  0
  140.7730   70.8770  227.1960 C   0  0  0  0  0  0  0  0  0  0  0  0
  140.1070   70.3570  226.1020 C   0  0  0  0  0  0  0  0  0  0  0  0
  139.8010   71.1180  225.0370 N   0  0  0  0  0  0  0  0  0  0  0  0
  140.7630   77.8870  221.7410 C   0  0  0  0  0  0  0  0  0  0  0  0
  139.5070   78.0550  222.3230 C   0  0  0  0  0  0  0  0  0  0  0  0
  139.3280   78.9700  223.3530 C   0  0  0  0  0  0  0  0  0  0  0  0
  140.3810   79.7300  223.8220 C   0  0  0  0  0  0  0  0  0  0  0  0
  141.6230   79.5600  223.2400 C   0  0  0  0  0  0  0  0  0  0  0  0
  141.8020   78.6530  222.2200 C   0  0  0  0  0  0  0  0  0  0  0  0
  143.6342   74.4218  221.4050 H   0  0  0  0  0  0  0  0  0  0  0  0
  143.7389   72.9888  220.3270 H   0  0  0  0  0  0  0  0  0  0  0  0
  145.0555   74.2107  220.3270 H   0  0  0  0  0  0  0  0  0  0  0  0
  143.2705   76.9965  220.4503 H   0  0  0  0  0  0  0  0  0  0  0  0
  144.3443   77.0758  219.0301 H   0  0  0  0  0  0  0  0  0  0  0  0
  142.5929   78.5131  218.4409 H   0  0  0  0  0  0  0  0  0  0  0  0
  142.1181   76.9115  217.6790 H   0  0  0  0  0  0  0  0  0  0  0  0
  140.6456   78.5695  219.3913 H   0  0  0  0  0  0  0  0  0  0  0  0
  140.2692   76.9129  218.6658 H   0  0  0  0  0  0  0  0  0  0  0  0
  141.8544   76.3919  220.7931 H   0  0  0  0  0  0  0  0  0  0  0  0
  138.8890   76.0770  220.2780 H   0  0  0  0  0  0  0  0  0  0  0  0
  137.9584   74.1056  221.7064 H   0  0  0  0  0  0  0  0  0  0  0  0
  138.8970   73.0218  220.6461 H   0  0  0  0  0  0  0  0  0  0  0  0
  139.8360   73.1480  223.5210 H   0  0  0  0  0  0  0  0  0  0  0  0
  138.2805   68.8817  223.1182 H   0  0  0  0  0  0  0  0  0  0  0  0
  138.8036   67.4104  225.0355 H   0  0  0  0  0  0  0  0  0  0  0  0
  139.7531   67.1248  227.1733 H   0  0  0  0  0  0  0  0  0  0  0  0
  140.9620   68.0963  229.1394 H   0  0  0  0  0  0  0  0  0  0  0  0
  141.5990   70.4885  229.1304 H   0  0  0  0  0  0  0  0  0  0  0  0
  141.0651   71.9374  227.2111 H   0  0  0  0  0  0  0  0  0  0  0  0
  138.6538   77.4602  221.9649 H   0  0  0  0  0  0  0  0  0  0  0  0
  138.3312   79.0909  223.8021 H   0  0  0  0  0  0  0  0  0  0  0  0
  140.2351   80.4527  224.6384 H   0  0  0  0  0  0  0  0  0  0  0  0
  142.4770   80.1554  223.5954 H   0  0  0  0  0  0  0  0  0  0  0  0
  142.8017   78.5372  221.7759 H   0  0  0  0  0  0  0  0  0  0  0  0
  1  2  1  0
  2  3  1  0
  3  4  1  0
  4  5  1  0
  5  6  1  0
  6  7  1  0
  7  8  1  0
  8  9  2  0
  8 10  1  0
 10 11  1  0
 11 12  1  0
 12 13  2  0
 12 14  1  0
 14 15  2  0
 15 16  1  0
 16 17  2  0
 17 18  1  0
 18 19  2  0
 19 20  1  0
 20 21  2  0
 21 22  1  0
 22 23  2  0
  6 24  1  0
 24 25  2  0
 25 26  1  0
 26 27  2  0
 27 28  1  0
 28 29  2  0
 23 14  1  0
 29 24  1  0
 22 17  1  0
  1 30  1  0
  1 31  1  0
  1 32  1  0
  3 33  1  0
  3 34  1  0
  4 35  1  0
  4 36  1  0
  5 37  1  0
  5 38  1  0
  6 39  1  1
  7 40  1  0
 10 41  1  0
 10 42  1  0
 11 43  1  0
 15 44  1  0
 16 45  1  0
 18 46  1  0
 19 47  1  0
 20 48  1  0
 21 49  1  0
 25 50  1  0
 26 51  1  0
 27 52  1  0
 28 53  1  0
 29 54  1  0
M  END
>  <smiles>  (50) 
CSCCC[C@H](NC(=O)CNC(=O)c1ccc2ccccc2n1)c1ccccc1

>  <score_type>  (50) 
oracle

>  <origin>  (50) 
autodockgpu

>  <m_score__min__energy>  (50) 
-8.7400000000000002

>  <m_primary>  (50) 
energy

>  <rmsd>  (50) 
4.328025431532463

>  <m_score__min__rmsd>  (50) 
4.328025431532463

>  <meeko>  (50) 
{"free_energy": -7.9, "intermolecular_energy": -10.59, "internal_energy": -2.18, "cluster_size": 20, "cluster_id": 1, "rank_in_cluster": 16}

>  <energy>  (50) 
-6.94

>  <cluster_rmsd>  (50) 
0.79

>  <cluster>  (50) 
7

$$$$
