
     RDKit          3D

 60 63  0  0  0  0  0  0  0  0999 V2000
  145.7980   68.5250  219.2460 C   0  0  0  0  0  0  0  0  0  0  0  0
  144.3780   68.7040  219.7140 C   0  0  0  0  0  0  0  0  0  0  0  0
  143.7620   69.7470  218.8300 C   0  0  0  0  0  0  0  0  0  0  0  0
  143.5900   69.4140  217.6290 O   0  0  0  0  0  0  0  0  0  0  0  0
  143.4010   71.0350  219.3430 N   0  0  0  0  0  0  0  0  0  0  0  0
  144.3900   71.9610  219.7890 C   0  0  0  0  0  0  0  0  0  0  0  0
  145.2070   72.4880  218.7910 C   0  0  0  0  0  0  0  0  0  0  0  0
  146.1960   73.3980  219.1870 C   0  0  0  0  0  0  0  0  0  0  0  0
  146.3220   73.7300  220.5200 C   0  0  0  0  0  0  0  0  0  0  0  0
  145.4990   73.1940  221.5060 C   0  0  0  0  0  0  0  0  0  0  0  0
  144.5250   72.3000  221.1180 C   0  0  0  0  0  0  0  0  0  0  0  0
  141.9760   71.3470  219.3760 C   0  0  0  0  0  0  0  0  0  0  0  0
  141.6610   72.4420  220.3460 C   0  0  0  0  0  0  0  0  0  0  0  0
  140.1370   72.6500  220.2690 C   0  0  0  0  0  0  0  0  0  0  0  0
  139.6350   71.5000  221.0620 N   0  0  0  0  0  0  0  0  0  0  0  0
  138.8190   71.8220  222.1530 C   0  0  0  0  0  0  0  0  0  0  0  0
  138.5940   73.0770  222.3300 O   0  0  0  0  0  0  0  0  0  0  0  0
  138.1860   70.9220  223.1260 C   0  0  2  0  0  0  0  0  0  0  0  0
  137.3180   71.5100  224.0790 N   0  0  0  0  0  0  0  0  0  0  0  0
  139.1520   69.8910  223.6650 C   0  0  0  0  0  0  0  0  0  0  0  0
  139.8980   70.4000  224.8900 C   0  0  0  0  0  0  0  0  0  0  0  0
  140.4770   71.6610  224.8200 C   0  0  0  0  0  0  0  0  0  0  0  0
  141.3090   71.8990  226.4080 S   0  0  0  0  0  0  0  0  0  0  0  0
  140.8100   70.2910  227.0280 C   0  0  0  0  0  0  0  0  0  0  0  0
  141.0810   69.7260  228.2530 C   0  0  0  0  0  0  0  0  0  0  0  0
  140.5980   68.4620  228.5600 C   0  0  0  0  0  0  0  0  0  0  0  0
  139.8520   67.8550  227.5640 C   0  0  0  0  0  0  0  0  0  0  0  0
  139.5890   68.4290  226.3490 C   0  0  0  0  0  0  0  0  0  0  0  0
  140.0830   69.7180  226.0330 C   0  0  0  0  0  0  0  0  0  0  0  0
  140.0530   70.2160  220.6180 C   0  0  0  0  0  0  0  0  0  0  0  0
  141.1370   70.1540  219.6160 C   0  0  0  0  0  0  0  0  0  0  0  0
  146.4636   68.4411  220.1178 H   0  0  0  0  0  0  0  0  0  0  0  0
  145.8716   67.6105  218.6392 H   0  0  0  0  0  0  0  0  0  0  0  0
  146.0962   69.3927  218.6392 H   0  0  0  0  0  0  0  0  0  0  0  0
  143.8266   67.7565  219.6236 H   0  0  0  0  0  0  0  0  0  0  0  0
  144.3447   69.0101  220.7700 H   0  0  0  0  0  0  0  0  0  0  0  0
  145.0809   72.2016  217.7364 H   0  0  0  0  0  0  0  0  0  0  0  0
  146.8679   73.8450  218.4395 H   0  0  0  0  0  0  0  0  0  0  0  0
  147.1032   74.4461  220.8150 H   0  0  0  0  0  0  0  0  0  0  0  0
  145.6222   73.4753  222.5622 H   0  0  0  0  0  0  0  0  0  0  0  0
  143.8549   71.8567  221.8693 H   0  0  0  0  0  0  0  0  0  0  0  0
  141.7229   71.7158  218.3711 H   0  0  0  0  0  0  0  0  0  0  0  0
  141.9559   72.1476  221.3640 H   0  0  0  0  0  0  0  0  0  0  0  0
  142.2070   73.3655  220.1032 H   0  0  0  0  0  0  0  0  0  0  0  0
  139.8399   73.6082  220.7202 H   0  0  0  0  0  0  0  0  0  0  0  0
  139.7434   72.6900  219.2426 H   0  0  0  0  0  0  0  0  0  0  0  0
  137.4471   70.3628  222.5334 H   0  0  0  0  0  0  0  0  0  0  0  0
  136.4290   71.0730  224.2800 H   0  0  0  0  0  0  0  0  0  0  0  0
  137.3610   72.5370  224.0440 H   0  0  0  0  0  0  0  0  0  0  0  0
  138.5899   68.9866  223.9410 H   0  0  0  0  0  0  0  0  0  0  0  0
  139.8918   69.6733  222.8806 H   0  0  0  0  0  0  0  0  0  0  0  0
  140.4377   72.3660  223.9765 H   0  0  0  0  0  0  0  0  0  0  0  0
  141.6820   70.2778  228.9908 H   0  0  0  0  0  0  0  0  0  0  0  0
  140.7941   67.9761  229.5272 H   0  0  0  0  0  0  0  0  0  0  0  0
  139.4463   66.8516  227.7605 H   0  0  0  0  0  0  0  0  0  0  0  0
  138.9864   67.8819  225.6090 H   0  0  0  0  0  0  0  0  0  0  0  0
  140.3913   69.6567  221.5027 H   0  0  0  0  0  0  0  0  0  0  0  0
  139.1744   69.8010  220.1024 H   0  0  0  0  0  0  0  0  0  0  0  0
  141.8137   69.3443  219.9265 H   0  0  0  0  0  0  0  0  0  0  0  0
  140.6016   70.0193  218.6646 H   0  0  0  0  0  0  0  0  0  0  0  0
  1  2  1  0
  2  3  1  0
  3  4  2  0
  3  5  1  0
  5  6  1  0
  6  7  2  0
  7  8  1  0
  8  9  2  0
  9 10  1  0
 10 11  2  0
  5 12  1  0
 12 13  1  0
 13 14  1  0
 14 15  1  0
 15 16  1  0
 16 17  2  0
 16 18  1  0
 18 19  1  0
 18 20  1  0
 20 21  1  0
 21 22  2  0
 22 23  1  0
 23 24  1  0
 24 25  2  0
 25 26  1  0
 26 27  2  0
 27 28  1  0
 28 29  2  0
 15 30  1  0
 30 31  1  0
 11  6  1  0
 31 12  1  0
 29 21  1  0
 29 24  1  0
  1 32  1  0
  1 33  1  0
  1 34  1  0
  2 35  1  0
  2 36  1  0
  7 37  1  0
  8 38  1  0
  9 39  1  0
 10 40  1  0
 11 41  1  0
 12 42  1  0
 13 43  1  0
 13 44  1  0
 14 45  1  0
 14 46  1  0
 18 47  1  6
 19 48  1  0
 19 49  1  0
 20 50  1  0
 20 51  1  0
 22 52  1  0
 25 53  1  0
 26 54  1  0
 27 55  1  0
 28 56  1  0
 30 57  1  0
 30 58  1  0
 31 59  1  0
 31 60  1  0
M  END
>  <smiles>  (1) 
CCC(=O)N(c1ccccc1)C1CCN(C(=O)[C@H](N)Cc2csc3ccccc23)CC1

>  <score_type>  (1) 
oracle

>  <origin>  (1) 
autodockgpu

>  <m_score__min__energy>  (1) 
-9.4100000000000001

>  <m_primary>  (1) 
energy

>  <rmsd>  (1) 
8.79632441780021

>  <m_score__min__rmsd>  (1) 
8.79632441780021

>  <meeko>  (1) 
{"free_energy": -7.47, "intermolecular_energy": -9.86, "internal_energy": -2.29, "cluster_size": 11, "cluster_id": 1, "rank_in_cluster": 11}

>  <energy>  (1) 
-9.41

>  <cluster_rmsd>  (1) 
0.0

>  <cluster>  (1) 
1

$$$$

     RDKit          3D

 60 63  0  0  0  0  0  0  0  0999 V2000
  146.3270   73.3690  221.8920 C   0  0  0  0  0  0  0  0  0  0  0  0
  146.1350   73.8010  220.4620 C   0  0  0  0  0  0  0  0  0  0  0  0
  144.8870   73.1280  219.9730 C   0  0  0  0  0  0  0  0  0  0  0  0
  144.5380   72.0970  220.6050 O   0  0  0  0  0  0  0  0  0  0  0  0
  144.1560   73.6430  218.8540 N   0  0  0  0  0  0  0  0  0  0  0  0
  144.8120   74.0080  217.6420 C   0  0  0  0  0  0  0  0  0  0  0  0
  144.2180   75.0480  216.9300 C   0  0  0  0  0  0  0  0  0  0  0  0
  144.8280   75.4350  215.7300 C   0  0  0  0  0  0  0  0  0  0  0  0
  145.9690   74.7850  215.3050 C   0  0  0  0  0  0  0  0  0  0  0  0
  146.5510   73.7470  216.0270 C   0  0  0  0  0  0  0  0  0  0  0  0
  145.9530   73.3660  217.2070 C   0  0  0  0  0  0  0  0  0  0  0  0
  142.7120   73.7670  219.0210 C   0  0  0  0  0  0  0  0  0  0  0  0
  142.3490   74.4640  220.2950 C   0  0  0  0  0  0  0  0  0  0  0  0
  140.8100   74.5130  220.3270 C   0  0  0  0  0  0  0  0  0  0  0  0
  140.4720   73.1250  220.7300 N   0  0  0  0  0  0  0  0  0  0  0  0
  139.6960   72.9980  221.8870 C   0  0  0  0  0  0  0  0  0  0  0  0
  139.3590   74.1010  222.4570 O   0  0  0  0  0  0  0  0  0  0  0  0
  139.2140   71.7740  222.5420 C   0  0  2  0  0  0  0  0  0  0  0  0
  138.0840   71.8980  223.3870 N   0  0  0  0  0  0  0  0  0  0  0  0
  140.3460   70.9270  223.0770 C   0  0  0  0  0  0  0  0  0  0  0  0
  139.9870   70.2750  224.4050 C   0  0  0  0  0  0  0  0  0  0  0  0
  139.2290   69.1110  224.3720 C   0  0  0  0  0  0  0  0  0  0  0  0
  138.9550   68.6650  226.1040 S   0  0  0  0  0  0  0  0  0  0  0  0
  139.8790   70.0750  226.7210 C   0  0  0  0  0  0  0  0  0  0  0  0
  140.1280   70.4270  228.0270 C   0  0  0  0  0  0  0  0  0  0  0  0
  140.8780   71.5590  228.3130 C   0  0  0  0  0  0  0  0  0  0  0  0
  141.3290   72.2650  227.2100 C   0  0  0  0  0  0  0  0  0  0  0  0
  141.0730   71.9030  225.9150 C   0  0  0  0  0  0  0  0  0  0  0  0
  140.3070   70.7490  225.6210 C   0  0  0  0  0  0  0  0  0  0  0  0
  140.9870   72.0980  219.8920 C   0  0  0  0  0  0  0  0  0  0  0  0
  142.0100   72.4730  218.8940 C   0  0  0  0  0  0  0  0  0  0  0  0
  145.9738   74.1636  222.5657 H   0  0  0  0  0  0  0  0  0  0  0  0
  145.7530   72.4492  222.0774 H   0  0  0  0  0  0  0  0  0  0  0  0
  147.3944   73.1787  222.0774 H   0  0  0  0  0  0  0  0  0  0  0  0
  146.0226   74.8939  220.4079 H   0  0  0  0  0  0  0  0  0  0  0  0
  147.0022   73.5237  219.8448 H   0  0  0  0  0  0  0  0  0  0  0  0
  143.3072   75.5448  217.2954 H   0  0  0  0  0  0  0  0  0  0  0  0
  144.4004   76.2518  215.1301 H   0  0  0  0  0  0  0  0  0  0  0  0
  146.4361   75.0992  214.3599 H   0  0  0  0  0  0  0  0  0  0  0  0
  147.4613   73.2462  215.6656 H   0  0  0  0  0  0  0  0  0  0  0  0
  146.3853   72.5491  217.8035 H   0  0  0  0  0  0  0  0  0  0  0  0
  142.3646   74.3990  218.1904 H   0  0  0  0  0  0  0  0  0  0  0  0
  142.7318   73.9030  221.1603 H   0  0  0  0  0  0  0  0  0  0  0  0
  142.7858   75.4725  220.3417 H   0  0  0  0  0  0  0  0  0  0  0  0
  140.4475   75.2441  221.0647 H   0  0  0  0  0  0  0  0  0  0  0  0
  140.3537   74.8251  219.3760 H   0  0  0  0  0  0  0  0  0  0  0  0
  138.7625   71.1914  221.7255 H   0  0  0  0  0  0  0  0  0  0  0  0
  137.3710   71.1810  223.3760 H   0  0  0  0  0  0  0  0  0  0  0  0
  137.7890   72.8790  223.4800 H   0  0  0  0  0  0  0  0  0  0  0  0
  140.5777   70.1393  222.3450 H   0  0  0  0  0  0  0  0  0  0  0  0
  141.2141   71.5821  223.2419 H   0  0  0  0  0  0  0  0  0  0  0  0
  138.8711   68.5741  223.4811 H   0  0  0  0  0  0  0  0  0  0  0  0
  139.7317   69.8098  228.8467 H   0  0  0  0  0  0  0  0  0  0  0  0
  141.0989   71.8736  229.3436 H   0  0  0  0  0  0  0  0  0  0  0  0
  141.9285   73.1705  227.3851 H   0  0  0  0  0  0  0  0  0  0  0  0
  141.4676   72.5167  225.0918 H   0  0  0  0  0  0  0  0  0  0  0  0
  141.4310   71.3327  220.5456 H   0  0  0  0  0  0  0  0  0  0  0  0
  140.1241   71.7684  219.2946 H   0  0  0  0  0  0  0  0  0  0  0  0
  142.7802   71.6880  218.9152 H   0  0  0  0  0  0  0  0  0  0  0  0
  141.4342   72.5824  217.9632 H   0  0  0  0  0  0  0  0  0  0  0  0
  1  2  1  0
  2  3  1  0
  3  4  2  0
  3  5  1  0
  5  6  1  0
  6  7  2  0
  7  8  1  0
  8  9  2  0
  9 10  1  0
 10 11  2  0
  5 12  1  0
 12 13  1  0
 13 14  1  0
 14 15  1  0
 15 16  1  0
 16 17  2  0
 16 18  1  0
 18 19  1  0
 18 20  1  0
 20 21  1  0
 21 22  2  0
 22 23  1  0
 23 24  1  0
 24 25  2  0
 25 26  1  0
 26 27  2  0
 27 28  1  0
 28 29  2  0
 15 30  1  0
 30 31  1  0
 11  6  1  0
 31 12  1  0
 29 21  1  0
 29 24  1  0
  1 32  1  0
  1 33  1  0
  1 34  1  0
  2 35  1  0
  2 36  1  0
  7 37  1  0
  8 38  1  0
  9 39  1  0
 10 40  1  0
 11 41  1  0
 12 42  1  0
 13 43  1  0
 13 44  1  0
 14 45  1  0
 14 46  1  0
 18 47  1  6
 19 48  1  0
 19 49  1  0
 20 50  1  0
 20 51  1  0
 22 52  1  0
 25 53  1  0
 26 54  1  0
 27 55  1  0
 28 56  1  0
 30 57  1  0
 30 58  1  0
 31 59  1  0
 31 60  1  0
M  END
>  <smiles>  (2) 
CCC(=O)N(c1ccccc1)C1CCN(C(=O)[C@H](N)Cc2csc3ccccc23)CC1

>  <score_type>  (2) 
oracle

>  <origin>  (2) 
autodockgpu

>  <m_score__min__energy>  (2) 
-9.4100000000000001

>  <m_primary>  (2) 
energy

>  <rmsd>  (2) 
7.532294657297144

>  <m_score__min__rmsd>  (2) 
7.532294657297144

>  <meeko>  (2) 
{"free_energy": -7.8, "intermolecular_energy": -10.19, "internal_energy": -2.3, "cluster_size": 4, "cluster_id": 2, "rank_in_cluster": 2}

>  <energy>  (2) 
-9.16

>  <cluster_rmsd>  (2) 
0.32

>  <cluster>  (2) 
1

$$$$

     RDKit          3D

 60 63  0  0  0  0  0  0  0  0999 V2000
  140.8300   83.4600  220.4140 C   0  0  0  0  0  0  0  0  0  0  0  0
  140.4010   82.6250  219.2370 C   0  0  0  0  0  0  0  0  0  0  0  0
  141.1800   81.3450  219.3110 C   0  0  0  0  0  0  0  0  0  0  0  0
  141.3740   80.8890  220.4680 O   0  0  0  0  0  0  0  0  0  0  0  0
  141.6660   80.7020  218.1260 N   0  0  0  0  0  0  0  0  0  0  0  0
  142.3270   81.4380  217.0990 C   0  0  0  0  0  0  0  0  0  0  0  0
  143.5300   82.0340  217.4720 C   0  0  0  0  0  0  0  0  0  0  0  0
  144.2100   82.7720  216.4950 C   0  0  0  0  0  0  0  0  0  0  0  0
  143.6750   82.8800  215.2270 C   0  0  0  0  0  0  0  0  0  0  0  0
  142.4710   82.2790  214.8700 C   0  0  0  0  0  0  0  0  0  0  0  0
  141.8020   81.5530  215.8300 C   0  0  0  0  0  0  0  0  0  0  0  0
  141.4530   79.2620  218.0340 C   0  0  0  0  0  0  0  0  0  0  0  0
  140.0420   78.8780  218.3560 C   0  0  0  0  0  0  0  0  0  0  0  0
  139.9780   77.3460  218.2190 C   0  0  0  0  0  0  0  0  0  0  0  0
  140.6230   76.9030  219.4810 N   0  0  0  0  0  0  0  0  0  0  0  0
  139.8550   76.0620  220.2950 C   0  0  0  0  0  0  0  0  0  0  0  0
  138.6860   75.7650  219.8450 O   0  0  0  0  0  0  0  0  0  0  0  0
  140.2010   75.4730  221.5950 C   0  0  2  0  0  0  0  0  0  0  0  0
  139.1620   74.8240  222.3060 N   0  0  0  0  0  0  0  0  0  0  0  0
  141.0920   76.3780  222.4150 C   0  0  0  0  0  0  0  0  0  0  0  0
  140.4220   77.7110  222.7150 C   0  0  0  0  0  0  0  0  0  0  0  0
  139.0340   77.7590  222.6970 C   0  0  0  0  0  0  0  0  0  0  0  0
  138.6060   79.4840  223.0360 S   0  0  0  0  0  0  0  0  0  0  0  0
  140.3210   79.9910  223.1730 C   0  0  0  0  0  0  0  0  0  0  0  0
  140.8230   81.2440  223.4420 C   0  0  0  0  0  0  0  0  0  0  0  0
  142.1930   81.4450  223.5190 C   0  0  0  0  0  0  0  0  0  0  0  0
  142.9700   80.3170  223.3090 C   0  0  0  0  0  0  0  0  0  0  0  0
  142.4570   79.0760  223.0420 C   0  0  0  0  0  0  0  0  0  0  0  0
  141.0590   78.8690  222.9620 C   0  0  0  0  0  0  0  0  0  0  0  0
  141.9370   77.3960  219.7070 C   0  0  0  0  0  0  0  0  0  0  0  0
  142.4210   78.4890  218.8390 C   0  0  0  0  0  0  0  0  0  0  0  0
  140.5640   82.9422  221.3473 H   0  0  0  0  0  0  0  0  0  0  0  0
  141.9186   83.6135  220.3773 H   0  0  0  0  0  0  0  0  0  0  0  0
  140.3209   84.4344  220.3773 H   0  0  0  0  0  0  0  0  0  0  0  0
  139.3224   82.4164  219.2930 H   0  0  0  0  0  0  0  0  0  0  0  0
  140.5905   83.1498  218.2890 H   0  0  0  0  0  0  0  0  0  0  0  0
  143.9291   81.9292  218.4917 H   0  0  0  0  0  0  0  0  0  0  0  0
  145.1645   83.2625  216.7365 H   0  0  0  0  0  0  0  0  0  0  0  0
  144.2205   83.4628  214.4702 H   0  0  0  0  0  0  0  0  0  0  0  0
  142.0665   82.3810  213.8522 H   0  0  0  0  0  0  0  0  0  0  0  0
  140.8477   81.0644  215.5838 H   0  0  0  0  0  0  0  0  0  0  0  0
  141.6334   78.9966  216.9818 H   0  0  0  0  0  0  0  0  0  0  0  0
  139.7881   79.1810  219.3825 H   0  0  0  0  0  0  0  0  0  0  0  0
  139.3260   79.3731  217.6836 H   0  0  0  0  0  0  0  0  0  0  0  0
  138.9384   76.9924  218.1545 H   0  0  0  0  0  0  0  0  0  0  0  0
  140.4622   76.9586  217.3104 H   0  0  0  0  0  0  0  0  0  0  0  0
  140.8151   74.5974  221.3376 H   0  0  0  0  0  0  0  0  0  0  0  0
  139.3930   74.1540  223.0270 H   0  0  0  0  0  0  0  0  0  0  0  0
  138.3560   74.6280  221.6980 H   0  0  0  0  0  0  0  0  0  0  0  0
  141.3299   75.8774  223.3652 H   0  0  0  0  0  0  0  0  0  0  0  0
  142.0042   76.5774  221.8335 H   0  0  0  0  0  0  0  0  0  0  0  0
  138.3411   76.9243  222.5150 H   0  0  0  0  0  0  0  0  0  0  0  0
  140.1354   82.0886  223.5964 H   0  0  0  0  0  0  0  0  0  0  0  0
  142.6321   82.4308  223.7319 H   0  0  0  0  0  0  0  0  0  0  0  0
  144.0635   80.4250  223.3598 H   0  0  0  0  0  0  0  0  0  0  0  0
  143.1406   78.2282  222.8875 H   0  0  0  0  0  0  0  0  0  0  0  0
  141.9775   77.7587  220.7447 H   0  0  0  0  0  0  0  0  0  0  0  0
  142.5956   76.5459  219.4755 H   0  0  0  0  0  0  0  0  0  0  0  0
  142.9419   79.2072  219.4894 H   0  0  0  0  0  0  0  0  0  0  0  0
  143.0282   77.9690  218.0834 H   0  0  0  0  0  0  0  0  0  0  0  0
  1  2  1  0
  2  3  1  0
  3  4  2  0
  3  5  1  0
  5  6  1  0
  6  7  2  0
  7  8  1  0
  8  9  2  0
  9 10  1  0
 10 11  2  0
  5 12  1  0
 12 13  1  0
 13 14  1  0
 14 15  1  0
 15 16  1  0
 16 17  2  0
 16 18  1  0
 18 19  1  0
 18 20  1  0
 20 21  1  0
 21 22  2  0
 22 23  1  0
 23 24  1  0
 24 25  2  0
 25 26  1  0
 26 27  2  0
 27 28  1  0
 28 29  2  0
 15 30  1  0
 30 31  1  0
 11  6  1  0
 31 12  1  0
 29 21  1  0
 29 24  1  0
  1 32  1  0
  1 33  1  0
  1 34  1  0
  2 35  1  0
  2 36  1  0
  7 37  1  0
  8 38  1  0
  9 39  1  0
 10 40  1  0
 11 41  1  0
 12 42  1  0
 13 43  1  0
 13 44  1  0
 14 45  1  0
 14 46  1  0
 18 47  1  6
 19 48  1  0
 19 49  1  0
 20 50  1  0
 20 51  1  0
 22 52  1  0
 25 53  1  0
 26 54  1  0
 27 55  1  0
 28 56  1  0
 30 57  1  0
 30 58  1  0
 31 59  1  0
 31 60  1  0
M  END
>  <smiles>  (3) 
CCC(=O)N(c1ccccc1)C1CCN(C(=O)[C@H](N)Cc2csc3ccccc23)CC1

>  <score_type>  (3) 
oracle

>  <origin>  (3) 
autodockgpu

>  <m_score__min__energy>  (3) 
-9.4100000000000001

>  <m_primary>  (3) 
energy

>  <rmsd>  (3) 
4.101425294186189

>  <m_score__min__rmsd>  (3) 
4.101425294186189

>  <meeko>  (3) 
{"free_energy": -6.39, "intermolecular_energy": -8.77, "internal_energy": -3.41, "cluster_size": 14, "cluster_id": 9, "rank_in_cluster": 13}

>  <energy>  (3) 
-9.1

>  <cluster_rmsd>  (3) 
0.5

>  <cluster>  (3) 
1

$$$$

     RDKit          3D

 60 63  0  0  0  0  0  0  0  0999 V2000
  140.1690   82.8280  220.7500 C   0  0  0  0  0  0  0  0  0  0  0  0
  140.9920   82.7740  219.4900 C   0  0  0  0  0  0  0  0  0  0  0  0
  141.6260   81.4160  219.4480 C   0  0  0  0  0  0  0  0  0  0  0  0
  141.8290   80.8720  220.5650 O   0  0  0  0  0  0  0  0  0  0  0  0
  141.9720   80.7960  218.2040 N   0  0  0  0  0  0  0  0  0  0  0  0
  142.6390   81.5220  217.1730 C   0  0  0  0  0  0  0  0  0  0  0  0
  142.1980   81.2590  215.8770 C   0  0  0  0  0  0  0  0  0  0  0  0
  142.8310   81.9470  214.8330 C   0  0  0  0  0  0  0  0  0  0  0  0
  143.8450   82.8380  215.1200 C   0  0  0  0  0  0  0  0  0  0  0  0
  144.2740   83.0890  216.4200 C   0  0  0  0  0  0  0  0  0  0  0  0
  143.6530   82.4140  217.4470 C   0  0  0  0  0  0  0  0  0  0  0  0
  141.6120   79.3910  218.0540 C   0  0  0  0  0  0  0  0  0  0  0  0
  140.1820   79.1330  218.4170 C   0  0  0  0  0  0  0  0  0  0  0  0
  139.9600   77.6220  218.2120 C   0  0  0  0  0  0  0  0  0  0  0  0
  140.6020   77.0550  219.4240 N   0  0  0  0  0  0  0  0  0  0  0  0
  139.7840   76.2550  220.2300 C   0  0  0  0  0  0  0  0  0  0  0  0
  138.5760   76.0990  219.8160 O   0  0  0  0  0  0  0  0  0  0  0  0
  140.1170   75.5710  221.4870 C   0  0  2  0  0  0  0  0  0  0  0  0
  139.0640   74.8930  222.1500 N   0  0  0  0  0  0  0  0  0  0  0  0
  141.0230   76.4000  222.3670 C   0  0  0  0  0  0  0  0  0  0  0  0
  140.3930   77.7380  222.7280 C   0  0  0  0  0  0  0  0  0  0  0  0
  139.0060   77.8260  222.7180 C   0  0  0  0  0  0  0  0  0  0  0  0
  138.6290   79.5460  223.1330 S   0  0  0  0  0  0  0  0  0  0  0  0
  140.3590   79.9980  223.2840 C   0  0  0  0  0  0  0  0  0  0  0  0
  140.8970   81.2220  223.6050 C   0  0  0  0  0  0  0  0  0  0  0  0
  142.2730   81.3810  223.6840 C   0  0  0  0  0  0  0  0  0  0  0  0
  143.0160   80.2410  223.4220 C   0  0  0  0  0  0  0  0  0  0  0  0
  142.4670   79.0280  223.1040 C   0  0  0  0  0  0  0  0  0  0  0  0
  141.0630   78.8650  223.0210 C   0  0  0  0  0  0  0  0  0  0  0  0
  141.9670   77.4040  219.6180 C   0  0  0  0  0  0  0  0  0  0  0  0
  142.5260   78.4860  218.7820 C   0  0  0  0  0  0  0  0  0  0  0  0
  140.8345   82.7843  221.6248 H   0  0  0  0  0  0  0  0  0  0  0  0
  139.5945   83.7658  220.7728 H   0  0  0  0  0  0  0  0  0  0  0  0
  139.4769   81.9733  220.7728 H   0  0  0  0  0  0  0  0  0  0  0  0
  140.3482   82.9193  218.6100 H   0  0  0  0  0  0  0  0  0  0  0  0
  141.7541   83.5672  219.4807 H   0  0  0  0  0  0  0  0  0  0  0  0
  141.3872   80.5416  215.6820 H   0  0  0  0  0  0  0  0  0  0  0  0
  142.5215   81.7778  213.7911 H   0  0  0  0  0  0  0  0  0  0  0  0
  144.3327   83.3700  214.2898 H   0  0  0  0  0  0  0  0  0  0  0  0
  145.0846   83.8049  216.6209 H   0  0  0  0  0  0  0  0  0  0  0  0
  143.9666   82.5870  218.4871 H   0  0  0  0  0  0  0  0  0  0  0  0
  141.7262   79.1624  216.9841 H   0  0  0  0  0  0  0  0  0  0  0  0
  139.9980   79.4079  219.4661 H   0  0  0  0  0  0  0  0  0  0  0  0
  139.4947   79.7296  217.7992 H   0  0  0  0  0  0  0  0  0  0  0  0
  138.8886   77.3759  218.1737 H   0  0  0  0  0  0  0  0  0  0  0  0
  140.3702   77.2350  217.2676 H   0  0  0  0  0  0  0  0  0  0  0  0
  140.7159   74.7039  221.1717 H   0  0  0  0  0  0  0  0  0  0  0  0
  139.2790   74.1300  222.7760 H   0  0  0  0  0  0  0  0  0  0  0  0
  138.2310   74.8150  221.5510 H   0  0  0  0  0  0  0  0  0  0  0  0
  141.2279   75.8420  223.2925 H   0  0  0  0  0  0  0  0  0  0  0  0
  141.9509   76.5987  221.8106 H   0  0  0  0  0  0  0  0  0  0  0  0
  138.2889   77.0200  222.5031 H   0  0  0  0  0  0  0  0  0  0  0  0
  140.2342   82.0780  223.7998 H   0  0  0  0  0  0  0  0  0  0  0  0
  142.7410   82.3438  223.9367 H   0  0  0  0  0  0  0  0  0  0  0  0
  144.1123   80.3152  223.4726 H   0  0  0  0  0  0  0  0  0  0  0  0
  143.1254   78.1684  222.9104 H   0  0  0  0  0  0  0  0  0  0  0  0
  142.0818   77.7084  220.6688 H   0  0  0  0  0  0  0  0  0  0  0  0
  142.5279   76.5057  219.3206 H   0  0  0  0  0  0  0  0  0  0  0  0
  143.1401   79.1156  219.4426 H   0  0  0  0  0  0  0  0  0  0  0  0
  143.0489   77.9468  217.9784 H   0  0  0  0  0  0  0  0  0  0  0  0
  1  2  1  0
  2  3  1  0
  3  4  2  0
  3  5  1  0
  5  6  1  0
  6  7  2  0
  7  8  1  0
  8  9  2  0
  9 10  1  0
 10 11  2  0
  5 12  1  0
 12 13  1  0
 13 14  1  0
 14 15  1  0
 15 16  1  0
 16 17  2  0
 16 18  1  0
 18 19  1  0
 18 20  1  0
 20 21  1  0
 21 22  2  0
 22 23  1  0
 23 24  1  0
 24 25  2  0
 25 26  1  0
 26 27  2  0
 27 28  1  0
 28 29  2  0
 15 30  1  0
 30 31  1  0
 11  6  1  0
 31 12  1  0
 29 21  1  0
 29 24  1  0
  1 32  1  0
  1 33  1  0
  1 34  1  0
  2 35  1  0
  2 36  1  0
  7 37  1  0
  8 38  1  0
  9 39  1  0
 10 40  1  0
 11 41  1  0
 12 42  1  0
 13 43  1  0
 13 44  1  0
 14 45  1  0
 14 46  1  0
 18 47  1  6
 19 48  1  0
 19 49  1  0
 20 50  1  0
 20 51  1  0
 22 52  1  0
 25 53  1  0
 26 54  1  0
 27 55  1  0
 28 56  1  0
 30 57  1  0
 30 58  1  0
 31 59  1  0
 31 60  1  0
M  END
>  <smiles>  (4) 
CCC(=O)N(c1ccccc1)C1CCN(C(=O)[C@H](N)Cc2csc3ccccc23)CC1

>  <score_type>  (4) 
oracle

>  <origin>  (4) 
autodockgpu

>  <m_score__min__energy>  (4) 
-9.4100000000000001

>  <m_primary>  (4) 
energy

>  <rmsd>  (4) 
4.053201025045037

>  <m_score__min__rmsd>  (4) 
4.053201025045037

>  <meeko>  (4) 
{"free_energy": -6.59, "intermolecular_energy": -8.98, "internal_energy": -3.46, "cluster_size": 14, "cluster_id": 9, "rank_in_cluster": 12}

>  <energy>  (4) 
-9.06

>  <cluster_rmsd>  (4) 
0.32

>  <cluster>  (4) 
1

$$$$

     RDKit          3D

 60 63  0  0  0  0  0  0  0  0999 V2000
  143.3910   75.9510  219.0040 C   0  0  0  0  0  0  0  0  0  0  0  0
  142.3290   76.7880  219.6660 C   0  0  0  0  0  0  0  0  0  0  0  0
  141.7260   75.9420  220.7480 C   0  0  0  0  0  0  0  0  0  0  0  0
  142.3850   74.9210  221.0750 O   0  0  0  0  0  0  0  0  0  0  0  0
  140.4770   76.2930  221.3550 N   0  0  0  0  0  0  0  0  0  0  0  0
  140.3390   77.4730  222.1430 C   0  0  0  0  0  0  0  0  0  0  0  0
  141.4070   77.7500  222.9950 C   0  0  0  0  0  0  0  0  0  0  0  0
  141.3100   78.8980  223.7920 C   0  0  0  0  0  0  0  0  0  0  0  0
  140.1860   79.6940  223.7060 C   0  0  0  0  0  0  0  0  0  0  0  0
  139.1270   79.4050  222.8510 C   0  0  0  0  0  0  0  0  0  0  0  0
  139.2210   78.2760  222.0660 C   0  0  0  0  0  0  0  0  0  0  0  0
  139.3610   75.3840  221.1180 C   0  0  0  0  0  0  0  0  0  0  0  0
  138.5110   75.2040  222.3380 C   0  0  0  0  0  0  0  0  0  0  0  0
  137.3910   74.2270  221.9330 C   0  0  0  0  0  0  0  0  0  0  0  0
  138.1020   72.9240  221.9630 N   0  0  0  0  0  0  0  0  0  0  0  0
  137.5530   71.9500  222.8050 C   0  0  0  0  0  0  0  0  0  0  0  0
  136.4910   72.2990  223.4430 O   0  0  0  0  0  0  0  0  0  0  0  0
  138.0260   70.5830  223.0610 C   0  0  2  0  0  0  0  0  0  0  0  0
  137.3370   69.8370  224.0500 N   0  0  0  0  0  0  0  0  0  0  0  0
  139.5340   70.4980  223.1060 C   0  0  0  0  0  0  0  0  0  0  0  0
  140.0690   70.6610  224.5210 C   0  0  0  0  0  0  0  0  0  0  0  0
  140.6230   71.8870  224.8680 C   0  0  0  0  0  0  0  0  0  0  0  0
  141.1930   71.6930  226.5750 S   0  0  0  0  0  0  0  0  0  0  0  0
  140.6380   69.9890  226.6750 C   0  0  0  0  0  0  0  0  0  0  0  0
  140.7280   69.1230  227.7410 C   0  0  0  0  0  0  0  0  0  0  0  0
  140.2310   67.8330  227.6350 C   0  0  0  0  0  0  0  0  0  0  0  0
  139.6620   67.5150  226.4120 C   0  0  0  0  0  0  0  0  0  0  0  0
  139.5800   68.3880  225.3590 C   0  0  0  0  0  0  0  0  0  0  0  0
  140.0880   69.7050  225.4660 C   0  0  0  0  0  0  0  0  0  0  0  0
  139.2560   72.8330  221.1390 C   0  0  0  0  0  0  0  0  0  0  0  0
  139.7910   74.0840  220.5630 C   0  0  0  0  0  0  0  0  0  0  0  0
  144.0078   75.4649  219.7742 H   0  0  0  0  0  0  0  0  0  0  0  0
  142.9146   75.1829  218.3770 H   0  0  0  0  0  0  0  0  0  0  0  0
  144.0265   76.5937  218.3770 H   0  0  0  0  0  0  0  0  0  0  0  0
  142.7762   77.6951  220.0988 H   0  0  0  0  0  0  0  0  0  0  0  0
  141.5658   77.1055  218.9403 H   0  0  0  0  0  0  0  0  0  0  0  0
  142.2892   77.0945  223.0396 H   0  0  0  0  0  0  0  0  0  0  0  0
  142.1246   79.1632  224.4820 H   0  0  0  0  0  0  0  0  0  0  0  0
  140.1249   80.5922  224.3381 H   0  0  0  0  0  0  0  0  0  0  0  0
  138.2425   80.0571  222.8031 H   0  0  0  0  0  0  0  0  0  0  0  0
  138.4035   78.0155  221.3776 H   0  0  0  0  0  0  0  0  0  0  0  0
  138.7373   75.8652  220.3503 H   0  0  0  0  0  0  0  0  0  0  0  0
  139.1072   74.7825  223.1607 H   0  0  0  0  0  0  0  0  0  0  0  0
  138.1024   76.1627  222.6901 H   0  0  0  0  0  0  0  0  0  0  0  0
  136.5609   74.2474  222.6545 H   0  0  0  0  0  0  0  0  0  0  0  0
  136.9252   74.4590  220.9639 H   0  0  0  0  0  0  0  0  0  0  0  0
  137.7191   70.0205  222.1669 H   0  0  0  0  0  0  0  0  0  0  0  0
  137.1850   68.8480  223.9120 H   0  0  0  0  0  0  0  0  0  0  0  0
  136.5860   70.3910  224.4840 H   0  0  0  0  0  0  0  0  0  0  0  0
  139.8467   69.5173  222.7183 H   0  0  0  0  0  0  0  0  0  0  0  0
  139.9402   71.3150  222.4915 H   0  0  0  0  0  0  0  0  0  0  0  0
  140.6991   72.7857  224.2383 H   0  0  0  0  0  0  0  0  0  0  0  0
  141.1955   69.4553  228.6796 H   0  0  0  0  0  0  0  0  0  0  0  0
  140.2846   67.1120  228.4640 H   0  0  0  0  0  0  0  0  0  0  0  0
  139.2523   66.5029  226.2788 H   0  0  0  0  0  0  0  0  0  0  0  0
  139.1133   68.0611  224.4181 H   0  0  0  0  0  0  0  0  0  0  0  0
  140.0563   72.3816  221.7438 H   0  0  0  0  0  0  0  0  0  0  0  0
  138.9296   72.2445  220.2689 H   0  0  0  0  0  0  0  0  0  0  0  0
  140.8855   74.0398  220.6635 H   0  0  0  0  0  0  0  0  0  0  0  0
  139.3834   74.0924  219.5414 H   0  0  0  0  0  0  0  0  0  0  0  0
  1  2  1  0
  2  3  1  0
  3  4  2  0
  3  5  1  0
  5  6  1  0
  6  7  2  0
  7  8  1  0
  8  9  2  0
  9 10  1  0
 10 11  2  0
  5 12  1  0
 12 13  1  0
 13 14  1  0
 14 15  1  0
 15 16  1  0
 16 17  2  0
 16 18  1  0
 18 19  1  0
 18 20  1  0
 20 21  1  0
 21 22  2  0
 22 23  1  0
 23 24  1  0
 24 25  2  0
 25 26  1  0
 26 27  2  0
 27 28  1  0
 28 29  2  0
 15 30  1  0
 30 31  1  0
 11  6  1  0
 31 12  1  0
 29 21  1  0
 29 24  1  0
  1 32  1  0
  1 33  1  0
  1 34  1  0
  2 35  1  0
  2 36  1  0
  7 37  1  0
  8 38  1  0
  9 39  1  0
 10 40  1  0
 11 41  1  0
 12 42  1  0
 13 43  1  0
 13 44  1  0
 14 45  1  0
 14 46  1  0
 18 47  1  6
 19 48  1  0
 19 49  1  0
 20 50  1  0
 20 51  1  0
 22 52  1  0
 25 53  1  0
 26 54  1  0
 27 55  1  0
 28 56  1  0
 30 57  1  0
 30 58  1  0
 31 59  1  0
 31 60  1  0
M  END
>  <smiles>  (5) 
CCC(=O)N(c1ccccc1)C1CCN(C(=O)[C@H](N)Cc2csc3ccccc23)CC1

>  <score_type>  (5) 
oracle

>  <origin>  (5) 
autodockgpu

>  <m_score__min__energy>  (5) 
-9.4100000000000001

>  <m_primary>  (5) 
energy

>  <rmsd>  (5) 
7.572292126295351

>  <m_score__min__rmsd>  (5) 
7.572292126295351

>  <meeko>  (5) 
{"free_energy": -7.33, "intermolecular_energy": -9.72, "internal_energy": -2.27, "cluster_size": 2, "cluster_id": 6, "rank_in_cluster": 2}

>  <energy>  (5) 
-8.72

>  <cluster_rmsd>  (5) 
1.07

>  <cluster>  (5) 
1

$$$$

     RDKit          3D

 60 63  0  0  0  0  0  0  0  0999 V2000
  135.5930   69.2860  225.0380 C   0  0  0  0  0  0  0  0  0  0  0  0
  136.5200   69.4300  223.8600 C   0  0  0  0  0  0  0  0  0  0  0  0
  137.2480   70.7290  224.0410 C   0  0  0  0  0  0  0  0  0  0  0  0
  136.5240   71.7360  224.2550 O   0  0  0  0  0  0  0  0  0  0  0  0
  138.6770   70.7950  223.9690 N   0  0  0  0  0  0  0  0  0  0  0  0
  139.4970   70.3430  225.0450 C   0  0  0  0  0  0  0  0  0  0  0  0
  139.6180   68.9590  225.1610 C   0  0  0  0  0  0  0  0  0  0  0  0
  140.4110   68.4710  226.2080 C   0  0  0  0  0  0  0  0  0  0  0  0
  141.0270   69.3580  227.0670 C   0  0  0  0  0  0  0  0  0  0  0  0
  140.8960   70.7380  226.9380 C   0  0  0  0  0  0  0  0  0  0  0  0
  140.1180   71.2190  225.9090 C   0  0  0  0  0  0  0  0  0  0  0  0
  139.2420   71.3430  222.7410 C   0  0  0  0  0  0  0  0  0  0  0  0
  140.6170   71.8970  222.9500 C   0  0  0  0  0  0  0  0  0  0  0  0
  141.0700   72.4330  221.5800 C   0  0  0  0  0  0  0  0  0  0  0  0
  140.3260   73.7140  221.4960 N   0  0  0  0  0  0  0  0  0  0  0  0
  141.1060   74.8610  221.3080 C   0  0  0  0  0  0  0  0  0  0  0  0
  142.3740   74.6650  221.2200 O   0  0  0  0  0  0  0  0  0  0  0  0
  140.6720   76.2610  221.2010 C   0  0  2  0  0  0  0  0  0  0  0  0
  141.6490   77.2100  220.8110 N   0  0  0  0  0  0  0  0  0  0  0  0
  139.7760   76.6730  222.3460 C   0  0  0  0  0  0  0  0  0  0  0  0
  139.5880   78.1820  222.4030 C   0  0  0  0  0  0  0  0  0  0  0  0
  138.4020   78.7080  221.9030 C   0  0  0  0  0  0  0  0  0  0  0  0
  138.5560   80.5010  222.0830 S   0  0  0  0  0  0  0  0  0  0  0  0
  140.1920   80.3920  222.8120 C   0  0  0  0  0  0  0  0  0  0  0  0
  141.0030   81.4140  223.2470 C   0  0  0  0  0  0  0  0  0  0  0  0
  142.2460   81.1330  223.7970 C   0  0  0  0  0  0  0  0  0  0  0  0
  142.5740   79.7890  223.8630 C   0  0  0  0  0  0  0  0  0  0  0  0
  141.7560   78.7810  223.4260 C   0  0  0  0  0  0  0  0  0  0  0  0
  140.4890   79.0660  222.8630 C   0  0  0  0  0  0  0  0  0  0  0  0
  138.9130   73.6160  221.6250 C   0  0  0  0  0  0  0  0  0  0  0  0
  138.3540   72.3320  222.0950 C   0  0  0  0  0  0  0  0  0  0  0  0
  136.1689   69.3755  225.9709 H   0  0  0  0  0  0  0  0  0  0  0  0
  134.8286   70.0762  225.0018 H   0  0  0  0  0  0  0  0  0  0  0  0
  135.1043   68.3012  225.0018 H   0  0  0  0  0  0  0  0  0  0  0  0
  137.2353   68.5946  223.8361 H   0  0  0  0  0  0  0  0  0  0  0  0
  135.9610   69.4182  222.9127 H   0  0  0  0  0  0  0  0  0  0  0  0
  139.1122   68.2787  224.4600 H   0  0  0  0  0  0  0  0  0  0  0  0
  140.5417   67.3873  226.3444 H   0  0  0  0  0  0  0  0  0  0  0  0
  141.6452   68.9595  227.8850 H   0  0  0  0  0  0  0  0  0  0  0  0
  141.3986   71.4230  227.6367 H   0  0  0  0  0  0  0  0  0  0  0  0
  139.9919   72.3037  225.7763 H   0  0  0  0  0  0  0  0  0  0  0  0
  139.3311   70.4954  222.0456 H   0  0  0  0  0  0  0  0  0  0  0  0
  140.5931   72.7105  223.6900 H   0  0  0  0  0  0  0  0  0  0  0  0
  141.3072   71.1301  223.3314 H   0  0  0  0  0  0  0  0  0  0  0  0
  142.1572   72.5985  221.5539 H   0  0  0  0  0  0  0  0  0  0  0  0
  140.8712   71.7460  220.7442 H   0  0  0  0  0  0  0  0  0  0  0  0
  140.0376   76.2774  220.3025 H   0  0  0  0  0  0  0  0  0  0  0  0
  141.4680   77.8190  220.0250 H   0  0  0  0  0  0  0  0  0  0  0  0
  142.6020   76.8410  220.9330 H   0  0  0  0  0  0  0  0  0  0  0  0
  138.7929   76.1965  222.2178 H   0  0  0  0  0  0  0  0  0  0  0  0
  140.2519   76.3525  223.2845 H   0  0  0  0  0  0  0  0  0  0  0  0
  137.5499   78.1512  221.4860 H   0  0  0  0  0  0  0  0  0  0  0  0
  140.6656   82.4572  223.1588 H   0  0  0  0  0  0  0  0  0  0  0  0
  142.9231   81.9224  224.1553 H   0  0  0  0  0  0  0  0  0  0  0  0
  143.5492   79.5148  224.2918 H   0  0  0  0  0  0  0  0  0  0  0  0
  142.0882   77.7360  223.5137 H   0  0  0  0  0  0  0  0  0  0  0  0
  138.5932   74.3931  222.3349 H   0  0  0  0  0  0  0  0  0  0  0  0
  138.5318   73.7264  220.5991 H   0  0  0  0  0  0  0  0  0  0  0  0
  137.5636   72.5740  222.8208 H   0  0  0  0  0  0  0  0  0  0  0  0
  138.0430   71.8311  221.1664 H   0  0  0  0  0  0  0  0  0  0  0  0
  1  2  1  0
  2  3  1  0
  3  4  2  0
  3  5  1  0
  5  6  1  0
  6  7  2  0
  7  8  1  0
  8  9  2  0
  9 10  1  0
 10 11  2  0
  5 12  1  0
 12 13  1  0
 13 14  1  0
 14 15  1  0
 15 16  1  0
 16 17  2  0
 16 18  1  0
 18 19  1  0
 18 20  1  0
 20 21  1  0
 21 22  2  0
 22 23  1  0
 23 24  1  0
 24 25  2  0
 25 26  1  0
 26 27  2  0
 27 28  1  0
 28 29  2  0
 15 30  1  0
 30 31  1  0
 11  6  1  0
 31 12  1  0
 29 21  1  0
 29 24  1  0
  1 32  1  0
  1 33  1  0
  1 34  1  0
  2 35  1  0
  2 36  1  0
  7 37  1  0
  8 38  1  0
  9 39  1  0
 10 40  1  0
 11 41  1  0
 12 42  1  0
 13 43  1  0
 13 44  1  0
 14 45  1  0
 14 46  1  0
 18 47  1  6
 19 48  1  0
 19 49  1  0
 20 50  1  0
 20 51  1  0
 22 52  1  0
 25 53  1  0
 26 54  1  0
 27 55  1  0
 28 56  1  0
 30 57  1  0
 30 58  1  0
 31 59  1  0
 31 60  1  0
M  END
>  <smiles>  (6) 
CCC(=O)N(c1ccccc1)C1CCN(C(=O)[C@H](N)Cc2csc3ccccc23)CC1

>  <score_type>  (6) 
oracle

>  <origin>  (6) 
autodockgpu

>  <m_score__min__energy>  (6) 
-9.4100000000000001

>  <m_primary>  (6) 
energy

>  <rmsd>  (6) 
6.84165854784813

>  <m_score__min__rmsd>  (6) 
6.84165854784813

>  <meeko>  (6) 
{"free_energy": -8.03, "intermolecular_energy": -10.42, "internal_energy": -2.11, "cluster_size": 9, "cluster_id": 3, "rank_in_cluster": 5}

>  <energy>  (6) 
-8.16

>  <cluster_rmsd>  (6) 
1.0

>  <cluster>  (6) 
1

$$$$

     RDKit          3D

 60 63  0  0  0  0  0  0  0  0999 V2000
  140.6720   83.1710  220.8770 C   0  0  0  0  0  0  0  0  0  0  0  0
  140.7090   82.7130  219.4430 C   0  0  0  0  0  0  0  0  0  0  0  0
  141.4920   81.4340  219.4190 C   0  0  0  0  0  0  0  0  0  0  0  0
  141.7920   80.9560  220.5440 O   0  0  0  0  0  0  0  0  0  0  0  0
  141.8640   80.8140  218.1830 N   0  0  0  0  0  0  0  0  0  0  0  0
  142.5420   81.5420  217.1610 C   0  0  0  0  0  0  0  0  0  0  0  0
  142.1470   81.2500  215.8570 C   0  0  0  0  0  0  0  0  0  0  0  0
  142.7920   81.9400  214.8220 C   0  0  0  0  0  0  0  0  0  0  0  0
  143.7730   82.8610  215.1250 C   0  0  0  0  0  0  0  0  0  0  0  0
  144.1580   83.1420  216.4330 C   0  0  0  0  0  0  0  0  0  0  0  0
  143.5240   82.4650  217.4520 C   0  0  0  0  0  0  0  0  0  0  0  0
  141.5190   79.4050  218.0310 C   0  0  0  0  0  0  0  0  0  0  0  0
  140.1070   79.1230  218.4390 C   0  0  0  0  0  0  0  0  0  0  0  0
  139.8990   77.6110  218.2270 C   0  0  0  0  0  0  0  0  0  0  0  0
  140.5900   77.0420  219.4110 N   0  0  0  0  0  0  0  0  0  0  0  0
  139.8110   76.2230  220.2360 C   0  0  0  0  0  0  0  0  0  0  0  0
  138.5920   76.0520  219.8620 O   0  0  0  0  0  0  0  0  0  0  0  0
  140.1960   75.5310  221.4740 C   0  0  2  0  0  0  0  0  0  0  0  0
  139.1890   74.7880  222.1370 N   0  0  0  0  0  0  0  0  0  0  0  0
  141.0720   76.3880  222.3590 C   0  0  0  0  0  0  0  0  0  0  0  0
  140.4010   77.7070  222.7130 C   0  0  0  0  0  0  0  0  0  0  0  0
  139.0120   77.7500  222.7130 C   0  0  0  0  0  0  0  0  0  0  0  0
  138.5820   79.4610  223.1160 S   0  0  0  0  0  0  0  0  0  0  0  0
  140.2980   79.9690  223.2500 C   0  0  0  0  0  0  0  0  0  0  0  0
  140.7980   81.2140  223.5560 C   0  0  0  0  0  0  0  0  0  0  0  0
  142.1680   81.4180  223.6230 C   0  0  0  0  0  0  0  0  0  0  0  0
  142.9470   80.3010  223.3660 C   0  0  0  0  0  0  0  0  0  0  0  0
  142.4350   79.0670  223.0630 C   0  0  0  0  0  0  0  0  0  0  0  0
  141.0360   78.8580  222.9920 C   0  0  0  0  0  0  0  0  0  0  0  0
  141.9550   77.4090  219.5630 C   0  0  0  0  0  0  0  0  0  0  0  0
  142.4700   78.5070  218.7190 C   0  0  0  0  0  0  0  0  0  0  0  0
  140.7425   82.2981  221.5426 H   0  0  0  0  0  0  0  0  0  0  0  0
  141.5184   83.8471  221.0679 H   0  0  0  0  0  0  0  0  0  0  0  0
  139.7280   83.7024  221.0679 H   0  0  0  0  0  0  0  0  0  0  0  0
  139.6874   82.5390  219.0741 H   0  0  0  0  0  0  0  0  0  0  0  0
  141.1727   83.4729  218.7968 H   0  0  0  0  0  0  0  0  0  0  0  0
  141.3615   80.5086  215.6488 H   0  0  0  0  0  0  0  0  0  0  0  0
  142.5177   81.7483  213.7742 H   0  0  0  0  0  0  0  0  0  0  0  0
  144.2704   83.3941  214.3013 H   0  0  0  0  0  0  0  0  0  0  0  0
  144.9439   83.8815  216.6464 H   0  0  0  0  0  0  0  0  0  0  0  0
  143.8015   82.6610  218.4982 H   0  0  0  0  0  0  0  0  0  0  0  0
  141.6000   79.1880  216.9557 H   0  0  0  0  0  0  0  0  0  0  0  0
  139.9547   79.3855  219.4963 H   0  0  0  0  0  0  0  0  0  0  0  0
  139.3910   79.7152  217.8502 H   0  0  0  0  0  0  0  0  0  0  0  0
  138.8304   77.3502  218.2229 H   0  0  0  0  0  0  0  0  0  0  0  0
  140.2819   77.2386  217.2654 H   0  0  0  0  0  0  0  0  0  0  0  0
  140.8323   74.7012  221.1325 H   0  0  0  0  0  0  0  0  0  0  0  0
  138.2600   74.7430  221.7420 H   0  0  0  0  0  0  0  0  0  0  0  0
  139.2830   74.8550  223.1590 H   0  0  0  0  0  0  0  0  0  0  0  0
  141.2869   75.8378  223.2869 H   0  0  0  0  0  0  0  0  0  0  0  0
  141.9975   76.6127  221.8085 H   0  0  0  0  0  0  0  0  0  0  0  0
  138.3199   76.9193  222.5107 H   0  0  0  0  0  0  0  0  0  0  0  0
  140.1090   82.0497  223.7480 H   0  0  0  0  0  0  0  0  0  0  0  0
  142.6059   82.3981  223.8634 H   0  0  0  0  0  0  0  0  0  0  0  0
  144.0406   80.4118  223.4077 H   0  0  0  0  0  0  0  0  0  0  0  0
  143.1195   78.2273  222.8723 H   0  0  0  0  0  0  0  0  0  0  0  0
  142.1004   77.7055  220.6123 H   0  0  0  0  0  0  0  0  0  0  0  0
  142.5187   76.5218  219.2388 H   0  0  0  0  0  0  0  0  0  0  0  0
  143.0970   79.1395  219.3647 H   0  0  0  0  0  0  0  0  0  0  0  0
  142.9733   77.9830  217.8931 H   0  0  0  0  0  0  0  0  0  0  0  0
  1  2  1  0
  2  3  1  0
  3  4  2  0
  3  5  1  0
  5  6  1  0
  6  7  2  0
  7  8  1  0
  8  9  2  0
  9 10  1  0
 10 11  2  0
  5 12  1  0
 12 13  1  0
 13 14  1  0
 14 15  1  0
 15 16  1  0
 16 17  2  0
 16 18  1  0
 18 19  1  0
 18 20  1  0
 20 21  1  0
 21 22  2  0
 22 23  1  0
 23 24  1  0
 24 25  2  0
 25 26  1  0
 26 27  2  0
 27 28  1  0
 28 29  2  0
 15 30  1  0
 30 31  1  0
 11  6  1  0
 31 12  1  0
 29 21  1  0
 29 24  1  0
  1 32  1  0
  1 33  1  0
  1 34  1  0
  2 35  1  0
  2 36  1  0
  7 37  1  0
  8 38  1  0
  9 39  1  0
 10 40  1  0
 11 41  1  0
 12 42  1  0
 13 43  1  0
 13 44  1  0
 14 45  1  0
 14 46  1  0
 18 47  1  6
 19 48  1  0
 19 49  1  0
 20 50  1  0
 20 51  1  0
 22 52  1  0
 25 53  1  0
 26 54  1  0
 27 55  1  0
 28 56  1  0
 30 57  1  0
 30 58  1  0
 31 59  1  0
 31 60  1  0
M  END
>  <smiles>  (7) 
CCC(=O)N(c1ccccc1)C1CCN(C(=O)[C@H](N)Cc2csc3ccccc23)CC1

>  <score_type>  (7) 
oracle

>  <origin>  (7) 
autodockgpu

>  <m_score__min__energy>  (7) 
-9.4100000000000001

>  <m_primary>  (7) 
energy

>  <rmsd>  (7) 
4.046277932816471

>  <m_score__min__rmsd>  (7) 
4.046277932816471

>  <meeko>  (7) 
{"free_energy": -6.75, "intermolecular_energy": -9.14, "internal_energy": -3.34, "cluster_size": 14, "cluster_id": 9, "rank_in_cluster": 1}

>  <energy>  (7) 
-8.02

>  <cluster_rmsd>  (7) 
1.42

>  <cluster>  (7) 
1

$$$$

     RDKit          3D

 60 63  0  0  0  0  0  0  0  0999 V2000
  138.6890   71.0650  223.7370 C   0  0  0  0  0  0  0  0  0  0  0  0
  138.6820   71.6400  222.3450 C   0  0  0  0  0  0  0  0  0  0  0  0
  139.6740   72.7650  222.3380 C   0  0  0  0  0  0  0  0  0  0  0  0
  140.7140   72.5810  223.0220 O   0  0  0  0  0  0  0  0  0  0  0  0
  139.4300   73.9650  221.5960 N   0  0  0  0  0  0  0  0  0  0  0  0
  138.3880   74.8670  221.9620 C   0  0  0  0  0  0  0  0  0  0  0  0
  138.8080   76.1370  222.3550 C   0  0  0  0  0  0  0  0  0  0  0  0
  137.8160   77.0520  222.7280 C   0  0  0  0  0  0  0  0  0  0  0  0
  136.4900   76.6720  222.6960 C   0  0  0  0  0  0  0  0  0  0  0  0
  136.0860   75.4000  222.3020 C   0  0  0  0  0  0  0  0  0  0  0  0
  137.0600   74.4980  221.9330 C   0  0  0  0  0  0  0  0  0  0  0  0
  140.3060   74.2150  220.4560 C   0  0  0  0  0  0  0  0  0  0  0  0
  141.5450   74.9580  220.8480 C   0  0  0  0  0  0  0  0  0  0  0  0
  142.3540   75.1450  219.5510 C   0  0  0  0  0  0  0  0  0  0  0  0
  141.6240   76.2600  218.8980 N   0  0  0  0  0  0  0  0  0  0  0  0
  142.3880   77.3930  218.5930 C   0  0  0  0  0  0  0  0  0  0  0  0
  143.6350   77.3250  218.9060 O   0  0  0  0  0  0  0  0  0  0  0  0
  141.9590   78.6500  217.9660 C   0  0  2  0  0  0  0  0  0  0  0  0
  142.9760   79.5680  217.6020 N   0  0  0  0  0  0  0  0  0  0  0  0
  140.7480   79.2450  218.6450 C   0  0  0  0  0  0  0  0  0  0  0  0
  141.1310   80.0680  219.8670 C   0  0  0  0  0  0  0  0  0  0  0  0
  141.3210   81.4340  219.6960 C   0  0  0  0  0  0  0  0  0  0  0  0
  141.8120   82.0590  221.3210 S   0  0  0  0  0  0  0  0  0  0  0  0
  141.7200   80.4390  222.0880 C   0  0  0  0  0  0  0  0  0  0  0  0
  141.9660   80.0990  223.3980 C   0  0  0  0  0  0  0  0  0  0  0  0
  141.8330   78.7820  223.8130 C   0  0  0  0  0  0  0  0  0  0  0  0
  141.4470   77.8870  222.8290 C   0  0  0  0  0  0  0  0  0  0  0  0
  141.2040   78.2390  221.5280 C   0  0  0  0  0  0  0  0  0  0  0  0
  141.3410   79.5830  221.1030 C   0  0  0  0  0  0  0  0  0  0  0  0
  140.2380   76.0400  218.6720 C   0  0  0  0  0  0  0  0  0  0  0  0
  139.6080   74.8800  219.3360 C   0  0  0  0  0  0  0  0  0  0  0  0
  138.6790   71.8835  224.4719 H   0  0  0  0  0  0  0  0  0  0  0  0
  137.7984   70.4349  223.8779 H   0  0  0  0  0  0  0  0  0  0  0  0
  139.5946   70.4567  223.8779 H   0  0  0  0  0  0  0  0  0  0  0  0
  138.9761   70.8708  221.6157 H   0  0  0  0  0  0  0  0  0  0  0  0
  137.6784   71.9959  222.0691 H   0  0  0  0  0  0  0  0  0  0  0  0
  139.8738   76.4087  222.3713 H   0  0  0  0  0  0  0  0  0  0  0  0
  138.0923   78.0685  223.0449 H   0  0  0  0  0  0  0  0  0  0  0  0
  135.7230   77.4023  222.9933 H   0  0  0  0  0  0  0  0  0  0  0  0
  135.0216   75.1231  222.2856 H   0  0  0  0  0  0  0  0  0  0  0  0
  136.7780   73.4834  221.6152 H   0  0  0  0  0  0  0  0  0  0  0  0
  140.6188   73.2253  220.0918 H   0  0  0  0  0  0  0  0  0  0  0  0
  141.2843   75.9353  221.2804 H   0  0  0  0  0  0  0  0  0  0  0  0
  142.1213   74.4094  221.6076 H   0  0  0  0  0  0  0  0  0  0  0  0
  143.3972   75.4201  219.7655 H   0  0  0  0  0  0  0  0  0  0  0  0
  142.4250   74.2367  218.9346 H   0  0  0  0  0  0  0  0  0  0  0  0
  141.6226   78.3494  216.9628 H   0  0  0  0  0  0  0  0  0  0  0  0
  142.8950   80.0850  216.7370 H   0  0  0  0  0  0  0  0  0  0  0  0
  143.9050   79.2320  217.8860 H   0  0  0  0  0  0  0  0  0  0  0  0
  140.2219   79.8940  217.9295 H   0  0  0  0  0  0  0  0  0  0  0  0
  140.1030   78.4186  218.9784 H   0  0  0  0  0  0  0  0  0  0  0  0
  141.1987   82.0128  218.7686 H   0  0  0  0  0  0  0  0  0  0  0  0
  142.2689   80.8733  224.1182 H   0  0  0  0  0  0  0  0  0  0  0  0
  142.0209   78.4703  224.8510 H   0  0  0  0  0  0  0  0  0  0  0  0
  141.3285   76.8299  223.1093 H   0  0  0  0  0  0  0  0  0  0  0  0
  140.8988   77.4687  220.8045 H   0  0  0  0  0  0  0  0  0  0  0  0
  139.7036   76.9408  219.0082 H   0  0  0  0  0  0  0  0  0  0  0  0
  140.1641   75.8182  217.5971 H   0  0  0  0  0  0  0  0  0  0  0  0
  138.6362   75.2213  219.7222 H   0  0  0  0  0  0  0  0  0  0  0  0
  139.5898   74.1108  218.5498 H   0  0  0  0  0  0  0  0  0  0  0  0
  1  2  1  0
  2  3  1  0
  3  4  2  0
  3  5  1  0
  5  6  1  0
  6  7  2  0
  7  8  1  0
  8  9  2  0
  9 10  1  0
 10 11  2  0
  5 12  1  0
 12 13  1  0
 13 14  1  0
 14 15  1  0
 15 16  1  0
 16 17  2  0
 16 18  1  0
 18 19  1  0
 18 20  1  0
 20 21  1  0
 21 22  2  0
 22 23  1  0
 23 24  1  0
 24 25  2  0
 25 26  1  0
 26 27  2  0
 27 28  1  0
 28 29  2  0
 15 30  1  0
 30 31  1  0
 11  6  1  0
 31 12  1  0
 29 21  1  0
 29 24  1  0
  1 32  1  0
  1 33  1  0
  1 34  1  0
  2 35  1  0
  2 36  1  0
  7 37  1  0
  8 38  1  0
  9 39  1  0
 10 40  1  0
 11 41  1  0
 12 42  1  0
 13 43  1  0
 13 44  1  0
 14 45  1  0
 14 46  1  0
 18 47  1  6
 19 48  1  0
 19 49  1  0
 20 50  1  0
 20 51  1  0
 22 52  1  0
 25 53  1  0
 26 54  1  0
 27 55  1  0
 28 56  1  0
 30 57  1  0
 30 58  1  0
 31 59  1  0
 31 60  1  0
M  END
>  <smiles>  (8) 
CCC(=O)N(c1ccccc1)C1CCN(C(=O)[C@H](N)Cc2csc3ccccc23)CC1

>  <score_type>  (8) 
oracle

>  <origin>  (8) 
autodockgpu

>  <m_score__min__energy>  (8) 
-9.4100000000000001

>  <m_primary>  (8) 
energy

>  <rmsd>  (8) 
5.638491837193099

>  <m_score__min__rmsd>  (8) 
5.638491837193099

>  <meeko>  (8) 
{"free_energy": -6.21, "intermolecular_energy": -8.6, "internal_energy": -3.39, "cluster_size": 1, "cluster_id": 10, "rank_in_cluster": 1}

>  <energy>  (8) 
-7.92

>  <cluster_rmsd>  (8) 
0.7

>  <cluster>  (8) 
1

$$$$

     RDKit          3D

 60 63  0  0  0  0  0  0  0  0999 V2000
  145.2270   73.3890  218.0090 C   0  0  0  0  0  0  0  0  0  0  0  0
  146.0300   73.3310  219.2820 C   0  0  0  0  0  0  0  0  0  0  0  0
  145.2630   72.4620  220.2350 C   0  0  0  0  0  0  0  0  0  0  0  0
  145.4860   72.6610  221.4570 O   0  0  0  0  0  0  0  0  0  0  0  0
  144.3410   71.4730  219.7600 N   0  0  0  0  0  0  0  0  0  0  0  0
  144.7810   70.1720  219.3750 C   0  0  0  0  0  0  0  0  0  0  0  0
  145.5530   70.1220  218.2160 C   0  0  0  0  0  0  0  0  0  0  0  0
  146.0010   68.8610  217.7990 C   0  0  0  0  0  0  0  0  0  0  0  0
  145.6680   67.7420  218.5340 C   0  0  0  0  0  0  0  0  0  0  0  0
  144.8960   67.8080  219.6900 C   0  0  0  0  0  0  0  0  0  0  0  0
  144.4550   69.0470  220.1020 C   0  0  0  0  0  0  0  0  0  0  0  0
  142.9380   71.8670  219.6990 C   0  0  0  0  0  0  0  0  0  0  0  0
  142.5740   72.8290  220.7860 C   0  0  0  0  0  0  0  0  0  0  0  0
  141.0790   73.1430  220.5910 C   0  0  0  0  0  0  0  0  0  0  0  0
  140.4400   71.9260  221.1490 N   0  0  0  0  0  0  0  0  0  0  0  0
  139.5290   72.1390  222.1900 C   0  0  0  0  0  0  0  0  0  0  0  0
  139.3470   73.3670  222.5290 O   0  0  0  0  0  0  0  0  0  0  0  0
  138.7520   71.1500  222.9500 C   0  0  2  0  0  0  0  0  0  0  0  0
  137.7100   71.6440  223.7730 N   0  0  0  0  0  0  0  0  0  0  0  0
  139.6290   70.0860  223.5680 C   0  0  0  0  0  0  0  0  0  0  0  0
  140.1930   70.5260  224.9120 C   0  0  0  0  0  0  0  0  0  0  0  0
  140.7040   71.8140  225.0110 C   0  0  0  0  0  0  0  0  0  0  0  0
  141.3240   71.9580  226.7040 S   0  0  0  0  0  0  0  0  0  0  0  0
  140.8450   70.2820  227.1330 C   0  0  0  0  0  0  0  0  0  0  0  0
  140.9980   69.6310  228.3350 C   0  0  0  0  0  0  0  0  0  0  0  0
  140.5530   68.3250  228.4820 C   0  0  0  0  0  0  0  0  0  0  0  0
  139.9680   67.7680  227.3570 C   0  0  0  0  0  0  0  0  0  0  0  0
  139.8220   68.4290  226.1660 C   0  0  0  0  0  0  0  0  0  0  0  0
  140.2770   69.7610  226.0140 C   0  0  0  0  0  0  0  0  0  0  0  0
  140.8400   70.6950  220.5620 C   0  0  0  0  0  0  0  0  0  0  0  0
  142.0210   70.7080  219.6740 C   0  0  0  0  0  0  0  0  0  0  0  0
  144.1573   73.4663  218.2534 H   0  0  0  0  0  0  0  0  0  0  0  0
  145.5333   74.2674  217.4219 H   0  0  0  0  0  0  0  0  0  0  0  0
  145.4039   72.4757  217.4219 H   0  0  0  0  0  0  0  0  0  0  0  0
  147.0211   72.8960  219.0858 H   0  0  0  0  0  0  0  0  0  0  0  0
  146.1840   74.3370  219.6995 H   0  0  0  0  0  0  0  0  0  0  0  0
  145.8004   71.0336  217.6522 H   0  0  0  0  0  0  0  0  0  0  0  0
  146.6145   68.7642  216.8911 H   0  0  0  0  0  0  0  0  0  0  0  0
  146.0266   66.7595  218.1931 H   0  0  0  0  0  0  0  0  0  0  0  0
  144.6455   66.8994  220.2573 H   0  0  0  0  0  0  0  0  0  0  0  0
  143.8427   69.1383  221.0113 H   0  0  0  0  0  0  0  0  0  0  0  0
  142.8126   72.3919  218.7405 H   0  0  0  0  0  0  0  0  0  0  0  0
  142.7434   72.3730  221.7726 H   0  0  0  0  0  0  0  0  0  0  0  0
  143.1870   73.7412  220.7390 H   0  0  0  0  0  0  0  0  0  0  0  0
  140.7824   74.0433  221.1491 H   0  0  0  0  0  0  0  0  0  0  0  0
  140.7999   73.3554  219.5484 H   0  0  0  0  0  0  0  0  0  0  0  0
  138.1485   70.6372  222.1865 H   0  0  0  0  0  0  0  0  0  0  0  0
  136.8330   71.1430  223.8220 H   0  0  0  0  0  0  0  0  0  0  0  0
  137.6860   72.6720  223.7740 H   0  0  0  0  0  0  0  0  0  0  0  0
  139.0320   69.1737  223.7142 H   0  0  0  0  0  0  0  0  0  0  0  0
  140.4734   69.9022  222.8874 H   0  0  0  0  0  0  0  0  0  0  0  0
  140.7267   72.5838  224.2256 H   0  0  0  0  0  0  0  0  0  0  0  0
  141.4743   70.1470  229.1817 H   0  0  0  0  0  0  0  0  0  0  0  0
  140.6576   67.7706  229.4263 H   0  0  0  0  0  0  0  0  0  0  0  0
  139.5989   66.7339  227.4237 H   0  0  0  0  0  0  0  0  0  0  0  0
  139.3450   67.9181  225.3166 H   0  0  0  0  0  0  0  0  0  0  0  0
  141.0538   69.9942  221.3825 H   0  0  0  0  0  0  0  0  0  0  0  0
  140.0025   70.4153  219.9059 H   0  0  0  0  0  0  0  0  0  0  0  0
  142.6202   69.8205  219.9256 H   0  0  0  0  0  0  0  0  0  0  0  0
  141.5849   70.7456  218.6648 H   0  0  0  0  0  0  0  0  0  0  0  0
  1  2  1  0
  2  3  1  0
  3  4  2  0
  3  5  1  0
  5  6  1  0
  6  7  2  0
  7  8  1  0
  8  9  2  0
  9 10  1  0
 10 11  2  0
  5 12  1  0
 12 13  1  0
 13 14  1  0
 14 15  1  0
 15 16  1  0
 16 17  2  0
 16 18  1  0
 18 19  1  0
 18 20  1  0
 20 21  1  0
 21 22  2  0
 22 23  1  0
 23 24  1  0
 24 25  2  0
 25 26  1  0
 26 27  2  0
 27 28  1  0
 28 29  2  0
 15 30  1  0
 30 31  1  0
 11  6  1  0
 31 12  1  0
 29 21  1  0
 29 24  1  0
  1 32  1  0
  1 33  1  0
  1 34  1  0
  2 35  1  0
  2 36  1  0
  7 37  1  0
  8 38  1  0
  9 39  1  0
 10 40  1  0
 11 41  1  0
 12 42  1  0
 13 43  1  0
 13 44  1  0
 14 45  1  0
 14 46  1  0
 18 47  1  6
 19 48  1  0
 19 49  1  0
 20 50  1  0
 20 51  1  0
 22 52  1  0
 25 53  1  0
 26 54  1  0
 27 55  1  0
 28 56  1  0
 30 57  1  0
 30 58  1  0
 31 59  1  0
 31 60  1  0
M  END
>  <smiles>  (9) 
CCC(=O)N(c1ccccc1)C1CCN(C(=O)[C@H](N)Cc2csc3ccccc23)CC1

>  <score_type>  (9) 
oracle

>  <origin>  (9) 
autodockgpu

>  <m_score__min__energy>  (9) 
-9.4100000000000001

>  <m_primary>  (9) 
energy

>  <rmsd>  (9) 
8.502352071467278

>  <m_score__min__rmsd>  (9) 
8.502352071467278

>  <meeko>  (9) 
{"free_energy": -7.92, "intermolecular_energy": -10.3, "internal_energy": -2.18, "cluster_size": 11, "cluster_id": 1, "rank_in_cluster": 8}

>  <energy>  (9) 
-7.9

>  <cluster_rmsd>  (9) 
1.47

>  <cluster>  (9) 
1

$$$$

     RDKit          3D

 60 63  0  0  0  0  0  0  0  0999 V2000
  145.2830   73.0320  220.5810 C   0  0  0  0  0  0  0  0  0  0  0  0
  144.8760   74.4770  220.4620 C   0  0  0  0  0  0  0  0  0  0  0  0
  143.6770   74.5130  219.5620 C   0  0  0  0  0  0  0  0  0  0  0  0
  143.9200   74.5140  218.3270 O   0  0  0  0  0  0  0  0  0  0  0  0
  142.3480   74.5480  220.0970 N   0  0  0  0  0  0  0  0  0  0  0  0
  141.8350   75.7150  220.7350 C   0  0  0  0  0  0  0  0  0  0  0  0
  142.1000   76.9180  220.0830 C   0  0  0  0  0  0  0  0  0  0  0  0
  141.6180   78.0900  220.6800 C   0  0  0  0  0  0  0  0  0  0  0  0
  140.9150   78.0120  221.8650 C   0  0  0  0  0  0  0  0  0  0  0  0
  140.6570   76.8030  222.5040 C   0  0  0  0  0  0  0  0  0  0  0  0
  141.1300   75.6500  221.9190 C   0  0  0  0  0  0  0  0  0  0  0  0
  141.5550   73.3340  219.9460 C   0  0  0  0  0  0  0  0  0  0  0  0
  140.0850   73.6080  220.0150 C   0  0  0  0  0  0  0  0  0  0  0  0
  139.3910   72.2440  219.8460 C   0  0  0  0  0  0  0  0  0  0  0  0
  139.5680   71.6460  221.1930 N   0  0  0  0  0  0  0  0  0  0  0  0
  138.3920   71.2640  221.8490 C   0  0  0  0  0  0  0  0  0  0  0  0
  137.3000   71.4670  221.2000 O   0  0  0  0  0  0  0  0  0  0  0  0
  138.2360   70.6630  223.1810 C   0  0  2  0  0  0  0  0  0  0  0  0
  137.6910   71.4850  224.1980 N   0  0  0  0  0  0  0  0  0  0  0  0
  139.4330   69.8310  223.5780 C   0  0  0  0  0  0  0  0  0  0  0  0
  140.0830   70.3470  224.8540 C   0  0  0  0  0  0  0  0  0  0  0  0
  140.6290   71.6240  224.8330 C   0  0  0  0  0  0  0  0  0  0  0  0
  141.3490   71.8670  226.4760 S   0  0  0  0  0  0  0  0  0  0  0  0
  140.8550   70.2390  227.0470 C   0  0  0  0  0  0  0  0  0  0  0  0
  141.0610   69.6690  228.2810 C   0  0  0  0  0  0  0  0  0  0  0  0
  140.5950   68.3890  228.5450 C   0  0  0  0  0  0  0  0  0  0  0  0
  139.9330   67.7720  227.4960 C   0  0  0  0  0  0  0  0  0  0  0  0
  139.7340   68.3520  226.2720 C   0  0  0  0  0  0  0  0  0  0  0  0
  140.2120   69.6580  226.0010 C   0  0  0  0  0  0  0  0  0  0  0  0
  140.9100   71.5440  221.6500 C   0  0  0  0  0  0  0  0  0  0  0  0
  141.9510   72.2720  220.8950 C   0  0  0  0  0  0  0  0  0  0  0  0
  145.3599   72.7590  221.6438 H   0  0  0  0  0  0  0  0  0  0  0  0
  144.5287   72.3972  220.0930 H   0  0  0  0  0  0  0  0  0  0  0  0
  146.2577   72.8842  220.0930 H   0  0  0  0  0  0  0  0  0  0  0  0
  144.6193   74.8815  221.4522 H   0  0  0  0  0  0  0  0  0  0  0  0
  145.6956   75.0872  220.0547 H   0  0  0  0  0  0  0  0  0  0  0  0
  142.6641   76.9460  219.1390 H   0  0  0  0  0  0  0  0  0  0  0  0
  141.7987   79.0666  220.2071 H   0  0  0  0  0  0  0  0  0  0  0  0
  140.5443   78.9413  222.3221 H   0  0  0  0  0  0  0  0  0  0  0  0
  140.0925   76.7696  223.4475 H   0  0  0  0  0  0  0  0  0  0  0  0
  140.9456   74.6761  222.3961 H   0  0  0  0  0  0  0  0  0  0  0  0
  141.7720   72.9548  218.9365 H   0  0  0  0  0  0  0  0  0  0  0  0
  139.8241   74.0518  220.9871 H   0  0  0  0  0  0  0  0  0  0  0  0
  139.7707   74.3193  219.2370 H   0  0  0  0  0  0  0  0  0  0  0  0
  138.3262   72.3642  219.5976 H   0  0  0  0  0  0  0  0  0  0  0  0
  139.8019   71.6326  219.0290 H   0  0  0  0  0  0  0  0  0  0  0  0
  137.4043   69.9531  223.0608 H   0  0  0  0  0  0  0  0  0  0  0  0
  137.0520   71.0880  224.8720 H   0  0  0  0  0  0  0  0  0  0  0  0
  137.5100   72.4380  223.8560 H   0  0  0  0  0  0  0  0  0  0  0  0
  139.1071   68.7928  223.7393 H   0  0  0  0  0  0  0  0  0  0  0  0
  140.1749   69.8917  222.7681 H   0  0  0  0  0  0  0  0  0  0  0  0
  140.6248   72.3368  223.9952 H   0  0  0  0  0  0  0  0  0  0  0  0
  141.5968   70.2293  229.0613 H   0  0  0  0  0  0  0  0  0  0  0  0
  140.7409   67.8986  229.5188 H   0  0  0  0  0  0  0  0  0  0  0  0
  139.5441   66.7556  227.6561 H   0  0  0  0  0  0  0  0  0  0  0  0
  139.1962   67.7972  225.4891 H   0  0  0  0  0  0  0  0  0  0  0  0
  140.9337   71.9167  222.6847 H   0  0  0  0  0  0  0  0  0  0  0  0
  141.1665   70.4819  221.5228 H   0  0  0  0  0  0  0  0  0  0  0  0
  142.6168   72.7378  221.6364 H   0  0  0  0  0  0  0  0  0  0  0  0
  142.3887   71.4979  220.2476 H   0  0  0  0  0  0  0  0  0  0  0  0
  1  2  1  0
  2  3  1  0
  3  4  2  0
  3  5  1  0
  5  6  1  0
  6  7  2  0
  7  8  1  0
  8  9  2  0
  9 10  1  0
 10 11  2  0
  5 12  1  0
 12 13  1  0
 13 14  1  0
 14 15  1  0
 15 16  1  0
 16 17  2  0
 16 18  1  0
 18 19  1  0
 18 20  1  0
 20 21  1  0
 21 22  2  0
 22 23  1  0
 23 24  1  0
 24 25  2  0
 25 26  1  0
 26 27  2  0
 27 28  1  0
 28 29  2  0
 15 30  1  0
 30 31  1  0
 11  6  1  0
 31 12  1  0
 29 21  1  0
 29 24  1  0
  1 32  1  0
  1 33  1  0
  1 34  1  0
  2 35  1  0
  2 36  1  0
  7 37  1  0
  8 38  1  0
  9 39  1  0
 10 40  1  0
 11 41  1  0
 12 42  1  0
 13 43  1  0
 13 44  1  0
 14 45  1  0
 14 46  1  0
 18 47  1  6
 19 48  1  0
 19 49  1  0
 20 50  1  0
 20 51  1  0
 22 52  1  0
 25 53  1  0
 26 54  1  0
 27 55  1  0
 28 56  1  0
 30 57  1  0
 30 58  1  0
 31 59  1  0
 31 60  1  0
M  END
>  <smiles>  (10) 
CCC(=O)N(c1ccccc1)C1CCN(C(=O)[C@H](N)Cc2csc3ccccc23)CC1

>  <score_type>  (10) 
oracle

>  <origin>  (10) 
autodockgpu

>  <m_score__min__energy>  (10) 
-9.4100000000000001

>  <m_primary>  (10) 
energy

>  <rmsd>  (10) 
8.258976202469421

>  <m_score__min__rmsd>  (10) 
8.258976202469421

>  <meeko>  (10) 
{"free_energy": -7.72, "intermolecular_energy": -10.11, "internal_energy": -1.69, "cluster_size": 4, "cluster_id": 2, "rank_in_cluster": 4}

>  <energy>  (10) 
-7.73

>  <cluster_rmsd>  (10) 
1.33

>  <cluster>  (10) 
1

$$$$

     RDKit          3D

 60 63  0  0  0  0  0  0  0  0999 V2000
  140.7390   83.3150  220.6540 C   0  0  0  0  0  0  0  0  0  0  0  0
  140.4810   82.5560  219.3790 C   0  0  0  0  0  0  0  0  0  0  0  0
  141.4560   81.4160  219.3520 C   0  0  0  0  0  0  0  0  0  0  0  0
  141.9250   81.0720  220.4680 O   0  0  0  0  0  0  0  0  0  0  0  0
  141.8170   80.7770  218.1220 N   0  0  0  0  0  0  0  0  0  0  0  0
  142.4880   81.4890  217.0840 C   0  0  0  0  0  0  0  0  0  0  0  0
  143.4290   82.4230  217.5130 C   0  0  0  0  0  0  0  0  0  0  0  0
  144.1070   83.1480  216.5250 C   0  0  0  0  0  0  0  0  0  0  0  0
  143.8250   82.9170  215.1940 C   0  0  0  0  0  0  0  0  0  0  0  0
  142.8820   81.9810  214.7810 C   0  0  0  0  0  0  0  0  0  0  0  0
  142.2140   81.2660  215.7510 C   0  0  0  0  0  0  0  0  0  0  0  0
  141.4680   79.3670  217.9940 C   0  0  0  0  0  0  0  0  0  0  0  0
  140.0630   79.0910  218.4320 C   0  0  0  0  0  0  0  0  0  0  0  0
  139.8490   77.5780  218.2430 C   0  0  0  0  0  0  0  0  0  0  0  0
  140.5610   77.0230  219.4210 N   0  0  0  0  0  0  0  0  0  0  0  0
  139.7960   76.2150  220.2700 C   0  0  0  0  0  0  0  0  0  0  0  0
  138.5700   76.0420  219.9200 O   0  0  0  0  0  0  0  0  0  0  0  0
  140.2020   75.5390  221.5100 C   0  0  2  0  0  0  0  0  0  0  0  0
  139.2130   74.7840  222.1860 N   0  0  0  0  0  0  0  0  0  0  0  0
  141.0700   76.4160  222.3820 C   0  0  0  0  0  0  0  0  0  0  0  0
  140.3970   77.7450  222.6970 C   0  0  0  0  0  0  0  0  0  0  0  0
  139.0080   77.7880  222.6860 C   0  0  0  0  0  0  0  0  0  0  0  0
  138.5750   79.5080  223.0420 S   0  0  0  0  0  0  0  0  0  0  0  0
  140.2900   80.0200  223.1750 C   0  0  0  0  0  0  0  0  0  0  0  0
  140.7880   81.2720  223.4530 C   0  0  0  0  0  0  0  0  0  0  0  0
  142.1580   81.4770  223.5240 C   0  0  0  0  0  0  0  0  0  0  0  0
  142.9380   80.3540  223.3010 C   0  0  0  0  0  0  0  0  0  0  0  0
  142.4290   79.1130  223.0260 C   0  0  0  0  0  0  0  0  0  0  0  0
  141.0300   78.9030  222.9510 C   0  0  0  0  0  0  0  0  0  0  0  0
  141.9290   77.3900  219.5440 C   0  0  0  0  0  0  0  0  0  0  0  0
  142.4300   78.4770  218.6770 C   0  0  0  0  0  0  0  0  0  0  0  0
  140.5193   82.6685  221.5164 H   0  0  0  0  0  0  0  0  0  0  0  0
  141.7934   83.6264  220.6884 H   0  0  0  0  0  0  0  0  0  0  0  0
  140.0927   84.2045  220.6884 H   0  0  0  0  0  0  0  0  0  0  0  0
  139.4498   82.1734  219.3675 H   0  0  0  0  0  0  0  0  0  0  0  0
  140.6061   83.2049  218.4996 H   0  0  0  0  0  0  0  0  0  0  0  0
  143.6307   82.5840  218.5823 H   0  0  0  0  0  0  0  0  0  0  0  0
  144.8604   83.8977  216.8085 H   0  0  0  0  0  0  0  0  0  0  0  0
  144.3664   83.4949  214.4305 H   0  0  0  0  0  0  0  0  0  0  0  0
  142.6761   81.8169  213.7130 H   0  0  0  0  0  0  0  0  0  0  0  0
  141.4619   80.5171  215.4621 H   0  0  0  0  0  0  0  0  0  0  0  0
  141.5292   79.1370  216.9201 H   0  0  0  0  0  0  0  0  0  0  0  0
  139.9310   79.3666  219.4887 H   0  0  0  0  0  0  0  0  0  0  0  0
  139.3369   79.6766  217.8490 H   0  0  0  0  0  0  0  0  0  0  0  0
  138.7801   77.3189  218.2620 H   0  0  0  0  0  0  0  0  0  0  0  0
  140.2133   77.1928  217.2792 H   0  0  0  0  0  0  0  0  0  0  0  0
  140.8498   74.7180  221.1690 H   0  0  0  0  0  0  0  0  0  0  0  0
  138.2900   74.6950  221.7820 H   0  0  0  0  0  0  0  0  0  0  0  0
  139.2910   74.8870  223.2060 H   0  0  0  0  0  0  0  0  0  0  0  0
  141.2748   75.8885  223.3253 H   0  0  0  0  0  0  0  0  0  0  0  0
  142.0013   76.6259  221.8355 H   0  0  0  0  0  0  0  0  0  0  0  0
  138.3174   76.9523  222.5000 H   0  0  0  0  0  0  0  0  0  0  0  0
  140.0981   82.1124  223.6194 H   0  0  0  0  0  0  0  0  0  0  0  0
  142.5948   82.4627  223.7422 H   0  0  0  0  0  0  0  0  0  0  0  0
  144.0313   80.4660  223.3476 H   0  0  0  0  0  0  0  0  0  0  0  0
  143.1147   78.2688  222.8613 H   0  0  0  0  0  0  0  0  0  0  0  0
  142.0935   77.6994  220.5867 H   0  0  0  0  0  0  0  0  0  0  0  0
  142.4859   76.4981  219.2210 H   0  0  0  0  0  0  0  0  0  0  0  0
  143.0684   79.1172  219.3036 H   0  0  0  0  0  0  0  0  0  0  0  0
  142.9184   77.9419  217.8493 H   0  0  0  0  0  0  0  0  0  0  0  0
  1  2  1  0
  2  3  1  0
  3  4  2  0
  3  5  1  0
  5  6  1  0
  6  7  2  0
  7  8  1  0
  8  9  2  0
  9 10  1  0
 10 11  2  0
  5 12  1  0
 12 13  1  0
 13 14  1  0
 14 15  1  0
 15 16  1  0
 16 17  2  0
 16 18  1  0
 18 19  1  0
 18 20  1  0
 20 21  1  0
 21 22  2  0
 22 23  1  0
 23 24  1  0
 24 25  2  0
 25 26  1  0
 26 27  2  0
 27 28  1  0
 28 29  2  0
 15 30  1  0
 30 31  1  0
 11  6  1  0
 31 12  1  0
 29 21  1  0
 29 24  1  0
  1 32  1  0
  1 33  1  0
  1 34  1  0
  2 35  1  0
  2 36  1  0
  7 37  1  0
  8 38  1  0
  9 39  1  0
 10 40  1  0
 11 41  1  0
 12 42  1  0
 13 43  1  0
 13 44  1  0
 14 45  1  0
 14 46  1  0
 18 47  1  6
 19 48  1  0
 19 49  1  0
 20 50  1  0
 20 51  1  0
 22 52  1  0
 25 53  1  0
 26 54  1  0
 27 55  1  0
 28 56  1  0
 30 57  1  0
 30 58  1  0
 31 59  1  0
 31 60  1  0
M  END
>  <smiles>  (11) 
CCC(=O)N(c1ccccc1)C1CCN(C(=O)[C@H](N)Cc2csc3ccccc23)CC1

>  <score_type>  (11) 
oracle

>  <origin>  (11) 
autodockgpu

>  <m_score__min__energy>  (11) 
-9.4100000000000001

>  <m_primary>  (11) 
energy

>  <rmsd>  (11) 
4.060656432016288

>  <m_score__min__rmsd>  (11) 
4.060656432016288

>  <meeko>  (11) 
{"free_energy": -6.66, "intermolecular_energy": -9.05, "internal_energy": -3.34, "cluster_size": 14, "cluster_id": 9, "rank_in_cluster": 6}

>  <energy>  (11) 
-7.47

>  <cluster_rmsd>  (11) 
1.97

>  <cluster>  (11) 
1

$$$$

     RDKit          3D

 60 63  0  0  0  0  0  0  0  0999 V2000
  140.7020   83.1820  220.9050 C   0  0  0  0  0  0  0  0  0  0  0  0
  140.8090   82.7820  219.4570 C   0  0  0  0  0  0  0  0  0  0  0  0
  141.5560   81.4820  219.4240 C   0  0  0  0  0  0  0  0  0  0  0  0
  141.8650   81.0000  220.5450 O   0  0  0  0  0  0  0  0  0  0  0  0
  141.8880   80.8470  218.1840 N   0  0  0  0  0  0  0  0  0  0  0  0
  142.6010   81.5400  217.1620 C   0  0  0  0  0  0  0  0  0  0  0  0
  142.2380   81.2170  215.8560 C   0  0  0  0  0  0  0  0  0  0  0  0
  142.9190   81.8710  214.8210 C   0  0  0  0  0  0  0  0  0  0  0  0
  143.9020   82.7900  215.1260 C   0  0  0  0  0  0  0  0  0  0  0  0
  144.2540   83.1030  216.4360 C   0  0  0  0  0  0  0  0  0  0  0  0
  143.5850   82.4610  217.4550 C   0  0  0  0  0  0  0  0  0  0  0  0
  141.4630   79.4600  218.0280 C   0  0  0  0  0  0  0  0  0  0  0  0
  140.0630   79.2410  218.5110 C   0  0  0  0  0  0  0  0  0  0  0  0
  139.7670   77.7460  218.2860 C   0  0  0  0  0  0  0  0  0  0  0  0
  140.4930   77.1200  219.4190 N   0  0  0  0  0  0  0  0  0  0  0  0
  139.7200   76.3250  220.2730 C   0  0  0  0  0  0  0  0  0  0  0  0
  138.4750   76.2230  219.9650 O   0  0  0  0  0  0  0  0  0  0  0  0
  140.1380   75.5910  221.4750 C   0  0  2  0  0  0  0  0  0  0  0  0
  139.1430   74.8450  222.1530 N   0  0  0  0  0  0  0  0  0  0  0  0
  141.0610   76.4060  222.3520 C   0  0  0  0  0  0  0  0  0  0  0  0
  140.4480   77.7480  222.7250 C   0  0  0  0  0  0  0  0  0  0  0  0
  139.0620   77.8460  222.7430 C   0  0  0  0  0  0  0  0  0  0  0  0
  138.7060   79.5690  223.1660 S   0  0  0  0  0  0  0  0  0  0  0  0
  140.4420   80.0070  223.2840 C   0  0  0  0  0  0  0  0  0  0  0  0
  140.9960   81.2280  223.5950 C   0  0  0  0  0  0  0  0  0  0  0  0
  142.3740   81.3750  223.6470 C   0  0  0  0  0  0  0  0  0  0  0  0
  143.1040   80.2310  223.3700 C   0  0  0  0  0  0  0  0  0  0  0  0
  142.5390   79.0210  223.0620 C   0  0  0  0  0  0  0  0  0  0  0  0
  141.1330   78.8700  223.0060 C   0  0  0  0  0  0  0  0  0  0  0  0
  141.8820   77.4150  219.4990 C   0  0  0  0  0  0  0  0  0  0  0  0
  142.4040   78.5020  218.6460 C   0  0  0  0  0  0  0  0  0  0  0  0
  140.9336   82.3161  221.5427 H   0  0  0  0  0  0  0  0  0  0  0  0
  141.4147   83.9931  221.1150 H   0  0  0  0  0  0  0  0  0  0  0  0
  139.6795   83.5289  221.1150 H   0  0  0  0  0  0  0  0  0  0  0  0
  139.8060   82.6542  219.0237 H   0  0  0  0  0  0  0  0  0  0  0  0
  141.3300   83.5531  218.8706 H   0  0  0  0  0  0  0  0  0  0  0  0
  141.4495   80.4792  215.6464 H   0  0  0  0  0  0  0  0  0  0  0  0
  142.6716   81.6532  213.7716 H   0  0  0  0  0  0  0  0  0  0  0  0
  144.4278   83.2948  214.3022 H   0  0  0  0  0  0  0  0  0  0  0  0
  145.0418   83.8400  216.6509 H   0  0  0  0  0  0  0  0  0  0  0  0
  143.8358   82.6830  218.5028 H   0  0  0  0  0  0  0  0  0  0  0  0
  141.4723   79.2606  216.9463 H   0  0  0  0  0  0  0  0  0  0  0  0
  139.9837   79.4900  219.5795 H   0  0  0  0  0  0  0  0  0  0  0  0
  139.3462   79.8796  217.9740 H   0  0  0  0  0  0  0  0  0  0  0  0
  138.6879   77.5389  218.3381 H   0  0  0  0  0  0  0  0  0  0  0  0
  140.0764   77.3740  217.2981 H   0  0  0  0  0  0  0  0  0  0  0  0
  140.7473   74.7621  221.0855 H   0  0  0  0  0  0  0  0  0  0  0  0
  139.4140   74.0630  222.7330 H   0  0  0  0  0  0  0  0  0  0  0  0
  138.2860   74.7620  221.5900 H   0  0  0  0  0  0  0  0  0  0  0  0
  141.2680   75.8410  223.2728 H   0  0  0  0  0  0  0  0  0  0  0  0
  141.9864   76.5977  221.7890 H   0  0  0  0  0  0  0  0  0  0  0  0
  138.3349   77.0453  222.5425 H   0  0  0  0  0  0  0  0  0  0  0  0
  140.3441   82.0893  223.8028 H   0  0  0  0  0  0  0  0  0  0  0  0
  142.8541   82.3340  223.8914 H   0  0  0  0  0  0  0  0  0  0  0  0
  144.2016   80.2975  223.3989 H   0  0  0  0  0  0  0  0  0  0  0  0
  143.1866   78.1561  222.8557 H   0  0  0  0  0  0  0  0  0  0  0  0
  142.1012   77.6829  220.5431 H   0  0  0  0  0  0  0  0  0  0  0  0
  142.3805   76.5073  219.1281 H   0  0  0  0  0  0  0  0  0  0  0  0
  143.0974   79.0896  219.2656 H   0  0  0  0  0  0  0  0  0  0  0  0
  142.8329   77.9698  217.7841 H   0  0  0  0  0  0  0  0  0  0  0  0
  1  2  1  0
  2  3  1  0
  3  4  2  0
  3  5  1  0
  5  6  1  0
  6  7  2  0
  7  8  1  0
  8  9  2  0
  9 10  1  0
 10 11  2  0
  5 12  1  0
 12 13  1  0
 13 14  1  0
 14 15  1  0
 15 16  1  0
 16 17  2  0
 16 18  1  0
 18 19  1  0
 18 20  1  0
 20 21  1  0
 21 22  2  0
 22 23  1  0
 23 24  1  0
 24 25  2  0
 25 26  1  0
 26 27  2  0
 27 28  1  0
 28 29  2  0
 15 30  1  0
 30 31  1  0
 11  6  1  0
 31 12  1  0
 29 21  1  0
 29 24  1  0
  1 32  1  0
  1 33  1  0
  1 34  1  0
  2 35  1  0
  2 36  1  0
  7 37  1  0
  8 38  1  0
  9 39  1  0
 10 40  1  0
 11 41  1  0
 12 42  1  0
 13 43  1  0
 13 44  1  0
 14 45  1  0
 14 46  1  0
 18 47  1  6
 19 48  1  0
 19 49  1  0
 20 50  1  0
 20 51  1  0
 22 52  1  0
 25 53  1  0
 26 54  1  0
 27 55  1  0
 28 56  1  0
 30 57  1  0
 30 58  1  0
 31 59  1  0
 31 60  1  0
M  END
>  <smiles>  (12) 
CCC(=O)N(c1ccccc1)C1CCN(C(=O)[C@H](N)Cc2csc3ccccc23)CC1

>  <score_type>  (12) 
oracle

>  <origin>  (12) 
autodockgpu

>  <m_score__min__energy>  (12) 
-9.4100000000000001

>  <m_primary>  (12) 
energy

>  <rmsd>  (12) 
4.03331442164756

>  <m_score__min__rmsd>  (12) 
4.03331442164756

>  <meeko>  (12) 
{"free_energy": -6.6, "intermolecular_energy": -8.99, "internal_energy": -3.45, "cluster_size": 14, "cluster_id": 9, "rank_in_cluster": 11}

>  <energy>  (12) 
-8.44

>  <cluster_rmsd>  (12) 
0.0

>  <cluster>  (12) 
2

$$$$

     RDKit          3D

 60 63  0  0  0  0  0  0  0  0999 V2000
  146.7160   73.3700  221.5560 C   0  0  0  0  0  0  0  0  0  0  0  0
  145.2770   73.0380  221.2650 C   0  0  0  0  0  0  0  0  0  0  0  0
  145.2380   72.4660  219.8790 C   0  0  0  0  0  0  0  0  0  0  0  0
  146.0500   72.9670  219.0580 O   0  0  0  0  0  0  0  0  0  0  0  0
  144.3260   71.4170  219.5340 N   0  0  0  0  0  0  0  0  0  0  0  0
  144.7830   70.0930  219.2640 C   0  0  0  0  0  0  0  0  0  0  0  0
  145.5890   69.9590  218.1350 C   0  0  0  0  0  0  0  0  0  0  0  0
  146.0550   68.6740  217.8300 C   0  0  0  0  0  0  0  0  0  0  0  0
  145.7070   67.6120  218.6400 C   0  0  0  0  0  0  0  0  0  0  0  0
  144.9020   67.7620  219.7650 C   0  0  0  0  0  0  0  0  0  0  0  0
  144.4420   69.0250  220.0670 C   0  0  0  0  0  0  0  0  0  0  0  0
  142.9130   71.7750  219.4810 C   0  0  0  0  0  0  0  0  0  0  0  0
  142.5580   72.8250  220.4870 C   0  0  0  0  0  0  0  0  0  0  0  0
  141.0510   73.0890  220.3110 C   0  0  0  0  0  0  0  0  0  0  0  0
  140.4560   71.9140  220.9970 N   0  0  0  0  0  0  0  0  0  0  0  0
  139.5710   72.2030  222.0420 C   0  0  0  0  0  0  0  0  0  0  0  0
  139.3710   73.4530  222.2740 O   0  0  0  0  0  0  0  0  0  0  0  0
  138.8400   71.2720  222.9120 C   0  0  2  0  0  0  0  0  0  0  0  0
  137.8860   71.8310  223.7970 N   0  0  0  0  0  0  0  0  0  0  0  0
  139.7410   70.2110  223.5000 C   0  0  0  0  0  0  0  0  0  0  0  0
  140.2280   70.5900  224.8920 C   0  0  0  0  0  0  0  0  0  0  0  0
  140.7480   71.8670  225.0720 C   0  0  0  0  0  0  0  0  0  0  0  0
  141.2660   71.9350  226.8040 S   0  0  0  0  0  0  0  0  0  0  0  0
  140.7430   70.2510  227.1360 C   0  0  0  0  0  0  0  0  0  0  0  0
  140.8160   69.5520  228.3180 C   0  0  0  0  0  0  0  0  0  0  0  0
  140.3480   68.2480  228.3870 C   0  0  0  0  0  0  0  0  0  0  0  0
  139.8250   67.7430  227.2080 C   0  0  0  0  0  0  0  0  0  0  0  0
  139.7580   68.4510  226.0370 C   0  0  0  0  0  0  0  0  0  0  0  0
  140.2370   69.7820  225.9650 C   0  0  0  0  0  0  0  0  0  0  0  0
  140.8680   70.6430  220.5110 C   0  0  0  0  0  0  0  0  0  0  0  0
  142.0220   70.6000  219.5890 C   0  0  0  0  0  0  0  0  0  0  0  0
  146.8712   73.4058  222.6444 H   0  0  0  0  0  0  0  0  0  0  0  0
  147.3661   72.5983  221.1181 H   0  0  0  0  0  0  0  0  0  0  0  0
  146.9623   74.3486  221.1181 H   0  0  0  0  0  0  0  0  0  0  0  0
  144.9042   72.2998  221.9903 H   0  0  0  0  0  0  0  0  0  0  0  0
  144.6414   73.9325  221.3417 H   0  0  0  0  0  0  0  0  0  0  0  0
  145.8483   70.8261  217.5097 H   0  0  0  0  0  0  0  0  0  0  0  0
  146.6947   68.5120  216.9499 H   0  0  0  0  0  0  0  0  0  0  0  0
  146.0803   66.6088  218.3865 H   0  0  0  0  0  0  0  0  0  0  0  0
  144.6408   66.8983  220.3941 H   0  0  0  0  0  0  0  0  0  0  0  0
  143.8028   69.1815  220.9485 H   0  0  0  0  0  0  0  0  0  0  0  0
  142.7483   72.2075  218.4831 H   0  0  0  0  0  0  0  0  0  0  0  0
  142.7666   72.4649  221.5052 H   0  0  0  0  0  0  0  0  0  0  0  0
  143.1478   73.7415  220.3381 H   0  0  0  0  0  0  0  0  0  0  0  0
  140.7499   74.0301  220.7943 H   0  0  0  0  0  0  0  0  0  0  0  0
  140.7370   73.1995  219.2626 H   0  0  0  0  0  0  0  0  0  0  0  0
  138.1591   70.7434  222.2287 H   0  0  0  0  0  0  0  0  0  0  0  0
  137.4400   72.7070  223.5620 H   0  0  0  0  0  0  0  0  0  0  0  0
  138.1390   71.6600  224.7800 H   0  0  0  0  0  0  0  0  0  0  0  0
  139.1829   69.2652  223.5634 H   0  0  0  0  0  0  0  0  0  0  0  0
  140.6200   70.1086  222.8466 H   0  0  0  0  0  0  0  0  0  0  0  0
  140.8275   72.6664  224.3206 H   0  0  0  0  0  0  0  0  0  0  0  0
  141.2467   70.0282  229.2112 H   0  0  0  0  0  0  0  0  0  0  0  0
  140.3894   67.6563  229.3134 H   0  0  0  0  0  0  0  0  0  0  0  0
  139.4406   66.7123  227.2121 H   0  0  0  0  0  0  0  0  0  0  0  0
  139.3268   67.9798  225.1414 H   0  0  0  0  0  0  0  0  0  0  0  0
  141.1222   70.0243  221.3842 H   0  0  0  0  0  0  0  0  0  0  0  0
  140.0186   70.2874  219.9092 H   0  0  0  0  0  0  0  0  0  0  0  0
  142.6485   69.7512  219.9003 H   0  0  0  0  0  0  0  0  0  0  0  0
  141.5555   70.5379  218.5948 H   0  0  0  0  0  0  0  0  0  0  0  0
  1  2  1  0
  2  3  1  0
  3  4  2  0
  3  5  1  0
  5  6  1  0
  6  7  2  0
  7  8  1  0
  8  9  2  0
  9 10  1  0
 10 11  2  0
  5 12  1  0
 12 13  1  0
 13 14  1  0
 14 15  1  0
 15 16  1  0
 16 17  2  0
 16 18  1  0
 18 19  1  0
 18 20  1  0
 20 21  1  0
 21 22  2  0
 22 23  1  0
 23 24  1  0
 24 25  2  0
 25 26  1  0
 26 27  2  0
 27 28  1  0
 28 29  2  0
 15 30  1  0
 30 31  1  0
 11  6  1  0
 31 12  1  0
 29 21  1  0
 29 24  1  0
  1 32  1  0
  1 33  1  0
  1 34  1  0
  2 35  1  0
  2 36  1  0
  7 37  1  0
  8 38  1  0
  9 39  1  0
 10 40  1  0
 11 41  1  0
 12 42  1  0
 13 43  1  0
 13 44  1  0
 14 45  1  0
 14 46  1  0
 18 47  1  6
 19 48  1  0
 19 49  1  0
 20 50  1  0
 20 51  1  0
 22 52  1  0
 25 53  1  0
 26 54  1  0
 27 55  1  0
 28 56  1  0
 30 57  1  0
 30 58  1  0
 31 59  1  0
 31 60  1  0
M  END
>  <smiles>  (13) 
CCC(=O)N(c1ccccc1)C1CCN(C(=O)[C@H](N)Cc2csc3ccccc23)CC1

>  <score_type>  (13) 
oracle

>  <origin>  (13) 
autodockgpu

>  <m_score__min__energy>  (13) 
-9.4100000000000001

>  <m_primary>  (13) 
energy

>  <rmsd>  (13) 
8.471447888913957

>  <m_score__min__rmsd>  (13) 
8.471447888913957

>  <meeko>  (13) 
{"free_energy": -9.41, "intermolecular_energy": -11.8, "internal_energy": -1.57, "cluster_size": 11, "cluster_id": 1, "rank_in_cluster": 1}

>  <energy>  (13) 
-7.8

>  <cluster_rmsd>  (13) 
1.68

>  <cluster>  (13) 
2

$$$$

     RDKit          3D

 60 63  0  0  0  0  0  0  0  0999 V2000
  134.8960   70.7800  224.7110 C   0  0  0  0  0  0  0  0  0  0  0  0
  135.8320   69.7980  225.3650 C   0  0  0  0  0  0  0  0  0  0  0  0
  136.7230   69.2650  224.2810 C   0  0  0  0  0  0  0  0  0  0  0  0
  136.1690   68.5120  223.4390 O   0  0  0  0  0  0  0  0  0  0  0  0
  138.1140   69.6040  224.2300 N   0  0  0  0  0  0  0  0  0  0  0  0
  139.0170   69.1910  225.2540 C   0  0  0  0  0  0  0  0  0  0  0  0
  139.3860   67.8470  225.2180 C   0  0  0  0  0  0  0  0  0  0  0  0
  140.2680   67.3990  226.2100 C   0  0  0  0  0  0  0  0  0  0  0  0
  140.7280   68.2830  227.1640 C   0  0  0  0  0  0  0  0  0  0  0  0
  140.3500   69.6220  227.1860 C   0  0  0  0  0  0  0  0  0  0  0  0
  139.4830   70.0650  226.2120 C   0  0  0  0  0  0  0  0  0  0  0  0
  138.5520   70.3830  223.0780 C   0  0  0  0  0  0  0  0  0  0  0  0
  139.7900   71.1730  223.3690 C   0  0  0  0  0  0  0  0  0  0  0  0
  140.1200   71.9360  222.0720 C   0  0  0  0  0  0  0  0  0  0  0  0
  139.1340   73.0450  222.1150 N   0  0  0  0  0  0  0  0  0  0  0  0
  139.6690   74.3370  222.0660 C   0  0  0  0  0  0  0  0  0  0  0  0
  140.9510   74.4080  221.9780 O   0  0  0  0  0  0  0  0  0  0  0  0
  138.9640   75.6260  222.1030 C   0  0  2  0  0  0  0  0  0  0  0  0
  137.6040   75.6290  221.7080 N   0  0  0  0  0  0  0  0  0  0  0  0
  139.8090   76.7560  221.5610 C   0  0  0  0  0  0  0  0  0  0  0  0
  139.6590   78.0230  222.3910 C   0  0  0  0  0  0  0  0  0  0  0  0
  138.3850   78.3690  222.8240 C   0  0  0  0  0  0  0  0  0  0  0  0
  138.5850   79.9310  223.7140 S   0  0  0  0  0  0  0  0  0  0  0  0
  140.3560   79.9860  223.4290 C   0  0  0  0  0  0  0  0  0  0  0  0
  141.2580   80.9400  223.8410 C   0  0  0  0  0  0  0  0  0  0  0  0
  142.6040   80.8070  223.5310 C   0  0  0  0  0  0  0  0  0  0  0  0
  142.9350   79.6760  222.8030 C   0  0  0  0  0  0  0  0  0  0  0  0
  142.0260   78.7340  222.4000 C   0  0  0  0  0  0  0  0  0  0  0  0
  140.6520   78.8690  222.7140 C   0  0  0  0  0  0  0  0  0  0  0  0
  137.7710   72.6540  222.2090 C   0  0  0  0  0  0  0  0  0  0  0  0
  137.4810   71.2410  222.5280 C   0  0  0  0  0  0  0  0  0  0  0  0
  134.3574   71.3451  225.4860 H   0  0  0  0  0  0  0  0  0  0  0  0
  135.4736   71.4758  224.0847 H   0  0  0  0  0  0  0  0  0  0  0  0
  134.1733   70.2364  224.0847 H   0  0  0  0  0  0  0  0  0  0  0  0
  136.4329   70.3026  226.1359 H   0  0  0  0  0  0  0  0  0  0  0  0
  135.2748   68.9858  225.8547 H   0  0  0  0  0  0  0  0  0  0  0  0
  139.0010   67.1672  224.4436 H   0  0  0  0  0  0  0  0  0  0  0  0
  140.5920   66.3480  226.2281 H   0  0  0  0  0  0  0  0  0  0  0  0
  141.4196   67.9155  227.9364 H   0  0  0  0  0  0  0  0  0  0  0  0
  140.7322   70.3060  227.9581 H   0  0  0  0  0  0  0  0  0  0  0  0
  139.1623   71.1171  226.1988 H   0  0  0  0  0  0  0  0  0  0  0  0
  138.8045   69.6511  222.2966 H   0  0  0  0  0  0  0  0  0  0  0  0
  139.6082   71.8793  224.1925 H   0  0  0  0  0  0  0  0  0  0  0  0
  140.6213   70.5215  223.6764 H   0  0  0  0  0  0  0  0  0  0  0  0
  141.1520   72.3166  222.0824 H   0  0  0  0  0  0  0  0  0  0  0  0
  140.0583   71.3191  221.1634 H   0  0  0  0  0  0  0  0  0  0  0  0
  138.8370   75.8322  223.1760 H   0  0  0  0  0  0  0  0  0  0  0  0
  137.2720   76.3360  221.0670 H   0  0  0  0  0  0  0  0  0  0  0  0
  136.9870   75.3390  222.4780 H   0  0  0  0  0  0  0  0  0  0  0  0
  140.8647   76.4472  221.5704 H   0  0  0  0  0  0  0  0  0  0  0  0
  139.4702   76.9757  220.5378 H   0  0  0  0  0  0  0  0  0  0  0  0
  137.4515   77.8107  222.6601 H   0  0  0  0  0  0  0  0  0  0  0  0
  140.9112   81.8102  224.4175 H   0  0  0  0  0  0  0  0  0  0  0  0
  143.3555   81.5478  223.8416 H   0  0  0  0  0  0  0  0  0  0  0  0
  143.9905   79.5254  222.5325 H   0  0  0  0  0  0  0  0  0  0  0  0
  142.3680   77.8610  221.8247 H   0  0  0  0  0  0  0  0  0  0  0  0
  137.3062   73.2696  222.9932 H   0  0  0  0  0  0  0  0  0  0  0  0
  137.3708   72.7971  221.1944 H   0  0  0  0  0  0  0  0  0  0  0  0
  136.6622   71.2406  223.2625 H   0  0  0  0  0  0  0  0  0  0  0  0
  137.2707   70.7929  221.5457 H   0  0  0  0  0  0  0  0  0  0  0  0
  1  2  1  0
  2  3  1  0
  3  4  2  0
  3  5  1  0
  5  6  1  0
  6  7  2  0
  7  8  1  0
  8  9  2  0
  9 10  1  0
 10 11  2  0
  5 12  1  0
 12 13  1  0
 13 14  1  0
 14 15  1  0
 15 16  1  0
 16 17  2  0
 16 18  1  0
 18 19  1  0
 18 20  1  0
 20 21  1  0
 21 22  2  0
 22 23  1  0
 23 24  1  0
 24 25  2  0
 25 26  1  0
 26 27  2  0
 27 28  1  0
 28 29  2  0
 15 30  1  0
 30 31  1  0
 11  6  1  0
 31 12  1  0
 29 21  1  0
 29 24  1  0
  1 32  1  0
  1 33  1  0
  1 34  1  0
  2 35  1  0
  2 36  1  0
  7 37  1  0
  8 38  1  0
  9 39  1  0
 10 40  1  0
 11 41  1  0
 12 42  1  0
 13 43  1  0
 13 44  1  0
 14 45  1  0
 14 46  1  0
 18 47  1  1
 19 48  1  0
 19 49  1  0
 20 50  1  0
 20 51  1  0
 22 52  1  0
 25 53  1  0
 26 54  1  0
 27 55  1  0
 28 56  1  0
 30 57  1  0
 30 58  1  0
 31 59  1  0
 31 60  1  0
M  END
>  <smiles>  (14) 
CCC(=O)N(c1ccccc1)C1CCN(C(=O)[C@H](N)Cc2csc3ccccc23)CC1

>  <score_type>  (14) 
oracle

>  <origin>  (14) 
autodockgpu

>  <m_score__min__energy>  (14) 
-9.4100000000000001

>  <m_primary>  (14) 
energy

>  <rmsd>  (14) 
7.401248824968473

>  <m_score__min__rmsd>  (14) 
7.401248824968473

>  <meeko>  (14) 
{"free_energy": -8.12, "intermolecular_energy": -10.51, "internal_energy": -1.44, "cluster_size": 9, "cluster_id": 3, "rank_in_cluster": 1}

>  <energy>  (14) 
-7.78

>  <cluster_rmsd>  (14) 
1.69

>  <cluster>  (14) 
2

$$$$

     RDKit          3D

 60 63  0  0  0  0  0  0  0  0999 V2000
  140.6860   83.1460  220.7490 C   0  0  0  0  0  0  0  0  0  0  0  0
  140.5840   82.5480  219.3700 C   0  0  0  0  0  0  0  0  0  0  0  0
  141.4720   81.3400  219.3590 C   0  0  0  0  0  0  0  0  0  0  0  0
  141.8710   80.9430  220.4850 O   0  0  0  0  0  0  0  0  0  0  0  0
  141.8330   80.6960  218.1310 N   0  0  0  0  0  0  0  0  0  0  0  0
  142.4710   81.4120  217.0760 C   0  0  0  0  0  0  0  0  0  0  0  0
  143.4440   82.3250  217.4770 C   0  0  0  0  0  0  0  0  0  0  0  0
  144.0910   83.0550  216.4720 C   0  0  0  0  0  0  0  0  0  0  0  0
  143.7490   82.8480  215.1510 C   0  0  0  0  0  0  0  0  0  0  0  0
  142.7740   81.9320  214.7660 C   0  0  0  0  0  0  0  0  0  0  0  0
  142.1370   81.2140  215.7530 C   0  0  0  0  0  0  0  0  0  0  0  0
  141.5200   79.2750  218.0250 C   0  0  0  0  0  0  0  0  0  0  0  0
  140.1020   78.9800  218.4040 C   0  0  0  0  0  0  0  0  0  0  0  0
  139.9290   77.4580  218.2450 C   0  0  0  0  0  0  0  0  0  0  0  0
  140.5960   76.9490  219.4700 N   0  0  0  0  0  0  0  0  0  0  0  0
  139.8090   76.1460  220.3030 C   0  0  0  0  0  0  0  0  0  0  0  0
  138.6050   75.9370  219.9010 O   0  0  0  0  0  0  0  0  0  0  0  0
  140.1710   75.5110  221.5780 C   0  0  2  0  0  0  0  0  0  0  0  0
  139.1420   74.8280  222.2720 N   0  0  0  0  0  0  0  0  0  0  0  0
  141.0630   76.3910  222.4230 C   0  0  0  0  0  0  0  0  0  0  0  0
  140.4060   77.7270  222.7380 C   0  0  0  0  0  0  0  0  0  0  0  0
  139.0180   77.7890  222.7180 C   0  0  0  0  0  0  0  0  0  0  0  0
  138.6070   79.5140  223.0760 S   0  0  0  0  0  0  0  0  0  0  0  0
  140.3270   80.0020  223.2220 C   0  0  0  0  0  0  0  0  0  0  0  0
  140.8410   81.2470  223.5070 C   0  0  0  0  0  0  0  0  0  0  0  0
  142.2130   81.4330  223.5880 C   0  0  0  0  0  0  0  0  0  0  0  0
  142.9790   80.3000  223.3660 C   0  0  0  0  0  0  0  0  0  0  0  0
  142.4540   79.0670  223.0840 C   0  0  0  0  0  0  0  0  0  0  0  0
  141.0540   78.8760  222.9990 C   0  0  0  0  0  0  0  0  0  0  0  0
  141.9490   77.3490  219.6460 C   0  0  0  0  0  0  0  0  0  0  0  0
  142.4670   78.4240  218.7750 C   0  0  0  0  0  0  0  0  0  0  0  0
  140.5512   82.3558  221.5022 H   0  0  0  0  0  0  0  0  0  0  0  0
  141.6760   83.6084  220.8758 H   0  0  0  0  0  0  0  0  0  0  0  0
  139.9053   83.9105  220.8758 H   0  0  0  0  0  0  0  0  0  0  0  0
  139.5445   82.2566  219.1588 H   0  0  0  0  0  0  0  0  0  0  0  0
  140.8903   83.2719  218.6005 H   0  0  0  0  0  0  0  0  0  0  0  0
  143.6937   82.4666  218.5389 H   0  0  0  0  0  0  0  0  0  0  0  0
  144.8672   83.7891  216.7340 H   0  0  0  0  0  0  0  0  0  0  0  0
  144.2663   83.4287  214.3731 H   0  0  0  0  0  0  0  0  0  0  0  0
  142.5203   81.7863  213.7056 H   0  0  0  0  0  0  0  0  0  0  0  0
  141.3609   80.4817  215.4859 H   0  0  0  0  0  0  0  0  0  0  0  0
  141.6370   79.0185  216.9617 H   0  0  0  0  0  0  0  0  0  0  0  0
  139.9144   79.2794  219.4457 H   0  0  0  0  0  0  0  0  0  0  0  0
  139.3921   79.5347  217.7729 H   0  0  0  0  0  0  0  0  0  0  0  0
  138.8661   77.1757  218.2206 H   0  0  0  0  0  0  0  0  0  0  0  0
  140.3467   77.0566  217.3099 H   0  0  0  0  0  0  0  0  0  0  0  0
  140.7896   74.6501  221.2845 H   0  0  0  0  0  0  0  0  0  0  0  0
  139.3830   74.0980  222.9280 H   0  0  0  0  0  0  0  0  0  0  0  0
  138.3100   74.6990  221.6810 H   0  0  0  0  0  0  0  0  0  0  0  0
  141.2838   75.8716  223.3672 H   0  0  0  0  0  0  0  0  0  0  0  0
  141.9841   76.5889  221.8552 H   0  0  0  0  0  0  0  0  0  0  0  0
  138.3171   76.9635  222.5252 H   0  0  0  0  0  0  0  0  0  0  0  0
  140.1617   82.0965  223.6709 H   0  0  0  0  0  0  0  0  0  0  0  0
  142.6618   82.4118  223.8128 H   0  0  0  0  0  0  0  0  0  0  0  0
  144.0735   80.3966  223.4194 H   0  0  0  0  0  0  0  0  0  0  0  0
  143.1291   78.2139  222.9214 H   0  0  0  0  0  0  0  0  0  0  0  0
  142.0584   77.6882  220.6867 H   0  0  0  0  0  0  0  0  0  0  0  0
  142.5387   76.4616  219.3724 H   0  0  0  0  0  0  0  0  0  0  0  0
  143.0619   79.0937  219.4134 H   0  0  0  0  0  0  0  0  0  0  0  0
  143.0044   77.8789  217.9851 H   0  0  0  0  0  0  0  0  0  0  0  0
  1  2  1  0
  2  3  1  0
  3  4  2  0
  3  5  1  0
  5  6  1  0
  6  7  2  0
  7  8  1  0
  8  9  2  0
  9 10  1  0
 10 11  2  0
  5 12  1  0
 12 13  1  0
 13 14  1  0
 14 15  1  0
 15 16  1  0
 16 17  2  0
 16 18  1  0
 18 19  1  0
 18 20  1  0
 20 21  1  0
 21 22  2  0
 22 23  1  0
 23 24  1  0
 24 25  2  0
 25 26  1  0
 26 27  2  0
 27 28  1  0
 28 29  2  0
 15 30  1  0
 30 31  1  0
 11  6  1  0
 31 12  1  0
 29 21  1  0
 29 24  1  0
  1 32  1  0
  1 33  1  0
  1 34  1  0
  2 35  1  0
  2 36  1  0
  7 37  1  0
  8 38  1  0
  9 39  1  0
 10 40  1  0
 11 41  1  0
 12 42  1  0
 13 43  1  0
 13 44  1  0
 14 45  1  0
 14 46  1  0
 18 47  1  6
 19 48  1  0
 19 49  1  0
 20 50  1  0
 20 51  1  0
 22 52  1  0
 25 53  1  0
 26 54  1  0
 27 55  1  0
 28 56  1  0
 30 57  1  0
 30 58  1  0
 31 59  1  0
 31 60  1  0
M  END
>  <smiles>  (15) 
CCC(=O)N(c1ccccc1)C1CCN(C(=O)[C@H](N)Cc2csc3ccccc23)CC1

>  <score_type>  (15) 
oracle

>  <origin>  (15) 
autodockgpu

>  <m_score__min__energy>  (15) 
-9.4100000000000001

>  <m_primary>  (15) 
energy

>  <rmsd>  (15) 
4.096918421483679

>  <m_score__min__rmsd>  (15) 
4.096918421483679

>  <meeko>  (15) 
{"free_energy": -6.63, "intermolecular_energy": -9.02, "internal_energy": -3.45, "cluster_size": 14, "cluster_id": 9, "rank_in_cluster": 9}

>  <energy>  (15) 
-7.72

>  <cluster_rmsd>  (15) 
1.77

>  <cluster>  (15) 
2

$$$$

     RDKit          3D

 60 63  0  0  0  0  0  0  0  0999 V2000
  140.7620   83.3200  220.8100 C   0  0  0  0  0  0  0  0  0  0  0  0
  140.5920   82.6990  219.4490 C   0  0  0  0  0  0  0  0  0  0  0  0
  141.4560   81.4730  219.4250 C   0  0  0  0  0  0  0  0  0  0  0  0
  141.8450   81.0560  220.5470 O   0  0  0  0  0  0  0  0  0  0  0  0
  141.8070   80.8360  218.1910 N   0  0  0  0  0  0  0  0  0  0  0  0
  142.5380   81.5260  217.1800 C   0  0  0  0  0  0  0  0  0  0  0  0
  142.1950   81.2030  215.8680 C   0  0  0  0  0  0  0  0  0  0  0  0
  142.8930   81.8540  214.8440 C   0  0  0  0  0  0  0  0  0  0  0  0
  143.8740   82.7710  215.1630 C   0  0  0  0  0  0  0  0  0  0  0  0
  144.2060   83.0840  216.4780 C   0  0  0  0  0  0  0  0  0  0  0  0
  143.5200   82.4440  217.4870 C   0  0  0  0  0  0  0  0  0  0  0  0
  141.3820   79.4500  218.0300 C   0  0  0  0  0  0  0  0  0  0  0  0
  140.0010   79.2180  218.5590 C   0  0  0  0  0  0  0  0  0  0  0  0
  139.7020   77.7260  218.3230 C   0  0  0  0  0  0  0  0  0  0  0  0
  140.4700   77.0860  219.4210 N   0  0  0  0  0  0  0  0  0  0  0  0
  139.7300   76.2760  220.2890 C   0  0  0  0  0  0  0  0  0  0  0  0
  138.4750   76.1730  220.0240 O   0  0  0  0  0  0  0  0  0  0  0  0
  140.1930   75.5260  221.4650 C   0  0  2  0  0  0  0  0  0  0  0  0
  139.2460   74.6940  222.1120 N   0  0  0  0  0  0  0  0  0  0  0  0
  141.0600   76.3660  222.3750 C   0  0  0  0  0  0  0  0  0  0  0  0
  140.3980   77.6920  222.7220 C   0  0  0  0  0  0  0  0  0  0  0  0
  139.0090   77.7410  222.7340 C   0  0  0  0  0  0  0  0  0  0  0  0
  138.5910   79.4570  223.1250 S   0  0  0  0  0  0  0  0  0  0  0  0
  140.3100   79.9590  223.2400 C   0  0  0  0  0  0  0  0  0  0  0  0
  140.8180   81.2040  223.5310 C   0  0  0  0  0  0  0  0  0  0  0  0
  142.1910   81.4020  223.5850 C   0  0  0  0  0  0  0  0  0  0  0  0
  142.9610   80.2790  223.3310 C   0  0  0  0  0  0  0  0  0  0  0  0
  142.4410   79.0450  223.0430 C   0  0  0  0  0  0  0  0  0  0  0  0
  141.0410   78.8420  222.9850 C   0  0  0  0  0  0  0  0  0  0  0  0
  141.8590   77.3860  219.4560 C   0  0  0  0  0  0  0  0  0  0  0  0
  142.3480   78.4870  218.6010 C   0  0  0  0  0  0  0  0  0  0  0  0
  140.5559   82.5670  221.5849 H   0  0  0  0  0  0  0  0  0  0  0  0
  141.7934   83.6862  220.9197 H   0  0  0  0  0  0  0  0  0  0  0  0
  140.0609   84.1605  220.9197 H   0  0  0  0  0  0  0  0  0  0  0  0
  139.5393   82.4245  219.2861 H   0  0  0  0  0  0  0  0  0  0  0  0
  140.8801   83.4023  218.6538 H   0  0  0  0  0  0  0  0  0  0  0  0
  141.4082   80.4669  215.6465 H   0  0  0  0  0  0  0  0  0  0  0  0
  142.6610   81.6360  213.7911 H   0  0  0  0  0  0  0  0  0  0  0  0
  144.4140   83.2736  214.3470 H   0  0  0  0  0  0  0  0  0  0  0  0
  144.9918   83.8196  216.7046 H   0  0  0  0  0  0  0  0  0  0  0  0
  143.7559   82.6655  218.5383 H   0  0  0  0  0  0  0  0  0  0  0  0
  141.3538   79.2663  216.9458 H   0  0  0  0  0  0  0  0  0  0  0  0
  139.9589   79.4511  219.6332 H   0  0  0  0  0  0  0  0  0  0  0  0
  139.2635   79.8614  218.0568 H   0  0  0  0  0  0  0  0  0  0  0  0
  138.6261   77.5143  218.4102 H   0  0  0  0  0  0  0  0  0  0  0  0
  139.9774   77.3694  217.3195 H   0  0  0  0  0  0  0  0  0  0  0  0
  140.8549   74.7528  221.0477 H   0  0  0  0  0  0  0  0  0  0  0  0
  138.2990   74.6500  221.7620 H   0  0  0  0  0  0  0  0  0  0  0  0
  139.3920   74.6780  223.1300 H   0  0  0  0  0  0  0  0  0  0  0  0
  141.2466   75.8074  223.3041 H   0  0  0  0  0  0  0  0  0  0  0  0
  142.0007   76.5816  221.8472 H   0  0  0  0  0  0  0  0  0  0  0  0
  138.3114   76.9116  222.5456 H   0  0  0  0  0  0  0  0  0  0  0  0
  140.1345   82.0446  223.7214 H   0  0  0  0  0  0  0  0  0  0  0  0
  142.6360   82.3817  223.8134 H   0  0  0  0  0  0  0  0  0  0  0  0
  144.0555   80.3845  223.3624 H   0  0  0  0  0  0  0  0  0  0  0  0
  143.1201   78.2005  222.8543 H   0  0  0  0  0  0  0  0  0  0  0  0
  142.1136   77.6401  220.4955 H   0  0  0  0  0  0  0  0  0  0  0  0
  142.3469   76.4858  219.0541 H   0  0  0  0  0  0  0  0  0  0  0  0
  143.0605   79.0684  219.2045 H   0  0  0  0  0  0  0  0  0  0  0  0
  142.7492   77.9690  217.7174 H   0  0  0  0  0  0  0  0  0  0  0  0
  1  2  1  0
  2  3  1  0
  3  4  2  0
  3  5  1  0
  5  6  1  0
  6  7  2  0
  7  8  1  0
  8  9  2  0
  9 10  1  0
 10 11  2  0
  5 12  1  0
 12 13  1  0
 13 14  1  0
 14 15  1  0
 15 16  1  0
 16 17  2  0
 16 18  1  0
 18 19  1  0
 18 20  1  0
 20 21  1  0
 21 22  2  0
 22 23  1  0
 23 24  1  0
 24 25  2  0
 25 26  1  0
 26 27  2  0
 27 28  1  0
 28 29  2  0
 15 30  1  0
 30 31  1  0
 11  6  1  0
 31 12  1  0
 29 21  1  0
 29 24  1  0
  1 32  1  0
  1 33  1  0
  1 34  1  0
  2 35  1  0
  2 36  1  0
  7 37  1  0
  8 38  1  0
  9 39  1  0
 10 40  1  0
 11 41  1  0
 12 42  1  0
 13 43  1  0
 13 44  1  0
 14 45  1  0
 14 46  1  0
 18 47  1  6
 19 48  1  0
 19 49  1  0
 20 50  1  0
 20 51  1  0
 22 52  1  0
 25 53  1  0
 26 54  1  0
 27 55  1  0
 28 56  1  0
 30 57  1  0
 30 58  1  0
 31 59  1  0
 31 60  1  0
M  END
>  <smiles>  (16) 
CCC(=O)N(c1ccccc1)C1CCN(C(=O)[C@H](N)Cc2csc3ccccc23)CC1

>  <score_type>  (16) 
oracle

>  <origin>  (16) 
autodockgpu

>  <m_score__min__energy>  (16) 
-9.4100000000000001

>  <m_primary>  (16) 
energy

>  <rmsd>  (16) 
4.033881049044452

>  <m_score__min__rmsd>  (16) 
4.033881049044452

>  <meeko>  (16) 
{"free_energy": -6.72, "intermolecular_energy": -9.11, "internal_energy": -3.33, "cluster_size": 14, "cluster_id": 9, "rank_in_cluster": 3}

>  <energy>  (16) 
-8.12

>  <cluster_rmsd>  (16) 
0.0

>  <cluster>  (16) 
3

$$$$

     RDKit          3D

 60 63  0  0  0  0  0  0  0  0999 V2000
  146.6210   73.7470  220.9320 C   0  0  0  0  0  0  0  0  0  0  0  0
  145.5810   72.6600  221.0070 C   0  0  0  0  0  0  0  0  0  0  0  0
  145.2680   72.2660  219.5940 C   0  0  0  0  0  0  0  0  0  0  0  0
  145.9360   72.8510  218.7020 O   0  0  0  0  0  0  0  0  0  0  0  0
  144.2650   71.2860  219.3010 N   0  0  0  0  0  0  0  0  0  0  0  0
  144.6110   69.9340  219.0080 C   0  0  0  0  0  0  0  0  0  0  0  0
  144.3820   69.0220  220.0370 C   0  0  0  0  0  0  0  0  0  0  0  0
  144.7130   67.6830  219.7930 C   0  0  0  0  0  0  0  0  0  0  0  0
  145.2430   67.3240  218.5700 C   0  0  0  0  0  0  0  0  0  0  0  0
  145.4660   68.2460  217.5520 C   0  0  0  0  0  0  0  0  0  0  0  0
  145.1410   69.5630  217.7900 C   0  0  0  0  0  0  0  0  0  0  0  0
  142.8800   71.7440  219.3260 C   0  0  0  0  0  0  0  0  0  0  0  0
  142.6290   72.7210  220.4320 C   0  0  0  0  0  0  0  0  0  0  0  0
  141.1410   73.1040  220.3290 C   0  0  0  0  0  0  0  0  0  0  0  0
  140.4820   71.9160  220.9290 N   0  0  0  0  0  0  0  0  0  0  0  0
  139.6480   72.1710  222.0240 C   0  0  0  0  0  0  0  0  0  0  0  0
  139.5440   73.4060  222.3710 O   0  0  0  0  0  0  0  0  0  0  0  0
  138.8760   71.2180  222.8330 C   0  0  2  0  0  0  0  0  0  0  0  0
  137.8500   71.7510  223.6520 N   0  0  0  0  0  0  0  0  0  0  0  0
  139.7540   70.1710  223.4780 C   0  0  0  0  0  0  0  0  0  0  0  0
  140.1980   70.5850  224.8740 C   0  0  0  0  0  0  0  0  0  0  0  0
  140.6670   71.8820  225.0480 C   0  0  0  0  0  0  0  0  0  0  0  0
  141.1470   71.9910  226.7890 S   0  0  0  0  0  0  0  0  0  0  0  0
  140.6780   70.2940  227.1320 C   0  0  0  0  0  0  0  0  0  0  0  0
  140.7510   69.6130  228.3250 C   0  0  0  0  0  0  0  0  0  0  0  0
  140.3290   68.2930  228.4020 C   0  0  0  0  0  0  0  0  0  0  0  0
  139.8490   67.7550  227.2190 C   0  0  0  0  0  0  0  0  0  0  0  0
  139.7810   68.4450  226.0390 C   0  0  0  0  0  0  0  0  0  0  0  0
  140.2130   69.7910  225.9580 C   0  0  0  0  0  0  0  0  0  0  0  0
  140.7880   70.6690  220.3210 C   0  0  0  0  0  0  0  0  0  0  0  0
  141.9110   70.6280  219.3610 C   0  0  0  0  0  0  0  0  0  0  0  0
  146.9099   74.0489  221.9496 H   0  0  0  0  0  0  0  0  0  0  0  0
  147.5053   73.3721  220.3958 H   0  0  0  0  0  0  0  0  0  0  0  0
  146.2074   74.6139  220.3958 H   0  0  0  0  0  0  0  0  0  0  0  0
  145.9744   71.7964  221.5633 H   0  0  0  0  0  0  0  0  0  0  0  0
  144.6787   73.0105  221.5295 H   0  0  0  0  0  0  0  0  0  0  0  0
  143.9588   69.3407  221.0010 H   0  0  0  0  0  0  0  0  0  0  0  0
  144.5516   66.9223  220.5710 H   0  0  0  0  0  0  0  0  0  0  0  0
  145.4988   66.2688  218.3935 H   0  0  0  0  0  0  0  0  0  0  0  0
  145.8891   67.9324  216.5863 H   0  0  0  0  0  0  0  0  0  0  0  0
  145.3042   70.3194  217.0082 H   0  0  0  0  0  0  0  0  0  0  0  0
  142.7192   72.2744  218.3759 H   0  0  0  0  0  0  0  0  0  0  0  0
  142.8377   72.2567  221.4071 H   0  0  0  0  0  0  0  0  0  0  0  0
  143.2796   73.6038  220.3458 H   0  0  0  0  0  0  0  0  0  0  0  0
  140.9213   74.0167  220.9023 H   0  0  0  0  0  0  0  0  0  0  0  0
  140.8079   73.3299  219.3053 H   0  0  0  0  0  0  0  0  0  0  0  0
  138.2577   70.6813  222.0984 H   0  0  0  0  0  0  0  0  0  0  0  0
  137.6050   72.7290  223.5720 H   0  0  0  0  0  0  0  0  0  0  0  0
  137.8540   71.3230  224.5870 H   0  0  0  0  0  0  0  0  0  0  0  0
  139.1907   69.2288  223.5486 H   0  0  0  0  0  0  0  0  0  0  0  0
  140.6531   70.0495  222.8560 H   0  0  0  0  0  0  0  0  0  0  0  0
  140.7325   72.6745  224.2879 H   0  0  0  0  0  0  0  0  0  0  0  0
  141.1449   70.1160  229.2204 H   0  0  0  0  0  0  0  0  0  0  0  0
  140.3726   67.7146  229.3367 H   0  0  0  0  0  0  0  0  0  0  0  0
  139.5019   66.7112  227.2287 H   0  0  0  0  0  0  0  0  0  0  0  0
  139.3854   67.9472  225.1414 H   0  0  0  0  0  0  0  0  0  0  0  0
  141.0201   69.9586  221.1281 H   0  0  0  0  0  0  0  0  0  0  0  0
  139.8995   70.4289  219.7186 H   0  0  0  0  0  0  0  0  0  0  0  0
  142.4835   69.7139  219.5771 H   0  0  0  0  0  0  0  0  0  0  0  0
  141.4151   70.6857  218.3808 H   0  0  0  0  0  0  0  0  0  0  0  0
  1  2  1  0
  2  3  1  0
  3  4  2  0
  3  5  1  0
  5  6  1  0
  6  7  2  0
  7  8  1  0
  8  9  2  0
  9 10  1  0
 10 11  2  0
  5 12  1  0
 12 13  1  0
 13 14  1  0
 14 15  1  0
 15 16  1  0
 16 17  2  0
 16 18  1  0
 18 19  1  0
 18 20  1  0
 20 21  1  0
 21 22  2  0
 22 23  1  0
 23 24  1  0
 24 25  2  0
 25 26  1  0
 26 27  2  0
 27 28  1  0
 28 29  2  0
 15 30  1  0
 30 31  1  0
 11  6  1  0
 31 12  1  0
 29 21  1  0
 29 24  1  0
  1 32  1  0
  1 33  1  0
  1 34  1  0
  2 35  1  0
  2 36  1  0
  7 37  1  0
  8 38  1  0
  9 39  1  0
 10 40  1  0
 11 41  1  0
 12 42  1  0
 13 43  1  0
 13 44  1  0
 14 45  1  0
 14 46  1  0
 18 47  1  6
 19 48  1  0
 19 49  1  0
 20 50  1  0
 20 51  1  0
 22 52  1  0
 25 53  1  0
 26 54  1  0
 27 55  1  0
 28 56  1  0
 30 57  1  0
 30 58  1  0
 31 59  1  0
 31 60  1  0
M  END
>  <smiles>  (17) 
CCC(=O)N(c1ccccc1)C1CCN(C(=O)[C@H](N)Cc2csc3ccccc23)CC1

>  <score_type>  (17) 
oracle

>  <origin>  (17) 
autodockgpu

>  <m_score__min__energy>  (17) 
-9.4100000000000001

>  <m_primary>  (17) 
energy

>  <rmsd>  (17) 
8.496431332823848

>  <m_score__min__rmsd>  (17) 
8.496431332823848

>  <meeko>  (17) 
{"free_energy": -9.06, "intermolecular_energy": -11.45, "internal_energy": -1.9, "cluster_size": 11, "cluster_id": 1, "rank_in_cluster": 4}

>  <energy>  (17) 
-8.07

>  <cluster_rmsd>  (17) 
1.76

>  <cluster>  (17) 
3

$$$$

     RDKit          3D

 60 63  0  0  0  0  0  0  0  0999 V2000
  146.3950   73.3420  221.9360 C   0  0  0  0  0  0  0  0  0  0  0  0
  145.9130   74.1140  220.7360 C   0  0  0  0  0  0  0  0  0  0  0  0
  144.9250   73.2360  220.0280 C   0  0  0  0  0  0  0  0  0  0  0  0
  144.8070   72.0680  220.4820 O   0  0  0  0  0  0  0  0  0  0  0  0
  144.1750   73.7170  218.9060 N   0  0  0  0  0  0  0  0  0  0  0  0
  144.8070   74.0160  217.6630 C   0  0  0  0  0  0  0  0  0  0  0  0
  144.1810   74.9980  216.8970 C   0  0  0  0  0  0  0  0  0  0  0  0
  144.7660   75.3180  215.6650 C   0  0  0  0  0  0  0  0  0  0  0  0
  145.9140   74.6650  215.2650 C   0  0  0  0  0  0  0  0  0  0  0  0
  146.5270   73.6860  216.0420 C   0  0  0  0  0  0  0  0  0  0  0  0
  145.9530   73.3700  217.2530 C   0  0  0  0  0  0  0  0  0  0  0  0
  142.7380   73.8770  219.1040 C   0  0  0  0  0  0  0  0  0  0  0  0
  142.4160   74.5030  220.4250 C   0  0  0  0  0  0  0  0  0  0  0  0
  140.8810   74.6000  220.4840 C   0  0  0  0  0  0  0  0  0  0  0  0
  140.5020   73.2010  220.8050 N   0  0  0  0  0  0  0  0  0  0  0  0
  139.7380   73.0260  221.9640 C   0  0  0  0  0  0  0  0  0  0  0  0
  139.4460   74.1020  222.6070 O   0  0  0  0  0  0  0  0  0  0  0  0
  139.2250   71.7800  222.5490 C   0  0  2  0  0  0  0  0  0  0  0  0
  138.1060   71.8850  223.4110 N   0  0  0  0  0  0  0  0  0  0  0  0
  140.3350   70.8700  223.0220 C   0  0  0  0  0  0  0  0  0  0  0  0
  140.0080   70.2260  224.3620 C   0  0  0  0  0  0  0  0  0  0  0  0
  139.2740   69.0460  224.3520 C   0  0  0  0  0  0  0  0  0  0  0  0
  139.0330   68.6140  226.0930 S   0  0  0  0  0  0  0  0  0  0  0  0
  139.9350   70.0500  226.6810 C   0  0  0  0  0  0  0  0  0  0  0  0
  140.1940   70.4220  227.9800 C   0  0  0  0  0  0  0  0  0  0  0  0
  140.9230   71.5720  228.2430 C   0  0  0  0  0  0  0  0  0  0  0  0
  141.3450   72.2750  227.1270 C   0  0  0  0  0  0  0  0  0  0  0  0
  141.0800   71.8930  225.8390 C   0  0  0  0  0  0  0  0  0  0  0  0
  140.3340   70.7200  225.5680 C   0  0  0  0  0  0  0  0  0  0  0  0
  140.9710   72.2130  219.8960 C   0  0  0  0  0  0  0  0  0  0  0  0
  141.9920   72.6160  218.9070 C   0  0  0  0  0  0  0  0  0  0  0  0
  146.0747   73.8550  222.8548 H   0  0  0  0  0  0  0  0  0  0  0  0
  145.9693   72.3279  221.9148 H   0  0  0  0  0  0  0  0  0  0  0  0
  147.4930   73.2793  221.9148 H   0  0  0  0  0  0  0  0  0  0  0  0
  145.4289   75.0485  221.0557 H   0  0  0  0  0  0  0  0  0  0  0  0
  146.7504   74.3812  220.0746 H   0  0  0  0  0  0  0  0  0  0  0  0
  143.2664   75.5004  217.2451 H   0  0  0  0  0  0  0  0  0  0  0  0
  144.3129   76.0854  215.0202 H   0  0  0  0  0  0  0  0  0  0  0  0
  146.3618   74.9281  214.2953 H   0  0  0  0  0  0  0  0  0  0  0  0
  147.4418   73.1804  215.6991 H   0  0  0  0  0  0  0  0  0  0  0  0
  146.4097   72.6012  217.8937 H   0  0  0  0  0  0  0  0  0  0  0  0
  142.3999   74.5717  218.3210 H   0  0  0  0  0  0  0  0  0  0  0  0
  142.7915   73.8759  221.2471 H   0  0  0  0  0  0  0  0  0  0  0  0
  142.8870   75.4916  220.5285 H   0  0  0  0  0  0  0  0  0  0  0  0
  140.5533   75.2947  221.2714 H   0  0  0  0  0  0  0  0  0  0  0  0
  140.4226   74.9859  219.5615 H   0  0  0  0  0  0  0  0  0  0  0  0
  138.7501   71.2622  221.7027 H   0  0  0  0  0  0  0  0  0  0  0  0
  137.4230   71.1400  223.4350 H   0  0  0  0  0  0  0  0  0  0  0  0
  137.7720   72.8560  223.4770 H   0  0  0  0  0  0  0  0  0  0  0  0
  140.4883   70.0777  222.2745 H   0  0  0  0  0  0  0  0  0  0  0  0
  141.2436   71.4771  223.1479 H   0  0  0  0  0  0  0  0  0  0  0  0
  138.9154   68.4918  223.4721 H   0  0  0  0  0  0  0  0  0  0  0  0
  139.8220   69.8058  228.8118 H   0  0  0  0  0  0  0  0  0  0  0  0
  141.1503   71.9029  229.2671 H   0  0  0  0  0  0  0  0  0  0  0  0
  141.9275   73.1947  227.2845 H   0  0  0  0  0  0  0  0  0  0  0  0
  141.4514   72.5052  225.0039 H   0  0  0  0  0  0  0  0  0  0  0  0
  141.3981   71.3940  220.4933 H   0  0  0  0  0  0  0  0  0  0  0  0
  140.0893   71.9508  219.2928 H   0  0  0  0  0  0  0  0  0  0  0  0
  142.7361   71.8068  218.8674 H   0  0  0  0  0  0  0  0  0  0  0  0
  141.4080   72.8012  217.9934 H   0  0  0  0  0  0  0  0  0  0  0  0
  1  2  1  0
  2  3  1  0
  3  4  2  0
  3  5  1  0
  5  6  1  0
  6  7  2  0
  7  8  1  0
  8  9  2  0
  9 10  1  0
 10 11  2  0
  5 12  1  0
 12 13  1  0
 13 14  1  0
 14 15  1  0
 15 16  1  0
 16 17  2  0
 16 18  1  0
 18 19  1  0
 18 20  1  0
 20 21  1  0
 21 22  2  0
 22 23  1  0
 23 24  1  0
 24 25  2  0
 25 26  1  0
 26 27  2  0
 27 28  1  0
 28 29  2  0
 15 30  1  0
 30 31  1  0
 11  6  1  0
 31 12  1  0
 29 21  1  0
 29 24  1  0
  1 32  1  0
  1 33  1  0
  1 34  1  0
  2 35  1  0
  2 36  1  0
  7 37  1  0
  8 38  1  0
  9 39  1  0
 10 40  1  0
 11 41  1  0
 12 42  1  0
 13 43  1  0
 13 44  1  0
 14 45  1  0
 14 46  1  0
 18 47  1  6
 19 48  1  0
 19 49  1  0
 20 50  1  0
 20 51  1  0
 22 52  1  0
 25 53  1  0
 26 54  1  0
 27 55  1  0
 28 56  1  0
 30 57  1  0
 30 58  1  0
 31 59  1  0
 31 60  1  0
M  END
>  <smiles>  (18) 
CCC(=O)N(c1ccccc1)C1CCN(C(=O)[C@H](N)Cc2csc3ccccc23)CC1

>  <score_type>  (18) 
oracle

>  <origin>  (18) 
autodockgpu

>  <m_score__min__energy>  (18) 
-9.4100000000000001

>  <m_primary>  (18) 
energy

>  <rmsd>  (18) 
7.501910269278398

>  <m_score__min__rmsd>  (18) 
7.501910269278398

>  <meeko>  (18) 
{"free_energy": -7.78, "intermolecular_energy": -10.17, "internal_energy": -2.31, "cluster_size": 4, "cluster_id": 2, "rank_in_cluster": 3}

>  <energy>  (18) 
-8.07

>  <cluster_rmsd>  (18) 
1.87

>  <cluster>  (18) 
3

$$$$

     RDKit          3D

 60 63  0  0  0  0  0  0  0  0999 V2000
  136.7270   68.7110  222.9610 C   0  0  0  0  0  0  0  0  0  0  0  0
  136.3310   69.5290  224.1620 C   0  0  0  0  0  0  0  0  0  0  0  0
  137.1710   70.7710  224.1340 C   0  0  0  0  0  0  0  0  0  0  0  0
  136.5440   71.8580  224.2310 O   0  0  0  0  0  0  0  0  0  0  0  0
  138.5960   70.7000  224.0010 N   0  0  0  0  0  0  0  0  0  0  0  0
  139.4110   70.1390  225.0270 C   0  0  0  0  0  0  0  0  0  0  0  0
  139.9960   71.0590  225.8950 C   0  0  0  0  0  0  0  0  0  0  0  0
  140.8090   70.5490  226.9160 C   0  0  0  0  0  0  0  0  0  0  0  0
  140.9980   69.1870  227.0210 C   0  0  0  0  0  0  0  0  0  0  0  0
  140.4070   68.2800  226.1460 C   0  0  0  0  0  0  0  0  0  0  0  0
  139.6070   68.7790  225.1420 C   0  0  0  0  0  0  0  0  0  0  0  0
  139.1610   71.2260  222.7630 C   0  0  0  0  0  0  0  0  0  0  0  0
  140.5460   71.7590  222.9570 C   0  0  0  0  0  0  0  0  0  0  0  0
  140.9980   72.2740  221.5770 C   0  0  0  0  0  0  0  0  0  0  0  0
  140.2740   73.5670  221.4850 N   0  0  0  0  0  0  0  0  0  0  0  0
  141.0710   74.6990  221.2800 C   0  0  0  0  0  0  0  0  0  0  0  0
  142.3350   74.4810  221.1850 O   0  0  0  0  0  0  0  0  0  0  0  0
  140.6590   76.1040  221.1610 C   0  0  2  0  0  0  0  0  0  0  0  0
  141.6360   77.0250  220.7090 N   0  0  0  0  0  0  0  0  0  0  0  0
  139.8210   76.5570  222.3350 C   0  0  0  0  0  0  0  0  0  0  0  0
  139.6000   78.0630  222.3250 C   0  0  0  0  0  0  0  0  0  0  0  0
  138.4080   78.5400  221.7940 C   0  0  0  0  0  0  0  0  0  0  0  0
  138.5220   80.3430  221.8970 S   0  0  0  0  0  0  0  0  0  0  0  0
  140.1540   80.3010  222.6420 C   0  0  0  0  0  0  0  0  0  0  0  0
  140.9390   81.3580  223.0390 C   0  0  0  0  0  0  0  0  0  0  0  0
  142.1820   81.1280  223.6100 C   0  0  0  0  0  0  0  0  0  0  0  0
  142.5380   79.7960  223.7370 C   0  0  0  0  0  0  0  0  0  0  0  0
  141.7460   78.7520  223.3380 C   0  0  0  0  0  0  0  0  0  0  0  0
  140.4780   78.9860  222.7530 C   0  0  0  0  0  0  0  0  0  0  0  0
  138.8610   73.4920  221.6250 C   0  0  0  0  0  0  0  0  0  0  0  0
  138.2840   72.2220  222.1130 C   0  0  0  0  0  0  0  0  0  0  0  0
  137.1838   67.7675  223.2944 H   0  0  0  0  0  0  0  0  0  0  0  0
  135.8348   68.4927  222.3557 H   0  0  0  0  0  0  0  0  0  0  0  0
  137.4516   69.2754  222.3557 H   0  0  0  0  0  0  0  0  0  0  0  0
  135.2642   69.7916  224.1067 H   0  0  0  0  0  0  0  0  0  0  0  0
  136.4888   68.9658  225.0936 H   0  0  0  0  0  0  0  0  0  0  0  0
  139.8267   72.1401  225.7833 H   0  0  0  0  0  0  0  0  0  0  0  0
  141.2938   71.2313  227.6298 H   0  0  0  0  0  0  0  0  0  0  0  0
  141.6403   68.8027  227.8270 H   0  0  0  0  0  0  0  0  0  0  0  0
  140.5737   67.1980  226.2531 H   0  0  0  0  0  0  0  0  0  0  0  0
  139.1241   68.0921  224.4314 H   0  0  0  0  0  0  0  0  0  0  0  0
  139.2317   70.3705  222.0752 H   0  0  0  0  0  0  0  0  0  0  0  0
  140.5408   72.5802  223.6889 H   0  0  0  0  0  0  0  0  0  0  0  0
  141.2263   70.9848  223.3416 H   0  0  0  0  0  0  0  0  0  0  0  0
  142.0875   72.4213  221.5414 H   0  0  0  0  0  0  0  0  0  0  0  0
  140.7818   71.5819  220.7498 H   0  0  0  0  0  0  0  0  0  0  0  0
  139.9867   76.1148  220.2904 H   0  0  0  0  0  0  0  0  0  0  0  0
  141.4520   77.5840  219.8870 H   0  0  0  0  0  0  0  0  0  0  0  0
  142.5880   76.6640  220.8510 H   0  0  0  0  0  0  0  0  0  0  0  0
  138.8440   76.0536  222.2902 H   0  0  0  0  0  0  0  0  0  0  0  0
  140.3583   76.2967  223.2589 H   0  0  0  0  0  0  0  0  0  0  0  0
  137.5717   77.9470  221.3953 H   0  0  0  0  0  0  0  0  0  0  0  0
  140.5801   82.3889  222.9034 H   0  0  0  0  0  0  0  0  0  0  0  0
  142.8390   81.9466  223.9389 H   0  0  0  0  0  0  0  0  0  0  0  0
  143.5150   79.5622  224.1850 H   0  0  0  0  0  0  0  0  0  0  0  0
  142.0994   77.7192  223.4737 H   0  0  0  0  0  0  0  0  0  0  0  0
  138.5585   74.2817  222.3285 H   0  0  0  0  0  0  0  0  0  0  0  0
  138.4749   73.5963  220.6003 H   0  0  0  0  0  0  0  0  0  0  0  0
  137.5032   72.4847  222.8419 H   0  0  0  0  0  0  0  0  0  0  0  0
  137.9573   71.7164  221.1924 H   0  0  0  0  0  0  0  0  0  0  0  0
  1  2  1  0
  2  3  1  0
  3  4  2  0
  3  5  1  0
  5  6  1  0
  6  7  2  0
  7  8  1  0
  8  9  2  0
  9 10  1  0
 10 11  2  0
  5 12  1  0
 12 13  1  0
 13 14  1  0
 14 15  1  0
 15 16  1  0
 16 17  2  0
 16 18  1  0
 18 19  1  0
 18 20  1  0
 20 21  1  0
 21 22  2  0
 22 23  1  0
 23 24  1  0
 24 25  2  0
 25 26  1  0
 26 27  2  0
 27 28  1  0
 28 29  2  0
 15 30  1  0
 30 31  1  0
 11  6  1  0
 31 12  1  0
 29 21  1  0
 29 24  1  0
  1 32  1  0
  1 33  1  0
  1 34  1  0
  2 35  1  0
  2 36  1  0
  7 37  1  0
  8 38  1  0
  9 39  1  0
 10 40  1  0
 11 41  1  0
 12 42  1  0
 13 43  1  0
 13 44  1  0
 14 45  1  0
 14 46  1  0
 18 47  1  6
 19 48  1  0
 19 49  1  0
 20 50  1  0
 20 51  1  0
 22 52  1  0
 25 53  1  0
 26 54  1  0
 27 55  1  0
 28 56  1  0
 30 57  1  0
 30 58  1  0
 31 59  1  0
 31 60  1  0
M  END
>  <smiles>  (19) 
CCC(=O)N(c1ccccc1)C1CCN(C(=O)[C@H](N)Cc2csc3ccccc23)CC1

>  <score_type>  (19) 
oracle

>  <origin>  (19) 
autodockgpu

>  <m_score__min__energy>  (19) 
-9.4100000000000001

>  <m_primary>  (19) 
energy

>  <rmsd>  (19) 
6.893730341833561

>  <m_score__min__rmsd>  (19) 
6.893730341833561

>  <meeko>  (19) 
{"free_energy": -7.87, "intermolecular_energy": -10.26, "internal_energy": -2.13, "cluster_size": 9, "cluster_id": 3, "rank_in_cluster": 7}

>  <energy>  (19) 
-8.07

>  <cluster_rmsd>  (19) 
1.77

>  <cluster>  (19) 
3

$$$$

     RDKit          3D

 60 63  0  0  0  0  0  0  0  0999 V2000
  144.2530   74.1120  219.3240 C   0  0  0  0  0  0  0  0  0  0  0  0
  143.2140   75.1910  219.4800 C   0  0  0  0  0  0  0  0  0  0  0  0
  142.3040   74.7550  220.5910 C   0  0  0  0  0  0  0  0  0  0  0  0
  142.6610   73.7230  221.2160 O   0  0  0  0  0  0  0  0  0  0  0  0
  141.1090   75.4810  220.9000 N   0  0  0  0  0  0  0  0  0  0  0  0
  141.1540   76.8510  221.2960 C   0  0  0  0  0  0  0  0  0  0  0  0
  141.0710   77.0780  222.6690 C   0  0  0  0  0  0  0  0  0  0  0  0
  141.1050   78.4110  223.1000 C   0  0  0  0  0  0  0  0  0  0  0  0
  141.2170   79.4250  222.1720 C   0  0  0  0  0  0  0  0  0  0  0  0
  141.2980   79.1820  220.8040 C   0  0  0  0  0  0  0  0  0  0  0  0
  141.2650   77.8730  220.3780 C   0  0  0  0  0  0  0  0  0  0  0  0
  139.8530   74.7490  220.7830 C   0  0  0  0  0  0  0  0  0  0  0  0
  139.0090   74.8760  222.0120 C   0  0  0  0  0  0  0  0  0  0  0  0
  137.7350   74.0550  221.7380 C   0  0  0  0  0  0  0  0  0  0  0  0
  138.2190   72.6680  221.9440 N   0  0  0  0  0  0  0  0  0  0  0  0
  137.5320   71.9190  222.9070 C   0  0  0  0  0  0  0  0  0  0  0  0
  136.5550   72.5210  223.4880 O   0  0  0  0  0  0  0  0  0  0  0  0
  137.7760   70.5380  223.3450 C   0  0  2  0  0  0  0  0  0  0  0  0
  136.9210   70.0200  224.3480 N   0  0  0  0  0  0  0  0  0  0  0  0
  139.2480   70.2450  223.5200 C   0  0  0  0  0  0  0  0  0  0  0  0
  139.5380   69.5840  224.8600 C   0  0  0  0  0  0  0  0  0  0  0  0
  139.2150   68.2410  225.0050 C   0  0  0  0  0  0  0  0  0  0  0  0
  139.6410   67.8240  226.7140 S   0  0  0  0  0  0  0  0  0  0  0  0
  140.2150   69.4830  227.0840 C   0  0  0  0  0  0  0  0  0  0  0  0
  140.7300   69.9640  228.2660 C   0  0  0  0  0  0  0  0  0  0  0  0
  141.1340   71.2880  228.3630 C   0  0  0  0  0  0  0  0  0  0  0  0
  140.9780   72.0410  227.2100 C   0  0  0  0  0  0  0  0  0  0  0  0
  140.4650   71.5480  226.0400 C   0  0  0  0  0  0  0  0  0  0  0  0
  140.0500   70.1980  225.9410 C   0  0  0  0  0  0  0  0  0  0  0  0
  139.3270   72.2760  221.1440 C   0  0  0  0  0  0  0  0  0  0  0  0
  140.0510   73.3330  220.4080 C   0  0  0  0  0  0  0  0  0  0  0  0
  144.5805   73.7719  220.3175 H   0  0  0  0  0  0  0  0  0  0  0  0
  143.8218   73.2650  218.7703 H   0  0  0  0  0  0  0  0  0  0  0  0
  145.1157   74.5110  218.7703 H   0  0  0  0  0  0  0  0  0  0  0  0
  143.6950   76.1464  219.7366 H   0  0  0  0  0  0  0  0  0  0  0  0
  142.6542   75.3398  218.5449 H   0  0  0  0  0  0  0  0  0  0  0  0
  140.9826   76.2463  223.3835 H   0  0  0  0  0  0  0  0  0  0  0  0
  141.0427   78.6472  224.1725 H   0  0  0  0  0  0  0  0  0  0  0  0
  141.2433   80.4659  222.5267 H   0  0  0  0  0  0  0  0  0  0  0  0
  141.3857   80.0101  220.0853 H   0  0  0  0  0  0  0  0  0  0  0  0
  141.3273   77.6428  219.3042 H   0  0  0  0  0  0  0  0  0  0  0  0
  139.3030   75.2226  219.9564 H   0  0  0  0  0  0  0  0  0  0  0  0
  139.5427   74.4735  222.8856 H   0  0  0  0  0  0  0  0  0  0  0  0
  138.7717   75.9275  222.2312 H   0  0  0  0  0  0  0  0  0  0  0  0
  136.9340   74.3094  222.4477 H   0  0  0  0  0  0  0  0  0  0  0  0
  137.2960   74.2312  220.7449 H   0  0  0  0  0  0  0  0  0  0  0  0
  137.4457   69.9233  222.4947 H   0  0  0  0  0  0  0  0  0  0  0  0
  136.6840   69.0370  224.3430 H   0  0  0  0  0  0  0  0  0  0  0  0
  136.1910   70.6960  224.6070 H   0  0  0  0  0  0  0  0  0  0  0  0
  139.5755   69.5728  222.7132 H   0  0  0  0  0  0  0  0  0  0  0  0
  139.7929   71.1999  223.4851 H   0  0  0  0  0  0  0  0  0  0  0  0
  138.7900   67.5720  224.2422 H   0  0  0  0  0  0  0  0  0  0  0  0
  140.8216   69.2973  229.1361 H   0  0  0  0  0  0  0  0  0  0  0  0
  141.5490   71.7103  229.2901 H   0  0  0  0  0  0  0  0  0  0  0  0
  141.2844   73.0971  227.2363 H   0  0  0  0  0  0  0  0  0  0  0  0
  140.3742   72.2094  225.1657 H   0  0  0  0  0  0  0  0  0  0  0  0
  140.0523   71.7817  221.8070 H   0  0  0  0  0  0  0  0  0  0  0  0
  138.8920   71.6392  220.3596 H   0  0  0  0  0  0  0  0  0  0  0  0
  141.1247   73.1205  220.5173 H   0  0  0  0  0  0  0  0  0  0  0  0
  139.6311   73.2741  219.3930 H   0  0  0  0  0  0  0  0  0  0  0  0
  1  2  1  0
  2  3  1  0
  3  4  2  0
  3  5  1  0
  5  6  1  0
  6  7  2  0
  7  8  1  0
  8  9  2  0
  9 10  1  0
 10 11  2  0
  5 12  1  0
 12 13  1  0
 13 14  1  0
 14 15  1  0
 15 16  1  0
 16 17  2  0
 16 18  1  0
 18 19  1  0
 18 20  1  0
 20 21  1  0
 21 22  2  0
 22 23  1  0
 23 24  1  0
 24 25  2  0
 25 26  1  0
 26 27  2  0
 27 28  1  0
 28 29  2  0
 15 30  1  0
 30 31  1  0
 11  6  1  0
 31 12  1  0
 29 21  1  0
 29 24  1  0
  1 32  1  0
  1 33  1  0
  1 34  1  0
  2 35  1  0
  2 36  1  0
  7 37  1  0
  8 38  1  0
  9 39  1  0
 10 40  1  0
 11 41  1  0
 12 42  1  0
 13 43  1  0
 13 44  1  0
 14 45  1  0
 14 46  1  0
 18 47  1  6
 19 48  1  0
 19 49  1  0
 20 50  1  0
 20 51  1  0
 22 52  1  0
 25 53  1  0
 26 54  1  0
 27 55  1  0
 28 56  1  0
 30 57  1  0
 30 58  1  0
 31 59  1  0
 31 60  1  0
M  END
>  <smiles>  (20) 
CCC(=O)N(c1ccccc1)C1CCN(C(=O)[C@H](N)Cc2csc3ccccc23)CC1

>  <score_type>  (20) 
oracle

>  <origin>  (20) 
autodockgpu

>  <m_score__min__energy>  (20) 
-9.4100000000000001

>  <m_primary>  (20) 
energy

>  <rmsd>  (20) 
8.083751666103195

>  <m_score__min__rmsd>  (20) 
8.083751666103195

>  <meeko>  (20) 
{"free_energy": -7.6, "intermolecular_energy": -9.98, "internal_energy": -2.16, "cluster_size": 2, "cluster_id": 6, "rank_in_cluster": 1}

>  <energy>  (20) 
-8.03

>  <cluster_rmsd>  (20) 
1.86

>  <cluster>  (20) 
3

$$$$

     RDKit          3D

 60 63  0  0  0  0  0  0  0  0999 V2000
  136.1350   68.6330  222.6570 C   0  0  0  0  0  0  0  0  0  0  0  0
  137.5620   68.5110  223.1230 C   0  0  0  0  0  0  0  0  0  0  0  0
  137.7610   69.5600  224.1770 C   0  0  0  0  0  0  0  0  0  0  0  0
  136.7770   69.7700  224.9320 O   0  0  0  0  0  0  0  0  0  0  0  0
  139.0010   70.2670  224.2960 N   0  0  0  0  0  0  0  0  0  0  0  0
  139.7220   70.3020  225.5260 C   0  0  0  0  0  0  0  0  0  0  0  0
  140.1550   69.0640  225.9980 C   0  0  0  0  0  0  0  0  0  0  0  0
  140.8630   69.0520  227.2070 C   0  0  0  0  0  0  0  0  0  0  0  0
  141.0990   70.2390  227.8710 C   0  0  0  0  0  0  0  0  0  0  0  0
  140.6600   71.4670  227.3860 C   0  0  0  0  0  0  0  0  0  0  0  0
  139.9640   71.4810  226.1970 C   0  0  0  0  0  0  0  0  0  0  0  0
  139.4840   70.9400  223.0950 C   0  0  0  0  0  0  0  0  0  0  0  0
  140.5480   71.9470  223.4020 C   0  0  0  0  0  0  0  0  0  0  0  0
  140.9480   72.5670  222.0500 C   0  0  0  0  0  0  0  0  0  0  0  0
  139.8220   73.5020  221.8010 N   0  0  0  0  0  0  0  0  0  0  0  0
  140.1740   74.8430  221.6130 C   0  0  0  0  0  0  0  0  0  0  0  0
  141.4330   75.1020  221.6670 O   0  0  0  0  0  0  0  0  0  0  0  0
  139.3000   75.9970  221.3640 C   0  0  2  0  0  0  0  0  0  0  0  0
  139.8110   77.0250  220.5330 N   0  0  0  0  0  0  0  0  0  0  0  0
  138.5870   76.4560  222.6140 C   0  0  0  0  0  0  0  0  0  0  0  0
  138.6900   77.9630  222.8050 C   0  0  0  0  0  0  0  0  0  0  0  0
  137.5200   78.7090  222.7240 C   0  0  0  0  0  0  0  0  0  0  0  0
  138.0300   80.4310  222.9400 S   0  0  0  0  0  0  0  0  0  0  0  0
  139.7640   80.0030  223.1190 C   0  0  0  0  0  0  0  0  0  0  0  0
  140.8330   80.8420  223.3340 C   0  0  0  0  0  0  0  0  0  0  0  0
  142.1130   80.3230  223.4570 C   0  0  0  0  0  0  0  0  0  0  0  0
  142.2070   78.9450  223.3490 C   0  0  0  0  0  0  0  0  0  0  0  0
  141.1340   78.1220  223.1360 C   0  0  0  0  0  0  0  0  0  0  0  0
  139.8270   78.6500  223.0080 C   0  0  0  0  0  0  0  0  0  0  0  0
  138.5260   72.9170  221.7940 C   0  0  0  0  0  0  0  0  0  0  0  0
  138.3920   71.5340  222.2950 C   0  0  0  0  0  0  0  0  0  0  0  0
  135.4679   68.6900  223.5298 H   0  0  0  0  0  0  0  0  0  0  0  0
  136.0240   69.5439  222.0504 H   0  0  0  0  0  0  0  0  0  0  0  0
  135.8709   67.7542  222.0504 H   0  0  0  0  0  0  0  0  0  0  0  0
  137.7390   67.5108  223.5451 H   0  0  0  0  0  0  0  0  0  0  0  0
  138.2647   68.6498  222.2882 H   0  0  0  0  0  0  0  0  0  0  0  0
  139.9495   68.1357  225.4447 H   0  0  0  0  0  0  0  0  0  0  0  0
  141.2286   68.1023  227.6246 H   0  0  0  0  0  0  0  0  0  0  0  0
  141.6553   70.2130  228.8196 H   0  0  0  0  0  0  0  0  0  0  0  0
  140.8625   72.3984  227.9352 H   0  0  0  0  0  0  0  0  0  0  0  0
  139.6014   72.4336  225.7833 H   0  0  0  0  0  0  0  0  0  0  0  0
  139.9422   70.1569  222.4731 H   0  0  0  0  0  0  0  0  0  0  0  0
  140.1571   72.7223  224.0774 H   0  0  0  0  0  0  0  0  0  0  0  0
  141.4100   71.4825  223.9032 H   0  0  0  0  0  0  0  0  0  0  0  0
  141.9056   73.1034  222.1228 H   0  0  0  0  0  0  0  0  0  0  0  0
  141.1004   71.8290  221.2486 H   0  0  0  0  0  0  0  0  0  0  0  0
  138.5173   75.6027  220.6992 H   0  0  0  0  0  0  0  0  0  0  0  0
  139.2640   77.3500  219.7480 H   0  0  0  0  0  0  0  0  0  0  0  0
  140.8300   76.9450  220.4190 H   0  0  0  0  0  0  0  0  0  0  0  0
  137.5251   76.1786  222.5400 H   0  0  0  0  0  0  0  0  0  0  0  0
  139.0646   75.9694  223.4772 H   0  0  0  0  0  0  0  0  0  0  0  0
  136.4994   78.3318  222.5626 H   0  0  0  0  0  0  0  0  0  0  0  0
  140.6718   81.9276  223.4085 H   0  0  0  0  0  0  0  0  0  0  0  0
  142.9925   80.9610  223.6284 H   0  0  0  0  0  0  0  0  0  0  0  0
  143.2022   78.4852  223.4397 H   0  0  0  0  0  0  0  0  0  0  0  0
  141.2897   77.0355  223.0633 H   0  0  0  0  0  0  0  0  0  0  0  0
  137.8752   73.5540  222.4110 H   0  0  0  0  0  0  0  0  0  0  0  0
  138.2566   72.8533  220.7294 H   0  0  0  0  0  0  0  0  0  0  0  0
  137.4867   71.5062  222.9192 H   0  0  0  0  0  0  0  0  0  0  0  0
  138.3844   70.9269  221.3778 H   0  0  0  0  0  0  0  0  0  0  0  0
  1  2  1  0
  2  3  1  0
  3  4  2  0
  3  5  1  0
  5  6  1  0
  6  7  2  0
  7  8  1  0
  8  9  2  0
  9 10  1  0
 10 11  2  0
  5 12  1  0
 12 13  1  0
 13 14  1  0
 14 15  1  0
 15 16  1  0
 16 17  2  0
 16 18  1  0
 18 19  1  0
 18 20  1  0
 20 21  1  0
 21 22  2  0
 22 23  1  0
 23 24  1  0
 24 25  2  0
 25 26  1  0
 26 27  2  0
 27 28  1  0
 28 29  2  0
 15 30  1  0
 30 31  1  0
 11  6  1  0
 31 12  1  0
 29 21  1  0
 29 24  1  0
  1 32  1  0
  1 33  1  0
  1 34  1  0
  2 35  1  0
  2 36  1  0
  7 37  1  0
  8 38  1  0
  9 39  1  0
 10 40  1  0
 11 41  1  0
 12 42  1  0
 13 43  1  0
 13 44  1  0
 14 45  1  0
 14 46  1  0
 18 47  1  6
 19 48  1  0
 19 49  1  0
 20 50  1  0
 20 51  1  0
 22 52  1  0
 25 53  1  0
 26 54  1  0
 27 55  1  0
 28 56  1  0
 30 57  1  0
 30 58  1  0
 31 59  1  0
 31 60  1  0
M  END
>  <smiles>  (21) 
CCC(=O)N(c1ccccc1)C1CCN(C(=O)[C@H](N)Cc2csc3ccccc23)CC1

>  <score_type>  (21) 
oracle

>  <origin>  (21) 
autodockgpu

>  <m_score__min__energy>  (21) 
-9.4100000000000001

>  <m_primary>  (21) 
energy

>  <rmsd>  (21) 
7.210651215908338

>  <m_score__min__rmsd>  (21) 
7.210651215908338

>  <meeko>  (21) 
{"free_energy": -7.6, "intermolecular_energy": -9.99, "internal_energy": -1.94, "cluster_size": 9, "cluster_id": 3, "rank_in_cluster": 9}

>  <energy>  (21) 
-7.93

>  <cluster_rmsd>  (21) 
1.86

>  <cluster>  (21) 
3

$$$$

     RDKit          3D

 60 63  0  0  0  0  0  0  0  0999 V2000
  139.4400   76.9010  222.3670 C   0  0  0  0  0  0  0  0  0  0  0  0
  140.9170   76.6180  222.3030 C   0  0  0  0  0  0  0  0  0  0  0  0
  141.0740   75.3150  221.5760 C   0  0  0  0  0  0  0  0  0  0  0  0
  140.3470   74.3710  221.9810 O   0  0  0  0  0  0  0  0  0  0  0  0
  142.0010   75.1770  220.4930 N   0  0  0  0  0  0  0  0  0  0  0  0
  143.0040   74.1630  220.4980 C   0  0  0  0  0  0  0  0  0  0  0  0
  144.3180   74.6220  220.4380 C   0  0  0  0  0  0  0  0  0  0  0  0
  145.3340   73.6580  220.4350 C   0  0  0  0  0  0  0  0  0  0  0  0
  145.0040   72.3190  220.4890 C   0  0  0  0  0  0  0  0  0  0  0  0
  143.6860   71.8750  220.5480 C   0  0  0  0  0  0  0  0  0  0  0  0
  142.6860   72.8220  220.5520 C   0  0  0  0  0  0  0  0  0  0  0  0
  141.8600   76.1210  219.3900 C   0  0  0  0  0  0  0  0  0  0  0  0
  142.9490   77.1480  219.3830 C   0  0  0  0  0  0  0  0  0  0  0  0
  142.6620   78.0620  218.1770 C   0  0  0  0  0  0  0  0  0  0  0  0
  141.5610   78.9110  218.6980 N   0  0  0  0  0  0  0  0  0  0  0  0
  141.7910   80.2910  218.6730 C   0  0  0  0  0  0  0  0  0  0  0  0
  142.9260   80.6580  218.1900 O   0  0  0  0  0  0  0  0  0  0  0  0
  140.9130   81.3790  219.1240 C   0  0  2  0  0  0  0  0  0  0  0  0
  140.3670   82.2230  218.1260 N   0  0  0  0  0  0  0  0  0  0  0  0
  141.4500   82.0760  220.3530 C   0  0  0  0  0  0  0  0  0  0  0  0
  141.3910   81.1810  221.5830 C   0  0  0  0  0  0  0  0  0  0  0  0
  142.5550   80.5240  221.9640 C   0  0  0  0  0  0  0  0  0  0  0  0
  142.0970   79.5280  223.4030 S   0  0  0  0  0  0  0  0  0  0  0  0
  140.3890   80.0770  223.3700 C   0  0  0  0  0  0  0  0  0  0  0  0
  139.3640   79.7290  224.2190 C   0  0  0  0  0  0  0  0  0  0  0  0
  138.0980   80.2680  224.0410 C   0  0  0  0  0  0  0  0  0  0  0  0
  137.9730   81.1480  222.9780 C   0  0  0  0  0  0  0  0  0  0  0  0
  139.0020   81.4850  222.1410 C   0  0  0  0  0  0  0  0  0  0  0  0
  140.2950   80.9350  222.3200 C   0  0  0  0  0  0  0  0  0  0  0  0
  140.4130   78.2130  219.1640 C   0  0  0  0  0  0  0  0  0  0  0  0
  140.5230   76.7510  219.3460 C   0  0  0  0  0  0  0  0  0  0  0  0
  139.1235   76.9616  223.4188 H   0  0  0  0  0  0  0  0  0  0  0  0
  139.2276   77.8562  221.8645 H   0  0  0  0  0  0  0  0  0  0  0  0
  138.8895   76.0920  221.8645 H   0  0  0  0  0  0  0  0  0  0  0  0
  141.4339   77.4213  221.7576 H   0  0  0  0  0  0  0  0  0  0  0  0
  141.3542   76.5644  223.3110 H   0  0  0  0  0  0  0  0  0  0  0  0
  144.5480   75.6968  220.3948 H   0  0  0  0  0  0  0  0  0  0  0  0
  146.3889   73.9663  220.3899 H   0  0  0  0  0  0  0  0  0  0  0  0
  145.8134   71.5741  220.4853 H   0  0  0  0  0  0  0  0  0  0  0  0
  143.4505   70.8013  220.5901 H   0  0  0  0  0  0  0  0  0  0  0  0
  141.6326   72.5085  220.5983 H   0  0  0  0  0  0  0  0  0  0  0  0
  141.9621   75.5278  218.4693 H   0  0  0  0  0  0  0  0  0  0  0  0
  142.9318   77.7299  220.3163 H   0  0  0  0  0  0  0  0  0  0  0  0
  143.9424   76.6817  219.3080 H   0  0  0  0  0  0  0  0  0  0  0  0
  143.5429   78.6654  217.9126 H   0  0  0  0  0  0  0  0  0  0  0  0
  142.4086   77.5183  217.2550 H   0  0  0  0  0  0  0  0  0  0  0  0
  139.9941   80.8668  219.4453 H   0  0  0  0  0  0  0  0  0  0  0  0
  139.3630   82.2950  218.0270 H   0  0  0  0  0  0  0  0  0  0  0  0
  140.9430   82.2200  217.2740 H   0  0  0  0  0  0  0  0  0  0  0  0
  142.4964   82.3623  220.1711 H   0  0  0  0  0  0  0  0  0  0  0  0
  140.8250   82.9607  220.5442 H   0  0  0  0  0  0  0  0  0  0  0  0
  143.5454   80.5947  221.4906 H   0  0  0  0  0  0  0  0  0  0  0  0
  139.5486   79.0217  225.0410 H   0  0  0  0  0  0  0  0  0  0  0  0
  137.2528   80.0145  224.6977 H   0  0  0  0  0  0  0  0  0  0  0  0
  136.9881   81.6028  222.7960 H   0  0  0  0  0  0  0  0  0  0  0  0
  138.8225   82.1926  221.3181 H   0  0  0  0  0  0  0  0  0  0  0  0
  140.1389   78.6452  220.1377 H   0  0  0  0  0  0  0  0  0  0  0  0
  139.6690   78.3375  218.3634 H   0  0  0  0  0  0  0  0  0  0  0  0
  140.0237   76.5084  220.2956 H   0  0  0  0  0  0  0  0  0  0  0  0
  140.0750   76.3422  218.4283 H   0  0  0  0  0  0  0  0  0  0  0  0
  1  2  1  0
  2  3  1  0
  3  4  2  0
  3  5  1  0
  5  6  1  0
  6  7  2  0
  7  8  1  0
  8  9  2  0
  9 10  1  0
 10 11  2  0
  5 12  1  0
 12 13  1  0
 13 14  1  0
 14 15  1  0
 15 16  1  0
 16 17  2  0
 16 18  1  0
 18 19  1  0
 18 20  1  0
 20 21  1  0
 21 22  2  0
 22 23  1  0
 23 24  1  0
 24 25  2  0
 25 26  1  0
 26 27  2  0
 27 28  1  0
 28 29  2  0
 15 30  1  0
 30 31  1  0
 11  6  1  0
 31 12  1  0
 29 21  1  0
 29 24  1  0
  1 32  1  0
  1 33  1  0
  1 34  1  0
  2 35  1  0
  2 36  1  0
  7 37  1  0
  8 38  1  0
  9 39  1  0
 10 40  1  0
 11 41  1  0
 12 42  1  0
 13 43  1  0
 13 44  1  0
 14 45  1  0
 14 46  1  0
 18 47  1  1
 19 48  1  0
 19 49  1  0
 20 50  1  0
 20 51  1  0
 22 52  1  0
 25 53  1  0
 26 54  1  0
 27 55  1  0
 28 56  1  0
 30 57  1  0
 30 58  1  0
 31 59  1  0
 31 60  1  0
M  END
>  <smiles>  (22) 
CCC(=O)N(c1ccccc1)C1CCN(C(=O)[C@H](N)Cc2csc3ccccc23)CC1

>  <score_type>  (22) 
oracle

>  <origin>  (22) 
autodockgpu

>  <m_score__min__energy>  (22) 
-9.4100000000000001

>  <m_primary>  (22) 
energy

>  <rmsd>  (22) 
5.741513865618313

>  <m_score__min__rmsd>  (22) 
5.741513865618313

>  <meeko>  (22) 
{"free_energy": -7.02, "intermolecular_energy": -9.41, "internal_energy": -2.57, "cluster_size": 4, "cluster_id": 8, "rank_in_cluster": 1}

>  <energy>  (22) 
-7.87

>  <cluster_rmsd>  (22) 
1.86

>  <cluster>  (22) 
3

$$$$

     RDKit          3D

 60 63  0  0  0  0  0  0  0  0999 V2000
  144.2870   74.5080  217.1970 C   0  0  0  0  0  0  0  0  0  0  0  0
  145.2940   73.3900  217.1450 C   0  0  0  0  0  0  0  0  0  0  0  0
  145.2740   72.7300  218.4920 C   0  0  0  0  0  0  0  0  0  0  0  0
  146.2050   73.0560  219.2740 O   0  0  0  0  0  0  0  0  0  0  0  0
  144.2530   71.7890  218.8420 N   0  0  0  0  0  0  0  0  0  0  0  0
  144.5340   70.3950  218.9570 C   0  0  0  0  0  0  0  0  0  0  0  0
  145.2660   69.8450  217.9060 C   0  0  0  0  0  0  0  0  0  0  0  0
  145.5590   68.4770  217.9760 C   0  0  0  0  0  0  0  0  0  0  0  0
  145.1230   67.7410  219.0580 C   0  0  0  0  0  0  0  0  0  0  0  0
  144.3930   68.3040  220.1010 C   0  0  0  0  0  0  0  0  0  0  0  0
  144.1040   69.6500  220.0340 C   0  0  0  0  0  0  0  0  0  0  0  0
  142.9200   72.3320  219.0800 C   0  0  0  0  0  0  0  0  0  0  0  0
  142.8180   73.0170  220.4070 C   0  0  0  0  0  0  0  0  0  0  0  0
  141.3690   73.5280  220.5100 C   0  0  0  0  0  0  0  0  0  0  0  0
  140.6330   72.2830  220.8450 N   0  0  0  0  0  0  0  0  0  0  0  0
  139.8840   72.3180  222.0260 C   0  0  0  0  0  0  0  0  0  0  0  0
  139.9140   73.4300  222.6740 O   0  0  0  0  0  0  0  0  0  0  0  0
  139.0670   71.2560  222.6300 C   0  0  2  0  0  0  0  0  0  0  0  0
  137.9100   71.6580  223.3410 N   0  0  0  0  0  0  0  0  0  0  0  0
  139.9110   70.1930  223.2940 C   0  0  0  0  0  0  0  0  0  0  0  0
  140.2590   70.5610  224.7290 C   0  0  0  0  0  0  0  0  0  0  0  0
  140.7330   71.8450  224.9730 C   0  0  0  0  0  0  0  0  0  0  0  0
  141.0880   71.8980  226.7470 S   0  0  0  0  0  0  0  0  0  0  0  0
  140.5710   70.2000  227.0070 C   0  0  0  0  0  0  0  0  0  0  0  0
  140.5490   69.4850  228.1820 C   0  0  0  0  0  0  0  0  0  0  0  0
  140.1040   68.1710  228.1910 C   0  0  0  0  0  0  0  0  0  0  0  0
  139.7020   67.6730  226.9620 C   0  0  0  0  0  0  0  0  0  0  0  0
  139.7290   68.3970  225.7990 C   0  0  0  0  0  0  0  0  0  0  0  0
  140.1850   69.7380  225.7890 C   0  0  0  0  0  0  0  0  0  0  0  0
  140.7900   71.2090  219.9270 C   0  0  0  0  0  0  0  0  0  0  0  0
  141.8540   71.3240  218.9090 C   0  0  0  0  0  0  0  0  0  0  0  0
  144.0657   74.7537  218.2461 H   0  0  0  0  0  0  0  0  0  0  0  0
  144.6971   75.3947  216.6914 H   0  0  0  0  0  0  0  0  0  0  0  0
  143.3624   74.1925  216.6914 H   0  0  0  0  0  0  0  0  0  0  0  0
  145.0174   72.6665  216.3640 H   0  0  0  0  0  0  0  0  0  0  0  0
  146.2976   73.7717  216.9059 H   0  0  0  0  0  0  0  0  0  0  0  0
  145.5997   70.4596  217.0570 H   0  0  0  0  0  0  0  0  0  0  0  0
  146.1335   67.9925  217.1727 H   0  0  0  0  0  0  0  0  0  0  0  0
  145.3613   66.6679  219.0982 H   0  0  0  0  0  0  0  0  0  0  0  0
  144.0572   67.6936  220.9523 H   0  0  0  0  0  0  0  0  0  0  0  0
  143.5300   70.1299  220.8404 H   0  0  0  0  0  0  0  0  0  0  0  0
  142.7617   73.0949  218.3035 H   0  0  0  0  0  0  0  0  0  0  0  0
  143.0322   72.3083  221.2205 H   0  0  0  0  0  0  0  0  0  0  0  0
  143.5427   73.8400  220.4926 H   0  0  0  0  0  0  0  0  0  0  0  0
  141.2652   74.2812  221.3049 H   0  0  0  0  0  0  0  0  0  0  0  0
  141.0069   74.0293  219.6003 H   0  0  0  0  0  0  0  0  0  0  0  0
  138.5854   70.7656  221.7712 H   0  0  0  0  0  0  0  0  0  0  0  0
  137.0330   71.1840  223.1760 H   0  0  0  0  0  0  0  0  0  0  0  0
  137.8940   72.6760  223.4900 H   0  0  0  0  0  0  0  0  0  0  0  0
  139.3532   69.2449  223.2950 H   0  0  0  0  0  0  0  0  0  0  0  0
  140.8497   70.0994  222.7282 H   0  0  0  0  0  0  0  0  0  0  0  0
  140.8645   72.6569  224.2425 H   0  0  0  0  0  0  0  0  0  0  0  0
  140.8852   69.9565  229.1172 H   0  0  0  0  0  0  0  0  0  0  0  0
  140.0725   67.5667  229.1096 H   0  0  0  0  0  0  0  0  0  0  0  0
  139.3398   66.6353  226.9174 H   0  0  0  0  0  0  0  0  0  0  0  0
  139.3923   67.9309  224.8612 H   0  0  0  0  0  0  0  0  0  0  0  0
  140.9948   70.3021  220.5148 H   0  0  0  0  0  0  0  0  0  0  0  0
  139.8538   71.1986  219.3496 H   0  0  0  0  0  0  0  0  0  0  0  0
  142.3481   70.3429  218.8507 H   0  0  0  0  0  0  0  0  0  0  0  0
  141.3168   71.6666  218.0123 H   0  0  0  0  0  0  0  0  0  0  0  0
  1  2  1  0
  2  3  1  0
  3  4  2  0
  3  5  1  0
  5  6  1  0
  6  7  2  0
  7  8  1  0
  8  9  2  0
  9 10  1  0
 10 11  2  0
  5 12  1  0
 12 13  1  0
 13 14  1  0
 14 15  1  0
 15 16  1  0
 16 17  2  0
 16 18  1  0
 18 19  1  0
 18 20  1  0
 20 21  1  0
 21 22  2  0
 22 23  1  0
 23 24  1  0
 24 25  2  0
 25 26  1  0
 26 27  2  0
 27 28  1  0
 28 29  2  0
 15 30  1  0
 30 31  1  0
 11  6  1  0
 31 12  1  0
 29 21  1  0
 29 24  1  0
  1 32  1  0
  1 33  1  0
  1 34  1  0
  2 35  1  0
  2 36  1  0
  7 37  1  0
  8 38  1  0
  9 39  1  0
 10 40  1  0
 11 41  1  0
 12 42  1  0
 13 43  1  0
 13 44  1  0
 14 45  1  0
 14 46  1  0
 18 47  1  6
 19 48  1  0
 19 49  1  0
 20 50  1  0
 20 51  1  0
 22 52  1  0
 25 53  1  0
 26 54  1  0
 27 55  1  0
 28 56  1  0
 30 57  1  0
 30 58  1  0
 31 59  1  0
 31 60  1  0
M  END
>  <smiles>  (23) 
CCC(=O)N(c1ccccc1)C1CCN(C(=O)[C@H](N)Cc2csc3ccccc23)CC1

>  <score_type>  (23) 
oracle

>  <origin>  (23) 
autodockgpu

>  <m_score__min__energy>  (23) 
-9.4100000000000001

>  <m_primary>  (23) 
energy

>  <rmsd>  (23) 
8.255806568545564

>  <m_score__min__rmsd>  (23) 
8.255806568545564

>  <meeko>  (23) 
{"free_energy": -8.16, "intermolecular_energy": -10.55, "internal_energy": -2.08, "cluster_size": 11, "cluster_id": 1, "rank_in_cluster": 6}

>  <energy>  (23) 
-7.82

>  <cluster_rmsd>  (23) 
1.88

>  <cluster>  (23) 
3

$$$$

     RDKit          3D

 60 63  0  0  0  0  0  0  0  0999 V2000
  145.9840   73.4250  220.8350 C   0  0  0  0  0  0  0  0  0  0  0  0
  144.8920   72.4060  220.6430 C   0  0  0  0  0  0  0  0  0  0  0  0
  145.1090   71.7920  219.2920 C   0  0  0  0  0  0  0  0  0  0  0  0
  145.9380   72.3810  218.5500 O   0  0  0  0  0  0  0  0  0  0  0  0
  144.4050   70.6110  218.8910 N   0  0  0  0  0  0  0  0  0  0  0  0
  145.0900   69.3850  218.6430 C   0  0  0  0  0  0  0  0  0  0  0  0
  145.1510   68.5060  219.7230 C   0  0  0  0  0  0  0  0  0  0  0  0
  145.8210   67.2920  219.5250 C   0  0  0  0  0  0  0  0  0  0  0  0
  146.3840   67.0180  218.2960 C   0  0  0  0  0  0  0  0  0  0  0  0
  146.3160   67.9050  217.2260 C   0  0  0  0  0  0  0  0  0  0  0  0
  145.6570   69.1000  217.4200 C   0  0  0  0  0  0  0  0  0  0  0  0
  142.9570   70.7300  218.7570 C   0  0  0  0  0  0  0  0  0  0  0  0
  142.5020   72.1550  218.8040 C   0  0  0  0  0  0  0  0  0  0  0  0
  140.9690   72.1150  218.6560 C   0  0  0  0  0  0  0  0  0  0  0  0
  140.5440   71.7020  220.0170 N   0  0  0  0  0  0  0  0  0  0  0  0
  139.6590   72.5680  220.6680 C   0  0  0  0  0  0  0  0  0  0  0  0
  139.3100   73.6130  220.0030 O   0  0  0  0  0  0  0  0  0  0  0  0
  139.0740   72.4460  222.0100 C   0  0  2  0  0  0  0  0  0  0  0  0
  138.0270   73.3420  222.3400 N   0  0  0  0  0  0  0  0  0  0  0  0
  140.1240   72.2420  223.0770 C   0  0  0  0  0  0  0  0  0  0  0  0
  139.7960   71.0590  223.9760 C   0  0  0  0  0  0  0  0  0  0  0  0
  139.0810   70.0020  223.4240 C   0  0  0  0  0  0  0  0  0  0  0  0
  138.8320   68.8290  224.7790 S   0  0  0  0  0  0  0  0  0  0  0  0
  139.7060   69.8530  225.9650 C   0  0  0  0  0  0  0  0  0  0  0  0
  139.9490   69.6010  227.2950 C   0  0  0  0  0  0  0  0  0  0  0  0
  140.6570   70.5160  228.0600 C   0  0  0  0  0  0  0  0  0  0  0  0
  141.0770   71.6510  227.3870 C   0  0  0  0  0  0  0  0  0  0  0  0
  140.8290   71.8890  226.0620 C   0  0  0  0  0  0  0  0  0  0  0  0
  140.1040   70.9580  225.2800 C   0  0  0  0  0  0  0  0  0  0  0  0
  141.0990   70.4810  220.4900 C   0  0  0  0  0  0  0  0  0  0  0  0
  142.2240   69.8960  219.7320 C   0  0  0  0  0  0  0  0  0  0  0  0
  146.1532   73.5829  221.9104 H   0  0  0  0  0  0  0  0  0  0  0  0
  146.9110   73.0616  220.3674 H   0  0  0  0  0  0  0  0  0  0  0  0
  145.6855   74.3749  220.3674 H   0  0  0  0  0  0  0  0  0  0  0  0
  144.9520   71.6341  221.4244 H   0  0  0  0  0  0  0  0  0  0  0  0
  143.8984   72.8730  220.7107 H   0  0  0  0  0  0  0  0  0  0  0  0
  144.6919   68.7554  220.6910 H   0  0  0  0  0  0  0  0  0  0  0  0
  145.8977   66.5619  220.3442 H   0  0  0  0  0  0  0  0  0  0  0  0
  146.9074   66.0606  218.1562 H   0  0  0  0  0  0  0  0  0  0  0  0
  146.7736   67.6603  216.2561 H   0  0  0  0  0  0  0  0  0  0  0  0
  145.5837   69.8268  216.5976 H   0  0  0  0  0  0  0  0  0  0  0  0
  142.7117   70.3395  217.7583 H   0  0  0  0  0  0  0  0  0  0  0  0
  142.7817   72.6143  219.7636 H   0  0  0  0  0  0  0  0  0  0  0  0
  142.9687   72.7540  218.0081 H   0  0  0  0  0  0  0  0  0  0  0  0
  140.5659   73.1042  218.3933 H   0  0  0  0  0  0  0  0  0  0  0  0
  140.6156   71.4470  217.8567 H   0  0  0  0  0  0  0  0  0  0  0  0
  138.5012   71.5078  221.9686 H   0  0  0  0  0  0  0  0  0  0  0  0
  137.3900   73.1110  223.0900 H   0  0  0  0  0  0  0  0  0  0  0  0
  137.6480   73.8030  221.5020 H   0  0  0  0  0  0  0  0  0  0  0  0
  141.0943   72.0615  222.5913 H   0  0  0  0  0  0  0  0  0  0  0  0
  140.1559   73.1468  223.7018 H   0  0  0  0  0  0  0  0  0  0  0  0
  138.7390   69.9003  222.3835 H   0  0  0  0  0  0  0  0  0  0  0  0
  139.5809   68.6712  227.7533 H   0  0  0  0  0  0  0  0  0  0  0  0
  140.8700   70.3516  229.1266 H   0  0  0  0  0  0  0  0  0  0  0  0
  141.6438   72.4065  227.9508 H   0  0  0  0  0  0  0  0  0  0  0  0
  141.1980   72.8160  225.5988 H   0  0  0  0  0  0  0  0  0  0  0  0
  141.4518   70.6571  221.5169 H   0  0  0  0  0  0  0  0  0  0  0  0
  140.2849   69.7485  220.3866 H   0  0  0  0  0  0  0  0  0  0  0  0
  142.9600   69.5463  220.4709 H   0  0  0  0  0  0  0  0  0  0  0  0
  141.7428   69.1300  219.1061 H   0  0  0  0  0  0  0  0  0  0  0  0
  1  2  1  0
  2  3  1  0
  3  4  2  0
  3  5  1  0
  5  6  1  0
  6  7  2  0
  7  8  1  0
  8  9  2  0
  9 10  1  0
 10 11  2  0
  5 12  1  0
 12 13  1  0
 13 14  1  0
 14 15  1  0
 15 16  1  0
 16 17  2  0
 16 18  1  0
 18 19  1  0
 18 20  1  0
 20 21  1  0
 21 22  2  0
 22 23  1  0
 23 24  1  0
 24 25  2  0
 25 26  1  0
 26 27  2  0
 27 28  1  0
 28 29  2  0
 15 30  1  0
 30 31  1  0
 11  6  1  0
 31 12  1  0
 29 21  1  0
 29 24  1  0
  1 32  1  0
  1 33  1  0
  1 34  1  0
  2 35  1  0
  2 36  1  0
  7 37  1  0
  8 38  1  0
  9 39  1  0
 10 40  1  0
 11 41  1  0
 12 42  1  0
 13 43  1  0
 13 44  1  0
 14 45  1  0
 14 46  1  0
 18 47  1  6
 19 48  1  0
 19 49  1  0
 20 50  1  0
 20 51  1  0
 22 52  1  0
 25 53  1  0
 26 54  1  0
 27 55  1  0
 28 56  1  0
 30 57  1  0
 30 58  1  0
 31 59  1  0
 31 60  1  0
M  END
>  <smiles>  (24) 
CCC(=O)N(c1ccccc1)C1CCN(C(=O)[C@H](N)Cc2csc3ccccc23)CC1

>  <score_type>  (24) 
oracle

>  <origin>  (24) 
autodockgpu

>  <m_score__min__energy>  (24) 
-9.4100000000000001

>  <m_primary>  (24) 
energy

>  <rmsd>  (24) 
8.175151402652252

>  <m_score__min__rmsd>  (24) 
8.175151402652252

>  <meeko>  (24) 
{"free_energy": -8.02, "intermolecular_energy": -10.41, "internal_energy": -2.17, "cluster_size": 11, "cluster_id": 1, "rank_in_cluster": 7}

>  <energy>  (24) 
-7.6

>  <cluster_rmsd>  (24) 
1.41

>  <cluster>  (24) 
3

$$$$

     RDKit          3D

 60 63  0  0  0  0  0  0  0  0999 V2000
  140.0960   82.7510  220.6710 C   0  0  0  0  0  0  0  0  0  0  0  0
  141.0610   82.7760  219.5160 C   0  0  0  0  0  0  0  0  0  0  0  0
  141.6790   81.4110  219.4420 C   0  0  0  0  0  0  0  0  0  0  0  0
  141.9090   80.8550  220.5480 O   0  0  0  0  0  0  0  0  0  0  0  0
  141.9820   80.8000  218.1830 N   0  0  0  0  0  0  0  0  0  0  0  0
  142.6570   81.5180  217.1520 C   0  0  0  0  0  0  0  0  0  0  0  0
  142.2160   81.2570  215.8560 C   0  0  0  0  0  0  0  0  0  0  0  0
  142.8560   81.9380  214.8120 C   0  0  0  0  0  0  0  0  0  0  0  0
  143.8770   82.8210  215.0990 C   0  0  0  0  0  0  0  0  0  0  0  0
  144.3070   83.0710  216.3990 C   0  0  0  0  0  0  0  0  0  0  0  0
  143.6780   82.4030  217.4260 C   0  0  0  0  0  0  0  0  0  0  0  0
  141.5700   79.4100  218.0170 C   0  0  0  0  0  0  0  0  0  0  0  0
  140.1630   79.1810  218.4730 C   0  0  0  0  0  0  0  0  0  0  0  0
  139.8810   77.6850  218.2400 C   0  0  0  0  0  0  0  0  0  0  0  0
  140.5890   77.0630  219.3870 N   0  0  0  0  0  0  0  0  0  0  0  0
  139.8050   76.2610  220.2240 C   0  0  0  0  0  0  0  0  0  0  0  0
  138.5670   76.1510  219.8920 O   0  0  0  0  0  0  0  0  0  0  0  0
  140.2040   75.5290  221.4340 C   0  0  2  0  0  0  0  0  0  0  0  0
  139.2090   74.7460  222.0710 N   0  0  0  0  0  0  0  0  0  0  0  0
  141.0700   76.3630  222.3490 C   0  0  0  0  0  0  0  0  0  0  0  0
  140.4100   77.6900  222.6990 C   0  0  0  0  0  0  0  0  0  0  0  0
  139.0210   77.7460  222.6930 C   0  0  0  0  0  0  0  0  0  0  0  0
  138.6060   79.4610  223.0930 S   0  0  0  0  0  0  0  0  0  0  0  0
  140.3260   79.9530  223.2340 C   0  0  0  0  0  0  0  0  0  0  0  0
  140.8370   81.1930  223.5410 C   0  0  0  0  0  0  0  0  0  0  0  0
  142.2090   81.3840  223.6140 C   0  0  0  0  0  0  0  0  0  0  0  0
  142.9770   80.2590  223.3610 C   0  0  0  0  0  0  0  0  0  0  0  0
  142.4560   79.0300  223.0560 C   0  0  0  0  0  0  0  0  0  0  0  0
  141.0550   78.8350  222.9800 C   0  0  0  0  0  0  0  0  0  0  0  0
  141.9740   77.3670  219.4950 C   0  0  0  0  0  0  0  0  0  0  0  0
  142.5060   78.4590  218.6530 C   0  0  0  0  0  0  0  0  0  0  0  0
  140.6564   82.7655  221.6174 H   0  0  0  0  0  0  0  0  0  0  0  0
  139.4399   83.6324  220.6198 H   0  0  0  0  0  0  0  0  0  0  0  0
  139.4864   81.8368  220.6198 H   0  0  0  0  0  0  0  0  0  0  0  0
  140.5276   83.0020  218.5809 H   0  0  0  0  0  0  0  0  0  0  0  0
  141.8286   83.5510  219.6580 H   0  0  0  0  0  0  0  0  0  0  0  0
  141.3996   80.5461  215.6608 H   0  0  0  0  0  0  0  0  0  0  0  0
  142.5465   81.7698  213.7699 H   0  0  0  0  0  0  0  0  0  0  0  0
  144.3699   83.3475  214.2685 H   0  0  0  0  0  0  0  0  0  0  0  0
  145.1237   83.7800  216.5998 H   0  0  0  0  0  0  0  0  0  0  0  0
  143.9906   82.5758  218.4664 H   0  0  0  0  0  0  0  0  0  0  0  0
  141.6013   79.2110  216.9356 H   0  0  0  0  0  0  0  0  0  0  0  0
  140.0619   79.4276  219.5402 H   0  0  0  0  0  0  0  0  0  0  0  0
  139.4524   79.8159  217.9236 H   0  0  0  0  0  0  0  0  0  0  0  0
  138.8025   77.4708  218.2706 H   0  0  0  0  0  0  0  0  0  0  0  0
  140.2116   77.3160  217.2579 H   0  0  0  0  0  0  0  0  0  0  0  0
  140.8522   74.7232  221.0591 H   0  0  0  0  0  0  0  0  0  0  0  0
  138.2780   74.7090  221.6800 H   0  0  0  0  0  0  0  0  0  0  0  0
  139.3100   74.7700  223.0940 H   0  0  0  0  0  0  0  0  0  0  0  0
  141.2525   75.8006  223.2766 H   0  0  0  0  0  0  0  0  0  0  0  0
  142.0128   76.5781  221.8247 H   0  0  0  0  0  0  0  0  0  0  0  0
  138.3219   76.9218  222.4883 H   0  0  0  0  0  0  0  0  0  0  0  0
  140.1554   82.0356  223.7292 H   0  0  0  0  0  0  0  0  0  0  0  0
  142.6557   82.3597  223.8557 H   0  0  0  0  0  0  0  0  0  0  0  0
  144.0714   80.3592  223.4080 H   0  0  0  0  0  0  0  0  0  0  0  0
  143.1334   78.1840  222.8678 H   0  0  0  0  0  0  0  0  0  0  0  0
  142.1705   77.6352  220.5435 H   0  0  0  0  0  0  0  0  0  0  0  0
  142.4858   76.4629  219.1334 H   0  0  0  0  0  0  0  0  0  0  0  0
  143.1823   79.0513  219.2869 H   0  0  0  0  0  0  0  0  0  0  0  0
  142.9570   77.9310  217.7999 H   0  0  0  0  0  0  0  0  0  0  0  0
  1  2  1  0
  2  3  1  0
  3  4  2  0
  3  5  1  0
  5  6  1  0
  6  7  2  0
  7  8  1  0
  8  9  2  0
  9 10  1  0
 10 11  2  0
  5 12  1  0
 12 13  1  0
 13 14  1  0
 14 15  1  0
 15 16  1  0
 16 17  2  0
 16 18  1  0
 18 19  1  0
 18 20  1  0
 20 21  1  0
 21 22  2  0
 22 23  1  0
 23 24  1  0
 24 25  2  0
 25 26  1  0
 26 27  2  0
 27 28  1  0
 28 29  2  0
 15 30  1  0
 30 31  1  0
 11  6  1  0
 31 12  1  0
 29 21  1  0
 29 24  1  0
  1 32  1  0
  1 33  1  0
  1 34  1  0
  2 35  1  0
  2 36  1  0
  7 37  1  0
  8 38  1  0
  9 39  1  0
 10 40  1  0
 11 41  1  0
 12 42  1  0
 13 43  1  0
 13 44  1  0
 14 45  1  0
 14 46  1  0
 18 47  1  6
 19 48  1  0
 19 49  1  0
 20 50  1  0
 20 51  1  0
 22 52  1  0
 25 53  1  0
 26 54  1  0
 27 55  1  0
 28 56  1  0
 30 57  1  0
 30 58  1  0
 31 59  1  0
 31 60  1  0
M  END
>  <smiles>  (25) 
CCC(=O)N(c1ccccc1)C1CCN(C(=O)[C@H](N)Cc2csc3ccccc23)CC1

>  <score_type>  (25) 
oracle

>  <origin>  (25) 
autodockgpu

>  <m_score__min__energy>  (25) 
-9.4100000000000001

>  <m_primary>  (25) 
energy

>  <rmsd>  (25) 
4.038501222490354

>  <m_score__min__rmsd>  (25) 
4.038501222490354

>  <meeko>  (25) 
{"free_energy": -6.7, "intermolecular_energy": -9.09, "internal_energy": -3.36, "cluster_size": 14, "cluster_id": 9, "rank_in_cluster": 4}

>  <energy>  (25) 
-7.99

>  <cluster_rmsd>  (25) 
0.0

>  <cluster>  (25) 
4

$$$$

     RDKit          3D

 60 63  0  0  0  0  0  0  0  0999 V2000
  140.6950   83.1480  220.8540 C   0  0  0  0  0  0  0  0  0  0  0  0
  140.7650   82.7000  219.4180 C   0  0  0  0  0  0  0  0  0  0  0  0
  141.5380   81.4150  219.4060 C   0  0  0  0  0  0  0  0  0  0  0  0
  141.8240   80.9380  220.5350 O   0  0  0  0  0  0  0  0  0  0  0  0
  141.9160   80.7880  218.1750 N   0  0  0  0  0  0  0  0  0  0  0  0
  142.5900   81.5140  217.1480 C   0  0  0  0  0  0  0  0  0  0  0  0
  142.1820   81.2250  215.8470 C   0  0  0  0  0  0  0  0  0  0  0  0
  142.8230   81.9120  214.8080 C   0  0  0  0  0  0  0  0  0  0  0  0
  143.8120   82.8280  215.1040 C   0  0  0  0  0  0  0  0  0  0  0  0
  144.2090   83.1050  216.4090 C   0  0  0  0  0  0  0  0  0  0  0  0
  143.5800   82.4310  217.4320 C   0  0  0  0  0  0  0  0  0  0  0  0
  141.5820   79.3750  218.0330 C   0  0  0  0  0  0  0  0  0  0  0  0
  140.1600   79.0920  218.4060 C   0  0  0  0  0  0  0  0  0  0  0  0
  139.9650   77.5770  218.2100 C   0  0  0  0  0  0  0  0  0  0  0  0
  140.6250   77.0280  219.4210 N   0  0  0  0  0  0  0  0  0  0  0  0
  139.8270   76.2160  220.2350 C   0  0  0  0  0  0  0  0  0  0  0  0
  138.6200   76.0340  219.8290 O   0  0  0  0  0  0  0  0  0  0  0  0
  140.1800   75.5450  221.4930 C   0  0  2  0  0  0  0  0  0  0  0  0
  139.1460   74.8450  222.1630 N   0  0  0  0  0  0  0  0  0  0  0  0
  141.0700   76.3970  222.3670 C   0  0  0  0  0  0  0  0  0  0  0  0
  140.4130   77.7240  222.7210 C   0  0  0  0  0  0  0  0  0  0  0  0
  139.0250   77.7850  222.7090 C   0  0  0  0  0  0  0  0  0  0  0  0
  138.6130   79.4990  223.1150 S   0  0  0  0  0  0  0  0  0  0  0  0
  140.3340   79.9850  223.2650 C   0  0  0  0  0  0  0  0  0  0  0  0
  140.8470   81.2220  223.5810 C   0  0  0  0  0  0  0  0  0  0  0  0
  142.2200   81.4080  223.6600 C   0  0  0  0  0  0  0  0  0  0  0  0
  142.9860   80.2830  223.4050 C   0  0  0  0  0  0  0  0  0  0  0  0
  142.4610   79.0570  223.0920 C   0  0  0  0  0  0  0  0  0  0  0  0
  141.0610   78.8660  223.0090 C   0  0  0  0  0  0  0  0  0  0  0  0
  141.9840   77.4040  219.6060 C   0  0  0  0  0  0  0  0  0  0  0  0
  142.5180   78.4920  218.7610 C   0  0  0  0  0  0  0  0  0  0  0  0
  140.8306   82.2800  221.5159 H   0  0  0  0  0  0  0  0  0  0  0  0
  141.4890   83.8843  221.0475 H   0  0  0  0  0  0  0  0  0  0  0  0
  139.7143   83.6070  221.0475 H   0  0  0  0  0  0  0  0  0  0  0  0
  139.7519   82.5369  219.0217 H   0  0  0  0  0  0  0  0  0  0  0  0
  141.2508   83.4605  218.7890 H   0  0  0  0  0  0  0  0  0  0  0  0
  141.3903   80.4887  215.6447 H   0  0  0  0  0  0  0  0  0  0  0  0
  142.5397   81.7225  213.7621 H   0  0  0  0  0  0  0  0  0  0  0  0
  144.3054   83.3595  214.2769 H   0  0  0  0  0  0  0  0  0  0  0  0
  145.0008   83.8397  216.6168 H   0  0  0  0  0  0  0  0  0  0  0  0
  143.8674   82.6242  218.4761 H   0  0  0  0  0  0  0  0  0  0  0  0
  141.6939   79.1427  216.9637 H   0  0  0  0  0  0  0  0  0  0  0  0
  139.9774   79.3686  219.4549 H   0  0  0  0  0  0  0  0  0  0  0  0
  139.4579   79.6724  217.7894 H   0  0  0  0  0  0  0  0  0  0  0  0
  138.8981   77.3109  218.1796 H   0  0  0  0  0  0  0  0  0  0  0  0
  140.3766   77.1930  217.2649 H   0  0  0  0  0  0  0  0  0  0  0  0
  140.7972   74.6911  221.1771 H   0  0  0  0  0  0  0  0  0  0  0  0
  139.3810   74.1040  222.8080 H   0  0  0  0  0  0  0  0  0  0  0  0
  138.3220   74.7240  221.5590 H   0  0  0  0  0  0  0  0  0  0  0  0
  141.2873   75.8486  223.2955 H   0  0  0  0  0  0  0  0  0  0  0  0
  141.9932   76.6112  221.8085 H   0  0  0  0  0  0  0  0  0  0  0  0
  138.3242   76.9640  222.4972 H   0  0  0  0  0  0  0  0  0  0  0  0
  140.1672   82.0656  223.7715 H   0  0  0  0  0  0  0  0  0  0  0  0
  142.6685   82.3813  223.9079 H   0  0  0  0  0  0  0  0  0  0  0  0
  144.0805   80.3794  223.4568 H   0  0  0  0  0  0  0  0  0  0  0  0
  143.1365   78.2097  222.9026 H   0  0  0  0  0  0  0  0  0  0  0  0
  142.0983   77.7164  220.6545 H   0  0  0  0  0  0  0  0  0  0  0  0
  142.5605   76.5149  219.3106 H   0  0  0  0  0  0  0  0  0  0  0  0
  143.1233   79.1371  219.4148 H   0  0  0  0  0  0  0  0  0  0  0  0
  143.0476   77.9588  217.9577 H   0  0  0  0  0  0  0  0  0  0  0  0
  1  2  1  0
  2  3  1  0
  3  4  2  0
  3  5  1  0
  5  6  1  0
  6  7  2  0
  7  8  1  0
  8  9  2  0
  9 10  1  0
 10 11  2  0
  5 12  1  0
 12 13  1  0
 13 14  1  0
 14 15  1  0
 15 16  1  0
 16 17  2  0
 16 18  1  0
 18 19  1  0
 18 20  1  0
 20 21  1  0
 21 22  2  0
 22 23  1  0
 23 24  1  0
 24 25  2  0
 25 26  1  0
 26 27  2  0
 27 28  1  0
 28 29  2  0
 15 30  1  0
 30 31  1  0
 11  6  1  0
 31 12  1  0
 29 21  1  0
 29 24  1  0
  1 32  1  0
  1 33  1  0
  1 34  1  0
  2 35  1  0
  2 36  1  0
  7 37  1  0
  8 38  1  0
  9 39  1  0
 10 40  1  0
 11 41  1  0
 12 42  1  0
 13 43  1  0
 13 44  1  0
 14 45  1  0
 14 46  1  0
 18 47  1  6
 19 48  1  0
 19 49  1  0
 20 50  1  0
 20 51  1  0
 22 52  1  0
 25 53  1  0
 26 54  1  0
 27 55  1  0
 28 56  1  0
 30 57  1  0
 30 58  1  0
 31 59  1  0
 31 60  1  0
M  END
>  <smiles>  (26) 
CCC(=O)N(c1ccccc1)C1CCN(C(=O)[C@H](N)Cc2csc3ccccc23)CC1

>  <score_type>  (26) 
oracle

>  <origin>  (26) 
autodockgpu

>  <m_score__min__energy>  (26) 
-9.4100000000000001

>  <m_primary>  (26) 
energy

>  <rmsd>  (26) 
4.058006746813532

>  <m_score__min__rmsd>  (26) 
4.058006746813532

>  <meeko>  (26) 
{"free_energy": -6.65, "intermolecular_energy": -9.04, "internal_energy": -3.45, "cluster_size": 14, "cluster_id": 9, "rank_in_cluster": 7}

>  <energy>  (26) 
-7.86

>  <cluster_rmsd>  (26) 
0.0

>  <cluster>  (26) 
5

$$$$

     RDKit          3D

 60 63  0  0  0  0  0  0  0  0999 V2000
  146.0620   73.4990  220.5400 C   0  0  0  0  0  0  0  0  0  0  0  0
  145.0330   72.4020  220.4760 C   0  0  0  0  0  0  0  0  0  0  0  0
  145.1640   71.7680  219.1230 C   0  0  0  0  0  0  0  0  0  0  0  0
  145.9310   72.3550  218.3160 O   0  0  0  0  0  0  0  0  0  0  0  0
  144.4490   70.5720  218.7910 N   0  0  0  0  0  0  0  0  0  0  0  0
  145.1280   69.3350  218.5800 C   0  0  0  0  0  0  0  0  0  0  0  0
  145.6110   69.1320  217.2890 C   0  0  0  0  0  0  0  0  0  0  0  0
  146.2800   67.9270  217.0370 C   0  0  0  0  0  0  0  0  0  0  0  0
  146.4310   67.0060  218.0530 C   0  0  0  0  0  0  0  0  0  0  0  0
  145.9430   67.2230  219.3380 C   0  0  0  0  0  0  0  0  0  0  0  0
  145.2850   68.4080  219.5880 C   0  0  0  0  0  0  0  0  0  0  0  0
  142.9990   70.6870  218.6880 C   0  0  0  0  0  0  0  0  0  0  0  0
  142.5460   72.1140  218.6810 C   0  0  0  0  0  0  0  0  0  0  0  0
  141.0100   72.0690  218.5720 C   0  0  0  0  0  0  0  0  0  0  0  0
  140.6190   71.7200  219.9610 N   0  0  0  0  0  0  0  0  0  0  0  0
  139.7500   72.6160  220.5930 C   0  0  0  0  0  0  0  0  0  0  0  0
  139.3860   73.6300  219.8900 O   0  0  0  0  0  0  0  0  0  0  0  0
  139.1980   72.5570  221.9540 C   0  0  2  0  0  0  0  0  0  0  0  0
  138.2620   73.5580  222.3130 N   0  0  0  0  0  0  0  0  0  0  0  0
  140.2550   72.2450  222.9870 C   0  0  0  0  0  0  0  0  0  0  0  0
  139.8500   71.0770  223.8760 C   0  0  0  0  0  0  0  0  0  0  0  0
  139.0990   70.0570  223.3050 C   0  0  0  0  0  0  0  0  0  0  0  0
  138.7640   68.8950  224.6510 S   0  0  0  0  0  0  0  0  0  0  0  0
  139.6580   69.8750  225.8590 C   0  0  0  0  0  0  0  0  0  0  0  0
  139.8570   69.6100  227.1940 C   0  0  0  0  0  0  0  0  0  0  0  0
  140.5910   70.4890  227.9780 C   0  0  0  0  0  0  0  0  0  0  0  0
  141.0790   71.6040  227.3180 C   0  0  0  0  0  0  0  0  0  0  0  0
  140.8730   71.8550  225.9870 C   0  0  0  0  0  0  0  0  0  0  0  0
  140.1230   70.9600  225.1870 C   0  0  0  0  0  0  0  0  0  0  0  0
  141.1840   70.5210  220.4760 C   0  0  0  0  0  0  0  0  0  0  0  0
  142.2890   69.9000  219.7180 C   0  0  0  0  0  0  0  0  0  0  0  0
  146.2825   73.7340  221.5917 H   0  0  0  0  0  0  0  0  0  0  0  0
  146.9828   73.1678  220.0375 H   0  0  0  0  0  0  0  0  0  0  0  0
  145.6726   74.3967  220.0375 H   0  0  0  0  0  0  0  0  0  0  0  0
  145.2225   71.6578  221.2635 H   0  0  0  0  0  0  0  0  0  0  0  0
  144.0193   72.8003  220.6303 H   0  0  0  0  0  0  0  0  0  0  0  0
  145.4728   69.8864  216.5004 H   0  0  0  0  0  0  0  0  0  0  0  0
  146.6824   67.7166  216.0351 H   0  0  0  0  0  0  0  0  0  0  0  0
  146.9573   66.0640  217.8391 H   0  0  0  0  0  0  0  0  0  0  0  0
  146.0782   66.4717  220.1300 H   0  0  0  0  0  0  0  0  0  0  0  0
  144.8852   68.6140  220.5919 H   0  0  0  0  0  0  0  0  0  0  0  0
  142.7293   70.2510  217.7148 H   0  0  0  0  0  0  0  0  0  0  0  0
  142.8490   72.6162  219.6116 H   0  0  0  0  0  0  0  0  0  0  0  0
  142.9937   72.6757  217.8479 H   0  0  0  0  0  0  0  0  0  0  0  0
  140.6005   73.0454  218.2736 H   0  0  0  0  0  0  0  0  0  0  0  0
  140.6369   71.3654  217.8133 H   0  0  0  0  0  0  0  0  0  0  0  0
  138.5283   71.6845  221.9357 H   0  0  0  0  0  0  0  0  0  0  0  0
  137.5980   73.3770  223.0530 H   0  0  0  0  0  0  0  0  0  0  0  0
  137.9450   74.0890  221.4910 H   0  0  0  0  0  0  0  0  0  0  0  0
  141.1929   71.9913  222.4713 H   0  0  0  0  0  0  0  0  0  0  0  0
  140.3818   73.1321  223.6249 H   0  0  0  0  0  0  0  0  0  0  0  0
  138.7764   69.9735  222.2567 H   0  0  0  0  0  0  0  0  0  0  0  0
  139.4332   68.6989  227.6414 H   0  0  0  0  0  0  0  0  0  0  0  0
  140.7723   70.3123  229.0485 H   0  0  0  0  0  0  0  0  0  0  0  0
  141.6670   72.3315  227.8967 H   0  0  0  0  0  0  0  0  0  0  0  0
  141.2960   72.7639  225.5342 H   0  0  0  0  0  0  0  0  0  0  0  0
  141.5623   70.7433  221.4847 H   0  0  0  0  0  0  0  0  0  0  0  0
  140.3669   69.7862  220.4271 H   0  0  0  0  0  0  0  0  0  0  0  0
  143.0426   69.5826  220.4537 H   0  0  0  0  0  0  0  0  0  0  0  0
  141.7914   69.1077  219.1395 H   0  0  0  0  0  0  0  0  0  0  0  0
  1  2  1  0
  2  3  1  0
  3  4  2  0
  3  5  1  0
  5  6  1  0
  6  7  2  0
  7  8  1  0
  8  9  2  0
  9 10  1  0
 10 11  2  0
  5 12  1  0
 12 13  1  0
 13 14  1  0
 14 15  1  0
 15 16  1  0
 16 17  2  0
 16 18  1  0
 18 19  1  0
 18 20  1  0
 20 21  1  0
 21 22  2  0
 22 23  1  0
 23 24  1  0
 24 25  2  0
 25 26  1  0
 26 27  2  0
 27 28  1  0
 28 29  2  0
 15 30  1  0
 30 31  1  0
 11  6  1  0
 31 12  1  0
 29 21  1  0
 29 24  1  0
  1 32  1  0
  1 33  1  0
  1 34  1  0
  2 35  1  0
  2 36  1  0
  7 37  1  0
  8 38  1  0
  9 39  1  0
 10 40  1  0
 11 41  1  0
 12 42  1  0
 13 43  1  0
 13 44  1  0
 14 45  1  0
 14 46  1  0
 18 47  1  6
 19 48  1  0
 19 49  1  0
 20 50  1  0
 20 51  1  0
 22 52  1  0
 25 53  1  0
 26 54  1  0
 27 55  1  0
 28 56  1  0
 30 57  1  0
 30 58  1  0
 31 59  1  0
 31 60  1  0
M  END
>  <smiles>  (27) 
CCC(=O)N(c1ccccc1)C1CCN(C(=O)[C@H](N)Cc2csc3ccccc23)CC1

>  <score_type>  (27) 
oracle

>  <origin>  (27) 
autodockgpu

>  <m_score__min__energy>  (27) 
-9.4100000000000001

>  <m_primary>  (27) 
energy

>  <rmsd>  (27) 
8.146170857277163

>  <m_score__min__rmsd>  (27) 
8.146170857277163

>  <meeko>  (27) 
{"free_energy": -7.9, "intermolecular_energy": -10.28, "internal_energy": -2.24, "cluster_size": 11, "cluster_id": 1, "rank_in_cluster": 9}

>  <energy>  (27) 
-7.65

>  <cluster_rmsd>  (27) 
1.15

>  <cluster>  (27) 
5

$$$$

     RDKit          3D

 60 63  0  0  0  0  0  0  0  0999 V2000
  142.9910   76.8480  217.4750 C   0  0  0  0  0  0  0  0  0  0  0  0
  144.0760   76.0350  216.8180 C   0  0  0  0  0  0  0  0  0  0  0  0
  143.6930   74.5940  216.9830 C   0  0  0  0  0  0  0  0  0  0  0  0
  143.7000   73.9030  215.9320 O   0  0  0  0  0  0  0  0  0  0  0  0
  143.3420   74.0610  218.2660 N   0  0  0  0  0  0  0  0  0  0  0  0
  144.3390   73.6100  219.1800 C   0  0  0  0  0  0  0  0  0  0  0  0
  144.6670   74.5070  220.1950 C   0  0  0  0  0  0  0  0  0  0  0  0
  145.6470   74.1050  221.1130 C   0  0  0  0  0  0  0  0  0  0  0  0
  146.2370   72.8640  220.9810 C   0  0  0  0  0  0  0  0  0  0  0  0
  145.8980   71.9800  219.9610 C   0  0  0  0  0  0  0  0  0  0  0  0
  144.9350   72.3730  219.0580 C   0  0  0  0  0  0  0  0  0  0  0  0
  141.9190   74.0130  218.5830 C   0  0  0  0  0  0  0  0  0  0  0  0
  141.5980   74.7470  219.8480 C   0  0  0  0  0  0  0  0  0  0  0  0
  140.0780   74.6030  220.0470 C   0  0  0  0  0  0  0  0  0  0  0  0
  139.9710   73.2150  220.5630 N   0  0  0  0  0  0  0  0  0  0  0  0
  139.3400   73.0740  221.8040 C   0  0  0  0  0  0  0  0  0  0  0  0
  138.9190   74.1640  222.3430 O   0  0  0  0  0  0  0  0  0  0  0  0
  139.0960   71.8490  222.5780 C   0  0  2  0  0  0  0  0  0  0  0  0
  138.0050   71.8650  223.4820 N   0  0  0  0  0  0  0  0  0  0  0  0
  140.3740   71.2370  223.1000 C   0  0  0  0  0  0  0  0  0  0  0  0
  140.1290   70.3810  224.3350 C   0  0  0  0  0  0  0  0  0  0  0  0
  139.4750   69.1670  224.1640 C   0  0  0  0  0  0  0  0  0  0  0  0
  139.3140   68.4680  225.8250 S   0  0  0  0  0  0  0  0  0  0  0  0
  140.1370   69.8600  226.6030 C   0  0  0  0  0  0  0  0  0  0  0  0
  140.4100   70.0540  227.9380 C   0  0  0  0  0  0  0  0  0  0  0  0
  141.0700   71.2010  228.3550 C   0  0  0  0  0  0  0  0  0  0  0  0
  141.4110   72.0880  227.3480 C   0  0  0  0  0  0  0  0  0  0  0  0
  141.1340   71.8820  226.0230 C   0  0  0  0  0  0  0  0  0  0  0  0
  140.4590   70.7130  225.5950 C   0  0  0  0  0  0  0  0  0  0  0  0
  140.5300   72.2050  219.7340 C   0  0  0  0  0  0  0  0  0  0  0  0
  141.3870   72.6340  218.6090 C   0  0  0  0  0  0  0  0  0  0  0  0
  143.0889   76.7747  218.5682 H   0  0  0  0  0  0  0  0  0  0  0  0
  143.0845   77.9002  217.1683 H   0  0  0  0  0  0  0  0  0  0  0  0
  142.0074   76.4627  217.1683 H   0  0  0  0  0  0  0  0  0  0  0  0
  144.1463   76.2889  215.7500 H   0  0  0  0  0  0  0  0  0  0  0  0
  145.0557   76.2393  217.2745 H   0  0  0  0  0  0  0  0  0  0  0  0
  144.1775   75.4890  220.2724 H   0  0  0  0  0  0  0  0  0  0  0  0
  145.9442   74.7744  221.9337 H   0  0  0  0  0  0  0  0  0  0  0  0
  147.0040   72.5624  221.7095 H   0  0  0  0  0  0  0  0  0  0  0  0
  146.3845   70.9969  219.8784 H   0  0  0  0  0  0  0  0  0  0  0  0
  144.6414   71.6996  218.2393 H   0  0  0  0  0  0  0  0  0  0  0  0
  141.4076   74.5351  217.7609 H   0  0  0  0  0  0  0  0  0  0  0  0
  142.1386   74.3016  220.6962 H   0  0  0  0  0  0  0  0  0  0  0  0
  141.8987   75.8034  219.7887 H   0  0  0  0  0  0  0  0  0  0  0  0
  139.6985   75.3326  220.7776 H   0  0  0  0  0  0  0  0  0  0  0  0
  139.4895   74.7869  219.1361 H   0  0  0  0  0  0  0  0  0  0  0  0
  138.7032   71.1366  221.8376 H   0  0  0  0  0  0  0  0  0  0  0  0
  137.4720   72.7150  223.6060 H   0  0  0  0  0  0  0  0  0  0  0  0
  138.1930   71.2810  224.3080 H   0  0  0  0  0  0  0  0  0  0  0  0
  140.8148   70.6078  222.3127 H   0  0  0  0  0  0  0  0  0  0  0  0
  141.0543   72.0546  223.3807 H   0  0  0  0  0  0  0  0  0  0  0  0
  139.1284   68.7244  223.2185 H   0  0  0  0  0  0  0  0  0  0  0  0
  140.1042   69.2979  228.6761 H   0  0  0  0  0  0  0  0  0  0  0  0
  141.3060   71.3924  229.4122 H   0  0  0  0  0  0  0  0  0  0  0  0
  141.9356   73.0131  227.6291 H   0  0  0  0  0  0  0  0  0  0  0  0
  141.4398   72.6345  225.2812 H   0  0  0  0  0  0  0  0  0  0  0  0
  141.1363   71.5506  220.3775 H   0  0  0  0  0  0  0  0  0  0  0  0
  139.6623   71.7275  219.2553 H   0  0  0  0  0  0  0  0  0  0  0  0
  142.2534   71.9566  218.5906 H   0  0  0  0  0  0  0  0  0  0  0  0
  140.7102   72.6022  217.7424 H   0  0  0  0  0  0  0  0  0  0  0  0
  1  2  1  0
  2  3  1  0
  3  4  2  0
  3  5  1  0
  5  6  1  0
  6  7  2  0
  7  8  1  0
  8  9  2  0
  9 10  1  0
 10 11  2  0
  5 12  1  0
 12 13  1  0
 13 14  1  0
 14 15  1  0
 15 16  1  0
 16 17  2  0
 16 18  1  0
 18 19  1  0
 18 20  1  0
 20 21  1  0
 21 22  2  0
 22 23  1  0
 23 24  1  0
 24 25  2  0
 25 26  1  0
 26 27  2  0
 27 28  1  0
 28 29  2  0
 15 30  1  0
 30 31  1  0
 11  6  1  0
 31 12  1  0
 29 21  1  0
 29 24  1  0
  1 32  1  0
  1 33  1  0
  1 34  1  0
  2 35  1  0
  2 36  1  0
  7 37  1  0
  8 38  1  0
  9 39  1  0
 10 40  1  0
 11 41  1  0
 12 42  1  0
 13 43  1  0
 13 44  1  0
 14 45  1  0
 14 46  1  0
 18 47  1  6
 19 48  1  0
 19 49  1  0
 20 50  1  0
 20 51  1  0
 22 52  1  0
 25 53  1  0
 26 54  1  0
 27 55  1  0
 28 56  1  0
 30 57  1  0
 30 58  1  0
 31 59  1  0
 31 60  1  0
M  END
>  <smiles>  (28) 
CCC(=O)N(c1ccccc1)C1CCN(C(=O)[C@H](N)Cc2csc3ccccc23)CC1

>  <score_type>  (28) 
oracle

>  <origin>  (28) 
autodockgpu

>  <m_score__min__energy>  (28) 
-9.4100000000000001

>  <m_primary>  (28) 
energy

>  <rmsd>  (28) 
7.359542988853837

>  <m_score__min__rmsd>  (28) 
7.359542988853837

>  <meeko>  (28) 
{"free_energy": -7.65, "intermolecular_energy": -10.03, "internal_energy": -2.02, "cluster_size": 2, "cluster_id": 5, "rank_in_cluster": 2}

>  <energy>  (28) 
-7.6

>  <cluster_rmsd>  (28) 
0.0

>  <cluster>  (28) 
6

$$$$

     RDKit          3D

 60 63  0  0  0  0  0  0  0  0999 V2000
  142.6200   77.8530  217.2740 C   0  0  0  0  0  0  0  0  0  0  0  0
  143.2960   76.5170  217.4300 C   0  0  0  0  0  0  0  0  0  0  0  0
  143.1440   76.1230  218.8700 C   0  0  0  0  0  0  0  0  0  0  0  0
  143.1990   77.0650  219.7030 O   0  0  0  0  0  0  0  0  0  0  0  0
  142.9510   74.7550  219.2490 N   0  0  0  0  0  0  0  0  0  0  0  0
  144.0530   73.9150  219.5840 C   0  0  0  0  0  0  0  0  0  0  0  0
  144.6470   74.1740  220.8180 C   0  0  0  0  0  0  0  0  0  0  0  0
  145.7380   73.3740  221.1840 C   0  0  0  0  0  0  0  0  0  0  0  0
  146.1740   72.3830  220.3290 C   0  0  0  0  0  0  0  0  0  0  0  0
  145.5700   72.1370  219.0990 C   0  0  0  0  0  0  0  0  0  0  0  0
  144.4980   72.9210  218.7380 C   0  0  0  0  0  0  0  0  0  0  0  0
  141.5730   74.2760  219.2780 C   0  0  0  0  0  0  0  0  0  0  0  0
  140.7750   74.9210  220.3680 C   0  0  0  0  0  0  0  0  0  0  0  0
  139.3620   74.3160  220.2720 C   0  0  0  0  0  0  0  0  0  0  0  0
  139.5600   72.9860  220.9000 N   0  0  0  0  0  0  0  0  0  0  0  0
  138.7390   72.7020  221.9980 C   0  0  0  0  0  0  0  0  0  0  0  0
  137.9040   73.6260  222.3230 O   0  0  0  0  0  0  0  0  0  0  0  0
  138.7040   71.4930  222.8320 C   0  0  2  0  0  0  0  0  0  0  0  0
  137.6920   71.4230  223.8220 N   0  0  0  0  0  0  0  0  0  0  0  0
  140.0830   71.0580  223.2690 C   0  0  0  0  0  0  0  0  0  0  0  0
  140.0400   70.2510  224.5590 C   0  0  0  0  0  0  0  0  0  0  0  0
  139.4820   68.9800  224.5110 C   0  0  0  0  0  0  0  0  0  0  0  0
  139.5520   68.3580  226.2090 S   0  0  0  0  0  0  0  0  0  0  0  0
  140.3220   69.8540  226.8350 C   0  0  0  0  0  0  0  0  0  0  0  0
  140.7090   70.1400  228.1240 C   0  0  0  0  0  0  0  0  0  0  0  0
  141.3020   71.3580  228.4190 C   0  0  0  0  0  0  0  0  0  0  0  0
  141.4610   72.2160  227.3430 C   0  0  0  0  0  0  0  0  0  0  0  0
  141.0710   71.9180  226.0650 C   0  0  0  0  0  0  0  0  0  0  0  0
  140.4630   70.6760  225.7620 C   0  0  0  0  0  0  0  0  0  0  0  0
  140.5650   72.1700  220.3120 C   0  0  0  0  0  0  0  0  0  0  0  0
  141.4830   72.8020  219.3430 C   0  0  0  0  0  0  0  0  0  0  0  0
  142.4068   78.2743  218.2675 H   0  0  0  0  0  0  0  0  0  0  0  0
  143.2810   78.5360  216.7203 H   0  0  0  0  0  0  0  0  0  0  0  0
  141.6782   77.7250  216.7203 H   0  0  0  0  0  0  0  0  0  0  0  0
  142.8158   75.7708  216.7800 H   0  0  0  0  0  0  0  0  0  0  0  0
  144.3569   76.5744  217.1451 H   0  0  0  0  0  0  0  0  0  0  0  0
  144.2752   74.9726  221.4768 H   0  0  0  0  0  0  0  0  0  0  0  0
  146.2437   73.5353  222.1474 H   0  0  0  0  0  0  0  0  0  0  0  0
  147.0315   71.7636  220.6306 H   0  0  0  0  0  0  0  0  0  0  0  0
  145.9383   71.3403  218.4359 H   0  0  0  0  0  0  0  0  0  0  0  0
  143.9956   72.7546  217.7737 H   0  0  0  0  0  0  0  0  0  0  0  0
  141.1265   74.5793  218.3195 H   0  0  0  0  0  0  0  0  0  0  0  0
  141.2197   74.7003  221.3496 H   0  0  0  0  0  0  0  0  0  0  0  0
  140.7537   76.0154  220.2592 H   0  0  0  0  0  0  0  0  0  0  0  0
  138.6296   74.9177  220.8301 H   0  0  0  0  0  0  0  0  0  0  0  0
  138.9646   74.2709  219.2473 H   0  0  0  0  0  0  0  0  0  0  0  0
  138.3434   70.7071  222.1521 H   0  0  0  0  0  0  0  0  0  0  0  0
  137.0470   70.6450  223.8220 H   0  0  0  0  0  0  0  0  0  0  0  0
  137.3310   72.3570  224.0580 H   0  0  0  0  0  0  0  0  0  0  0  0
  140.5286   70.4388  222.4765 H   0  0  0  0  0  0  0  0  0  0  0  0
  140.6842   71.9610  223.4510 H   0  0  0  0  0  0  0  0  0  0  0  0
  139.0820   68.4611  223.6274 H   0  0  0  0  0  0  0  0  0  0  0  0
  140.5475   69.4006  228.9223 H   0  0  0  0  0  0  0  0  0  0  0  0
  141.6238   71.6245  229.4365 H   0  0  0  0  0  0  0  0  0  0  0  0
  141.9283   73.1948  227.5264 H   0  0  0  0  0  0  0  0  0  0  0  0
  141.2322   72.6534  225.2630 H   0  0  0  0  0  0  0  0  0  0  0  0
  141.1789   71.7646  221.1298 H   0  0  0  0  0  0  0  0  0  0  0  0
  140.0091   71.4255  219.7232 H   0  0  0  0  0  0  0  0  0  0  0  0
  142.4929   72.4298  219.5699 H   0  0  0  0  0  0  0  0  0  0  0  0
  141.0568   72.5267  218.3670 H   0  0  0  0  0  0  0  0  0  0  0  0
  1  2  1  0
  2  3  1  0
  3  4  2  0
  3  5  1  0
  5  6  1  0
  6  7  2  0
  7  8  1  0
  8  9  2  0
  9 10  1  0
 10 11  2  0
  5 12  1  0
 12 13  1  0
 13 14  1  0
 14 15  1  0
 15 16  1  0
 16 17  2  0
 16 18  1  0
 18 19  1  0
 18 20  1  0
 20 21  1  0
 21 22  2  0
 22 23  1  0
 23 24  1  0
 24 25  2  0
 25 26  1  0
 26 27  2  0
 27 28  1  0
 28 29  2  0
 15 30  1  0
 30 31  1  0
 11  6  1  0
 31 12  1  0
 29 21  1  0
 29 24  1  0
  1 32  1  0
  1 33  1  0
  1 34  1  0
  2 35  1  0
  2 36  1  0
  7 37  1  0
  8 38  1  0
  9 39  1  0
 10 40  1  0
 11 41  1  0
 12 42  1  0
 13 43  1  0
 13 44  1  0
 14 45  1  0
 14 46  1  0
 18 47  1  6
 19 48  1  0
 19 49  1  0
 20 50  1  0
 20 51  1  0
 22 52  1  0
 25 53  1  0
 26 54  1  0
 27 55  1  0
 28 56  1  0
 30 57  1  0
 30 58  1  0
 31 59  1  0
 31 60  1  0
M  END
>  <smiles>  (29) 
CCC(=O)N(c1ccccc1)C1CCN(C(=O)[C@H](N)Cc2csc3ccccc23)CC1

>  <score_type>  (29) 
oracle

>  <origin>  (29) 
autodockgpu

>  <m_score__min__energy>  (29) 
-9.4100000000000001

>  <m_primary>  (29) 
energy

>  <rmsd>  (29) 
7.475110191812919

>  <m_score__min__rmsd>  (29) 
7.475110191812919

>  <meeko>  (29) 
{"free_energy": -7.86, "intermolecular_energy": -10.24, "internal_energy": -2.2, "cluster_size": 2, "cluster_id": 5, "rank_in_cluster": 1}

>  <energy>  (29) 
-7.33

>  <cluster_rmsd>  (29) 
1.3

>  <cluster>  (29) 
6

$$$$

     RDKit          3D

 60 63  0  0  0  0  0  0  0  0999 V2000
  140.6860   83.2430  220.8120 C   0  0  0  0  0  0  0  0  0  0  0  0
  140.6180   82.6730  219.4190 C   0  0  0  0  0  0  0  0  0  0  0  0
  141.4660   81.4360  219.4190 C   0  0  0  0  0  0  0  0  0  0  0  0
  141.8160   81.0120  220.5510 O   0  0  0  0  0  0  0  0  0  0  0  0
  141.8450   80.7960  218.1940 N   0  0  0  0  0  0  0  0  0  0  0  0
  142.5380   81.5040  217.1690 C   0  0  0  0  0  0  0  0  0  0  0  0
  142.1800   81.1680  215.8650 C   0  0  0  0  0  0  0  0  0  0  0  0
  142.8410   81.8370  214.8260 C   0  0  0  0  0  0  0  0  0  0  0  0
  143.8000   82.7820  215.1260 C   0  0  0  0  0  0  0  0  0  0  0  0
  144.1470   83.1070  216.4340 C   0  0  0  0  0  0  0  0  0  0  0  0
  143.4980   82.4510  217.4560 C   0  0  0  0  0  0  0  0  0  0  0  0
  141.4890   79.3880  218.0590 C   0  0  0  0  0  0  0  0  0  0  0  0
  140.0790   79.1180  218.4820 C   0  0  0  0  0  0  0  0  0  0  0  0
  139.8590   77.6070  218.2870 C   0  0  0  0  0  0  0  0  0  0  0  0
  140.5570   77.0450  219.4710 N   0  0  0  0  0  0  0  0  0  0  0  0
  139.7800   76.2380  220.3100 C   0  0  0  0  0  0  0  0  0  0  0  0
  138.5560   76.0720  219.9480 O   0  0  0  0  0  0  0  0  0  0  0  0
  140.1710   75.5570  221.5510 C   0  0  2  0  0  0  0  0  0  0  0  0
  139.1650   74.8250  222.2290 N   0  0  0  0  0  0  0  0  0  0  0  0
  141.0590   76.4160  222.4210 C   0  0  0  0  0  0  0  0  0  0  0  0
  140.4090   77.7540  222.7470 C   0  0  0  0  0  0  0  0  0  0  0  0
  139.0210   77.8210  222.7340 C   0  0  0  0  0  0  0  0  0  0  0  0
  138.6190   79.5460  223.1040 S   0  0  0  0  0  0  0  0  0  0  0  0
  140.3420   80.0260  223.2430 C   0  0  0  0  0  0  0  0  0  0  0  0
  140.8620   81.2670  223.5320 C   0  0  0  0  0  0  0  0  0  0  0  0
  142.2350   81.4470  223.6070 C   0  0  0  0  0  0  0  0  0  0  0  0
  142.9950   80.3120  223.3760 C   0  0  0  0  0  0  0  0  0  0  0  0
  142.4640   79.0830  223.0900 C   0  0  0  0  0  0  0  0  0  0  0  0
  141.0620   78.8980  223.0110 C   0  0  0  0  0  0  0  0  0  0  0  0
  141.9260   77.4040  219.6070 C   0  0  0  0  0  0  0  0  0  0  0  0
  142.4410   78.4910  218.7480 C   0  0  0  0  0  0  0  0  0  0  0  0
  140.5890   82.4296  221.5461 H   0  0  0  0  0  0  0  0  0  0  0  0
  141.6512   83.7514  220.9534 H   0  0  0  0  0  0  0  0  0  0  0  0
  139.8675   83.9642  220.9534 H   0  0  0  0  0  0  0  0  0  0  0  0
  139.5785   82.4203  219.1629 H   0  0  0  0  0  0  0  0  0  0  0  0
  140.9774   83.3997  218.6756 H   0  0  0  0  0  0  0  0  0  0  0  0
  141.4105   80.4092  215.6596 H   0  0  0  0  0  0  0  0  0  0  0  0
  142.5966   81.6099  213.7778 H   0  0  0  0  0  0  0  0  0  0  0  0
  144.3101   83.2986  214.2996 H   0  0  0  0  0  0  0  0  0  0  0  0
  144.9161   83.8646  216.6449 H   0  0  0  0  0  0  0  0  0  0  0  0
  143.7457   82.6827  218.5024 H   0  0  0  0  0  0  0  0  0  0  0  0
  141.5581   79.1605  216.9850 H   0  0  0  0  0  0  0  0  0  0  0  0
  139.9378   79.3916  219.5380 H   0  0  0  0  0  0  0  0  0  0  0  0
  139.3618   79.7087  217.8932 H   0  0  0  0  0  0  0  0  0  0  0  0
  138.7886   77.3535  218.2950 H   0  0  0  0  0  0  0  0  0  0  0  0
  140.2306   77.2224  217.3258 H   0  0  0  0  0  0  0  0  0  0  0  0
  140.8009   74.7214  221.2119 H   0  0  0  0  0  0  0  0  0  0  0  0
  139.4290   74.0950  222.8770 H   0  0  0  0  0  0  0  0  0  0  0  0
  138.3420   74.6740  221.6310 H   0  0  0  0  0  0  0  0  0  0  0  0
  141.2621   75.8808  223.3603 H   0  0  0  0  0  0  0  0  0  0  0  0
  141.9897   76.6139  221.8690 H   0  0  0  0  0  0  0  0  0  0  0  0
  138.3159   76.9993  222.5399 H   0  0  0  0  0  0  0  0  0  0  0  0
  140.1869   82.1183  223.7039 H   0  0  0  0  0  0  0  0  0  0  0  0
  142.6889   82.4229  223.8340 H   0  0  0  0  0  0  0  0  0  0  0  0
  144.0901   80.4037  223.4253 H   0  0  0  0  0  0  0  0  0  0  0  0
  143.1349   78.2281  222.9193 H   0  0  0  0  0  0  0  0  0  0  0  0
  142.0831   77.7091  220.6521 H   0  0  0  0  0  0  0  0  0  0  0  0
  142.4805   76.5100  219.2856 H   0  0  0  0  0  0  0  0  0  0  0  0
  143.0769   79.1260  219.3824 H   0  0  0  0  0  0  0  0  0  0  0  0
  142.9349   77.9563  217.9233 H   0  0  0  0  0  0  0  0  0  0  0  0
  1  2  1  0
  2  3  1  0
  3  4  2  0
  3  5  1  0
  5  6  1  0
  6  7  2  0
  7  8  1  0
  8  9  2  0
  9 10  1  0
 10 11  2  0
  5 12  1  0
 12 13  1  0
 13 14  1  0
 14 15  1  0
 15 16  1  0
 16 17  2  0
 16 18  1  0
 18 19  1  0
 18 20  1  0
 20 21  1  0
 21 22  2  0
 22 23  1  0
 23 24  1  0
 24 25  2  0
 25 26  1  0
 26 27  2  0
 27 28  1  0
 28 29  2  0
 15 30  1  0
 30 31  1  0
 11  6  1  0
 31 12  1  0
 29 21  1  0
 29 24  1  0
  1 32  1  0
  1 33  1  0
  1 34  1  0
  2 35  1  0
  2 36  1  0
  7 37  1  0
  8 38  1  0
  9 39  1  0
 10 40  1  0
 11 41  1  0
 12 42  1  0
 13 43  1  0
 13 44  1  0
 14 45  1  0
 14 46  1  0
 18 47  1  6
 19 48  1  0
 19 49  1  0
 20 50  1  0
 20 51  1  0
 22 52  1  0
 25 53  1  0
 26 54  1  0
 27 55  1  0
 28 56  1  0
 30 57  1  0
 30 58  1  0
 31 59  1  0
 31 60  1  0
M  END
>  <smiles>  (30) 
CCC(=O)N(c1ccccc1)C1CCN(C(=O)[C@H](N)Cc2csc3ccccc23)CC1

>  <score_type>  (30) 
oracle

>  <origin>  (30) 
autodockgpu

>  <m_score__min__energy>  (30) 
-9.4100000000000001

>  <m_primary>  (30) 
energy

>  <rmsd>  (30) 
4.0624032587770005

>  <m_score__min__rmsd>  (30) 
4.0624032587770005

>  <meeko>  (30) 
{"free_energy": -6.63, "intermolecular_energy": -9.02, "internal_energy": -3.46, "cluster_size": 14, "cluster_id": 9, "rank_in_cluster": 10}

>  <energy>  (30) 
-7.08

>  <cluster_rmsd>  (30) 
0.0

>  <cluster>  (30) 
7

$$$$

     RDKit          3D

 60 63  0  0  0  0  0  0  0  0999 V2000
  140.7480   83.0920  220.8340 C   0  0  0  0  0  0  0  0  0  0  0  0
  140.8110   82.6730  219.3890 C   0  0  0  0  0  0  0  0  0  0  0  0
  141.5650   81.3770  219.3490 C   0  0  0  0  0  0  0  0  0  0  0  0
  141.9060   80.9080  220.4660 O   0  0  0  0  0  0  0  0  0  0  0  0
  141.8700   80.7340  218.1060 N   0  0  0  0  0  0  0  0  0  0  0  0
  142.5460   81.4250  217.0570 C   0  0  0  0  0  0  0  0  0  0  0  0
  143.5350   82.3150  217.4700 C   0  0  0  0  0  0  0  0  0  0  0  0
  144.2200   83.0200  216.4720 C   0  0  0  0  0  0  0  0  0  0  0  0
  143.8960   82.8120  215.1460 C   0  0  0  0  0  0  0  0  0  0  0  0
  142.9050   81.9190  214.7490 C   0  0  0  0  0  0  0  0  0  0  0  0
  142.2310   81.2250  215.7300 C   0  0  0  0  0  0  0  0  0  0  0  0
  141.4590   79.3400  217.9760 C   0  0  0  0  0  0  0  0  0  0  0  0
  140.0660   79.1140  218.4760 C   0  0  0  0  0  0  0  0  0  0  0  0
  139.7840   77.6130  218.2780 C   0  0  0  0  0  0  0  0  0  0  0  0
  140.5270   77.0130  219.4140 N   0  0  0  0  0  0  0  0  0  0  0  0
  139.7710   76.2230  220.2880 C   0  0  0  0  0  0  0  0  0  0  0  0
  138.5240   76.1030  219.9930 O   0  0  0  0  0  0  0  0  0  0  0  0
  140.2080   75.5130  221.4970 C   0  0  2  0  0  0  0  0  0  0  0  0
  139.2400   74.7240  222.1660 N   0  0  0  0  0  0  0  0  0  0  0  0
  141.0800   76.3730  222.3820 C   0  0  0  0  0  0  0  0  0  0  0  0
  140.4130   77.6980  222.7200 C   0  0  0  0  0  0  0  0  0  0  0  0
  139.0240   77.7460  222.7130 C   0  0  0  0  0  0  0  0  0  0  0  0
  138.5980   79.4610  223.0980 S   0  0  0  0  0  0  0  0  0  0  0  0
  140.3150   79.9660  223.2350 C   0  0  0  0  0  0  0  0  0  0  0  0
  140.8180   81.2110  223.5320 C   0  0  0  0  0  0  0  0  0  0  0  0
  142.1890   81.4110  223.6040 C   0  0  0  0  0  0  0  0  0  0  0  0
  142.9640   80.2890  223.3610 C   0  0  0  0  0  0  0  0  0  0  0  0
  142.4500   79.0540  223.0670 C   0  0  0  0  0  0  0  0  0  0  0  0
  141.0510   78.8500  222.9910 C   0  0  0  0  0  0  0  0  0  0  0  0
  141.9130   77.3240  219.4760 C   0  0  0  0  0  0  0  0  0  0  0  0
  142.4160   78.4030  218.6010 C   0  0  0  0  0  0  0  0  0  0  0  0
  140.8806   82.2099  221.4777 H   0  0  0  0  0  0  0  0  0  0  0  0
  141.5468   83.8196  221.0399 H   0  0  0  0  0  0  0  0  0  0  0  0
  139.7705   83.5525  221.0399 H   0  0  0  0  0  0  0  0  0  0  0  0
  139.7955   82.5333  218.9901 H   0  0  0  0  0  0  0  0  0  0  0  0
  141.3081   83.4392  218.7760 H   0  0  0  0  0  0  0  0  0  0  0  0
  143.7683   82.4582  218.5354 H   0  0  0  0  0  0  0  0  0  0  0  0
  145.0110   83.7348  216.7430 H   0  0  0  0  0  0  0  0  0  0  0  0
  144.4421   83.3736  214.3737 H   0  0  0  0  0  0  0  0  0  0  0  0
  142.6673   81.7719  213.6851 H   0  0  0  0  0  0  0  0  0  0  0  0
  141.4411   80.5109  215.4541 H   0  0  0  0  0  0  0  0  0  0  0  0
  141.4606   79.1227  216.8977 H   0  0  0  0  0  0  0  0  0  0  0  0
  139.9941   79.3794  219.5411 H   0  0  0  0  0  0  0  0  0  0  0  0
  139.3374   79.7362  217.9357 H   0  0  0  0  0  0  0  0  0  0  0  0
  138.7077   77.3955  218.3436 H   0  0  0  0  0  0  0  0  0  0  0  0
  140.0882   77.2283  217.2934 H   0  0  0  0  0  0  0  0  0  0  0  0
  140.8601   74.7124  221.1179 H   0  0  0  0  0  0  0  0  0  0  0  0
  138.3020   74.6620  221.7930 H   0  0  0  0  0  0  0  0  0  0  0  0
  139.3580   74.7680  223.1870 H   0  0  0  0  0  0  0  0  0  0  0  0
  141.2845   75.8293  223.3161 H   0  0  0  0  0  0  0  0  0  0  0  0
  142.0108   76.5890  221.8371 H   0  0  0  0  0  0  0  0  0  0  0  0
  138.3300   76.9158  222.5150 H   0  0  0  0  0  0  0  0  0  0  0  0
  140.1311   82.0509  223.7130 H   0  0  0  0  0  0  0  0  0  0  0  0
  142.6295   82.3915  223.8376 H   0  0  0  0  0  0  0  0  0  0  0  0
  144.0578   80.3963  223.4069 H   0  0  0  0  0  0  0  0  0  0  0  0
  143.1325   78.2102  222.8877 H   0  0  0  0  0  0  0  0  0  0  0  0
  142.1390   77.6107  220.5137 H   0  0  0  0  0  0  0  0  0  0  0  0
  142.4174   76.4158  219.1144 H   0  0  0  0  0  0  0  0  0  0  0  0
  143.1079   79.0082  219.2052 H   0  0  0  0  0  0  0  0  0  0  0  0
  142.8440   77.8619  217.7443 H   0  0  0  0  0  0  0  0  0  0  0  0
  1  2  1  0
  2  3  1  0
  3  4  2  0
  3  5  1  0
  5  6  1  0
  6  7  2  0
  7  8  1  0
  8  9  2  0
  9 10  1  0
 10 11  2  0
  5 12  1  0
 12 13  1  0
 13 14  1  0
 14 15  1  0
 15 16  1  0
 16 17  2  0
 16 18  1  0
 18 19  1  0
 18 20  1  0
 20 21  1  0
 21 22  2  0
 22 23  1  0
 23 24  1  0
 24 25  2  0
 25 26  1  0
 26 27  2  0
 27 28  1  0
 28 29  2  0
 15 30  1  0
 30 31  1  0
 11  6  1  0
 31 12  1  0
 29 21  1  0
 29 24  1  0
  1 32  1  0
  1 33  1  0
  1 34  1  0
  2 35  1  0
  2 36  1  0
  7 37  1  0
  8 38  1  0
  9 39  1  0
 10 40  1  0
 11 41  1  0
 12 42  1  0
 13 43  1  0
 13 44  1  0
 14 45  1  0
 14 46  1  0
 18 47  1  6
 19 48  1  0
 19 49  1  0
 20 50  1  0
 20 51  1  0
 22 52  1  0
 25 53  1  0
 26 54  1  0
 27 55  1  0
 28 56  1  0
 30 57  1  0
 30 58  1  0
 31 59  1  0
 31 60  1  0
M  END
>  <smiles>  (31) 
CCC(=O)N(c1ccccc1)C1CCN(C(=O)[C@H](N)Cc2csc3ccccc23)CC1

>  <score_type>  (31) 
oracle

>  <origin>  (31) 
autodockgpu

>  <m_score__min__energy>  (31) 
-9.4100000000000001

>  <m_primary>  (31) 
energy

>  <rmsd>  (31) 
4.0687236813406455

>  <m_score__min__rmsd>  (31) 
4.0687236813406455

>  <meeko>  (31) 
{"free_energy": -6.75, "intermolecular_energy": -9.14, "internal_energy": -3.29, "cluster_size": 14, "cluster_id": 9, "rank_in_cluster": 2}

>  <energy>  (31) 
-7.02

>  <cluster_rmsd>  (31) 
0.0

>  <cluster>  (31) 
8

$$$$

     RDKit          3D

 60 63  0  0  0  0  0  0  0  0999 V2000
  135.2730   70.1270  224.9850 C   0  0  0  0  0  0  0  0  0  0  0  0
  136.2940   70.9430  224.2370 C   0  0  0  0  0  0  0  0  0  0  0  0
  137.4460   70.0270  223.9450 C   0  0  0  0  0  0  0  0  0  0  0  0
  137.1430   68.8380  223.6690 O   0  0  0  0  0  0  0  0  0  0  0  0
  138.7980   70.4990  223.9860 N   0  0  0  0  0  0  0  0  0  0  0  0
  139.5870   70.3910  225.1700 C   0  0  0  0  0  0  0  0  0  0  0  0
  139.8840   69.0910  225.5730 C   0  0  0  0  0  0  0  0  0  0  0  0
  140.6520   68.9400  226.7340 C   0  0  0  0  0  0  0  0  0  0  0  0
  141.0760   70.0580  227.4220 C   0  0  0  0  0  0  0  0  0  0  0  0
  140.7710   71.3510  227.0070 C   0  0  0  0  0  0  0  0  0  0  0  0
  140.0160   71.5020  225.8650 C   0  0  0  0  0  0  0  0  0  0  0  0
  139.3210   71.0850  222.7570 C   0  0  0  0  0  0  0  0  0  0  0  0
  140.6980   71.6420  222.9390 C   0  0  0  0  0  0  0  0  0  0  0  0
  141.1050   72.2210  221.5710 C   0  0  0  0  0  0  0  0  0  0  0  0
  140.3510   73.4990  221.5480 N   0  0  0  0  0  0  0  0  0  0  0  0
  141.1180   74.6560  221.3700 C   0  0  0  0  0  0  0  0  0  0  0  0
  142.3840   74.4710  221.2360 O   0  0  0  0  0  0  0  0  0  0  0  0
  140.6730   76.0560  221.3170 C   0  0  2  0  0  0  0  0  0  0  0  0
  141.6150   77.0150  220.8700 N   0  0  0  0  0  0  0  0  0  0  0  0
  139.8630   76.4460  222.5310 C   0  0  0  0  0  0  0  0  0  0  0  0
  139.6010   77.9440  222.5800 C   0  0  0  0  0  0  0  0  0  0  0  0
  138.3610   78.4000  222.1480 C   0  0  0  0  0  0  0  0  0  0  0  0
  138.4320   80.2020  222.2940 S   0  0  0  0  0  0  0  0  0  0  0  0
  140.1140   80.1890  222.9200 C   0  0  0  0  0  0  0  0  0  0  0  0
  140.8960   81.2580  223.2890 C   0  0  0  0  0  0  0  0  0  0  0  0
  142.1830   81.0500  223.7630 C   0  0  0  0  0  0  0  0  0  0  0  0
  142.5840   79.7260  223.8270 C   0  0  0  0  0  0  0  0  0  0  0  0
  141.7940   78.6700  223.4570 C   0  0  0  0  0  0  0  0  0  0  0  0
  140.4810   78.8810  222.9700 C   0  0  0  0  0  0  0  0  0  0  0  0
  138.9440   73.3870  221.7180 C   0  0  0  0  0  0  0  0  0  0  0  0
  138.4070   72.0860  222.1690 C   0  0  0  0  0  0  0  0  0  0  0  0
  135.4268   70.2499  226.0672 H   0  0  0  0  0  0  0  0  0  0  0  0
  134.2625   70.4691  224.7171 H   0  0  0  0  0  0  0  0  0  0  0  0
  135.3839   69.0659  224.7171 H   0  0  0  0  0  0  0  0  0  0  0  0
  135.8632   71.3218  223.2984 H   0  0  0  0  0  0  0  0  0  0  0  0
  136.6184   71.8113  224.8293 H   0  0  0  0  0  0  0  0  0  0  0  0
  139.5299   68.2194  225.0029 H   0  0  0  0  0  0  0  0  0  0  0  0
  140.9158   67.9352  227.0956 H   0  0  0  0  0  0  0  0  0  0  0  0
  141.6778   69.9225  228.3328 H   0  0  0  0  0  0  0  0  0  0  0  0
  141.1223   72.2258  227.5739 H   0  0  0  0  0  0  0  0  0  0  0  0
  139.7552   72.5090  225.5073 H   0  0  0  0  0  0  0  0  0  0  0  0
  139.3937   70.2586  222.0347 H   0  0  0  0  0  0  0  0  0  0  0  0
  140.6924   72.4335  223.7028 H   0  0  0  0  0  0  0  0  0  0  0  0
  141.4044   70.8691  223.2760 H   0  0  0  0  0  0  0  0  0  0  0  0
  142.1898   72.3946  221.5159 H   0  0  0  0  0  0  0  0  0  0  0  0
  140.8842   71.5573  220.7220 H   0  0  0  0  0  0  0  0  0  0  0  0
  139.9741   76.0840  220.4680 H   0  0  0  0  0  0  0  0  0  0  0  0
  141.3860   77.6120  220.0870 H   0  0  0  0  0  0  0  0  0  0  0  0
  142.5780   76.6620  220.9500 H   0  0  0  0  0  0  0  0  0  0  0  0
  138.8990   75.9170  222.5004 H   0  0  0  0  0  0  0  0  0  0  0  0
  140.4378   76.1706  223.4276 H   0  0  0  0  0  0  0  0  0  0  0  0
  137.5151   77.7934  221.7924 H   0  0  0  0  0  0  0  0  0  0  0  0
  140.5000   82.2810  223.2081 H   0  0  0  0  0  0  0  0  0  0  0  0
  142.8392   81.8789  224.0668 H   0  0  0  0  0  0  0  0  0  0  0  0
  143.5971   79.5096  224.1969 H   0  0  0  0  0  0  0  0  0  0  0  0
  142.1844   77.6449  223.5392 H   0  0  0  0  0  0  0  0  0  0  0  0
  138.6417   74.1417  222.4590 H   0  0  0  0  0  0  0  0  0  0  0  0
  138.5306   73.5227  220.7077 H   0  0  0  0  0  0  0  0  0  0  0  0
  137.6395   72.3022  222.9267 H   0  0  0  0  0  0  0  0  0  0  0  0
  138.0682   71.6098  221.2371 H   0  0  0  0  0  0  0  0  0  0  0  0
  1  2  1  0
  2  3  1  0
  3  4  2  0
  3  5  1  0
  5  6  1  0
  6  7  2  0
  7  8  1  0
  8  9  2  0
  9 10  1  0
 10 11  2  0
  5 12  1  0
 12 13  1  0
 13 14  1  0
 14 15  1  0
 15 16  1  0
 16 17  2  0
 16 18  1  0
 18 19  1  0
 18 20  1  0
 20 21  1  0
 21 22  2  0
 22 23  1  0
 23 24  1  0
 24 25  2  0
 25 26  1  0
 26 27  2  0
 27 28  1  0
 28 29  2  0
 15 30  1  0
 30 31  1  0
 11  6  1  0
 31 12  1  0
 29 21  1  0
 29 24  1  0
  1 32  1  0
  1 33  1  0
  1 34  1  0
  2 35  1  0
  2 36  1  0
  7 37  1  0
  8 38  1  0
  9 39  1  0
 10 40  1  0
 11 41  1  0
 12 42  1  0
 13 43  1  0
 13 44  1  0
 14 45  1  0
 14 46  1  0
 18 47  1  6
 19 48  1  0
 19 49  1  0
 20 50  1  0
 20 51  1  0
 22 52  1  0
 25 53  1  0
 26 54  1  0
 27 55  1  0
 28 56  1  0
 30 57  1  0
 30 58  1  0
 31 59  1  0
 31 60  1  0
M  END
>  <smiles>  (32) 
CCC(=O)N(c1ccccc1)C1CCN(C(=O)[C@H](N)Cc2csc3ccccc23)CC1

>  <score_type>  (32) 
oracle

>  <origin>  (32) 
autodockgpu

>  <m_score__min__energy>  (32) 
-9.4100000000000001

>  <m_primary>  (32) 
energy

>  <rmsd>  (32) 
6.9923565672470485

>  <m_score__min__rmsd>  (32) 
6.9923565672470485

>  <meeko>  (32) 
{"free_energy": -8.07, "intermolecular_energy": -10.45, "internal_energy": -2.08, "cluster_size": 9, "cluster_id": 3, "rank_in_cluster": 4}

>  <energy>  (32) 
-7.0

>  <cluster_rmsd>  (32) 
0.06

>  <cluster>  (32) 
8

$$$$

     RDKit          3D

 60 63  0  0  0  0  0  0  0  0999 V2000
  135.4630   69.2760  224.9780 C   0  0  0  0  0  0  0  0  0  0  0  0
  136.5930   69.2850  223.9830 C   0  0  0  0  0  0  0  0  0  0  0  0
  137.2530   70.6270  224.0940 C   0  0  0  0  0  0  0  0  0  0  0  0
  136.4780   71.6090  224.2350 O   0  0  0  0  0  0  0  0  0  0  0  0
  138.6790   70.7600  224.0390 N   0  0  0  0  0  0  0  0  0  0  0  0
  139.5030   70.3880  225.1420 C   0  0  0  0  0  0  0  0  0  0  0  0
  139.6750   69.0170  225.3230 C   0  0  0  0  0  0  0  0  0  0  0  0
  140.4730   68.6080  226.3990 C   0  0  0  0  0  0  0  0  0  0  0  0
  141.0460   69.5560  227.2220 C   0  0  0  0  0  0  0  0  0  0  0  0
  140.8640   70.9220  227.0290 C   0  0  0  0  0  0  0  0  0  0  0  0
  140.0800   71.3260  225.9710 C   0  0  0  0  0  0  0  0  0  0  0  0
  139.2360   71.2870  222.7980 C   0  0  0  0  0  0  0  0  0  0  0  0
  140.6260   71.8120  222.9820 C   0  0  0  0  0  0  0  0  0  0  0  0
  141.0690   72.3290  221.6010 C   0  0  0  0  0  0  0  0  0  0  0  0
  140.3510   73.6260  221.5200 N   0  0  0  0  0  0  0  0  0  0  0  0
  141.1530   74.7540  221.3120 C   0  0  0  0  0  0  0  0  0  0  0  0
  142.4150   74.5290  221.2060 O   0  0  0  0  0  0  0  0  0  0  0  0
  140.7480   76.1630  221.2020 C   0  0  2  0  0  0  0  0  0  0  0  0
  141.7400   77.0870  220.7910 N   0  0  0  0  0  0  0  0  0  0  0  0
  139.8790   76.6010  222.3580 C   0  0  0  0  0  0  0  0  0  0  0  0
  139.6580   78.1070  222.3610 C   0  0  0  0  0  0  0  0  0  0  0  0
  138.4710   78.5900  221.8230 C   0  0  0  0  0  0  0  0  0  0  0  0
  138.5840   80.3910  221.9460 S   0  0  0  0  0  0  0  0  0  0  0  0
  140.2090   80.3410  222.7070 C   0  0  0  0  0  0  0  0  0  0  0  0
  140.9900   81.3950  223.1230 C   0  0  0  0  0  0  0  0  0  0  0  0
  142.2270   81.1590  223.7040 C   0  0  0  0  0  0  0  0  0  0  0  0
  142.5820   79.8240  223.8210 C   0  0  0  0  0  0  0  0  0  0  0  0
  141.7940   78.7850  223.4040 C   0  0  0  0  0  0  0  0  0  0  0  0
  140.5310   79.0250  222.8080 C   0  0  0  0  0  0  0  0  0  0  0  0
  138.9390   73.5590  221.6720 C   0  0  0  0  0  0  0  0  0  0  0  0
  138.3590   72.2910  222.1600 C   0  0  0  0  0  0  0  0  0  0  0  0
  135.8731   69.2793  225.9987 H   0  0  0  0  0  0  0  0  0  0  0  0
  134.8380   70.1692  224.8311 H   0  0  0  0  0  0  0  0  0  0  0  0
  134.8523   68.3730  224.8311 H   0  0  0  0  0  0  0  0  0  0  0  0
  137.3129   68.4876  224.2194 H   0  0  0  0  0  0  0  0  0  0  0  0
  136.2232   69.1087  222.9621 H   0  0  0  0  0  0  0  0  0  0  0  0
  139.2037   68.2865  224.6490 H   0  0  0  0  0  0  0  0  0  0  0  0
  140.6420   67.5374  226.5869 H   0  0  0  0  0  0  0  0  0  0  0  0
  141.6704   69.2190  228.0626 H   0  0  0  0  0  0  0  0  0  0  0  0
  141.3319   71.6567  227.7008 H   0  0  0  0  0  0  0  0  0  0  0  0
  139.9143   72.3978  225.7875 H   0  0  0  0  0  0  0  0  0  0  0  0
  139.2957   70.4336  222.1065 H   0  0  0  0  0  0  0  0  0  0  0  0
  140.6315   72.6307  223.7167 H   0  0  0  0  0  0  0  0  0  0  0  0
  141.3052   71.0327  223.3580 H   0  0  0  0  0  0  0  0  0  0  0  0
  142.1589   72.4707  221.5567 H   0  0  0  0  0  0  0  0  0  0  0  0
  140.8424   71.6410  220.7732 H   0  0  0  0  0  0  0  0  0  0  0  0
  140.1003   76.1893  220.3133 H   0  0  0  0  0  0  0  0  0  0  0  0
  141.5530   77.7080  220.0150 H   0  0  0  0  0  0  0  0  0  0  0  0
  142.6850   76.6920  220.8840 H   0  0  0  0  0  0  0  0  0  0  0  0
  138.9037   76.0983  222.2806 H   0  0  0  0  0  0  0  0  0  0  0  0
  140.3912   76.3290  223.2927 H   0  0  0  0  0  0  0  0  0  0  0  0
  137.6387   78.0014  221.4097 H   0  0  0  0  0  0  0  0  0  0  0  0
  140.6322   82.4272  222.9944 H   0  0  0  0  0  0  0  0  0  0  0  0
  142.8807   81.9741  224.0479 H   0  0  0  0  0  0  0  0  0  0  0  0
  143.5547   79.5853  224.2759 H   0  0  0  0  0  0  0  0  0  0  0  0
  142.1458   77.7508  223.5333 H   0  0  0  0  0  0  0  0  0  0  0  0
  138.6474   74.3477  222.3811 H   0  0  0  0  0  0  0  0  0  0  0  0
  138.5445   73.6697  220.6511 H   0  0  0  0  0  0  0  0  0  0  0  0
  137.5865   72.5554  222.8971 H   0  0  0  0  0  0  0  0  0  0  0  0
  138.0208   71.7911  221.2404 H   0  0  0  0  0  0  0  0  0  0  0  0
  1  2  1  0
  2  3  1  0
  3  4  2  0
  3  5  1  0
  5  6  1  0
  6  7  2  0
  7  8  1  0
  8  9  2  0
  9 10  1  0
 10 11  2  0
  5 12  1  0
 12 13  1  0
 13 14  1  0
 14 15  1  0
 15 16  1  0
 16 17  2  0
 16 18  1  0
 18 19  1  0
 18 20  1  0
 20 21  1  0
 21 22  2  0
 22 23  1  0
 23 24  1  0
 24 25  2  0
 25 26  1  0
 26 27  2  0
 27 28  1  0
 28 29  2  0
 15 30  1  0
 30 31  1  0
 11  6  1  0
 31 12  1  0
 29 21  1  0
 29 24  1  0
  1 32  1  0
  1 33  1  0
  1 34  1  0
  2 35  1  0
  2 36  1  0
  7 37  1  0
  8 38  1  0
  9 39  1  0
 10 40  1  0
 11 41  1  0
 12 42  1  0
 13 43  1  0
 13 44  1  0
 14 45  1  0
 14 46  1  0
 18 47  1  6
 19 48  1  0
 19 49  1  0
 20 50  1  0
 20 51  1  0
 22 52  1  0
 25 53  1  0
 26 54  1  0
 27 55  1  0
 28 56  1  0
 30 57  1  0
 30 58  1  0
 31 59  1  0
 31 60  1  0
M  END
>  <smiles>  (33) 
CCC(=O)N(c1ccccc1)C1CCN(C(=O)[C@H](N)Cc2csc3ccccc23)CC1

>  <score_type>  (33) 
oracle

>  <origin>  (33) 
autodockgpu

>  <m_score__min__energy>  (33) 
-9.4100000000000001

>  <m_primary>  (33) 
energy

>  <rmsd>  (33) 
6.867697672529913

>  <m_score__min__rmsd>  (33) 
6.867697672529913

>  <meeko>  (33) 
{"free_energy": -8.07, "intermolecular_energy": -10.46, "internal_energy": -2.13, "cluster_size": 9, "cluster_id": 3, "rank_in_cluster": 3}

>  <energy>  (33) 
-6.31

>  <cluster_rmsd>  (33) 
1.56

>  <cluster>  (33) 
8

$$$$

     RDKit          3D

 60 63  0  0  0  0  0  0  0  0999 V2000
  140.0600   82.6840  220.6490 C   0  0  0  0  0  0  0  0  0  0  0  0
  141.0080   82.7250  219.4800 C   0  0  0  0  0  0  0  0  0  0  0  0
  141.6560   81.3750  219.4030 C   0  0  0  0  0  0  0  0  0  0  0  0
  141.9480   80.8450  220.5070 O   0  0  0  0  0  0  0  0  0  0  0  0
  141.9180   80.7470  218.1420 N   0  0  0  0  0  0  0  0  0  0  0  0
  142.5570   81.4530  217.0800 C   0  0  0  0  0  0  0  0  0  0  0  0
  143.5650   82.3330  217.4700 C   0  0  0  0  0  0  0  0  0  0  0  0
  144.2150   83.0510  216.4580 C   0  0  0  0  0  0  0  0  0  0  0  0
  143.8420   82.8650  215.1420 C   0  0  0  0  0  0  0  0  0  0  0  0
  142.8330   81.9820  214.7690 C   0  0  0  0  0  0  0  0  0  0  0  0
  142.1930   81.2750  215.7630 C   0  0  0  0  0  0  0  0  0  0  0  0
  141.5030   79.3550  218.0090 C   0  0  0  0  0  0  0  0  0  0  0  0
  140.1050   79.1340  218.4960 C   0  0  0  0  0  0  0  0  0  0  0  0
  139.8180   77.6350  218.2950 C   0  0  0  0  0  0  0  0  0  0  0  0
  140.5490   77.0320  219.4380 N   0  0  0  0  0  0  0  0  0  0  0  0
  139.7810   76.2450  220.3040 C   0  0  0  0  0  0  0  0  0  0  0  0
  138.5370   76.1300  219.9980 O   0  0  0  0  0  0  0  0  0  0  0  0
  140.2040   75.5330  221.5180 C   0  0  2  0  0  0  0  0  0  0  0  0
  139.2260   74.7480  222.1780 N   0  0  0  0  0  0  0  0  0  0  0  0
  141.0720   76.3900  222.4110 C   0  0  0  0  0  0  0  0  0  0  0  0
  140.4090   77.7200  222.7390 C   0  0  0  0  0  0  0  0  0  0  0  0
  139.0200   77.7740  222.7260 C   0  0  0  0  0  0  0  0  0  0  0  0
  138.6010   79.4930  223.0990 S   0  0  0  0  0  0  0  0  0  0  0  0
  140.3190   79.9900  223.2410 C   0  0  0  0  0  0  0  0  0  0  0  0
  140.8270   81.2350  223.5340 C   0  0  0  0  0  0  0  0  0  0  0  0
  142.1980   81.4290  223.6100 C   0  0  0  0  0  0  0  0  0  0  0  0
  142.9700   80.3020  223.3770 C   0  0  0  0  0  0  0  0  0  0  0  0
  142.4510   79.0680  223.0870 C   0  0  0  0  0  0  0  0  0  0  0  0
  141.0510   78.8700  223.0060 C   0  0  0  0  0  0  0  0  0  0  0  0
  141.9350   77.3370  219.5130 C   0  0  0  0  0  0  0  0  0  0  0  0
  142.4500   78.4140  218.6430 C   0  0  0  0  0  0  0  0  0  0  0  0
  140.6336   82.7088  221.5873 H   0  0  0  0  0  0  0  0  0  0  0  0
  139.3881   83.5539  220.6069 H   0  0  0  0  0  0  0  0  0  0  0  0
  139.4657   81.7593  220.6069 H   0  0  0  0  0  0  0  0  0  0  0  0
  140.4562   82.9341  218.5517 H   0  0  0  0  0  0  0  0  0  0  0  0
  141.7596   83.5179  219.6078 H   0  0  0  0  0  0  0  0  0  0  0  0
  143.8386   82.4584  218.5280 H   0  0  0  0  0  0  0  0  0  0  0  0
  145.0181   83.7590  216.7105 H   0  0  0  0  0  0  0  0  0  0  0  0
  144.3618   83.4362  214.3587 H   0  0  0  0  0  0  0  0  0  0  0  0
  142.5550   81.8526  213.7126 H   0  0  0  0  0  0  0  0  0  0  0  0
  141.3908   80.5679  215.5052 H   0  0  0  0  0  0  0  0  0  0  0  0
  141.5141   79.1382  216.9306 H   0  0  0  0  0  0  0  0  0  0  0  0
  140.0246   79.3992  219.5605 H   0  0  0  0  0  0  0  0  0  0  0  0
  139.3841   79.7593  217.9489 H   0  0  0  0  0  0  0  0  0  0  0  0
  138.7403   77.4221  218.3512 H   0  0  0  0  0  0  0  0  0  0  0  0
  140.1286   77.2489  217.3129 H   0  0  0  0  0  0  0  0  0  0  0  0
  140.8563   74.7293  221.1459 H   0  0  0  0  0  0  0  0  0  0  0  0
  138.2920   74.6900  221.7970 H   0  0  0  0  0  0  0  0  0  0  0  0
  139.3350   74.7930  223.2000 H   0  0  0  0  0  0  0  0  0  0  0  0
  141.2632   75.8471  223.3484 H   0  0  0  0  0  0  0  0  0  0  0  0
  142.0100   76.5993  221.8758 H   0  0  0  0  0  0  0  0  0  0  0  0
  138.3230   76.9459  222.5302 H   0  0  0  0  0  0  0  0  0  0  0  0
  140.1434   82.0789  223.7085 H   0  0  0  0  0  0  0  0  0  0  0  0
  142.6417   82.4091  223.8392 H   0  0  0  0  0  0  0  0  0  0  0  0
  144.0640   80.4044  223.4279 H   0  0  0  0  0  0  0  0  0  0  0  0
  143.1302   78.2200  222.9149 H   0  0  0  0  0  0  0  0  0  0  0  0
  142.1526   77.6225  220.5528 H   0  0  0  0  0  0  0  0  0  0  0  0
  142.4392   76.4268  219.1561 H   0  0  0  0  0  0  0  0  0  0  0  0
  143.1386   79.0164  219.2537 H   0  0  0  0  0  0  0  0  0  0  0  0
  142.8834   77.8711  217.7901 H   0  0  0  0  0  0  0  0  0  0  0  0
  1  2  1  0
  2  3  1  0
  3  4  2  0
  3  5  1  0
  5  6  1  0
  6  7  2  0
  7  8  1  0
  8  9  2  0
  9 10  1  0
 10 11  2  0
  5 12  1  0
 12 13  1  0
 13 14  1  0
 14 15  1  0
 15 16  1  0
 16 17  2  0
 16 18  1  0
 18 19  1  0
 18 20  1  0
 20 21  1  0
 21 22  2  0
 22 23  1  0
 23 24  1  0
 24 25  2  0
 25 26  1  0
 26 27  2  0
 27 28  1  0
 28 29  2  0
 15 30  1  0
 30 31  1  0
 11  6  1  0
 31 12  1  0
 29 21  1  0
 29 24  1  0
  1 32  1  0
  1 33  1  0
  1 34  1  0
  2 35  1  0
  2 36  1  0
  7 37  1  0
  8 38  1  0
  9 39  1  0
 10 40  1  0
 11 41  1  0
 12 42  1  0
 13 43  1  0
 13 44  1  0
 14 45  1  0
 14 46  1  0
 18 47  1  6
 19 48  1  0
 19 49  1  0
 20 50  1  0
 20 51  1  0
 22 52  1  0
 25 53  1  0
 26 54  1  0
 27 55  1  0
 28 56  1  0
 30 57  1  0
 30 58  1  0
 31 59  1  0
 31 60  1  0
M  END
>  <smiles>  (34) 
CCC(=O)N(c1ccccc1)C1CCN(C(=O)[C@H](N)Cc2csc3ccccc23)CC1

>  <score_type>  (34) 
oracle

>  <origin>  (34) 
autodockgpu

>  <m_score__min__energy>  (34) 
-9.4100000000000001

>  <m_primary>  (34) 
energy

>  <rmsd>  (34) 
4.068267231611998

>  <m_score__min__rmsd>  (34) 
4.068267231611998

>  <meeko>  (34) 
{"free_energy": -6.7, "intermolecular_energy": -9.08, "internal_energy": -3.33, "cluster_size": 14, "cluster_id": 9, "rank_in_cluster": 5}

>  <energy>  (34) 
-6.28

>  <cluster_rmsd>  (34) 
1.58

>  <cluster>  (34) 
8

$$$$

     RDKit          3D

 60 63  0  0  0  0  0  0  0  0999 V2000
  138.2510   67.8790  222.6700 C   0  0  0  0  0  0  0  0  0  0  0  0
  137.0760   68.8100  222.8050 C   0  0  0  0  0  0  0  0  0  0  0  0
  137.4860   69.8830  223.7710 C   0  0  0  0  0  0  0  0  0  0  0  0
  136.5910   70.2750  224.5640 O   0  0  0  0  0  0  0  0  0  0  0  0
  138.8160   70.4140  223.7700 N   0  0  0  0  0  0  0  0  0  0  0  0
  139.6590   70.3090  224.9150 C   0  0  0  0  0  0  0  0  0  0  0  0
  139.9570   71.5140  225.5490 C   0  0  0  0  0  0  0  0  0  0  0  0
  140.7860   71.4580  226.6760 C   0  0  0  0  0  0  0  0  0  0  0  0
  141.2680   70.2380  227.1080 C   0  0  0  0  0  0  0  0  0  0  0  0
  140.9610   69.0430  226.4640 C   0  0  0  0  0  0  0  0  0  0  0  0
  140.1450   69.0970  225.3560 C   0  0  0  0  0  0  0  0  0  0  0  0
  139.2590   71.0570  222.5380 C   0  0  0  0  0  0  0  0  0  0  0  0
  140.6710   71.5460  222.6330 C   0  0  0  0  0  0  0  0  0  0  0  0
  140.9870   72.1950  221.2730 C   0  0  0  0  0  0  0  0  0  0  0  0
  140.2910   73.5010  221.3920 N   0  0  0  0  0  0  0  0  0  0  0  0
  141.0910   74.6360  221.2190 C   0  0  0  0  0  0  0  0  0  0  0  0
  142.3320   74.4100  220.9650 O   0  0  0  0  0  0  0  0  0  0  0  0
  140.7060   76.0520  221.2890 C   0  0  2  0  0  0  0  0  0  0  0  0
  141.6590   77.0020  220.8440 N   0  0  0  0  0  0  0  0  0  0  0  0
  139.9950   76.3890  222.5790 C   0  0  0  0  0  0  0  0  0  0  0  0
  139.6360   77.8660  222.6590 C   0  0  0  0  0  0  0  0  0  0  0  0
  138.3440   78.2400  222.3080 C   0  0  0  0  0  0  0  0  0  0  0  0
  138.3040   80.0420  222.4680 S   0  0  0  0  0  0  0  0  0  0  0  0
  140.0170   80.1380  222.9920 C   0  0  0  0  0  0  0  0  0  0  0  0
  140.7470   81.2550  223.3260 C   0  0  0  0  0  0  0  0  0  0  0  0
  142.0720   81.1310  223.7200 C   0  0  0  0  0  0  0  0  0  0  0  0
  142.5630   79.8360  223.7460 C   0  0  0  0  0  0  0  0  0  0  0  0
  141.8250   78.7320  223.4110 C   0  0  0  0  0  0  0  0  0  0  0  0
  140.4740   78.8580  223.0070 C   0  0  0  0  0  0  0  0  0  0  0  0
  138.8990   73.4340  221.6770 C   0  0  0  0  0  0  0  0  0  0  0  0
  138.3450   72.1290  222.0920 C   0  0  0  0  0  0  0  0  0  0  0  0
  138.6101   67.5944  223.6700 H   0  0  0  0  0  0  0  0  0  0  0  0
  137.9430   66.9771  222.1207 H   0  0  0  0  0  0  0  0  0  0  0  0
  139.0586   68.3850  222.1207 H   0  0  0  0  0  0  0  0  0  0  0  0
  136.8288   69.2527  221.8288 H   0  0  0  0  0  0  0  0  0  0  0  0
  136.1849   68.2738  223.1634 H   0  0  0  0  0  0  0  0  0  0  0  0
  139.5573   72.4697  225.1791 H   0  0  0  0  0  0  0  0  0  0  0  0
  141.0517   72.3800  227.2139 H   0  0  0  0  0  0  0  0  0  0  0  0
  141.9189   70.2097  227.9943 H   0  0  0  0  0  0  0  0  0  0  0  0
  141.3581   68.0843  226.8290 H   0  0  0  0  0  0  0  0  0  0  0  0
  139.8809   68.1720  224.8225 H   0  0  0  0  0  0  0  0  0  0  0  0
  139.2325   70.2762  221.7636 H   0  0  0  0  0  0  0  0  0  0  0  0
  140.7657   72.2863  223.4411 H   0  0  0  0  0  0  0  0  0  0  0  0
  141.3675   70.7253  222.8597 H   0  0  0  0  0  0  0  0  0  0  0  0
  142.0700   72.3292  221.1350 H   0  0  0  0  0  0  0  0  0  0  0  0
  140.6664   71.5961  220.4078 H   0  0  0  0  0  0  0  0  0  0  0  0
  139.9555   76.1661  220.4929 H   0  0  0  0  0  0  0  0  0  0  0  0
  141.4090   77.6550  220.1150 H   0  0  0  0  0  0  0  0  0  0  0  0
  142.6100   76.6100  220.8450 H   0  0  0  0  0  0  0  0  0  0  0  0
  139.0716   75.7945  222.6421 H   0  0  0  0  0  0  0  0  0  0  0  0
  140.6733   76.1569  223.4133 H   0  0  0  0  0  0  0  0  0  0  0  0
  137.5202   77.5801  221.9985 H   0  0  0  0  0  0  0  0  0  0  0  0
  140.2792   82.2495  223.2807 H   0  0  0  0  0  0  0  0  0  0  0  0
  142.6889   82.0000  223.9925 H   0  0  0  0  0  0  0  0  0  0  0  0
  143.6082   79.6853  224.0541 H   0  0  0  0  0  0  0  0  0  0  0  0
  142.2877   77.7351  223.4564 H   0  0  0  0  0  0  0  0  0  0  0  0
  138.6946   74.1501  222.4866 H   0  0  0  0  0  0  0  0  0  0  0  0
  138.4079   73.6519  220.7171 H   0  0  0  0  0  0  0  0  0  0  0  0
  137.6530   72.3257  222.9242 H   0  0  0  0  0  0  0  0  0  0  0  0
  137.9103   71.7274  221.1648 H   0  0  0  0  0  0  0  0  0  0  0  0
  1  2  1  0
  2  3  1  0
  3  4  2  0
  3  5  1  0
  5  6  1  0
  6  7  2  0
  7  8  1  0
  8  9  2  0
  9 10  1  0
 10 11  2  0
  5 12  1  0
 12 13  1  0
 13 14  1  0
 14 15  1  0
 15 16  1  0
 16 17  2  0
 16 18  1  0
 18 19  1  0
 18 20  1  0
 20 21  1  0
 21 22  2  0
 22 23  1  0
 23 24  1  0
 24 25  2  0
 25 26  1  0
 26 27  2  0
 27 28  1  0
 28 29  2  0
 15 30  1  0
 30 31  1  0
 11  6  1  0
 31 12  1  0
 29 21  1  0
 29 24  1  0
  1 32  1  0
  1 33  1  0
  1 34  1  0
  2 35  1  0
  2 36  1  0
  7 37  1  0
  8 38  1  0
  9 39  1  0
 10 40  1  0
 11 41  1  0
 12 42  1  0
 13 43  1  0
 13 44  1  0
 14 45  1  0
 14 46  1  0
 18 47  1  6
 19 48  1  0
 19 49  1  0
 20 50  1  0
 20 51  1  0
 22 52  1  0
 25 53  1  0
 26 54  1  0
 27 55  1  0
 28 56  1  0
 30 57  1  0
 30 58  1  0
 31 59  1  0
 31 60  1  0
M  END
>  <smiles>  (35) 
CCC(=O)N(c1ccccc1)C1CCN(C(=O)[C@H](N)Cc2csc3ccccc23)CC1

>  <score_type>  (35) 
oracle

>  <origin>  (35) 
autodockgpu

>  <m_score__min__energy>  (35) 
-9.4100000000000001

>  <m_primary>  (35) 
energy

>  <rmsd>  (35) 
6.993697518222446

>  <m_score__min__rmsd>  (35) 
6.993697518222446

>  <meeko>  (35) 
{"free_energy": -7.82, "intermolecular_energy": -10.2, "internal_energy": -2.2, "cluster_size": 9, "cluster_id": 3, "rank_in_cluster": 8}

>  <energy>  (35) 
-6.75

>  <cluster_rmsd>  (35) 
0.0

>  <cluster>  (35) 
9

$$$$

     RDKit          3D

 60 63  0  0  0  0  0  0  0  0999 V2000
  146.6570   73.7500  221.2450 C   0  0  0  0  0  0  0  0  0  0  0  0
  145.5320   72.7490  221.2480 C   0  0  0  0  0  0  0  0  0  0  0  0
  145.3360   72.3170  219.8250 C   0  0  0  0  0  0  0  0  0  0  0  0
  146.0720   72.8830  218.9760 O   0  0  0  0  0  0  0  0  0  0  0  0
  144.3650   71.3220  219.4780 N   0  0  0  0  0  0  0  0  0  0  0  0
  144.7490   69.9810  219.1820 C   0  0  0  0  0  0  0  0  0  0  0  0
  145.4430   69.8100  217.9860 C   0  0  0  0  0  0  0  0  0  0  0  0
  145.8340   68.5060  217.6530 C   0  0  0  0  0  0  0  0  0  0  0  0
  145.5230   67.4640  218.5020 C   0  0  0  0  0  0  0  0  0  0  0  0
  144.8290   67.6510  219.6940 C   0  0  0  0  0  0  0  0  0  0  0  0
  144.4440   68.9320  220.0220 C   0  0  0  0  0  0  0  0  0  0  0  0
  142.9720   71.7540  219.4510 C   0  0  0  0  0  0  0  0  0  0  0  0
  142.6690   72.7480  220.5290 C   0  0  0  0  0  0  0  0  0  0  0  0
  141.1780   73.1000  220.3730 C   0  0  0  0  0  0  0  0  0  0  0  0
  140.5220   71.9120  220.9760 N   0  0  0  0  0  0  0  0  0  0  0  0
  139.6500   72.1710  222.0390 C   0  0  0  0  0  0  0  0  0  0  0  0
  139.5130   73.4100  222.3590 O   0  0  0  0  0  0  0  0  0  0  0  0
  138.8710   71.2190  222.8430 C   0  0  2  0  0  0  0  0  0  0  0  0
  137.8520   71.7560  223.6680 N   0  0  0  0  0  0  0  0  0  0  0  0
  139.7400   70.1580  223.4760 C   0  0  0  0  0  0  0  0  0  0  0  0
  140.2210   70.5720  224.8600 C   0  0  0  0  0  0  0  0  0  0  0  0
  140.7140   71.8620  225.0170 C   0  0  0  0  0  0  0  0  0  0  0  0
  141.2340   71.9720  226.7460 S   0  0  0  0  0  0  0  0  0  0  0  0
  140.7450   70.2840  227.1090 C   0  0  0  0  0  0  0  0  0  0  0  0
  140.8340   69.6070  228.3040 C   0  0  0  0  0  0  0  0  0  0  0  0
  140.3930   68.2950  228.3960 C   0  0  0  0  0  0  0  0  0  0  0  0
  139.8780   67.7590  227.2270 C   0  0  0  0  0  0  0  0  0  0  0  0
  139.7960   68.4450  226.0440 C   0  0  0  0  0  0  0  0  0  0  0  0
  140.2480   69.7830  225.9480 C   0  0  0  0  0  0  0  0  0  0  0  0
  140.8700   70.6590  220.4020 C   0  0  0  0  0  0  0  0  0  0  0  0
  142.0230   70.6220  219.4780 C   0  0  0  0  0  0  0  0  0  0  0  0
  146.9325   73.9951  222.2814 H   0  0  0  0  0  0  0  0  0  0  0  0
  147.5272   73.3221  220.7257 H   0  0  0  0  0  0  0  0  0  0  0  0
  146.3331   74.6640  220.7257 H   0  0  0  0  0  0  0  0  0  0  0  0
  145.7960   71.8838  221.8740 H   0  0  0  0  0  0  0  0  0  0  0  0
  144.6113   73.1895  221.6583 H   0  0  0  0  0  0  0  0  0  0  0  0
  145.6743   70.6627  217.3306 H   0  0  0  0  0  0  0  0  0  0  0  0
  146.3854   68.3146  216.7206 H   0  0  0  0  0  0  0  0  0  0  0  0
  145.8356   66.4460  218.2263 H   0  0  0  0  0  0  0  0  0  0  0  0
  144.5953   66.8021  220.3534 H   0  0  0  0  0  0  0  0  0  0  0  0
  143.8925   69.1180  220.9554 H   0  0  0  0  0  0  0  0  0  0  0  0
  142.8313   72.2623  218.4857 H   0  0  0  0  0  0  0  0  0  0  0  0
  142.8563   72.3072  221.5193 H   0  0  0  0  0  0  0  0  0  0  0  0
  143.3054   73.6412  220.4446 H   0  0  0  0  0  0  0  0  0  0  0  0
  140.9238   74.0194  220.9209 H   0  0  0  0  0  0  0  0  0  0  0  0
  140.8730   73.2990  219.3350 H   0  0  0  0  0  0  0  0  0  0  0  0
  138.2452   70.6933  222.1069 H   0  0  0  0  0  0  0  0  0  0  0  0
  137.0260   71.2070  223.8610 H   0  0  0  0  0  0  0  0  0  0  0  0
  137.7440   72.7690  223.5230 H   0  0  0  0  0  0  0  0  0  0  0  0
  139.1590   69.2281  223.5645 H   0  0  0  0  0  0  0  0  0  0  0  0
  140.6232   70.0133  222.8364 H   0  0  0  0  0  0  0  0  0  0  0  0
  140.7751   72.6496  224.2515 H   0  0  0  0  0  0  0  0  0  0  0  0
  141.2558   70.1074  229.1881 H   0  0  0  0  0  0  0  0  0  0  0  0
  140.4484   67.7201  229.3322 H   0  0  0  0  0  0  0  0  0  0  0  0
  139.5134   66.7214  227.2500 H   0  0  0  0  0  0  0  0  0  0  0  0
  139.3735   67.9497  225.1573 H   0  0  0  0  0  0  0  0  0  0  0  0
  141.0902   69.9686  221.2295 H   0  0  0  0  0  0  0  0  0  0  0  0
  140.0052   70.3900  219.7776 H   0  0  0  0  0  0  0  0  0  0  0  0
  142.6050   69.7229  219.7289 H   0  0  0  0  0  0  0  0  0  0  0  0
  141.5564   70.6532  218.4824 H   0  0  0  0  0  0  0  0  0  0  0  0
  1  2  1  0
  2  3  1  0
  3  4  2  0
  3  5  1  0
  5  6  1  0
  6  7  2  0
  7  8  1  0
  8  9  2  0
  9 10  1  0
 10 11  2  0
  5 12  1  0
 12 13  1  0
 13 14  1  0
 14 15  1  0
 15 16  1  0
 16 17  2  0
 16 18  1  0
 18 19  1  0
 18 20  1  0
 20 21  1  0
 21 22  2  0
 22 23  1  0
 23 24  1  0
 24 25  2  0
 25 26  1  0
 26 27  2  0
 27 28  1  0
 28 29  2  0
 15 30  1  0
 30 31  1  0
 11  6  1  0
 31 12  1  0
 29 21  1  0
 29 24  1  0
  1 32  1  0
  1 33  1  0
  1 34  1  0
  2 35  1  0
  2 36  1  0
  7 37  1  0
  8 38  1  0
  9 39  1  0
 10 40  1  0
 11 41  1  0
 12 42  1  0
 13 43  1  0
 13 44  1  0
 14 45  1  0
 14 46  1  0
 18 47  1  6
 19 48  1  0
 19 49  1  0
 20 50  1  0
 20 51  1  0
 22 52  1  0
 25 53  1  0
 26 54  1  0
 27 55  1  0
 28 56  1  0
 30 57  1  0
 30 58  1  0
 31 59  1  0
 31 60  1  0
M  END
>  <smiles>  (36) 
CCC(=O)N(c1ccccc1)C1CCN(C(=O)[C@H](N)Cc2csc3ccccc23)CC1

>  <score_type>  (36) 
oracle

>  <origin>  (36) 
autodockgpu

>  <m_score__min__energy>  (36) 
-9.4100000000000001

>  <m_primary>  (36) 
energy

>  <rmsd>  (36) 
8.493438608565349

>  <m_score__min__rmsd>  (36) 
8.493438608565349

>  <meeko>  (36) 
{"free_energy": -9.16, "intermolecular_energy": -11.55, "internal_energy": -2.02, "cluster_size": 11, "cluster_id": 1, "rank_in_cluster": 2}

>  <energy>  (36) 
-6.75

>  <cluster_rmsd>  (36) 
0.1

>  <cluster>  (36) 
9

$$$$

     RDKit          3D

 60 63  0  0  0  0  0  0  0  0999 V2000
  145.9840   74.1450  220.8760 C   0  0  0  0  0  0  0  0  0  0  0  0
  145.6630   72.6780  220.9770 C   0  0  0  0  0  0  0  0  0  0  0  0
  145.3010   72.2200  219.5950 C   0  0  0  0  0  0  0  0  0  0  0  0
  145.9680   72.7300  218.6580 O   0  0  0  0  0  0  0  0  0  0  0  0
  144.2560   71.2640  219.3800 N   0  0  0  0  0  0  0  0  0  0  0  0
  144.5460   69.9140  219.0240 C   0  0  0  0  0  0  0  0  0  0  0  0
  144.4990   68.9970  220.0730 C   0  0  0  0  0  0  0  0  0  0  0  0
  144.7830   67.6600  219.7690 C   0  0  0  0  0  0  0  0  0  0  0  0
  145.0930   67.3070  218.4710 C   0  0  0  0  0  0  0  0  0  0  0  0
  145.1370   68.2340  217.4340 C   0  0  0  0  0  0  0  0  0  0  0  0
  144.8570   69.5500  217.7320 C   0  0  0  0  0  0  0  0  0  0  0  0
  142.8890   71.7450  219.5490 C   0  0  0  0  0  0  0  0  0  0  0  0
  142.7290   72.5640  220.7920 C   0  0  0  0  0  0  0  0  0  0  0  0
  141.2490   72.9890  220.8310 C   0  0  0  0  0  0  0  0  0  0  0  0
  140.5890   71.7450  221.2990 N   0  0  0  0  0  0  0  0  0  0  0  0
  139.8250   71.8620  222.4660 C   0  0  0  0  0  0  0  0  0  0  0  0
  139.7780   73.0380  222.9860 O   0  0  0  0  0  0  0  0  0  0  0  0
  139.0710   70.8230  223.1790 C   0  0  2  0  0  0  0  0  0  0  0  0
  138.1740   71.2550  224.1870 N   0  0  0  0  0  0  0  0  0  0  0  0
  139.9300   69.6310  223.5310 C   0  0  0  0  0  0  0  0  0  0  0  0
  139.9600   69.3770  225.0320 C   0  0  0  0  0  0  0  0  0  0  0  0
  139.4380   68.1760  225.4980 C   0  0  0  0  0  0  0  0  0  0  0  0
  139.5900   68.2510  227.2990 S   0  0  0  0  0  0  0  0  0  0  0  0
  140.3380   69.8820  227.2720 C   0  0  0  0  0  0  0  0  0  0  0  0
  140.7650   70.6440  228.3350 C   0  0  0  0  0  0  0  0  0  0  0  0
  141.3330   71.8900  228.1170 C   0  0  0  0  0  0  0  0  0  0  0  0
  141.4260   72.2750  226.7890 C   0  0  0  0  0  0  0  0  0  0  0  0
  140.9970   71.5060  225.7400 C   0  0  0  0  0  0  0  0  0  0  0  0
  140.4150   70.2340  225.9620 C   0  0  0  0  0  0  0  0  0  0  0  0
  140.8240   70.5880  220.5070 C   0  0  0  0  0  0  0  0  0  0  0  0
  141.8900   70.6570  219.4860 C   0  0  0  0  0  0  0  0  0  0  0  0
  146.0771   74.5704  221.8862 H   0  0  0  0  0  0  0  0  0  0  0  0
  146.9321   74.2764  220.3340 H   0  0  0  0  0  0  0  0  0  0  0  0
  145.1774   74.6604  220.3340 H   0  0  0  0  0  0  0  0  0  0  0  0
  146.5390   72.1225  221.3432 H   0  0  0  0  0  0  0  0  0  0  0  0
  144.8370   72.5012  221.6816 H   0  0  0  0  0  0  0  0  0  0  0  0
  144.2491   69.3108  221.0972 H   0  0  0  0  0  0  0  0  0  0  0  0
  144.7592   66.8956  220.5597 H   0  0  0  0  0  0  0  0  0  0  0  0
  145.3137   66.2527  218.2478 H   0  0  0  0  0  0  0  0  0  0  0  0
  145.3875   67.9258  216.4082 H   0  0  0  0  0  0  0  0  0  0  0  0
  144.8818   70.3106  216.9377 H   0  0  0  0  0  0  0  0  0  0  0  0
  142.6922   72.4063  218.6923 H   0  0  0  0  0  0  0  0  0  0  0  0
  142.9782   71.9643  221.6799 H   0  0  0  0  0  0  0  0  0  0  0  0
  143.3993   73.4362  220.7897 H   0  0  0  0  0  0  0  0  0  0  0  0
  141.0885   73.8175  221.5365 H   0  0  0  0  0  0  0  0  0  0  0  0
  140.8668   73.3617  219.8692 H   0  0  0  0  0  0  0  0  0  0  0  0
  138.3446   70.4613  222.4364 H   0  0  0  0  0  0  0  0  0  0  0  0
  138.1200   72.2380  224.4200 H   0  0  0  0  0  0  0  0  0  0  0  0
  138.1050   70.5680  224.9500 H   0  0  0  0  0  0  0  0  0  0  0  0
  139.5260   68.7403  223.0275 H   0  0  0  0  0  0  0  0  0  0  0  0
  140.9577   69.8414  223.2000 H   0  0  0  0  0  0  0  0  0  0  0  0
  139.0207   67.3537  224.8983 H   0  0  0  0  0  0  0  0  0  0  0  0
  140.6554   70.2635  229.3613 H   0  0  0  0  0  0  0  0  0  0  0  0
  141.6852   72.5283  228.9407 H   0  0  0  0  0  0  0  0  0  0  0  0
  141.8704   73.2558  226.5642 H   0  0  0  0  0  0  0  0  0  0  0  0
  141.1059   71.8812  224.7117 H   0  0  0  0  0  0  0  0  0  0  0  0
  141.0795   69.7671  221.1931 H   0  0  0  0  0  0  0  0  0  0  0  0
  139.8967   70.4536  219.9308 H   0  0  0  0  0  0  0  0  0  0  0  0
  142.4455   69.7091  219.5389 H   0  0  0  0  0  0  0  0  0  0  0  0
  141.3425   70.8626  218.5544 H   0  0  0  0  0  0  0  0  0  0  0  0
  1  2  1  0
  2  3  1  0
  3  4  2  0
  3  5  1  0
  5  6  1  0
  6  7  2  0
  7  8  1  0
  8  9  2  0
  9 10  1  0
 10 11  2  0
  5 12  1  0
 12 13  1  0
 13 14  1  0
 14 15  1  0
 15 16  1  0
 16 17  2  0
 16 18  1  0
 18 19  1  0
 18 20  1  0
 20 21  1  0
 21 22  2  0
 22 23  1  0
 23 24  1  0
 24 25  2  0
 25 26  1  0
 26 27  2  0
 27 28  1  0
 28 29  2  0
 15 30  1  0
 30 31  1  0
 11  6  1  0
 31 12  1  0
 29 21  1  0
 29 24  1  0
  1 32  1  0
  1 33  1  0
  1 34  1  0
  2 35  1  0
  2 36  1  0
  7 37  1  0
  8 38  1  0
  9 39  1  0
 10 40  1  0
 11 41  1  0
 12 42  1  0
 13 43  1  0
 13 44  1  0
 14 45  1  0
 14 46  1  0
 18 47  1  6
 19 48  1  0
 19 49  1  0
 20 50  1  0
 20 51  1  0
 22 52  1  0
 25 53  1  0
 26 54  1  0
 27 55  1  0
 28 56  1  0
 30 57  1  0
 30 58  1  0
 31 59  1  0
 31 60  1  0
M  END
>  <smiles>  (37) 
CCC(=O)N(c1ccccc1)C1CCN(C(=O)[C@H](N)Cc2csc3ccccc23)CC1

>  <score_type>  (37) 
oracle

>  <origin>  (37) 
autodockgpu

>  <m_score__min__energy>  (37) 
-9.4100000000000001

>  <m_primary>  (37) 
energy

>  <rmsd>  (37) 
8.93260991152084

>  <m_score__min__rmsd>  (37) 
8.93260991152084

>  <meeko>  (37) 
{"free_energy": -8.72, "intermolecular_energy": -11.11, "internal_energy": -2.06, "cluster_size": 11, "cluster_id": 1, "rank_in_cluster": 5}

>  <energy>  (37) 
-6.72

>  <cluster_rmsd>  (37) 
0.12

>  <cluster>  (37) 
9

$$$$

     RDKit          3D

 60 63  0  0  0  0  0  0  0  0999 V2000
  139.3200   82.1460  220.6230 C   0  0  0  0  0  0  0  0  0  0  0  0
  140.1680   82.4600  219.4190 C   0  0  0  0  0  0  0  0  0  0  0  0
  141.2920   81.4670  219.4150 C   0  0  0  0  0  0  0  0  0  0  0  0
  141.8130   81.2250  220.5350 O   0  0  0  0  0  0  0  0  0  0  0  0
  141.7310   80.8470  218.2000 N   0  0  0  0  0  0  0  0  0  0  0  0
  142.4260   81.5860  217.1980 C   0  0  0  0  0  0  0  0  0  0  0  0
  141.7470   81.7380  215.9900 C   0  0  0  0  0  0  0  0  0  0  0  0
  142.3980   82.4530  214.9750 C   0  0  0  0  0  0  0  0  0  0  0  0
  143.6570   82.9680  215.2040 C   0  0  0  0  0  0  0  0  0  0  0  0
  144.3220   82.8080  216.4160 C   0  0  0  0  0  0  0  0  0  0  0  0
  143.6840   82.1060  217.4150 C   0  0  0  0  0  0  0  0  0  0  0  0
  141.4330   79.4270  218.0490 C   0  0  0  0  0  0  0  0  0  0  0  0
  140.0170   79.1060  218.4140 C   0  0  0  0  0  0  0  0  0  0  0  0
  139.8620   77.5870  218.2090 C   0  0  0  0  0  0  0  0  0  0  0  0
  140.5300   77.0490  219.4200 N   0  0  0  0  0  0  0  0  0  0  0  0
  139.7490   76.2120  220.2260 C   0  0  0  0  0  0  0  0  0  0  0  0
  138.5490   76.0020  219.8130 O   0  0  0  0  0  0  0  0  0  0  0  0
  140.1140   75.5430  221.4820 C   0  0  2  0  0  0  0  0  0  0  0  0
  139.0820   74.8590  222.1700 N   0  0  0  0  0  0  0  0  0  0  0  0
  141.0270   76.3900  222.3380 C   0  0  0  0  0  0  0  0  0  0  0  0
  140.3850   77.7190  222.7070 C   0  0  0  0  0  0  0  0  0  0  0  0
  138.9970   77.7910  222.7110 C   0  0  0  0  0  0  0  0  0  0  0  0
  138.6040   79.5060  223.1330 S   0  0  0  0  0  0  0  0  0  0  0  0
  140.3300   79.9780  223.2670 C   0  0  0  0  0  0  0  0  0  0  0  0
  140.8570   81.2080  223.5850 C   0  0  0  0  0  0  0  0  0  0  0  0
  142.2320   81.3820  223.6510 C   0  0  0  0  0  0  0  0  0  0  0  0
  142.9860   80.2520  223.3800 C   0  0  0  0  0  0  0  0  0  0  0  0
  142.4480   79.0330  223.0650 C   0  0  0  0  0  0  0  0  0  0  0  0
  141.0450   78.8540  222.9960 C   0  0  0  0  0  0  0  0  0  0  0  0
  141.8780   77.4580  219.6120 C   0  0  0  0  0  0  0  0  0  0  0  0
  142.3880   78.5640  218.7760 C   0  0  0  0  0  0  0  0  0  0  0  0
  139.8912   82.3575  221.5390 H   0  0  0  0  0  0  0  0  0  0  0  0
  138.4128   82.7678  220.6048 H   0  0  0  0  0  0  0  0  0  0  0  0
  139.0366   81.0833  220.6048 H   0  0  0  0  0  0  0  0  0  0  0  0
  139.5723   82.3625  218.4995 H   0  0  0  0  0  0  0  0  0  0  0  0
  140.5498   83.4908  219.4609 H   0  0  0  0  0  0  0  0  0  0  0  0
  140.7429   81.3148  215.8396 H   0  0  0  0  0  0  0  0  0  0  0  0
  141.9077   82.6025  214.0017 H   0  0  0  0  0  0  0  0  0  0  0  0
  144.1545   83.5267  214.3976 H   0  0  0  0  0  0  0  0  0  0  0  0
  145.3262   83.2291  216.5715 H   0  0  0  0  0  0  0  0  0  0  0  0
  144.1788   81.9603  218.3865 H   0  0  0  0  0  0  0  0  0  0  0  0
  141.5548   79.2035  216.9788 H   0  0  0  0  0  0  0  0  0  0  0  0
  139.8226   79.3722  219.4634 H   0  0  0  0  0  0  0  0  0  0  0  0
  139.3029   79.6716  217.7975 H   0  0  0  0  0  0  0  0  0  0  0  0
  138.8025   77.2936  218.1720 H   0  0  0  0  0  0  0  0  0  0  0  0
  140.2878   77.2187  217.2640 H   0  0  0  0  0  0  0  0  0  0  0  0
  140.7175   74.6805  221.1628 H   0  0  0  0  0  0  0  0  0  0  0  0
  139.3180   74.1050  222.8020 H   0  0  0  0  0  0  0  0  0  0  0  0
  138.2400   74.7630  221.5880 H   0  0  0  0  0  0  0  0  0  0  0  0
  141.2613   75.8395  223.2611 H   0  0  0  0  0  0  0  0  0  0  0  0
  141.9390   76.6002  221.7601 H   0  0  0  0  0  0  0  0  0  0  0  0
  138.2872   76.9771  222.5018 H   0  0  0  0  0  0  0  0  0  0  0  0
  140.1865   82.0562  223.7876 H   0  0  0  0  0  0  0  0  0  0  0  0
  142.6913   82.3498  223.9011 H   0  0  0  0  0  0  0  0  0  0  0  0
  144.0818   80.3392  223.4203 H   0  0  0  0  0  0  0  0  0  0  0  0
  143.1144   78.1815  222.8629 H   0  0  0  0  0  0  0  0  0  0  0  0
  141.9807   77.7667  220.6628 H   0  0  0  0  0  0  0  0  0  0  0  0
  142.4774   76.5855  219.3129 H   0  0  0  0  0  0  0  0  0  0  0  0
  142.9737   79.2204  219.4363 H   0  0  0  0  0  0  0  0  0  0  0  0
  142.9348   78.0493  217.9722 H   0  0  0  0  0  0  0  0  0  0  0  0
  1  2  1  0
  2  3  1  0
  3  4  2  0
  3  5  1  0
  5  6  1  0
  6  7  2  0
  7  8  1  0
  8  9  2  0
  9 10  1  0
 10 11  2  0
  5 12  1  0
 12 13  1  0
 13 14  1  0
 14 15  1  0
 15 16  1  0
 16 17  2  0
 16 18  1  0
 18 19  1  0
 18 20  1  0
 20 21  1  0
 21 22  2  0
 22 23  1  0
 23 24  1  0
 24 25  2  0
 25 26  1  0
 26 27  2  0
 27 28  1  0
 28 29  2  0
 15 30  1  0
 30 31  1  0
 11  6  1  0
 31 12  1  0
 29 21  1  0
 29 24  1  0
  1 32  1  0
  1 33  1  0
  1 34  1  0
  2 35  1  0
  2 36  1  0
  7 37  1  0
  8 38  1  0
  9 39  1  0
 10 40  1  0
 11 41  1  0
 12 42  1  0
 13 43  1  0
 13 44  1  0
 14 45  1  0
 14 46  1  0
 18 47  1  6
 19 48  1  0
 19 49  1  0
 20 50  1  0
 20 51  1  0
 22 52  1  0
 25 53  1  0
 26 54  1  0
 27 55  1  0
 28 56  1  0
 30 57  1  0
 30 58  1  0
 31 59  1  0
 31 60  1  0
M  END
>  <smiles>  (38) 
CCC(=O)N(c1ccccc1)C1CCN(C(=O)[C@H](N)Cc2csc3ccccc23)CC1

>  <score_type>  (38) 
oracle

>  <origin>  (38) 
autodockgpu

>  <m_score__min__energy>  (38) 
-9.4100000000000001

>  <m_primary>  (38) 
energy

>  <rmsd>  (38) 
4.040136594818583

>  <m_score__min__rmsd>  (38) 
4.040136594818583

>  <meeko>  (38) 
{"free_energy": -6.32, "intermolecular_energy": -8.7, "internal_energy": -3.51, "cluster_size": 14, "cluster_id": 9, "rank_in_cluster": 14}

>  <energy>  (38) 
-6.7

>  <cluster_rmsd>  (38) 
0.17

>  <cluster>  (38) 
9

$$$$

     RDKit          3D

 60 63  0  0  0  0  0  0  0  0999 V2000
  137.3210   85.0250  222.5950 C   0  0  0  0  0  0  0  0  0  0  0  0
  137.0900   83.8640  221.6640 C   0  0  0  0  0  0  0  0  0  0  0  0
  137.7490   82.6720  222.2920 C   0  0  0  0  0  0  0  0  0  0  0  0
  138.9870   82.5620  222.0910 O   0  0  0  0  0  0  0  0  0  0  0  0
  136.9970   81.7290  223.0650 N   0  0  0  0  0  0  0  0  0  0  0  0
  136.5350   82.0450  224.3770 C   0  0  0  0  0  0  0  0  0  0  0  0
  137.3980   81.6950  225.4140 C   0  0  0  0  0  0  0  0  0  0  0  0
  136.9800   81.9820  226.7200 C   0  0  0  0  0  0  0  0  0  0  0  0
  135.7570   82.5880  226.9260 C   0  0  0  0  0  0  0  0  0  0  0  0
  134.9060   82.9320  225.8800 C   0  0  0  0  0  0  0  0  0  0  0  0
  135.3160   82.6500  224.5950 C   0  0  0  0  0  0  0  0  0  0  0  0
  136.7270   80.4400  222.4380 C   0  0  0  0  0  0  0  0  0  0  0  0
  136.6280   79.3340  223.4410 C   0  0  0  0  0  0  0  0  0  0  0  0
  136.3480   78.0530  222.6340 C   0  0  0  0  0  0  0  0  0  0  0  0
  137.6920   77.7390  222.0900 N   0  0  0  0  0  0  0  0  0  0  0  0
  138.1970   76.4720  222.4060 C   0  0  0  0  0  0  0  0  0  0  0  0
  137.4280   75.7280  223.1210 O   0  0  0  0  0  0  0  0  0  0  0  0
  139.4870   75.8760  222.0330 C   0  0  2  0  0  0  0  0  0  0  0  0
  139.5780   74.4630  222.0670 N   0  0  0  0  0  0  0  0  0  0  0  0
  140.6570   76.6250  222.6290 C   0  0  0  0  0  0  0  0  0  0  0  0
  141.0600   77.8180  221.7730 C   0  0  0  0  0  0  0  0  0  0  0  0
  141.2630   77.6040  220.4150 C   0  0  0  0  0  0  0  0  0  0  0  0
  141.7770   79.2050  219.7470 S   0  0  0  0  0  0  0  0  0  0  0  0
  141.6740   80.0210  221.3420 C   0  0  0  0  0  0  0  0  0  0  0  0
  141.9290   81.3380  221.6450 C   0  0  0  0  0  0  0  0  0  0  0  0
  141.7850   81.7950  222.9470 C   0  0  0  0  0  0  0  0  0  0  0  0
  141.3800   80.8420  223.8670 C   0  0  0  0  0  0  0  0  0  0  0  0
  141.1290   79.5330  223.5520 C   0  0  0  0  0  0  0  0  0  0  0  0
  141.2770   79.0660  222.2230 C   0  0  0  0  0  0  0  0  0  0  0  0
  138.3030   78.7690  221.3220 C   0  0  0  0  0  0  0  0  0  0  0  0
  137.6930   80.1130  221.3670 C   0  0  0  0  0  0  0  0  0  0  0  0
  137.2521   84.6789  223.6369 H   0  0  0  0  0  0  0  0  0  0  0  0
  138.3207   85.4468  222.4141 H   0  0  0  0  0  0  0  0  0  0  0  0
  136.5589   85.7973  222.4141 H   0  0  0  0  0  0  0  0  0  0  0  0
  136.0117   83.6823  221.5446 H   0  0  0  0  0  0  0  0  0  0  0  0
  137.5064   84.0672  220.6664 H   0  0  0  0  0  0  0  0  0  0  0  0
  138.3669   81.2135  225.2153 H   0  0  0  0  0  0  0  0  0  0  0  0
  137.6222   81.7261  227.5756 H   0  0  0  0  0  0  0  0  0  0  0  0
  135.4428   82.8075  227.9571 H   0  0  0  0  0  0  0  0  0  0  0  0
  133.9363   83.4140  226.0730 H   0  0  0  0  0  0  0  0  0  0  0  0
  134.6700   82.9079  223.7428 H   0  0  0  0  0  0  0  0  0  0  0  0
  135.7419   80.5376  221.9583 H   0  0  0  0  0  0  0  0  0  0  0  0
  137.5721   79.2367  223.9971 H   0  0  0  0  0  0  0  0  0  0  0  0
  135.8342   79.5278  224.1774 H   0  0  0  0  0  0  0  0  0  0  0  0
  135.9787   77.2441  223.2815 H   0  0  0  0  0  0  0  0  0  0  0  0
  135.5716   78.1718  221.8638 H   0  0  0  0  0  0  0  0  0  0  0  0
  139.5514   76.0320  220.9460 H   0  0  0  0  0  0  0  0  0  0  0  0
  139.8080   73.9570  221.2230 H   0  0  0  0  0  0  0  0  0  0  0  0
  138.8820   74.0560  222.7060 H   0  0  0  0  0  0  0  0  0  0  0  0
  140.3772   76.9837  223.6305 H   0  0  0  0  0  0  0  0  0  0  0  0
  141.5133   75.9364  222.6806 H   0  0  0  0  0  0  0  0  0  0  0  0
  141.1377   76.6608  219.8630 H   0  0  0  0  0  0  0  0  0  0  0  0
  142.2481   82.0311  220.8527 H   0  0  0  0  0  0  0  0  0  0  0  0
  141.9788   82.8405  223.2288 H   0  0  0  0  0  0  0  0  0  0  0  0
  141.2523   81.1554  224.9136 H   0  0  0  0  0  0  0  0  0  0  0  0
  140.8087   78.8361  224.3405 H   0  0  0  0  0  0  0  0  0  0  0  0
  139.3412   78.8676  221.6718 H   0  0  0  0  0  0  0  0  0  0  0  0
  138.1839   78.4447  220.2777 H   0  0  0  0  0  0  0  0  0  0  0  0
  138.5180   80.8360  221.4489 H   0  0  0  0  0  0  0  0  0  0  0  0
  137.0850   80.1509  220.4511 H   0  0  0  0  0  0  0  0  0  0  0  0
  1  2  1  0
  2  3  1  0
  3  4  2  0
  3  5  1  0
  5  6  1  0
  6  7  2  0
  7  8  1  0
  8  9  2  0
  9 10  1  0
 10 11  2  0
  5 12  1  0
 12 13  1  0
 13 14  1  0
 14 15  1  0
 15 16  1  0
 16 17  2  0
 16 18  1  0
 18 19  1  0
 18 20  1  0
 20 21  1  0
 21 22  2  0
 22 23  1  0
 23 24  1  0
 24 25  2  0
 25 26  1  0
 26 27  2  0
 27 28  1  0
 28 29  2  0
 15 30  1  0
 30 31  1  0
 11  6  1  0
 31 12  1  0
 29 21  1  0
 29 24  1  0
  1 32  1  0
  1 33  1  0
  1 34  1  0
  2 35  1  0
  2 36  1  0
  7 37  1  0
  8 38  1  0
  9 39  1  0
 10 40  1  0
 11 41  1  0
 12 42  1  0
 13 43  1  0
 13 44  1  0
 14 45  1  0
 14 46  1  0
 18 47  1  6
 19 48  1  0
 19 49  1  0
 20 50  1  0
 20 51  1  0
 22 52  1  0
 25 53  1  0
 26 54  1  0
 27 55  1  0
 28 56  1  0
 30 57  1  0
 30 58  1  0
 31 59  1  0
 31 60  1  0
M  END
>  <smiles>  (39) 
CCC(=O)N(c1ccccc1)C1CCN(C(=O)[C@H](N)Cc2csc3ccccc23)CC1

>  <score_type>  (39) 
oracle

>  <origin>  (39) 
autodockgpu

>  <m_score__min__energy>  (39) 
-9.4100000000000001

>  <m_primary>  (39) 
energy

>  <rmsd>  (39) 
4.42154820656073

>  <m_score__min__rmsd>  (39) 
4.42154820656073

>  <meeko>  (39) 
{"free_energy": -6.13, "intermolecular_energy": -8.52, "internal_energy": -3.27, "cluster_size": 1, "cluster_id": 11, "rank_in_cluster": 1}

>  <energy>  (39) 
-6.7

>  <cluster_rmsd>  (39) 
0.18

>  <cluster>  (39) 
9

$$$$

     RDKit          3D

 60 63  0  0  0  0  0  0  0  0999 V2000
  135.3360   69.9790  225.0660 C   0  0  0  0  0  0  0  0  0  0  0  0
  136.2920   70.8050  224.2450 C   0  0  0  0  0  0  0  0  0  0  0  0
  137.4760   69.9310  223.9550 C   0  0  0  0  0  0  0  0  0  0  0  0
  137.2150   68.7300  223.6830 O   0  0  0  0  0  0  0  0  0  0  0  0
  138.8100   70.4510  223.9930 N   0  0  0  0  0  0  0  0  0  0  0  0
  139.6010   70.3780  225.1770 C   0  0  0  0  0  0  0  0  0  0  0  0
  139.9100   69.0900  225.6110 C   0  0  0  0  0  0  0  0  0  0  0  0
  140.6820   68.9740  226.7740 C   0  0  0  0  0  0  0  0  0  0  0  0
  141.0980   70.1120  227.4330 C   0  0  0  0  0  0  0  0  0  0  0  0
  140.7820   71.3920  226.9880 C   0  0  0  0  0  0  0  0  0  0  0  0
  140.0230   71.5090  225.8440 C   0  0  0  0  0  0  0  0  0  0  0  0
  139.3110   71.0490  222.7610 C   0  0  0  0  0  0  0  0  0  0  0  0
  140.6960   71.5950  222.9220 C   0  0  0  0  0  0  0  0  0  0  0  0
  141.0780   72.1890  221.5530 C   0  0  0  0  0  0  0  0  0  0  0  0
  140.3320   73.4720  221.5610 N   0  0  0  0  0  0  0  0  0  0  0  0
  141.1020   74.6260  221.3810 C   0  0  0  0  0  0  0  0  0  0  0  0
  142.3650   74.4340  221.2190 O   0  0  0  0  0  0  0  0  0  0  0  0
  140.6660   76.0290  221.3540 C   0  0  2  0  0  0  0  0  0  0  0  0
  141.5880   76.9810  220.8550 N   0  0  0  0  0  0  0  0  0  0  0  0
  139.9310   76.4240  222.6140 C   0  0  0  0  0  0  0  0  0  0  0  0
  139.6180   77.9130  222.6440 C   0  0  0  0  0  0  0  0  0  0  0  0
  138.3570   78.3210  222.2270 C   0  0  0  0  0  0  0  0  0  0  0  0
  138.3700   80.1260  222.3440 S   0  0  0  0  0  0  0  0  0  0  0  0
  140.0620   80.1780  222.9420 C   0  0  0  0  0  0  0  0  0  0  0  0
  140.8140   81.2790  223.2820 C   0  0  0  0  0  0  0  0  0  0  0  0
  142.1140   81.1220  223.7380 C   0  0  0  0  0  0  0  0  0  0  0  0
  142.5610   79.8120  223.8150 C   0  0  0  0  0  0  0  0  0  0  0  0
  141.8010   78.7250  223.4730 C   0  0  0  0  0  0  0  0  0  0  0  0
  140.4740   78.8850  223.0060 C   0  0  0  0  0  0  0  0  0  0  0  0
  138.9280   73.3660  221.7590 C   0  0  0  0  0  0  0  0  0  0  0  0
  138.3920   72.0640  222.2040 C   0  0  0  0  0  0  0  0  0  0  0  0
  135.5310   70.1474  226.1354 H   0  0  0  0  0  0  0  0  0  0  0  0
  134.3024   70.2729  224.8310 H   0  0  0  0  0  0  0  0  0  0  0  0
  135.4767   68.9137  224.8310 H   0  0  0  0  0  0  0  0  0  0  0  0
  135.8126   71.1181  223.3058 H   0  0  0  0  0  0  0  0  0  0  0  0
  136.5940   71.7146  224.7849 H   0  0  0  0  0  0  0  0  0  0  0  0
  139.5622   68.2018  225.0631 H   0  0  0  0  0  0  0  0  0  0  0  0
  140.9550   67.9807  227.1597 H   0  0  0  0  0  0  0  0  0  0  0  0
  141.7028   70.0036  228.3454 H   0  0  0  0  0  0  0  0  0  0  0  0
  141.1275   72.2830  227.5328 H   0  0  0  0  0  0  0  0  0  0  0  0
  139.7535   72.5049  225.4625 H   0  0  0  0  0  0  0  0  0  0  0  0
  139.3625   70.2313  222.0270 H   0  0  0  0  0  0  0  0  0  0  0  0
  140.7115   72.3766  223.6959 H   0  0  0  0  0  0  0  0  0  0  0  0
  141.4041   70.8135  223.2347 H   0  0  0  0  0  0  0  0  0  0  0  0
  142.1625   72.3566  221.4775 H   0  0  0  0  0  0  0  0  0  0  0  0
  140.8351   71.5373  220.7008 H   0  0  0  0  0  0  0  0  0  0  0  0
  139.9201   76.0632  220.5462 H   0  0  0  0  0  0  0  0  0  0  0  0
  141.3360   77.5490  220.0570 H   0  0  0  0  0  0  0  0  0  0  0  0
  142.5560   76.6410  220.9260 H   0  0  0  0  0  0  0  0  0  0  0  0
  138.9875   75.8609  222.6669 H   0  0  0  0  0  0  0  0  0  0  0  0
  140.5782   76.1939  223.4731 H   0  0  0  0  0  0  0  0  0  0  0  0
  137.5259   77.6812  221.8956 H   0  0  0  0  0  0  0  0  0  0  0  0
  140.3825   82.2868  223.1918 H   0  0  0  0  0  0  0  0  0  0  0  0
  142.7464   81.9771  224.0190 H   0  0  0  0  0  0  0  0  0  0  0  0
  143.5864   79.6351  224.1717 H   0  0  0  0  0  0  0  0  0  0  0  0
  142.2271   77.7148  223.5623 H   0  0  0  0  0  0  0  0  0  0  0  0
  138.6460   74.1129  222.5158 H   0  0  0  0  0  0  0  0  0  0  0  0
  138.4950   73.5168  220.7591 H   0  0  0  0  0  0  0  0  0  0  0  0
  137.6414   72.2756  222.9797 H   0  0  0  0  0  0  0  0  0  0  0  0
  138.0315   71.6020  221.2731 H   0  0  0  0  0  0  0  0  0  0  0  0
  1  2  1  0
  2  3  1  0
  3  4  2  0
  3  5  1  0
  5  6  1  0
  6  7  2  0
  7  8  1  0
  8  9  2  0
  9 10  1  0
 10 11  2  0
  5 12  1  0
 12 13  1  0
 13 14  1  0
 14 15  1  0
 15 16  1  0
 16 17  2  0
 16 18  1  0
 18 19  1  0
 18 20  1  0
 20 21  1  0
 21 22  2  0
 22 23  1  0
 23 24  1  0
 24 25  2  0
 25 26  1  0
 26 27  2  0
 27 28  1  0
 28 29  2  0
 15 30  1  0
 30 31  1  0
 11  6  1  0
 31 12  1  0
 29 21  1  0
 29 24  1  0
  1 32  1  0
  1 33  1  0
  1 34  1  0
  2 35  1  0
  2 36  1  0
  7 37  1  0
  8 38  1  0
  9 39  1  0
 10 40  1  0
 11 41  1  0
 12 42  1  0
 13 43  1  0
 13 44  1  0
 14 45  1  0
 14 46  1  0
 18 47  1  6
 19 48  1  0
 19 49  1  0
 20 50  1  0
 20 51  1  0
 22 52  1  0
 25 53  1  0
 26 54  1  0
 27 55  1  0
 28 56  1  0
 30 57  1  0
 30 58  1  0
 31 59  1  0
 31 60  1  0
M  END
>  <smiles>  (40) 
CCC(=O)N(c1ccccc1)C1CCN(C(=O)[C@H](N)Cc2csc3ccccc23)CC1

>  <score_type>  (40) 
oracle

>  <origin>  (40) 
autodockgpu

>  <m_score__min__energy>  (40) 
-9.4100000000000001

>  <m_primary>  (40) 
energy

>  <rmsd>  (40) 
7.021913755162768

>  <m_score__min__rmsd>  (40) 
7.021913755162768

>  <meeko>  (40) 
{"free_energy": -8.07, "intermolecular_energy": -10.46, "internal_energy": -2.09, "cluster_size": 9, "cluster_id": 3, "rank_in_cluster": 2}

>  <energy>  (40) 
-6.66

>  <cluster_rmsd>  (40) 
0.11

>  <cluster>  (40) 
9

$$$$

     RDKit          3D

 60 63  0  0  0  0  0  0  0  0999 V2000
  140.4190   72.2200  221.9930 C   0  0  0  0  0  0  0  0  0  0  0  0
  140.5760   72.9280  220.6740 C   0  0  0  0  0  0  0  0  0  0  0  0
  141.4170   74.1430  220.9340 C   0  0  0  0  0  0  0  0  0  0  0  0
  141.0720   74.8440  221.9210 O   0  0  0  0  0  0  0  0  0  0  0  0
  142.5340   74.4660  220.0980 N   0  0  0  0  0  0  0  0  0  0  0  0
  143.7670   73.7550  220.1980 C   0  0  0  0  0  0  0  0  0  0  0  0
  144.8010   74.4400  220.8340 C   0  0  0  0  0  0  0  0  0  0  0  0
  146.0310   73.7790  220.9490 C   0  0  0  0  0  0  0  0  0  0  0  0
  146.1710   72.5050  220.4380 C   0  0  0  0  0  0  0  0  0  0  0  0
  145.1290   71.8340  219.8060 C   0  0  0  0  0  0  0  0  0  0  0  0
  143.9180   72.4810  219.6920 C   0  0  0  0  0  0  0  0  0  0  0  0
  142.3400   75.5500  219.1430 C   0  0  0  0  0  0  0  0  0  0  0  0
  142.8980   76.8470  219.6400 C   0  0  0  0  0  0  0  0  0  0  0  0
  142.6160   77.8810  218.5340 C   0  0  0  0  0  0  0  0  0  0  0  0
  141.1740   78.1650  218.7470 N   0  0  0  0  0  0  0  0  0  0  0  0
  140.8440   79.5050  218.9760 C   0  0  0  0  0  0  0  0  0  0  0  0
  141.8300   80.3320  218.9640 O   0  0  0  0  0  0  0  0  0  0  0  0
  139.5240   80.0960  219.2320 C   0  0  2  0  0  0  0  0  0  0  0  0
  139.4180   81.5060  219.1290 N   0  0  0  0  0  0  0  0  0  0  0  0
  138.8370   79.4710  220.4240 C   0  0  0  0  0  0  0  0  0  0  0  0
  139.8360   79.0000  221.4710 C   0  0  0  0  0  0  0  0  0  0  0  0
  139.8510   77.6490  221.7930 C   0  0  0  0  0  0  0  0  0  0  0  0
  141.1020   77.4760  223.0890 S   0  0  0  0  0  0  0  0  0  0  0  0
  141.4970   79.2260  223.0860 C   0  0  0  0  0  0  0  0  0  0  0  0
  142.4230   79.8940  223.8530 C   0  0  0  0  0  0  0  0  0  0  0  0
  142.5970   81.2620  223.7030 C   0  0  0  0  0  0  0  0  0  0  0  0
  141.7880   81.8610  222.7520 C   0  0  0  0  0  0  0  0  0  0  0  0
  140.8700   81.1840  221.9940 C   0  0  0  0  0  0  0  0  0  0  0  0
  140.6900   79.7880  222.1470 C   0  0  0  0  0  0  0  0  0  0  0  0
  140.3110   77.0360  218.6990 C   0  0  0  0  0  0  0  0  0  0  0  0
  140.9310   75.6950  218.7220 C   0  0  0  0  0  0  0  0  0  0  0  0
  140.5775   72.9348  222.8140 H   0  0  0  0  0  0  0  0  0  0  0  0
  139.4055   71.7984  222.0645 H   0  0  0  0  0  0  0  0  0  0  0  0
  141.1592   71.4095  222.0645 H   0  0  0  0  0  0  0  0  0  0  0  0
  141.0752   72.2699  219.9476 H   0  0  0  0  0  0  0  0  0  0  0  0
  139.5975   73.2064  220.2555 H   0  0  0  0  0  0  0  0  0  0  0  0
  144.6574   75.4566  221.2289 H   0  0  0  0  0  0  0  0  0  0  0  0
  146.8802   74.2729  221.4439 H   0  0  0  0  0  0  0  0  0  0  0  0
  147.1438   72.0005  220.5340 H   0  0  0  0  0  0  0  0  0  0  0  0
  145.2678   70.8175  219.4092 H   0  0  0  0  0  0  0  0  0  0  0  0
  143.0718   71.9816  219.1975 H   0  0  0  0  0  0  0  0  0  0  0  0
  142.9115   75.2679  218.2464 H   0  0  0  0  0  0  0  0  0  0  0  0
  142.4016   77.1432  220.5759 H   0  0  0  0  0  0  0  0  0  0  0  0
  143.9743   76.7677  219.8530 H   0  0  0  0  0  0  0  0  0  0  0  0
  143.2267   78.7863  218.6664 H   0  0  0  0  0  0  0  0  0  0  0  0
  142.8562   77.5272  217.5205 H   0  0  0  0  0  0  0  0  0  0  0  0
  138.9263   79.8070  218.3550 H   0  0  0  0  0  0  0  0  0  0  0  0
  138.6050   81.9140  218.6890 H   0  0  0  0  0  0  0  0  0  0  0  0
  140.3350   81.9410  218.9630 H   0  0  0  0  0  0  0  0  0  0  0  0
  138.1681   80.2157  220.8800 H   0  0  0  0  0  0  0  0  0  0  0  0
  138.2728   78.5948  220.0721 H   0  0  0  0  0  0  0  0  0  0  0  0
  139.2329   76.8524  221.3531 H   0  0  0  0  0  0  0  0  0  0  0  0
  143.0274   79.3417  224.5876 H   0  0  0  0  0  0  0  0  0  0  0  0
  143.3265   81.8312  224.2978 H   0  0  0  0  0  0  0  0  0  0  0  0
  141.8887   82.9452  222.5961 H   0  0  0  0  0  0  0  0  0  0  0  0
  140.2647   81.7319  221.2568 H   0  0  0  0  0  0  0  0  0  0  0  0
  139.6369   77.1010  219.5658 H   0  0  0  0  0  0  0  0  0  0  0  0
  139.8246   77.1001  217.7145 H   0  0  0  0  0  0  0  0  0  0  0  0
  140.3286   75.0761  219.4032 H   0  0  0  0  0  0  0  0  0  0  0  0
  140.9474   75.4007  217.6622 H   0  0  0  0  0  0  0  0  0  0  0  0
  1  2  1  0
  2  3  1  0
  3  4  2  0
  3  5  1  0
  5  6  1  0
  6  7  2  0
  7  8  1  0
  8  9  2  0
  9 10  1  0
 10 11  2  0
  5 12  1  0
 12 13  1  0
 13 14  1  0
 14 15  1  0
 15 16  1  0
 16 17  2  0
 16 18  1  0
 18 19  1  0
 18 20  1  0
 20 21  1  0
 21 22  2  0
 22 23  1  0
 23 24  1  0
 24 25  2  0
 25 26  1  0
 26 27  2  0
 27 28  1  0
 28 29  2  0
 15 30  1  0
 30 31  1  0
 11  6  1  0
 31 12  1  0
 29 21  1  0
 29 24  1  0
  1 32  1  0
  1 33  1  0
  1 34  1  0
  2 35  1  0
  2 36  1  0
  7 37  1  0
  8 38  1  0
  9 39  1  0
 10 40  1  0
 11 41  1  0
 12 42  1  0
 13 43  1  0
 13 44  1  0
 14 45  1  0
 14 46  1  0
 18 47  1  6
 19 48  1  0
 19 49  1  0
 20 50  1  0
 20 51  1  0
 22 52  1  0
 25 53  1  0
 26 54  1  0
 27 55  1  0
 28 56  1  0
 30 57  1  0
 30 58  1  0
 31 59  1  0
 31 60  1  0
M  END
>  <smiles>  (41) 
CCC(=O)N(c1ccccc1)C1CCN(C(=O)[C@H](N)Cc2csc3ccccc23)CC1

>  <score_type>  (41) 
oracle

>  <origin>  (41) 
autodockgpu

>  <m_score__min__energy>  (41) 
-9.4100000000000001

>  <m_primary>  (41) 
energy

>  <rmsd>  (41) 
5.007461534938477

>  <m_score__min__rmsd>  (41) 
5.007461534938477

>  <meeko>  (41) 
{"free_energy": -6.31, "intermolecular_energy": -8.69, "internal_energy": -3.23, "cluster_size": 4, "cluster_id": 8, "rank_in_cluster": 3}

>  <energy>  (41) 
-6.65

>  <cluster_rmsd>  (41) 
0.16

>  <cluster>  (41) 
9

$$$$

     RDKit          3D

 60 63  0  0  0  0  0  0  0  0999 V2000
  132.4940   66.6300  226.2100 C   0  0  0  0  0  0  0  0  0  0  0  0
  133.8240   67.3360  226.1990 C   0  0  0  0  0  0  0  0  0  0  0  0
  133.9490   67.9970  224.8590 C   0  0  0  0  0  0  0  0  0  0  0  0
  133.9590   67.2240  223.8660 O   0  0  0  0  0  0  0  0  0  0  0  0
  134.0520   69.4210  224.7410 N   0  0  0  0  0  0  0  0  0  0  0  0
  133.3770   70.2930  225.6460 C   0  0  0  0  0  0  0  0  0  0  0  0
  134.1620   70.8100  226.6740 C   0  0  0  0  0  0  0  0  0  0  0  0
  133.5360   71.6660  227.5890 C   0  0  0  0  0  0  0  0  0  0  0  0
  132.1960   71.9590  227.4420 C   0  0  0  0  0  0  0  0  0  0  0  0
  131.4240   71.4340  226.4090 C   0  0  0  0  0  0  0  0  0  0  0  0
  132.0380   70.5920  225.5090 C   0  0  0  0  0  0  0  0  0  0  0  0
  134.8850   69.9260  223.6550 C   0  0  0  0  0  0  0  0  0  0  0  0
  136.1270   69.1100  223.4710 C   0  0  0  0  0  0  0  0  0  0  0  0
  136.8930   69.7630  222.3050 C   0  0  0  0  0  0  0  0  0  0  0  0
  137.5000   70.9450  222.9670 N   0  0  0  0  0  0  0  0  0  0  0  0
  138.8940   71.0400  222.8850 C   0  0  0  0  0  0  0  0  0  0  0  0
  139.4800   70.0960  222.2350 O   0  0  0  0  0  0  0  0  0  0  0  0
  139.7800   72.0710  223.4420 C   0  0  2  0  0  0  0  0  0  0  0  0
  139.9690   73.2440  222.6700 N   0  0  0  0  0  0  0  0  0  0  0  0
  141.0280   71.4820  224.0580 C   0  0  0  0  0  0  0  0  0  0  0  0
  140.8210   71.1210  225.5220 C   0  0  0  0  0  0  0  0  0  0  0  0
  141.1660   72.0680  226.4790 C   0  0  0  0  0  0  0  0  0  0  0  0
  140.8410   71.2810  228.0760 S   0  0  0  0  0  0  0  0  0  0  0  0
  140.2710   69.7550  227.3240 C   0  0  0  0  0  0  0  0  0  0  0  0
  139.8190   68.6140  227.9460 C   0  0  0  0  0  0  0  0  0  0  0  0
  139.4070   67.5250  227.1920 C   0  0  0  0  0  0  0  0  0  0  0  0
  139.4890   67.6900  225.8190 C   0  0  0  0  0  0  0  0  0  0  0  0
  139.9410   68.8320  225.2130 C   0  0  0  0  0  0  0  0  0  0  0  0
  140.3640   69.9440  225.9820 C   0  0  0  0  0  0  0  0  0  0  0  0
  136.5890   71.8270  223.6080 C   0  0  0  0  0  0  0  0  0  0  0  0
  135.1990   71.3630  223.7970 C   0  0  0  0  0  0  0  0  0  0  0  0
  132.1768   66.4616  227.2497 H   0  0  0  0  0  0  0  0  0  0  0  0
  131.7457   67.2496  225.6942 H   0  0  0  0  0  0  0  0  0  0  0  0
  132.5879   65.6630  225.6942 H   0  0  0  0  0  0  0  0  0  0  0  0
  133.8595   68.0904  226.9988 H   0  0  0  0  0  0  0  0  0  0  0  0
  134.6491   66.6289  226.3703 H   0  0  0  0  0  0  0  0  0  0  0  0
  135.2287   70.5567  226.7634 H   0  0  0  0  0  0  0  0  0  0  0  0
  134.1096   72.1022  228.4201 H   0  0  0  0  0  0  0  0  0  0  0  0
  131.7192   72.6332  228.1687 H   0  0  0  0  0  0  0  0  0  0  0  0
  130.3569   71.6841  226.3148 H   0  0  0  0  0  0  0  0  0  0  0  0
  131.4598   70.1576  224.6801 H   0  0  0  0  0  0  0  0  0  0  0  0
  134.2842   69.8222  222.7394 H   0  0  0  0  0  0  0  0  0  0  0  0
  136.7360   69.1285  224.3868 H   0  0  0  0  0  0  0  0  0  0  0  0
  135.8903   68.0569  223.2589 H   0  0  0  0  0  0  0  0  0  0  0  0
  137.6638   69.0884  221.9040 H   0  0  0  0  0  0  0  0  0  0  0  0
  136.2610   70.0118  221.4397 H   0  0  0  0  0  0  0  0  0  0  0  0
  139.2043   72.4973  224.2768 H   0  0  0  0  0  0  0  0  0  0  0  0
  139.5500   74.1130  222.9730 H   0  0  0  0  0  0  0  0  0  0  0  0
  139.9860   73.0340  221.6630 H   0  0  0  0  0  0  0  0  0  0  0  0
  141.3039   70.5732  223.5030 H   0  0  0  0  0  0  0  0  0  0  0  0
  141.8255   72.2376  224.0022 H   0  0  0  0  0  0  0  0  0  0  0  0
  141.5546   73.0819  226.3029 H   0  0  0  0  0  0  0  0  0  0  0  0
  139.7843   68.5652  229.0444 H   0  0  0  0  0  0  0  0  0  0  0  0
  139.0408   66.5954  227.6521 H   0  0  0  0  0  0  0  0  0  0  0  0
  139.1723   66.8544  225.1776 H   0  0  0  0  0  0  0  0  0  0  0  0
  139.9760   68.8865  224.1149 H   0  0  0  0  0  0  0  0  0  0  0  0
  136.9975   72.0539  224.6038 H   0  0  0  0  0  0  0  0  0  0  0  0
  136.5046   72.6839  222.9234 H   0  0  0  0  0  0  0  0  0  0  0  0
  134.8993   71.6569  224.8138 H   0  0  0  0  0  0  0  0  0  0  0  0
  134.6556   71.8295  222.9620 H   0  0  0  0  0  0  0  0  0  0  0  0
  1  2  1  0
  2  3  1  0
  3  4  2  0
  3  5  1  0
  5  6  1  0
  6  7  2  0
  7  8  1  0
  8  9  2  0
  9 10  1  0
 10 11  2  0
  5 12  1  0
 12 13  1  0
 13 14  1  0
 14 15  1  0
 15 16  1  0
 16 17  2  0
 16 18  1  0
 18 19  1  0
 18 20  1  0
 20 21  1  0
 21 22  2  0
 22 23  1  0
 23 24  1  0
 24 25  2  0
 25 26  1  0
 26 27  2  0
 27 28  1  0
 28 29  2  0
 15 30  1  0
 30 31  1  0
 11  6  1  0
 31 12  1  0
 29 21  1  0
 29 24  1  0
  1 32  1  0
  1 33  1  0
  1 34  1  0
  2 35  1  0
  2 36  1  0
  7 37  1  0
  8 38  1  0
  9 39  1  0
 10 40  1  0
 11 41  1  0
 12 42  1  0
 13 43  1  0
 13 44  1  0
 14 45  1  0
 14 46  1  0
 18 47  1  1
 19 48  1  0
 19 49  1  0
 20 50  1  0
 20 51  1  0
 22 52  1  0
 25 53  1  0
 26 54  1  0
 27 55  1  0
 28 56  1  0
 30 57  1  0
 30 58  1  0
 31 59  1  0
 31 60  1  0
M  END
>  <smiles>  (42) 
CCC(=O)N(c1ccccc1)C1CCN(C(=O)[C@H](N)Cc2csc3ccccc23)CC1

>  <score_type>  (42) 
oracle

>  <origin>  (42) 
autodockgpu

>  <m_score__min__energy>  (42) 
-9.4100000000000001

>  <m_primary>  (42) 
energy

>  <rmsd>  (42) 
9.847704818621333

>  <m_score__min__rmsd>  (42) 
9.847704818621333

>  <meeko>  (42) 
{"free_energy": -7.99, "intermolecular_energy": -10.38, "internal_energy": -2.21, "cluster_size": 1, "cluster_id": 4, "rank_in_cluster": 1}

>  <energy>  (42) 
-6.64

>  <cluster_rmsd>  (42) 
0.19

>  <cluster>  (42) 
9

$$$$

     RDKit          3D

 60 63  0  0  0  0  0  0  0  0999 V2000
  140.7000   83.1700  220.7220 C   0  0  0  0  0  0  0  0  0  0  0  0
  140.6050   82.5770  219.3400 C   0  0  0  0  0  0  0  0  0  0  0  0
  141.4720   81.3530  219.3370 C   0  0  0  0  0  0  0  0  0  0  0  0
  141.8600   80.9550  220.4660 O   0  0  0  0  0  0  0  0  0  0  0  0
  141.8240   80.6960  218.1140 N   0  0  0  0  0  0  0  0  0  0  0  0
  142.4860   81.3930  217.0610 C   0  0  0  0  0  0  0  0  0  0  0  0
  143.4720   82.2910  217.4660 C   0  0  0  0  0  0  0  0  0  0  0  0
  144.1440   83.0010  216.4630 C   0  0  0  0  0  0  0  0  0  0  0  0
  143.8120   82.7910  215.1400 C   0  0  0  0  0  0  0  0  0  0  0  0
  142.8250   81.8910  214.7500 C   0  0  0  0  0  0  0  0  0  0  0  0
  142.1630   81.1920  215.7360 C   0  0  0  0  0  0  0  0  0  0  0  0
  141.4760   79.2830  218.0100 C   0  0  0  0  0  0  0  0  0  0  0  0
  140.0690   79.0160  218.4440 C   0  0  0  0  0  0  0  0  0  0  0  0
  139.8570   77.4990  218.2810 C   0  0  0  0  0  0  0  0  0  0  0  0
  140.5620   76.9650  219.4730 N   0  0  0  0  0  0  0  0  0  0  0  0
  139.7920   76.1730  220.3320 C   0  0  0  0  0  0  0  0  0  0  0  0
  138.5680   75.9930  219.9780 O   0  0  0  0  0  0  0  0  0  0  0  0
  140.1920   75.5190  221.5860 C   0  0  2  0  0  0  0  0  0  0  0  0
  139.1930   74.7950  222.2830 N   0  0  0  0  0  0  0  0  0  0  0  0
  141.0770   76.4020  222.4350 C   0  0  0  0  0  0  0  0  0  0  0  0
  140.4140   77.7360  222.7470 C   0  0  0  0  0  0  0  0  0  0  0  0
  139.0260   77.7910  222.7280 C   0  0  0  0  0  0  0  0  0  0  0  0
  138.6070   79.5160  223.0820 S   0  0  0  0  0  0  0  0  0  0  0  0
  140.3250   80.0120  223.2250 C   0  0  0  0  0  0  0  0  0  0  0  0
  140.8330   81.2600  223.5050 C   0  0  0  0  0  0  0  0  0  0  0  0
  142.2050   81.4530  223.5850 C   0  0  0  0  0  0  0  0  0  0  0  0
  142.9750   80.3230  223.3660 C   0  0  0  0  0  0  0  0  0  0  0  0
  142.4560   79.0860  223.0880 C   0  0  0  0  0  0  0  0  0  0  0  0
  141.0570   78.8880  223.0040 C   0  0  0  0  0  0  0  0  0  0  0  0
  141.9290   77.3350  219.5970 C   0  0  0  0  0  0  0  0  0  0  0  0
  142.4350   78.4060  218.7130 C   0  0  0  0  0  0  0  0  0  0  0  0
  140.5727   82.3751  221.4716 H   0  0  0  0  0  0  0  0  0  0  0  0
  141.6852   83.6418  220.8516 H   0  0  0  0  0  0  0  0  0  0  0  0
  139.9115   83.9260  220.8516 H   0  0  0  0  0  0  0  0  0  0  0  0
  139.5633   82.3045  219.1149 H   0  0  0  0  0  0  0  0  0  0  0  0
  140.9338   83.2973  218.5764 H   0  0  0  0  0  0  0  0  0  0  0  0
  143.7125   82.4361  218.5295 H   0  0  0  0  0  0  0  0  0  0  0  0
  144.9316   83.7216  216.7282 H   0  0  0  0  0  0  0  0  0  0  0  0
  144.3482   83.3569  214.3640 H   0  0  0  0  0  0  0  0  0  0  0  0
  142.5808   81.7421  213.6878 H   0  0  0  0  0  0  0  0  0  0  0  0
  141.3759   80.4728  215.4654 H   0  0  0  0  0  0  0  0  0  0  0  0
  141.5432   79.0321  216.9411 H   0  0  0  0  0  0  0  0  0  0  0  0
  139.9303   79.3109  219.4946 H   0  0  0  0  0  0  0  0  0  0  0  0
  139.3463   79.5911  217.8465 H   0  0  0  0  0  0  0  0  0  0  0  0
  138.7881   77.2397  218.2981 H   0  0  0  0  0  0  0  0  0  0  0  0
  140.2277   77.0971  217.3265 H   0  0  0  0  0  0  0  0  0  0  0  0
  140.8255   74.6803  221.2616 H   0  0  0  0  0  0  0  0  0  0  0  0
  139.4620   74.0480  222.9080 H   0  0  0  0  0  0  0  0  0  0  0  0
  138.3490   74.6710  221.7080 H   0  0  0  0  0  0  0  0  0  0  0  0
  141.2952   75.8834  223.3802 H   0  0  0  0  0  0  0  0  0  0  0  0
  142.0000   76.6031  221.8714 H   0  0  0  0  0  0  0  0  0  0  0  0
  138.3289   76.9616  222.5380 H   0  0  0  0  0  0  0  0  0  0  0  0
  140.1497   82.1069  223.6658 H   0  0  0  0  0  0  0  0  0  0  0  0
  142.6495   82.4344  223.8068 H   0  0  0  0  0  0  0  0  0  0  0  0
  144.0690   80.4248  223.4184 H   0  0  0  0  0  0  0  0  0  0  0  0
  143.1352   78.2357  222.9280 H   0  0  0  0  0  0  0  0  0  0  0  0
  142.0873   77.6637  220.6347 H   0  0  0  0  0  0  0  0  0  0  0  0
  142.4880   76.4375  219.2935 H   0  0  0  0  0  0  0  0  0  0  0  0
  143.0705   79.0573  219.3310 H   0  0  0  0  0  0  0  0  0  0  0  0
  142.9281   77.8564  217.8976 H   0  0  0  0  0  0  0  0  0  0  0  0
  1  2  1  0
  2  3  1  0
  3  4  2  0
  3  5  1  0
  5  6  1  0
  6  7  2  0
  7  8  1  0
  8  9  2  0
  9 10  1  0
 10 11  2  0
  5 12  1  0
 12 13  1  0
 13 14  1  0
 14 15  1  0
 15 16  1  0
 16 17  2  0
 16 18  1  0
 18 19  1  0
 18 20  1  0
 20 21  1  0
 21 22  2  0
 22 23  1  0
 23 24  1  0
 24 25  2  0
 25 26  1  0
 26 27  2  0
 27 28  1  0
 28 29  2  0
 15 30  1  0
 30 31  1  0
 11  6  1  0
 31 12  1  0
 29 21  1  0
 29 24  1  0
  1 32  1  0
  1 33  1  0
  1 34  1  0
  2 35  1  0
  2 36  1  0
  7 37  1  0
  8 38  1  0
  9 39  1  0
 10 40  1  0
 11 41  1  0
 12 42  1  0
 13 43  1  0
 13 44  1  0
 14 45  1  0
 14 46  1  0
 18 47  1  6
 19 48  1  0
 19 49  1  0
 20 50  1  0
 20 51  1  0
 22 52  1  0
 25 53  1  0
 26 54  1  0
 27 55  1  0
 28 56  1  0
 30 57  1  0
 30 58  1  0
 31 59  1  0
 31 60  1  0
M  END
>  <smiles>  (43) 
CCC(=O)N(c1ccccc1)C1CCN(C(=O)[C@H](N)Cc2csc3ccccc23)CC1

>  <score_type>  (43) 
oracle

>  <origin>  (43) 
autodockgpu

>  <m_score__min__energy>  (43) 
-9.4100000000000001

>  <m_primary>  (43) 
energy

>  <rmsd>  (43) 
4.096428672790638

>  <m_score__min__rmsd>  (43) 
4.096428672790638

>  <meeko>  (43) 
{"free_energy": -6.64, "intermolecular_energy": -9.03, "internal_energy": -3.45, "cluster_size": 14, "cluster_id": 9, "rank_in_cluster": 8}

>  <energy>  (43) 
-6.63

>  <cluster_rmsd>  (43) 
0.18

>  <cluster>  (43) 
9

$$$$

     RDKit          3D

 60 63  0  0  0  0  0  0  0  0999 V2000
  137.4330   68.4840  222.8680 C   0  0  0  0  0  0  0  0  0  0  0  0
  136.6440   69.2200  223.9190 C   0  0  0  0  0  0  0  0  0  0  0  0
  137.2970   70.5600  224.0870 C   0  0  0  0  0  0  0  0  0  0  0  0
  136.5160   71.5310  224.2600 O   0  0  0  0  0  0  0  0  0  0  0  0
  138.7220   70.7010  224.0470 N   0  0  0  0  0  0  0  0  0  0  0  0
  139.5370   70.3270  225.1560 C   0  0  0  0  0  0  0  0  0  0  0  0
  139.9750   71.3800  225.9570 C   0  0  0  0  0  0  0  0  0  0  0  0
  140.7830   71.0570  227.0550 C   0  0  0  0  0  0  0  0  0  0  0  0
  141.1090   69.7380  227.2960 C   0  0  0  0  0  0  0  0  0  0  0  0
  140.6650   68.6970  226.4870 C   0  0  0  0  0  0  0  0  0  0  0  0
  139.8700   69.0130  225.4080 C   0  0  0  0  0  0  0  0  0  0  0  0
  139.2890   71.2400  222.8160 C   0  0  0  0  0  0  0  0  0  0  0  0
  140.6530   71.8190  223.0280 C   0  0  0  0  0  0  0  0  0  0  0  0
  141.1090   72.3430  221.6540 C   0  0  0  0  0  0  0  0  0  0  0  0
  140.3450   73.6100  221.5440 N   0  0  0  0  0  0  0  0  0  0  0  0
  141.1070   74.7670  221.3470 C   0  0  0  0  0  0  0  0  0  0  0  0
  142.3800   74.5900  221.2720 O   0  0  0  0  0  0  0  0  0  0  0  0
  140.6520   76.1580  221.2150 C   0  0  2  0  0  0  0  0  0  0  0  0
  141.6160   77.1160  220.8140 N   0  0  0  0  0  0  0  0  0  0  0  0
  139.7450   76.5730  222.3490 C   0  0  0  0  0  0  0  0  0  0  0  0
  139.5670   78.0840  222.4090 C   0  0  0  0  0  0  0  0  0  0  0  0
  138.3820   78.6180  221.9180 C   0  0  0  0  0  0  0  0  0  0  0  0
  138.5500   80.4110  222.0980 S   0  0  0  0  0  0  0  0  0  0  0  0
  140.1910   80.2890  222.8140 C   0  0  0  0  0  0  0  0  0  0  0  0
  141.0130   81.3060  223.2430 C   0  0  0  0  0  0  0  0  0  0  0  0
  142.2570   81.0150  223.7840 C   0  0  0  0  0  0  0  0  0  0  0  0
  142.5760   79.6690  223.8470 C   0  0  0  0  0  0  0  0  0  0  0  0
  141.7480   78.6670  223.4160 C   0  0  0  0  0  0  0  0  0  0  0  0
  140.4780   78.9620  222.8620 C   0  0  0  0  0  0  0  0  0  0  0  0
  138.9330   73.4900  221.6630 C   0  0  0  0  0  0  0  0  0  0  0  0
  138.3900   72.2050  222.1480 C   0  0  0  0  0  0  0  0  0  0  0  0
  138.1542   67.8112  223.3551 H   0  0  0  0  0  0  0  0  0  0  0  0
  136.7478   67.8949  222.2407 H   0  0  0  0  0  0  0  0  0  0  0  0
  137.9731   69.2084  222.2407 H   0  0  0  0  0  0  0  0  0  0  0  0
  135.6010   69.3446  223.5924 H   0  0  0  0  0  0  0  0  0  0  0  0
  136.6322   68.6634  224.8677 H   0  0  0  0  0  0  0  0  0  0  0  0
  139.6979   72.4214  225.7363 H   0  0  0  0  0  0  0  0  0  0  0  0
  141.1551   71.8497  227.7207 H   0  0  0  0  0  0  0  0  0  0  0  0
  141.7448   69.5004  228.1616 H   0  0  0  0  0  0  0  0  0  0  0  0
  140.9404   67.6541  226.7025 H   0  0  0  0  0  0  0  0  0  0  0  0
  139.5001   68.2160  224.7462 H   0  0  0  0  0  0  0  0  0  0  0  0
  139.3984   70.3839  222.1340 H   0  0  0  0  0  0  0  0  0  0  0  0
  140.6099   72.6424  223.7561 H   0  0  0  0  0  0  0  0  0  0  0  0
  141.3522   71.0687  223.4257 H   0  0  0  0  0  0  0  0  0  0  0  0
  142.1935   72.5262  221.6349 H   0  0  0  0  0  0  0  0  0  0  0  0
  140.9285   71.6406  220.8269 H   0  0  0  0  0  0  0  0  0  0  0  0
  140.0223   76.1511  220.3131 H   0  0  0  0  0  0  0  0  0  0  0  0
  141.4450   77.6820  219.9940 H   0  0  0  0  0  0  0  0  0  0  0  0
  142.5730   76.7810  220.9850 H   0  0  0  0  0  0  0  0  0  0  0  0
  138.7601   76.1042  222.2066 H   0  0  0  0  0  0  0  0  0  0  0  0
  140.2068   76.2461  223.2923 H   0  0  0  0  0  0  0  0  0  0  0  0
  137.5232   78.0673  221.5067 H   0  0  0  0  0  0  0  0  0  0  0  0
  140.6830   82.3518  223.1568 H   0  0  0  0  0  0  0  0  0  0  0  0
  142.9423   81.7991  224.1383 H   0  0  0  0  0  0  0  0  0  0  0  0
  143.5525   79.3879  224.2683 H   0  0  0  0  0  0  0  0  0  0  0  0
  142.0732   77.6196  223.5011 H   0  0  0  0  0  0  0  0  0  0  0  0
  138.5945   74.2725  222.3580 H   0  0  0  0  0  0  0  0  0  0  0  0
  138.5595   73.5773  220.6320 H   0  0  0  0  0  0  0  0  0  0  0  0
  137.5903   72.4455  222.8639 H   0  0  0  0  0  0  0  0  0  0  0  0
  138.0935   71.6853  221.2250 H   0  0  0  0  0  0  0  0  0  0  0  0
  1  2  1  0
  2  3  1  0
  3  4  2  0
  3  5  1  0
  5  6  1  0
  6  7  2  0
  7  8  1  0
  8  9  2  0
  9 10  1  0
 10 11  2  0
  5 12  1  0
 12 13  1  0
 13 14  1  0
 14 15  1  0
 15 16  1  0
 16 17  2  0
 16 18  1  0
 18 19  1  0
 18 20  1  0
 20 21  1  0
 21 22  2  0
 22 23  1  0
 23 24  1  0
 24 25  2  0
 25 26  1  0
 26 27  2  0
 27 28  1  0
 28 29  2  0
 15 30  1  0
 30 31  1  0
 11  6  1  0
 31 12  1  0
 29 21  1  0
 29 24  1  0
  1 32  1  0
  1 33  1  0
  1 34  1  0
  2 35  1  0
  2 36  1  0
  7 37  1  0
  8 38  1  0
  9 39  1  0
 10 40  1  0
 11 41  1  0
 12 42  1  0
 13 43  1  0
 13 44  1  0
 14 45  1  0
 14 46  1  0
 18 47  1  6
 19 48  1  0
 19 49  1  0
 20 50  1  0
 20 51  1  0
 22 52  1  0
 25 53  1  0
 26 54  1  0
 27 55  1  0
 28 56  1  0
 30 57  1  0
 30 58  1  0
 31 59  1  0
 31 60  1  0
M  END
>  <smiles>  (44) 
CCC(=O)N(c1ccccc1)C1CCN(C(=O)[C@H](N)Cc2csc3ccccc23)CC1

>  <score_type>  (44) 
oracle

>  <origin>  (44) 
autodockgpu

>  <m_score__min__energy>  (44) 
-9.4100000000000001

>  <m_primary>  (44) 
energy

>  <rmsd>  (44) 
6.896723520346453

>  <m_score__min__rmsd>  (44) 
6.896723520346453

>  <meeko>  (44) 
{"free_energy": -7.93, "intermolecular_energy": -10.32, "internal_energy": -2.13, "cluster_size": 9, "cluster_id": 3, "rank_in_cluster": 6}

>  <energy>  (44) 
-6.63

>  <cluster_rmsd>  (44) 
0.16

>  <cluster>  (44) 
9

$$$$

     RDKit          3D

 60 63  0  0  0  0  0  0  0  0999 V2000
  139.4100   76.8370  222.3970 C   0  0  0  0  0  0  0  0  0  0  0  0
  140.8920   76.5770  222.3510 C   0  0  0  0  0  0  0  0  0  0  0  0
  141.0820   75.2950  221.5960 C   0  0  0  0  0  0  0  0  0  0  0  0
  140.3720   74.3270  221.9740 O   0  0  0  0  0  0  0  0  0  0  0  0
  142.0190   75.2010  220.5160 N   0  0  0  0  0  0  0  0  0  0  0  0
  143.0650   74.2320  220.5230 C   0  0  0  0  0  0  0  0  0  0  0  0
  142.6490   72.9050  220.6110 C   0  0  0  0  0  0  0  0  0  0  0  0
  143.6460   71.9210  220.6260 C   0  0  0  0  0  0  0  0  0  0  0  0
  144.9730   72.2930  220.5570 C   0  0  0  0  0  0  0  0  0  0  0  0
  145.3730   73.6230  220.4700 C   0  0  0  0  0  0  0  0  0  0  0  0
  144.3940   74.5920  220.4540 C   0  0  0  0  0  0  0  0  0  0  0  0
  141.8400   76.1410  219.4150 C   0  0  0  0  0  0  0  0  0  0  0  0
  142.9340   77.1610  219.3610 C   0  0  0  0  0  0  0  0  0  0  0  0
  142.6050   78.0710  218.1630 C   0  0  0  0  0  0  0  0  0  0  0  0
  141.5290   78.9290  218.7210 N   0  0  0  0  0  0  0  0  0  0  0  0
  141.7660   80.3070  218.6800 C   0  0  0  0  0  0  0  0  0  0  0  0
  142.8840   80.6660  218.1520 O   0  0  0  0  0  0  0  0  0  0  0  0
  140.9120   81.4020  219.1600 C   0  0  2  0  0  0  0  0  0  0  0  0
  140.3670   82.2710  218.1810 N   0  0  0  0  0  0  0  0  0  0  0  0
  141.4760   82.0710  220.3920 C   0  0  0  0  0  0  0  0  0  0  0  0
  141.4120   81.1610  221.6100 C   0  0  0  0  0  0  0  0  0  0  0  0
  142.5730   80.4960  221.9860 C   0  0  0  0  0  0  0  0  0  0  0  0
  142.1080   79.4830  223.4110 S   0  0  0  0  0  0  0  0  0  0  0  0
  140.4020   80.0370  223.3800 C   0  0  0  0  0  0  0  0  0  0  0  0
  139.3730   79.6820  224.2220 C   0  0  0  0  0  0  0  0  0  0  0  0
  138.1090   80.2270  224.0480 C   0  0  0  0  0  0  0  0  0  0  0  0
  137.9900   81.1200  222.9960 C   0  0  0  0  0  0  0  0  0  0  0  0
  139.0220   81.4650  222.1650 C   0  0  0  0  0  0  0  0  0  0  0  0
  140.3130   80.9090  222.3410 C   0  0  0  0  0  0  0  0  0  0  0  0
  140.3970   78.2400  219.2350 C   0  0  0  0  0  0  0  0  0  0  0  0
  140.5060   76.7780  219.4200 C   0  0  0  0  0  0  0  0  0  0  0  0
  139.0802   76.8948  223.4448 H   0  0  0  0  0  0  0  0  0  0  0  0
  139.1886   77.7877  221.8899 H   0  0  0  0  0  0  0  0  0  0  0  0
  138.8782   76.0184  221.8899 H   0  0  0  0  0  0  0  0  0  0  0  0
  141.4055   77.4010  221.8340 H   0  0  0  0  0  0  0  0  0  0  0  0
  141.3125   76.5049  223.3649 H   0  0  0  0  0  0  0  0  0  0  0  0
  141.5825   72.6412  220.6663 H   0  0  0  0  0  0  0  0  0  0  0  0
  143.3725   70.8576  220.6924 H   0  0  0  0  0  0  0  0  0  0  0  0
  145.7439   71.5085  220.5713 H   0  0  0  0  0  0  0  0  0  0  0  0
  146.4381   73.8923  220.4157 H   0  0  0  0  0  0  0  0  0  0  0  0
  144.6729   75.6539  220.3861 H   0  0  0  0  0  0  0  0  0  0  0  0
  141.9022   75.5437  218.4934 H   0  0  0  0  0  0  0  0  0  0  0  0
  142.9568   77.7471  220.2916 H   0  0  0  0  0  0  0  0  0  0  0  0
  143.9211   76.6885  219.2497 H   0  0  0  0  0  0  0  0  0  0  0  0
  143.4782   78.6684  217.8619 H   0  0  0  0  0  0  0  0  0  0  0  0
  142.3129   77.5239  217.2545 H   0  0  0  0  0  0  0  0  0  0  0  0
  139.9894   80.8999  219.4866 H   0  0  0  0  0  0  0  0  0  0  0  0
  139.3640   82.3510  218.0880 H   0  0  0  0  0  0  0  0  0  0  0  0
  140.9400   82.2810  217.3270 H   0  0  0  0  0  0  0  0  0  0  0  0
  142.5260   82.3386  220.2025 H   0  0  0  0  0  0  0  0  0  0  0  0
  140.8711   82.9655  220.6019 H   0  0  0  0  0  0  0  0  0  0  0  0
  143.5650   80.5700  221.5164 H   0  0  0  0  0  0  0  0  0  0  0  0
  139.5532   78.9639  225.0355 H   0  0  0  0  0  0  0  0  0  0  0  0
  137.2613   79.9682  224.6995 H   0  0  0  0  0  0  0  0  0  0  0  0
  137.0069   81.5799  222.8173 H   0  0  0  0  0  0  0  0  0  0  0  0
  138.8464   82.1830  221.3504 H   0  0  0  0  0  0  0  0  0  0  0  0
  140.1638   78.6785  220.2165 H   0  0  0  0  0  0  0  0  0  0  0  0
  139.6229   78.3647  218.4636 H   0  0  0  0  0  0  0  0  0  0  0  0
  140.0428   76.5428  220.3896 H   0  0  0  0  0  0  0  0  0  0  0  0
  140.0202   76.3672  218.5226 H   0  0  0  0  0  0  0  0  0  0  0  0
  1  2  1  0
  2  3  1  0
  3  4  2  0
  3  5  1  0
  5  6  1  0
  6  7  2  0
  7  8  1  0
  8  9  2  0
  9 10  1  0
 10 11  2  0
  5 12  1  0
 12 13  1  0
 13 14  1  0
 14 15  1  0
 15 16  1  0
 16 17  2  0
 16 18  1  0
 18 19  1  0
 18 20  1  0
 20 21  1  0
 21 22  2  0
 22 23  1  0
 23 24  1  0
 24 25  2  0
 25 26  1  0
 26 27  2  0
 27 28  1  0
 28 29  2  0
 15 30  1  0
 30 31  1  0
 11  6  1  0
 31 12  1  0
 29 21  1  0
 29 24  1  0
  1 32  1  0
  1 33  1  0
  1 34  1  0
  2 35  1  0
  2 36  1  0
  7 37  1  0
  8 38  1  0
  9 39  1  0
 10 40  1  0
 11 41  1  0
 12 42  1  0
 13 43  1  0
 13 44  1  0
 14 45  1  0
 14 46  1  0
 18 47  1  1
 19 48  1  0
 19 49  1  0
 20 50  1  0
 20 51  1  0
 22 52  1  0
 25 53  1  0
 26 54  1  0
 27 55  1  0
 28 56  1  0
 30 57  1  0
 30 58  1  0
 31 59  1  0
 31 60  1  0
M  END
>  <smiles>  (45) 
CCC(=O)N(c1ccccc1)C1CCN(C(=O)[C@H](N)Cc2csc3ccccc23)CC1

>  <score_type>  (45) 
oracle

>  <origin>  (45) 
autodockgpu

>  <m_score__min__energy>  (45) 
-9.4100000000000001

>  <m_primary>  (45) 
energy

>  <rmsd>  (45) 
5.733972424549633

>  <m_score__min__rmsd>  (45) 
5.733972424549633

>  <meeko>  (45) 
{"free_energy": -7.0, "intermolecular_energy": -9.39, "internal_energy": -2.59, "cluster_size": 4, "cluster_id": 8, "rank_in_cluster": 2}

>  <energy>  (45) 
-6.6

>  <cluster_rmsd>  (45) 
0.2

>  <cluster>  (45) 
9

$$$$

     RDKit          3D

 60 63  0  0  0  0  0  0  0  0999 V2000
  146.2940   73.0470  221.8230 C   0  0  0  0  0  0  0  0  0  0  0  0
  146.0130   74.1170  220.8020 C   0  0  0  0  0  0  0  0  0  0  0  0
  145.2730   73.4560  219.6780 C   0  0  0  0  0  0  0  0  0  0  0  0
  145.9390   72.6370  218.9920 O   0  0  0  0  0  0  0  0  0  0  0  0
  143.8960   73.7550  219.4180 N   0  0  0  0  0  0  0  0  0  0  0  0
  143.4680   75.0800  219.1130 C   0  0  0  0  0  0  0  0  0  0  0  0
  143.6840   75.4900  217.7990 C   0  0  0  0  0  0  0  0  0  0  0  0
  143.2830   76.7880  217.4580 C   0  0  0  0  0  0  0  0  0  0  0  0
  142.7040   77.5960  218.4150 C   0  0  0  0  0  0  0  0  0  0  0  0
  142.4950   77.1730  219.7240 C   0  0  0  0  0  0  0  0  0  0  0  0
  142.8880   75.8960  220.0610 C   0  0  0  0  0  0  0  0  0  0  0  0
  142.9650   72.6340  219.4770 C   0  0  0  0  0  0  0  0  0  0  0  0
  141.5890   73.0190  219.0300 C   0  0  0  0  0  0  0  0  0  0  0  0
  140.7320   71.7460  219.1510 C   0  0  0  0  0  0  0  0  0  0  0  0
  140.4820   71.6870  220.6130 N   0  0  0  0  0  0  0  0  0  0  0  0
  139.1380   71.6660  221.0010 C   0  0  0  0  0  0  0  0  0  0  0  0
  138.2800   71.6890  220.0420 O   0  0  0  0  0  0  0  0  0  0  0  0
  138.5720   71.6240  222.3560 C   0  0  2  0  0  0  0  0  0  0  0  0
  137.3410   72.2950  222.5620 N   0  0  0  0  0  0  0  0  0  0  0  0
  139.6220   71.8360  223.4220 C   0  0  0  0  0  0  0  0  0  0  0  0
  139.6940   70.6620  224.3880 C   0  0  0  0  0  0  0  0  0  0  0  0
  139.2040   69.4350  223.9560 C   0  0  0  0  0  0  0  0  0  0  0  0
  139.4010   68.3150  225.3630 S   0  0  0  0  0  0  0  0  0  0  0  0
  140.1220   69.5850  226.4060 C   0  0  0  0  0  0  0  0  0  0  0  0
  140.5630   69.4740  227.7040 C   0  0  0  0  0  0  0  0  0  0  0  0
  141.1050   70.5750  228.3530 C   0  0  0  0  0  0  0  0  0  0  0  0
  141.1570   71.7380  227.6020 C   0  0  0  0  0  0  0  0  0  0  0  0
  140.7150   71.8340  226.3100 C   0  0  0  0  0  0  0  0  0  0  0  0
  140.1590   70.7120  225.6480 C   0  0  0  0  0  0  0  0  0  0  0  0
  141.6410   71.6680  221.4360 C   0  0  0  0  0  0  0  0  0  0  0  0
  142.9390   71.9810  220.8030 C   0  0  0  0  0  0  0  0  0  0  0  0
  146.1838   73.4667  222.8338 H   0  0  0  0  0  0  0  0  0  0  0  0
  145.5831   72.2181  221.6906 H   0  0  0  0  0  0  0  0  0  0  0  0
  147.3205   72.6744  221.6906 H   0  0  0  0  0  0  0  0  0  0  0  0
  145.3963   74.9122  221.2461 H   0  0  0  0  0  0  0  0  0  0  0  0
  146.9457   74.5779  220.4448 H   0  0  0  0  0  0  0  0  0  0  0  0
  144.1502   74.8219  217.0599 H   0  0  0  0  0  0  0  0  0  0  0  0
  143.4288   77.1610  216.4335 H   0  0  0  0  0  0  0  0  0  0  0  0
  142.3959   78.6134  218.1323 H   0  0  0  0  0  0  0  0  0  0  0  0
  142.0302   77.8377  220.4671 H   0  0  0  0  0  0  0  0  0  0  0  0
  142.7389   75.5275  221.0867 H   0  0  0  0  0  0  0  0  0  0  0  0
  143.3461   71.8878  218.7642 H   0  0  0  0  0  0  0  0  0  0  0  0
  141.1860   73.8138  219.6749 H   0  0  0  0  0  0  0  0  0  0  0  0
  141.5933   73.4055  218.0001 H   0  0  0  0  0  0  0  0  0  0  0  0
  139.7921   71.8407  218.5873 H   0  0  0  0  0  0  0  0  0  0  0  0
  141.2132   70.8443  218.7443 H   0  0  0  0  0  0  0  0  0  0  0  0
  138.2301   70.5849  222.4718 H   0  0  0  0  0  0  0  0  0  0  0  0
  136.8020   72.6050  221.7640 H   0  0  0  0  0  0  0  0  0  0  0  0
  137.3760   72.9010  223.3930 H   0  0  0  0  0  0  0  0  0  0  0  0
  140.6017   71.9583  222.9370 H   0  0  0  0  0  0  0  0  0  0  0  0
  139.3492   72.7339  223.9959 H   0  0  0  0  0  0  0  0  0  0  0  0
  138.7850   69.1956  222.9675 H   0  0  0  0  0  0  0  0  0  0  0  0
  140.4861   68.5105  228.2291 H   0  0  0  0  0  0  0  0  0  0  0  0
  141.4676   70.5273  229.3904 H   0  0  0  0  0  0  0  0  0  0  0  0
  141.5789   72.6385  228.0722 H   0  0  0  0  0  0  0  0  0  0  0  0
  140.7926   72.7944  225.7793 H   0  0  0  0  0  0  0  0  0  0  0  0
  141.4836   72.4001  222.2418 H   0  0  0  0  0  0  0  0  0  0  0  0
  141.7350   70.6207  221.7591 H   0  0  0  0  0  0  0  0  0  0  0  0
  143.4813   72.6417  221.4954 H   0  0  0  0  0  0  0  0  0  0  0  0
  143.3776   70.9906  220.6112 H   0  0  0  0  0  0  0  0  0  0  0  0
  1  2  1  0
  2  3  1  0
  3  4  2  0
  3  5  1  0
  5  6  1  0
  6  7  2  0
  7  8  1  0
  8  9  2  0
  9 10  1  0
 10 11  2  0
  5 12  1  0
 12 13  1  0
 13 14  1  0
 14 15  1  0
 15 16  1  0
 16 17  2  0
 16 18  1  0
 18 19  1  0
 18 20  1  0
 20 21  1  0
 21 22  2  0
 22 23  1  0
 23 24  1  0
 24 25  2  0
 25 26  1  0
 26 27  2  0
 27 28  1  0
 28 29  2  0
 15 30  1  0
 30 31  1  0
 11  6  1  0
 31 12  1  0
 29 21  1  0
 29 24  1  0
  1 32  1  0
  1 33  1  0
  1 34  1  0
  2 35  1  0
  2 36  1  0
  7 37  1  0
  8 38  1  0
  9 39  1  0
 10 40  1  0
 11 41  1  0
 12 42  1  0
 13 43  1  0
 13 44  1  0
 14 45  1  0
 14 46  1  0
 18 47  1  1
 19 48  1  0
 19 49  1  0
 20 50  1  0
 20 51  1  0
 22 52  1  0
 25 53  1  0
 26 54  1  0
 27 55  1  0
 28 56  1  0
 30 57  1  0
 30 58  1  0
 31 59  1  0
 31 60  1  0
M  END
>  <smiles>  (46) 
CCC(=O)N(c1ccccc1)C1CCN(C(=O)[C@H](N)Cc2csc3ccccc23)CC1

>  <score_type>  (46) 
oracle

>  <origin>  (46) 
autodockgpu

>  <m_score__min__energy>  (46) 
-9.4100000000000001

>  <m_primary>  (46) 
energy

>  <rmsd>  (46) 
7.94801093338082

>  <m_score__min__rmsd>  (46) 
7.94801093338082

>  <meeko>  (46) 
{"free_energy": -8.44, "intermolecular_energy": -10.83, "internal_energy": -1.79, "cluster_size": 4, "cluster_id": 2, "rank_in_cluster": 1}

>  <energy>  (46) 
-6.59

>  <cluster_rmsd>  (46) 
0.21

>  <cluster>  (46) 
9

$$$$

     RDKit          3D

 60 63  0  0  0  0  0  0  0  0999 V2000
  140.2010   72.3140  221.9410 C   0  0  0  0  0  0  0  0  0  0  0  0
  140.6000   72.9130  220.6180 C   0  0  0  0  0  0  0  0  0  0  0  0
  141.4070   74.1390  220.9270 C   0  0  0  0  0  0  0  0  0  0  0  0
  141.0360   74.7990  221.9320 O   0  0  0  0  0  0  0  0  0  0  0  0
  142.5230   74.5180  220.1130 N   0  0  0  0  0  0  0  0  0  0  0  0
  143.7780   73.8470  220.2140 C   0  0  0  0  0  0  0  0  0  0  0  0
  143.8110   72.5590  219.6830 C   0  0  0  0  0  0  0  0  0  0  0  0
  145.0240   71.8630  219.7670 C   0  0  0  0  0  0  0  0  0  0  0  0
  146.1150   72.4640  220.3610 C   0  0  0  0  0  0  0  0  0  0  0  0
  146.0660   73.7510  220.8870 C   0  0  0  0  0  0  0  0  0  0  0  0
  144.8750   74.4370  220.8050 C   0  0  0  0  0  0  0  0  0  0  0  0
  142.3040   75.6150  219.1770 C   0  0  0  0  0  0  0  0  0  0  0  0
  142.8020   76.9210  219.7120 C   0  0  0  0  0  0  0  0  0  0  0  0
  142.4990   77.9680  218.6240 C   0  0  0  0  0  0  0  0  0  0  0  0
  141.0440   78.1900  218.8150 N   0  0  0  0  0  0  0  0  0  0  0  0
  140.6570   79.5110  219.0670 C   0  0  0  0  0  0  0  0  0  0  0  0
  141.6100   80.3760  219.0910 O   0  0  0  0  0  0  0  0  0  0  0  0
  139.3100   80.0450  219.3100 C   0  0  2  0  0  0  0  0  0  0  0  0
  139.1160   81.4310  219.0880 N   0  0  0  0  0  0  0  0  0  0  0  0
  138.6920   79.4880  220.5720 C   0  0  0  0  0  0  0  0  0  0  0  0
  139.7500   79.0060  221.5550 C   0  0  0  0  0  0  0  0  0  0  0  0
  139.8020   77.6460  221.8360 C   0  0  0  0  0  0  0  0  0  0  0  0
  141.1180   77.4580  223.0640 S   0  0  0  0  0  0  0  0  0  0  0  0
  141.4840   79.2150  223.0920 C   0  0  0  0  0  0  0  0  0  0  0  0
  142.4360   79.8770  223.8330 C   0  0  0  0  0  0  0  0  0  0  0  0
  142.5800   81.2520  223.7150 C   0  0  0  0  0  0  0  0  0  0  0  0
  141.7150   81.8630  222.8220 C   0  0  0  0  0  0  0  0  0  0  0  0
  140.7720   81.1920  222.0910 C   0  0  0  0  0  0  0  0  0  0  0  0
  140.6230   79.7890  222.2120 C   0  0  0  0  0  0  0  0  0  0  0  0
  140.2270   77.0300  218.7260 C   0  0  0  0  0  0  0  0  0  0  0  0
  140.8980   75.7140  218.7320 C   0  0  0  0  0  0  0  0  0  0  0  0
  140.6089   72.9264  222.7587 H   0  0  0  0  0  0  0  0  0  0  0  0
  139.1038   72.2870  222.0153 H   0  0  0  0  0  0  0  0  0  0  0  0
  140.5988   71.2912  222.0153 H   0  0  0  0  0  0  0  0  0  0  0  0
  141.2047   72.1956  220.0438 H   0  0  0  0  0  0  0  0  0  0  0  0
  139.7156   73.1629  220.0135 H   0  0  0  0  0  0  0  0  0  0  0  0
  142.9223   72.1079  219.2176 H   0  0  0  0  0  0  0  0  0  0  0  0
  145.1062   70.8436  219.3619 H   0  0  0  0  0  0  0  0  0  0  0  0
  147.0598   71.9039  220.4209 H   0  0  0  0  0  0  0  0  0  0  0  0
  146.9516   74.2066  221.3541 H   0  0  0  0  0  0  0  0  0  0  0  0
  144.7987   75.4564  221.2112 H   0  0  0  0  0  0  0  0  0  0  0  0
  142.9021   75.3755  218.2854 H   0  0  0  0  0  0  0  0  0  0  0  0
  142.2783   77.1766  220.6450 H   0  0  0  0  0  0  0  0  0  0  0  0
  143.8767   76.8787  219.9426 H   0  0  0  0  0  0  0  0  0  0  0  0
  143.0705   78.8934  218.7881 H   0  0  0  0  0  0  0  0  0  0  0  0
  142.7715   77.6469  217.6078 H   0  0  0  0  0  0  0  0  0  0  0  0
  138.7090   79.6463  218.4794 H   0  0  0  0  0  0  0  0  0  0  0  0
  138.2990   81.7460  218.5840 H   0  0  0  0  0  0  0  0  0  0  0  0
  140.0090   81.9140  218.9230 H   0  0  0  0  0  0  0  0  0  0  0  0
  138.0923   80.2753  221.0522 H   0  0  0  0  0  0  0  0  0  0  0  0
  138.0657   78.6273  220.2947 H   0  0  0  0  0  0  0  0  0  0  0  0
  139.1758   76.8518  221.4035 H   0  0  0  0  0  0  0  0  0  0  0  0
  143.0846   79.3146  224.5207 H   0  0  0  0  0  0  0  0  0  0  0  0
  143.3283   81.8171  224.2900 H   0  0  0  0  0  0  0  0  0  0  0  0
  141.7904   82.9527  222.6926 H   0  0  0  0  0  0  0  0  0  0  0  0
  140.1218   81.7497  221.4009 H   0  0  0  0  0  0  0  0  0  0  0  0
  139.5349   77.0495  219.5808 H   0  0  0  0  0  0  0  0  0  0  0  0
  139.7569   77.0972  217.7338 H   0  0  0  0  0  0  0  0  0  0  0  0
  140.3079   75.0572  219.3881 H   0  0  0  0  0  0  0  0  0  0  0  0
  140.9450   75.4436  217.6668 H   0  0  0  0  0  0  0  0  0  0  0  0
  1  2  1  0
  2  3  1  0
  3  4  2  0
  3  5  1  0
  5  6  1  0
  6  7  2  0
  7  8  1  0
  8  9  2  0
  9 10  1  0
 10 11  2  0
  5 12  1  0
 12 13  1  0
 13 14  1  0
 14 15  1  0
 15 16  1  0
 16 17  2  0
 16 18  1  0
 18 19  1  0
 18 20  1  0
 20 21  1  0
 21 22  2  0
 22 23  1  0
 23 24  1  0
 24 25  2  0
 25 26  1  0
 26 27  2  0
 27 28  1  0
 28 29  2  0
 15 30  1  0
 30 31  1  0
 11  6  1  0
 31 12  1  0
 29 21  1  0
 29 24  1  0
  1 32  1  0
  1 33  1  0
  1 34  1  0
  2 35  1  0
  2 36  1  0
  7 37  1  0
  8 38  1  0
  9 39  1  0
 10 40  1  0
 11 41  1  0
 12 42  1  0
 13 43  1  0
 13 44  1  0
 14 45  1  0
 14 46  1  0
 18 47  1  6
 19 48  1  0
 19 49  1  0
 20 50  1  0
 20 51  1  0
 22 52  1  0
 25 53  1  0
 26 54  1  0
 27 55  1  0
 28 56  1  0
 30 57  1  0
 30 58  1  0
 31 59  1  0
 31 60  1  0
M  END
>  <smiles>  (47) 
CCC(=O)N(c1ccccc1)C1CCN(C(=O)[C@H](N)Cc2csc3ccccc23)CC1

>  <score_type>  (47) 
oracle

>  <origin>  (47) 
autodockgpu

>  <m_score__min__energy>  (47) 
-9.4100000000000001

>  <m_primary>  (47) 
energy

>  <rmsd>  (47) 
4.999986191908611

>  <m_score__min__rmsd>  (47) 
4.999986191908611

>  <meeko>  (47) 
{"free_energy": -6.28, "intermolecular_energy": -8.67, "internal_energy": -3.25, "cluster_size": 4, "cluster_id": 8, "rank_in_cluster": 4}

>  <energy>  (47) 
-6.39

>  <cluster_rmsd>  (47) 
0.28

>  <cluster>  (47) 
9

$$$$

     RDKit          3D

 60 63  0  0  0  0  0  0  0  0999 V2000
  144.0890   74.5460  217.4600 C   0  0  0  0  0  0  0  0  0  0  0  0
  145.0970   73.4430  217.2670 C   0  0  0  0  0  0  0  0  0  0  0  0
  145.1700   72.6960  218.5660 C   0  0  0  0  0  0  0  0  0  0  0  0
  146.1600   72.9630  219.2950 O   0  0  0  0  0  0  0  0  0  0  0  0
  144.1660   71.7400  218.9300 N   0  0  0  0  0  0  0  0  0  0  0  0
  144.4550   70.3450  218.9880 C   0  0  0  0  0  0  0  0  0  0  0  0
  145.1180   69.8260  217.8770 C   0  0  0  0  0  0  0  0  0  0  0  0
  145.4160   68.4570  217.8900 C   0  0  0  0  0  0  0  0  0  0  0  0
  145.0500   67.6910  218.9770 C   0  0  0  0  0  0  0  0  0  0  0  0
  144.3880   68.2230  220.0800 C   0  0  0  0  0  0  0  0  0  0  0  0
  144.0940   69.5690  220.0690 C   0  0  0  0  0  0  0  0  0  0  0  0
  142.8440   72.2720  219.2420 C   0  0  0  0  0  0  0  0  0  0  0  0
  142.7860   72.8710  220.6130 C   0  0  0  0  0  0  0  0  0  0  0  0
  141.3440   73.3790  220.7920 C   0  0  0  0  0  0  0  0  0  0  0  0
  140.6120   72.1180  221.0710 N   0  0  0  0  0  0  0  0  0  0  0  0
  139.8990   72.0800  222.2740 C   0  0  0  0  0  0  0  0  0  0  0  0
  139.9550   73.1490  222.9890 O   0  0  0  0  0  0  0  0  0  0  0  0
  139.0960   70.9840  222.8340 C   0  0  2  0  0  0  0  0  0  0  0  0
  138.1100   71.3310  223.7900 N   0  0  0  0  0  0  0  0  0  0  0  0
  139.9350   69.7710  223.1650 C   0  0  0  0  0  0  0  0  0  0  0  0
  139.8930   69.4420  224.6500 C   0  0  0  0  0  0  0  0  0  0  0  0
  139.3330   68.2290  225.0310 C   0  0  0  0  0  0  0  0  0  0  0  0
  139.4050   68.2110  226.8390 S   0  0  0  0  0  0  0  0  0  0  0  0
  140.1790   69.8280  226.9280 C   0  0  0  0  0  0  0  0  0  0  0  0
  140.5700   70.5270  228.0460 C   0  0  0  0  0  0  0  0  0  0  0  0
  141.1670   71.7730  227.9170 C   0  0  0  0  0  0  0  0  0  0  0  0
  141.3240   72.2210  226.6160 C   0  0  0  0  0  0  0  0  0  0  0  0
  140.9310   71.5140  225.5110 C   0  0  0  0  0  0  0  0  0  0  0  0
  140.3200   70.2440  225.6420 C   0  0  0  0  0  0  0  0  0  0  0  0
  140.7350   71.1030  220.0820 C   0  0  0  0  0  0  0  0  0  0  0  0
  141.7680   71.2790  219.0410 C   0  0  0  0  0  0  0  0  0  0  0  0
  143.9333   74.7164  218.5355 H   0  0  0  0  0  0  0  0  0  0  0  0
  144.4619   75.4694  216.9927 H   0  0  0  0  0  0  0  0  0  0  0  0
  143.1359   74.2576  216.9927 H   0  0  0  0  0  0  0  0  0  0  0  0
  144.7728   72.7697  216.4598 H   0  0  0  0  0  0  0  0  0  0  0  0
  146.0803   73.8491  216.9874 H   0  0  0  0  0  0  0  0  0  0  0  0
  145.3956   70.4647  217.0255 H   0  0  0  0  0  0  0  0  0  0  0  0
  145.9385   67.9961  217.0388 H   0  0  0  0  0  0  0  0  0  0  0  0
  145.2906   66.6177  218.9722 H   0  0  0  0  0  0  0  0  0  0  0  0
  144.1083   67.5884  220.9339 H   0  0  0  0  0  0  0  0  0  0  0  0
  143.5711   70.0246  220.9228 H   0  0  0  0  0  0  0  0  0  0  0  0
  142.6662   73.0834  218.5208 H   0  0  0  0  0  0  0  0  0  0  0  0
  143.0208   72.1109  221.3727 H   0  0  0  0  0  0  0  0  0  0  0  0
  143.5175   73.6842  220.7292 H   0  0  0  0  0  0  0  0  0  0  0  0
  141.2682   74.0814  221.6352 H   0  0  0  0  0  0  0  0  0  0  0  0
  140.9571   73.9374  219.9268 H   0  0  0  0  0  0  0  0  0  0  0  0
  138.4405   70.6795  222.0048 H   0  0  0  0  0  0  0  0  0  0  0  0
  138.0770   72.2740  224.1530 H   0  0  0  0  0  0  0  0  0  0  0  0
  137.9200   70.5520  224.4340 H   0  0  0  0  0  0  0  0  0  0  0  0
  139.5532   68.9088  222.5985 H   0  0  0  0  0  0  0  0  0  0  0  0
  140.9777   69.9925  222.8936 H   0  0  0  0  0  0  0  0  0  0  0  0
  138.9307   67.4450  224.3726 H   0  0  0  0  0  0  0  0  0  0  0  0
  140.4090   70.0970  229.0456 H   0  0  0  0  0  0  0  0  0  0  0  0
  141.4925   72.3630  228.7864 H   0  0  0  0  0  0  0  0  0  0  0  0
  141.7926   73.2040  226.4609 H   0  0  0  0  0  0  0  0  0  0  0  0
  141.0922   71.9384  224.5091 H   0  0  0  0  0  0  0  0  0  0  0  0
  140.9529   70.1600  220.6047 H   0  0  0  0  0  0  0  0  0  0  0  0
  139.7814   71.1319  219.5345 H   0  0  0  0  0  0  0  0  0  0  0  0
  142.2556   70.3022  218.9062 H   0  0  0  0  0  0  0  0  0  0  0  0
  141.2052   71.6787  218.1846 H   0  0  0  0  0  0  0  0  0  0  0  0
  1  2  1  0
  2  3  1  0
  3  4  2  0
  3  5  1  0
  5  6  1  0
  6  7  2  0
  7  8  1  0
  8  9  2  0
  9 10  1  0
 10 11  2  0
  5 12  1  0
 12 13  1  0
 13 14  1  0
 14 15  1  0
 15 16  1  0
 16 17  2  0
 16 18  1  0
 18 19  1  0
 18 20  1  0
 20 21  1  0
 21 22  2  0
 22 23  1  0
 23 24  1  0
 24 25  2  0
 25 26  1  0
 26 27  2  0
 27 28  1  0
 28 29  2  0
 15 30  1  0
 30 31  1  0
 11  6  1  0
 31 12  1  0
 29 21  1  0
 29 24  1  0
  1 32  1  0
  1 33  1  0
  1 34  1  0
  2 35  1  0
  2 36  1  0
  7 37  1  0
  8 38  1  0
  9 39  1  0
 10 40  1  0
 11 41  1  0
 12 42  1  0
 13 43  1  0
 13 44  1  0
 14 45  1  0
 14 46  1  0
 18 47  1  6
 19 48  1  0
 19 49  1  0
 20 50  1  0
 20 51  1  0
 22 52  1  0
 25 53  1  0
 26 54  1  0
 27 55  1  0
 28 56  1  0
 30 57  1  0
 30 58  1  0
 31 59  1  0
 31 60  1  0
M  END
>  <smiles>  (48) 
CCC(=O)N(c1ccccc1)C1CCN(C(=O)[C@H](N)Cc2csc3ccccc23)CC1

>  <score_type>  (48) 
oracle

>  <origin>  (48) 
autodockgpu

>  <m_score__min__energy>  (48) 
-9.4100000000000001

>  <m_primary>  (48) 
energy

>  <rmsd>  (48) 
8.59400656446165

>  <m_score__min__rmsd>  (48) 
8.59400656446165

>  <meeko>  (48) 
{"free_energy": -7.73, "intermolecular_energy": -10.11, "internal_energy": -2.23, "cluster_size": 11, "cluster_id": 1, "rank_in_cluster": 10}

>  <energy>  (48) 
-6.32

>  <cluster_rmsd>  (48) 
0.41

>  <cluster>  (48) 
9

$$$$

     RDKit          3D

 60 63  0  0  0  0  0  0  0  0999 V2000
  145.9870   74.1610  220.8490 C   0  0  0  0  0  0  0  0  0  0  0  0
  145.8130   72.6650  220.8530 C   0  0  0  0  0  0  0  0  0  0  0  0
  145.3790   72.2780  219.4700 C   0  0  0  0  0  0  0  0  0  0  0  0
  145.9740   72.8610  218.5270 O   0  0  0  0  0  0  0  0  0  0  0  0
  144.3480   71.3060  219.2610 N   0  0  0  0  0  0  0  0  0  0  0  0
  144.6570   69.9350  219.0180 C   0  0  0  0  0  0  0  0  0  0  0  0
  145.1680   69.6540  217.7520 C   0  0  0  0  0  0  0  0  0  0  0  0
  145.4800   68.3180  217.4690 C   0  0  0  0  0  0  0  0  0  0  0  0
  145.2750   67.3520  218.4320 C   0  0  0  0  0  0  0  0  0  0  0  0
  144.7640   67.6480  219.6930 C   0  0  0  0  0  0  0  0  0  0  0  0
  144.4570   68.9610  219.9720 C   0  0  0  0  0  0  0  0  0  0  0  0
  142.9730   71.7920  219.3160 C   0  0  0  0  0  0  0  0  0  0  0  0
  142.7420   72.7000  220.4840 C   0  0  0  0  0  0  0  0  0  0  0  0
  141.2630   73.1210  220.4060 C   0  0  0  0  0  0  0  0  0  0  0  0
  140.5770   71.9120  220.9260 N   0  0  0  0  0  0  0  0  0  0  0  0
  139.7470   72.1120  222.0350 C   0  0  0  0  0  0  0  0  0  0  0  0
  139.6700   73.3230  222.4630 O   0  0  0  0  0  0  0  0  0  0  0  0
  138.9520   71.1250  222.7790 C   0  0  2  0  0  0  0  0  0  0  0  0
  137.8720   71.6190  223.5520 N   0  0  0  0  0  0  0  0  0  0  0  0
  139.8150   70.0800  223.4460 C   0  0  0  0  0  0  0  0  0  0  0  0
  140.2780   70.5250  224.8260 C   0  0  0  0  0  0  0  0  0  0  0  0
  140.7010   71.8400  224.9770 C   0  0  0  0  0  0  0  0  0  0  0  0
  141.2190   71.9840  226.7040 S   0  0  0  0  0  0  0  0  0  0  0  0
  140.8240   70.2740  227.0750 C   0  0  0  0  0  0  0  0  0  0  0  0
  140.9530   69.6070  228.2710 C   0  0  0  0  0  0  0  0  0  0  0  0
  140.5840   68.2730  228.3700 C   0  0  0  0  0  0  0  0  0  0  0  0
  140.0960   67.7060  227.2040 C   0  0  0  0  0  0  0  0  0  0  0  0
  139.9720   68.3820  226.0200 C   0  0  0  0  0  0  0  0  0  0  0  0
  140.3510   69.7420  225.9170 C   0  0  0  0  0  0  0  0  0  0  0  0
  140.8560   70.7010  220.2360 C   0  0  0  0  0  0  0  0  0  0  0  0
  141.9790   70.6990  219.2760 C   0  0  0  0  0  0  0  0  0  0  0  0
  146.0297   74.5279  221.8851 H   0  0  0  0  0  0  0  0  0  0  0  0
  146.9213   74.4201  220.3295 H   0  0  0  0  0  0  0  0  0  0  0  0
  145.1371   74.6276  220.3295 H   0  0  0  0  0  0  0  0  0  0  0  0
  146.7646   72.1733  221.1032 H   0  0  0  0  0  0  0  0  0  0  0  0
  145.0697   72.3550  221.6023 H   0  0  0  0  0  0  0  0  0  0  0  0
  145.3199   70.4482  217.0062 H   0  0  0  0  0  0  0  0  0  0  0  0
  145.8860   68.0410  216.4849 H   0  0  0  0  0  0  0  0  0  0  0  0
  145.5248   66.3074  218.1946 H   0  0  0  0  0  0  0  0  0  0  0  0
  144.6104   66.8578  220.4427 H   0  0  0  0  0  0  0  0  0  0  0  0
  144.0515   69.2327  220.9578 H   0  0  0  0  0  0  0  0  0  0  0  0
  142.8258   72.3872  218.4027 H   0  0  0  0  0  0  0  0  0  0  0  0
  142.9392   72.1684  221.4266 H   0  0  0  0  0  0  0  0  0  0  0  0
  143.4119   73.5720  220.4560 H   0  0  0  0  0  0  0  0  0  0  0  0
  141.0623   73.9987  221.0380 H   0  0  0  0  0  0  0  0  0  0  0  0
  140.9370   73.4205  219.3990 H   0  0  0  0  0  0  0  0  0  0  0  0
  138.3851   70.5933  222.0006 H   0  0  0  0  0  0  0  0  0  0  0  0
  136.9730   71.1590  223.5050 H   0  0  0  0  0  0  0  0  0  0  0  0
  137.8940   72.6450  223.6170 H   0  0  0  0  0  0  0  0  0  0  0  0
  139.2346   69.1511  223.5477 H   0  0  0  0  0  0  0  0  0  0  0  0
  140.7063   69.9233  222.8207 H   0  0  0  0  0  0  0  0  0  0  0  0
  140.7174   72.6270  224.2087 H   0  0  0  0  0  0  0  0  0  0  0  0
  141.3500   70.1328  229.1519 H   0  0  0  0  0  0  0  0  0  0  0  0
  140.6727   67.7057  229.3082 H   0  0  0  0  0  0  0  0  0  0  0  0
  139.7899   66.6498  227.2311 H   0  0  0  0  0  0  0  0  0  0  0  0
  139.5726   67.8615  225.1371 H   0  0  0  0  0  0  0  0  0  0  0  0
  141.0708   69.9333  220.9940 H   0  0  0  0  0  0  0  0  0  0  0  0
  139.9633   70.5214  219.6189 H   0  0  0  0  0  0  0  0  0  0  0  0
  142.5301   69.7596  219.4304 H   0  0  0  0  0  0  0  0  0  0  0  0
  141.4861   70.8338  218.3019 H   0  0  0  0  0  0  0  0  0  0  0  0
  1  2  1  0
  2  3  1  0
  3  4  2  0
  3  5  1  0
  5  6  1  0
  6  7  2  0
  7  8  1  0
  8  9  2  0
  9 10  1  0
 10 11  2  0
  5 12  1  0
 12 13  1  0
 13 14  1  0
 14 15  1  0
 15 16  1  0
 16 17  2  0
 16 18  1  0
 18 19  1  0
 18 20  1  0
 20 21  1  0
 21 22  2  0
 22 23  1  0
 23 24  1  0
 24 25  2  0
 25 26  1  0
 26 27  2  0
 27 28  1  0
 28 29  2  0
 15 30  1  0
 30 31  1  0
 11  6  1  0
 31 12  1  0
 29 21  1  0
 29 24  1  0
  1 32  1  0
  1 33  1  0
  1 34  1  0
  2 35  1  0
  2 36  1  0
  7 37  1  0
  8 38  1  0
  9 39  1  0
 10 40  1  0
 11 41  1  0
 12 42  1  0
 13 43  1  0
 13 44  1  0
 14 45  1  0
 14 46  1  0
 18 47  1  6
 19 48  1  0
 19 49  1  0
 20 50  1  0
 20 51  1  0
 22 52  1  0
 25 53  1  0
 26 54  1  0
 27 55  1  0
 28 56  1  0
 30 57  1  0
 30 58  1  0
 31 59  1  0
 31 60  1  0
M  END
>  <smiles>  (49) 
CCC(=O)N(c1ccccc1)C1CCN(C(=O)[C@H](N)Cc2csc3ccccc23)CC1

>  <score_type>  (49) 
oracle

>  <origin>  (49) 
autodockgpu

>  <m_score__min__energy>  (49) 
-9.4100000000000001

>  <m_primary>  (49) 
energy

>  <rmsd>  (49) 
8.509161934626993

>  <m_score__min__rmsd>  (49) 
8.509161934626993

>  <meeko>  (49) 
{"free_energy": -9.1, "intermolecular_energy": -11.48, "internal_energy": -2.17, "cluster_size": 11, "cluster_id": 1, "rank_in_cluster": 3}

>  <energy>  (49) 
-6.21

>  <cluster_rmsd>  (49) 
0.0

>  <cluster>  (49) 
10

$$$$

     RDKit          3D

 60 63  0  0  0  0  0  0  0  0999 V2000
  139.3170   68.0050  221.6390 C   0  0  0  0  0  0  0  0  0  0  0  0
  138.3730   67.5840  222.7350 C   0  0  0  0  0  0  0  0  0  0  0  0
  138.8770   68.2120  224.0010 C   0  0  0  0  0  0  0  0  0  0  0  0
  139.4100   67.4260  224.8260 O   0  0  0  0  0  0  0  0  0  0  0  0
  138.7450   69.6190  224.2360 N   0  0  0  0  0  0  0  0  0  0  0  0
  139.4620   70.2670  225.2850 C   0  0  0  0  0  0  0  0  0  0  0  0
  139.2030   69.7900  226.5680 C   0  0  0  0  0  0  0  0  0  0  0  0
  139.8810   70.4030  227.6290 C   0  0  0  0  0  0  0  0  0  0  0  0
  140.7610   71.4340  227.3700 C   0  0  0  0  0  0  0  0  0  0  0  0
  141.0090   71.9000  226.0820 C   0  0  0  0  0  0  0  0  0  0  0  0
  140.3430   71.2980  225.0380 C   0  0  0  0  0  0  0  0  0  0  0  0
  137.8490   70.3460  223.3440 C   0  0  0  0  0  0  0  0  0  0  0  0
  138.4560   71.6240  222.8540 C   0  0  0  0  0  0  0  0  0  0  0  0
  137.3990   72.2700  221.9380 C   0  0  0  0  0  0  0  0  0  0  0  0
  136.4510   72.8410  222.9270 N   0  0  0  0  0  0  0  0  0  0  0  0
  136.2200   74.2170  222.8260 C   0  0  0  0  0  0  0  0  0  0  0  0
  136.8500   74.8210  221.8800 O   0  0  0  0  0  0  0  0  0  0  0  0
  135.3570   75.0690  223.6560 C   0  0  2  0  0  0  0  0  0  0  0  0
  135.2270   76.4260  223.2700 N   0  0  0  0  0  0  0  0  0  0  0  0
  135.5590   74.8220  225.1330 C   0  0  0  0  0  0  0  0  0  0  0  0
  134.2740   75.0280  225.9230 C   0  0  0  0  0  0  0  0  0  0  0  0
  133.8830   76.3330  226.1970 C   0  0  0  0  0  0  0  0  0  0  0  0
  132.3720   76.1870  227.1820 S   0  0  0  0  0  0  0  0  0  0  0  0
  132.3950   74.3930  227.1400 C   0  0  0  0  0  0  0  0  0  0  0  0
  131.4990   73.5150  227.7040 C   0  0  0  0  0  0  0  0  0  0  0  0
  131.6770   72.1470  227.5580 C   0  0  0  0  0  0  0  0  0  0  0  0
  132.7890   71.7700  226.8230 C   0  0  0  0  0  0  0  0  0  0  0  0
  133.6730   72.6550  226.2670 C   0  0  0  0  0  0  0  0  0  0  0  0
  133.4940   74.0520  226.4170 C   0  0  0  0  0  0  0  0  0  0  0  0
  135.9020   71.9170  223.8580 C   0  0  0  0  0  0  0  0  0  0  0  0
  136.5150   70.5750  223.9380 C   0  0  0  0  0  0  0  0  0  0  0  0
  140.2358   68.4148  222.0838 H   0  0  0  0  0  0  0  0  0  0  0  0
  139.5680   67.1335  221.0165 H   0  0  0  0  0  0  0  0  0  0  0  0
  138.8364   68.7741  221.0165 H   0  0  0  0  0  0  0  0  0  0  0  0
  137.3548   67.9377  222.5153 H   0  0  0  0  0  0  0  0  0  0  0  0
  138.3333   66.4884  222.8247 H   0  0  0  0  0  0  0  0  0  0  0  0
  138.4952   68.9659  226.7405 H   0  0  0  0  0  0  0  0  0  0  0  0
  139.7132   70.0649  228.6622 H   0  0  0  0  0  0  0  0  0  0  0  0
  141.2865   71.9055  228.2135 H   0  0  0  0  0  0  0  0  0  0  0  0
  141.7155   72.7241  225.9036 H   0  0  0  0  0  0  0  0  0  0  0  0
  140.5140   71.6399  224.0066 H   0  0  0  0  0  0  0  0  0  0  0  0
  137.6995   69.6959  222.4693 H   0  0  0  0  0  0  0  0  0  0  0  0
  138.6856   72.2877  223.7006 H   0  0  0  0  0  0  0  0  0  0  0  0
  139.3990   71.4433  222.3174 H   0  0  0  0  0  0  0  0  0  0  0  0
  137.8413   73.0551  221.3072 H   0  0  0  0  0  0  0  0  0  0  0  0
  136.9351   71.5690  221.2285 H   0  0  0  0  0  0  0  0  0  0  0  0
  134.3383   74.7216  223.4290 H   0  0  0  0  0  0  0  0  0  0  0  0
  135.7310   76.7650  222.4620 H   0  0  0  0  0  0  0  0  0  0  0  0
  135.1430   77.0440  224.0880 H   0  0  0  0  0  0  0  0  0  0  0  0
  135.9031   73.7872  225.2769 H   0  0  0  0  0  0  0  0  0  0  0  0
  136.3048   75.5421  225.5006 H   0  0  0  0  0  0  0  0  0  0  0  0
  134.3858   77.2592  225.8817 H   0  0  0  0  0  0  0  0  0  0  0  0
  130.6389   73.8986  228.2724 H   0  0  0  0  0  0  0  0  0  0  0  0
  130.9839   71.4132  227.9952 H   0  0  0  0  0  0  0  0  0  0  0  0
  132.9726   70.6952  226.6774 H   0  0  0  0  0  0  0  0  0  0  0  0
  134.5337   72.2763  225.6962 H   0  0  0  0  0  0  0  0  0  0  0  0
  135.9778   72.3726  224.8563 H   0  0  0  0  0  0  0  0  0  0  0  0
  134.8792   71.7339  223.4970 H   0  0  0  0  0  0  0  0  0  0  0  0
  136.5929   70.3223  225.0057 H   0  0  0  0  0  0  0  0  0  0  0  0
  135.8491   69.9506  223.3243 H   0  0  0  0  0  0  0  0  0  0  0  0
  1  2  1  0
  2  3  1  0
  3  4  2  0
  3  5  1  0
  5  6  1  0
  6  7  2  0
  7  8  1  0
  8  9  2  0
  9 10  1  0
 10 11  2  0
  5 12  1  0
 12 13  1  0
 13 14  1  0
 14 15  1  0
 15 16  1  0
 16 17  2  0
 16 18  1  0
 18 19  1  0
 18 20  1  0
 20 21  1  0
 21 22  2  0
 22 23  1  0
 23 24  1  0
 24 25  2  0
 25 26  1  0
 26 27  2  0
 27 28  1  0
 28 29  2  0
 15 30  1  0
 30 31  1  0
 11  6  1  0
 31 12  1  0
 29 21  1  0
 29 24  1  0
  1 32  1  0
  1 33  1  0
  1 34  1  0
  2 35  1  0
  2 36  1  0
  7 37  1  0
  8 38  1  0
  9 39  1  0
 10 40  1  0
 11 41  1  0
 12 42  1  0
 13 43  1  0
 13 44  1  0
 14 45  1  0
 14 46  1  0
 18 47  1  6
 19 48  1  0
 19 49  1  0
 20 50  1  0
 20 51  1  0
 22 52  1  0
 25 53  1  0
 26 54  1  0
 27 55  1  0
 28 56  1  0
 30 57  1  0
 30 58  1  0
 31 59  1  0
 31 60  1  0
M  END
>  <smiles>  (50) 
CCC(=O)N(c1ccccc1)C1CCN(C(=O)[C@H](N)Cc2csc3ccccc23)CC1

>  <score_type>  (50) 
oracle

>  <origin>  (50) 
autodockgpu

>  <m_score__min__energy>  (50) 
-9.4100000000000001

>  <m_primary>  (50) 
energy

>  <rmsd>  (50) 
9.466489752772853

>  <m_score__min__rmsd>  (50) 
9.466489752772853

>  <meeko>  (50) 
{"free_energy": -7.08, "intermolecular_energy": -9.47, "internal_energy": -2.14, "cluster_size": 1, "cluster_id": 7, "rank_in_cluster": 1}

>  <energy>  (50) 
-6.13

>  <cluster_rmsd>  (50) 
0.0

>  <cluster>  (50) 
11

$$$$
