
     RDKit          3D

 70 74  0  0  0  0  0  0  0  0999 V2000
  138.4030   68.0470  222.5620 C   0  0  0  0  0  0  0  0  0  0  0  0
  138.9020   68.2400  223.9740 C   0  0  0  0  0  0  0  0  0  0  0  0
  138.3770   69.5290  224.4980 C   0  0  0  0  0  0  0  0  0  0  0  0
  137.1340   69.5830  224.7050 O   0  0  0  0  0  0  0  0  0  0  0  0
  139.2430   70.6410  224.7500 N   0  0  0  0  0  0  0  0  0  0  0  0
  139.9380   70.6670  225.9900 C   0  0  0  0  0  0  0  0  0  0  0  0
  140.6760   71.8240  226.2540 C   0  0  0  0  0  0  0  0  0  0  0  0
  141.3760   71.9130  227.4390 C   0  0  0  0  0  0  0  0  0  0  0  0
  141.3670   70.8960  228.3660 C   0  0  0  0  0  0  0  0  0  0  0  0
  140.6310   69.7450  228.1020 C   0  0  0  0  0  0  0  0  0  0  0  0
  139.9200   69.6480  226.9040 C   0  0  0  0  0  0  0  0  0  0  0  0
  139.3480   71.6410  223.7330 C   0  0  0  0  0  0  0  0  0  0  0  0
  140.6910   71.4950  223.0470 C   0  0  0  0  0  0  0  0  0  0  0  0
  140.6440   72.1770  221.6920 C   0  0  0  0  0  0  0  0  0  0  0  0
  139.6730   73.2840  221.7210 N   0  0  0  0  0  0  0  0  0  0  0  0
  140.1780   74.5780  221.5630 C   0  0  0  0  0  0  0  0  0  0  0  0
  141.4470   74.6830  221.4160 O   0  0  0  0  0  0  0  0  0  0  0  0
  139.4270   75.8530  221.5440 C   0  0  2  0  0  0  0  0  0  0  0  0
  138.8380   76.1810  220.2900 N   0  0  0  0  0  0  0  0  0  0  0  0
  140.1180   76.9350  222.2800 C   0  0  2  0  0  0  0  0  0  0  0  0
  139.2390   78.1470  222.5160 C   0  0  0  0  0  0  0  0  0  0  0  0
  140.2650   79.1890  222.9070 C   0  0  0  0  0  0  0  0  0  0  0  0
  140.0490   80.3820  223.5660 C   0  0  0  0  0  0  0  0  0  0  0  0
  141.1040   81.2110  223.8490 C   0  0  0  0  0  0  0  0  0  0  0  0
  142.3570   80.8080  223.4580 C   0  0  0  0  0  0  0  0  0  0  0  0
  142.5910   79.6080  222.7930 C   0  0  0  0  0  0  0  0  0  0  0  0
  141.5240   78.7790  222.5110 C   0  0  0  0  0  0  0  0  0  0  0  0
  141.4180   77.4350  221.8130 C   0  0  2  0  0  0  0  0  0  0  0  0
  141.6690   77.5720  220.3850 C   0  0  0  0  0  0  0  0  0  0  0  0
  141.0490   78.4570  219.5360 C   0  0  0  0  0  0  0  0  0  0  0  0
  141.3480   78.5210  218.1800 C   0  0  0  0  0  0  0  0  0  0  0  0
  142.3060   77.6570  217.6750 C   0  0  0  0  0  0  0  0  0  0  0  0
  142.9210   76.7840  218.4960 N   0  0  0  0  0  0  0  0  0  0  0  0
  142.6270   76.7280  219.8110 C   0  0  0  0  0  0  0  0  0  0  0  0
  138.2970   72.9080  221.9230 C   0  0  0  0  0  0  0  0  0  0  0  0
  138.2800   71.5590  222.6640 C   0  0  0  0  0  0  0  0  0  0  0  0
  137.3773   67.6503  222.5866 H   0  0  0  0  0  0  0  0  0  0  0  0
  138.4101   69.0127  222.0354 H   0  0  0  0  0  0  0  0  0  0  0  0
  139.0581   67.3374  222.0354 H   0  0  0  0  0  0  0  0  0  0  0  0
  138.5486   67.4126  224.6069 H   0  0  0  0  0  0  0  0  0  0  0  0
  140.0019   68.2545  223.9821 H   0  0  0  0  0  0  0  0  0  0  0  0
  140.6982   72.6504  225.5284 H   0  0  0  0  0  0  0  0  0  0  0  0
  141.9579   72.8226  227.6490 H   0  0  0  0  0  0  0  0  0  0  0  0
  141.9343   70.9917  229.3036 H   0  0  0  0  0  0  0  0  0  0  0  0
  140.6094   68.9201  228.8294 H   0  0  0  0  0  0  0  0  0  0  0  0
  139.3370   68.7397  226.6917 H   0  0  0  0  0  0  0  0  0  0  0  0
  139.2260   72.6080  224.2429 H   0  0  0  0  0  0  0  0  0  0  0  0
  141.4714   71.9621  223.6657 H   0  0  0  0  0  0  0  0  0  0  0  0
  140.9197   70.4275  222.9123 H   0  0  0  0  0  0  0  0  0  0  0  0
  141.6410   72.5727  221.4481 H   0  0  0  0  0  0  0  0  0  0  0  0
  140.3371   71.4461  220.9293 H   0  0  0  0  0  0  0  0  0  0  0  0
  138.5193   75.6912  222.1439 H   0  0  0  0  0  0  0  0  0  0  0  0
  139.3180   75.7830  219.4790 H   0  0  0  0  0  0  0  0  0  0  0  0
  138.6330   77.1780  220.1180 H   0  0  0  0  0  0  0  0  0  0  0  0
  140.3427   76.3677  223.1952 H   0  0  0  0  0  0  0  0  0  0  0  0
  138.6995   78.4367  221.6022 H   0  0  0  0  0  0  0  0  0  0  0  0
  138.4492   77.9904  223.2655 H   0  0  0  0  0  0  0  0  0  0  0  0
  139.0297   80.6682  223.8645 H   0  0  0  0  0  0  0  0  0  0  0  0
  140.9516   82.1668  224.3717 H   0  0  0  0  0  0  0  0  0  0  0  0
  143.2131   81.4620  223.6800 H   0  0  0  0  0  0  0  0  0  0  0  0
  143.6116   79.3243  222.4964 H   0  0  0  0  0  0  0  0  0  0  0  0
  142.1793   76.6782  222.0533 H   0  0  0  0  0  0  0  0  0  0  0  0
  140.2888   79.1393  219.9441 H   0  0  0  0  0  0  0  0  0  0  0  0
  140.8363   79.2403  217.5237 H   0  0  0  0  0  0  0  0  0  0  0  0
  142.5638   77.6838  216.6060 H   0  0  0  0  0  0  0  0  0  0  0  0
  143.1527   76.0015  220.4480 H   0  0  0  0  0  0  0  0  0  0  0  0
  137.7852   73.6724  222.5262 H   0  0  0  0  0  0  0  0  0  0  0  0
  137.7772   72.8218  220.9574 H   0  0  0  0  0  0  0  0  0  0  0  0
  137.2949   71.3905  223.1235 H   0  0  0  0  0  0  0  0  0  0  0  0
  138.4720   70.7242  221.9739 H   0  0  0  0  0  0  0  0  0  0  0  0
  1  2  1  0
  2  3  1  0
  3  4  2  0
  3  5  1  0
  5  6  1  0
  6  7  2  0
  7  8  1  0
  8  9  2  0
  9 10  1  0
 10 11  2  0
  5 12  1  0
 12 13  1  0
 13 14  1  0
 14 15  1  0
 15 16  1  0
 16 17  2  0
 16 18  1  0
 18 19  1  0
 18 20  1  0
 20 21  1  0
 21 22  1  0
 22 23  2  0
 23 24  1  0
 24 25  2  0
 25 26  1  0
 26 27  2  0
 27 28  1  0
 28 29  1  0
 29 30  2  0
 30 31  1  0
 31 32  2  0
 32 33  1  0
 33 34  2  0
 15 35  1  0
 35 36  1  0
 11  6  1  0
 36 12  1  0
 28 20  1  0
 34 29  1  0
 27 22  1  0
  1 37  1  0
  1 38  1  0
  1 39  1  0
  2 40  1  0
  2 41  1  0
  7 42  1  0
  8 43  1  0
  9 44  1  0
 10 45  1  0
 11 46  1  0
 12 47  1  0
 13 48  1  0
 13 49  1  0
 14 50  1  0
 14 51  1  0
 18 52  1  1
 19 53  1  0
 19 54  1  0
 20 55  1  1
 21 56  1  0
 21 57  1  0
 23 58  1  0
 24 59  1  0
 25 60  1  0
 26 61  1  0
 28 62  1  1
 30 63  1  0
 31 64  1  0
 32 65  1  0
 34 66  1  0
 35 67  1  0
 35 68  1  0
 36 69  1  0
 36 70  1  0
M  END
>  <smiles>  (1) 
CCC(=O)N(c1ccccc1)C1CCN(C(=O)[C@H](N)C2Cc3ccccc3C2c2cccnc2)CC1

>  <score_type>  (1) 
oracle

>  <origin>  (1) 
autodockgpu

>  <m_score__min__energy>  (1) 
-9.3599999999999994

>  <m_primary>  (1) 
energy

>  <rmsd>  (1) 
5.410236775321672

>  <m_score__min__rmsd>  (1) 
5.410236775321672

>  <meeko>  (1) 
{"free_energy": -9.25, "intermolecular_energy": -11.64, "internal_energy": -2.32, "cluster_size": 36, "cluster_id": 1, "rank_in_cluster": 24}

>  <energy>  (1) 
-9.36

>  <cluster_rmsd>  (1) 
0.0

>  <cluster>  (1) 
1

$$$$

     RDKit          3D

 70 74  0  0  0  0  0  0  0  0999 V2000
  138.0670   67.9900  222.2350 C   0  0  0  0  0  0  0  0  0  0  0  0
  138.7970   68.1610  223.5460 C   0  0  0  0  0  0  0  0  0  0  0  0
  138.2670   69.3660  224.2380 C   0  0  0  0  0  0  0  0  0  0  0  0
  137.0330   69.3640  224.4970 O   0  0  0  0  0  0  0  0  0  0  0  0
  139.1190   70.4640  224.5850 N   0  0  0  0  0  0  0  0  0  0  0  0
  139.7540   70.4270  225.8570 C   0  0  0  0  0  0  0  0  0  0  0  0
  140.4370   71.5860  226.2330 C   0  0  0  0  0  0  0  0  0  0  0  0
  141.0780   71.6170  227.4550 C   0  0  0  0  0  0  0  0  0  0  0  0
  141.0620   70.5380  228.3090 C   0  0  0  0  0  0  0  0  0  0  0  0
  140.3810   69.3850  227.9340 C   0  0  0  0  0  0  0  0  0  0  0  0
  139.7300   69.3470  226.6980 C   0  0  0  0  0  0  0  0  0  0  0  0
  139.2710   71.5130  223.6260 C   0  0  0  0  0  0  0  0  0  0  0  0
  140.6550   71.4160  223.0160 C   0  0  0  0  0  0  0  0  0  0  0  0
  140.6800   72.1610  221.6950 C   0  0  0  0  0  0  0  0  0  0  0  0
  139.6940   73.2550  221.7180 N   0  0  0  0  0  0  0  0  0  0  0  0
  140.1890   74.5600  221.6530 C   0  0  0  0  0  0  0  0  0  0  0  0
  141.4630   74.6870  221.5890 O   0  0  0  0  0  0  0  0  0  0  0  0
  139.4230   75.8260  221.6490 C   0  0  2  0  0  0  0  0  0  0  0  0
  138.8000   76.1440  220.4090 N   0  0  0  0  0  0  0  0  0  0  0  0
  140.1170   76.9180  222.3660 C   0  0  2  0  0  0  0  0  0  0  0  0
  139.2510   78.1470  222.5610 C   0  0  0  0  0  0  0  0  0  0  0  0
  140.2850   79.1860  222.9390 C   0  0  0  0  0  0  0  0  0  0  0  0
  140.0760   80.3980  223.5640 C   0  0  0  0  0  0  0  0  0  0  0  0
  141.1380   81.2210  223.8400 C   0  0  0  0  0  0  0  0  0  0  0  0
  142.3900   80.7930  223.4750 C   0  0  0  0  0  0  0  0  0  0  0  0
  142.6170   79.5740  222.8430 C   0  0  0  0  0  0  0  0  0  0  0  0
  141.5430   78.7510  222.5680 C   0  0  0  0  0  0  0  0  0  0  0  0
  141.4300   77.3900  221.9030 C   0  0  2  0  0  0  0  0  0  0  0  0
  141.7000   77.4890  220.4750 C   0  0  0  0  0  0  0  0  0  0  0  0
  142.5930   76.7210  219.7660 C   0  0  0  0  0  0  0  0  0  0  0  0
  142.7920   76.8830  218.4000 C   0  0  0  0  0  0  0  0  0  0  0  0
  142.0610   77.8560  217.7380 C   0  0  0  0  0  0  0  0  0  0  0  0
  141.1830   78.6150  218.4210 N   0  0  0  0  0  0  0  0  0  0  0  0
  140.9940   78.4530  219.7470 C   0  0  0  0  0  0  0  0  0  0  0  0
  138.3140   72.8540  221.8170 C   0  0  0  0  0  0  0  0  0  0  0  0
  138.2700   71.4710  222.4910 C   0  0  0  0  0  0  0  0  0  0  0  0
  137.0132   67.7431  222.4316 H   0  0  0  0  0  0  0  0  0  0  0  0
  138.1232   68.9256  221.6593 H   0  0  0  0  0  0  0  0  0  0  0  0
  138.5329   67.1767  221.6593 H   0  0  0  0  0  0  0  0  0  0  0  0
  138.6379   67.2734  224.1759 H   0  0  0  0  0  0  0  0  0  0  0  0
  139.8745   68.2813  223.3601 H   0  0  0  0  0  0  0  0  0  0  0  0
  140.4636   72.4602  225.5658 H   0  0  0  0  0  0  0  0  0  0  0  0
  141.6160   72.5286  227.7543 H   0  0  0  0  0  0  0  0  0  0  0  0
  141.5819   70.5870  229.2771 H   0  0  0  0  0  0  0  0  0  0  0  0
  140.3550   68.5123  228.6031 H   0  0  0  0  0  0  0  0  0  0  0  0
  139.1909   68.4368  226.3967 H   0  0  0  0  0  0  0  0  0  0  0  0
  139.1052   72.4525  224.1737 H   0  0  0  0  0  0  0  0  0  0  0  0
  141.3900   71.8620  223.7022 H   0  0  0  0  0  0  0  0  0  0  0  0
  140.9065   70.3589  222.8450 H   0  0  0  0  0  0  0  0  0  0  0  0
  141.6843   72.5785  221.5306 H   0  0  0  0  0  0  0  0  0  0  0  0
  140.4293   71.4644  220.8814 H   0  0  0  0  0  0  0  0  0  0  0  0
  138.5323   75.6541  222.2711 H   0  0  0  0  0  0  0  0  0  0  0  0
  138.9310   75.4420  219.6760 H   0  0  0  0  0  0  0  0  0  0  0  0
  138.9810   77.0850  220.0250 H   0  0  0  0  0  0  0  0  0  0  0  0
  140.3216   76.3712  223.2983 H   0  0  0  0  0  0  0  0  0  0  0  0
  138.7265   78.4206  221.6336 H   0  0  0  0  0  0  0  0  0  0  0  0
  138.4505   78.0189  223.3045 H   0  0  0  0  0  0  0  0  0  0  0  0
  139.0567   80.7047  223.8413 H   0  0  0  0  0  0  0  0  0  0  0  0
  140.9913   82.1913  224.3371 H   0  0  0  0  0  0  0  0  0  0  0  0
  143.2515   81.4418  223.6915 H   0  0  0  0  0  0  0  0  0  0  0  0
  143.6375   79.2705  222.5665 H   0  0  0  0  0  0  0  0  0  0  0  0
  142.1786   76.6302  222.1720 H   0  0  0  0  0  0  0  0  0  0  0  0
  143.1705   75.9510  220.2986 H   0  0  0  0  0  0  0  0  0  0  0  0
  143.5128   76.2536  217.8574 H   0  0  0  0  0  0  0  0  0  0  0  0
  142.1974   78.0082  216.6572 H   0  0  0  0  0  0  0  0  0  0  0  0
  140.2677   79.0940  220.2681 H   0  0  0  0  0  0  0  0  0  0  0  0
  137.7556   73.5828  222.4228 H   0  0  0  0  0  0  0  0  0  0  0  0
  137.8559   72.8079  220.8180 H   0  0  0  0  0  0  0  0  0  0  0  0
  137.2613   71.2706  222.8813 H   0  0  0  0  0  0  0  0  0  0  0  0
  138.5140   70.6721  221.7753 H   0  0  0  0  0  0  0  0  0  0  0  0
  1  2  1  0
  2  3  1  0
  3  4  2  0
  3  5  1  0
  5  6  1  0
  6  7  2  0
  7  8  1  0
  8  9  2  0
  9 10  1  0
 10 11  2  0
  5 12  1  0
 12 13  1  0
 13 14  1  0
 14 15  1  0
 15 16  1  0
 16 17  2  0
 16 18  1  0
 18 19  1  0
 18 20  1  0
 20 21  1  0
 21 22  1  0
 22 23  2  0
 23 24  1  0
 24 25  2  0
 25 26  1  0
 26 27  2  0
 27 28  1  0
 28 29  1  0
 29 30  2  0
 30 31  1  0
 31 32  2  0
 32 33  1  0
 33 34  2  0
 15 35  1  0
 35 36  1  0
 11  6  1  0
 36 12  1  0
 28 20  1  0
 34 29  1  0
 27 22  1  0
  1 37  1  0
  1 38  1  0
  1 39  1  0
  2 40  1  0
  2 41  1  0
  7 42  1  0
  8 43  1  0
  9 44  1  0
 10 45  1  0
 11 46  1  0
 12 47  1  0
 13 48  1  0
 13 49  1  0
 14 50  1  0
 14 51  1  0
 18 52  1  1
 19 53  1  0
 19 54  1  0
 20 55  1  1
 21 56  1  0
 21 57  1  0
 23 58  1  0
 24 59  1  0
 25 60  1  0
 26 61  1  0
 28 62  1  1
 30 63  1  0
 31 64  1  0
 32 65  1  0
 34 66  1  0
 35 67  1  0
 35 68  1  0
 36 69  1  0
 36 70  1  0
M  END
>  <smiles>  (2) 
CCC(=O)N(c1ccccc1)C1CCN(C(=O)[C@H](N)C2Cc3ccccc3C2c2cccnc2)CC1

>  <score_type>  (2) 
oracle

>  <origin>  (2) 
autodockgpu

>  <m_score__min__energy>  (2) 
-9.3599999999999994

>  <m_primary>  (2) 
energy

>  <rmsd>  (2) 
5.41560607639454

>  <m_score__min__rmsd>  (2) 
5.41560607639454

>  <meeko>  (2) 
{"free_energy": -9.33, "intermolecular_energy": -11.71, "internal_energy": -2.3, "cluster_size": 36, "cluster_id": 1, "rank_in_cluster": 10}

>  <energy>  (2) 
-9.36

>  <cluster_rmsd>  (2) 
0.05

>  <cluster>  (2) 
1

$$$$

     RDKit          3D

 70 74  0  0  0  0  0  0  0  0999 V2000
  138.8390   68.3080  222.0620 C   0  0  0  0  0  0  0  0  0  0  0  0
  138.7080   68.1140  223.5540 C   0  0  0  0  0  0  0  0  0  0  0  0
  138.1890   69.3700  224.1580 C   0  0  0  0  0  0  0  0  0  0  0  0
  136.9420   69.4300  224.3340 O   0  0  0  0  0  0  0  0  0  0  0  0
  139.0650   70.4450  224.5160 N   0  0  0  0  0  0  0  0  0  0  0  0
  139.7220   70.3670  225.7750 C   0  0  0  0  0  0  0  0  0  0  0  0
  140.3930   71.5200  226.1860 C   0  0  0  0  0  0  0  0  0  0  0  0
  141.0550   71.5120  227.3970 C   0  0  0  0  0  0  0  0  0  0  0  0
  141.0710   70.3990  228.2070 C   0  0  0  0  0  0  0  0  0  0  0  0
  140.4020   69.2510  227.7960 C   0  0  0  0  0  0  0  0  0  0  0  0
  139.7300   69.2530  226.5710 C   0  0  0  0  0  0  0  0  0  0  0  0
  139.2160   71.5140  223.5800 C   0  0  0  0  0  0  0  0  0  0  0  0
  140.5950   71.4240  222.9590 C   0  0  0  0  0  0  0  0  0  0  0  0
  140.6150   72.1990  221.6550 C   0  0  0  0  0  0  0  0  0  0  0  0
  139.6350   73.2970  221.7090 N   0  0  0  0  0  0  0  0  0  0  0  0
  140.1370   74.6010  221.6710 C   0  0  0  0  0  0  0  0  0  0  0  0
  141.4110   74.7230  221.6010 O   0  0  0  0  0  0  0  0  0  0  0  0
  139.3780   75.8710  221.7010 C   0  0  2  0  0  0  0  0  0  0  0  0
  138.7080   76.1960  220.4880 N   0  0  0  0  0  0  0  0  0  0  0  0
  140.1060   76.9570  222.3940 C   0  0  2  0  0  0  0  0  0  0  0  0
  139.2490   78.1810  222.6450 C   0  0  0  0  0  0  0  0  0  0  0  0
  140.2980   79.2190  222.9810 C   0  0  0  0  0  0  0  0  0  0  0  0
  140.1190   80.4240  223.6290 C   0  0  0  0  0  0  0  0  0  0  0  0
  141.1920   81.2460  223.8590 C   0  0  0  0  0  0  0  0  0  0  0  0
  142.4250   80.8250  223.4270 C   0  0  0  0  0  0  0  0  0  0  0  0
  142.6220   79.6130  222.7710 C   0  0  0  0  0  0  0  0  0  0  0  0
  141.5370   78.7910  222.5430 C   0  0  0  0  0  0  0  0  0  0  0  0
  141.3920   77.4370  221.8700 C   0  0  2  0  0  0  0  0  0  0  0  0
  141.5900   77.5510  220.4310 C   0  0  0  0  0  0  0  0  0  0  0  0
  140.9150   78.3990  219.5860 C   0  0  0  0  0  0  0  0  0  0  0  0
  141.1650   78.4420  218.2190 C   0  0  0  0  0  0  0  0  0  0  0  0
  142.1300   77.5950  217.6990 C   0  0  0  0  0  0  0  0  0  0  0  0
  142.7980   76.7590  218.5160 N   0  0  0  0  0  0  0  0  0  0  0  0
  142.5510   76.7220  219.8420 C   0  0  0  0  0  0  0  0  0  0  0  0
  138.2540   72.9020  221.8090 C   0  0  0  0  0  0  0  0  0  0  0  0
  138.2070   71.5040  222.4520 C   0  0  0  0  0  0  0  0  0  0  0  0
  139.4442   69.2042  221.8605 H   0  0  0  0  0  0  0  0  0  0  0  0
  139.3284   67.4279  221.6194 H   0  0  0  0  0  0  0  0  0  0  0  0
  137.8398   68.4332  221.6194 H   0  0  0  0  0  0  0  0  0  0  0  0
  138.0098   67.2892  223.7595 H   0  0  0  0  0  0  0  0  0  0  0  0
  139.6896   67.8698  223.9863 H   0  0  0  0  0  0  0  0  0  0  0  0
  140.3941   72.4208  225.5546 H   0  0  0  0  0  0  0  0  0  0  0  0
  141.5840   72.4194  227.7237 H   0  0  0  0  0  0  0  0  0  0  0  0
  141.6065   70.4174  229.1677 H   0  0  0  0  0  0  0  0  0  0  0  0
  140.4019   68.3511  228.4286 H   0  0  0  0  0  0  0  0  0  0  0  0
  139.2001   68.3471  226.2415 H   0  0  0  0  0  0  0  0  0  0  0  0
  139.0589   72.4417  224.1499 H   0  0  0  0  0  0  0  0  0  0  0  0
  141.3368   71.8506  223.6503 H   0  0  0  0  0  0  0  0  0  0  0  0
  140.8400   70.3698  222.7623 H   0  0  0  0  0  0  0  0  0  0  0  0
  141.6204   72.6151  221.4935 H   0  0  0  0  0  0  0  0  0  0  0  0
  140.3552   71.5222  220.8277 H   0  0  0  0  0  0  0  0  0  0  0  0
  138.5112   75.7022  222.3569 H   0  0  0  0  0  0  0  0  0  0  0  0
  137.7900   75.7570  220.3780 H   0  0  0  0  0  0  0  0  0  0  0  0
  139.2490   76.0910  219.6150 H   0  0  0  0  0  0  0  0  0  0  0  0
  140.3590   76.4011  223.3088 H   0  0  0  0  0  0  0  0  0  0  0  0
  138.6777   78.4625  221.7481 H   0  0  0  0  0  0  0  0  0  0  0  0
  138.4875   78.0431  223.4267 H   0  0  0  0  0  0  0  0  0  0  0  0
  139.1147   80.7254  223.9613 H   0  0  0  0  0  0  0  0  0  0  0  0
  141.0688   82.2109  224.3727 H   0  0  0  0  0  0  0  0  0  0  0  0
  143.2952   81.4734  223.6070 H   0  0  0  0  0  0  0  0  0  0  0  0
  143.6275   79.3149  222.4393 H   0  0  0  0  0  0  0  0  0  0  0  0
  142.1543   76.6758  222.0925 H   0  0  0  0  0  0  0  0  0  0  0  0
  140.1494   79.0678  220.0063 H   0  0  0  0  0  0  0  0  0  0  0  0
  140.6100   79.1318  217.5662 H   0  0  0  0  0  0  0  0  0  0  0  0
  142.3499   77.6055  216.6213 H   0  0  0  0  0  0  0  0  0  0  0  0
  143.1184   76.0237  220.4748 H   0  0  0  0  0  0  0  0  0  0  0  0
  137.7043   73.6201  222.4353 H   0  0  0  0  0  0  0  0  0  0  0  0
  137.7883   72.8813  220.8127 H   0  0  0  0  0  0  0  0  0  0  0  0
  137.2000   71.3005  222.8451 H   0  0  0  0  0  0  0  0  0  0  0  0
  138.4414   70.7204  221.7164 H   0  0  0  0  0  0  0  0  0  0  0  0
  1  2  1  0
  2  3  1  0
  3  4  2  0
  3  5  1  0
  5  6  1  0
  6  7  2  0
  7  8  1  0
  8  9  2  0
  9 10  1  0
 10 11  2  0
  5 12  1  0
 12 13  1  0
 13 14  1  0
 14 15  1  0
 15 16  1  0
 16 17  2  0
 16 18  1  0
 18 19  1  0
 18 20  1  0
 20 21  1  0
 21 22  1  0
 22 23  2  0
 23 24  1  0
 24 25  2  0
 25 26  1  0
 26 27  2  0
 27 28  1  0
 28 29  1  0
 29 30  2  0
 30 31  1  0
 31 32  2  0
 32 33  1  0
 33 34  2  0
 15 35  1  0
 35 36  1  0
 11  6  1  0
 36 12  1  0
 28 20  1  0
 34 29  1  0
 27 22  1  0
  1 37  1  0
  1 38  1  0
  1 39  1  0
  2 40  1  0
  2 41  1  0
  7 42  1  0
  8 43  1  0
  9 44  1  0
 10 45  1  0
 11 46  1  0
 12 47  1  0
 13 48  1  0
 13 49  1  0
 14 50  1  0
 14 51  1  0
 18 52  1  1
 19 53  1  0
 19 54  1  0
 20 55  1  1
 21 56  1  0
 21 57  1  0
 23 58  1  0
 24 59  1  0
 25 60  1  0
 26 61  1  0
 28 62  1  1
 30 63  1  0
 31 64  1  0
 32 65  1  0
 34 66  1  0
 35 67  1  0
 35 68  1  0
 36 69  1  0
 36 70  1  0
M  END
>  <smiles>  (3) 
CCC(=O)N(c1ccccc1)C1CCN(C(=O)[C@H](N)C2Cc3ccccc3C2c2cccnc2)CC1

>  <score_type>  (3) 
oracle

>  <origin>  (3) 
autodockgpu

>  <m_score__min__energy>  (3) 
-9.3599999999999994

>  <m_primary>  (3) 
energy

>  <rmsd>  (3) 
5.405489066373388

>  <m_score__min__rmsd>  (3) 
5.405489066373388

>  <meeko>  (3) 
{"free_energy": -9.22, "intermolecular_energy": -11.6, "internal_energy": -2.28, "cluster_size": 36, "cluster_id": 1, "rank_in_cluster": 28}

>  <energy>  (3) 
-9.35

>  <cluster_rmsd>  (3) 
0.6

>  <cluster>  (3) 
1

$$$$

     RDKit          3D

 70 74  0  0  0  0  0  0  0  0999 V2000
  138.7860   68.1830  222.1780 C   0  0  0  0  0  0  0  0  0  0  0  0
  138.8210   68.1130  223.6860 C   0  0  0  0  0  0  0  0  0  0  0  0
  138.2710   69.3790  224.2390 C   0  0  0  0  0  0  0  0  0  0  0  0
  137.0200   69.4280  224.3850 O   0  0  0  0  0  0  0  0  0  0  0  0
  139.1240   70.4770  224.5840 N   0  0  0  0  0  0  0  0  0  0  0  0
  139.7560   70.4460  225.8570 C   0  0  0  0  0  0  0  0  0  0  0  0
  140.4370   71.6070  226.2300 C   0  0  0  0  0  0  0  0  0  0  0  0
  141.0760   71.6420  227.4530 C   0  0  0  0  0  0  0  0  0  0  0  0
  141.0590   70.5670  228.3110 C   0  0  0  0  0  0  0  0  0  0  0  0
  140.3800   69.4110  227.9390 C   0  0  0  0  0  0  0  0  0  0  0  0
  139.7310   69.3690  226.7020 C   0  0  0  0  0  0  0  0  0  0  0  0
  139.2800   71.5210  223.6190 C   0  0  0  0  0  0  0  0  0  0  0  0
  140.6650   71.4190  223.0130 C   0  0  0  0  0  0  0  0  0  0  0  0
  140.6940   72.1580  221.6880 C   0  0  0  0  0  0  0  0  0  0  0  0
  139.7100   73.2530  221.7040 N   0  0  0  0  0  0  0  0  0  0  0  0
  140.2060   74.5570  221.6330 C   0  0  0  0  0  0  0  0  0  0  0  0
  141.4810   74.6820  221.5710 O   0  0  0  0  0  0  0  0  0  0  0  0
  139.4420   75.8240  221.6210 C   0  0  2  0  0  0  0  0  0  0  0  0
  138.8360   76.1450  220.3740 N   0  0  0  0  0  0  0  0  0  0  0  0
  140.1300   76.9150  222.3490 C   0  0  2  0  0  0  0  0  0  0  0  0
  139.2590   78.1390  222.5460 C   0  0  0  0  0  0  0  0  0  0  0  0
  140.2870   79.1790  222.9350 C   0  0  0  0  0  0  0  0  0  0  0  0
  140.0700   80.3870  223.5660 C   0  0  0  0  0  0  0  0  0  0  0  0
  141.1280   81.2120  223.8530 C   0  0  0  0  0  0  0  0  0  0  0  0
  142.3830   80.7900  223.4920 C   0  0  0  0  0  0  0  0  0  0  0  0
  142.6190   79.5750  222.8540 C   0  0  0  0  0  0  0  0  0  0  0  0
  141.5490   78.7500  222.5690 C   0  0  0  0  0  0  0  0  0  0  0  0
  141.4430   77.3930  221.8950 C   0  0  2  0  0  0  0  0  0  0  0  0
  141.7210   77.5010  220.4700 C   0  0  0  0  0  0  0  0  0  0  0  0
  142.6230   76.7430  219.7620 C   0  0  0  0  0  0  0  0  0  0  0  0
  142.8290   76.9130  218.3980 C   0  0  0  0  0  0  0  0  0  0  0  0
  142.0950   77.8840  217.7370 C   0  0  0  0  0  0  0  0  0  0  0  0
  141.2090   78.6340  218.4180 N   0  0  0  0  0  0  0  0  0  0  0  0
  141.0120   78.4640  219.7420 C   0  0  0  0  0  0  0  0  0  0  0  0
  138.3280   72.8550  221.8020 C   0  0  0  0  0  0  0  0  0  0  0  0
  138.2810   71.4750  222.4830 C   0  0  0  0  0  0  0  0  0  0  0  0
  138.3143   69.1263  221.8656 H   0  0  0  0  0  0  0  0  0  0  0  0
  139.8124   68.1385  221.7849 H   0  0  0  0  0  0  0  0  0  0  0  0
  138.2058   67.3351  221.7849 H   0  0  0  0  0  0  0  0  0  0  0  0
  138.2122   67.2641  224.0306 H   0  0  0  0  0  0  0  0  0  0  0  0
  139.8570   67.9750  224.0291 H   0  0  0  0  0  0  0  0  0  0  0  0
  140.4637   72.4791  225.5601 H   0  0  0  0  0  0  0  0  0  0  0  0
  141.6136   72.5547  227.7497 H   0  0  0  0  0  0  0  0  0  0  0  0
  141.5764   70.6207  229.2803 H   0  0  0  0  0  0  0  0  0  0  0  0
  140.3543   68.5403  228.6107 H   0  0  0  0  0  0  0  0  0  0  0  0
  139.1924   68.4577  226.4030 H   0  0  0  0  0  0  0  0  0  0  0  0
  139.1149   72.4639  224.1610 H   0  0  0  0  0  0  0  0  0  0  0  0
  141.3990   71.8672  223.6988 H   0  0  0  0  0  0  0  0  0  0  0  0
  140.9155   70.3607  222.8477 H   0  0  0  0  0  0  0  0  0  0  0  0
  141.6993   72.5732  221.5238 H   0  0  0  0  0  0  0  0  0  0  0  0
  140.4441   71.4580  220.8771 H   0  0  0  0  0  0  0  0  0  0  0  0
  138.5429   75.6525  222.2311 H   0  0  0  0  0  0  0  0  0  0  0  0
  138.3330   75.3690  219.9340 H   0  0  0  0  0  0  0  0  0  0  0  0
  139.4310   76.6150  219.6740 H   0  0  0  0  0  0  0  0  0  0  0  0
  140.3323   76.3646  223.2797 H   0  0  0  0  0  0  0  0  0  0  0  0
  138.7384   78.4158  221.6174 H   0  0  0  0  0  0  0  0  0  0  0  0
  138.4549   78.0040  223.2844 H   0  0  0  0  0  0  0  0  0  0  0  0
  139.0480   80.6887  223.8390 H   0  0  0  0  0  0  0  0  0  0  0  0
  140.9756   82.1787  224.3553 H   0  0  0  0  0  0  0  0  0  0  0  0
  143.2409   81.4407  223.7167 H   0  0  0  0  0  0  0  0  0  0  0  0
  143.6421   79.2770  222.5812 H   0  0  0  0  0  0  0  0  0  0  0  0
  142.1919   76.6330  222.1625 H   0  0  0  0  0  0  0  0  0  0  0  0
  143.2026   75.9742  220.2940 H   0  0  0  0  0  0  0  0  0  0  0  0
  143.5573   76.2914  217.8565 H   0  0  0  0  0  0  0  0  0  0  0  0
  142.2360   78.0418  216.6575 H   0  0  0  0  0  0  0  0  0  0  0  0
  140.2773   79.0967  220.2614 H   0  0  0  0  0  0  0  0  0  0  0  0
  137.7696   73.5878  222.4031 H   0  0  0  0  0  0  0  0  0  0  0  0
  137.8714   72.8052  220.8025 H   0  0  0  0  0  0  0  0  0  0  0  0
  137.2714   71.2780  222.8728 H   0  0  0  0  0  0  0  0  0  0  0  0
  138.5250   70.6723  221.7716 H   0  0  0  0  0  0  0  0  0  0  0  0
  1  2  1  0
  2  3  1  0
  3  4  2  0
  3  5  1  0
  5  6  1  0
  6  7  2  0
  7  8  1  0
  8  9  2  0
  9 10  1  0
 10 11  2  0
  5 12  1  0
 12 13  1  0
 13 14  1  0
 14 15  1  0
 15 16  1  0
 16 17  2  0
 16 18  1  0
 18 19  1  0
 18 20  1  0
 20 21  1  0
 21 22  1  0
 22 23  2  0
 23 24  1  0
 24 25  2  0
 25 26  1  0
 26 27  2  0
 27 28  1  0
 28 29  1  0
 29 30  2  0
 30 31  1  0
 31 32  2  0
 32 33  1  0
 33 34  2  0
 15 35  1  0
 35 36  1  0
 11  6  1  0
 36 12  1  0
 28 20  1  0
 34 29  1  0
 27 22  1  0
  1 37  1  0
  1 38  1  0
  1 39  1  0
  2 40  1  0
  2 41  1  0
  7 42  1  0
  8 43  1  0
  9 44  1  0
 10 45  1  0
 11 46  1  0
 12 47  1  0
 13 48  1  0
 13 49  1  0
 14 50  1  0
 14 51  1  0
 18 52  1  1
 19 53  1  0
 19 54  1  0
 20 55  1  1
 21 56  1  0
 21 57  1  0
 23 58  1  0
 24 59  1  0
 25 60  1  0
 26 61  1  0
 28 62  1  1
 30 63  1  0
 31 64  1  0
 32 65  1  0
 34 66  1  0
 35 67  1  0
 35 68  1  0
 36 69  1  0
 36 70  1  0
M  END
>  <smiles>  (4) 
CCC(=O)N(c1ccccc1)C1CCN(C(=O)[C@H](N)C2Cc3ccccc3C2c2cccnc2)CC1

>  <score_type>  (4) 
oracle

>  <origin>  (4) 
autodockgpu

>  <m_score__min__energy>  (4) 
-9.3599999999999994

>  <m_primary>  (4) 
energy

>  <rmsd>  (4) 
5.408695050314716

>  <m_score__min__rmsd>  (4) 
5.408695050314716

>  <meeko>  (4) 
{"free_energy": -9.31, "intermolecular_energy": -11.7, "internal_energy": -2.32, "cluster_size": 36, "cluster_id": 1, "rank_in_cluster": 15}

>  <energy>  (4) 
-9.35

>  <cluster_rmsd>  (4) 
0.29

>  <cluster>  (4) 
1

$$$$

     RDKit          3D

 70 74  0  0  0  0  0  0  0  0999 V2000
  138.1040   67.8780  222.2160 C   0  0  0  0  0  0  0  0  0  0  0  0
  138.8240   68.1040  223.5240 C   0  0  0  0  0  0  0  0  0  0  0  0
  138.2800   69.3300  224.1660 C   0  0  0  0  0  0  0  0  0  0  0  0
  137.0350   69.3500  224.3670 O   0  0  0  0  0  0  0  0  0  0  0  0
  139.1310   70.4230  224.5310 N   0  0  0  0  0  0  0  0  0  0  0  0
  139.7640   70.3680  225.8030 C   0  0  0  0  0  0  0  0  0  0  0  0
  140.4420   71.5230  226.1980 C   0  0  0  0  0  0  0  0  0  0  0  0
  141.0820   71.5360  227.4210 C   0  0  0  0  0  0  0  0  0  0  0  0
  141.0680   70.4440  228.2590 C   0  0  0  0  0  0  0  0  0  0  0  0
  140.3910   69.2950  227.8640 C   0  0  0  0  0  0  0  0  0  0  0  0
  139.7420   69.2750  226.6270 C   0  0  0  0  0  0  0  0  0  0  0  0
  139.2830   71.4860  223.5870 C   0  0  0  0  0  0  0  0  0  0  0  0
  140.6660   71.3950  222.9740 C   0  0  0  0  0  0  0  0  0  0  0  0
  140.6910   72.1610  221.6650 C   0  0  0  0  0  0  0  0  0  0  0  0
  139.7070   73.2560  221.7050 N   0  0  0  0  0  0  0  0  0  0  0  0
  140.2040   74.5610  221.6590 C   0  0  0  0  0  0  0  0  0  0  0  0
  141.4780   74.6870  221.5950 O   0  0  0  0  0  0  0  0  0  0  0  0
  139.4400   75.8280  221.6750 C   0  0  2  0  0  0  0  0  0  0  0  0
  138.7870   76.1480  220.4520 N   0  0  0  0  0  0  0  0  0  0  0  0
  140.1550   76.9190  222.3750 C   0  0  2  0  0  0  0  0  0  0  0  0
  139.2920   78.1440  222.6050 C   0  0  0  0  0  0  0  0  0  0  0  0
  140.3340   79.1840  222.9540 C   0  0  0  0  0  0  0  0  0  0  0  0
  140.1430   80.3920  223.5920 C   0  0  0  0  0  0  0  0  0  0  0  0
  141.2100   81.2170  223.8380 C   0  0  0  0  0  0  0  0  0  0  0  0
  142.4510   80.7950  223.4290 C   0  0  0  0  0  0  0  0  0  0  0  0
  142.6610   79.5800  222.7830 C   0  0  0  0  0  0  0  0  0  0  0  0
  141.5810   78.7550  222.5400 C   0  0  0  0  0  0  0  0  0  0  0  0
  141.4500   77.3980  221.8710 C   0  0  2  0  0  0  0  0  0  0  0  0
  141.6720   77.5040  220.4360 C   0  0  0  0  0  0  0  0  0  0  0  0
  141.0140   78.3510  219.5760 C   0  0  0  0  0  0  0  0  0  0  0  0
  141.2880   78.3870  218.2130 C   0  0  0  0  0  0  0  0  0  0  0  0
  142.2590   77.5350  217.7130 C   0  0  0  0  0  0  0  0  0  0  0  0
  142.9100   76.7000  218.5450 N   0  0  0  0  0  0  0  0  0  0  0  0
  142.6410   76.6700  219.8670 C   0  0  0  0  0  0  0  0  0  0  0  0
  138.3260   72.8560  221.8000 C   0  0  0  0  0  0  0  0  0  0  0  0
  138.2810   71.4630  222.4540 C   0  0  0  0  0  0  0  0  0  0  0  0
  137.0721   67.5541  222.4167 H   0  0  0  0  0  0  0  0  0  0  0  0
  138.0887   68.8146  221.6393 H   0  0  0  0  0  0  0  0  0  0  0  0
  138.6267   67.1007  221.6393 H   0  0  0  0  0  0  0  0  0  0  0  0
  138.6675   67.2396  224.1861 H   0  0  0  0  0  0  0  0  0  0  0  0
  139.9018   68.2254  223.3407 H   0  0  0  0  0  0  0  0  0  0  0  0
  140.4657   72.4081  225.5453 H   0  0  0  0  0  0  0  0  0  0  0  0
  141.6180   72.4440  227.7346 H   0  0  0  0  0  0  0  0  0  0  0  0
  141.5857   70.4796  229.2289 H   0  0  0  0  0  0  0  0  0  0  0  0
  140.3669   68.4114  228.5187 H   0  0  0  0  0  0  0  0  0  0  0  0
  139.2057   68.3682  226.3106 H   0  0  0  0  0  0  0  0  0  0  0  0
  139.1193   72.4177  224.1483 H   0  0  0  0  0  0  0  0  0  0  0  0
  141.4030   71.8281  223.6663 H   0  0  0  0  0  0  0  0  0  0  0  0
  140.9147   70.3401  222.7860 H   0  0  0  0  0  0  0  0  0  0  0  0
  141.6959   72.5795  221.5066 H   0  0  0  0  0  0  0  0  0  0  0  0
  140.4382   71.4775  220.8410 H   0  0  0  0  0  0  0  0  0  0  0  0
  138.5647   75.6570  222.3189 H   0  0  0  0  0  0  0  0  0  0  0  0
  137.8800   75.6920  220.3230 H   0  0  0  0  0  0  0  0  0  0  0  0
  139.3450   76.0600  219.5880 H   0  0  0  0  0  0  0  0  0  0  0  0
  140.3927   76.3679  223.2969 H   0  0  0  0  0  0  0  0  0  0  0  0
  138.7363   78.4206  221.6969 H   0  0  0  0  0  0  0  0  0  0  0  0
  138.5169   78.0093  223.3738 H   0  0  0  0  0  0  0  0  0  0  0  0
  139.1324   80.6940  223.9041 H   0  0  0  0  0  0  0  0  0  0  0  0
  141.0765   82.1837  224.3456 H   0  0  0  0  0  0  0  0  0  0  0  0
  143.3172   81.4456  223.6202 H   0  0  0  0  0  0  0  0  0  0  0  0
  143.6726   79.2816  222.4707 H   0  0  0  0  0  0  0  0  0  0  0  0
  142.2102   76.6399  222.1103 H   0  0  0  0  0  0  0  0  0  0  0  0
  140.2436   79.0240  219.9802 H   0  0  0  0  0  0  0  0  0  0  0  0
  140.7465   79.0757  217.5478 H   0  0  0  0  0  0  0  0  0  0  0  0
  142.4976   77.5405  216.6392 H   0  0  0  0  0  0  0  0  0  0  0  0
  143.1964   75.9737  220.5125 H   0  0  0  0  0  0  0  0  0  0  0  0
  137.7697   73.5768  222.4172 H   0  0  0  0  0  0  0  0  0  0  0  0
  137.8662   72.8255  220.8012 H   0  0  0  0  0  0  0  0  0  0  0  0
  137.2726   71.2585  222.8430 H   0  0  0  0  0  0  0  0  0  0  0  0
  138.5228   70.6746  221.7260 H   0  0  0  0  0  0  0  0  0  0  0  0
  1  2  1  0
  2  3  1  0
  3  4  2  0
  3  5  1  0
  5  6  1  0
  6  7  2  0
  7  8  1  0
  8  9  2  0
  9 10  1  0
 10 11  2  0
  5 12  1  0
 12 13  1  0
 13 14  1  0
 14 15  1  0
 15 16  1  0
 16 17  2  0
 16 18  1  0
 18 19  1  0
 18 20  1  0
 20 21  1  0
 21 22  1  0
 22 23  2  0
 23 24  1  0
 24 25  2  0
 25 26  1  0
 26 27  2  0
 27 28  1  0
 28 29  1  0
 29 30  2  0
 30 31  1  0
 31 32  2  0
 32 33  1  0
 33 34  2  0
 15 35  1  0
 35 36  1  0
 11  6  1  0
 36 12  1  0
 28 20  1  0
 34 29  1  0
 27 22  1  0
  1 37  1  0
  1 38  1  0
  1 39  1  0
  2 40  1  0
  2 41  1  0
  7 42  1  0
  8 43  1  0
  9 44  1  0
 10 45  1  0
 11 46  1  0
 12 47  1  0
 13 48  1  0
 13 49  1  0
 14 50  1  0
 14 51  1  0
 18 52  1  1
 19 53  1  0
 19 54  1  0
 20 55  1  1
 21 56  1  0
 21 57  1  0
 23 58  1  0
 24 59  1  0
 25 60  1  0
 26 61  1  0
 28 62  1  1
 30 63  1  0
 31 64  1  0
 32 65  1  0
 34 66  1  0
 35 67  1  0
 35 68  1  0
 36 69  1  0
 36 70  1  0
M  END
>  <smiles>  (5) 
CCC(=O)N(c1ccccc1)C1CCN(C(=O)[C@H](N)C2Cc3ccccc3C2c2cccnc2)CC1

>  <score_type>  (5) 
oracle

>  <origin>  (5) 
autodockgpu

>  <m_score__min__energy>  (5) 
-9.3599999999999994

>  <m_primary>  (5) 
energy

>  <rmsd>  (5) 
5.416046743595372

>  <m_score__min__rmsd>  (5) 
5.416046743595372

>  <meeko>  (5) 
{"free_energy": -9.27, "intermolecular_energy": -11.66, "internal_energy": -2.27, "cluster_size": 36, "cluster_id": 1, "rank_in_cluster": 23}

>  <energy>  (5) 
-9.34

>  <cluster_rmsd>  (5) 
0.5

>  <cluster>  (5) 
1

$$$$

     RDKit          3D

 70 74  0  0  0  0  0  0  0  0999 V2000
  137.6920   67.8410  222.3590 C   0  0  0  0  0  0  0  0  0  0  0  0
  138.8810   68.7010  222.7130 C   0  0  0  0  0  0  0  0  0  0  0  0
  138.4610   69.7130  223.7180 C   0  0  0  0  0  0  0  0  0  0  0  0
  137.2680   69.6390  224.1190 O   0  0  0  0  0  0  0  0  0  0  0  0
  139.3680   70.7120  224.1980 N   0  0  0  0  0  0  0  0  0  0  0  0
  139.9420   70.5160  225.4840 C   0  0  0  0  0  0  0  0  0  0  0  0
  139.8950   69.2120  225.9830 C   0  0  0  0  0  0  0  0  0  0  0  0
  140.4320   68.9530  227.2270 C   0  0  0  0  0  0  0  0  0  0  0  0
  141.0110   69.9440  227.9880 C   0  0  0  0  0  0  0  0  0  0  0  0
  141.0580   71.2420  227.4900 C   0  0  0  0  0  0  0  0  0  0  0  0
  140.5160   71.5110  226.2310 C   0  0  0  0  0  0  0  0  0  0  0  0
  139.6320   71.8300  223.3470 C   0  0  0  0  0  0  0  0  0  0  0  0
  140.8270   71.5020  222.4740 C   0  0  0  0  0  0  0  0  0  0  0  0
  140.8320   72.4150  221.2610 C   0  0  0  0  0  0  0  0  0  0  0  0
  140.1820   73.6930  221.5930 N   0  0  0  0  0  0  0  0  0  0  0  0
  140.9820   74.8390  221.5740 C   0  0  0  0  0  0  0  0  0  0  0  0
  142.2180   74.6690  221.2790 O   0  0  0  0  0  0  0  0  0  0  0  0
  140.5820   76.2350  221.8560 C   0  0  2  0  0  0  0  0  0  0  0  0
  139.4860   76.3730  222.7540 N   0  0  0  0  0  0  0  0  0  0  0  0
  140.5880   77.0880  220.6460 C   0  0  2  0  0  0  0  0  0  0  0  0
  141.7910   76.8490  219.7560 C   0  0  0  0  0  0  0  0  0  0  0  0
  141.7470   78.0660  218.8580 C   0  0  0  0  0  0  0  0  0  0  0  0
  142.3690   78.2400  217.6390 C   0  0  0  0  0  0  0  0  0  0  0  0
  142.2140   79.4160  216.9500 C   0  0  0  0  0  0  0  0  0  0  0  0
  141.4290   80.3890  217.5160 C   0  0  0  0  0  0  0  0  0  0  0  0
  140.7950   80.2300  218.7450 C   0  0  0  0  0  0  0  0  0  0  0  0
  140.9560   79.0430  219.4320 C   0  0  0  0  0  0  0  0  0  0  0  0
  140.4280   78.5440  220.7660 C   0  0  2  0  0  0  0  0  0  0  0  0
  141.0610   79.2520  221.8710 C   0  0  0  0  0  0  0  0  0  0  0  0
  142.4120   79.3350  222.1110 C   0  0  0  0  0  0  0  0  0  0  0  0
  142.9330   80.0320  223.1940 C   0  0  0  0  0  0  0  0  0  0  0  0
  142.0520   80.6620  224.0580 C   0  0  0  0  0  0  0  0  0  0  0  0
  140.7260   80.5880  223.8350 N   0  0  0  0  0  0  0  0  0  0  0  0
  140.2260   79.9100  222.7810 C   0  0  0  0  0  0  0  0  0  0  0  0
  138.7790   73.6200  221.9140 C   0  0  0  0  0  0  0  0  0  0  0  0
  138.4860   72.2000  222.4300 C   0  0  0  0  0  0  0  0  0  0  0  0
  137.2061   67.4896  223.2812 H   0  0  0  0  0  0  0  0  0  0  0  0
  136.9754   68.4311  221.7689 H   0  0  0  0  0  0  0  0  0  0  0  0
  138.0281   66.9756  221.7689 H   0  0  0  0  0  0  0  0  0  0  0  0
  139.6795   68.0721  223.1336 H   0  0  0  0  0  0  0  0  0  0  0  0
  139.2579   69.2055  221.8111 H   0  0  0  0  0  0  0  0  0  0  0  0
  139.4369   68.4044  225.3932 H   0  0  0  0  0  0  0  0  0  0  0  0
  140.3968   67.9269  227.6219 H   0  0  0  0  0  0  0  0  0  0  0  0
  141.4312   69.7120  228.9777 H   0  0  0  0  0  0  0  0  0  0  0  0
  141.5171   72.0480  228.0813 H   0  0  0  0  0  0  0  0  0  0  0  0
  140.5505   72.5361  225.8336 H   0  0  0  0  0  0  0  0  0  0  0  0
  139.8065   72.6873  224.0138 H   0  0  0  0  0  0  0  0  0  0  0  0
  141.7530   71.6505  223.0488 H   0  0  0  0  0  0  0  0  0  0  0  0
  140.7645   70.4543  222.1447 H   0  0  0  0  0  0  0  0  0  0  0  0
  141.8704   72.6037  220.9509 H   0  0  0  0  0  0  0  0  0  0  0  0
  140.2811   71.9309  220.4412 H   0  0  0  0  0  0  0  0  0  0  0  0
  141.3847   76.6734  222.4671 H   0  0  0  0  0  0  0  0  0  0  0  0
  139.2650   75.5280  223.2870 H   0  0  0  0  0  0  0  0  0  0  0  0
  138.6170   76.7780  222.3700 H   0  0  0  0  0  0  0  0  0  0  0  0
  139.6419   76.7312  220.2129 H   0  0  0  0  0  0  0  0  0  0  0  0
  142.7225   76.8138  220.3400 H   0  0  0  0  0  0  0  0  0  0  0  0
  141.7664   75.8912  219.2156 H   0  0  0  0  0  0  0  0  0  0  0  0
  142.9899   77.4349  217.2191 H   0  0  0  0  0  0  0  0  0  0  0  0
  142.7023   79.5737  215.9770 H   0  0  0  0  0  0  0  0  0  0  0  0
  141.2948   81.3369  216.9743 H   0  0  0  0  0  0  0  0  0  0  0  0
  140.1754   81.0374  219.1624 H   0  0  0  0  0  0  0  0  0  0  0  0
  139.3745   78.7524  221.0043 H   0  0  0  0  0  0  0  0  0  0  0  0
  143.1052   78.8317  221.4210 H   0  0  0  0  0  0  0  0  0  0  0  0
  144.0190   80.0825  223.3615 H   0  0  0  0  0  0  0  0  0  0  0  0
  142.4349   81.2215  224.9243 H   0  0  0  0  0  0  0  0  0  0  0  0
  139.1365   79.8737  222.6336 H   0  0  0  0  0  0  0  0  0  0  0  0
  138.5345   74.3583  222.6919 H   0  0  0  0  0  0  0  0  0  0  0  0
  138.1701   73.8380  221.0242 H   0  0  0  0  0  0  0  0  0  0  0  0
  137.5360   72.1858  222.9844 H   0  0  0  0  0  0  0  0  0  0  0  0
  138.3959   71.4857  221.5984 H   0  0  0  0  0  0  0  0  0  0  0  0
  1  2  1  0
  2  3  1  0
  3  4  2  0
  3  5  1  0
  5  6  1  0
  6  7  2  0
  7  8  1  0
  8  9  2  0
  9 10  1  0
 10 11  2  0
  5 12  1  0
 12 13  1  0
 13 14  1  0
 14 15  1  0
 15 16  1  0
 16 17  2  0
 16 18  1  0
 18 19  1  0
 18 20  1  0
 20 21  1  0
 21 22  1  0
 22 23  2  0
 23 24  1  0
 24 25  2  0
 25 26  1  0
 26 27  2  0
 27 28  1  0
 28 29  1  0
 29 30  2  0
 30 31  1  0
 31 32  2  0
 32 33  1  0
 33 34  2  0
 15 35  1  0
 35 36  1  0
 11  6  1  0
 36 12  1  0
 28 20  1  0
 34 29  1  0
 27 22  1  0
  1 37  1  0
  1 38  1  0
  1 39  1  0
  2 40  1  0
  2 41  1  0
  7 42  1  0
  8 43  1  0
  9 44  1  0
 10 45  1  0
 11 46  1  0
 12 47  1  0
 13 48  1  0
 13 49  1  0
 14 50  1  0
 14 51  1  0
 18 52  1  1
 19 53  1  0
 19 54  1  0
 20 55  1  6
 21 56  1  0
 21 57  1  0
 23 58  1  0
 24 59  1  0
 25 60  1  0
 26 61  1  0
 28 62  1  6
 30 63  1  0
 31 64  1  0
 32 65  1  0
 34 66  1  0
 35 67  1  0
 35 68  1  0
 36 69  1  0
 36 70  1  0
M  END
>  <smiles>  (6) 
CCC(=O)N(c1ccccc1)C1CCN(C(=O)[C@H](N)C2Cc3ccccc3C2c2cccnc2)CC1

>  <score_type>  (6) 
oracle

>  <origin>  (6) 
autodockgpu

>  <m_score__min__energy>  (6) 
-9.3599999999999994

>  <m_primary>  (6) 
energy

>  <rmsd>  (6) 
5.854409257742246

>  <m_score__min__rmsd>  (6) 
5.854409257742246

>  <meeko>  (6) 
{"free_energy": -8.72, "intermolecular_energy": -11.1, "internal_energy": -2.05, "cluster_size": 36, "cluster_id": 1, "rank_in_cluster": 36}

>  <energy>  (6) 
-9.34

>  <cluster_rmsd>  (6) 
0.58

>  <cluster>  (6) 
1

$$$$

     RDKit          3D

 70 74  0  0  0  0  0  0  0  0999 V2000
  138.8370   67.0960  223.0990 C   0  0  0  0  0  0  0  0  0  0  0  0
  138.7010   68.5350  222.6620 C   0  0  0  0  0  0  0  0  0  0  0  0
  138.3430   69.3640  223.8440 C   0  0  0  0  0  0  0  0  0  0  0  0
  137.2800   69.0510  224.4450 O   0  0  0  0  0  0  0  0  0  0  0  0
  139.1670   70.4570  224.2670 N   0  0  0  0  0  0  0  0  0  0  0  0
  139.7990   70.3520  225.5370 C   0  0  0  0  0  0  0  0  0  0  0  0
  139.8060   69.0790  226.1120 C   0  0  0  0  0  0  0  0  0  0  0  0
  140.4000   68.9080  227.3460 C   0  0  0  0  0  0  0  0  0  0  0  0
  140.9840   69.9550  228.0210 C   0  0  0  0  0  0  0  0  0  0  0  0
  140.9760   71.2220  227.4470 C   0  0  0  0  0  0  0  0  0  0  0  0
  140.3760   71.4020  226.1980 C   0  0  0  0  0  0  0  0  0  0  0  0
  139.2970   71.5700  223.3790 C   0  0  0  0  0  0  0  0  0  0  0  0
  140.6660   71.5170  222.7320 C   0  0  0  0  0  0  0  0  0  0  0  0
  140.6600   72.3530  221.4660 C   0  0  0  0  0  0  0  0  0  0  0  0
  139.6750   73.4400  221.5870 N   0  0  0  0  0  0  0  0  0  0  0  0
  140.1680   74.7480  221.6010 C   0  0  0  0  0  0  0  0  0  0  0  0
  141.4400   74.8810  221.5160 O   0  0  0  0  0  0  0  0  0  0  0  0
  139.4020   76.0100  221.7020 C   0  0  2  0  0  0  0  0  0  0  0  0
  138.6710   76.3620  220.5330 N   0  0  0  0  0  0  0  0  0  0  0  0
  140.1550   77.0840  222.3880 C   0  0  2  0  0  0  0  0  0  0  0  0
  139.3210   78.3220  222.6490 C   0  0  0  0  0  0  0  0  0  0  0  0
  140.3910   79.3420  222.9740 C   0  0  0  0  0  0  0  0  0  0  0  0
  140.2380   80.5490  223.6240 C   0  0  0  0  0  0  0  0  0  0  0  0
  141.3270   81.3540  223.8430 C   0  0  0  0  0  0  0  0  0  0  0  0
  142.5480   80.9130  223.3970 C   0  0  0  0  0  0  0  0  0  0  0  0
  142.7190   79.6980  222.7390 C   0  0  0  0  0  0  0  0  0  0  0  0
  141.6180   78.8940  222.5220 C   0  0  0  0  0  0  0  0  0  0  0  0
  141.4430   77.5430  221.8500 C   0  0  2  0  0  0  0  0  0  0  0  0
  141.6270   77.6540  220.4090 C   0  0  0  0  0  0  0  0  0  0  0  0
  142.5080   76.9240  219.6470 C   0  0  0  0  0  0  0  0  0  0  0  0
  142.6220   77.0960  218.2720 C   0  0  0  0  0  0  0  0  0  0  0  0
  141.8160   78.0400  217.6570 C   0  0  0  0  0  0  0  0  0  0  0  0
  140.9490   78.7620  218.3930 N   0  0  0  0  0  0  0  0  0  0  0  0
  140.8420   78.5900  219.7260 C   0  0  0  0  0  0  0  0  0  0  0  0
  138.2970   73.0320  221.6900 C   0  0  0  0  0  0  0  0  0  0  0  0
  138.2700   71.6050  222.2680 C   0  0  0  0  0  0  0  0  0  0  0  0
  138.8418   67.0454  224.1978 H   0  0  0  0  0  0  0  0  0  0  0  0
  137.9900   66.5127  222.7088 H   0  0  0  0  0  0  0  0  0  0  0  0
  139.7783   66.6817  222.7088 H   0  0  0  0  0  0  0  0  0  0  0  0
  139.6549   68.8849  222.2404 H   0  0  0  0  0  0  0  0  0  0  0  0
  137.9169   68.6198  221.8952 H   0  0  0  0  0  0  0  0  0  0  0  0
  139.3458   68.2271  225.5900 H   0  0  0  0  0  0  0  0  0  0  0  0
  140.4067   67.9071  227.8023 H   0  0  0  0  0  0  0  0  0  0  0  0
  141.4518   69.7920  229.0031 H   0  0  0  0  0  0  0  0  0  0  0  0
  141.4368   72.0727  227.9705 H   0  0  0  0  0  0  0  0  0  0  0  0
  140.3674   72.4019  225.7396 H   0  0  0  0  0  0  0  0  0  0  0  0
  139.1445   72.4694  223.9936 H   0  0  0  0  0  0  0  0  0  0  0  0
  141.4172   71.9146  223.4303 H   0  0  0  0  0  0  0  0  0  0  0  0
  140.9131   70.4747  222.4818 H   0  0  0  0  0  0  0  0  0  0  0  0
  141.6601   72.7831  221.3084 H   0  0  0  0  0  0  0  0  0  0  0  0
  140.3907   71.7142  220.6120 H   0  0  0  0  0  0  0  0  0  0  0  0
  138.5696   75.8150  222.3942 H   0  0  0  0  0  0  0  0  0  0  0  0
  139.0010   75.9120  219.6750 H   0  0  0  0  0  0  0  0  0  0  0  0
  138.5230   77.3690  220.3610 H   0  0  0  0  0  0  0  0  0  0  0  0
  140.4082   76.5237  223.3001 H   0  0  0  0  0  0  0  0  0  0  0  0
  138.7447   78.6136  221.7586 H   0  0  0  0  0  0  0  0  0  0  0  0
  138.5658   78.1963  223.4388 H   0  0  0  0  0  0  0  0  0  0  0  0
  139.2421   80.8662  223.9669 H   0  0  0  0  0  0  0  0  0  0  0  0
  141.2252   82.3203  224.3586 H   0  0  0  0  0  0  0  0  0  0  0  0
  143.4303   81.5476  223.5670 H   0  0  0  0  0  0  0  0  0  0  0  0
  143.7161   79.3835  222.3973 H   0  0  0  0  0  0  0  0  0  0  0  0
  142.1952   76.7694  222.0638 H   0  0  0  0  0  0  0  0  0  0  0  0
  143.1455   76.1771  220.1428 H   0  0  0  0  0  0  0  0  0  0  0  0
  143.3350   76.4969  217.6866 H   0  0  0  0  0  0  0  0  0  0  0  0
  141.8837   78.1996  216.5707 H   0  0  0  0  0  0  0  0  0  0  0  0
  140.1207   79.1997  220.2900 H   0  0  0  0  0  0  0  0  0  0  0  0
  137.7531   73.7164  222.3577 H   0  0  0  0  0  0  0  0  0  0  0  0
  137.8147   73.0552  220.7016 H   0  0  0  0  0  0  0  0  0  0  0  0
  137.2709   71.3758  222.6671 H   0  0  0  0  0  0  0  0  0  0  0  0
  138.4978   70.8583  221.4930 H   0  0  0  0  0  0  0  0  0  0  0  0
  1  2  1  0
  2  3  1  0
  3  4  2  0
  3  5  1  0
  5  6  1  0
  6  7  2  0
  7  8  1  0
  8  9  2  0
  9 10  1  0
 10 11  2  0
  5 12  1  0
 12 13  1  0
 13 14  1  0
 14 15  1  0
 15 16  1  0
 16 17  2  0
 16 18  1  0
 18 19  1  0
 18 20  1  0
 20 21  1  0
 21 22  1  0
 22 23  2  0
 23 24  1  0
 24 25  2  0
 25 26  1  0
 26 27  2  0
 27 28  1  0
 28 29  1  0
 29 30  2  0
 30 31  1  0
 31 32  2  0
 32 33  1  0
 33 34  2  0
 15 35  1  0
 35 36  1  0
 11  6  1  0
 36 12  1  0
 28 20  1  0
 34 29  1  0
 27 22  1  0
  1 37  1  0
  1 38  1  0
  1 39  1  0
  2 40  1  0
  2 41  1  0
  7 42  1  0
  8 43  1  0
  9 44  1  0
 10 45  1  0
 11 46  1  0
 12 47  1  0
 13 48  1  0
 13 49  1  0
 14 50  1  0
 14 51  1  0
 18 52  1  1
 19 53  1  0
 19 54  1  0
 20 55  1  1
 21 56  1  0
 21 57  1  0
 23 58  1  0
 24 59  1  0
 25 60  1  0
 26 61  1  0
 28 62  1  1
 30 63  1  0
 31 64  1  0
 32 65  1  0
 34 66  1  0
 35 67  1  0
 35 68  1  0
 36 69  1  0
 36 70  1  0
M  END
>  <smiles>  (7) 
CCC(=O)N(c1ccccc1)C1CCN(C(=O)[C@H](N)C2Cc3ccccc3C2c2cccnc2)CC1

>  <score_type>  (7) 
oracle

>  <origin>  (7) 
autodockgpu

>  <m_score__min__energy>  (7) 
-9.3599999999999994

>  <m_primary>  (7) 
energy

>  <rmsd>  (7) 
5.267536916750057

>  <m_score__min__rmsd>  (7) 
5.267536916750057

>  <meeko>  (7) 
{"free_energy": -9.21, "intermolecular_energy": -11.59, "internal_energy": -2.19, "cluster_size": 36, "cluster_id": 1, "rank_in_cluster": 29}

>  <energy>  (7) 
-9.34

>  <cluster_rmsd>  (7) 
0.62

>  <cluster>  (7) 
1

$$$$

     RDKit          3D

 70 74  0  0  0  0  0  0  0  0999 V2000
  138.8730   83.8260  221.5530 C   0  0  0  0  0  0  0  0  0  0  0  0
  137.5640   83.8760  222.3040 C   0  0  0  0  0  0  0  0  0  0  0  0
  136.8480   82.5870  222.1090 C   0  0  0  0  0  0  0  0  0  0  0  0
  136.0240   82.5460  221.1560 O   0  0  0  0  0  0  0  0  0  0  0  0
  137.0890   81.4610  222.9610 N   0  0  0  0  0  0  0  0  0  0  0  0
  136.5650   81.5120  224.2820 C   0  0  0  0  0  0  0  0  0  0  0  0
  137.4220   82.0200  225.2610 C   0  0  0  0  0  0  0  0  0  0  0  0
  136.9770   82.0940  226.5650 C   0  0  0  0  0  0  0  0  0  0  0  0
  135.7140   81.6810  226.9250 C   0  0  0  0  0  0  0  0  0  0  0  0
  134.8620   81.1750  225.9490 C   0  0  0  0  0  0  0  0  0  0  0  0
  135.3060   81.0980  224.6260 C   0  0  0  0  0  0  0  0  0  0  0  0
  137.8350   80.3690  222.4190 C   0  0  0  0  0  0  0  0  0  0  0  0
  138.1470   79.3930  223.5360 C   0  0  0  0  0  0  0  0  0  0  0  0
  138.4850   78.0380  222.9440 C   0  0  0  0  0  0  0  0  0  0  0  0
  139.0640   78.2070  221.6000 N   0  0  0  0  0  0  0  0  0  0  0  0
  140.3970   77.8240  221.4280 C   0  0  0  0  0  0  0  0  0  0  0  0
  140.9990   77.3660  222.4640 O   0  0  0  0  0  0  0  0  0  0  0  0
  141.2090   77.8800  220.1930 C   0  0  2  0  0  0  0  0  0  0  0  0
  142.4800   77.2460  220.2840 N   0  0  0  0  0  0  0  0  0  0  0  0
  141.1480   79.2000  219.5270 C   0  0  2  0  0  0  0  0  0  0  0  0
  142.3380   79.4670  218.6270 C   0  0  0  0  0  0  0  0  0  0  0  0
  142.2200   80.9600  218.4070 C   0  0  0  0  0  0  0  0  0  0  0  0
  142.8030   81.7170  217.4130 C   0  0  0  0  0  0  0  0  0  0  0  0
  142.5810   83.0690  217.3590 C   0  0  0  0  0  0  0  0  0  0  0  0
  141.7690   83.6220  218.3180 C   0  0  0  0  0  0  0  0  0  0  0  0
  141.1740   82.8730  219.3280 C   0  0  0  0  0  0  0  0  0  0  0  0
  141.4020   81.5120  219.3760 C   0  0  0  0  0  0  0  0  0  0  0  0
  140.9300   80.4180  220.3180 C   0  0  2  0  0  0  0  0  0  0  0  0
  141.5590   80.5540  221.6250 C   0  0  0  0  0  0  0  0  0  0  0  0
  142.7660   80.0160  222.0020 C   0  0  0  0  0  0  0  0  0  0  0  0
  143.2940   80.1930  223.2750 C   0  0  0  0  0  0  0  0  0  0  0  0
  142.5710   80.9390  224.1910 C   0  0  0  0  0  0  0  0  0  0  0  0
  141.3860   81.4720  223.8350 N   0  0  0  0  0  0  0  0  0  0  0  0
  140.8790   81.2970  222.5970 C   0  0  0  0  0  0  0  0  0  0  0  0
  138.1870   78.7660  220.6040 C   0  0  0  0  0  0  0  0  0  0  0  0
  137.1170   79.6010  221.3310 C   0  0  0  0  0  0  0  0  0  0  0  0
  139.7063   83.7942  222.2703 H   0  0  0  0  0  0  0  0  0  0  0  0
  138.8989   82.9262  220.9208 H   0  0  0  0  0  0  0  0  0  0  0  0
  138.9674   84.7212  220.9208 H   0  0  0  0  0  0  0  0  0  0  0  0
  137.7585   84.0321  223.3754 H   0  0  0  0  0  0  0  0  0  0  0  0
  136.9485   84.7055  221.9259 H   0  0  0  0  0  0  0  0  0  0  0  0
  138.4356   82.3557  224.9966 H   0  0  0  0  0  0  0  0  0  0  0  0
  137.6497   82.4939  227.3380 H   0  0  0  0  0  0  0  0  0  0  0  0
  135.3828   81.7503  227.9717 H   0  0  0  0  0  0  0  0  0  0  0  0
  133.8491   80.8389  226.2156 H   0  0  0  0  0  0  0  0  0  0  0  0
  134.6350   80.6995  223.8508 H   0  0  0  0  0  0  0  0  0  0  0  0
  138.7355   80.8103  221.9669 H   0  0  0  0  0  0  0  0  0  0  0  0
  139.0042   79.7632  224.1175 H   0  0  0  0  0  0  0  0  0  0  0  0
  137.2710   79.2972  224.1944 H   0  0  0  0  0  0  0  0  0  0  0  0
  139.2123   77.5280  223.5927 H   0  0  0  0  0  0  0  0  0  0  0  0
  137.5668   77.4368  222.8692 H   0  0  0  0  0  0  0  0  0  0  0  0
  140.7180   77.2173  219.4652 H   0  0  0  0  0  0  0  0  0  0  0  0
  142.6410   76.7410  221.1590 H   0  0  0  0  0  0  0  0  0  0  0  0
  143.3060   77.8240  220.0600 H   0  0  0  0  0  0  0  0  0  0  0  0
  140.2073   79.0425  218.9790 H   0  0  0  0  0  0  0  0  0  0  0  0
  143.2843   79.2075  219.1243 H   0  0  0  0  0  0  0  0  0  0  0  0
  142.3409   78.8755  217.6995 H   0  0  0  0  0  0  0  0  0  0  0  0
  143.4471   81.2357  216.6623 H   0  0  0  0  0  0  0  0  0  0  0  0
  143.0380   83.6894  216.5740 H   0  0  0  0  0  0  0  0  0  0  0  0
  141.5806   84.7053  218.2863 H   0  0  0  0  0  0  0  0  0  0  0  0
  140.5312   83.3579  220.0775 H   0  0  0  0  0  0  0  0  0  0  0  0
  139.8747   80.4366  220.6279 H   0  0  0  0  0  0  0  0  0  0  0  0
  143.3346   79.4240  221.2697 H   0  0  0  0  0  0  0  0  0  0  0  0
  144.2634   79.7511  223.5488 H   0  0  0  0  0  0  0  0  0  0  0  0
  142.9633   81.0959  225.2066 H   0  0  0  0  0  0  0  0  0  0  0  0
  139.9082   81.7490  222.3455 H   0  0  0  0  0  0  0  0  0  0  0  0
  138.7604   79.4079  219.9190 H   0  0  0  0  0  0  0  0  0  0  0  0
  137.7144   77.9651  220.0165 H   0  0  0  0  0  0  0  0  0  0  0  0
  136.6367   80.2977  220.6281 H   0  0  0  0  0  0  0  0  0  0  0  0
  136.3299   78.9581  221.7520 H   0  0  0  0  0  0  0  0  0  0  0  0
  1  2  1  0
  2  3  1  0
  3  4  2  0
  3  5  1  0
  5  6  1  0
  6  7  2  0
  7  8  1  0
  8  9  2  0
  9 10  1  0
 10 11  2  0
  5 12  1  0
 12 13  1  0
 13 14  1  0
 14 15  1  0
 15 16  1  0
 16 17  2  0
 16 18  1  0
 18 19  1  0
 18 20  1  0
 20 21  1  0
 21 22  1  0
 22 23  2  0
 23 24  1  0
 24 25  2  0
 25 26  1  0
 26 27  2  0
 27 28  1  0
 28 29  1  0
 29 30  2  0
 30 31  1  0
 31 32  2  0
 32 33  1  0
 33 34  2  0
 15 35  1  0
 35 36  1  0
 11  6  1  0
 36 12  1  0
 28 20  1  0
 34 29  1  0
 27 22  1  0
  1 37  1  0
  1 38  1  0
  1 39  1  0
  2 40  1  0
  2 41  1  0
  7 42  1  0
  8 43  1  0
  9 44  1  0
 10 45  1  0
 11 46  1  0
 12 47  1  0
 13 48  1  0
 13 49  1  0
 14 50  1  0
 14 51  1  0
 18 52  1  6
 19 53  1  0
 19 54  1  0
 20 55  1  6
 21 56  1  0
 21 57  1  0
 23 58  1  0
 24 59  1  0
 25 60  1  0
 26 61  1  0
 28 62  1  1
 30 63  1  0
 31 64  1  0
 32 65  1  0
 34 66  1  0
 35 67  1  0
 35 68  1  0
 36 69  1  0
 36 70  1  0
M  END
>  <smiles>  (8) 
CCC(=O)N(c1ccccc1)C1CCN(C(=O)[C@H](N)C2Cc3ccccc3C2c2cccnc2)CC1

>  <score_type>  (8) 
oracle

>  <origin>  (8) 
autodockgpu

>  <m_score__min__energy>  (8) 
-9.3599999999999994

>  <m_primary>  (8) 
energy

>  <rmsd>  (8) 
4.907593293736885

>  <m_score__min__rmsd>  (8) 
4.907593293736885

>  <meeko>  (8) 
{"free_energy": -7.06, "intermolecular_energy": -9.44, "internal_energy": -4.21, "cluster_size": 12, "cluster_id": 4, "rank_in_cluster": 9}

>  <energy>  (8) 
-9.34

>  <cluster_rmsd>  (8) 
0.65

>  <cluster>  (8) 
1

$$$$

     RDKit          3D

 70 74  0  0  0  0  0  0  0  0999 V2000
  138.2430   68.4730  221.7630 C   0  0  0  0  0  0  0  0  0  0  0  0
  138.7430   68.2980  223.1770 C   0  0  0  0  0  0  0  0  0  0  0  0
  138.3190   69.4720  223.9850 C   0  0  0  0  0  0  0  0  0  0  0  0
  137.0950   69.5340  224.2790 O   0  0  0  0  0  0  0  0  0  0  0  0
  139.2570   70.4720  224.4000 N   0  0  0  0  0  0  0  0  0  0  0  0
  139.8510   70.3240  225.6840 C   0  0  0  0  0  0  0  0  0  0  0  0
  139.7890   69.0460  226.2430 C   0  0  0  0  0  0  0  0  0  0  0  0
  140.3440   68.8340  227.4880 C   0  0  0  0  0  0  0  0  0  0  0  0
  140.9560   69.8460  228.1910 C   0  0  0  0  0  0  0  0  0  0  0  0
  141.0170   71.1190  227.6330 C   0  0  0  0  0  0  0  0  0  0  0  0
  140.4570   71.3410  226.3730 C   0  0  0  0  0  0  0  0  0  0  0  0
  139.5280   71.5420  223.4920 C   0  0  0  0  0  0  0  0  0  0  0  0
  140.6800   71.1360  222.5950 C   0  0  0  0  0  0  0  0  0  0  0  0
  140.6740   71.9940  221.3440 C   0  0  0  0  0  0  0  0  0  0  0  0
  140.0790   73.3080  221.6400 N   0  0  0  0  0  0  0  0  0  0  0  0
  140.9170   74.4230  221.5440 C   0  0  0  0  0  0  0  0  0  0  0  0
  142.1350   74.1970  221.2150 O   0  0  0  0  0  0  0  0  0  0  0  0
  140.5730   75.8440  221.7770 C   0  0  2  0  0  0  0  0  0  0  0  0
  139.4500   76.0560  222.6260 N   0  0  0  0  0  0  0  0  0  0  0  0
  140.6690   76.6650  220.5500 C   0  0  2  0  0  0  0  0  0  0  0  0
  141.9560   76.4380  219.7820 C   0  0  0  0  0  0  0  0  0  0  0  0
  141.9640   77.6300  218.8500 C   0  0  0  0  0  0  0  0  0  0  0  0
  142.6920   77.7910  217.6890 C   0  0  0  0  0  0  0  0  0  0  0  0
  142.5700   78.9440  216.9560 C   0  0  0  0  0  0  0  0  0  0  0  0
  141.7100   79.9080  217.4190 C   0  0  0  0  0  0  0  0  0  0  0  0
  140.9690   79.7620  218.5880 C   0  0  0  0  0  0  0  0  0  0  0  0
  141.0970   78.5980  219.3210 C   0  0  0  0  0  0  0  0  0  0  0  0
  140.4600   78.1180  220.6130 C   0  0  2  0  0  0  0  0  0  0  0  0
  140.9670   78.8720  221.7510 C   0  0  0  0  0  0  0  0  0  0  0  0
  142.2780   79.2240  221.9690 C   0  0  0  0  0  0  0  0  0  0  0  0
  142.6780   79.9460  223.0880 C   0  0  0  0  0  0  0  0  0  0  0  0
  141.7150   80.3190  224.0110 C   0  0  0  0  0  0  0  0  0  0  0  0
  140.4270   79.9800  223.8090 N   0  0  0  0  0  0  0  0  0  0  0  0
  140.0450   79.2800  222.7210 C   0  0  0  0  0  0  0  0  0  0  0  0
  138.6870   73.2980  222.0110 C   0  0  0  0  0  0  0  0  0  0  0  0
  138.3640   71.9130  222.5980 C   0  0  0  0  0  0  0  0  0  0  0  0
  137.2049   68.8363  221.7835 H   0  0  0  0  0  0  0  0  0  0  0  0
  138.8766   69.2028  221.2377 H   0  0  0  0  0  0  0  0  0  0  0  0
  138.2832   67.5074  221.2377 H   0  0  0  0  0  0  0  0  0  0  0  0
  138.3179   67.3797  223.6083 H   0  0  0  0  0  0  0  0  0  0  0  0
  139.8403   68.2207  223.1781 H   0  0  0  0  0  0  0  0  0  0  0  0
  139.3052   68.2212  225.6992 H   0  0  0  0  0  0  0  0  0  0  0  0
  140.2959   67.8282  227.9309 H   0  0  0  0  0  0  0  0  0  0  0  0
  141.3917   69.6510  229.1820 H   0  0  0  0  0  0  0  0  0  0  0  0
  141.5013   71.9422  228.1786 H   0  0  0  0  0  0  0  0  0  0  0  0
  140.5032   72.3459  225.9280 H   0  0  0  0  0  0  0  0  0  0  0  0
  139.7537   72.4201  224.1148 H   0  0  0  0  0  0  0  0  0  0  0  0
  141.6298   71.2770  223.1317 H   0  0  0  0  0  0  0  0  0  0  0  0
  140.5707   70.0780  222.3143 H   0  0  0  0  0  0  0  0  0  0  0  0
  141.7068   72.1324  220.9917 H   0  0  0  0  0  0  0  0  0  0  0  0
  140.0791   71.4944  220.5652 H   0  0  0  0  0  0  0  0  0  0  0  0
  141.3706   76.2594  222.4105 H   0  0  0  0  0  0  0  0  0  0  0  0
  139.4780   76.9300  223.1570 H   0  0  0  0  0  0  0  0  0  0  0  0
  139.1860   75.2790  223.2510 H   0  0  0  0  0  0  0  0  0  0  0  0
  139.7769   76.2700  220.0419 H   0  0  0  0  0  0  0  0  0  0  0  0
  142.8295   76.4445  220.4505 H   0  0  0  0  0  0  0  0  0  0  0  0
  142.0071   75.4664  219.2687 H   0  0  0  0  0  0  0  0  0  0  0  0
  143.3707   76.9941  217.3510 H   0  0  0  0  0  0  0  0  0  0  0  0
  143.1423   79.0910  216.0282 H   0  0  0  0  0  0  0  0  0  0  0  0
  141.6015   80.8373  216.8405 H   0  0  0  0  0  0  0  0  0  0  0  0
  140.2917   80.5613  218.9232 H   0  0  0  0  0  0  0  0  0  0  0  0
  139.3836   78.3014  220.7459 H   0  0  0  0  0  0  0  0  0  0  0  0
  143.0374   78.9238  221.2320 H   0  0  0  0  0  0  0  0  0  0  0  0
  143.7343   80.2146  223.2367 H   0  0  0  0  0  0  0  0  0  0  0  0
  142.0011   80.8904  224.9064 H   0  0  0  0  0  0  0  0  0  0  0  0
  138.9829   79.0238  222.5933 H   0  0  0  0  0  0  0  0  0  0  0  0
  138.4952   74.0769  222.7637 H   0  0  0  0  0  0  0  0  0  0  0  0
  138.0551   73.4990  221.1334 H   0  0  0  0  0  0  0  0  0  0  0  0
  137.4339   71.9562  223.1837 H   0  0  0  0  0  0  0  0  0  0  0  0
  138.2209   71.1675  221.8019 H   0  0  0  0  0  0  0  0  0  0  0  0
  1  2  1  0
  2  3  1  0
  3  4  2  0
  3  5  1  0
  5  6  1  0
  6  7  2  0
  7  8  1  0
  8  9  2  0
  9 10  1  0
 10 11  2  0
  5 12  1  0
 12 13  1  0
 13 14  1  0
 14 15  1  0
 15 16  1  0
 16 17  2  0
 16 18  1  0
 18 19  1  0
 18 20  1  0
 20 21  1  0
 21 22  1  0
 22 23  2  0
 23 24  1  0
 24 25  2  0
 25 26  1  0
 26 27  2  0
 27 28  1  0
 28 29  1  0
 29 30  2  0
 30 31  1  0
 31 32  2  0
 32 33  1  0
 33 34  2  0
 15 35  1  0
 35 36  1  0
 11  6  1  0
 36 12  1  0
 28 20  1  0
 34 29  1  0
 27 22  1  0
  1 37  1  0
  1 38  1  0
  1 39  1  0
  2 40  1  0
  2 41  1  0
  7 42  1  0
  8 43  1  0
  9 44  1  0
 10 45  1  0
 11 46  1  0
 12 47  1  0
 13 48  1  0
 13 49  1  0
 14 50  1  0
 14 51  1  0
 18 52  1  1
 19 53  1  0
 19 54  1  0
 20 55  1  6
 21 56  1  0
 21 57  1  0
 23 58  1  0
 24 59  1  0
 25 60  1  0
 26 61  1  0
 28 62  1  6
 30 63  1  0
 31 64  1  0
 32 65  1  0
 34 66  1  0
 35 67  1  0
 35 68  1  0
 36 69  1  0
 36 70  1  0
M  END
>  <smiles>  (9) 
CCC(=O)N(c1ccccc1)C1CCN(C(=O)[C@H](N)C2Cc3ccccc3C2c2cccnc2)CC1

>  <score_type>  (9) 
oracle

>  <origin>  (9) 
autodockgpu

>  <m_score__min__energy>  (9) 
-9.3599999999999994

>  <m_primary>  (9) 
energy

>  <rmsd>  (9) 
6.200386025563366

>  <m_score__min__rmsd>  (9) 
6.200386025563366

>  <meeko>  (9) 
{"free_energy": -8.83, "intermolecular_energy": -11.22, "internal_energy": -2.05, "cluster_size": 36, "cluster_id": 1, "rank_in_cluster": 34}

>  <energy>  (9) 
-9.33

>  <cluster_rmsd>  (9) 
0.57

>  <cluster>  (9) 
1

$$$$

     RDKit          3D

 70 74  0  0  0  0  0  0  0  0999 V2000
  136.0200   69.0330  223.3960 C   0  0  0  0  0  0  0  0  0  0  0  0
  136.7930   69.5160  224.6000 C   0  0  0  0  0  0  0  0  0  0  0  0
  138.2480   69.4410  224.2990 C   0  0  0  0  0  0  0  0  0  0  0  0
  138.6510   68.3780  223.7540 O   0  0  0  0  0  0  0  0  0  0  0  0
  139.1330   70.5210  224.6160 N   0  0  0  0  0  0  0  0  0  0  0  0
  139.8010   70.4790  225.8700 C   0  0  0  0  0  0  0  0  0  0  0  0
  139.8470   69.2310  226.4960 C   0  0  0  0  0  0  0  0  0  0  0  0
  140.4780   69.1200  227.7180 C   0  0  0  0  0  0  0  0  0  0  0  0
  141.0610   70.2030  228.3350 C   0  0  0  0  0  0  0  0  0  0  0  0
  141.0150   71.4450  227.7100 C   0  0  0  0  0  0  0  0  0  0  0  0
  140.3770   71.5650  226.4730 C   0  0  0  0  0  0  0  0  0  0  0  0
  139.2830   71.5600  223.6450 C   0  0  0  0  0  0  0  0  0  0  0  0
  140.6650   71.4560  223.0330 C   0  0  0  0  0  0  0  0  0  0  0  0
  140.6870   72.1880  221.7040 C   0  0  0  0  0  0  0  0  0  0  0  0
  139.7010   73.2820  221.7180 N   0  0  0  0  0  0  0  0  0  0  0  0
  140.1960   74.5860  221.6380 C   0  0  0  0  0  0  0  0  0  0  0  0
  141.4700   74.7120  221.5690 O   0  0  0  0  0  0  0  0  0  0  0  0
  139.4300   75.8520  221.6220 C   0  0  2  0  0  0  0  0  0  0  0  0
  138.8250   76.1700  220.3740 N   0  0  0  0  0  0  0  0  0  0  0  0
  140.1150   76.9450  222.3490 C   0  0  2  0  0  0  0  0  0  0  0  0
  139.2420   78.1680  222.5420 C   0  0  0  0  0  0  0  0  0  0  0  0
  140.2680   79.2110  222.9320 C   0  0  0  0  0  0  0  0  0  0  0  0
  140.0490   80.4190  223.5600 C   0  0  0  0  0  0  0  0  0  0  0  0
  141.1050   81.2450  223.8470 C   0  0  0  0  0  0  0  0  0  0  0  0
  142.3610   80.8250  223.4890 C   0  0  0  0  0  0  0  0  0  0  0  0
  142.5990   79.6090  222.8550 C   0  0  0  0  0  0  0  0  0  0  0  0
  141.5310   78.7830  222.5690 C   0  0  0  0  0  0  0  0  0  0  0  0
  141.4280   77.4240  221.8970 C   0  0  2  0  0  0  0  0  0  0  0  0
  141.7080   77.5290  220.4720 C   0  0  0  0  0  0  0  0  0  0  0  0
  142.6250   76.7820  219.7700 C   0  0  0  0  0  0  0  0  0  0  0  0
  142.8320   76.9490  218.4060 C   0  0  0  0  0  0  0  0  0  0  0  0
  142.0850   77.9060  217.7380 C   0  0  0  0  0  0  0  0  0  0  0  0
  141.1850   78.6450  218.4140 N   0  0  0  0  0  0  0  0  0  0  0  0
  140.9870   78.4780  219.7380 C   0  0  0  0  0  0  0  0  0  0  0  0
  138.3210   72.8820  221.8250 C   0  0  0  0  0  0  0  0  0  0  0  0
  138.2790   71.5060  222.5140 C   0  0  0  0  0  0  0  0  0  0  0  0
  135.1311   68.4776  223.7296 H   0  0  0  0  0  0  0  0  0  0  0  0
  135.7070   69.8965  222.7907 H   0  0  0  0  0  0  0  0  0  0  0  0
  136.6589   68.3731  222.7907 H   0  0  0  0  0  0  0  0  0  0  0  0
  136.5153   70.5565  224.8243 H   0  0  0  0  0  0  0  0  0  0  0  0
  136.5592   68.8860  225.4709 H   0  0  0  0  0  0  0  0  0  0  0  0
  139.3876   68.3509  226.0223 H   0  0  0  0  0  0  0  0  0  0  0  0
  140.5161   68.1383  228.2128 H   0  0  0  0  0  0  0  0  0  0  0  0
  141.5571   70.0881  229.3100 H   0  0  0  0  0  0  0  0  0  0  0  0
  141.4762   72.3235  228.1849 H   0  0  0  0  0  0  0  0  0  0  0  0
  140.3368   72.5457  225.9765 H   0  0  0  0  0  0  0  0  0  0  0  0
  139.1193   72.5057  224.1825 H   0  0  0  0  0  0  0  0  0  0  0  0
  141.4019   71.9085  223.7129 H   0  0  0  0  0  0  0  0  0  0  0  0
  140.9156   70.3971  222.8721 H   0  0  0  0  0  0  0  0  0  0  0  0
  141.6909   72.6039  221.5332 H   0  0  0  0  0  0  0  0  0  0  0  0
  140.4346   71.4832  220.8981 H   0  0  0  0  0  0  0  0  0  0  0  0
  138.5299   75.6799  222.2305 H   0  0  0  0  0  0  0  0  0  0  0  0
  139.4850   76.4310  219.6360 H   0  0  0  0  0  0  0  0  0  0  0  0
  138.0420   76.8430  220.3930 H   0  0  0  0  0  0  0  0  0  0  0  0
  140.3163   76.3964  223.2809 H   0  0  0  0  0  0  0  0  0  0  0  0
  138.7232   78.4425  221.6117 H   0  0  0  0  0  0  0  0  0  0  0  0
  138.4365   78.0330  223.2789 H   0  0  0  0  0  0  0  0  0  0  0  0
  139.0263   80.7201  223.8309 H   0  0  0  0  0  0  0  0  0  0  0  0
  140.9503   82.2122  224.3476 H   0  0  0  0  0  0  0  0  0  0  0  0
  143.2175   81.4779  223.7128 H   0  0  0  0  0  0  0  0  0  0  0  0
  143.6230   79.3108  222.5859 H   0  0  0  0  0  0  0  0  0  0  0  0
  142.1780   76.6662  222.1677 H   0  0  0  0  0  0  0  0  0  0  0  0
  143.2156   76.0254  220.3074 H   0  0  0  0  0  0  0  0  0  0  0  0
  143.5712   76.3361  217.8694 H   0  0  0  0  0  0  0  0  0  0  0  0
  142.2269   78.0616  216.6583 H   0  0  0  0  0  0  0  0  0  0  0  0
  140.2416   79.1021  220.2527 H   0  0  0  0  0  0  0  0  0  0  0  0
  137.7642   73.6173  222.4245 H   0  0  0  0  0  0  0  0  0  0  0  0
  137.8602   72.8253  220.8278 H   0  0  0  0  0  0  0  0  0  0  0  0
  137.2715   71.3098  222.9095 H   0  0  0  0  0  0  0  0  0  0  0  0
  138.5208   70.6995  221.8061 H   0  0  0  0  0  0  0  0  0  0  0  0
  1  2  1  0
  2  3  1  0
  3  4  2  0
  3  5  1  0
  5  6  1  0
  6  7  2  0
  7  8  1  0
  8  9  2  0
  9 10  1  0
 10 11  2  0
  5 12  1  0
 12 13  1  0
 13 14  1  0
 14 15  1  0
 15 16  1  0
 16 17  2  0
 16 18  1  0
 18 19  1  0
 18 20  1  0
 20 21  1  0
 21 22  1  0
 22 23  2  0
 23 24  1  0
 24 25  2  0
 25 26  1  0
 26 27  2  0
 27 28  1  0
 28 29  1  0
 29 30  2  0
 30 31  1  0
 31 32  2  0
 32 33  1  0
 33 34  2  0
 15 35  1  0
 35 36  1  0
 11  6  1  0
 36 12  1  0
 28 20  1  0
 34 29  1  0
 27 22  1  0
  1 37  1  0
  1 38  1  0
  1 39  1  0
  2 40  1  0
  2 41  1  0
  7 42  1  0
  8 43  1  0
  9 44  1  0
 10 45  1  0
 11 46  1  0
 12 47  1  0
 13 48  1  0
 13 49  1  0
 14 50  1  0
 14 51  1  0
 18 52  1  1
 19 53  1  0
 19 54  1  0
 20 55  1  1
 21 56  1  0
 21 57  1  0
 23 58  1  0
 24 59  1  0
 25 60  1  0
 26 61  1  0
 28 62  1  1
 30 63  1  0
 31 64  1  0
 32 65  1  0
 34 66  1  0
 35 67  1  0
 35 68  1  0
 36 69  1  0
 36 70  1  0
M  END
>  <smiles>  (10) 
CCC(=O)N(c1ccccc1)C1CCN(C(=O)[C@H](N)C2Cc3ccccc3C2c2cccnc2)CC1

>  <score_type>  (10) 
oracle

>  <origin>  (10) 
autodockgpu

>  <m_score__min__energy>  (10) 
-9.3599999999999994

>  <m_primary>  (10) 
energy

>  <rmsd>  (10) 
5.394505477945979

>  <m_score__min__rmsd>  (10) 
5.394505477945979

>  <meeko>  (10) 
{"free_energy": -9.35, "intermolecular_energy": -11.73, "internal_energy": -2.26, "cluster_size": 36, "cluster_id": 1, "rank_in_cluster": 4}

>  <energy>  (10) 
-9.33

>  <cluster_rmsd>  (10) 
0.6

>  <cluster>  (10) 
1

$$$$

     RDKit          3D

 70 74  0  0  0  0  0  0  0  0999 V2000
  138.8240   67.6120  223.0670 C   0  0  0  0  0  0  0  0  0  0  0  0
  137.6320   68.5380  223.0350 C   0  0  0  0  0  0  0  0  0  0  0  0
  137.6870   69.4350  224.2200 C   0  0  0  0  0  0  0  0  0  0  0  0
  136.6550   69.4660  224.9450 O   0  0  0  0  0  0  0  0  0  0  0  0
  138.8510   70.2160  224.5130 N   0  0  0  0  0  0  0  0  0  0  0  0
  139.5740   69.9010  225.6960 C   0  0  0  0  0  0  0  0  0  0  0  0
  140.2520   70.9630  226.2990 C   0  0  0  0  0  0  0  0  0  0  0  0
  140.9770   70.7260  227.4490 C   0  0  0  0  0  0  0  0  0  0  0  0
  141.0480   69.4740  228.0160 C   0  0  0  0  0  0  0  0  0  0  0  0
  140.3720   68.4170  227.4150 C   0  0  0  0  0  0  0  0  0  0  0  0
  139.6370   68.6510  226.2500 C   0  0  0  0  0  0  0  0  0  0  0  0
  139.2020   71.2510  223.5920 C   0  0  0  0  0  0  0  0  0  0  0  0
  140.2980   70.7380  222.6790 C   0  0  0  0  0  0  0  0  0  0  0  0
  140.3480   71.5850  221.4220 C   0  0  0  0  0  0  0  0  0  0  0  0
  139.8770   72.9490  221.7170 N   0  0  0  0  0  0  0  0  0  0  0  0
  140.8090   73.9840  221.5990 C   0  0  0  0  0  0  0  0  0  0  0  0
  141.9970   73.6480  221.2520 O   0  0  0  0  0  0  0  0  0  0  0  0
  140.5980   75.4310  221.8250 C   0  0  2  0  0  0  0  0  0  0  0  0
  139.5090   75.7480  222.6860 N   0  0  0  0  0  0  0  0  0  0  0  0
  140.7510   76.2320  220.5910 C   0  0  2  0  0  0  0  0  0  0  0  0
  142.0840   76.0160  219.9030 C   0  0  0  0  0  0  0  0  0  0  0  0
  142.1260   77.1910  218.9510 C   0  0  0  0  0  0  0  0  0  0  0  0
  142.9170   77.3450  217.8320 C   0  0  0  0  0  0  0  0  0  0  0  0
  142.8190   78.4830  217.0720 C   0  0  0  0  0  0  0  0  0  0  0  0
  141.9170   79.4400  217.4670 C   0  0  0  0  0  0  0  0  0  0  0  0
  141.1120   79.3000  218.5940 C   0  0  0  0  0  0  0  0  0  0  0  0
  141.2160   78.1520  219.3540 C   0  0  0  0  0  0  0  0  0  0  0  0
  140.5140   77.6820  220.6160 C   0  0  2  0  0  0  0  0  0  0  0  0
  140.9410   78.4650  221.7670 C   0  0  0  0  0  0  0  0  0  0  0  0
  142.1920   79.0010  221.9620 C   0  0  0  0  0  0  0  0  0  0  0  0
  142.5180   79.7360  223.0960 C   0  0  0  0  0  0  0  0  0  0  0  0
  141.5410   79.9290  224.0590 C   0  0  0  0  0  0  0  0  0  0  0  0
  140.3120   79.4090  223.8810 N   0  0  0  0  0  0  0  0  0  0  0  0
  140.0020   78.6970  222.7780 C   0  0  0  0  0  0  0  0  0  0  0  0
  138.4960   73.0660  222.1100 C   0  0  0  0  0  0  0  0  0  0  0  0
  138.0610   71.7180  222.7140 C   0  0  0  0  0  0  0  0  0  0  0  0
  139.0961   67.4006  224.1116 H   0  0  0  0  0  0  0  0  0  0  0  0
  138.5712   66.6711  222.5563 H   0  0  0  0  0  0  0  0  0  0  0  0
  139.6732   68.0896  222.5563 H   0  0  0  0  0  0  0  0  0  0  0  0
  137.6567   69.1400  222.1147 H   0  0  0  0  0  0  0  0  0  0  0  0
  136.7026   67.9500  223.0554 H   0  0  0  0  0  0  0  0  0  0  0  0
  140.2087   71.9724  225.8640 H   0  0  0  0  0  0  0  0  0  0  0  0
  141.5127   71.5603  227.9254 H   0  0  0  0  0  0  0  0  0  0  0  0
  141.6324   69.3110  228.9336 H   0  0  0  0  0  0  0  0  0  0  0  0
  140.4156   67.4085  227.8520 H   0  0  0  0  0  0  0  0  0  0  0  0
  139.1011   67.8183  225.7710 H   0  0  0  0  0  0  0  0  0  0  0  0
  139.5166   72.1091  224.2042 H   0  0  0  0  0  0  0  0  0  0  0  0
  141.2655   70.7965  223.1991 H   0  0  0  0  0  0  0  0  0  0  0  0
  140.0895   69.6925  222.4081 H   0  0  0  0  0  0  0  0  0  0  0  0
  141.3832   71.6286  221.0526 H   0  0  0  0  0  0  0  0  0  0  0  0
  139.6985   71.1354  220.6565 H   0  0  0  0  0  0  0  0  0  0  0  0
  141.4384   75.7773  222.4445 H   0  0  0  0  0  0  0  0  0  0  0  0
  139.1970   74.9740  223.2790 H   0  0  0  0  0  0  0  0  0  0  0  0
  138.6910   76.2050  222.2530 H   0  0  0  0  0  0  0  0  0  0  0  0
  139.8972   75.8117  220.0393 H   0  0  0  0  0  0  0  0  0  0  0  0
  142.9169   76.0504  220.6207 H   0  0  0  0  0  0  0  0  0  0  0  0
  142.1815   75.0368  219.4114 H   0  0  0  0  0  0  0  0  0  0  0  0
  143.6274   76.5545  217.5484 H   0  0  0  0  0  0  0  0  0  0  0  0
  143.4420   78.6240  216.1765 H   0  0  0  0  0  0  0  0  0  0  0  0
  141.8266   80.3573  216.8667 H   0  0  0  0  0  0  0  0  0  0  0  0
  140.4031   80.0927  218.8751 H   0  0  0  0  0  0  0  0  0  0  0  0
  139.4286   77.8472  220.6841 H   0  0  0  0  0  0  0  0  0  0  0  0
  142.9625   78.8425  221.1931 H   0  0  0  0  0  0  0  0  0  0  0  0
  143.5271   80.1542  223.2255 H   0  0  0  0  0  0  0  0  0  0  0  0
  141.7690   80.5060  224.9674 H   0  0  0  0  0  0  0  0  0  0  0  0
  138.9862   78.2888  222.6708 H   0  0  0  0  0  0  0  0  0  0  0  0
  138.3868   73.8641  222.8591 H   0  0  0  0  0  0  0  0  0  0  0  0
  137.8699   73.3169  221.2411 H   0  0  0  0  0  0  0  0  0  0  0  0
  137.1483   71.8476  223.3142 H   0  0  0  0  0  0  0  0  0  0  0  0
  137.8391   70.9828  221.9264 H   0  0  0  0  0  0  0  0  0  0  0  0
  1  2  1  0
  2  3  1  0
  3  4  2  0
  3  5  1  0
  5  6  1  0
  6  7  2  0
  7  8  1  0
  8  9  2  0
  9 10  1  0
 10 11  2  0
  5 12  1  0
 12 13  1  0
 13 14  1  0
 14 15  1  0
 15 16  1  0
 16 17  2  0
 16 18  1  0
 18 19  1  0
 18 20  1  0
 20 21  1  0
 21 22  1  0
 22 23  2  0
 23 24  1  0
 24 25  2  0
 25 26  1  0
 26 27  2  0
 27 28  1  0
 28 29  1  0
 29 30  2  0
 30 31  1  0
 31 32  2  0
 32 33  1  0
 33 34  2  0
 15 35  1  0
 35 36  1  0
 11  6  1  0
 36 12  1  0
 28 20  1  0
 34 29  1  0
 27 22  1  0
  1 37  1  0
  1 38  1  0
  1 39  1  0
  2 40  1  0
  2 41  1  0
  7 42  1  0
  8 43  1  0
  9 44  1  0
 10 45  1  0
 11 46  1  0
 12 47  1  0
 13 48  1  0
 13 49  1  0
 14 50  1  0
 14 51  1  0
 18 52  1  1
 19 53  1  0
 19 54  1  0
 20 55  1  6
 21 56  1  0
 21 57  1  0
 23 58  1  0
 24 59  1  0
 25 60  1  0
 26 61  1  0
 28 62  1  6
 30 63  1  0
 31 64  1  0
 32 65  1  0
 34 66  1  0
 35 67  1  0
 35 68  1  0
 36 69  1  0
 36 70  1  0
M  END
>  <smiles>  (11) 
CCC(=O)N(c1ccccc1)C1CCN(C(=O)[C@H](N)C2Cc3ccccc3C2c2cccnc2)CC1

>  <score_type>  (11) 
oracle

>  <origin>  (11) 
autodockgpu

>  <m_score__min__energy>  (11) 
-9.3599999999999994

>  <m_primary>  (11) 
energy

>  <rmsd>  (11) 
6.536841426812753

>  <m_score__min__rmsd>  (11) 
6.536841426812753

>  <meeko>  (11) 
{"free_energy": -8.93, "intermolecular_energy": -11.32, "internal_energy": -2.04, "cluster_size": 36, "cluster_id": 1, "rank_in_cluster": 33}

>  <energy>  (11) 
-9.32

>  <cluster_rmsd>  (11) 
0.8

>  <cluster>  (11) 
1

$$$$

     RDKit          3D

 70 74  0  0  0  0  0  0  0  0999 V2000
  138.8050   67.2280  223.0000 C   0  0  0  0  0  0  0  0  0  0  0  0
  139.1350   68.6950  222.8640 C   0  0  0  0  0  0  0  0  0  0  0  0
  138.7670   69.3900  224.1270 C   0  0  0  0  0  0  0  0  0  0  0  0
  137.8720   68.8410  224.8250 O   0  0  0  0  0  0  0  0  0  0  0  0
  139.4000   70.6140  224.5180 N   0  0  0  0  0  0  0  0  0  0  0  0
  139.9450   70.6830  225.8300 C   0  0  0  0  0  0  0  0  0  0  0  0
  140.7060   71.8180  226.1160 C   0  0  0  0  0  0  0  0  0  0  0  0
  141.2660   71.9480  227.3700 C   0  0  0  0  0  0  0  0  0  0  0  0
  141.0950   70.9890  228.3430 C   0  0  0  0  0  0  0  0  0  0  0  0
  140.3370   69.8590  228.0570 C   0  0  0  0  0  0  0  0  0  0  0  0
  139.7660   69.7220  226.7890 C   0  0  0  0  0  0  0  0  0  0  0  0
  139.4400   71.6730  223.5590 C   0  0  0  0  0  0  0  0  0  0  0  0
  140.7320   71.5680  222.7740 C   0  0  0  0  0  0  0  0  0  0  0  0
  140.5950   72.3300  221.4690 C   0  0  0  0  0  0  0  0  0  0  0  0
  139.6350   73.4350  221.6330 N   0  0  0  0  0  0  0  0  0  0  0  0
  140.1340   74.7360  221.5190 C   0  0  0  0  0  0  0  0  0  0  0  0
  141.3910   74.8480  221.2910 O   0  0  0  0  0  0  0  0  0  0  0  0
  139.3910   76.0100  221.6290 C   0  0  2  0  0  0  0  0  0  0  0  0
  138.6960   76.4010  220.4500 N   0  0  0  0  0  0  0  0  0  0  0  0
  140.1490   77.0540  222.3550 C   0  0  2  0  0  0  0  0  0  0  0  0
  139.3180   78.2820  222.6680 C   0  0  0  0  0  0  0  0  0  0  0  0
  140.3910   79.2860  223.0300 C   0  0  0  0  0  0  0  0  0  0  0  0
  140.2430   80.4660  223.7290 C   0  0  0  0  0  0  0  0  0  0  0  0
  141.3340   81.2590  223.9770 C   0  0  0  0  0  0  0  0  0  0  0  0
  142.5520   80.8340  223.5100 C   0  0  0  0  0  0  0  0  0  0  0  0
  142.7190   79.6470  222.8030 C   0  0  0  0  0  0  0  0  0  0  0  0
  141.6160   78.8540  222.5570 C   0  0  0  0  0  0  0  0  0  0  0  0
  141.4360   77.5310  221.8320 C   0  0  2  0  0  0  0  0  0  0  0  0
  141.6160   77.7000  220.3970 C   0  0  0  0  0  0  0  0  0  0  0  0
  140.8960   78.5430  219.5840 C   0  0  0  0  0  0  0  0  0  0  0  0
  141.1320   78.6420  218.2180 C   0  0  0  0  0  0  0  0  0  0  0  0
  142.1300   77.8570  217.6640 C   0  0  0  0  0  0  0  0  0  0  0  0
  142.8440   77.0270  218.4480 N   0  0  0  0  0  0  0  0  0  0  0  0
  142.6100   76.9360  219.7740 C   0  0  0  0  0  0  0  0  0  0  0  0
  138.2740   73.0490  221.9060 C   0  0  0  0  0  0  0  0  0  0  0  0
  138.3000   71.6580  222.5640 C   0  0  0  0  0  0  0  0  0  0  0  0
  138.7454   66.9629  224.0659 H   0  0  0  0  0  0  0  0  0  0  0  0
  137.8383   67.0233  222.5166 H   0  0  0  0  0  0  0  0  0  0  0  0
  139.5908   66.6290  222.5166 H   0  0  0  0  0  0  0  0  0  0  0  0
  140.2122   68.8155  222.6764 H   0  0  0  0  0  0  0  0  0  0  0  0
  138.5731   69.1273  222.0229 H   0  0  0  0  0  0  0  0  0  0  0  0
  140.8567   72.5963  225.3534 H   0  0  0  0  0  0  0  0  0  0  0  0
  141.8652   72.8417  227.5987 H   0  0  0  0  0  0  0  0  0  0  0  0
  141.5528   71.1153  229.3352 H   0  0  0  0  0  0  0  0  0  0  0  0
  140.1884   69.0813  228.8206 H   0  0  0  0  0  0  0  0  0  0  0  0
  139.1647   68.8303  226.5581 H   0  0  0  0  0  0  0  0  0  0  0  0
  139.3589   72.6073  224.1338 H   0  0  0  0  0  0  0  0  0  0  0  0
  141.5553   71.9968  223.3641 H   0  0  0  0  0  0  0  0  0  0  0  0
  140.9458   70.5104  222.5601 H   0  0  0  0  0  0  0  0  0  0  0  0
  141.5749   72.7378  221.1800 H   0  0  0  0  0  0  0  0  0  0  0  0
  140.2316   71.6471  220.6869 H   0  0  0  0  0  0  0  0  0  0  0  0
  138.5385   75.8180  222.2971 H   0  0  0  0  0  0  0  0  0  0  0  0
  139.1850   76.1850  219.5770 H   0  0  0  0  0  0  0  0  0  0  0  0
  138.3410   77.3700  220.4180 H   0  0  0  0  0  0  0  0  0  0  0  0
  140.4046   76.4574  223.2431 H   0  0  0  0  0  0  0  0  0  0  0  0
  138.7395   78.6101  221.7918 H   0  0  0  0  0  0  0  0  0  0  0  0
  138.5649   78.1262  223.4545 H   0  0  0  0  0  0  0  0  0  0  0  0
  139.2489   80.7711  224.0878 H   0  0  0  0  0  0  0  0  0  0  0  0
  141.2359   82.2039  224.5316 H   0  0  0  0  0  0  0  0  0  0  0  0
  143.4361   81.4594  223.7030 H   0  0  0  0  0  0  0  0  0  0  0  0
  143.7146   79.3452  222.4456 H   0  0  0  0  0  0  0  0  0  0  0  0
  142.1866   76.7473  222.0122 H   0  0  0  0  0  0  0  0  0  0  0  0
  140.1041   79.1618  220.0311 H   0  0  0  0  0  0  0  0  0  0  0  0
  140.5409   79.3268  217.5921 H   0  0  0  0  0  0  0  0  0  0  0  0
  142.3389   77.9116  216.5854 H   0  0  0  0  0  0  0  0  0  0  0  0
  143.2147   76.2450  220.3797 H   0  0  0  0  0  0  0  0  0  0  0  0
  137.8088   73.7763  222.5876 H   0  0  0  0  0  0  0  0  0  0  0  0
  137.6892   73.0216  220.9747 H   0  0  0  0  0  0  0  0  0  0  0  0
  137.3481   71.4641  223.0800 H   0  0  0  0  0  0  0  0  0  0  0  0
  138.4384   70.8660  221.8133 H   0  0  0  0  0  0  0  0  0  0  0  0
  1  2  1  0
  2  3  1  0
  3  4  2  0
  3  5  1  0
  5  6  1  0
  6  7  2  0
  7  8  1  0
  8  9  2  0
  9 10  1  0
 10 11  2  0
  5 12  1  0
 12 13  1  0
 13 14  1  0
 14 15  1  0
 15 16  1  0
 16 17  2  0
 16 18  1  0
 18 19  1  0
 18 20  1  0
 20 21  1  0
 21 22  1  0
 22 23  2  0
 23 24  1  0
 24 25  2  0
 25 26  1  0
 26 27  2  0
 27 28  1  0
 28 29  1  0
 29 30  2  0
 30 31  1  0
 31 32  2  0
 32 33  1  0
 33 34  2  0
 15 35  1  0
 35 36  1  0
 11  6  1  0
 36 12  1  0
 28 20  1  0
 34 29  1  0
 27 22  1  0
  1 37  1  0
  1 38  1  0
  1 39  1  0
  2 40  1  0
  2 41  1  0
  7 42  1  0
  8 43  1  0
  9 44  1  0
 10 45  1  0
 11 46  1  0
 12 47  1  0
 13 48  1  0
 13 49  1  0
 14 50  1  0
 14 51  1  0
 18 52  1  1
 19 53  1  0
 19 54  1  0
 20 55  1  1
 21 56  1  0
 21 57  1  0
 23 58  1  0
 24 59  1  0
 25 60  1  0
 26 61  1  0
 28 62  1  1
 30 63  1  0
 31 64  1  0
 32 65  1  0
 34 66  1  0
 35 67  1  0
 35 68  1  0
 36 69  1  0
 36 70  1  0
M  END
>  <smiles>  (12) 
CCC(=O)N(c1ccccc1)C1CCN(C(=O)[C@H](N)C2Cc3ccccc3C2c2cccnc2)CC1

>  <score_type>  (12) 
oracle

>  <origin>  (12) 
autodockgpu

>  <m_score__min__energy>  (12) 
-9.3599999999999994

>  <m_primary>  (12) 
energy

>  <rmsd>  (12) 
5.329570355084413

>  <m_score__min__rmsd>  (12) 
5.329570355084413

>  <meeko>  (12) 
{"free_energy": -9.32, "intermolecular_energy": -11.71, "internal_energy": -2.12, "cluster_size": 36, "cluster_id": 1, "rank_in_cluster": 11}

>  <energy>  (12) 
-9.32

>  <cluster_rmsd>  (12) 
0.57

>  <cluster>  (12) 
1

$$$$

     RDKit          3D

 70 74  0  0  0  0  0  0  0  0999 V2000
  138.9140   84.4130  221.3310 C   0  0  0  0  0  0  0  0  0  0  0  0
  138.1690   83.1000  221.2970 C   0  0  0  0  0  0  0  0  0  0  0  0
  137.4240   82.9370  222.5730 C   0  0  0  0  0  0  0  0  0  0  0  0
  136.8050   83.9520  222.9920 O   0  0  0  0  0  0  0  0  0  0  0  0
  137.4160   81.6910  223.2810 N   0  0  0  0  0  0  0  0  0  0  0  0
  136.7590   81.6540  224.5410 C   0  0  0  0  0  0  0  0  0  0  0  0
  135.4690   81.1180  224.5420 C   0  0  0  0  0  0  0  0  0  0  0  0
  134.7730   81.0550  225.7310 C   0  0  0  0  0  0  0  0  0  0  0  0
  135.3150   81.5050  226.9140 C   0  0  0  0  0  0  0  0  0  0  0  0
  136.5990   82.0390  226.9120 C   0  0  0  0  0  0  0  0  0  0  0  0
  137.3100   82.1060  225.7100 C   0  0  0  0  0  0  0  0  0  0  0  0
  138.0680   80.5770  222.6650 C   0  0  0  0  0  0  0  0  0  0  0  0
  138.3820   79.5490  223.7330 C   0  0  0  0  0  0  0  0  0  0  0  0
  138.6080   78.1970  223.0830 C   0  0  0  0  0  0  0  0  0  0  0  0
  139.1220   78.3780  221.7150 N   0  0  0  0  0  0  0  0  0  0  0  0
  140.4200   77.9260  221.4570 C   0  0  0  0  0  0  0  0  0  0  0  0
  141.0500   77.4010  222.4420 O   0  0  0  0  0  0  0  0  0  0  0  0
  141.1650   77.9770  220.1800 C   0  0  2  0  0  0  0  0  0  0  0  0
  142.4250   77.3150  220.1960 N   0  0  0  0  0  0  0  0  0  0  0  0
  141.0990   79.3050  219.5300 C   0  0  2  0  0  0  0  0  0  0  0  0
  142.2720   79.5770  218.6110 C   0  0  0  0  0  0  0  0  0  0  0  0
  142.1580   81.0730  218.4110 C   0  0  0  0  0  0  0  0  0  0  0  0
  142.7260   81.8390  217.4150 C   0  0  0  0  0  0  0  0  0  0  0  0
  142.5100   83.1920  217.3810 C   0  0  0  0  0  0  0  0  0  0  0  0
  141.7190   83.7380  218.3610 C   0  0  0  0  0  0  0  0  0  0  0  0
  141.1390   82.9800  219.3740 C   0  0  0  0  0  0  0  0  0  0  0  0
  141.3620   81.6180  219.4010 C   0  0  0  0  0  0  0  0  0  0  0  0
  140.9010   80.5150  220.3400 C   0  0  2  0  0  0  0  0  0  0  0  0
  141.5550   80.6330  221.6360 C   0  0  0  0  0  0  0  0  0  0  0  0
  142.7060   79.9890  222.0230 C   0  0  0  0  0  0  0  0  0  0  0  0
  143.2640   80.1560  223.2850 C   0  0  0  0  0  0  0  0  0  0  0  0
  142.6300   81.0040  224.1780 C   0  0  0  0  0  0  0  0  0  0  0  0
  141.5010   81.6410  223.8120 N   0  0  0  0  0  0  0  0  0  0  0  0
  140.9650   81.4750  222.5860 C   0  0  0  0  0  0  0  0  0  0  0  0
  138.2260   79.0180  220.7860 C   0  0  0  0  0  0  0  0  0  0  0  0
  137.2470   79.8870  221.5970 C   0  0  0  0  0  0  0  0  0  0  0  0
  139.0834   84.7115  222.3761 H   0  0  0  0  0  0  0  0  0  0  0  0
  139.8818   84.2988  220.8208 H   0  0  0  0  0  0  0  0  0  0  0  0
  138.3195   85.1852  220.8208 H   0  0  0  0  0  0  0  0  0  0  0  0
  137.4625   83.0978  220.4539 H   0  0  0  0  0  0  0  0  0  0  0  0
  138.8805   82.2705  221.1718 H   0  0  0  0  0  0  0  0  0  0  0  0
  135.0154   80.7519  223.6091 H   0  0  0  0  0  0  0  0  0  0  0  0
  133.7569   80.6337  225.7343 H   0  0  0  0  0  0  0  0  0  0  0  0
  134.7394   81.4429  227.8493 H   0  0  0  0  0  0  0  0  0  0  0  0
  137.0504   82.4048  227.8460 H   0  0  0  0  0  0  0  0  0  0  0  0
  138.3260   82.5276  225.7035 H   0  0  0  0  0  0  0  0  0  0  0  0
  138.9670   80.9809  222.1764 H   0  0  0  0  0  0  0  0  0  0  0  0
  139.2894   79.8507  224.2767 H   0  0  0  0  0  0  0  0  0  0  0  0
  137.5386   79.4814  224.4360 H   0  0  0  0  0  0  0  0  0  0  0  0
  139.3385   77.6256  223.6744 H   0  0  0  0  0  0  0  0  0  0  0  0
  137.6540   77.6510  223.0420 H   0  0  0  0  0  0  0  0  0  0  0  0
  140.6192   77.3328  219.4750 H   0  0  0  0  0  0  0  0  0  0  0  0
  142.6110   76.7770  221.0470 H   0  0  0  0  0  0  0  0  0  0  0  0
  143.2530   77.8820  219.9560 H   0  0  0  0  0  0  0  0  0  0  0  0
  140.1481   79.1581  218.9968 H   0  0  0  0  0  0  0  0  0  0  0  0
  143.2263   79.3068  219.0867 H   0  0  0  0  0  0  0  0  0  0  0  0
  142.2536   78.9969  217.6766 H   0  0  0  0  0  0  0  0  0  0  0  0
  143.3533   81.3635  216.6467 H   0  0  0  0  0  0  0  0  0  0  0  0
  142.9555   83.8193  216.5948 H   0  0  0  0  0  0  0  0  0  0  0  0
  141.5354   84.8225  218.3450 H   0  0  0  0  0  0  0  0  0  0  0  0
  140.5127   83.4588  220.1411 H   0  0  0  0  0  0  0  0  0  0  0  0
  139.8519   80.5349  220.6701 H   0  0  0  0  0  0  0  0  0  0  0  0
  143.2035   79.3171  221.3081 H   0  0  0  0  0  0  0  0  0  0  0  0
  144.1865   79.6277  223.5676 H   0  0  0  0  0  0  0  0  0  0  0  0
  143.0477   81.1569  225.1841 H   0  0  0  0  0  0  0  0  0  0  0  0
  140.0420   82.0141  222.3261 H   0  0  0  0  0  0  0  0  0  0  0  0
  138.7976   79.6491  220.0896 H   0  0  0  0  0  0  0  0  0  0  0  0
  137.6770   78.2649  220.2016 H   0  0  0  0  0  0  0  0  0  0  0  0
  136.7698   80.6324  220.9438 H   0  0  0  0  0  0  0  0  0  0  0  0
  136.4480   79.2760  222.0423 H   0  0  0  0  0  0  0  0  0  0  0  0
  1  2  1  0
  2  3  1  0
  3  4  2  0
  3  5  1  0
  5  6  1  0
  6  7  2  0
  7  8  1  0
  8  9  2  0
  9 10  1  0
 10 11  2  0
  5 12  1  0
 12 13  1  0
 13 14  1  0
 14 15  1  0
 15 16  1  0
 16 17  2  0
 16 18  1  0
 18 19  1  0
 18 20  1  0
 20 21  1  0
 21 22  1  0
 22 23  2  0
 23 24  1  0
 24 25  2  0
 25 26  1  0
 26 27  2  0
 27 28  1  0
 28 29  1  0
 29 30  2  0
 30 31  1  0
 31 32  2  0
 32 33  1  0
 33 34  2  0
 15 35  1  0
 35 36  1  0
 11  6  1  0
 36 12  1  0
 28 20  1  0
 34 29  1  0
 27 22  1  0
  1 37  1  0
  1 38  1  0
  1 39  1  0
  2 40  1  0
  2 41  1  0
  7 42  1  0
  8 43  1  0
  9 44  1  0
 10 45  1  0
 11 46  1  0
 12 47  1  0
 13 48  1  0
 13 49  1  0
 14 50  1  0
 14 51  1  0
 18 52  1  6
 19 53  1  0
 19 54  1  0
 20 55  1  6
 21 56  1  0
 21 57  1  0
 23 58  1  0
 24 59  1  0
 25 60  1  0
 26 61  1  0
 28 62  1  1
 30 63  1  0
 31 64  1  0
 32 65  1  0
 34 66  1  0
 35 67  1  0
 35 68  1  0
 36 69  1  0
 36 70  1  0
M  END
>  <smiles>  (13) 
CCC(=O)N(c1ccccc1)C1CCN(C(=O)[C@H](N)C2Cc3ccccc3C2c2cccnc2)CC1

>  <score_type>  (13) 
oracle

>  <origin>  (13) 
autodockgpu

>  <m_score__min__energy>  (13) 
-9.3599999999999994

>  <m_primary>  (13) 
energy

>  <rmsd>  (13) 
4.983237778759832

>  <m_score__min__rmsd>  (13) 
4.983237778759832

>  <meeko>  (13) 
{"free_energy": -7.36, "intermolecular_energy": -9.75, "internal_energy": -4.08, "cluster_size": 12, "cluster_id": 4, "rank_in_cluster": 1}

>  <energy>  (13) 
-9.32

>  <cluster_rmsd>  (13) 
0.19

>  <cluster>  (13) 
1

$$$$

     RDKit          3D

 70 74  0  0  0  0  0  0  0  0999 V2000
  138.3820   68.0670  222.4040 C   0  0  0  0  0  0  0  0  0  0  0  0
  138.8100   68.1990  223.8460 C   0  0  0  0  0  0  0  0  0  0  0  0
  138.2950   69.4860  224.3850 C   0  0  0  0  0  0  0  0  0  0  0  0
  137.0500   69.5560  224.5680 O   0  0  0  0  0  0  0  0  0  0  0  0
  139.1740   70.5790  224.6760 N   0  0  0  0  0  0  0  0  0  0  0  0
  139.8420   70.5710  225.9310 C   0  0  0  0  0  0  0  0  0  0  0  0
  140.4510   71.7700  226.3080 C   0  0  0  0  0  0  0  0  0  0  0  0
  141.1200   71.8290  227.5130 C   0  0  0  0  0  0  0  0  0  0  0  0
  141.2020   70.7410  228.3520 C   0  0  0  0  0  0  0  0  0  0  0  0
  140.5950   69.5470  227.9760 C   0  0  0  0  0  0  0  0  0  0  0  0
  139.9160   69.4800  226.7560 C   0  0  0  0  0  0  0  0  0  0  0  0
  139.3150   71.5960  223.6820 C   0  0  0  0  0  0  0  0  0  0  0  0
  140.6910   71.4750  223.0580 C   0  0  0  0  0  0  0  0  0  0  0  0
  140.7010   72.1780  221.7130 C   0  0  0  0  0  0  0  0  0  0  0  0
  139.7180   73.2740  221.7130 N   0  0  0  0  0  0  0  0  0  0  0  0
  140.2150   74.5760  221.5990 C   0  0  0  0  0  0  0  0  0  0  0  0
  141.4890   74.6970  221.5150 O   0  0  0  0  0  0  0  0  0  0  0  0
  139.4520   75.8430  221.5650 C   0  0  2  0  0  0  0  0  0  0  0  0
  138.8840   76.1640  220.3000 N   0  0  0  0  0  0  0  0  0  0  0  0
  140.1180   76.9330  222.3130 C   0  0  2  0  0  0  0  0  0  0  0  0
  139.2360   78.1510  222.4980 C   0  0  0  0  0  0  0  0  0  0  0  0
  140.2500   79.1950  222.9150 C   0  0  0  0  0  0  0  0  0  0  0  0
  140.0130   80.3980  223.5480 C   0  0  0  0  0  0  0  0  0  0  0  0
  141.0600   81.2270  223.8620 C   0  0  0  0  0  0  0  0  0  0  0  0
  142.3250   80.8140  223.5250 C   0  0  0  0  0  0  0  0  0  0  0  0
  142.5810   79.6040  222.8860 C   0  0  0  0  0  0  0  0  0  0  0  0
  141.5220   78.7750  222.5730 C   0  0  0  0  0  0  0  0  0  0  0  0
  141.4380   77.4220  221.8900 C   0  0  2  0  0  0  0  0  0  0  0  0
  141.7450   77.5390  220.4710 C   0  0  0  0  0  0  0  0  0  0  0  0
  142.6150   76.7430  219.7630 C   0  0  0  0  0  0  0  0  0  0  0  0
  142.8530   76.9260  218.4060 C   0  0  0  0  0  0  0  0  0  0  0  0
  142.1870   77.9490  217.7520 C   0  0  0  0  0  0  0  0  0  0  0  0
  141.3330   78.7370  218.4340 N   0  0  0  0  0  0  0  0  0  0  0  0
  141.1060   78.5540  219.7510 C   0  0  0  0  0  0  0  0  0  0  0  0
  138.3380   72.8810  221.8430 C   0  0  0  0  0  0  0  0  0  0  0  0
  138.3000   71.5210  222.5620 C   0  0  0  0  0  0  0  0  0  0  0  0
  137.3316   67.7431  222.3615 H   0  0  0  0  0  0  0  0  0  0  0  0
  138.4866   69.0391  221.9000 H   0  0  0  0  0  0  0  0  0  0  0  0
  139.0160   67.3226  221.9000 H   0  0  0  0  0  0  0  0  0  0  0  0
  138.3995   67.3629  224.4311 H   0  0  0  0  0  0  0  0  0  0  0  0
  139.9078   68.1795  223.9124 H   0  0  0  0  0  0  0  0  0  0  0  0
  140.3981   72.6532  225.6545 H   0  0  0  0  0  0  0  0  0  0  0  0
  141.6013   72.7719  227.8117 H   0  0  0  0  0  0  0  0  0  0  0  0
  141.7409   70.8146  229.3081 H   0  0  0  0  0  0  0  0  0  0  0  0
  140.6488   68.6653  228.6316 H   0  0  0  0  0  0  0  0  0  0  0  0
  139.4344   68.5382  226.4543 H   0  0  0  0  0  0  0  0  0  0  0  0
  139.1575   72.5529  224.2011 H   0  0  0  0  0  0  0  0  0  0  0  0
  141.4360   71.9402  223.7203 H   0  0  0  0  0  0  0  0  0  0  0  0
  140.9374   70.4122  222.9177 H   0  0  0  0  0  0  0  0  0  0  0  0
  141.7040   72.5877  221.5231 H   0  0  0  0  0  0  0  0  0  0  0  0
  140.4388   71.4564  220.9253 H   0  0  0  0  0  0  0  0  0  0  0  0
  138.5351   75.6724  222.1483 H   0  0  0  0  0  0  0  0  0  0  0  0
  137.8810   75.9750  220.2250 H   0  0  0  0  0  0  0  0  0  0  0  0
  139.3690   75.8000  219.4650 H   0  0  0  0  0  0  0  0  0  0  0  0
  140.3039   76.3776  223.2441 H   0  0  0  0  0  0  0  0  0  0  0  0
  138.7339   78.4302  221.5599 H   0  0  0  0  0  0  0  0  0  0  0  0
  138.4170   78.0074  223.2181 H   0  0  0  0  0  0  0  0  0  0  0  0
  138.9838   80.6925  223.8010 H   0  0  0  0  0  0  0  0  0  0  0  0
  140.8916   82.1898  224.3666 H   0  0  0  0  0  0  0  0  0  0  0  0
  143.1743   81.4684  223.7708 H   0  0  0  0  0  0  0  0  0  0  0  0
  143.6114   79.3127  222.6342 H   0  0  0  0  0  0  0  0  0  0  0  0
  142.1860   76.6656  222.1699 H   0  0  0  0  0  0  0  0  0  0  0  0
  143.1410   75.9329  220.2894 H   0  0  0  0  0  0  0  0  0  0  0  0
  143.5538   76.2737  217.8643 H   0  0  0  0  0  0  0  0  0  0  0  0
  142.3548   78.1179  216.6781 H   0  0  0  0  0  0  0  0  0  0  0  0
  140.4013   79.2191  220.2715 H   0  0  0  0  0  0  0  0  0  0  0  0
  137.7896   73.6308  222.4321 H   0  0  0  0  0  0  0  0  0  0  0  0
  137.8662   72.8043  220.8523 H   0  0  0  0  0  0  0  0  0  0  0  0
  137.2959   71.3360  222.9714 H   0  0  0  0  0  0  0  0  0  0  0  0
  138.5335   70.6992  221.8692 H   0  0  0  0  0  0  0  0  0  0  0  0
  1  2  1  0
  2  3  1  0
  3  4  2  0
  3  5  1  0
  5  6  1  0
  6  7  2  0
  7  8  1  0
  8  9  2  0
  9 10  1  0
 10 11  2  0
  5 12  1  0
 12 13  1  0
 13 14  1  0
 14 15  1  0
 15 16  1  0
 16 17  2  0
 16 18  1  0
 18 19  1  0
 18 20  1  0
 20 21  1  0
 21 22  1  0
 22 23  2  0
 23 24  1  0
 24 25  2  0
 25 26  1  0
 26 27  2  0
 27 28  1  0
 28 29  1  0
 29 30  2  0
 30 31  1  0
 31 32  2  0
 32 33  1  0
 33 34  2  0
 15 35  1  0
 35 36  1  0
 11  6  1  0
 36 12  1  0
 28 20  1  0
 34 29  1  0
 27 22  1  0
  1 37  1  0
  1 38  1  0
  1 39  1  0
  2 40  1  0
  2 41  1  0
  7 42  1  0
  8 43  1  0
  9 44  1  0
 10 45  1  0
 11 46  1  0
 12 47  1  0
 13 48  1  0
 13 49  1  0
 14 50  1  0
 14 51  1  0
 18 52  1  1
 19 53  1  0
 19 54  1  0
 20 55  1  1
 21 56  1  0
 21 57  1  0
 23 58  1  0
 24 59  1  0
 25 60  1  0
 26 61  1  0
 28 62  1  1
 30 63  1  0
 31 64  1  0
 32 65  1  0
 34 66  1  0
 35 67  1  0
 35 68  1  0
 36 69  1  0
 36 70  1  0
M  END
>  <smiles>  (14) 
CCC(=O)N(c1ccccc1)C1CCN(C(=O)[C@H](N)C2Cc3ccccc3C2c2cccnc2)CC1

>  <score_type>  (14) 
oracle

>  <origin>  (14) 
autodockgpu

>  <m_score__min__energy>  (14) 
-9.3599999999999994

>  <m_primary>  (14) 
energy

>  <rmsd>  (14) 
5.393906695515049

>  <m_score__min__rmsd>  (14) 
5.393906695515049

>  <meeko>  (14) 
{"free_energy": -9.29, "intermolecular_energy": -11.68, "internal_energy": -2.3, "cluster_size": 36, "cluster_id": 1, "rank_in_cluster": 21}

>  <energy>  (14) 
-9.32

>  <cluster_rmsd>  (14) 
0.2

>  <cluster>  (14) 
1

$$$$

     RDKit          3D

 70 74  0  0  0  0  0  0  0  0999 V2000
  138.8360   67.0960  223.0810 C   0  0  0  0  0  0  0  0  0  0  0  0
  138.7420   68.5440  222.6620 C   0  0  0  0  0  0  0  0  0  0  0  0
  138.3780   69.3650  223.8470 C   0  0  0  0  0  0  0  0  0  0  0  0
  137.3220   69.0350  224.4510 O   0  0  0  0  0  0  0  0  0  0  0  0
  139.1890   70.4670  224.2710 N   0  0  0  0  0  0  0  0  0  0  0  0
  139.8160   70.3720  225.5440 C   0  0  0  0  0  0  0  0  0  0  0  0
  139.8350   69.1010  226.1230 C   0  0  0  0  0  0  0  0  0  0  0  0
  140.4250   68.9390  227.3590 C   0  0  0  0  0  0  0  0  0  0  0  0
  140.9940   69.9950  228.0350 C   0  0  0  0  0  0  0  0  0  0  0  0
  140.9750   71.2600  227.4570 C   0  0  0  0  0  0  0  0  0  0  0  0
  140.3780   71.4310  226.2050 C   0  0  0  0  0  0  0  0  0  0  0  0
  139.3110   71.5790  223.3800 C   0  0  0  0  0  0  0  0  0  0  0  0
  140.6750   71.5250  222.7210 C   0  0  0  0  0  0  0  0  0  0  0  0
  140.6580   72.3580  221.4540 C   0  0  0  0  0  0  0  0  0  0  0  0
  139.6750   73.4470  221.5820 N   0  0  0  0  0  0  0  0  0  0  0  0
  140.1680   74.7540  221.5900 C   0  0  0  0  0  0  0  0  0  0  0  0
  141.4400   74.8870  221.4940 O   0  0  0  0  0  0  0  0  0  0  0  0
  139.4040   76.0160  221.6970 C   0  0  2  0  0  0  0  0  0  0  0  0
  138.6690   76.3700  220.5300 N   0  0  0  0  0  0  0  0  0  0  0  0
  140.1610   77.0890  222.3810 C   0  0  2  0  0  0  0  0  0  0  0  0
  139.3310   78.3300  222.6390 C   0  0  0  0  0  0  0  0  0  0  0  0
  140.4040   79.3470  222.9630 C   0  0  0  0  0  0  0  0  0  0  0  0
  140.2550   80.5550  223.6120 C   0  0  0  0  0  0  0  0  0  0  0  0
  141.3470   81.3560  223.8300 C   0  0  0  0  0  0  0  0  0  0  0  0
  142.5660   80.9100  223.3860 C   0  0  0  0  0  0  0  0  0  0  0  0
  142.7330   79.6940  222.7300 C   0  0  0  0  0  0  0  0  0  0  0  0
  141.6290   78.8930  222.5130 C   0  0  0  0  0  0  0  0  0  0  0  0
  141.4510   77.5420  221.8430 C   0  0  2  0  0  0  0  0  0  0  0  0
  141.6360   77.6510  220.4030 C   0  0  0  0  0  0  0  0  0  0  0  0
  142.5570   76.9610  219.6510 C   0  0  0  0  0  0  0  0  0  0  0  0
  142.6690   77.1270  218.2750 C   0  0  0  0  0  0  0  0  0  0  0  0
  141.8180   78.0220  217.6480 C   0  0  0  0  0  0  0  0  0  0  0  0
  140.9110   78.7050  218.3730 N   0  0  0  0  0  0  0  0  0  0  0  0
  140.8070   78.5390  219.7080 C   0  0  0  0  0  0  0  0  0  0  0  0
  138.2980   73.0380  221.6990 C   0  0  0  0  0  0  0  0  0  0  0  0
  138.2750   71.6120  222.2780 C   0  0  0  0  0  0  0  0  0  0  0  0
  138.8402   67.0316  224.1791 H   0  0  0  0  0  0  0  0  0  0  0  0
  137.9719   66.5427  222.6845 H   0  0  0  0  0  0  0  0  0  0  0  0
  139.7644   66.6591  222.6845 H   0  0  0  0  0  0  0  0  0  0  0  0
  139.7124   68.8775  222.2655 H   0  0  0  0  0  0  0  0  0  0  0  0
  137.9762   68.6571  221.8805 H   0  0  0  0  0  0  0  0  0  0  0  0
  139.3864   68.2427  225.6013 H   0  0  0  0  0  0  0  0  0  0  0  0
  140.4415   67.9391  227.8172 H   0  0  0  0  0  0  0  0  0  0  0  0
  141.4580   69.8401  229.0203 H   0  0  0  0  0  0  0  0  0  0  0  0
  141.4251   72.1168  227.9798 H   0  0  0  0  0  0  0  0  0  0  0  0
  140.3594   72.4298  225.7445 H   0  0  0  0  0  0  0  0  0  0  0  0
  139.1634   72.4793  223.9945 H   0  0  0  0  0  0  0  0  0  0  0  0
  141.4321   71.9242  223.4120 H   0  0  0  0  0  0  0  0  0  0  0  0
  140.9201   70.4823  222.4708 H   0  0  0  0  0  0  0  0  0  0  0  0
  141.6571   72.7866  221.2861 H   0  0  0  0  0  0  0  0  0  0  0  0
  140.3798   71.7177  220.6039 H   0  0  0  0  0  0  0  0  0  0  0  0
  138.5752   75.8214  222.3936 H   0  0  0  0  0  0  0  0  0  0  0  0
  139.2460   76.6560  219.7350 H   0  0  0  0  0  0  0  0  0  0  0  0
  137.8930   77.0400  220.6540 H   0  0  0  0  0  0  0  0  0  0  0  0
  140.4124   76.5299  223.2943 H   0  0  0  0  0  0  0  0  0  0  0  0
  138.7564   78.6219  221.7476 H   0  0  0  0  0  0  0  0  0  0  0  0
  138.5747   78.2082  223.4284 H   0  0  0  0  0  0  0  0  0  0  0  0
  139.2603   80.8761  223.9548 H   0  0  0  0  0  0  0  0  0  0  0  0
  141.2485   82.3237  224.3437 H   0  0  0  0  0  0  0  0  0  0  0  0
  143.4505   81.5414  223.5560 H   0  0  0  0  0  0  0  0  0  0  0  0
  143.7293   79.3756  222.3894 H   0  0  0  0  0  0  0  0  0  0  0  0
  142.2004   76.7659  222.0578 H   0  0  0  0  0  0  0  0  0  0  0  0
  143.2296   76.2520  220.1560 H   0  0  0  0  0  0  0  0  0  0  0  0
  143.4155   76.5611  217.6983 H   0  0  0  0  0  0  0  0  0  0  0  0
  141.8826   78.1747  216.5606 H   0  0  0  0  0  0  0  0  0  0  0  0
  140.0526   79.1154  220.2634 H   0  0  0  0  0  0  0  0  0  0  0  0
  137.7606   73.7230  222.3713 H   0  0  0  0  0  0  0  0  0  0  0  0
  137.8071   73.0597  220.7148 H   0  0  0  0  0  0  0  0  0  0  0  0
  137.2792   71.3834  222.6856 H   0  0  0  0  0  0  0  0  0  0  0  0
  138.4956   70.8641  221.5021 H   0  0  0  0  0  0  0  0  0  0  0  0
  1  2  1  0
  2  3  1  0
  3  4  2  0
  3  5  1  0
  5  6  1  0
  6  7  2  0
  7  8  1  0
  8  9  2  0
  9 10  1  0
 10 11  2  0
  5 12  1  0
 12 13  1  0
 13 14  1  0
 14 15  1  0
 15 16  1  0
 16 17  2  0
 16 18  1  0
 18 19  1  0
 18 20  1  0
 20 21  1  0
 21 22  1  0
 22 23  2  0
 23 24  1  0
 24 25  2  0
 25 26  1  0
 26 27  2  0
 27 28  1  0
 28 29  1  0
 29 30  2  0
 30 31  1  0
 31 32  2  0
 32 33  1  0
 33 34  2  0
 15 35  1  0
 35 36  1  0
 11  6  1  0
 36 12  1  0
 28 20  1  0
 34 29  1  0
 27 22  1  0
  1 37  1  0
  1 38  1  0
  1 39  1  0
  2 40  1  0
  2 41  1  0
  7 42  1  0
  8 43  1  0
  9 44  1  0
 10 45  1  0
 11 46  1  0
 12 47  1  0
 13 48  1  0
 13 49  1  0
 14 50  1  0
 14 51  1  0
 18 52  1  1
 19 53  1  0
 19 54  1  0
 20 55  1  1
 21 56  1  0
 21 57  1  0
 23 58  1  0
 24 59  1  0
 25 60  1  0
 26 61  1  0
 28 62  1  1
 30 63  1  0
 31 64  1  0
 32 65  1  0
 34 66  1  0
 35 67  1  0
 35 68  1  0
 36 69  1  0
 36 70  1  0
M  END
>  <smiles>  (15) 
CCC(=O)N(c1ccccc1)C1CCN(C(=O)[C@H](N)C2Cc3ccccc3C2c2cccnc2)CC1

>  <score_type>  (15) 
oracle

>  <origin>  (15) 
autodockgpu

>  <m_score__min__energy>  (15) 
-9.3599999999999994

>  <m_primary>  (15) 
energy

>  <rmsd>  (15) 
5.262594855502531

>  <m_score__min__rmsd>  (15) 
5.262594855502531

>  <meeko>  (15) 
{"free_energy": -9.22, "intermolecular_energy": -11.61, "internal_energy": -2.19, "cluster_size": 36, "cluster_id": 1, "rank_in_cluster": 27}

>  <energy>  (15) 
-9.31

>  <cluster_rmsd>  (15) 
0.59

>  <cluster>  (15) 
1

$$$$

     RDKit          3D

 70 74  0  0  0  0  0  0  0  0999 V2000
  137.8890   67.9260  222.3210 C   0  0  0  0  0  0  0  0  0  0  0  0
  138.8130   68.2220  223.4770 C   0  0  0  0  0  0  0  0  0  0  0  0
  138.2880   69.3960  224.2230 C   0  0  0  0  0  0  0  0  0  0  0  0
  137.0640   69.3650  224.5250 O   0  0  0  0  0  0  0  0  0  0  0  0
  139.1340   70.4980  224.5750 N   0  0  0  0  0  0  0  0  0  0  0  0
  139.7590   70.4660  225.8520 C   0  0  0  0  0  0  0  0  0  0  0  0
  140.4270   71.6320  226.2340 C   0  0  0  0  0  0  0  0  0  0  0  0
  141.0580   71.6680  227.4600 C   0  0  0  0  0  0  0  0  0  0  0  0
  141.0470   70.5880  228.3140 C   0  0  0  0  0  0  0  0  0  0  0  0
  140.3820   69.4280  227.9320 C   0  0  0  0  0  0  0  0  0  0  0  0
  139.7400   69.3850  226.6910 C   0  0  0  0  0  0  0  0  0  0  0  0
  139.2900   71.5450  223.6140 C   0  0  0  0  0  0  0  0  0  0  0  0
  140.6780   71.4490  223.0140 C   0  0  0  0  0  0  0  0  0  0  0  0
  140.7100   72.1920  221.6910 C   0  0  0  0  0  0  0  0  0  0  0  0
  139.7210   73.2830  221.7050 N   0  0  0  0  0  0  0  0  0  0  0  0
  140.2130   74.5900  221.6400 C   0  0  0  0  0  0  0  0  0  0  0  0
  141.4880   74.7190  221.5840 O   0  0  0  0  0  0  0  0  0  0  0  0
  139.4440   75.8540  221.6280 C   0  0  2  0  0  0  0  0  0  0  0  0
  138.8290   76.1670  220.3830 N   0  0  0  0  0  0  0  0  0  0  0  0
  140.1320   76.9490  222.3470 C   0  0  2  0  0  0  0  0  0  0  0  0
  139.2570   78.1710  222.5450 C   0  0  0  0  0  0  0  0  0  0  0  0
  140.2830   79.2170  222.9240 C   0  0  0  0  0  0  0  0  0  0  0  0
  140.0660   80.4260  223.5530 C   0  0  0  0  0  0  0  0  0  0  0  0
  141.1220   81.2550  223.8300 C   0  0  0  0  0  0  0  0  0  0  0  0
  142.3770   80.8370  223.4630 C   0  0  0  0  0  0  0  0  0  0  0  0
  142.6130   79.6210  222.8280 C   0  0  0  0  0  0  0  0  0  0  0  0
  141.5450   78.7910  222.5520 C   0  0  0  0  0  0  0  0  0  0  0  0
  141.4400   77.4310  221.8840 C   0  0  2  0  0  0  0  0  0  0  0  0
  141.7090   77.5350  220.4570 C   0  0  0  0  0  0  0  0  0  0  0  0
  142.6070   76.7740  219.7450 C   0  0  0  0  0  0  0  0  0  0  0  0
  142.8050   76.9400  218.3790 C   0  0  0  0  0  0  0  0  0  0  0  0
  142.0670   77.9100  217.7200 C   0  0  0  0  0  0  0  0  0  0  0  0
  141.1850   78.6620  218.4050 N   0  0  0  0  0  0  0  0  0  0  0  0
  140.9970   78.4960  219.7310 C   0  0  0  0  0  0  0  0  0  0  0  0
  138.3410   72.8790  221.7960 C   0  0  0  0  0  0  0  0  0  0  0  0
  138.2970   71.4970  222.4730 C   0  0  0  0  0  0  0  0  0  0  0  0
  136.9080   67.6117  222.7069 H   0  0  0  0  0  0  0  0  0  0  0  0
  137.7688   68.8306  221.7068 H   0  0  0  0  0  0  0  0  0  0  0  0
  138.3168   67.1199  221.7068 H   0  0  0  0  0  0  0  0  0  0  0  0
  138.8593   67.3498  224.1457 H   0  0  0  0  0  0  0  0  0  0  0  0
  139.8234   68.4402  223.1008 H   0  0  0  0  0  0  0  0  0  0  0  0
  140.4494   72.5071  225.5679 H   0  0  0  0  0  0  0  0  0  0  0  0
  141.5845   72.5848  227.7639 H   0  0  0  0  0  0  0  0  0  0  0  0
  141.5580   70.6421  229.2866 H   0  0  0  0  0  0  0  0  0  0  0  0
  140.3614   68.5537  228.5992 H   0  0  0  0  0  0  0  0  0  0  0  0
  139.2123   68.4697  226.3846 H   0  0  0  0  0  0  0  0  0  0  0  0
  139.1185   72.4859  224.1573 H   0  0  0  0  0  0  0  0  0  0  0  0
  141.4076   71.8977  223.7042 H   0  0  0  0  0  0  0  0  0  0  0  0
  140.9329   70.3920  222.8471 H   0  0  0  0  0  0  0  0  0  0  0  0
  141.7143   72.6120  221.5327 H   0  0  0  0  0  0  0  0  0  0  0  0
  140.4669   71.4931  220.8771 H   0  0  0  0  0  0  0  0  0  0  0  0
  138.5491   75.6829  222.2443 H   0  0  0  0  0  0  0  0  0  0  0  0
  138.3290   75.3880  219.9480 H   0  0  0  0  0  0  0  0  0  0  0  0
  139.4180   76.6380  219.6780 H   0  0  0  0  0  0  0  0  0  0  0  0
  140.3426   76.4018  223.2777 H   0  0  0  0  0  0  0  0  0  0  0  0
  138.7297   78.4423  221.6185 H   0  0  0  0  0  0  0  0  0  0  0  0
  138.4582   78.0354  223.2889 H   0  0  0  0  0  0  0  0  0  0  0  0
  139.0448   80.7247  223.8323 H   0  0  0  0  0  0  0  0  0  0  0  0
  140.9688   82.2229  224.3297 H   0  0  0  0  0  0  0  0  0  0  0  0
  143.2338   81.4918  223.6803 H   0  0  0  0  0  0  0  0  0  0  0  0
  143.6356   79.3257  222.5502 H   0  0  0  0  0  0  0  0  0  0  0  0
  142.1934   76.6751  222.1505 H   0  0  0  0  0  0  0  0  0  0  0  0
  143.1894   76.0064  220.2757 H   0  0  0  0  0  0  0  0  0  0  0  0
  143.5297   76.3166  217.8347 H   0  0  0  0  0  0  0  0  0  0  0  0
  142.2015   78.0654  216.6394 H   0  0  0  0  0  0  0  0  0  0  0  0
  140.2666   79.1313  220.2535 H   0  0  0  0  0  0  0  0  0  0  0  0
  137.7769   73.6077  222.3967 H   0  0  0  0  0  0  0  0  0  0  0  0
  137.8889   72.8299  220.7944 H   0  0  0  0  0  0  0  0  0  0  0  0
  137.2864   71.2942  222.8572 H   0  0  0  0  0  0  0  0  0  0  0  0
  138.5482   70.6972  221.7608 H   0  0  0  0  0  0  0  0  0  0  0  0
  1  2  1  0
  2  3  1  0
  3  4  2  0
  3  5  1  0
  5  6  1  0
  6  7  2  0
  7  8  1  0
  8  9  2  0
  9 10  1  0
 10 11  2  0
  5 12  1  0
 12 13  1  0
 13 14  1  0
 14 15  1  0
 15 16  1  0
 16 17  2  0
 16 18  1  0
 18 19  1  0
 18 20  1  0
 20 21  1  0
 21 22  1  0
 22 23  2  0
 23 24  1  0
 24 25  2  0
 25 26  1  0
 26 27  2  0
 27 28  1  0
 28 29  1  0
 29 30  2  0
 30 31  1  0
 31 32  2  0
 32 33  1  0
 33 34  2  0
 15 35  1  0
 35 36  1  0
 11  6  1  0
 36 12  1  0
 28 20  1  0
 34 29  1  0
 27 22  1  0
  1 37  1  0
  1 38  1  0
  1 39  1  0
  2 40  1  0
  2 41  1  0
  7 42  1  0
  8 43  1  0
  9 44  1  0
 10 45  1  0
 11 46  1  0
 12 47  1  0
 13 48  1  0
 13 49  1  0
 14 50  1  0
 14 51  1  0
 18 52  1  1
 19 53  1  0
 19 54  1  0
 20 55  1  1
 21 56  1  0
 21 57  1  0
 23 58  1  0
 24 59  1  0
 25 60  1  0
 26 61  1  0
 28 62  1  1
 30 63  1  0
 31 64  1  0
 32 65  1  0
 34 66  1  0
 35 67  1  0
 35 68  1  0
 36 69  1  0
 36 70  1  0
M  END
>  <smiles>  (16) 
CCC(=O)N(c1ccccc1)C1CCN(C(=O)[C@H](N)C2Cc3ccccc3C2c2cccnc2)CC1

>  <score_type>  (16) 
oracle

>  <origin>  (16) 
autodockgpu

>  <m_score__min__energy>  (16) 
-9.3599999999999994

>  <m_primary>  (16) 
energy

>  <rmsd>  (16) 
5.383820447742811

>  <m_score__min__rmsd>  (16) 
5.383820447742811

>  <meeko>  (16) 
{"free_energy": -9.33, "intermolecular_energy": -11.71, "internal_energy": -2.32, "cluster_size": 36, "cluster_id": 1, "rank_in_cluster": 9}

>  <energy>  (16) 
-9.31

>  <cluster_rmsd>  (16) 
0.77

>  <cluster>  (16) 
1

$$$$

     RDKit          3D

 70 74  0  0  0  0  0  0  0  0999 V2000
  136.0430   69.1450  223.3140 C   0  0  0  0  0  0  0  0  0  0  0  0
  136.8190   69.4120  224.5810 C   0  0  0  0  0  0  0  0  0  0  0  0
  138.2740   69.3590  224.2750 C   0  0  0  0  0  0  0  0  0  0  0  0
  138.6860   68.3120  223.7060 O   0  0  0  0  0  0  0  0  0  0  0  0
  139.1490   70.4410  224.6120 N   0  0  0  0  0  0  0  0  0  0  0  0
  139.8110   70.3850  225.8690 C   0  0  0  0  0  0  0  0  0  0  0  0
  139.8460   69.1330  226.4870 C   0  0  0  0  0  0  0  0  0  0  0  0
  140.4710   69.0080  227.7110 C   0  0  0  0  0  0  0  0  0  0  0  0
  141.0590   70.0830  228.3370 C   0  0  0  0  0  0  0  0  0  0  0  0
  141.0240   71.3300  227.7210 C   0  0  0  0  0  0  0  0  0  0  0  0
  140.3930   71.4630  226.4820 C   0  0  0  0  0  0  0  0  0  0  0  0
  139.2950   71.4960  223.6580 C   0  0  0  0  0  0  0  0  0  0  0  0
  140.6750   71.4030  223.0400 C   0  0  0  0  0  0  0  0  0  0  0  0
  140.6920   72.1560  221.7230 C   0  0  0  0  0  0  0  0  0  0  0  0
  139.7060   73.2490  221.7580 N   0  0  0  0  0  0  0  0  0  0  0  0
  140.1990   74.5550  221.6970 C   0  0  0  0  0  0  0  0  0  0  0  0
  141.4730   74.6830  221.6260 O   0  0  0  0  0  0  0  0  0  0  0  0
  139.4320   75.8200  221.7050 C   0  0  2  0  0  0  0  0  0  0  0  0
  138.7910   76.1380  220.4740 N   0  0  0  0  0  0  0  0  0  0  0  0
  140.1370   76.9130  222.4120 C   0  0  2  0  0  0  0  0  0  0  0  0
  139.2780   78.1470  222.6050 C   0  0  0  0  0  0  0  0  0  0  0  0
  140.3190   79.1830  222.9700 C   0  0  0  0  0  0  0  0  0  0  0  0
  140.1200   80.3990  223.5900 C   0  0  0  0  0  0  0  0  0  0  0  0
  141.1870   81.2180  223.8550 C   0  0  0  0  0  0  0  0  0  0  0  0
  142.4350   80.7820  223.4850 C   0  0  0  0  0  0  0  0  0  0  0  0
  142.6530   79.5580  222.8590 C   0  0  0  0  0  0  0  0  0  0  0  0
  141.5730   78.7390  222.5950 C   0  0  0  0  0  0  0  0  0  0  0  0
  141.4480   77.3750  221.9380 C   0  0  2  0  0  0  0  0  0  0  0  0
  141.7110   77.4640  220.5080 C   0  0  0  0  0  0  0  0  0  0  0  0
  142.6360   76.7280  219.8080 C   0  0  0  0  0  0  0  0  0  0  0  0
  142.8250   76.8780  218.4390 C   0  0  0  0  0  0  0  0  0  0  0  0
  142.0490   77.8060  217.7650 C   0  0  0  0  0  0  0  0  0  0  0  0
  141.1390   78.5350  218.4390 N   0  0  0  0  0  0  0  0  0  0  0  0
  140.9600   78.3840  219.7680 C   0  0  0  0  0  0  0  0  0  0  0  0
  138.3260   72.8460  221.8620 C   0  0  0  0  0  0  0  0  0  0  0  0
  138.2880   71.4590  222.5290 C   0  0  0  0  0  0  0  0  0  0  0  0
  135.0314   68.7969  223.5701 H   0  0  0  0  0  0  0  0  0  0  0  0
  135.9738   70.0710  222.7243 H   0  0  0  0  0  0  0  0  0  0  0  0
  136.5583   68.3725  222.7243 H   0  0  0  0  0  0  0  0  0  0  0  0
  136.5595   70.4076  224.9701 H   0  0  0  0  0  0  0  0  0  0  0  0
  136.5694   68.6537  225.3378 H   0  0  0  0  0  0  0  0  0  0  0  0
  139.3823   68.2596  226.0053 H   0  0  0  0  0  0  0  0  0  0  0  0
  140.4999   68.0227  228.1992 H   0  0  0  0  0  0  0  0  0  0  0  0
  141.5509   69.9580  229.3129 H   0  0  0  0  0  0  0  0  0  0  0  0
  141.4884   72.2020  228.2046 H   0  0  0  0  0  0  0  0  0  0  0  0
  140.3630   72.4472  225.9916 H   0  0  0  0  0  0  0  0  0  0  0  0
  139.1320   72.4325  224.2115 H   0  0  0  0  0  0  0  0  0  0  0  0
  141.4138   71.8452  223.7246 H   0  0  0  0  0  0  0  0  0  0  0  0
  140.9260   70.3470  222.8615 H   0  0  0  0  0  0  0  0  0  0  0  0
  141.6952   72.5750  221.5553 H   0  0  0  0  0  0  0  0  0  0  0  0
  140.4369   71.4640  220.9068 H   0  0  0  0  0  0  0  0  0  0  0  0
  138.5506   75.6475  222.3401 H   0  0  0  0  0  0  0  0  0  0  0  0
  138.1340   75.4270  220.1420 H   0  0  0  0  0  0  0  0  0  0  0  0
  139.3990   76.4400  219.6960 H   0  0  0  0  0  0  0  0  0  0  0  0
  140.3455   76.3712  223.3463 H   0  0  0  0  0  0  0  0  0  0  0  0
  138.7489   78.4174  221.6793 H   0  0  0  0  0  0  0  0  0  0  0  0
  138.4816   78.0272  223.3542 H   0  0  0  0  0  0  0  0  0  0  0  0
  139.1039   80.7120  223.8721 H   0  0  0  0  0  0  0  0  0  0  0  0
  141.0478   82.1917  224.3475 H   0  0  0  0  0  0  0  0  0  0  0  0
  143.3007   81.4282  223.6923 H   0  0  0  0  0  0  0  0  0  0  0  0
  143.6705   79.2478  222.5788 H   0  0  0  0  0  0  0  0  0  0  0  0
  142.1937   76.6121  222.2061 H   0  0  0  0  0  0  0  0  0  0  0  0
  143.2493   75.9934  220.3504 H   0  0  0  0  0  0  0  0  0  0  0  0
  143.5728   76.2742  217.9041 H   0  0  0  0  0  0  0  0  0  0  0  0
  142.1756   77.9474  216.6815 H   0  0  0  0  0  0  0  0  0  0  0  0
  140.2060   78.9986  220.2816 H   0  0  0  0  0  0  0  0  0  0  0  0
  137.7700   73.5709  222.4747 H   0  0  0  0  0  0  0  0  0  0  0  0
  137.8622   72.8051  220.8654 H   0  0  0  0  0  0  0  0  0  0  0  0
  137.2819   71.2550  222.9241 H   0  0  0  0  0  0  0  0  0  0  0  0
  138.5291   70.6645  221.8075 H   0  0  0  0  0  0  0  0  0  0  0  0
  1  2  1  0
  2  3  1  0
  3  4  2  0
  3  5  1  0
  5  6  1  0
  6  7  2  0
  7  8  1  0
  8  9  2  0
  9 10  1  0
 10 11  2  0
  5 12  1  0
 12 13  1  0
 13 14  1  0
 14 15  1  0
 15 16  1  0
 16 17  2  0
 16 18  1  0
 18 19  1  0
 18 20  1  0
 20 21  1  0
 21 22  1  0
 22 23  2  0
 23 24  1  0
 24 25  2  0
 25 26  1  0
 26 27  2  0
 27 28  1  0
 28 29  1  0
 29 30  2  0
 30 31  1  0
 31 32  2  0
 32 33  1  0
 33 34  2  0
 15 35  1  0
 35 36  1  0
 11  6  1  0
 36 12  1  0
 28 20  1  0
 34 29  1  0
 27 22  1  0
  1 37  1  0
  1 38  1  0
  1 39  1  0
  2 40  1  0
  2 41  1  0
  7 42  1  0
  8 43  1  0
  9 44  1  0
 10 45  1  0
 11 46  1  0
 12 47  1  0
 13 48  1  0
 13 49  1  0
 14 50  1  0
 14 51  1  0
 18 52  1  1
 19 53  1  0
 19 54  1  0
 20 55  1  1
 21 56  1  0
 21 57  1  0
 23 58  1  0
 24 59  1  0
 25 60  1  0
 26 61  1  0
 28 62  1  1
 30 63  1  0
 31 64  1  0
 32 65  1  0
 34 66  1  0
 35 67  1  0
 35 68  1  0
 36 69  1  0
 36 70  1  0
M  END
>  <smiles>  (17) 
CCC(=O)N(c1ccccc1)C1CCN(C(=O)[C@H](N)C2Cc3ccccc3C2c2cccnc2)CC1

>  <score_type>  (17) 
oracle

>  <origin>  (17) 
autodockgpu

>  <m_score__min__energy>  (17) 
-9.3599999999999994

>  <m_primary>  (17) 
energy

>  <rmsd>  (17) 
5.43936794491972

>  <m_score__min__rmsd>  (17) 
5.43936794491972

>  <meeko>  (17) 
{"free_energy": -9.32, "intermolecular_energy": -11.71, "internal_energy": -2.25, "cluster_size": 36, "cluster_id": 1, "rank_in_cluster": 13}

>  <energy>  (17) 
-9.3

>  <cluster_rmsd>  (17) 
0.6

>  <cluster>  (17) 
1

$$$$

     RDKit          3D

 70 74  0  0  0  0  0  0  0  0999 V2000
  136.4160   70.4430  224.5660 C   0  0  0  0  0  0  0  0  0  0  0  0
  136.9450   69.1350  224.0280 C   0  0  0  0  0  0  0  0  0  0  0  0
  138.3960   69.2850  223.7400 C   0  0  0  0  0  0  0  0  0  0  0  0
  138.9270   68.3670  223.0570 O   0  0  0  0  0  0  0  0  0  0  0  0
  139.1410   70.4110  224.2170 N   0  0  0  0  0  0  0  0  0  0  0  0
  139.6710   70.3400  225.5350 C   0  0  0  0  0  0  0  0  0  0  0  0
  140.3480   71.4760  225.9840 C   0  0  0  0  0  0  0  0  0  0  0  0
  140.8900   71.4730  227.2530 C   0  0  0  0  0  0  0  0  0  0  0  0
  140.7810   70.3820  228.0850 C   0  0  0  0  0  0  0  0  0  0  0  0
  140.1060   69.2510  227.6370 C   0  0  0  0  0  0  0  0  0  0  0  0
  139.5550   69.2480  226.3530 C   0  0  0  0  0  0  0  0  0  0  0  0
  139.2990   71.5220  223.3320 C   0  0  0  0  0  0  0  0  0  0  0  0
  140.6950   71.4780  222.7430 C   0  0  0  0  0  0  0  0  0  0  0  0
  140.7360   72.3090  221.4750 C   0  0  0  0  0  0  0  0  0  0  0  0
  139.7390   73.3900  221.5500 N   0  0  0  0  0  0  0  0  0  0  0  0
  140.2210   74.7010  221.5800 C   0  0  0  0  0  0  0  0  0  0  0  0
  141.4950   74.8440  221.5480 O   0  0  0  0  0  0  0  0  0  0  0  0
  139.4420   75.9570  221.6450 C   0  0  2  0  0  0  0  0  0  0  0  0
  138.7480   76.2930  220.4480 N   0  0  0  0  0  0  0  0  0  0  0  0
  140.1630   77.0430  222.3450 C   0  0  2  0  0  0  0  0  0  0  0  0
  139.3040   78.2690  222.5850 C   0  0  0  0  0  0  0  0  0  0  0  0
  140.3510   79.3060  222.9320 C   0  0  0  0  0  0  0  0  0  0  0  0
  140.1650   80.5110  223.5770 C   0  0  0  0  0  0  0  0  0  0  0  0
  141.2370   81.3320  223.8200 C   0  0  0  0  0  0  0  0  0  0  0  0
  142.4740   80.9090  223.4020 C   0  0  0  0  0  0  0  0  0  0  0  0
  142.6780   79.6970  222.7500 C   0  0  0  0  0  0  0  0  0  0  0  0
  141.5950   78.8750  222.5090 C   0  0  0  0  0  0  0  0  0  0  0  0
  141.4560   77.5210  221.8360 C   0  0  2  0  0  0  0  0  0  0  0  0
  141.6710   77.6330  220.4000 C   0  0  0  0  0  0  0  0  0  0  0  0
  142.5830   76.9190  219.6600 C   0  0  0  0  0  0  0  0  0  0  0  0
  142.7260   77.0910  218.2880 C   0  0  0  0  0  0  0  0  0  0  0  0
  141.9160   78.0180  217.6520 C   0  0  0  0  0  0  0  0  0  0  0  0
  141.0190   78.7240  218.3650 N   0  0  0  0  0  0  0  0  0  0  0  0
  140.8840   78.5530  219.6970 C   0  0  0  0  0  0  0  0  0  0  0  0
  138.3610   72.9710  221.5970 C   0  0  0  0  0  0  0  0  0  0  0  0
  138.3200   71.5460  222.1780 C   0  0  0  0  0  0  0  0  0  0  0  0
  136.4261   70.4181  225.6657 H   0  0  0  0  0  0  0  0  0  0  0  0
  137.0509   71.2686  224.2121 H   0  0  0  0  0  0  0  0  0  0  0  0
  135.3856   70.5951  224.2121 H   0  0  0  0  0  0  0  0  0  0  0  0
  136.7968   68.3414  224.7751 H   0  0  0  0  0  0  0  0  0  0  0  0
  136.4077   68.8661  223.1066 H   0  0  0  0  0  0  0  0  0  0  0  0
  140.4476   72.3594  225.3361 H   0  0  0  0  0  0  0  0  0  0  0  0
  141.4235   72.3666  227.6092 H   0  0  0  0  0  0  0  0  0  0  0  0
  141.2224   70.4041  229.0923 H   0  0  0  0  0  0  0  0  0  0  0  0
  140.0072   68.3688  228.2865 H   0  0  0  0  0  0  0  0  0  0  0  0
  139.0206   68.3560  225.9943 H   0  0  0  0  0  0  0  0  0  0  0  0
  139.1129   72.4216  223.9371 H   0  0  0  0  0  0  0  0  0  0  0  0
  141.4129   71.8842  223.4708 H   0  0  0  0  0  0  0  0  0  0  0  0
  140.9606   70.4369  222.5074 H   0  0  0  0  0  0  0  0  0  0  0  0
  141.7388   72.7456  221.3576 H   0  0  0  0  0  0  0  0  0  0  0  0
  140.5068   71.6650  220.6132 H   0  0  0  0  0  0  0  0  0  0  0  0
  138.5892   75.7611  222.3116 H   0  0  0  0  0  0  0  0  0  0  0  0
  138.0050   75.6380  220.1900 H   0  0  0  0  0  0  0  0  0  0  0  0
  139.3250   76.5060  219.6190 H   0  0  0  0  0  0  0  0  0  0  0  0
  140.4046   76.4876  223.2632 H   0  0  0  0  0  0  0  0  0  0  0  0
  138.7434   78.5504  221.6813 H   0  0  0  0  0  0  0  0  0  0  0  0
  138.5332   78.1330  223.3579 H   0  0  0  0  0  0  0  0  0  0  0  0
  139.1569   80.8138  223.8966 H   0  0  0  0  0  0  0  0  0  0  0  0
  141.1094   82.2968  224.3326 H   0  0  0  0  0  0  0  0  0  0  0  0
  143.3426   81.5570  223.5908 H   0  0  0  0  0  0  0  0  0  0  0  0
  143.6874   79.3979  222.4311 H   0  0  0  0  0  0  0  0  0  0  0  0
  142.2147   76.7592  222.0686 H   0  0  0  0  0  0  0  0  0  0  0  0
  143.2227   76.1850  220.1719 H   0  0  0  0  0  0  0  0  0  0  0  0
  143.4644   76.5053  217.7209 H   0  0  0  0  0  0  0  0  0  0  0  0
  142.0058   78.1765  216.5672 H   0  0  0  0  0  0  0  0  0  0  0  0
  140.1386   79.1501  220.2427 H   0  0  0  0  0  0  0  0  0  0  0  0
  137.7845   73.6532  222.2390 H   0  0  0  0  0  0  0  0  0  0  0  0
  137.9208   72.9870  220.5891 H   0  0  0  0  0  0  0  0  0  0  0  0
  137.3065   71.3105  222.5349 H   0  0  0  0  0  0  0  0  0  0  0  0
  138.5863   70.7988  221.4159 H   0  0  0  0  0  0  0  0  0  0  0  0
  1  2  1  0
  2  3  1  0
  3  4  2  0
  3  5  1  0
  5  6  1  0
  6  7  2  0
  7  8  1  0
  8  9  2  0
  9 10  1  0
 10 11  2  0
  5 12  1  0
 12 13  1  0
 13 14  1  0
 14 15  1  0
 15 16  1  0
 16 17  2  0
 16 18  1  0
 18 19  1  0
 18 20  1  0
 20 21  1  0
 21 22  1  0
 22 23  2  0
 23 24  1  0
 24 25  2  0
 25 26  1  0
 26 27  2  0
 27 28  1  0
 28 29  1  0
 29 30  2  0
 30 31  1  0
 31 32  2  0
 32 33  1  0
 33 34  2  0
 15 35  1  0
 35 36  1  0
 11  6  1  0
 36 12  1  0
 28 20  1  0
 34 29  1  0
 27 22  1  0
  1 37  1  0
  1 38  1  0
  1 39  1  0
  2 40  1  0
  2 41  1  0
  7 42  1  0
  8 43  1  0
  9 44  1  0
 10 45  1  0
 11 46  1  0
 12 47  1  0
 13 48  1  0
 13 49  1  0
 14 50  1  0
 14 51  1  0
 18 52  1  1
 19 53  1  0
 19 54  1  0
 20 55  1  1
 21 56  1  0
 21 57  1  0
 23 58  1  0
 24 59  1  0
 25 60  1  0
 26 61  1  0
 28 62  1  1
 30 63  1  0
 31 64  1  0
 32 65  1  0
 34 66  1  0
 35 67  1  0
 35 68  1  0
 36 69  1  0
 36 70  1  0
M  END
>  <smiles>  (18) 
CCC(=O)N(c1ccccc1)C1CCN(C(=O)[C@H](N)C2Cc3ccccc3C2c2cccnc2)CC1

>  <score_type>  (18) 
oracle

>  <origin>  (18) 
autodockgpu

>  <m_score__min__energy>  (18) 
-9.3599999999999994

>  <m_primary>  (18) 
energy

>  <rmsd>  (18) 
5.260844655922204

>  <m_score__min__rmsd>  (18) 
5.260844655922204

>  <meeko>  (18) 
{"free_energy": -9.05, "intermolecular_energy": -11.43, "internal_energy": -2.27, "cluster_size": 36, "cluster_id": 1, "rank_in_cluster": 31}

>  <energy>  (18) 
-9.29

>  <cluster_rmsd>  (18) 
0.75

>  <cluster>  (18) 
1

$$$$

     RDKit          3D

 70 74  0  0  0  0  0  0  0  0999 V2000
  134.7620   68.8750  223.4200 C   0  0  0  0  0  0  0  0  0  0  0  0
  136.2690   68.7800  223.4460 C   0  0  0  0  0  0  0  0  0  0  0  0
  136.7890   69.6970  224.4950 C   0  0  0  0  0  0  0  0  0  0  0  0
  135.9610   70.0730  225.3690 O   0  0  0  0  0  0  0  0  0  0  0  0
  138.1570   70.1230  224.5040 N   0  0  0  0  0  0  0  0  0  0  0  0
  139.0310   69.5100  225.4430 C   0  0  0  0  0  0  0  0  0  0  0  0
  139.2070   68.1320  225.3050 C   0  0  0  0  0  0  0  0  0  0  0  0
  140.0410   67.4730  226.1860 C   0  0  0  0  0  0  0  0  0  0  0  0
  140.7010   68.1380  227.1940 C   0  0  0  0  0  0  0  0  0  0  0  0
  140.5250   69.5110  227.3310 C   0  0  0  0  0  0  0  0  0  0  0  0
  139.6820   70.1830  226.4420 C   0  0  0  0  0  0  0  0  0  0  0  0
  138.5410   71.1300  223.5660 C   0  0  0  0  0  0  0  0  0  0  0  0
  140.0300   71.0090  223.3070 C   0  0  0  0  0  0  0  0  0  0  0  0
  140.3740   71.6970  221.9990 C   0  0  0  0  0  0  0  0  0  0  0  0
  139.4210   72.7900  221.7420 N   0  0  0  0  0  0  0  0  0  0  0  0
  139.9290   74.0920  221.7420 C   0  0  0  0  0  0  0  0  0  0  0  0
  141.1830   74.2170  221.9770 O   0  0  0  0  0  0  0  0  0  0  0  0
  139.1970   75.3560  221.5040 C   0  0  2  0  0  0  0  0  0  0  0  0
  138.8780   75.6140  220.1410 N   0  0  0  0  0  0  0  0  0  0  0  0
  139.7200   76.4810  222.3100 C   0  0  2  0  0  0  0  0  0  0  0  0
  138.8020   77.6870  222.3150 C   0  0  0  0  0  0  0  0  0  0  0  0
  139.7210   78.7630  222.8500 C   0  0  0  0  0  0  0  0  0  0  0  0
  139.3700   79.9790  223.3980 C   0  0  0  0  0  0  0  0  0  0  0  0
  140.3420   80.8390  223.8430 C   0  0  0  0  0  0  0  0  0  0  0  0
  141.6500   80.4420  223.7220 C   0  0  0  0  0  0  0  0  0  0  0  0
  142.0210   79.2190  223.1720 C   0  0  0  0  0  0  0  0  0  0  0  0
  141.0370   78.3590  222.7250 C   0  0  0  0  0  0  0  0  0  0  0  0
  141.0820   76.9840  222.0830 C   0  0  2  0  0  0  0  0  0  0  0  0
  141.6070   77.0640  220.7260 C   0  0  0  0  0  0  0  0  0  0  0  0
  142.3940   76.1220  220.1060 C   0  0  0  0  0  0  0  0  0  0  0  0
  142.8550   76.2790  218.8040 C   0  0  0  0  0  0  0  0  0  0  0  0
  142.5050   77.4290  218.1160 C   0  0  0  0  0  0  0  0  0  0  0  0
  141.7360   78.3600  218.7120 N   0  0  0  0  0  0  0  0  0  0  0  0
  141.2900   78.2010  219.9750 C   0  0  0  0  0  0  0  0  0  0  0  0
  138.0530   72.3930  221.5270 C   0  0  0  0  0  0  0  0  0  0  0  0
  137.8380   71.0390  222.2290 C   0  0  0  0  0  0  0  0  0  0  0  0
  134.3783   68.8992  224.4506 H   0  0  0  0  0  0  0  0  0  0  0  0
  134.4615   69.7939  222.8952 H   0  0  0  0  0  0  0  0  0  0  0  0
  134.3485   68.0011  222.8952 H   0  0  0  0  0  0  0  0  0  0  0  0
  136.5704   67.7472  223.6753 H   0  0  0  0  0  0  0  0  0  0  0  0
  136.6783   69.0637  222.4652 H   0  0  0  0  0  0  0  0  0  0  0  0
  138.6893   67.5799  224.5068 H   0  0  0  0  0  0  0  0  0  0  0  0
  140.1817   66.3873  226.0794 H   0  0  0  0  0  0  0  0  0  0  0  0
  141.3602   67.5901  227.8834 H   0  0  0  0  0  0  0  0  0  0  0  0
  141.0434   70.0614  228.1299 H   0  0  0  0  0  0  0  0  0  0  0  0
  139.5393   71.2687  226.5463 H   0  0  0  0  0  0  0  0  0  0  0  0
  138.2578   72.0916  224.0188 H   0  0  0  0  0  0  0  0  0  0  0  0
  140.5849   71.4853  224.1287 H   0  0  0  0  0  0  0  0  0  0  0  0
  140.3061   69.9460  223.2456 H   0  0  0  0  0  0  0  0  0  0  0  0
  141.3926   72.1079  222.0598 H   0  0  0  0  0  0  0  0  0  0  0  0
  140.3164   70.9659  221.1791 H   0  0  0  0  0  0  0  0  0  0  0  0
  138.1855   75.2141  221.9124 H   0  0  0  0  0  0  0  0  0  0  0  0
  139.2210   74.9090  219.4840 H   0  0  0  0  0  0  0  0  0  0  0  0
  139.0970   76.5570  219.7820 H   0  0  0  0  0  0  0  0  0  0  0  0
  139.7649   75.9569  223.2761 H   0  0  0  0  0  0  0  0  0  0  0  0
  138.4490   77.9275  221.3013 H   0  0  0  0  0  0  0  0  0  0  0  0
  137.8829   77.5487  222.9034 H   0  0  0  0  0  0  0  0  0  0  0  0
  138.3095   80.2597  223.4784 H   0  0  0  0  0  0  0  0  0  0  0  0
  140.0817   81.8135  224.2818 H   0  0  0  0  0  0  0  0  0  0  0  0
  142.4402   81.1207  224.0755 H   0  0  0  0  0  0  0  0  0  0  0  0
  143.0825   78.9411  223.0943 H   0  0  0  0  0  0  0  0  0  0  0  0
  141.7879   76.2518  222.5020 H   0  0  0  0  0  0  0  0  0  0  0  0
  142.6684   75.2121  220.6599 H   0  0  0  0  0  0  0  0  0  0  0  0
  143.4824   75.5088  218.3317 H   0  0  0  0  0  0  0  0  0  0  0  0
  142.8547   77.5816  217.0843 H   0  0  0  0  0  0  0  0  0  0  0  0
  140.6621   78.9839  220.4252 H   0  0  0  0  0  0  0  0  0  0  0  0
  137.3737   73.1466  221.9521 H   0  0  0  0  0  0  0  0  0  0  0  0
  137.8440   72.3044  220.4507 H   0  0  0  0  0  0  0  0  0  0  0  0
  136.7637   70.8542  222.3766 H   0  0  0  0  0  0  0  0  0  0  0  0
  138.2380   70.2108  221.6255 H   0  0  0  0  0  0  0  0  0  0  0  0
  1  2  1  0
  2  3  1  0
  3  4  2  0
  3  5  1  0
  5  6  1  0
  6  7  2  0
  7  8  1  0
  8  9  2  0
  9 10  1  0
 10 11  2  0
  5 12  1  0
 12 13  1  0
 13 14  1  0
 14 15  1  0
 15 16  1  0
 16 17  2  0
 16 18  1  0
 18 19  1  0
 18 20  1  0
 20 21  1  0
 21 22  1  0
 22 23  2  0
 23 24  1  0
 24 25  2  0
 25 26  1  0
 26 27  2  0
 27 28  1  0
 28 29  1  0
 29 30  2  0
 30 31  1  0
 31 32  2  0
 32 33  1  0
 33 34  2  0
 15 35  1  0
 35 36  1  0
 11  6  1  0
 36 12  1  0
 28 20  1  0
 34 29  1  0
 27 22  1  0
  1 37  1  0
  1 38  1  0
  1 39  1  0
  2 40  1  0
  2 41  1  0
  7 42  1  0
  8 43  1  0
  9 44  1  0
 10 45  1  0
 11 46  1  0
 12 47  1  0
 13 48  1  0
 13 49  1  0
 14 50  1  0
 14 51  1  0
 18 52  1  1
 19 53  1  0
 19 54  1  0
 20 55  1  1
 21 56  1  0
 21 57  1  0
 23 58  1  0
 24 59  1  0
 25 60  1  0
 26 61  1  0
 28 62  1  1
 30 63  1  0
 31 64  1  0
 32 65  1  0
 34 66  1  0
 35 67  1  0
 35 68  1  0
 36 69  1  0
 36 70  1  0
M  END
>  <smiles>  (19) 
CCC(=O)N(c1ccccc1)C1CCN(C(=O)[C@H](N)C2Cc3ccccc3C2c2cccnc2)CC1

>  <score_type>  (19) 
oracle

>  <origin>  (19) 
autodockgpu

>  <m_score__min__energy>  (19) 
-9.3599999999999994

>  <m_primary>  (19) 
energy

>  <rmsd>  (19) 
5.71144392609734

>  <m_score__min__rmsd>  (19) 
5.71144392609734

>  <meeko>  (19) 
{"free_energy": -8.74, "intermolecular_energy": -11.13, "internal_energy": -2.15, "cluster_size": 36, "cluster_id": 1, "rank_in_cluster": 35}

>  <energy>  (19) 
-9.29

>  <cluster_rmsd>  (19) 
0.6

>  <cluster>  (19) 
1

$$$$

     RDKit          3D

 70 74  0  0  0  0  0  0  0  0999 V2000
  136.9050   85.0820  223.6170 C   0  0  0  0  0  0  0  0  0  0  0  0
  136.3520   83.9450  222.7920 C   0  0  0  0  0  0  0  0  0  0  0  0
  137.4120   82.9160  222.6190 C   0  0  0  0  0  0  0  0  0  0  0  0
  138.3580   83.2150  221.8400 O   0  0  0  0  0  0  0  0  0  0  0  0
  137.3520   81.6580  223.3010 N   0  0  0  0  0  0  0  0  0  0  0  0
  136.6470   81.6120  224.5360 C   0  0  0  0  0  0  0  0  0  0  0  0
  137.3410   82.0820  225.6530 C   0  0  0  0  0  0  0  0  0  0  0  0
  136.7160   82.0620  226.8840 C   0  0  0  0  0  0  0  0  0  0  0  0
  135.4310   81.5940  227.0370 C   0  0  0  0  0  0  0  0  0  0  0  0
  134.7410   81.1270  225.9230 C   0  0  0  0  0  0  0  0  0  0  0  0
  135.3680   81.1440  224.6740 C   0  0  0  0  0  0  0  0  0  0  0  0
  138.0020   80.5420  222.6890 C   0  0  0  0  0  0  0  0  0  0  0  0
  138.2490   79.4850  223.7470 C   0  0  0  0  0  0  0  0  0  0  0  0
  138.4700   78.1420  223.0770 C   0  0  0  0  0  0  0  0  0  0  0  0
  139.0440   78.3380  221.7360 N   0  0  0  0  0  0  0  0  0  0  0  0
  140.3400   77.8610  221.5210 C   0  0  0  0  0  0  0  0  0  0  0  0
  140.9170   77.3010  222.5200 O   0  0  0  0  0  0  0  0  0  0  0  0
  141.1390   77.9200  220.2760 C   0  0  2  0  0  0  0  0  0  0  0  0
  142.4130   77.2910  220.3530 N   0  0  0  0  0  0  0  0  0  0  0  0
  141.0660   79.2400  219.6120 C   0  0  2  0  0  0  0  0  0  0  0  0
  142.2240   79.4950  218.6680 C   0  0  0  0  0  0  0  0  0  0  0  0
  142.1120   80.9890  218.4520 C   0  0  0  0  0  0  0  0  0  0  0  0
  142.6650   81.7400  217.4350 C   0  0  0  0  0  0  0  0  0  0  0  0
  142.4550   83.0940  217.3880 C   0  0  0  0  0  0  0  0  0  0  0  0
  141.6850   83.6550  218.3760 C   0  0  0  0  0  0  0  0  0  0  0  0
  141.1200   82.9120  219.4080 C   0  0  0  0  0  0  0  0  0  0  0  0
  141.3370   81.5490  219.4490 C   0  0  0  0  0  0  0  0  0  0  0  0
  140.8890   80.4610  220.4090 C   0  0  2  0  0  0  0  0  0  0  0  0
  141.5670   80.5920  221.6920 C   0  0  0  0  0  0  0  0  0  0  0  0
  142.7370   79.9700  222.0550 C   0  0  0  0  0  0  0  0  0  0  0  0
  143.3180   80.1490  223.3060 C   0  0  0  0  0  0  0  0  0  0  0  0
  142.6850   80.9850  224.2120 C   0  0  0  0  0  0  0  0  0  0  0  0
  141.5370   81.5990  223.8690 N   0  0  0  0  0  0  0  0  0  0  0  0
  140.9790   81.4230  222.6530 C   0  0  0  0  0  0  0  0  0  0  0  0
  138.2020   79.0180  220.7850 C   0  0  0  0  0  0  0  0  0  0  0  0
  137.2110   79.8940  221.5740 C   0  0  0  0  0  0  0  0  0  0  0  0
  136.7914   84.8485  224.6859 H   0  0  0  0  0  0  0  0  0  0  0  0
  137.9709   85.2201  223.3831 H   0  0  0  0  0  0  0  0  0  0  0  0
  136.3556   86.0058  223.3831 H   0  0  0  0  0  0  0  0  0  0  0  0
  135.4872   83.5014  223.3071 H   0  0  0  0  0  0  0  0  0  0  0  0
  136.0315   84.3193  221.8085 H   0  0  0  0  0  0  0  0  0  0  0  0
  138.3686   82.4619  225.5538 H   0  0  0  0  0  0  0  0  0  0  0  0
  137.2600   82.4301  227.7663 H   0  0  0  0  0  0  0  0  0  0  0  0
  134.9550   81.5892  228.0287 H   0  0  0  0  0  0  0  0  0  0  0  0
  133.7131   80.7485  226.0240 H   0  0  0  0  0  0  0  0  0  0  0  0
  134.8264   80.7764  223.7900 H   0  0  0  0  0  0  0  0  0  0  0  0
  138.9293   80.9344  222.2460 H   0  0  0  0  0  0  0  0  0  0  0  0
  139.1403   79.7537  224.3329 H   0  0  0  0  0  0  0  0  0  0  0  0
  137.3769   79.4230  224.4145 H   0  0  0  0  0  0  0  0  0  0  0  0
  139.1617   77.5407  223.6852 H   0  0  0  0  0  0  0  0  0  0  0  0
  137.5057   77.6209  222.9848 H   0  0  0  0  0  0  0  0  0  0  0  0
  140.6429   77.2554  219.5533 H   0  0  0  0  0  0  0  0  0  0  0  0
  142.5790   76.7720  221.2200 H   0  0  0  0  0  0  0  0  0  0  0  0
  143.2350   77.8760  220.1370 H   0  0  0  0  0  0  0  0  0  0  0  0
  140.1038   79.0910  219.1001 H   0  0  0  0  0  0  0  0  0  0  0  0
  143.1857   79.2265  219.1296 H   0  0  0  0  0  0  0  0  0  0  0  0
  142.1867   78.9033  217.7415 H   0  0  0  0  0  0  0  0  0  0  0  0
  143.2752   81.2516  216.6609 H   0  0  0  0  0  0  0  0  0  0  0  0
  142.8887   83.7095  216.5861 H   0  0  0  0  0  0  0  0  0  0  0  0
  141.5066   84.7401  218.3509 H   0  0  0  0  0  0  0  0  0  0  0  0
  140.5094   83.4033  220.1799 H   0  0  0  0  0  0  0  0  0  0  0  0
  139.8460   80.4905  220.7574 H   0  0  0  0  0  0  0  0  0  0  0  0
  143.2320   79.3067  221.3304 H   0  0  0  0  0  0  0  0  0  0  0  0
  144.2566   79.6396  223.5697 H   0  0  0  0  0  0  0  0  0  0  0  0
  143.1197   81.1466  225.2095 H   0  0  0  0  0  0  0  0  0  0  0  0
  140.0410   81.9443  222.4114 H   0  0  0  0  0  0  0  0  0  0  0  0
  138.8162   79.6490  220.1258 H   0  0  0  0  0  0  0  0  0  0  0  0
  137.6601   78.2903  220.1631 H   0  0  0  0  0  0  0  0  0  0  0  0
  136.7789   80.6639  220.9178 H   0  0  0  0  0  0  0  0  0  0  0  0
  136.3805   79.2933  221.9733 H   0  0  0  0  0  0  0  0  0  0  0  0
  1  2  1  0
  2  3  1  0
  3  4  2  0
  3  5  1  0
  5  6  1  0
  6  7  2  0
  7  8  1  0
  8  9  2  0
  9 10  1  0
 10 11  2  0
  5 12  1  0
 12 13  1  0
 13 14  1  0
 14 15  1  0
 15 16  1  0
 16 17  2  0
 16 18  1  0
 18 19  1  0
 18 20  1  0
 20 21  1  0
 21 22  1  0
 22 23  2  0
 23 24  1  0
 24 25  2  0
 25 26  1  0
 26 27  2  0
 27 28  1  0
 28 29  1  0
 29 30  2  0
 30 31  1  0
 31 32  2  0
 32 33  1  0
 33 34  2  0
 15 35  1  0
 35 36  1  0
 11  6  1  0
 36 12  1  0
 28 20  1  0
 34 29  1  0
 27 22  1  0
  1 37  1  0
  1 38  1  0
  1 39  1  0
  2 40  1  0
  2 41  1  0
  7 42  1  0
  8 43  1  0
  9 44  1  0
 10 45  1  0
 11 46  1  0
 12 47  1  0
 13 48  1  0
 13 49  1  0
 14 50  1  0
 14 51  1  0
 18 52  1  6
 19 53  1  0
 19 54  1  0
 20 55  1  6
 21 56  1  0
 21 57  1  0
 23 58  1  0
 24 59  1  0
 25 60  1  0
 26 61  1  0
 28 62  1  1
 30 63  1  0
 31 64  1  0
 32 65  1  0
 34 66  1  0
 35 67  1  0
 35 68  1  0
 36 69  1  0
 36 70  1  0
M  END
>  <smiles>  (20) 
CCC(=O)N(c1ccccc1)C1CCN(C(=O)[C@H](N)C2Cc3ccccc3C2c2cccnc2)CC1

>  <score_type>  (20) 
oracle

>  <origin>  (20) 
autodockgpu

>  <m_score__min__energy>  (20) 
-9.3599999999999994

>  <m_primary>  (20) 
energy

>  <rmsd>  (20) 
4.989291191849689

>  <m_score__min__rmsd>  (20) 
4.989291191849689

>  <meeko>  (20) 
{"free_energy": -7.24, "intermolecular_energy": -9.62, "internal_energy": -4.02, "cluster_size": 12, "cluster_id": 4, "rank_in_cluster": 2}

>  <energy>  (20) 
-9.29

>  <cluster_rmsd>  (20) 
0.64

>  <cluster>  (20) 
1

$$$$

     RDKit          3D

 70 74  0  0  0  0  0  0  0  0999 V2000
  137.8180   67.8500  222.3160 C   0  0  0  0  0  0  0  0  0  0  0  0
  138.8060   68.1910  223.4060 C   0  0  0  0  0  0  0  0  0  0  0  0
  138.2910   69.3550  224.1750 C   0  0  0  0  0  0  0  0  0  0  0  0
  137.0710   69.3220  224.4880 O   0  0  0  0  0  0  0  0  0  0  0  0
  139.1430   70.4500  224.5340 N   0  0  0  0  0  0  0  0  0  0  0  0
  139.7790   70.4000  225.8050 C   0  0  0  0  0  0  0  0  0  0  0  0
  140.4370   71.5650  226.2050 C   0  0  0  0  0  0  0  0  0  0  0  0
  141.0780   71.5830  227.4270 C   0  0  0  0  0  0  0  0  0  0  0  0
  141.0840   70.4870  228.2590 C   0  0  0  0  0  0  0  0  0  0  0  0
  140.4270   69.3280  227.8600 C   0  0  0  0  0  0  0  0  0  0  0  0
  139.7770   69.3020  226.6230 C   0  0  0  0  0  0  0  0  0  0  0  0
  139.2940   71.5090  223.5850 C   0  0  0  0  0  0  0  0  0  0  0  0
  140.6810   71.4230  222.9800 C   0  0  0  0  0  0  0  0  0  0  0  0
  140.7080   72.1820  221.6660 C   0  0  0  0  0  0  0  0  0  0  0  0
  139.7170   73.2710  221.6960 N   0  0  0  0  0  0  0  0  0  0  0  0
  140.2070   74.5790  221.6460 C   0  0  0  0  0  0  0  0  0  0  0  0
  141.4810   74.7120  221.5880 O   0  0  0  0  0  0  0  0  0  0  0  0
  139.4360   75.8420  221.6520 C   0  0  2  0  0  0  0  0  0  0  0  0
  138.7960   76.1570  220.4200 N   0  0  0  0  0  0  0  0  0  0  0  0
  140.1360   76.9370  222.3600 C   0  0  2  0  0  0  0  0  0  0  0  0
  139.2690   78.1630  222.5640 C   0  0  0  0  0  0  0  0  0  0  0  0
  140.3030   79.2060  222.9280 C   0  0  0  0  0  0  0  0  0  0  0  0
  140.0980   80.4170  223.5550 C   0  0  0  0  0  0  0  0  0  0  0  0
  141.1600   81.2440  223.8180 C   0  0  0  0  0  0  0  0  0  0  0  0
  142.4090   80.8190  223.4380 C   0  0  0  0  0  0  0  0  0  0  0  0
  142.6330   79.6000  222.8050 C   0  0  0  0  0  0  0  0  0  0  0  0
  141.5590   78.7740  222.5440 C   0  0  0  0  0  0  0  0  0  0  0  0
  141.4410   77.4120  221.8810 C   0  0  2  0  0  0  0  0  0  0  0  0
  141.6950   77.5100  220.4500 C   0  0  0  0  0  0  0  0  0  0  0  0
  142.5980   76.7600  219.7360 C   0  0  0  0  0  0  0  0  0  0  0  0
  142.7800   76.9190  218.3670 C   0  0  0  0  0  0  0  0  0  0  0  0
  142.0200   77.8720  217.7080 C   0  0  0  0  0  0  0  0  0  0  0  0
  141.1320   78.6140  218.3960 N   0  0  0  0  0  0  0  0  0  0  0  0
  140.9590   78.4540  219.7250 C   0  0  0  0  0  0  0  0  0  0  0  0
  138.3380   72.8640  221.7870 C   0  0  0  0  0  0  0  0  0  0  0  0
  138.2980   71.4740  222.4470 C   0  0  0  0  0  0  0  0  0  0  0  0
  136.8705   67.5230  222.7691 H   0  0  0  0  0  0  0  0  0  0  0  0
  137.6389   68.7383  221.6924 H   0  0  0  0  0  0  0  0  0  0  0  0
  138.2249   67.0403  221.6924 H   0  0  0  0  0  0  0  0  0  0  0  0
  138.9268   67.3286  224.0780 H   0  0  0  0  0  0  0  0  0  0  0  0
  139.7809   68.4396  222.9613 H   0  0  0  0  0  0  0  0  0  0  0  0
  140.4442   72.4537  225.5567 H   0  0  0  0  0  0  0  0  0  0  0  0
  141.5984   72.4986  227.7446 H   0  0  0  0  0  0  0  0  0  0  0  0
  141.6024   70.5271  229.2284 H   0  0  0  0  0  0  0  0  0  0  0  0
  140.4190   68.4413  228.5110 H   0  0  0  0  0  0  0  0  0  0  0  0
  139.2569   68.3873  226.3023 H   0  0  0  0  0  0  0  0  0  0  0  0
  139.1220   72.4429  224.1403 H   0  0  0  0  0  0  0  0  0  0  0  0
  141.4116   71.8647  223.6736 H   0  0  0  0  0  0  0  0  0  0  0  0
  140.9375   70.3686  222.7996 H   0  0  0  0  0  0  0  0  0  0  0  0
  141.7110   72.6058  221.5101 H   0  0  0  0  0  0  0  0  0  0  0  0
  140.4639   71.4926  220.8444 H   0  0  0  0  0  0  0  0  0  0  0  0
  138.5539   75.6676  222.2856 H   0  0  0  0  0  0  0  0  0  0  0  0
  138.2720   75.3830  220.0040 H   0  0  0  0  0  0  0  0  0  0  0  0
  139.3760   76.6130  219.6970 H   0  0  0  0  0  0  0  0  0  0  0  0
  140.3538   76.3919  223.2903 H   0  0  0  0  0  0  0  0  0  0  0  0
  138.7323   78.4335  221.6427 H   0  0  0  0  0  0  0  0  0  0  0  0
  138.4783   78.0330  223.3176 H   0  0  0  0  0  0  0  0  0  0  0  0
  139.0811   80.7202  223.8447 H   0  0  0  0  0  0  0  0  0  0  0  0
  141.0161   82.2142  224.3161 H   0  0  0  0  0  0  0  0  0  0  0  0
  143.2709   81.4710  223.6430 H   0  0  0  0  0  0  0  0  0  0  0  0
  143.6512   79.2994  222.5170 H   0  0  0  0  0  0  0  0  0  0  0  0
  142.1943   76.6539  222.1414 H   0  0  0  0  0  0  0  0  0  0  0  0
  143.1986   76.0066  220.2667 H   0  0  0  0  0  0  0  0  0  0  0  0
  143.5094   76.3034  217.8203 H   0  0  0  0  0  0  0  0  0  0  0  0
  142.1420   78.0219  216.6251 H   0  0  0  0  0  0  0  0  0  0  0  0
  140.2226   79.0800  220.2503 H   0  0  0  0  0  0  0  0  0  0  0  0
  137.7751   73.5845  222.3986 H   0  0  0  0  0  0  0  0  0  0  0  0
  137.8825   72.8265  220.7864 H   0  0  0  0  0  0  0  0  0  0  0  0
  137.2889   71.2651  222.8317 H   0  0  0  0  0  0  0  0  0  0  0  0
  138.5482   70.6835  221.7241 H   0  0  0  0  0  0  0  0  0  0  0  0
  1  2  1  0
  2  3  1  0
  3  4  2  0
  3  5  1  0
  5  6  1  0
  6  7  2  0
  7  8  1  0
  8  9  2  0
  9 10  1  0
 10 11  2  0
  5 12  1  0
 12 13  1  0
 13 14  1  0
 14 15  1  0
 15 16  1  0
 16 17  2  0
 16 18  1  0
 18 19  1  0
 18 20  1  0
 20 21  1  0
 21 22  1  0
 22 23  2  0
 23 24  1  0
 24 25  2  0
 25 26  1  0
 26 27  2  0
 27 28  1  0
 28 29  1  0
 29 30  2  0
 30 31  1  0
 31 32  2  0
 32 33  1  0
 33 34  2  0
 15 35  1  0
 35 36  1  0
 11  6  1  0
 36 12  1  0
 28 20  1  0
 34 29  1  0
 27 22  1  0
  1 37  1  0
  1 38  1  0
  1 39  1  0
  2 40  1  0
  2 41  1  0
  7 42  1  0
  8 43  1  0
  9 44  1  0
 10 45  1  0
 11 46  1  0
 12 47  1  0
 13 48  1  0
 13 49  1  0
 14 50  1  0
 14 51  1  0
 18 52  1  1
 19 53  1  0
 19 54  1  0
 20 55  1  1
 21 56  1  0
 21 57  1  0
 23 58  1  0
 24 59  1  0
 25 60  1  0
 26 61  1  0
 28 62  1  1
 30 63  1  0
 31 64  1  0
 32 65  1  0
 34 66  1  0
 35 67  1  0
 35 68  1  0
 36 69  1  0
 36 70  1  0
M  END
>  <smiles>  (21) 
CCC(=O)N(c1ccccc1)C1CCN(C(=O)[C@H](N)C2Cc3ccccc3C2c2cccnc2)CC1

>  <score_type>  (21) 
oracle

>  <origin>  (21) 
autodockgpu

>  <m_score__min__energy>  (21) 
-9.3599999999999994

>  <m_primary>  (21) 
energy

>  <rmsd>  (21) 
5.392641733069857

>  <m_score__min__rmsd>  (21) 
5.392641733069857

>  <meeko>  (21) 
{"free_energy": -9.32, "intermolecular_energy": -11.71, "internal_energy": -2.31, "cluster_size": 36, "cluster_id": 1, "rank_in_cluster": 12}

>  <energy>  (21) 
-9.29

>  <cluster_rmsd>  (21) 
0.61

>  <cluster>  (21) 
1

$$$$

     RDKit          3D

 70 74  0  0  0  0  0  0  0  0999 V2000
  139.0770   84.4800  221.5030 C   0  0  0  0  0  0  0  0  0  0  0  0
  138.2510   83.2320  221.3020 C   0  0  0  0  0  0  0  0  0  0  0  0
  137.3630   83.0480  222.4800 C   0  0  0  0  0  0  0  0  0  0  0  0
  136.6190   84.0220  222.7760 O   0  0  0  0  0  0  0  0  0  0  0  0
  137.3610   81.8280  223.2320 N   0  0  0  0  0  0  0  0  0  0  0  0
  136.7290   81.8410  224.5060 C   0  0  0  0  0  0  0  0  0  0  0  0
  135.3470   81.6410  224.5040 C   0  0  0  0  0  0  0  0  0  0  0  0
  134.6710   81.6440  225.7070 C   0  0  0  0  0  0  0  0  0  0  0  0
  135.3210   81.8390  226.9040 C   0  0  0  0  0  0  0  0  0  0  0  0
  136.6980   82.0390  226.9040 C   0  0  0  0  0  0  0  0  0  0  0  0
  137.3880   82.0370  225.6900 C   0  0  0  0  0  0  0  0  0  0  0  0
  137.9910   80.6880  222.6430 C   0  0  0  0  0  0  0  0  0  0  0  0
  138.2140   79.6470  223.7210 C   0  0  0  0  0  0  0  0  0  0  0  0
  138.4120   78.2870  223.0790 C   0  0  0  0  0  0  0  0  0  0  0  0
  138.9940   78.4470  221.7350 N   0  0  0  0  0  0  0  0  0  0  0  0
  140.2810   77.9400  221.5340 C   0  0  0  0  0  0  0  0  0  0  0  0
  140.8440   77.3890  222.5460 O   0  0  0  0  0  0  0  0  0  0  0  0
  141.0840   77.9600  220.2920 C   0  0  2  0  0  0  0  0  0  0  0  0
  142.3420   77.3010  220.3820 N   0  0  0  0  0  0  0  0  0  0  0  0
  141.0460   79.2720  219.6060 C   0  0  2  0  0  0  0  0  0  0  0  0
  142.2240   79.4910  218.6770 C   0  0  0  0  0  0  0  0  0  0  0  0
  142.1430   80.9830  218.4370 C   0  0  0  0  0  0  0  0  0  0  0  0
  142.7260   81.7080  217.4190 C   0  0  0  0  0  0  0  0  0  0  0  0
  142.5420   83.0650  217.3480 C   0  0  0  0  0  0  0  0  0  0  0  0
  141.7670   83.6560  218.3160 C   0  0  0  0  0  0  0  0  0  0  0  0
  141.1730   82.9390  219.3500 C   0  0  0  0  0  0  0  0  0  0  0  0
  141.3630   81.5730  219.4140 C   0  0  0  0  0  0  0  0  0  0  0  0
  140.8800   80.5080  220.3830 C   0  0  2  0  0  0  0  0  0  0  0  0
  141.5410   80.6450  221.6740 C   0  0  0  0  0  0  0  0  0  0  0  0
  142.6800   79.9880  222.0740 C   0  0  0  0  0  0  0  0  0  0  0  0
  143.2450   80.1760  223.3300 C   0  0  0  0  0  0  0  0  0  0  0  0
  142.6310   81.0590  224.2030 C   0  0  0  0  0  0  0  0  0  0  0  0
  141.5140   81.7080  223.8240 N   0  0  0  0  0  0  0  0  0  0  0  0
  140.9710   81.5220  222.6040 C   0  0  0  0  0  0  0  0  0  0  0  0
  138.1670   79.1250  220.7690 C   0  0  0  0  0  0  0  0  0  0  0  0
  137.1910   80.0340  221.5380 C   0  0  0  0  0  0  0  0  0  0  0  0
  139.2014   84.6679  222.5797 H   0  0  0  0  0  0  0  0  0  0  0  0
  140.0646   84.3449  221.0379 H   0  0  0  0  0  0  0  0  0  0  0  0
  138.5667   85.3363  221.0379 H   0  0  0  0  0  0  0  0  0  0  0  0
  137.6412   83.3352  220.3923 H   0  0  0  0  0  0  0  0  0  0  0  0
  138.9129   82.3601  221.1941 H   0  0  0  0  0  0  0  0  0  0  0  0
  134.8062   81.4837  223.5591 H   0  0  0  0  0  0  0  0  0  0  0  0
  133.5824   81.4861  225.7091 H   0  0  0  0  0  0  0  0  0  0  0  0
  134.7588   81.8368  227.8495 H   0  0  0  0  0  0  0  0  0  0  0  0
  137.2370   82.1969  227.8498 H   0  0  0  0  0  0  0  0  0  0  0  0
  138.4766   82.1952  225.6849 H   0  0  0  0  0  0  0  0  0  0  0  0
  138.9268   81.0543  222.1956 H   0  0  0  0  0  0  0  0  0  0  0  0
  139.1081   79.9101  224.3052 H   0  0  0  0  0  0  0  0  0  0  0  0
  137.3378   79.6143  224.3853 H   0  0  0  0  0  0  0  0  0  0  0  0
  139.0909   77.6853  223.7012 H   0  0  0  0  0  0  0  0  0  0  0  0
  137.4388   77.7813  222.9944 H   0  0  0  0  0  0  0  0  0  0  0  0
  140.5725   77.2965  219.5791 H   0  0  0  0  0  0  0  0  0  0  0  0
  142.4740   76.7540  221.2380 H   0  0  0  0  0  0  0  0  0  0  0  0
  143.1820   77.8730  220.2030 H   0  0  0  0  0  0  0  0  0  0  0  0
  140.0898   79.1337  219.0801 H   0  0  0  0  0  0  0  0  0  0  0  0
  143.1730   79.2120  219.1582 H   0  0  0  0  0  0  0  0  0  0  0  0
  142.1908   78.8858  217.7590 H   0  0  0  0  0  0  0  0  0  0  0  0
  143.3397   81.1968  216.6626 H   0  0  0  0  0  0  0  0  0  0  0  0
  142.9993   83.6598  216.5436 H   0  0  0  0  0  0  0  0  0  0  0  0
  141.6090   84.7437  218.2718 H   0  0  0  0  0  0  0  0  0  0  0  0
  140.5608   83.4531  220.1056 H   0  0  0  0  0  0  0  0  0  0  0  0
  139.8328   80.5623  220.7152 H   0  0  0  0  0  0  0  0  0  0  0  0
  143.1617   79.2883  221.3752 H   0  0  0  0  0  0  0  0  0  0  0  0
  144.1576   79.6366  223.6236 H   0  0  0  0  0  0  0  0  0  0  0  0
  143.0551   81.2295  225.2036 H   0  0  0  0  0  0  0  0  0  0  0  0
  140.0581   82.0727  222.3331 H   0  0  0  0  0  0  0  0  0  0  0  0
  138.7946   79.7318  220.0998 H   0  0  0  0  0  0  0  0  0  0  0  0
  137.6129   78.3960  220.1595 H   0  0  0  0  0  0  0  0  0  0  0  0
  136.7753   80.7993  220.8661 H   0  0  0  0  0  0  0  0  0  0  0  0
  136.3482   79.4567  221.9460 H   0  0  0  0  0  0  0  0  0  0  0  0
  1  2  1  0
  2  3  1  0
  3  4  2  0
  3  5  1  0
  5  6  1  0
  6  7  2  0
  7  8  1  0
  8  9  2  0
  9 10  1  0
 10 11  2  0
  5 12  1  0
 12 13  1  0
 13 14  1  0
 14 15  1  0
 15 16  1  0
 16 17  2  0
 16 18  1  0
 18 19  1  0
 18 20  1  0
 20 21  1  0
 21 22  1  0
 22 23  2  0
 23 24  1  0
 24 25  2  0
 25 26  1  0
 26 27  2  0
 27 28  1  0
 28 29  1  0
 29 30  2  0
 30 31  1  0
 31 32  2  0
 32 33  1  0
 33 34  2  0
 15 35  1  0
 35 36  1  0
 11  6  1  0
 36 12  1  0
 28 20  1  0
 34 29  1  0
 27 22  1  0
  1 37  1  0
  1 38  1  0
  1 39  1  0
  2 40  1  0
  2 41  1  0
  7 42  1  0
  8 43  1  0
  9 44  1  0
 10 45  1  0
 11 46  1  0
 12 47  1  0
 13 48  1  0
 13 49  1  0
 14 50  1  0
 14 51  1  0
 18 52  1  6
 19 53  1  0
 19 54  1  0
 20 55  1  6
 21 56  1  0
 21 57  1  0
 23 58  1  0
 24 59  1  0
 25 60  1  0
 26 61  1  0
 28 62  1  1
 30 63  1  0
 31 64  1  0
 32 65  1  0
 34 66  1  0
 35 67  1  0
 35 68  1  0
 36 69  1  0
 36 70  1  0
M  END
>  <smiles>  (22) 
CCC(=O)N(c1ccccc1)C1CCN(C(=O)[C@H](N)C2Cc3ccccc3C2c2cccnc2)CC1

>  <score_type>  (22) 
oracle

>  <origin>  (22) 
autodockgpu

>  <m_score__min__energy>  (22) 
-9.3599999999999994

>  <m_primary>  (22) 
energy

>  <rmsd>  (22) 
5.037605231223603

>  <m_score__min__rmsd>  (22) 
5.037605231223603

>  <meeko>  (22) 
{"free_energy": -7.23, "intermolecular_energy": -9.62, "internal_energy": -4.14, "cluster_size": 12, "cluster_id": 4, "rank_in_cluster": 3}

>  <energy>  (22) 
-9.28

>  <cluster_rmsd>  (22) 
0.75

>  <cluster>  (22) 
1

$$$$

     RDKit          3D

 70 74  0  0  0  0  0  0  0  0999 V2000
  138.8330   67.0660  223.0440 C   0  0  0  0  0  0  0  0  0  0  0  0
  138.9310   68.5460  222.7580 C   0  0  0  0  0  0  0  0  0  0  0  0
  138.5710   69.2980  223.9890 C   0  0  0  0  0  0  0  0  0  0  0  0
  137.5830   68.8620  224.6400 O   0  0  0  0  0  0  0  0  0  0  0  0
  139.3100   70.4530  224.4030 N   0  0  0  0  0  0  0  0  0  0  0  0
  139.9210   70.4180  225.6870 C   0  0  0  0  0  0  0  0  0  0  0  0
  139.9250   69.1780  226.3280 C   0  0  0  0  0  0  0  0  0  0  0  0
  140.4990   69.0740  227.5790 C   0  0  0  0  0  0  0  0  0  0  0  0
  141.0660   70.1590  228.2080 C   0  0  0  0  0  0  0  0  0  0  0  0
  141.0610   71.3940  227.5680 C   0  0  0  0  0  0  0  0  0  0  0  0
  140.4810   71.5050  226.3020 C   0  0  0  0  0  0  0  0  0  0  0  0
  139.3820   71.5530  223.4930 C   0  0  0  0  0  0  0  0  0  0  0  0
  140.7030   71.4850  222.7530 C   0  0  0  0  0  0  0  0  0  0  0  0
  140.6130   72.3030  221.4790 C   0  0  0  0  0  0  0  0  0  0  0  0
  139.6430   73.3970  221.6530 N   0  0  0  0  0  0  0  0  0  0  0  0
  140.1420   74.7020  221.6150 C   0  0  0  0  0  0  0  0  0  0  0  0
  141.4060   74.8280  221.4400 O   0  0  0  0  0  0  0  0  0  0  0  0
  139.3900   75.9690  221.7510 C   0  0  2  0  0  0  0  0  0  0  0  0
  138.6340   76.3430  220.6050 N   0  0  0  0  0  0  0  0  0  0  0  0
  140.1700   77.0270  222.4320 C   0  0  2  0  0  0  0  0  0  0  0  0
  139.3470   78.2600  222.7510 C   0  0  0  0  0  0  0  0  0  0  0  0
  140.4290   79.2720  223.0580 C   0  0  0  0  0  0  0  0  0  0  0  0
  140.3030   80.4640  223.7400 C   0  0  0  0  0  0  0  0  0  0  0  0
  141.4000   81.2630  223.9370 C   0  0  0  0  0  0  0  0  0  0  0  0
  142.6030   80.8320  223.4360 C   0  0  0  0  0  0  0  0  0  0  0  0
  142.7480   79.6320  222.7460 C   0  0  0  0  0  0  0  0  0  0  0  0
  141.6390   78.8330  222.5520 C   0  0  0  0  0  0  0  0  0  0  0  0
  141.4380   77.4970  221.8570 C   0  0  2  0  0  0  0  0  0  0  0  0
  141.5680   77.6400  220.4140 C   0  0  0  0  0  0  0  0  0  0  0  0
  140.7940   78.4400  219.6060 C   0  0  0  0  0  0  0  0  0  0  0  0
  140.9850   78.5160  218.2320 C   0  0  0  0  0  0  0  0  0  0  0  0
  141.9930   77.7550  217.6630 C   0  0  0  0  0  0  0  0  0  0  0  0
  142.7590   76.9670  218.4430 N   0  0  0  0  0  0  0  0  0  0  0  0
  142.5690   76.8980  219.7770 C   0  0  0  0  0  0  0  0  0  0  0  0
  138.2740   72.9970  221.8580 C   0  0  0  0  0  0  0  0  0  0  0  0
  138.2810   71.5780  222.4550 C   0  0  0  0  0  0  0  0  0  0  0  0
  138.8222   66.9027  224.1318 H   0  0  0  0  0  0  0  0  0  0  0  0
  137.9065   66.6681  222.6043 H   0  0  0  0  0  0  0  0  0  0  0  0
  139.6989   66.5494  222.6043 H   0  0  0  0  0  0  0  0  0  0  0  0
  139.9593   68.7972  222.4590 H   0  0  0  0  0  0  0  0  0  0  0  0
  138.2439   68.8148  221.9421 H   0  0  0  0  0  0  0  0  0  0  0  0
  139.4777   68.2974  225.8437 H   0  0  0  0  0  0  0  0  0  0  0  0
  140.5034   68.0982  228.0867 H   0  0  0  0  0  0  0  0  0  0  0  0
  141.5178   70.0508  229.2051 H   0  0  0  0  0  0  0  0  0  0  0  0
  141.5089   72.2736  228.0535 H   0  0  0  0  0  0  0  0  0  0  0  0
  140.4742   72.4797  225.7922 H   0  0  0  0  0  0  0  0  0  0  0  0
  139.2754   72.4610  224.1047 H   0  0  0  0  0  0  0  0  0  0  0  0
  141.5022   71.8887  223.3920 H   0  0  0  0  0  0  0  0  0  0  0  0
  140.9279   70.4382  222.5008 H   0  0  0  0  0  0  0  0  0  0  0  0
  141.6016   72.7257  221.2464 H   0  0  0  0  0  0  0  0  0  0  0  0
  140.2826   71.6540  220.6546 H   0  0  0  0  0  0  0  0  0  0  0  0
  138.5726   75.7723  222.4604 H   0  0  0  0  0  0  0  0  0  0  0  0
  138.9760   75.9500  219.7240 H   0  0  0  0  0  0  0  0  0  0  0  0
  138.4390   77.3490  220.4820 H   0  0  0  0  0  0  0  0  0  0  0  0
  140.4569   76.4466  223.3213 H   0  0  0  0  0  0  0  0  0  0  0  0
  138.7383   78.5711  221.8892 H   0  0  0  0  0  0  0  0  0  0  0  0
  138.6215   78.1173  223.5654 H   0  0  0  0  0  0  0  0  0  0  0  0
  139.3210   80.7744  224.1266 H   0  0  0  0  0  0  0  0  0  0  0  0
  141.3186   82.2171  224.4783 H   0  0  0  0  0  0  0  0  0  0  0  0
  143.4916   81.4627  223.5865 H   0  0  0  0  0  0  0  0  0  0  0  0
  143.7316   79.3248  222.3610 H   0  0  0  0  0  0  0  0  0  0  0  0
  142.1969   76.7187  222.0255 H   0  0  0  0  0  0  0  0  0  0  0  0
  139.9950   79.0413  220.0643 H   0  0  0  0  0  0  0  0  0  0  0  0
  140.3507   79.1652  217.6105 H   0  0  0  0  0  0  0  0  0  0  0  0
  142.1677   77.7938  216.5776 H   0  0  0  0  0  0  0  0  0  0  0  0
  143.2164   76.2428  220.3783 H   0  0  0  0  0  0  0  0  0  0  0  0
  137.7813   73.6927  222.5532 H   0  0  0  0  0  0  0  0  0  0  0  0
  137.7239   73.0097  220.9055 H   0  0  0  0  0  0  0  0  0  0  0  0
  137.3109   71.3588  222.9249 H   0  0  0  0  0  0  0  0  0  0  0  0
  138.4517   70.8201  221.6763 H   0  0  0  0  0  0  0  0  0  0  0  0
  1  2  1  0
  2  3  1  0
  3  4  2  0
  3  5  1  0
  5  6  1  0
  6  7  2  0
  7  8  1  0
  8  9  2  0
  9 10  1  0
 10 11  2  0
  5 12  1  0
 12 13  1  0
 13 14  1  0
 14 15  1  0
 15 16  1  0
 16 17  2  0
 16 18  1  0
 18 19  1  0
 18 20  1  0
 20 21  1  0
 21 22  1  0
 22 23  2  0
 23 24  1  0
 24 25  2  0
 25 26  1  0
 26 27  2  0
 27 28  1  0
 28 29  1  0
 29 30  2  0
 30 31  1  0
 31 32  2  0
 32 33  1  0
 33 34  2  0
 15 35  1  0
 35 36  1  0
 11  6  1  0
 36 12  1  0
 28 20  1  0
 34 29  1  0
 27 22  1  0
  1 37  1  0
  1 38  1  0
  1 39  1  0
  2 40  1  0
  2 41  1  0
  7 42  1  0
  8 43  1  0
  9 44  1  0
 10 45  1  0
 11 46  1  0
 12 47  1  0
 13 48  1  0
 13 49  1  0
 14 50  1  0
 14 51  1  0
 18 52  1  1
 19 53  1  0
 19 54  1  0
 20 55  1  1
 21 56  1  0
 21 57  1  0
 23 58  1  0
 24 59  1  0
 25 60  1  0
 26 61  1  0
 28 62  1  1
 30 63  1  0
 31 64  1  0
 32 65  1  0
 34 66  1  0
 35 67  1  0
 35 68  1  0
 36 69  1  0
 36 70  1  0
M  END
>  <smiles>  (23) 
CCC(=O)N(c1ccccc1)C1CCN(C(=O)[C@H](N)C2Cc3ccccc3C2c2cccnc2)CC1

>  <score_type>  (23) 
oracle

>  <origin>  (23) 
autodockgpu

>  <m_score__min__energy>  (23) 
-9.3599999999999994

>  <m_primary>  (23) 
energy

>  <rmsd>  (23) 
5.360682128167108

>  <m_score__min__rmsd>  (23) 
5.360682128167108

>  <meeko>  (23) 
{"free_energy": -9.25, "intermolecular_energy": -11.64, "internal_energy": -2.15, "cluster_size": 36, "cluster_id": 1, "rank_in_cluster": 25}

>  <energy>  (23) 
-9.27

>  <cluster_rmsd>  (23) 
0.77

>  <cluster>  (23) 
1

$$$$

     RDKit          3D

 70 74  0  0  0  0  0  0  0  0999 V2000
  138.7090   83.5010  221.5330 C   0  0  0  0  0  0  0  0  0  0  0  0
  137.2800   83.8280  221.8940 C   0  0  0  0  0  0  0  0  0  0  0  0
  136.5050   82.5620  221.9880 C   0  0  0  0  0  0  0  0  0  0  0  0
  135.4940   82.4690  221.2410 O   0  0  0  0  0  0  0  0  0  0  0  0
  136.8940   81.5120  222.8820 N   0  0  0  0  0  0  0  0  0  0  0  0
  136.5170   81.6370  224.2470 C   0  0  0  0  0  0  0  0  0  0  0  0
  135.1830   81.3480  224.5420 C   0  0  0  0  0  0  0  0  0  0  0  0
  134.7490   81.4520  225.8480 C   0  0  0  0  0  0  0  0  0  0  0  0
  135.5960   81.8320  226.8640 C   0  0  0  0  0  0  0  0  0  0  0  0
  136.9240   82.1200  226.5700 C   0  0  0  0  0  0  0  0  0  0  0  0
  137.3690   82.0160  225.2490 C   0  0  0  0  0  0  0  0  0  0  0  0
  137.6290   80.4160  222.3330 C   0  0  0  0  0  0  0  0  0  0  0  0
  137.8390   79.3810  223.4210 C   0  0  0  0  0  0  0  0  0  0  0  0
  138.1600   78.0400  222.7880 C   0  0  0  0  0  0  0  0  0  0  0  0
  138.8220   78.2440  221.4880 N   0  0  0  0  0  0  0  0  0  0  0  0
  140.1470   77.8150  221.3740 C   0  0  0  0  0  0  0  0  0  0  0  0
  140.6710   77.2900  222.4200 O   0  0  0  0  0  0  0  0  0  0  0  0
  141.0310   77.8920  220.1900 C   0  0  2  0  0  0  0  0  0  0  0  0
  142.3080   77.2870  220.3570 N   0  0  0  0  0  0  0  0  0  0  0  0
  140.9800   79.2110  219.5210 C   0  0  2  0  0  0  0  0  0  0  0  0
  142.1980   79.4920  218.6660 C   0  0  0  0  0  0  0  0  0  0  0  0
  142.0720   80.9830  218.4420 C   0  0  0  0  0  0  0  0  0  0  0  0
  142.6820   81.7470  217.4690 C   0  0  0  0  0  0  0  0  0  0  0  0
  142.4470   83.0970  217.4060 C   0  0  0  0  0  0  0  0  0  0  0  0
  141.5950   83.6400  218.3350 C   0  0  0  0  0  0  0  0  0  0  0  0
  140.9720   82.8840  219.3230 C   0  0  0  0  0  0  0  0  0  0  0  0
  141.2130   81.5260  219.3790 C   0  0  0  0  0  0  0  0  0  0  0  0
  140.7190   80.4270  220.3040 C   0  0  2  0  0  0  0  0  0  0  0  0
  141.2980   80.5700  221.6330 C   0  0  0  0  0  0  0  0  0  0  0  0
  140.7030   81.1750  222.7140 C   0  0  0  0  0  0  0  0  0  0  0  0
  141.3290   81.2710  223.9510 C   0  0  0  0  0  0  0  0  0  0  0  0
  142.6000   80.7360  224.0890 C   0  0  0  0  0  0  0  0  0  0  0  0
  143.1940   80.1410  223.0380 N   0  0  0  0  0  0  0  0  0  0  0  0
  142.5810   80.0500  221.8400 C   0  0  0  0  0  0  0  0  0  0  0  0
  138.0250   78.8800  220.4700 C   0  0  0  0  0  0  0  0  0  0  0  0
  136.9460   79.7240  221.1730 C   0  0  0  0  0  0  0  0  0  0  0  0
  139.2978   83.3663  222.4523 H   0  0  0  0  0  0  0  0  0  0  0  0
  138.7348   82.5737  220.9418 H   0  0  0  0  0  0  0  0  0  0  0  0
  139.1355   84.3248  220.9418 H   0  0  0  0  0  0  0  0  0  0  0  0
  137.2538   84.3497  222.8621 H   0  0  0  0  0  0  0  0  0  0  0  0
  136.8402   84.4778  221.1231 H   0  0  0  0  0  0  0  0  0  0  0  0
  134.4886   81.0421  223.7456 H   0  0  0  0  0  0  0  0  0  0  0  0
  133.6986   81.2252  226.0830 H   0  0  0  0  0  0  0  0  0  0  0  0
  135.2263   81.9070  227.8973 H   0  0  0  0  0  0  0  0  0  0  0  0
  137.6166   82.4262  227.3678 H   0  0  0  0  0  0  0  0  0  0  0  0
  138.4190   82.2420  225.0113 H   0  0  0  0  0  0  0  0  0  0  0  0
  138.5696   80.8402  221.9517 H   0  0  0  0  0  0  0  0  0  0  0  0
  138.6742   79.6913  224.0660 H   0  0  0  0  0  0  0  0  0  0  0  0
  136.9234   79.2920  224.0242 H   0  0  0  0  0  0  0  0  0  0  0  0
  138.8288   77.4738  223.4528 H   0  0  0  0  0  0  0  0  0  0  0  0
  137.2260   77.4796  222.6344 H   0  0  0  0  0  0  0  0  0  0  0  0
  140.5997   77.2194  219.4339 H   0  0  0  0  0  0  0  0  0  0  0  0
  142.4190   76.7620  221.2290 H   0  0  0  0  0  0  0  0  0  0  0  0
  143.1330   77.8910  220.2090 H   0  0  0  0  0  0  0  0  0  0  0  0
  140.0627   79.0422  218.9378 H   0  0  0  0  0  0  0  0  0  0  0  0
  143.1282   79.2427  219.1976 H   0  0  0  0  0  0  0  0  0  0  0  0
  142.2411   78.9013  217.7390 H   0  0  0  0  0  0  0  0  0  0  0  0
  143.3581   81.2729  216.7423 H   0  0  0  0  0  0  0  0  0  0  0  0
  142.9248   83.7226  216.6377 H   0  0  0  0  0  0  0  0  0  0  0  0
  141.3958   84.7211  218.2967 H   0  0  0  0  0  0  0  0  0  0  0  0
  140.2973   83.3615  220.0488 H   0  0  0  0  0  0  0  0  0  0  0  0
  139.6531   80.4338  220.5756 H   0  0  0  0  0  0  0  0  0  0  0  0
  139.6947   81.5986  222.5959 H   0  0  0  0  0  0  0  0  0  0  0  0
  140.8280   81.7596  224.7997 H   0  0  0  0  0  0  0  0  0  0  0  0
  143.1221   80.7975  225.0552 H   0  0  0  0  0  0  0  0  0  0  0  0
  143.1013   79.5557  221.0064 H   0  0  0  0  0  0  0  0  0  0  0  0
  138.6603   79.5280  219.8483 H   0  0  0  0  0  0  0  0  0  0  0  0
  137.5582   78.1245  219.8208 H   0  0  0  0  0  0  0  0  0  0  0  0
  136.5325   80.4684  220.4767 H   0  0  0  0  0  0  0  0  0  0  0  0
  136.1128   79.0951  221.5200 H   0  0  0  0  0  0  0  0  0  0  0  0
  1  2  1  0
  2  3  1  0
  3  4  2  0
  3  5  1  0
  5  6  1  0
  6  7  2  0
  7  8  1  0
  8  9  2  0
  9 10  1  0
 10 11  2  0
  5 12  1  0
 12 13  1  0
 13 14  1  0
 14 15  1  0
 15 16  1  0
 16 17  2  0
 16 18  1  0
 18 19  1  0
 18 20  1  0
 20 21  1  0
 21 22  1  0
 22 23  2  0
 23 24  1  0
 24 25  2  0
 25 26  1  0
 26 27  2  0
 27 28  1  0
 28 29  1  0
 29 30  2  0
 30 31  1  0
 31 32  2  0
 32 33  1  0
 33 34  2  0
 15 35  1  0
 35 36  1  0
 11  6  1  0
 36 12  1  0
 28 20  1  0
 34 29  1  0
 27 22  1  0
  1 37  1  0
  1 38  1  0
  1 39  1  0
  2 40  1  0
  2 41  1  0
  7 42  1  0
  8 43  1  0
  9 44  1  0
 10 45  1  0
 11 46  1  0
 12 47  1  0
 13 48  1  0
 13 49  1  0
 14 50  1  0
 14 51  1  0
 18 52  1  6
 19 53  1  0
 19 54  1  0
 20 55  1  6
 21 56  1  0
 21 57  1  0
 23 58  1  0
 24 59  1  0
 25 60  1  0
 26 61  1  0
 28 62  1  1
 30 63  1  0
 31 64  1  0
 32 65  1  0
 34 66  1  0
 35 67  1  0
 35 68  1  0
 36 69  1  0
 36 70  1  0
M  END
>  <smiles>  (24) 
CCC(=O)N(c1ccccc1)C1CCN(C(=O)[C@H](N)C2Cc3ccccc3C2c2cccnc2)CC1

>  <score_type>  (24) 
oracle

>  <origin>  (24) 
autodockgpu

>  <m_score__min__energy>  (24) 
-9.3599999999999994

>  <m_primary>  (24) 
energy

>  <rmsd>  (24) 
4.919960474400596

>  <m_score__min__rmsd>  (24) 
4.919960474400596

>  <meeko>  (24) 
{"free_energy": -6.83, "intermolecular_energy": -9.21, "internal_energy": -4.17, "cluster_size": 12, "cluster_id": 4, "rank_in_cluster": 12}

>  <energy>  (24) 
-9.25

>  <cluster_rmsd>  (24) 
0.76

>  <cluster>  (24) 
1

$$$$

     RDKit          3D

 70 74  0  0  0  0  0  0  0  0999 V2000
  136.9350   85.0470  223.4760 C   0  0  0  0  0  0  0  0  0  0  0  0
  136.3000   83.9320  222.6790 C   0  0  0  0  0  0  0  0  0  0  0  0
  137.3220   82.8840  222.4190 C   0  0  0  0  0  0  0  0  0  0  0  0
  138.2000   83.1620  221.5590 O   0  0  0  0  0  0  0  0  0  0  0  0
  137.3010   81.6300  223.1130 N   0  0  0  0  0  0  0  0  0  0  0  0
  136.6360   81.5840  224.3690 C   0  0  0  0  0  0  0  0  0  0  0  0
  137.3850   82.0000  225.4720 C   0  0  0  0  0  0  0  0  0  0  0  0
  136.8010   81.9780  226.7220 C   0  0  0  0  0  0  0  0  0  0  0  0
  135.5040   81.5570  226.9090 C   0  0  0  0  0  0  0  0  0  0  0  0
  134.7590   81.1430  225.8100 C   0  0  0  0  0  0  0  0  0  0  0  0
  135.3440   81.1640  224.5410 C   0  0  0  0  0  0  0  0  0  0  0  0
  137.9460   80.5180  222.4880 C   0  0  0  0  0  0  0  0  0  0  0  0
  138.0790   79.4020  223.5040 C   0  0  0  0  0  0  0  0  0  0  0  0
  138.2920   78.0840  222.7830 C   0  0  0  0  0  0  0  0  0  0  0  0
  138.9620   78.3200  221.4930 N   0  0  0  0  0  0  0  0  0  0  0  0
  140.2500   77.7990  221.3390 C   0  0  0  0  0  0  0  0  0  0  0  0
  140.7350   77.1680  222.3440 O   0  0  0  0  0  0  0  0  0  0  0  0
  141.1320   77.8840  220.1540 C   0  0  2  0  0  0  0  0  0  0  0  0
  142.4100   77.2780  220.3160 N   0  0  0  0  0  0  0  0  0  0  0  0
  141.0800   79.2080  219.4960 C   0  0  2  0  0  0  0  0  0  0  0  0
  142.2690   79.4700  218.5930 C   0  0  0  0  0  0  0  0  0  0  0  0
  142.1630   80.9650  218.3830 C   0  0  0  0  0  0  0  0  0  0  0  0
  142.7490   81.7230  217.3900 C   0  0  0  0  0  0  0  0  0  0  0  0
  142.5390   83.0770  217.3440 C   0  0  0  0  0  0  0  0  0  0  0  0
  141.7350   83.6320  218.3090 C   0  0  0  0  0  0  0  0  0  0  0  0
  141.1370   82.8820  219.3180 C   0  0  0  0  0  0  0  0  0  0  0  0
  141.3540   81.5190  219.3570 C   0  0  0  0  0  0  0  0  0  0  0  0
  140.8750   80.4240  220.2950 C   0  0  2  0  0  0  0  0  0  0  0  0
  141.5100   80.5480  221.6000 C   0  0  0  0  0  0  0  0  0  0  0  0
  142.6300   79.8720  222.0220 C   0  0  0  0  0  0  0  0  0  0  0  0
  143.1710   80.0480  223.2910 C   0  0  0  0  0  0  0  0  0  0  0  0
  142.5510   80.9370  224.1540 C   0  0  0  0  0  0  0  0  0  0  0  0
  141.4530   81.6050  223.7530 N   0  0  0  0  0  0  0  0  0  0  0  0
  140.9330   81.4310  222.5200 C   0  0  0  0  0  0  0  0  0  0  0  0
  138.2130   79.0810  220.5260 C   0  0  0  0  0  0  0  0  0  0  0  0
  137.2070   79.9590  221.2910 C   0  0  0  0  0  0  0  0  0  0  0  0
  136.8183   84.8422  224.5504 H   0  0  0  0  0  0  0  0  0  0  0  0
  138.0050   85.1109  223.2290 H   0  0  0  0  0  0  0  0  0  0  0  0
  136.4441   85.9999  223.2290 H   0  0  0  0  0  0  0  0  0  0  0  0
  135.4646   83.4998  223.2493 H   0  0  0  0  0  0  0  0  0  0  0  0
  135.9187   84.3257  221.7253 H   0  0  0  0  0  0  0  0  0  0  0  0
  138.4237   82.3397  225.3463 H   0  0  0  0  0  0  0  0  0  0  0  0
  137.3879   82.3058  227.5927 H   0  0  0  0  0  0  0  0  0  0  0  0
  135.0617   81.5481  227.9161 H   0  0  0  0  0  0  0  0  0  0  0  0
  133.7208   80.8028  225.9382 H   0  0  0  0  0  0  0  0  0  0  0  0
  134.7586   80.8387  223.6684 H   0  0  0  0  0  0  0  0  0  0  0  0
  138.9157   80.8914  222.1270 H   0  0  0  0  0  0  0  0  0  0  0  0
  138.9385   79.6040  224.1601 H   0  0  0  0  0  0  0  0  0  0  0  0
  137.1616   79.3452  224.1083 H   0  0  0  0  0  0  0  0  0  0  0  0
  138.9177   77.4258  223.4038 H   0  0  0  0  0  0  0  0  0  0  0  0
  137.3166   77.6086  222.6025 H   0  0  0  0  0  0  0  0  0  0  0  0
  140.7005   77.2171  219.3931 H   0  0  0  0  0  0  0  0  0  0  0  0
  142.5350   76.7810  221.2020 H   0  0  0  0  0  0  0  0  0  0  0  0
  143.2340   77.8730  220.1330 H   0  0  0  0  0  0  0  0  0  0  0  0
  140.1360   79.0616  218.9507 H   0  0  0  0  0  0  0  0  0  0  0  0
  143.2149   79.1992  219.0849 H   0  0  0  0  0  0  0  0  0  0  0  0
  142.2634   78.8843  217.6619 H   0  0  0  0  0  0  0  0  0  0  0  0
  143.3857   81.2401  216.6341 H   0  0  0  0  0  0  0  0  0  0  0  0
  142.9988   83.6976  216.5608 H   0  0  0  0  0  0  0  0  0  0  0  0
  141.5556   84.7170  218.2837 H   0  0  0  0  0  0  0  0  0  0  0  0
  140.5012   83.3679  220.0727 H   0  0  0  0  0  0  0  0  0  0  0  0
  139.8210   80.4497  220.6088 H   0  0  0  0  0  0  0  0  0  0  0  0
  143.1156   79.1668  221.3314 H   0  0  0  0  0  0  0  0  0  0  0  0
  144.0694   79.4948  223.6020 H   0  0  0  0  0  0  0  0  0  0  0  0
  142.9549   81.0967  225.1646 H   0  0  0  0  0  0  0  0  0  0  0  0
  140.0347   81.9963  222.2312 H   0  0  0  0  0  0  0  0  0  0  0  0
  138.8946   79.7164  219.9414 H   0  0  0  0  0  0  0  0  0  0  0  0
  137.6854   78.4078  219.8343 H   0  0  0  0  0  0  0  0  0  0  0  0
  136.8514   80.7776  220.6480 H   0  0  0  0  0  0  0  0  0  0  0  0
  136.3280   79.3761  221.6034 H   0  0  0  0  0  0  0  0  0  0  0  0
  1  2  1  0
  2  3  1  0
  3  4  2  0
  3  5  1  0
  5  6  1  0
  6  7  2  0
  7  8  1  0
  8  9  2  0
  9 10  1  0
 10 11  2  0
  5 12  1  0
 12 13  1  0
 13 14  1  0
 14 15  1  0
 15 16  1  0
 16 17  2  0
 16 18  1  0
 18 19  1  0
 18 20  1  0
 20 21  1  0
 21 22  1  0
 22 23  2  0
 23 24  1  0
 24 25  2  0
 25 26  1  0
 26 27  2  0
 27 28  1  0
 28 29  1  0
 29 30  2  0
 30 31  1  0
 31 32  2  0
 32 33  1  0
 33 34  2  0
 15 35  1  0
 35 36  1  0
 11  6  1  0
 36 12  1  0
 28 20  1  0
 34 29  1  0
 27 22  1  0
  1 37  1  0
  1 38  1  0
  1 39  1  0
  2 40  1  0
  2 41  1  0
  7 42  1  0
  8 43  1  0
  9 44  1  0
 10 45  1  0
 11 46  1  0
 12 47  1  0
 13 48  1  0
 13 49  1  0
 14 50  1  0
 14 51  1  0
 18 52  1  6
 19 53  1  0
 19 54  1  0
 20 55  1  6
 21 56  1  0
 21 57  1  0
 23 58  1  0
 24 59  1  0
 25 60  1  0
 26 61  1  0
 28 62  1  1
 30 63  1  0
 31 64  1  0
 32 65  1  0
 34 66  1  0
 35 67  1  0
 35 68  1  0
 36 69  1  0
 36 70  1  0
M  END
>  <smiles>  (25) 
CCC(=O)N(c1ccccc1)C1CCN(C(=O)[C@H](N)C2Cc3ccccc3C2c2cccnc2)CC1

>  <score_type>  (25) 
oracle

>  <origin>  (25) 
autodockgpu

>  <m_score__min__energy>  (25) 
-9.3599999999999994

>  <m_primary>  (25) 
energy

>  <rmsd>  (25) 
4.976872193128339

>  <m_score__min__rmsd>  (25) 
4.976872193128339

>  <meeko>  (25) 
{"free_energy": -7.21, "intermolecular_energy": -9.6, "internal_energy": -3.96, "cluster_size": 12, "cluster_id": 4, "rank_in_cluster": 5}

>  <energy>  (25) 
-9.25

>  <cluster_rmsd>  (25) 
0.82

>  <cluster>  (25) 
1

$$$$

     RDKit          3D

 70 74  0  0  0  0  0  0  0  0999 V2000
  138.2320   68.0050  222.3310 C   0  0  0  0  0  0  0  0  0  0  0  0
  138.8100   68.1750  223.7160 C   0  0  0  0  0  0  0  0  0  0  0  0
  138.2790   69.4320  224.3070 C   0  0  0  0  0  0  0  0  0  0  0  0
  137.0340   69.4730  224.5060 O   0  0  0  0  0  0  0  0  0  0  0  0
  139.1410   70.5290  224.6300 N   0  0  0  0  0  0  0  0  0  0  0  0
  139.7820   70.5120  225.8990 C   0  0  0  0  0  0  0  0  0  0  0  0
  140.4640   71.6780  226.2550 C   0  0  0  0  0  0  0  0  0  0  0  0
  141.1110   71.7270  227.4730 C   0  0  0  0  0  0  0  0  0  0  0  0
  141.1010   70.6610  228.3430 C   0  0  0  0  0  0  0  0  0  0  0  0
  140.4210   69.5010  227.9870 C   0  0  0  0  0  0  0  0  0  0  0  0
  139.7640   69.4440  226.7560 C   0  0  0  0  0  0  0  0  0  0  0  0
  139.2960   71.5590  223.6500 C   0  0  0  0  0  0  0  0  0  0  0  0
  140.6820   71.4490  223.0470 C   0  0  0  0  0  0  0  0  0  0  0  0
  140.7110   72.1680  221.7110 C   0  0  0  0  0  0  0  0  0  0  0  0
  139.7250   73.2610  221.7080 N   0  0  0  0  0  0  0  0  0  0  0  0
  140.2200   74.5650  221.6180 C   0  0  0  0  0  0  0  0  0  0  0  0
  141.4950   74.6910  221.5560 O   0  0  0  0  0  0  0  0  0  0  0  0
  139.4540   75.8310  221.5860 C   0  0  2  0  0  0  0  0  0  0  0  0
  138.8650   76.1410  220.3280 N   0  0  0  0  0  0  0  0  0  0  0  0
  140.1290   76.9280  222.3150 C   0  0  2  0  0  0  0  0  0  0  0  0
  139.2360   78.1330  222.5340 C   0  0  0  0  0  0  0  0  0  0  0  0
  140.2480   79.1900  222.9210 C   0  0  0  0  0  0  0  0  0  0  0  0
  140.0160   80.3860  223.5670 C   0  0  0  0  0  0  0  0  0  0  0  0
  141.0600   81.2290  223.8480 C   0  0  0  0  0  0  0  0  0  0  0  0
  142.3190   80.8360  223.4680 C   0  0  0  0  0  0  0  0  0  0  0  0
  142.5710   79.6320  222.8170 C   0  0  0  0  0  0  0  0  0  0  0  0
  141.5140   78.7890  222.5360 C   0  0  0  0  0  0  0  0  0  0  0  0
  141.4270   77.4360  221.8510 C   0  0  2  0  0  0  0  0  0  0  0  0
  141.6850   77.5630  220.4230 C   0  0  0  0  0  0  0  0  0  0  0  0
  141.0660   78.4380  219.5630 C   0  0  0  0  0  0  0  0  0  0  0  0
  141.3720   78.4920  218.2080 C   0  0  0  0  0  0  0  0  0  0  0  0
  142.3350   77.6270  217.7160 C   0  0  0  0  0  0  0  0  0  0  0  0
  142.9490   76.7630  218.5470 N   0  0  0  0  0  0  0  0  0  0  0  0
  142.6480   76.7170  219.8620 C   0  0  0  0  0  0  0  0  0  0  0  0
  138.3450   72.8630  221.8110 C   0  0  0  0  0  0  0  0  0  0  0  0
  138.2990   71.4930  222.5130 C   0  0  0  0  0  0  0  0  0  0  0  0
  137.1793   67.6954  222.4085 H   0  0  0  0  0  0  0  0  0  0  0  0
  138.2944   68.9595  221.7879 H   0  0  0  0  0  0  0  0  0  0  0  0
  138.8013   67.2363  221.7879 H   0  0  0  0  0  0  0  0  0  0  0  0
  138.5206   67.3200  224.3447 H   0  0  0  0  0  0  0  0  0  0  0  0
  139.9074   68.2237  223.6591 H   0  0  0  0  0  0  0  0  0  0  0  0
  140.4850   72.5429  225.5757 H   0  0  0  0  0  0  0  0  0  0  0  0
  141.6495   72.6434  227.7561 H   0  0  0  0  0  0  0  0  0  0  0  0
  141.6244   70.7254  229.3083 H   0  0  0  0  0  0  0  0  0  0  0  0
  140.4010   68.6374  228.6681 H   0  0  0  0  0  0  0  0  0  0  0  0
  139.2247   68.5287  226.4708 H   0  0  0  0  0  0  0  0  0  0  0  0
  139.1283   72.5097  224.1772 H   0  0  0  0  0  0  0  0  0  0  0  0
  141.4150   71.9083  223.7265 H   0  0  0  0  0  0  0  0  0  0  0  0
  140.9340   70.3886  222.8982 H   0  0  0  0  0  0  0  0  0  0  0  0
  141.7157   72.5828  221.5419 H   0  0  0  0  0  0  0  0  0  0  0  0
  140.4632   71.4550  220.9109 H   0  0  0  0  0  0  0  0  0  0  0  0
  138.5469   75.6631  222.1851 H   0  0  0  0  0  0  0  0  0  0  0  0
  137.9980   75.6350  220.1280 H   0  0  0  0  0  0  0  0  0  0  0  0
  139.4850   76.1070  219.5020 H   0  0  0  0  0  0  0  0  0  0  0  0
  140.3537   76.3727  223.2376 H   0  0  0  0  0  0  0  0  0  0  0  0
  138.6990   78.4080  221.6142 H   0  0  0  0  0  0  0  0  0  0  0  0
  138.4436   77.9751  223.2805 H   0  0  0  0  0  0  0  0  0  0  0  0
  138.9920   80.6640  223.8572 H   0  0  0  0  0  0  0  0  0  0  0  0
  140.8943   82.1880  224.3607 H   0  0  0  0  0  0  0  0  0  0  0  0
  143.1663   81.5022  223.6877 H   0  0  0  0  0  0  0  0  0  0  0  0
  143.5966   79.3561  222.5306 H   0  0  0  0  0  0  0  0  0  0  0  0
  142.1941   76.6891  222.1033 H   0  0  0  0  0  0  0  0  0  0  0  0
  140.3006   79.1204  219.9612 H   0  0  0  0  0  0  0  0  0  0  0  0
  140.8617   79.2043  217.5430 H   0  0  0  0  0  0  0  0  0  0  0  0
  142.5981   77.6455  216.6481 H   0  0  0  0  0  0  0  0  0  0  0  0
  143.1722   75.9973  220.5080 H   0  0  0  0  0  0  0  0  0  0  0  0
  137.7852   73.6041  222.4005 H   0  0  0  0  0  0  0  0  0  0  0  0
  137.8894   72.7973  220.8119 H   0  0  0  0  0  0  0  0  0  0  0  0
  137.2891   71.3000  222.9039 H   0  0  0  0  0  0  0  0  0  0  0  0
  138.5454   70.6797  221.8146 H   0  0  0  0  0  0  0  0  0  0  0  0
  1  2  1  0
  2  3  1  0
  3  4  2  0
  3  5  1  0
  5  6  1  0
  6  7  2  0
  7  8  1  0
  8  9  2  0
  9 10  1  0
 10 11  2  0
  5 12  1  0
 12 13  1  0
 13 14  1  0
 14 15  1  0
 15 16  1  0
 16 17  2  0
 16 18  1  0
 18 19  1  0
 18 20  1  0
 20 21  1  0
 21 22  1  0
 22 23  2  0
 23 24  1  0
 24 25  2  0
 25 26  1  0
 26 27  2  0
 27 28  1  0
 28 29  1  0
 29 30  2  0
 30 31  1  0
 31 32  2  0
 32 33  1  0
 33 34  2  0
 15 35  1  0
 35 36  1  0
 11  6  1  0
 36 12  1  0
 28 20  1  0
 34 29  1  0
 27 22  1  0
  1 37  1  0
  1 38  1  0
  1 39  1  0
  2 40  1  0
  2 41  1  0
  7 42  1  0
  8 43  1  0
  9 44  1  0
 10 45  1  0
 11 46  1  0
 12 47  1  0
 13 48  1  0
 13 49  1  0
 14 50  1  0
 14 51  1  0
 18 52  1  1
 19 53  1  0
 19 54  1  0
 20 55  1  1
 21 56  1  0
 21 57  1  0
 23 58  1  0
 24 59  1  0
 25 60  1  0
 26 61  1  0
 28 62  1  1
 30 63  1  0
 31 64  1  0
 32 65  1  0
 34 66  1  0
 35 67  1  0
 35 68  1  0
 36 69  1  0
 36 70  1  0
M  END
>  <smiles>  (26) 
CCC(=O)N(c1ccccc1)C1CCN(C(=O)[C@H](N)C2Cc3ccccc3C2c2cccnc2)CC1

>  <score_type>  (26) 
oracle

>  <origin>  (26) 
autodockgpu

>  <m_score__min__energy>  (26) 
-9.3599999999999994

>  <m_primary>  (26) 
energy

>  <rmsd>  (26) 
5.3997143540024855

>  <m_score__min__rmsd>  (26) 
5.3997143540024855

>  <meeko>  (26) 
{"free_energy": -9.28, "intermolecular_energy": -11.67, "internal_energy": -2.3, "cluster_size": 36, "cluster_id": 1, "rank_in_cluster": 22}

>  <energy>  (26) 
-9.25

>  <cluster_rmsd>  (26) 
0.3

>  <cluster>  (26) 
1

$$$$

     RDKit          3D

 70 74  0  0  0  0  0  0  0  0999 V2000
  138.7250   68.1960  222.1410 C   0  0  0  0  0  0  0  0  0  0  0  0
  138.8120   68.1310  223.6470 C   0  0  0  0  0  0  0  0  0  0  0  0
  138.2530   69.3870  224.2150 C   0  0  0  0  0  0  0  0  0  0  0  0
  137.0010   69.4250  224.3610 O   0  0  0  0  0  0  0  0  0  0  0  0
  139.0990   70.4860  224.5740 N   0  0  0  0  0  0  0  0  0  0  0  0
  139.7280   70.4450  225.8480 C   0  0  0  0  0  0  0  0  0  0  0  0
  140.4430   71.5870  226.2140 C   0  0  0  0  0  0  0  0  0  0  0  0
  141.0810   71.6120  227.4370 C   0  0  0  0  0  0  0  0  0  0  0  0
  141.0310   70.5430  228.3030 C   0  0  0  0  0  0  0  0  0  0  0  0
  140.3180   69.4060  227.9380 C   0  0  0  0  0  0  0  0  0  0  0  0
  139.6700   69.3750  226.7000 C   0  0  0  0  0  0  0  0  0  0  0  0
  139.2500   71.5420  223.6210 C   0  0  0  0  0  0  0  0  0  0  0  0
  140.6290   71.4410  223.0010 C   0  0  0  0  0  0  0  0  0  0  0  0
  140.6490   72.1970  221.6850 C   0  0  0  0  0  0  0  0  0  0  0  0
  139.6700   73.2960  221.7240 N   0  0  0  0  0  0  0  0  0  0  0  0
  140.1720   74.5990  221.6660 C   0  0  0  0  0  0  0  0  0  0  0  0
  141.4460   74.7190  221.5930 O   0  0  0  0  0  0  0  0  0  0  0  0
  139.4140   75.8700  221.6770 C   0  0  2  0  0  0  0  0  0  0  0  0
  138.7730   76.1950  220.4490 N   0  0  0  0  0  0  0  0  0  0  0  0
  140.1270   76.9560  222.3860 C   0  0  2  0  0  0  0  0  0  0  0  0
  139.2730   78.1900  222.5950 C   0  0  0  0  0  0  0  0  0  0  0  0
  140.3190   79.2210  222.9590 C   0  0  0  0  0  0  0  0  0  0  0  0
  140.1280   80.4330  223.5890 C   0  0  0  0  0  0  0  0  0  0  0  0
  141.1990   81.2490  223.8500 C   0  0  0  0  0  0  0  0  0  0  0  0
  142.4430   80.8120  223.4660 C   0  0  0  0  0  0  0  0  0  0  0  0
  142.6520   79.5930  222.8290 C   0  0  0  0  0  0  0  0  0  0  0  0
  141.5690   78.7780  222.5690 C   0  0  0  0  0  0  0  0  0  0  0  0
  141.4350   77.4190  221.9040 C   0  0  2  0  0  0  0  0  0  0  0  0
  141.6850   77.5180  220.4720 C   0  0  0  0  0  0  0  0  0  0  0  0
  142.6000   76.7810  219.7580 C   0  0  0  0  0  0  0  0  0  0  0  0
  142.7770   76.9410  218.3890 C   0  0  0  0  0  0  0  0  0  0  0  0
  142.0010   77.8790  217.7290 C   0  0  0  0  0  0  0  0  0  0  0  0
  141.1010   78.6080  218.4170 N   0  0  0  0  0  0  0  0  0  0  0  0
  140.9330   78.4480  219.7460 C   0  0  0  0  0  0  0  0  0  0  0  0
  138.2880   72.9030  221.8300 C   0  0  0  0  0  0  0  0  0  0  0  0
  138.2410   71.5150  222.4940 C   0  0  0  0  0  0  0  0  0  0  0  0
  137.8753   68.8310  221.8499 H   0  0  0  0  0  0  0  0  0  0  0  0
  139.6558   68.6217  221.7380 H   0  0  0  0  0  0  0  0  0  0  0  0
  138.5806   67.1827  221.7380 H   0  0  0  0  0  0  0  0  0  0  0  0
  138.2337   67.2701  224.0137 H   0  0  0  0  0  0  0  0  0  0  0  0
  139.8615   68.0163  223.9558 H   0  0  0  0  0  0  0  0  0  0  0  0
  140.4968   72.4531  225.5380 H   0  0  0  0  0  0  0  0  0  0  0  0
  141.6449   72.5105  227.7280 H   0  0  0  0  0  0  0  0  0  0  0  0
  141.5490   70.5876  229.2724 H   0  0  0  0  0  0  0  0  0  0  0  0
  140.2647   68.5412  228.6158 H   0  0  0  0  0  0  0  0  0  0  0  0
  139.1053   68.4780  226.4060 H   0  0  0  0  0  0  0  0  0  0  0  0
  139.0934   72.4785  224.1763 H   0  0  0  0  0  0  0  0  0  0  0  0
  141.3715   71.8769  223.6855 H   0  0  0  0  0  0  0  0  0  0  0  0
  140.8730   70.3838  222.8201 H   0  0  0  0  0  0  0  0  0  0  0  0
  141.6546   72.6100  221.5168 H   0  0  0  0  0  0  0  0  0  0  0  0
  140.3885   71.5085  220.8676 H   0  0  0  0  0  0  0  0  0  0  0  0
  138.5319   75.7022  222.3124 H   0  0  0  0  0  0  0  0  0  0  0  0
  138.2610   75.4200  220.0190 H   0  0  0  0  0  0  0  0  0  0  0  0
  139.3480   76.6690  219.7340 H   0  0  0  0  0  0  0  0  0  0  0  0
  140.3419   76.4068  223.3145 H   0  0  0  0  0  0  0  0  0  0  0  0
  138.7369   78.4684  221.6757 H   0  0  0  0  0  0  0  0  0  0  0  0
  138.4826   78.0664  223.3499 H   0  0  0  0  0  0  0  0  0  0  0  0
  139.1151   80.7456  223.8826 H   0  0  0  0  0  0  0  0  0  0  0  0
  141.0662   82.2199  224.3496 H   0  0  0  0  0  0  0  0  0  0  0  0
  143.3123   81.4540  223.6711 H   0  0  0  0  0  0  0  0  0  0  0  0
  143.6661   79.2831  222.5367 H   0  0  0  0  0  0  0  0  0  0  0  0
  142.1814   76.6528  222.1607 H   0  0  0  0  0  0  0  0  0  0  0  0
  143.2136   76.0385  220.2891 H   0  0  0  0  0  0  0  0  0  0  0  0
  143.5161   76.3368  217.8425 H   0  0  0  0  0  0  0  0  0  0  0  0
  142.1192   78.0285  216.6456 H   0  0  0  0  0  0  0  0  0  0  0  0
  140.1874   79.0631  220.2711 H   0  0  0  0  0  0  0  0  0  0  0  0
  137.7386   73.6306  222.4454 H   0  0  0  0  0  0  0  0  0  0  0  0
  137.8220   72.8676  220.8342 H   0  0  0  0  0  0  0  0  0  0  0  0
  137.2341   71.3176  222.8904 H   0  0  0  0  0  0  0  0  0  0  0  0
  138.4750   70.7203  221.7703 H   0  0  0  0  0  0  0  0  0  0  0  0
  1  2  1  0
  2  3  1  0
  3  4  2  0
  3  5  1  0
  5  6  1  0
  6  7  2  0
  7  8  1  0
  8  9  2  0
  9 10  1  0
 10 11  2  0
  5 12  1  0
 12 13  1  0
 13 14  1  0
 14 15  1  0
 15 16  1  0
 16 17  2  0
 16 18  1  0
 18 19  1  0
 18 20  1  0
 20 21  1  0
 21 22  1  0
 22 23  2  0
 23 24  1  0
 24 25  2  0
 25 26  1  0
 26 27  2  0
 27 28  1  0
 28 29  1  0
 29 30  2  0
 30 31  1  0
 31 32  2  0
 32 33  1  0
 33 34  2  0
 15 35  1  0
 35 36  1  0
 11  6  1  0
 36 12  1  0
 28 20  1  0
 34 29  1  0
 27 22  1  0
  1 37  1  0
  1 38  1  0
  1 39  1  0
  2 40  1  0
  2 41  1  0
  7 42  1  0
  8 43  1  0
  9 44  1  0
 10 45  1  0
 11 46  1  0
 12 47  1  0
 13 48  1  0
 13 49  1  0
 14 50  1  0
 14 51  1  0
 18 52  1  1
 19 53  1  0
 19 54  1  0
 20 55  1  1
 21 56  1  0
 21 57  1  0
 23 58  1  0
 24 59  1  0
 25 60  1  0
 26 61  1  0
 28 62  1  1
 30 63  1  0
 31 64  1  0
 32 65  1  0
 34 66  1  0
 35 67  1  0
 35 68  1  0
 36 69  1  0
 36 70  1  0
M  END
>  <smiles>  (27) 
CCC(=O)N(c1ccccc1)C1CCN(C(=O)[C@H](N)C2Cc3ccccc3C2c2cccnc2)CC1

>  <score_type>  (27) 
oracle

>  <origin>  (27) 
autodockgpu

>  <m_score__min__energy>  (27) 
-9.3599999999999994

>  <m_primary>  (27) 
energy

>  <rmsd>  (27) 
5.3997663226729165

>  <m_score__min__rmsd>  (27) 
5.3997663226729165

>  <meeko>  (27) 
{"free_energy": -9.3, "intermolecular_energy": -11.69, "internal_energy": -2.32, "cluster_size": 36, "cluster_id": 1, "rank_in_cluster": 17}

>  <energy>  (27) 
-9.22

>  <cluster_rmsd>  (27) 
0.74

>  <cluster>  (27) 
1

$$$$

     RDKit          3D

 70 74  0  0  0  0  0  0  0  0999 V2000
  138.8120   84.2910  221.5880 C   0  0  0  0  0  0  0  0  0  0  0  0
  137.9680   83.0800  221.2710 C   0  0  0  0  0  0  0  0  0  0  0  0
  137.0570   82.8160  222.4160 C   0  0  0  0  0  0  0  0  0  0  0  0
  136.1930   83.7020  222.6580 O   0  0  0  0  0  0  0  0  0  0  0  0
  137.1620   81.6190  223.1950 N   0  0  0  0  0  0  0  0  0  0  0  0
  136.5730   81.6210  224.4890 C   0  0  0  0  0  0  0  0  0  0  0  0
  137.3880   82.0720  225.5300 C   0  0  0  0  0  0  0  0  0  0  0  0
  136.8800   82.0980  226.8130 C   0  0  0  0  0  0  0  0  0  0  0  0
  135.5940   81.6920  227.0920 C   0  0  0  0  0  0  0  0  0  0  0  0
  134.7840   81.2440  226.0540 C   0  0  0  0  0  0  0  0  0  0  0  0
  135.2930   81.2150  224.7530 C   0  0  0  0  0  0  0  0  0  0  0  0
  137.8480   80.5080  222.6110 C   0  0  0  0  0  0  0  0  0  0  0  0
  138.1080   79.4770  223.6910 C   0  0  0  0  0  0  0  0  0  0  0  0
  138.3720   78.1280  223.0490 C   0  0  0  0  0  0  0  0  0  0  0  0
  138.9580   78.3150  221.7120 N   0  0  0  0  0  0  0  0  0  0  0  0
  140.2680   77.8670  221.5220 C   0  0  0  0  0  0  0  0  0  0  0  0
  140.8460   77.3400  222.5380 O   0  0  0  0  0  0  0  0  0  0  0  0
  141.0810   77.9240  220.2870 C   0  0  2  0  0  0  0  0  0  0  0  0
  142.3550   77.2950  220.3800 N   0  0  0  0  0  0  0  0  0  0  0  0
  141.0160   79.2430  219.6190 C   0  0  2  0  0  0  0  0  0  0  0  0
  142.2070   79.5140  218.7210 C   0  0  0  0  0  0  0  0  0  0  0  0
  142.0830   81.0060  218.5000 C   0  0  0  0  0  0  0  0  0  0  0  0
  142.6650   81.7640  217.5050 C   0  0  0  0  0  0  0  0  0  0  0  0
  142.4380   83.1160  217.4490 C   0  0  0  0  0  0  0  0  0  0  0  0
  141.6220   83.6670  218.4060 C   0  0  0  0  0  0  0  0  0  0  0  0
  141.0280   82.9160  219.4170 C   0  0  0  0  0  0  0  0  0  0  0  0
  141.2620   81.5560  219.4660 C   0  0  0  0  0  0  0  0  0  0  0  0
  140.7920   80.4620  220.4090 C   0  0  2  0  0  0  0  0  0  0  0  0
  141.4180   80.6020  221.7160 C   0  0  0  0  0  0  0  0  0  0  0  0
  140.9170   81.3120  222.7810 C   0  0  0  0  0  0  0  0  0  0  0  0
  141.5820   81.3970  223.9990 C   0  0  0  0  0  0  0  0  0  0  0  0
  142.7940   80.7390  224.1340 C   0  0  0  0  0  0  0  0  0  0  0  0
  143.2960   80.0400  223.0980 N   0  0  0  0  0  0  0  0  0  0  0  0
  142.6450   79.9610  221.9190 C   0  0  0  0  0  0  0  0  0  0  0  0
  138.1110   78.9560  220.7380 C   0  0  0  0  0  0  0  0  0  0  0  0
  137.0880   79.8200  221.4980 C   0  0  0  0  0  0  0  0  0  0  0  0
  138.8925   84.4065  222.6790 H   0  0  0  0  0  0  0  0  0  0  0  0
  139.8161   84.1609  221.1580 H   0  0  0  0  0  0  0  0  0  0  0  0
  138.3424   85.1880  221.1580 H   0  0  0  0  0  0  0  0  0  0  0  0
  137.3757   83.2698  220.3637 H   0  0  0  0  0  0  0  0  0  0  0  0
  138.6161   82.2076  221.1010 H   0  0  0  0  0  0  0  0  0  0  0  0
  138.4184   82.4012  225.3303 H   0  0  0  0  0  0  0  0  0  0  0  0
  137.5195   82.4525  227.6348 H   0  0  0  0  0  0  0  0  0  0  0  0
  135.2121   81.7217  228.1232 H   0  0  0  0  0  0  0  0  0  0  0  0
  133.7535   80.9160  226.2551 H   0  0  0  0  0  0  0  0  0  0  0  0
  134.6558   80.8608  223.9293 H   0  0  0  0  0  0  0  0  0  0  0  0
  138.7706   80.9159  222.1722 H   0  0  0  0  0  0  0  0  0  0  0  0
  138.9844   79.7792  224.2831 H   0  0  0  0  0  0  0  0  0  0  0  0
  137.2289   79.4046  224.3482 H   0  0  0  0  0  0  0  0  0  0  0  0
  139.0711   77.5560  223.6768 H   0  0  0  0  0  0  0  0  0  0  0  0
  137.4228   77.5801  222.9547 H   0  0  0  0  0  0  0  0  0  0  0  0
  140.5927   77.2582  219.5602 H   0  0  0  0  0  0  0  0  0  0  0  0
  142.4980   76.7500  221.2340 H   0  0  0  0  0  0  0  0  0  0  0  0
  143.1810   77.8880  220.2040 H   0  0  0  0  0  0  0  0  0  0  0  0
  140.0771   79.0809  219.0692 H   0  0  0  0  0  0  0  0  0  0  0  0
  143.1533   79.2588  219.2203 H   0  0  0  0  0  0  0  0  0  0  0  0
  142.2144   78.9218  217.7940 H   0  0  0  0  0  0  0  0  0  0  0  0
  143.3117   81.2840  216.7558 H   0  0  0  0  0  0  0  0  0  0  0  0
  142.8942   83.7373  216.6642 H   0  0  0  0  0  0  0  0  0  0  0  0
  141.4290   84.7494  218.3725 H   0  0  0  0  0  0  0  0  0  0  0  0
  140.3822   83.3988  220.1652 H   0  0  0  0  0  0  0  0  0  0  0  0
  139.7363   80.4773  220.7175 H   0  0  0  0  0  0  0  0  0  0  0  0
  139.9546   81.8320  222.6654 H   0  0  0  0  0  0  0  0  0  0  0  0
  141.1567   81.9722  224.8346 H   0  0  0  0  0  0  0  0  0  0  0  0
  143.3448   80.7874  225.0850 H   0  0  0  0  0  0  0  0  0  0  0  0
  143.0893   79.3790  221.0981 H   0  0  0  0  0  0  0  0  0  0  0  0
  138.7174   79.5907  220.0750 H   0  0  0  0  0  0  0  0  0  0  0  0
  137.5959   78.2035  220.1229 H   0  0  0  0  0  0  0  0  0  0  0  0
  136.6450   80.5666  220.8225 H   0  0  0  0  0  0  0  0  0  0  0  0
  136.2677   79.2056  221.8976 H   0  0  0  0  0  0  0  0  0  0  0  0
  1  2  1  0
  2  3  1  0
  3  4  2  0
  3  5  1  0
  5  6  1  0
  6  7  2  0
  7  8  1  0
  8  9  2  0
  9 10  1  0
 10 11  2  0
  5 12  1  0
 12 13  1  0
 13 14  1  0
 14 15  1  0
 15 16  1  0
 16 17  2  0
 16 18  1  0
 18 19  1  0
 18 20  1  0
 20 21  1  0
 21 22  1  0
 22 23  2  0
 23 24  1  0
 24 25  2  0
 25 26  1  0
 26 27  2  0
 27 28  1  0
 28 29  1  0
 29 30  2  0
 30 31  1  0
 31 32  2  0
 32 33  1  0
 33 34  2  0
 15 35  1  0
 35 36  1  0
 11  6  1  0
 36 12  1  0
 28 20  1  0
 34 29  1  0
 27 22  1  0
  1 37  1  0
  1 38  1  0
  1 39  1  0
  2 40  1  0
  2 41  1  0
  7 42  1  0
  8 43  1  0
  9 44  1  0
 10 45  1  0
 11 46  1  0
 12 47  1  0
 13 48  1  0
 13 49  1  0
 14 50  1  0
 14 51  1  0
 18 52  1  6
 19 53  1  0
 19 54  1  0
 20 55  1  6
 21 56  1  0
 21 57  1  0
 23 58  1  0
 24 59  1  0
 25 60  1  0
 26 61  1  0
 28 62  1  1
 30 63  1  0
 31 64  1  0
 32 65  1  0
 34 66  1  0
 35 67  1  0
 35 68  1  0
 36 69  1  0
 36 70  1  0
M  END
>  <smiles>  (28) 
CCC(=O)N(c1ccccc1)C1CCN(C(=O)[C@H](N)C2Cc3ccccc3C2c2cccnc2)CC1

>  <score_type>  (28) 
oracle

>  <origin>  (28) 
autodockgpu

>  <m_score__min__energy>  (28) 
-9.3599999999999994

>  <m_primary>  (28) 
energy

>  <rmsd>  (28) 
4.96648246558668

>  <m_score__min__rmsd>  (28) 
4.96648246558668

>  <meeko>  (28) 
{"free_energy": -7.0, "intermolecular_energy": -9.39, "internal_energy": -4.13, "cluster_size": 12, "cluster_id": 4, "rank_in_cluster": 10}

>  <energy>  (28) 
-9.22

>  <cluster_rmsd>  (28) 
0.78

>  <cluster>  (28) 
1

$$$$

     RDKit          3D

 70 74  0  0  0  0  0  0  0  0999 V2000
  138.8320   83.9070  221.6330 C   0  0  0  0  0  0  0  0  0  0  0  0
  137.7970   82.9320  221.1240 C   0  0  0  0  0  0  0  0  0  0  0  0
  136.8780   82.5800  222.2400 C   0  0  0  0  0  0  0  0  0  0  0  0
  135.8820   83.3360  222.4010 O   0  0  0  0  0  0  0  0  0  0  0  0
  137.1200   81.4450  223.0780 N   0  0  0  0  0  0  0  0  0  0  0  0
  136.5820   81.4710  224.3940 C   0  0  0  0  0  0  0  0  0  0  0  0
  137.3960   82.0390  225.3770 C   0  0  0  0  0  0  0  0  0  0  0  0
  136.9360   82.0940  226.6760 C   0  0  0  0  0  0  0  0  0  0  0  0
  135.6980   81.6060  227.0280 C   0  0  0  0  0  0  0  0  0  0  0  0
  134.8880   81.0410  226.0490 C   0  0  0  0  0  0  0  0  0  0  0  0
  135.3480   80.9820  224.7310 C   0  0  0  0  0  0  0  0  0  0  0  0
  137.8820   80.3670  222.5290 C   0  0  0  0  0  0  0  0  0  0  0  0
  138.2950   79.4410  223.6550 C   0  0  0  0  0  0  0  0  0  0  0  0
  138.6580   78.0820  223.0860 C   0  0  0  0  0  0  0  0  0  0  0  0
  139.1570   78.2320  221.7090 N   0  0  0  0  0  0  0  0  0  0  0  0
  140.4940   77.8980  221.4750 C   0  0  0  0  0  0  0  0  0  0  0  0
  141.1700   77.4990  222.4890 O   0  0  0  0  0  0  0  0  0  0  0  0
  141.2350   77.9480  220.1950 C   0  0  2  0  0  0  0  0  0  0  0  0
  142.5000   77.2960  220.2120 N   0  0  0  0  0  0  0  0  0  0  0  0
  141.1550   79.2720  219.5380 C   0  0  2  0  0  0  0  0  0  0  0  0
  142.3330   79.5550  218.6280 C   0  0  0  0  0  0  0  0  0  0  0  0
  142.1990   81.0480  218.4190 C   0  0  0  0  0  0  0  0  0  0  0  0
  142.7650   81.8170  217.4240 C   0  0  0  0  0  0  0  0  0  0  0  0
  142.5300   83.1670  217.3800 C   0  0  0  0  0  0  0  0  0  0  0  0
  141.7230   83.7070  218.3510 C   0  0  0  0  0  0  0  0  0  0  0  0
  141.1450   82.9460  219.3630 C   0  0  0  0  0  0  0  0  0  0  0  0
  141.3860   81.5870  219.3990 C   0  0  0  0  0  0  0  0  0  0  0  0
  140.9340   80.4830  220.3400 C   0  0  2  0  0  0  0  0  0  0  0  0
  141.5740   80.6170  221.6410 C   0  0  0  0  0  0  0  0  0  0  0  0
  142.7810   80.0720  222.0080 C   0  0  0  0  0  0  0  0  0  0  0  0
  143.3220   80.2480  223.2770 C   0  0  0  0  0  0  0  0  0  0  0  0
  142.6100   80.9990  224.1980 C   0  0  0  0  0  0  0  0  0  0  0  0
  141.4250   81.5380  223.8510 N   0  0  0  0  0  0  0  0  0  0  0  0
  140.9070   81.3650  222.6180 C   0  0  0  0  0  0  0  0  0  0  0  0
  138.2040   78.7230  220.7460 C   0  0  0  0  0  0  0  0  0  0  0  0
  137.1400   79.5360  221.5050 C   0  0  0  0  0  0  0  0  0  0  0  0
  138.8289   83.9040  222.7330 H   0  0  0  0  0  0  0  0  0  0  0  0
  139.8263   83.6098  221.2684 H   0  0  0  0  0  0  0  0  0  0  0  0
  138.5946   84.9173  221.2684 H   0  0  0  0  0  0  0  0  0  0  0  0
  137.2248   83.3941  220.3060 H   0  0  0  0  0  0  0  0  0  0  0  0
  138.2922   82.0246  220.7481 H   0  0  0  0  0  0  0  0  0  0  0  0
  138.3887   82.4363  225.1189 H   0  0  0  0  0  0  0  0  0  0  0  0
  137.5758   82.5399  227.4518 H   0  0  0  0  0  0  0  0  0  0  0  0
  135.3535   81.6623  228.0712 H   0  0  0  0  0  0  0  0  0  0  0  0
  133.8955   80.6447  226.3095 H   0  0  0  0  0  0  0  0  0  0  0  0
  134.7102   80.5366  223.9533 H   0  0  0  0  0  0  0  0  0  0  0  0
  138.7376   80.8301  222.0157 H   0  0  0  0  0  0  0  0  0  0  0  0
  139.1659   79.8643  224.1769 H   0  0  0  0  0  0  0  0  0  0  0  0
  137.4606   79.3306  224.3632 H   0  0  0  0  0  0  0  0  0  0  0  0
  139.4395   77.6227  223.7091 H   0  0  0  0  0  0  0  0  0  0  0  0
  137.7636   77.4417  223.0792 H   0  0  0  0  0  0  0  0  0  0  0  0
  140.6939   77.2959  219.4936 H   0  0  0  0  0  0  0  0  0  0  0  0
  142.7320   76.8410  221.0990 H   0  0  0  0  0  0  0  0  0  0  0  0
  143.3110   77.8430  219.8820 H   0  0  0  0  0  0  0  0  0  0  0  0
  140.2103   79.1103  218.9982 H   0  0  0  0  0  0  0  0  0  0  0  0
  143.2866   79.3010  219.1140 H   0  0  0  0  0  0  0  0  0  0  0  0
  142.3320   78.9693  217.6969 H   0  0  0  0  0  0  0  0  0  0  0  0
  143.4062   81.3464  216.6642 H   0  0  0  0  0  0  0  0  0  0  0  0
  142.9728   83.7961  216.5937 H   0  0  0  0  0  0  0  0  0  0  0  0
  141.5246   84.7887  218.3280 H   0  0  0  0  0  0  0  0  0  0  0  0
  140.5060   83.4201  220.1225 H   0  0  0  0  0  0  0  0  0  0  0  0
  139.8822   80.4897  220.6620 H   0  0  0  0  0  0  0  0  0  0  0  0
  143.3392   79.4752  221.2716 H   0  0  0  0  0  0  0  0  0  0  0  0
  144.2916   79.8018  223.5430 H   0  0  0  0  0  0  0  0  0  0  0  0
  143.0112   81.1549  225.2103 H   0  0  0  0  0  0  0  0  0  0  0  0
  139.9369   81.8228  222.3742 H   0  0  0  0  0  0  0  0  0  0  0  0
  138.7119   79.3657  220.0118 H   0  0  0  0  0  0  0  0  0  0  0  0
  137.7351   77.8849  220.2096 H   0  0  0  0  0  0  0  0  0  0  0  0
  136.5937   80.1897  220.8091 H   0  0  0  0  0  0  0  0  0  0  0  0
  136.4044   78.8753  221.9871 H   0  0  0  0  0  0  0  0  0  0  0  0
  1  2  1  0
  2  3  1  0
  3  4  2  0
  3  5  1  0
  5  6  1  0
  6  7  2  0
  7  8  1  0
  8  9  2  0
  9 10  1  0
 10 11  2  0
  5 12  1  0
 12 13  1  0
 13 14  1  0
 14 15  1  0
 15 16  1  0
 16 17  2  0
 16 18  1  0
 18 19  1  0
 18 20  1  0
 20 21  1  0
 21 22  1  0
 22 23  2  0
 23 24  1  0
 24 25  2  0
 25 26  1  0
 26 27  2  0
 27 28  1  0
 28 29  1  0
 29 30  2  0
 30 31  1  0
 31 32  2  0
 32 33  1  0
 33 34  2  0
 15 35  1  0
 35 36  1  0
 11  6  1  0
 36 12  1  0
 28 20  1  0
 34 29  1  0
 27 22  1  0
  1 37  1  0
  1 38  1  0
  1 39  1  0
  2 40  1  0
  2 41  1  0
  7 42  1  0
  8 43  1  0
  9 44  1  0
 10 45  1  0
 11 46  1  0
 12 47  1  0
 13 48  1  0
 13 49  1  0
 14 50  1  0
 14 51  1  0
 18 52  1  6
 19 53  1  0
 19 54  1  0
 20 55  1  6
 21 56  1  0
 21 57  1  0
 23 58  1  0
 24 59  1  0
 25 60  1  0
 26 61  1  0
 28 62  1  1
 30 63  1  0
 31 64  1  0
 32 65  1  0
 34 66  1  0
 35 67  1  0
 35 68  1  0
 36 69  1  0
 36 70  1  0
M  END
>  <smiles>  (29) 
CCC(=O)N(c1ccccc1)C1CCN(C(=O)[C@H](N)C2Cc3ccccc3C2c2cccnc2)CC1

>  <score_type>  (29) 
oracle

>  <origin>  (29) 
autodockgpu

>  <m_score__min__energy>  (29) 
-9.3599999999999994

>  <m_primary>  (29) 
energy

>  <rmsd>  (29) 
4.901485326393276

>  <m_score__min__rmsd>  (29) 
4.901485326393276

>  <meeko>  (29) 
{"free_energy": -7.09, "intermolecular_energy": -9.48, "internal_energy": -4.24, "cluster_size": 12, "cluster_id": 4, "rank_in_cluster": 8}

>  <energy>  (29) 
-9.21

>  <cluster_rmsd>  (29) 
0.73

>  <cluster>  (29) 
1

$$$$

     RDKit          3D

 70 74  0  0  0  0  0  0  0  0999 V2000
  137.8160   67.9280  222.3470 C   0  0  0  0  0  0  0  0  0  0  0  0
  138.7980   68.2300  223.4540 C   0  0  0  0  0  0  0  0  0  0  0  0
  138.3030   69.3980  224.2290 C   0  0  0  0  0  0  0  0  0  0  0  0
  137.0870   69.3730  224.5630 O   0  0  0  0  0  0  0  0  0  0  0  0
  139.1670   70.4880  224.5730 N   0  0  0  0  0  0  0  0  0  0  0  0
  139.8120   70.4430  225.8390 C   0  0  0  0  0  0  0  0  0  0  0  0
  139.7860   69.2100  226.4950 C   0  0  0  0  0  0  0  0  0  0  0  0
  140.3910   69.0970  227.7300 C   0  0  0  0  0  0  0  0  0  0  0  0
  141.0170   70.1650  228.3310 C   0  0  0  0  0  0  0  0  0  0  0  0
  141.0420   71.3930  227.6770 C   0  0  0  0  0  0  0  0  0  0  0  0
  140.4310   71.5140  226.4260 C   0  0  0  0  0  0  0  0  0  0  0  0
  139.3200   71.5380  223.6140 C   0  0  0  0  0  0  0  0  0  0  0  0
  140.7100   71.4500  223.0170 C   0  0  0  0  0  0  0  0  0  0  0  0
  140.7420   72.1950  221.6960 C   0  0  0  0  0  0  0  0  0  0  0  0
  139.7480   73.2820  221.7100 N   0  0  0  0  0  0  0  0  0  0  0  0
  140.2350   74.5910  221.6490 C   0  0  0  0  0  0  0  0  0  0  0  0
  141.5090   74.7260  221.5960 O   0  0  0  0  0  0  0  0  0  0  0  0
  139.4600   75.8520  221.6380 C   0  0  2  0  0  0  0  0  0  0  0  0
  138.8470   76.1660  220.3930 N   0  0  0  0  0  0  0  0  0  0  0  0
  140.1410   76.9480  222.3620 C   0  0  2  0  0  0  0  0  0  0  0  0
  139.2610   78.1660  222.5600 C   0  0  0  0  0  0  0  0  0  0  0  0
  140.2820   79.2150  222.9450 C   0  0  0  0  0  0  0  0  0  0  0  0
  140.0580   80.4220  223.5750 C   0  0  0  0  0  0  0  0  0  0  0  0
  141.1100   81.2550  223.8580 C   0  0  0  0  0  0  0  0  0  0  0  0
  142.3670   80.8420  223.4950 C   0  0  0  0  0  0  0  0  0  0  0  0
  142.6110   79.6290  222.8580 C   0  0  0  0  0  0  0  0  0  0  0  0
  141.5460   78.7950  222.5770 C   0  0  0  0  0  0  0  0  0  0  0  0
  141.4490   77.4360  221.9050 C   0  0  2  0  0  0  0  0  0  0  0  0
  141.7230   77.5440  220.4790 C   0  0  0  0  0  0  0  0  0  0  0  0
  142.5840   76.7510  219.7580 C   0  0  0  0  0  0  0  0  0  0  0  0
  142.7900   76.9240  218.3940 C   0  0  0  0  0  0  0  0  0  0  0  0
  142.0980   77.9350  217.7470 C   0  0  0  0  0  0  0  0  0  0  0  0
  141.2520   78.7190  218.4410 N   0  0  0  0  0  0  0  0  0  0  0  0
  141.0560   78.5460  219.7650 C   0  0  0  0  0  0  0  0  0  0  0  0
  138.3700   72.8720  221.7970 C   0  0  0  0  0  0  0  0  0  0  0  0
  138.3300   71.4890  222.4710 C   0  0  0  0  0  0  0  0  0  0  0  0
  136.8510   67.6312  222.7837 H   0  0  0  0  0  0  0  0  0  0  0  0
  137.6769   68.8249  221.7255 H   0  0  0  0  0  0  0  0  0  0  0  0
  138.2049   67.1079  221.7255 H   0  0  0  0  0  0  0  0  0  0  0  0
  138.8870   67.3571  224.1174 H   0  0  0  0  0  0  0  0  0  0  0  0
  139.7853   68.4574  223.0256 H   0  0  0  0  0  0  0  0  0  0  0  0
  139.2909   68.3425  226.0342 H   0  0  0  0  0  0  0  0  0  0  0  0
  140.3724   68.1269  228.2482 H   0  0  0  0  0  0  0  0  0  0  0  0
  141.4919   70.0494  229.3165 H   0  0  0  0  0  0  0  0  0  0  0  0
  141.5374   72.2593  228.1398 H   0  0  0  0  0  0  0  0  0  0  0  0
  140.4476   72.4830  225.9057 H   0  0  0  0  0  0  0  0  0  0  0  0
  139.1425   72.4767  224.1592 H   0  0  0  0  0  0  0  0  0  0  0  0
  141.4357   71.9010  223.7098 H   0  0  0  0  0  0  0  0  0  0  0  0
  140.9702   70.3946  222.8487 H   0  0  0  0  0  0  0  0  0  0  0  0
  141.7448   72.6196  221.5408 H   0  0  0  0  0  0  0  0  0  0  0  0
  140.5039   71.4966  220.8802 H   0  0  0  0  0  0  0  0  0  0  0  0
  138.5640   75.6746  222.2509 H   0  0  0  0  0  0  0  0  0  0  0  0
  137.8370   76.0030  220.3630 H   0  0  0  0  0  0  0  0  0  0  0  0
  139.2870   75.7730  219.5450 H   0  0  0  0  0  0  0  0  0  0  0  0
  140.3500   76.3993  223.2922 H   0  0  0  0  0  0  0  0  0  0  0  0
  138.7357   78.4376  221.6324 H   0  0  0  0  0  0  0  0  0  0  0  0
  138.4602   78.0257  223.3009 H   0  0  0  0  0  0  0  0  0  0  0  0
  139.0346   80.7164  223.8505 H   0  0  0  0  0  0  0  0  0  0  0  0
  140.9514   82.2214  224.3590 H   0  0  0  0  0  0  0  0  0  0  0  0
  143.2205   81.4993  223.7175 H   0  0  0  0  0  0  0  0  0  0  0  0
  143.6357   79.3388  222.5826 H   0  0  0  0  0  0  0  0  0  0  0  0
  142.2046   76.6826  222.1723 H   0  0  0  0  0  0  0  0  0  0  0  0
  143.1297   75.9506  220.2792 H   0  0  0  0  0  0  0  0  0  0  0  0
  143.4852   76.2743  217.8421 H   0  0  0  0  0  0  0  0  0  0  0  0
  142.2397   78.0967  216.6682 H   0  0  0  0  0  0  0  0  0  0  0  0
  140.3556   79.2080  220.2954 H   0  0  0  0  0  0  0  0  0  0  0  0
  137.8014   73.5972  222.3977 H   0  0  0  0  0  0  0  0  0  0  0  0
  137.9206   72.8228  220.7942 H   0  0  0  0  0  0  0  0  0  0  0  0
  137.3194   71.2815  222.8525 H   0  0  0  0  0  0  0  0  0  0  0  0
  138.5860   70.6918  221.7576 H   0  0  0  0  0  0  0  0  0  0  0  0
  1  2  1  0
  2  3  1  0
  3  4  2  0
  3  5  1  0
  5  6  1  0
  6  7  2  0
  7  8  1  0
  8  9  2  0
  9 10  1  0
 10 11  2  0
  5 12  1  0
 12 13  1  0
 13 14  1  0
 14 15  1  0
 15 16  1  0
 16 17  2  0
 16 18  1  0
 18 19  1  0
 18 20  1  0
 20 21  1  0
 21 22  1  0
 22 23  2  0
 23 24  1  0
 24 25  2  0
 25 26  1  0
 26 27  2  0
 27 28  1  0
 28 29  1  0
 29 30  2  0
 30 31  1  0
 31 32  2  0
 32 33  1  0
 33 34  2  0
 15 35  1  0
 35 36  1  0
 11  6  1  0
 36 12  1  0
 28 20  1  0
 34 29  1  0
 27 22  1  0
  1 37  1  0
  1 38  1  0
  1 39  1  0
  2 40  1  0
  2 41  1  0
  7 42  1  0
  8 43  1  0
  9 44  1  0
 10 45  1  0
 11 46  1  0
 12 47  1  0
 13 48  1  0
 13 49  1  0
 14 50  1  0
 14 51  1  0
 18 52  1  1
 19 53  1  0
 19 54  1  0
 20 55  1  1
 21 56  1  0
 21 57  1  0
 23 58  1  0
 24 59  1  0
 25 60  1  0
 26 61  1  0
 28 62  1  1
 30 63  1  0
 31 64  1  0
 32 65  1  0
 34 66  1  0
 35 67  1  0
 35 68  1  0
 36 69  1  0
 36 70  1  0
M  END
>  <smiles>  (30) 
CCC(=O)N(c1ccccc1)C1CCN(C(=O)[C@H](N)C2Cc3ccccc3C2c2cccnc2)CC1

>  <score_type>  (30) 
oracle

>  <origin>  (30) 
autodockgpu

>  <m_score__min__energy>  (30) 
-9.3599999999999994

>  <m_primary>  (30) 
energy

>  <rmsd>  (30) 
5.384978749832444

>  <m_score__min__rmsd>  (30) 
5.384978749832444

>  <meeko>  (30) 
{"free_energy": -9.34, "intermolecular_energy": -11.72, "internal_energy": -2.27, "cluster_size": 36, "cluster_id": 1, "rank_in_cluster": 7}

>  <energy>  (30) 
-9.18

>  <cluster_rmsd>  (30) 
0.7

>  <cluster>  (30) 
1

$$$$

     RDKit          3D

 70 74  0  0  0  0  0  0  0  0999 V2000
  136.0740   68.9470  223.3390 C   0  0  0  0  0  0  0  0  0  0  0  0
  136.8040   69.4550  224.5590 C   0  0  0  0  0  0  0  0  0  0  0  0
  138.2680   69.3890  224.3050 C   0  0  0  0  0  0  0  0  0  0  0  0
  138.6980   68.3200  223.7920 O   0  0  0  0  0  0  0  0  0  0  0  0
  139.1340   70.4830  224.6300 N   0  0  0  0  0  0  0  0  0  0  0  0
  139.7780   70.4600  225.8970 C   0  0  0  0  0  0  0  0  0  0  0  0
  140.4280   71.6370  226.2740 C   0  0  0  0  0  0  0  0  0  0  0  0
  141.0770   71.6810  227.4920 C   0  0  0  0  0  0  0  0  0  0  0  0
  141.0980   70.5980  228.3410 C   0  0  0  0  0  0  0  0  0  0  0  0
  140.4500   69.4260  227.9640 C   0  0  0  0  0  0  0  0  0  0  0  0
  139.7920   69.3750  226.7330 C   0  0  0  0  0  0  0  0  0  0  0  0
  139.2880   71.5160  223.6530 C   0  0  0  0  0  0  0  0  0  0  0  0
  140.6770   71.4130  223.0540 C   0  0  0  0  0  0  0  0  0  0  0  0
  140.7080   72.1360  221.7210 C   0  0  0  0  0  0  0  0  0  0  0  0
  139.7180   73.2260  221.7180 N   0  0  0  0  0  0  0  0  0  0  0  0
  140.2090   74.5320  221.6340 C   0  0  0  0  0  0  0  0  0  0  0  0
  141.4830   74.6620  221.5760 O   0  0  0  0  0  0  0  0  0  0  0  0
  139.4390   75.7950  221.6030 C   0  0  2  0  0  0  0  0  0  0  0  0
  138.8500   76.1060  220.3450 N   0  0  0  0  0  0  0  0  0  0  0  0
  140.1090   76.8930  222.3350 C   0  0  2  0  0  0  0  0  0  0  0  0
  139.2250   78.1090  222.5220 C   0  0  0  0  0  0  0  0  0  0  0  0
  140.2400   79.1600  222.9190 C   0  0  0  0  0  0  0  0  0  0  0  0
  140.0070   80.3660  223.5460 C   0  0  0  0  0  0  0  0  0  0  0  0
  141.0540   81.2010  223.8410 C   0  0  0  0  0  0  0  0  0  0  0  0
  142.3170   80.7900  223.4920 C   0  0  0  0  0  0  0  0  0  0  0  0
  142.5690   79.5770  222.8590 C   0  0  0  0  0  0  0  0  0  0  0  0
  141.5090   78.7420  222.5650 C   0  0  0  0  0  0  0  0  0  0  0  0
  141.4220   77.3830  221.8930 C   0  0  2  0  0  0  0  0  0  0  0  0
  141.7120   77.4900  220.4700 C   0  0  0  0  0  0  0  0  0  0  0  0
  142.6130   76.7250  219.7670 C   0  0  0  0  0  0  0  0  0  0  0  0
  142.8310   76.8960  218.4050 C   0  0  0  0  0  0  0  0  0  0  0  0
  142.1120   77.8760  217.7410 C   0  0  0  0  0  0  0  0  0  0  0  0
  141.2270   78.6330  218.4170 N   0  0  0  0  0  0  0  0  0  0  0  0
  141.0190   78.4620  219.7390 C   0  0  0  0  0  0  0  0  0  0  0  0
  138.3380   72.8230  221.8160 C   0  0  0  0  0  0  0  0  0  0  0  0
  138.2950   71.4510  222.5130 C   0  0  0  0  0  0  0  0  0  0  0  0
  135.2088   68.3449  223.6536 H   0  0  0  0  0  0  0  0  0  0  0  0
  135.7276   69.8002  222.7372 H   0  0  0  0  0  0  0  0  0  0  0  0
  136.7537   68.3258  222.7372 H   0  0  0  0  0  0  0  0  0  0  0  0
  136.5102   70.4961  224.7586 H   0  0  0  0  0  0  0  0  0  0  0  0
  136.5483   68.8361  225.4317 H   0  0  0  0  0  0  0  0  0  0  0  0
  140.4231   72.5150  225.6113 H   0  0  0  0  0  0  0  0  0  0  0  0
  141.5909   72.6063  227.7917 H   0  0  0  0  0  0  0  0  0  0  0  0
  141.6212   70.6584  229.3067 H   0  0  0  0  0  0  0  0  0  0  0  0
  140.4558   68.5491  228.6281 H   0  0  0  0  0  0  0  0  0  0  0  0
  139.2779   68.4507  226.4307 H   0  0  0  0  0  0  0  0  0  0  0  0
  139.1147   72.4644  224.1826 H   0  0  0  0  0  0  0  0  0  0  0  0
  141.4060   71.8728  223.7375 H   0  0  0  0  0  0  0  0  0  0  0  0
  140.9333   70.3540  222.9027 H   0  0  0  0  0  0  0  0  0  0  0  0
  141.7118   72.5547  221.5566 H   0  0  0  0  0  0  0  0  0  0  0  0
  140.4653   71.4246  220.9178 H   0  0  0  0  0  0  0  0  0  0  0  0
  138.5316   75.6218  222.2003 H   0  0  0  0  0  0  0  0  0  0  0  0
  138.4800   75.2970  219.8380 H   0  0  0  0  0  0  0  0  0  0  0  0
  139.4060   76.6930  219.7030 H   0  0  0  0  0  0  0  0  0  0  0  0
  140.3072   76.3455  223.2683 H   0  0  0  0  0  0  0  0  0  0  0  0
  138.7104   78.3795  221.5882 H   0  0  0  0  0  0  0  0  0  0  0  0
  138.4155   77.9676  223.2533 H   0  0  0  0  0  0  0  0  0  0  0  0
  138.9800   80.6585  223.8098 H   0  0  0  0  0  0  0  0  0  0  0  0
  140.8879   82.1670  224.3402 H   0  0  0  0  0  0  0  0  0  0  0  0
  143.1669   81.4489  223.7231 H   0  0  0  0  0  0  0  0  0  0  0  0
  143.5972   79.2873  222.5966 H   0  0  0  0  0  0  0  0  0  0  0  0
  142.1760   76.6315  222.1699 H   0  0  0  0  0  0  0  0  0  0  0  0
  143.1816   75.9499  220.3018 H   0  0  0  0  0  0  0  0  0  0  0  0
  143.5569   76.2682  217.8675 H   0  0  0  0  0  0  0  0  0  0  0  0
  142.2636   78.0357  216.6633 H   0  0  0  0  0  0  0  0  0  0  0  0
  140.2875   79.1015  220.2546 H   0  0  0  0  0  0  0  0  0  0  0  0
  137.7742   73.5602  222.4065 H   0  0  0  0  0  0  0  0  0  0  0  0
  137.8851   72.7593  220.8156 H   0  0  0  0  0  0  0  0  0  0  0  0
  137.2846   71.2531  222.9002 H   0  0  0  0  0  0  0  0  0  0  0  0
  138.5467   70.6412  221.8124 H   0  0  0  0  0  0  0  0  0  0  0  0
  1  2  1  0
  2  3  1  0
  3  4  2  0
  3  5  1  0
  5  6  1  0
  6  7  2  0
  7  8  1  0
  8  9  2  0
  9 10  1  0
 10 11  2  0
  5 12  1  0
 12 13  1  0
 13 14  1  0
 14 15  1  0
 15 16  1  0
 16 17  2  0
 16 18  1  0
 18 19  1  0
 18 20  1  0
 20 21  1  0
 21 22  1  0
 22 23  2  0
 23 24  1  0
 24 25  2  0
 25 26  1  0
 26 27  2  0
 27 28  1  0
 28 29  1  0
 29 30  2  0
 30 31  1  0
 31 32  2  0
 32 33  1  0
 33 34  2  0
 15 35  1  0
 35 36  1  0
 11  6  1  0
 36 12  1  0
 28 20  1  0
 34 29  1  0
 27 22  1  0
  1 37  1  0
  1 38  1  0
  1 39  1  0
  2 40  1  0
  2 41  1  0
  7 42  1  0
  8 43  1  0
  9 44  1  0
 10 45  1  0
 11 46  1  0
 12 47  1  0
 13 48  1  0
 13 49  1  0
 14 50  1  0
 14 51  1  0
 18 52  1  1
 19 53  1  0
 19 54  1  0
 20 55  1  1
 21 56  1  0
 21 57  1  0
 23 58  1  0
 24 59  1  0
 25 60  1  0
 26 61  1  0
 28 62  1  1
 30 63  1  0
 31 64  1  0
 32 65  1  0
 34 66  1  0
 35 67  1  0
 35 68  1  0
 36 69  1  0
 36 70  1  0
M  END
>  <smiles>  (31) 
CCC(=O)N(c1ccccc1)C1CCN(C(=O)[C@H](N)C2Cc3ccccc3C2c2cccnc2)CC1

>  <score_type>  (31) 
oracle

>  <origin>  (31) 
autodockgpu

>  <m_score__min__energy>  (31) 
-9.3599999999999994

>  <m_primary>  (31) 
energy

>  <rmsd>  (31) 
5.425479423572477

>  <m_score__min__rmsd>  (31) 
5.425479423572477

>  <meeko>  (31) 
{"free_energy": -9.36, "intermolecular_energy": -11.75, "internal_energy": -2.27, "cluster_size": 36, "cluster_id": 1, "rank_in_cluster": 1}

>  <energy>  (31) 
-9.05

>  <cluster_rmsd>  (31) 
0.38

>  <cluster>  (31) 
1

$$$$

     RDKit          3D

 70 74  0  0  0  0  0  0  0  0999 V2000
  145.9780   74.1520  220.8740 C   0  0  0  0  0  0  0  0  0  0  0  0
  145.9450   72.6430  220.9010 C   0  0  0  0  0  0  0  0  0  0  0  0
  145.2400   72.1560  219.6850 C   0  0  0  0  0  0  0  0  0  0  0  0
  145.6700   72.5860  218.5810 O   0  0  0  0  0  0  0  0  0  0  0  0
  144.1350   71.2490  219.7750 N   0  0  0  0  0  0  0  0  0  0  0  0
  144.3980   69.8680  219.5580 C   0  0  0  0  0  0  0  0  0  0  0  0
  143.2900   69.0190  219.6140 C   0  0  0  0  0  0  0  0  0  0  0  0
  143.4750   67.6660  219.4160 C   0  0  0  0  0  0  0  0  0  0  0  0
  144.7190   67.1330  219.1650 C   0  0  0  0  0  0  0  0  0  0  0  0
  145.8210   67.9800  219.1090 C   0  0  0  0  0  0  0  0  0  0  0  0
  145.6410   69.3510  219.3090 C   0  0  0  0  0  0  0  0  0  0  0  0
  142.8510   71.7990  220.0790 C   0  0  0  0  0  0  0  0  0  0  0  0
  143.0200   73.2680  220.4120 C   0  0  0  0  0  0  0  0  0  0  0  0
  141.6890   73.9780  220.2580 C   0  0  0  0  0  0  0  0  0  0  0  0
  140.5850   73.0360  220.5120 N   0  0  0  0  0  0  0  0  0  0  0  0
  139.7820   73.2820  221.6290 C   0  0  0  0  0  0  0  0  0  0  0  0
  140.0870   74.3050  222.3390 O   0  0  0  0  0  0  0  0  0  0  0  0
  138.6150   72.5050  222.1010 C   0  0  2  0  0  0  0  0  0  0  0  0
  137.3850   73.2220  222.1120 N   0  0  0  0  0  0  0  0  0  0  0  0
  138.9260   71.6610  223.2760 C   0  0  2  0  0  0  0  0  0  0  0  0
  140.3830   71.7290  223.6870 C   0  0  0  0  0  0  0  0  0  0  0  0
  140.4920   70.5310  224.6050 C   0  0  0  0  0  0  0  0  0  0  0  0
  141.4680   70.2720  225.5450 C   0  0  0  0  0  0  0  0  0  0  0  0
  141.4070   69.1300  226.3020 C   0  0  0  0  0  0  0  0  0  0  0  0
  140.3540   68.2760  226.0870 C   0  0  0  0  0  0  0  0  0  0  0  0
  139.3620   68.5220  225.1430 C   0  0  0  0  0  0  0  0  0  0  0  0
  139.4300   69.6740  224.3850 C   0  0  0  0  0  0  0  0  0  0  0  0
  138.5440   70.2420  223.2890 C   0  0  2  0  0  0  0  0  0  0  0  0
  138.6570   69.4520  222.0720 C   0  0  0  0  0  0  0  0  0  0  0  0
  137.6130   68.9040  221.3630 C   0  0  0  0  0  0  0  0  0  0  0  0
  137.8100   68.1570  220.2070 C   0  0  0  0  0  0  0  0  0  0  0  0
  139.1070   67.9630  219.7610 C   0  0  0  0  0  0  0  0  0  0  0  0
  140.1380   68.4930  220.4460 N   0  0  0  0  0  0  0  0  0  0  0  0
  139.9410   69.2170  221.5670 C   0  0  0  0  0  0  0  0  0  0  0  0
  140.4610   71.9470  219.5770 C   0  0  0  0  0  0  0  0  0  0  0  0
  141.8460   71.7000  218.9520 C   0  0  0  0  0  0  0  0  0  0  0  0
  145.9864   74.5371  221.9044 H   0  0  0  0  0  0  0  0  0  0  0  0
  146.8837   74.4896  220.3490 H   0  0  0  0  0  0  0  0  0  0  0  0
  145.0879   74.5289  220.3490 H   0  0  0  0  0  0  0  0  0  0  0  0
  146.9727   72.2511  220.9141 H   0  0  0  0  0  0  0  0  0  0  0  0
  145.4173   72.2972  221.8021 H   0  0  0  0  0  0  0  0  0  0  0  0
  142.2862   69.4226  219.8127 H   0  0  0  0  0  0  0  0  0  0  0  0
  142.6045   66.9950  219.4600 H   0  0  0  0  0  0  0  0  0  0  0  0
  144.8402   66.0507  219.0106 H   0  0  0  0  0  0  0  0  0  0  0  0
  146.8239   67.5746  218.9093 H   0  0  0  0  0  0  0  0  0  0  0  0
  146.5099   70.0242  219.2658 H   0  0  0  0  0  0  0  0  0  0  0  0
  142.4575   71.2080  220.9191 H   0  0  0  0  0  0  0  0  0  0  0  0
  143.3724   73.3706  221.4490 H   0  0  0  0  0  0  0  0  0  0  0  0
  143.7559   73.7165  219.7284 H   0  0  0  0  0  0  0  0  0  0  0  0
  141.6330   74.8079  220.9778 H   0  0  0  0  0  0  0  0  0  0  0  0
  141.6034   74.3679  219.2330 H   0  0  0  0  0  0  0  0  0  0  0  0
  138.3962   71.7626  221.3194 H   0  0  0  0  0  0  0  0  0  0  0  0
  137.3690   74.0290  222.7400 H   0  0  0  0  0  0  0  0  0  0  0  0
  136.5230   72.6670  222.2390 H   0  0  0  0  0  0  0  0  0  0  0  0
  138.2441   72.1472  223.9892 H   0  0  0  0  0  0  0  0  0  0  0  0
  141.0508   71.6320  222.8183 H   0  0  0  0  0  0  0  0  0  0  0  0
  140.6737   72.6812  224.1548 H   0  0  0  0  0  0  0  0  0  0  0  0
  142.2959   70.9821  225.6875 H   0  0  0  0  0  0  0  0  0  0  0  0
  142.1759   68.9059  227.0560 H   0  0  0  0  0  0  0  0  0  0  0  0
  140.2918   67.3565  226.6876 H   0  0  0  0  0  0  0  0  0  0  0  0
  138.5359   67.8094  225.0027 H   0  0  0  0  0  0  0  0  0  0  0  0
  137.4553   70.1841  223.4354 H   0  0  0  0  0  0  0  0  0  0  0  0
  136.5859   69.0625  221.7235 H   0  0  0  0  0  0  0  0  0  0  0  0
  136.9565   67.7304  219.6598 H   0  0  0  0  0  0  0  0  0  0  0  0
  139.2943   67.3771  218.8490 H   0  0  0  0  0  0  0  0  0  0  0  0
  140.8106   69.6328  222.0971 H   0  0  0  0  0  0  0  0  0  0  0  0
  140.1205   71.0416  220.1008 H   0  0  0  0  0  0  0  0  0  0  0  0
  139.7268   72.1942  218.7961 H   0  0  0  0  0  0  0  0  0  0  0  0
  141.8840   70.6997  218.4960 H   0  0  0  0  0  0  0  0  0  0  0  0
  142.0618   72.4339  218.1615 H   0  0  0  0  0  0  0  0  0  0  0  0
  1  2  1  0
  2  3  1  0
  3  4  2  0
  3  5  1  0
  5  6  1  0
  6  7  2  0
  7  8  1  0
  8  9  2  0
  9 10  1  0
 10 11  2  0
  5 12  1  0
 12 13  1  0
 13 14  1  0
 14 15  1  0
 15 16  1  0
 16 17  2  0
 16 18  1  0
 18 19  1  0
 18 20  1  0
 20 21  1  0
 21 22  1  0
 22 23  2  0
 23 24  1  0
 24 25  2  0
 25 26  1  0
 26 27  2  0
 27 28  1  0
 28 29  1  0
 29 30  2  0
 30 31  1  0
 31 32  2  0
 32 33  1  0
 33 34  2  0
 15 35  1  0
 35 36  1  0
 11  6  1  0
 36 12  1  0
 28 20  1  0
 34 29  1  0
 27 22  1  0
  1 37  1  0
  1 38  1  0
  1 39  1  0
  2 40  1  0
  2 41  1  0
  7 42  1  0
  8 43  1  0
  9 44  1  0
 10 45  1  0
 11 46  1  0
 12 47  1  0
 13 48  1  0
 13 49  1  0
 14 50  1  0
 14 51  1  0
 18 52  1  6
 19 53  1  0
 19 54  1  0
 20 55  1  1
 21 56  1  0
 21 57  1  0
 23 58  1  0
 24 59  1  0
 25 60  1  0
 26 61  1  0
 28 62  1  1
 30 63  1  0
 31 64  1  0
 32 65  1  0
 34 66  1  0
 35 67  1  0
 35 68  1  0
 36 69  1  0
 36 70  1  0
M  END
>  <smiles>  (32) 
CCC(=O)N(c1ccccc1)C1CCN(C(=O)[C@H](N)C2Cc3ccccc3C2c2cccnc2)CC1

>  <score_type>  (32) 
oracle

>  <origin>  (32) 
autodockgpu

>  <m_score__min__energy>  (32) 
-9.3599999999999994

>  <m_primary>  (32) 
energy

>  <rmsd>  (32) 
8.473306045083838

>  <m_score__min__rmsd>  (32) 
8.473306045083838

>  <meeko>  (32) 
{"free_energy": -8.17, "intermolecular_energy": -10.56, "internal_energy": -3.12, "cluster_size": 1, "cluster_id": 2, "rank_in_cluster": 1}

>  <energy>  (32) 
-9.02

>  <cluster_rmsd>  (32) 
1.0

>  <cluster>  (32) 
1

$$$$

     RDKit          3D

 70 74  0  0  0  0  0  0  0  0999 V2000
  136.0370   68.9610  223.3710 C   0  0  0  0  0  0  0  0  0  0  0  0
  136.7700   69.5060  224.5740 C   0  0  0  0  0  0  0  0  0  0  0  0
  138.2340   69.4050  224.3310 C   0  0  0  0  0  0  0  0  0  0  0  0
  138.6440   68.3200  223.8370 O   0  0  0  0  0  0  0  0  0  0  0  0
  139.1200   70.4860  224.6450 N   0  0  0  0  0  0  0  0  0  0  0  0
  139.7780   70.4530  225.9050 C   0  0  0  0  0  0  0  0  0  0  0  0
  140.3950   71.6410  226.3030 C   0  0  0  0  0  0  0  0  0  0  0  0
  141.0540   71.6770  227.5150 C   0  0  0  0  0  0  0  0  0  0  0  0
  141.1190   70.5760  228.3380 C   0  0  0  0  0  0  0  0  0  0  0  0
  140.5040   69.3930  227.9400 C   0  0  0  0  0  0  0  0  0  0  0  0
  139.8350   69.3500  226.7140 C   0  0  0  0  0  0  0  0  0  0  0  0
  139.2800   71.5150  223.6650 C   0  0  0  0  0  0  0  0  0  0  0  0
  140.6690   71.4060  223.0700 C   0  0  0  0  0  0  0  0  0  0  0  0
  140.7050   72.1250  221.7340 C   0  0  0  0  0  0  0  0  0  0  0  0
  139.7190   73.2180  221.7260 N   0  0  0  0  0  0  0  0  0  0  0  0
  140.2140   74.5220  221.6390 C   0  0  0  0  0  0  0  0  0  0  0  0
  141.4890   74.6480  221.5830 O   0  0  0  0  0  0  0  0  0  0  0  0
  139.4480   75.7880  221.6030 C   0  0  2  0  0  0  0  0  0  0  0  0
  138.8610   76.0960  220.3440 N   0  0  0  0  0  0  0  0  0  0  0  0
  140.1220   76.8860  222.3320 C   0  0  2  0  0  0  0  0  0  0  0  0
  139.2420   78.1070  222.5110 C   0  0  0  0  0  0  0  0  0  0  0  0
  140.2600   79.1550  222.9050 C   0  0  0  0  0  0  0  0  0  0  0  0
  140.0310   80.3650  223.5270 C   0  0  0  0  0  0  0  0  0  0  0  0
  141.0810   81.1970  223.8200 C   0  0  0  0  0  0  0  0  0  0  0  0
  142.3430   80.7800  223.4750 C   0  0  0  0  0  0  0  0  0  0  0  0
  142.5910   79.5620  222.8480 C   0  0  0  0  0  0  0  0  0  0  0  0
  141.5290   78.7300  222.5560 C   0  0  0  0  0  0  0  0  0  0  0  0
  141.4370   77.3690  221.8900 C   0  0  2  0  0  0  0  0  0  0  0  0
  141.7300   77.4690  220.4670 C   0  0  0  0  0  0  0  0  0  0  0  0
  142.6300   76.6980  219.7700 C   0  0  0  0  0  0  0  0  0  0  0  0
  142.8520   76.8610  218.4070 C   0  0  0  0  0  0  0  0  0  0  0  0
  142.1360   77.8400  217.7360 C   0  0  0  0  0  0  0  0  0  0  0  0
  141.2520   78.6020  218.4070 N   0  0  0  0  0  0  0  0  0  0  0  0
  141.0410   78.4380  219.7300 C   0  0  0  0  0  0  0  0  0  0  0  0
  138.3370   72.8190  221.8220 C   0  0  0  0  0  0  0  0  0  0  0  0
  138.2880   71.4500  222.5240 C   0  0  0  0  0  0  0  0  0  0  0  0
  135.1962   68.3359  223.7061 H   0  0  0  0  0  0  0  0  0  0  0  0
  135.6546   69.7959  222.7654 H   0  0  0  0  0  0  0  0  0  0  0  0
  136.7264   68.3544  222.7654 H   0  0  0  0  0  0  0  0  0  0  0  0
  136.4931   70.5591  224.7296 H   0  0  0  0  0  0  0  0  0  0  0  0
  136.4995   68.9274  225.4696 H   0  0  0  0  0  0  0  0  0  0  0  0
  140.3563   72.5334  225.6610 H   0  0  0  0  0  0  0  0  0  0  0  0
  141.5406   72.6113  227.8318 H   0  0  0  0  0  0  0  0  0  0  0  0
  141.6510   70.6305  229.2993 H   0  0  0  0  0  0  0  0  0  0  0  0
  140.5440   68.5016  228.5833 H   0  0  0  0  0  0  0  0  0  0  0  0
  139.3475   68.4171  226.3945 H   0  0  0  0  0  0  0  0  0  0  0  0
  139.1097   72.4661  224.1908 H   0  0  0  0  0  0  0  0  0  0  0  0
  141.3978   71.8659  223.7536 H   0  0  0  0  0  0  0  0  0  0  0  0
  140.9226   70.3458  222.9227 H   0  0  0  0  0  0  0  0  0  0  0  0
  141.7105   72.5398  221.5701 H   0  0  0  0  0  0  0  0  0  0  0  0
  140.4615   71.4120  220.9326 H   0  0  0  0  0  0  0  0  0  0  0  0
  138.5393   75.6211  222.1999 H   0  0  0  0  0  0  0  0  0  0  0  0
  138.3760   75.3120  219.8980 H   0  0  0  0  0  0  0  0  0  0  0  0
  139.4630   76.5690  219.6520 H   0  0  0  0  0  0  0  0  0  0  0  0
  140.3170   76.3418  223.2679 H   0  0  0  0  0  0  0  0  0  0  0  0
  138.7307   78.3750  221.5746 H   0  0  0  0  0  0  0  0  0  0  0  0
  138.4302   77.9725  223.2409 H   0  0  0  0  0  0  0  0  0  0  0  0
  139.0048   80.6628  223.7882 H   0  0  0  0  0  0  0  0  0  0  0  0
  140.9178   82.1658  224.3148 H   0  0  0  0  0  0  0  0  0  0  0  0
  143.1951   81.4369  223.7040 H   0  0  0  0  0  0  0  0  0  0  0  0
  143.6185   79.2669  222.5890 H   0  0  0  0  0  0  0  0  0  0  0  0
  142.1871   76.6152  222.1713 H   0  0  0  0  0  0  0  0  0  0  0  0
  143.1950   75.9241  220.3102 H   0  0  0  0  0  0  0  0  0  0  0  0
  143.5778   76.2288  217.8745 H   0  0  0  0  0  0  0  0  0  0  0  0
  142.2898   77.9939  216.6577 H   0  0  0  0  0  0  0  0  0  0  0  0
  140.3098   79.0817  220.2409 H   0  0  0  0  0  0  0  0  0  0  0  0
  137.7738   73.5601  222.4082 H   0  0  0  0  0  0  0  0  0  0  0  0
  137.8867   72.7527  220.8206 H   0  0  0  0  0  0  0  0  0  0  0  0
  137.2764   71.2575  222.9108 H   0  0  0  0  0  0  0  0  0  0  0  0
  138.5374   70.6368  221.8266 H   0  0  0  0  0  0  0  0  0  0  0  0
  1  2  1  0
  2  3  1  0
  3  4  2  0
  3  5  1  0
  5  6  1  0
  6  7  2  0
  7  8  1  0
  8  9  2  0
  9 10  1  0
 10 11  2  0
  5 12  1  0
 12 13  1  0
 13 14  1  0
 14 15  1  0
 15 16  1  0
 16 17  2  0
 16 18  1  0
 18 19  1  0
 18 20  1  0
 20 21  1  0
 21 22  1  0
 22 23  2  0
 23 24  1  0
 24 25  2  0
 25 26  1  0
 26 27  2  0
 27 28  1  0
 28 29  1  0
 29 30  2  0
 30 31  1  0
 31 32  2  0
 32 33  1  0
 33 34  2  0
 15 35  1  0
 35 36  1  0
 11  6  1  0
 36 12  1  0
 28 20  1  0
 34 29  1  0
 27 22  1  0
  1 37  1  0
  1 38  1  0
  1 39  1  0
  2 40  1  0
  2 41  1  0
  7 42  1  0
  8 43  1  0
  9 44  1  0
 10 45  1  0
 11 46  1  0
 12 47  1  0
 13 48  1  0
 13 49  1  0
 14 50  1  0
 14 51  1  0
 18 52  1  1
 19 53  1  0
 19 54  1  0
 20 55  1  1
 21 56  1  0
 21 57  1  0
 23 58  1  0
 24 59  1  0
 25 60  1  0
 26 61  1  0
 28 62  1  1
 30 63  1  0
 31 64  1  0
 32 65  1  0
 34 66  1  0
 35 67  1  0
 35 68  1  0
 36 69  1  0
 36 70  1  0
M  END
>  <smiles>  (33) 
CCC(=O)N(c1ccccc1)C1CCN(C(=O)[C@H](N)C2Cc3ccccc3C2c2cccnc2)CC1

>  <score_type>  (33) 
oracle

>  <origin>  (33) 
autodockgpu

>  <m_score__min__energy>  (33) 
-9.3599999999999994

>  <m_primary>  (33) 
energy

>  <rmsd>  (33) 
5.431048200539764

>  <m_score__min__rmsd>  (33) 
5.431048200539764

>  <meeko>  (33) 
{"free_energy": -9.36, "intermolecular_energy": -11.74, "internal_energy": -2.27, "cluster_size": 36, "cluster_id": 1, "rank_in_cluster": 2}

>  <energy>  (33) 
-8.93

>  <cluster_rmsd>  (33) 
1.61

>  <cluster>  (33) 
1

$$$$

     RDKit          3D

 70 74  0  0  0  0  0  0  0  0999 V2000
  137.8910   67.9960  222.3330 C   0  0  0  0  0  0  0  0  0  0  0  0
  138.8010   68.2320  223.5150 C   0  0  0  0  0  0  0  0  0  0  0  0
  138.3110   69.4160  224.2700 C   0  0  0  0  0  0  0  0  0  0  0  0
  137.0940   69.4030  224.5990 O   0  0  0  0  0  0  0  0  0  0  0  0
  139.1810   70.5050  224.6000 N   0  0  0  0  0  0  0  0  0  0  0  0
  139.8390   70.4640  225.8600 C   0  0  0  0  0  0  0  0  0  0  0  0
  139.8460   69.2250  226.5050 C   0  0  0  0  0  0  0  0  0  0  0  0
  140.4650   69.1160  227.7330 C   0  0  0  0  0  0  0  0  0  0  0  0
  141.0740   70.1920  228.3370 C   0  0  0  0  0  0  0  0  0  0  0  0
  141.0660   71.4260  227.6930 C   0  0  0  0  0  0  0  0  0  0  0  0
  140.4410   71.5430  226.4490 C   0  0  0  0  0  0  0  0  0  0  0  0
  139.3250   71.5510  223.6360 C   0  0  0  0  0  0  0  0  0  0  0  0
  140.7090   71.4590  223.0250 C   0  0  0  0  0  0  0  0  0  0  0  0
  140.7270   72.1990  221.7000 C   0  0  0  0  0  0  0  0  0  0  0  0
  139.7360   73.2870  221.7200 N   0  0  0  0  0  0  0  0  0  0  0  0
  140.2230   74.5950  221.6490 C   0  0  0  0  0  0  0  0  0  0  0  0
  141.4960   74.7290  221.5820 O   0  0  0  0  0  0  0  0  0  0  0  0
  139.4500   75.8570  221.6410 C   0  0  2  0  0  0  0  0  0  0  0  0
  138.8290   76.1700  220.3990 N   0  0  0  0  0  0  0  0  0  0  0  0
  140.1370   76.9540  222.3590 C   0  0  2  0  0  0  0  0  0  0  0  0
  139.2590   78.1730  222.5600 C   0  0  0  0  0  0  0  0  0  0  0  0
  140.2840   79.2220  222.9370 C   0  0  0  0  0  0  0  0  0  0  0  0
  140.0650   80.4290  223.5660 C   0  0  0  0  0  0  0  0  0  0  0  0
  141.1200   81.2620  223.8400 C   0  0  0  0  0  0  0  0  0  0  0  0
  142.3750   80.8480  223.4680 C   0  0  0  0  0  0  0  0  0  0  0  0
  142.6120   79.6330  222.8320 C   0  0  0  0  0  0  0  0  0  0  0  0
  141.5450   78.8000  222.5600 C   0  0  0  0  0  0  0  0  0  0  0  0
  141.4420   77.4400  221.8910 C   0  0  2  0  0  0  0  0  0  0  0  0
  141.7060   77.5450  220.4630 C   0  0  0  0  0  0  0  0  0  0  0  0
  142.5860   76.7720  219.7440 C   0  0  0  0  0  0  0  0  0  0  0  0
  142.7800   76.9410  218.3770 C   0  0  0  0  0  0  0  0  0  0  0  0
  142.0560   77.9260  217.7260 C   0  0  0  0  0  0  0  0  0  0  0  0
  141.1900   78.6910  218.4190 N   0  0  0  0  0  0  0  0  0  0  0  0
  141.0060   78.5220  219.7450 C   0  0  0  0  0  0  0  0  0  0  0  0
  138.3580   72.8790  221.8230 C   0  0  0  0  0  0  0  0  0  0  0  0
  138.3230   71.4980  222.5030 C   0  0  0  0  0  0  0  0  0  0  0  0
  136.8844   67.7349  222.6916 H   0  0  0  0  0  0  0  0  0  0  0  0
  137.8374   68.9100  221.7232 H   0  0  0  0  0  0  0  0  0  0  0  0
  138.2884   67.1712  221.7232 H   0  0  0  0  0  0  0  0  0  0  0  0
  138.7937   67.3477  224.1692 H   0  0  0  0  0  0  0  0  0  0  0  0
  139.8283   68.4116  223.1651 H   0  0  0  0  0  0  0  0  0  0  0  0
  139.3658   68.3506  226.0414 H   0  0  0  0  0  0  0  0  0  0  0  0
  140.4719   68.1417  228.2436 H   0  0  0  0  0  0  0  0  0  0  0  0
  141.5612   70.0784  229.3167 H   0  0  0  0  0  0  0  0  0  0  0  0
  141.5464   72.2993  228.1583 H   0  0  0  0  0  0  0  0  0  0  0  0
  140.4326   72.5159  225.9357 H   0  0  0  0  0  0  0  0  0  0  0  0
  139.1540   72.4921  224.1792 H   0  0  0  0  0  0  0  0  0  0  0  0
  141.4423   71.9123  223.7082 H   0  0  0  0  0  0  0  0  0  0  0  0
  140.9670   70.4027  222.8587 H   0  0  0  0  0  0  0  0  0  0  0  0
  141.7287   72.6212  221.5317 H   0  0  0  0  0  0  0  0  0  0  0  0
  140.4781   71.4975  220.8901 H   0  0  0  0  0  0  0  0  0  0  0  0
  138.5581   75.6814  222.2604 H   0  0  0  0  0  0  0  0  0  0  0  0
  139.1460   75.5990  219.6100 H   0  0  0  0  0  0  0  0  0  0  0  0
  138.8130   77.1640  220.1240 H   0  0  0  0  0  0  0  0  0  0  0  0
  140.3520   76.4078  223.2893 H   0  0  0  0  0  0  0  0  0  0  0  0
  138.7284   78.4433  221.6351 H   0  0  0  0  0  0  0  0  0  0  0  0
  138.4624   78.0348  223.3058 H   0  0  0  0  0  0  0  0  0  0  0  0
  139.0437   80.7244  223.8484 H   0  0  0  0  0  0  0  0  0  0  0  0
  140.9656   82.2291  224.3409 H   0  0  0  0  0  0  0  0  0  0  0  0
  143.2306   81.5053  223.6820 H   0  0  0  0  0  0  0  0  0  0  0  0
  143.6343   79.3406  222.5502 H   0  0  0  0  0  0  0  0  0  0  0  0
  142.1989   76.6863  222.1537 H   0  0  0  0  0  0  0  0  0  0  0  0
  143.1573   75.9918  220.2683 H   0  0  0  0  0  0  0  0  0  0  0  0
  143.4912   76.3077  217.8264 H   0  0  0  0  0  0  0  0  0  0  0  0
  142.1877   78.0835  216.6453 H   0  0  0  0  0  0  0  0  0  0  0  0
  140.2892   79.1670  220.2743 H   0  0  0  0  0  0  0  0  0  0  0  0
  137.7967   73.6073  222.4268 H   0  0  0  0  0  0  0  0  0  0  0  0
  137.8983   72.8265  220.8251 H   0  0  0  0  0  0  0  0  0  0  0  0
  137.3161   71.2932  222.8956 H   0  0  0  0  0  0  0  0  0  0  0  0
  138.5705   70.6975  221.7904 H   0  0  0  0  0  0  0  0  0  0  0  0
  1  2  1  0
  2  3  1  0
  3  4  2  0
  3  5  1  0
  5  6  1  0
  6  7  2  0
  7  8  1  0
  8  9  2  0
  9 10  1  0
 10 11  2  0
  5 12  1  0
 12 13  1  0
 13 14  1  0
 14 15  1  0
 15 16  1  0
 16 17  2  0
 16 18  1  0
 18 19  1  0
 18 20  1  0
 20 21  1  0
 21 22  1  0
 22 23  2  0
 23 24  1  0
 24 25  2  0
 25 26  1  0
 26 27  2  0
 27 28  1  0
 28 29  1  0
 29 30  2  0
 30 31  1  0
 31 32  2  0
 32 33  1  0
 33 34  2  0
 15 35  1  0
 35 36  1  0
 11  6  1  0
 36 12  1  0
 28 20  1  0
 34 29  1  0
 27 22  1  0
  1 37  1  0
  1 38  1  0
  1 39  1  0
  2 40  1  0
  2 41  1  0
  7 42  1  0
  8 43  1  0
  9 44  1  0
 10 45  1  0
 11 46  1  0
 12 47  1  0
 13 48  1  0
 13 49  1  0
 14 50  1  0
 14 51  1  0
 18 52  1  1
 19 53  1  0
 19 54  1  0
 20 55  1  1
 21 56  1  0
 21 57  1  0
 23 58  1  0
 24 59  1  0
 25 60  1  0
 26 61  1  0
 28 62  1  1
 30 63  1  0
 31 64  1  0
 32 65  1  0
 34 66  1  0
 35 67  1  0
 35 68  1  0
 36 69  1  0
 36 70  1  0
M  END
>  <smiles>  (34) 
CCC(=O)N(c1ccccc1)C1CCN(C(=O)[C@H](N)C2Cc3ccccc3C2c2cccnc2)CC1

>  <score_type>  (34) 
oracle

>  <origin>  (34) 
autodockgpu

>  <m_score__min__energy>  (34) 
-9.3599999999999994

>  <m_primary>  (34) 
energy

>  <rmsd>  (34) 
5.3883095088119735

>  <m_score__min__rmsd>  (34) 
5.3883095088119735

>  <meeko>  (34) 
{"free_energy": -9.35, "intermolecular_energy": -11.74, "internal_energy": -2.3, "cluster_size": 36, "cluster_id": 1, "rank_in_cluster": 3}

>  <energy>  (34) 
-8.83

>  <cluster_rmsd>  (34) 
1.67

>  <cluster>  (34) 
1

$$$$

     RDKit          3D

 70 74  0  0  0  0  0  0  0  0999 V2000
  138.1020   67.9550  222.3310 C   0  0  0  0  0  0  0  0  0  0  0  0
  138.8210   68.1770  223.6400 C   0  0  0  0  0  0  0  0  0  0  0  0
  138.2890   69.4110  224.2780 C   0  0  0  0  0  0  0  0  0  0  0  0
  137.0490   69.4310  224.5050 O   0  0  0  0  0  0  0  0  0  0  0  0
  139.1450   70.5100  224.6110 N   0  0  0  0  0  0  0  0  0  0  0  0
  139.7780   70.4890  225.8840 C   0  0  0  0  0  0  0  0  0  0  0  0
  140.4500   71.6570  226.2510 C   0  0  0  0  0  0  0  0  0  0  0  0
  141.0880   71.7040  227.4740 C   0  0  0  0  0  0  0  0  0  0  0  0
  141.0800   70.6330  228.3380 C   0  0  0  0  0  0  0  0  0  0  0  0
  140.4100   69.4700  227.9710 C   0  0  0  0  0  0  0  0  0  0  0  0
  139.7610   69.4160  226.7340 C   0  0  0  0  0  0  0  0  0  0  0  0
  139.3030   71.5440  223.6360 C   0  0  0  0  0  0  0  0  0  0  0  0
  140.6950   71.4430  223.0440 C   0  0  0  0  0  0  0  0  0  0  0  0
  140.7310   72.1670  221.7110 C   0  0  0  0  0  0  0  0  0  0  0  0
  139.7400   73.2560  221.7040 N   0  0  0  0  0  0  0  0  0  0  0  0
  140.2300   74.5630  221.6230 C   0  0  0  0  0  0  0  0  0  0  0  0
  141.5040   74.6940  221.5720 O   0  0  0  0  0  0  0  0  0  0  0  0
  139.4580   75.8250  221.5900 C   0  0  2  0  0  0  0  0  0  0  0  0
  138.8690   76.1320  220.3310 N   0  0  0  0  0  0  0  0  0  0  0  0
  140.1270   76.9250  222.3190 C   0  0  2  0  0  0  0  0  0  0  0  0
  139.2440   78.1430  222.4980 C   0  0  0  0  0  0  0  0  0  0  0  0
  140.2580   79.1940  222.8950 C   0  0  0  0  0  0  0  0  0  0  0  0
  140.0240   80.4030  223.5160 C   0  0  0  0  0  0  0  0  0  0  0  0
  141.0710   81.2380  223.8110 C   0  0  0  0  0  0  0  0  0  0  0  0
  142.3340   80.8250  223.4680 C   0  0  0  0  0  0  0  0  0  0  0  0
  142.5870   79.6090  222.8410 C   0  0  0  0  0  0  0  0  0  0  0  0
  141.5280   78.7740  222.5470 C   0  0  0  0  0  0  0  0  0  0  0  0
  141.4420   77.4120  221.8800 C   0  0  2  0  0  0  0  0  0  0  0  0
  141.7370   77.5130  220.4570 C   0  0  0  0  0  0  0  0  0  0  0  0
  142.6290   76.7350  219.7580 C   0  0  0  0  0  0  0  0  0  0  0  0
  142.8530   76.9010  218.3960 C   0  0  0  0  0  0  0  0  0  0  0  0
  142.1480   77.8890  217.7280 C   0  0  0  0  0  0  0  0  0  0  0  0
  141.2720   78.6590  218.4010 N   0  0  0  0  0  0  0  0  0  0  0  0
  141.0580   78.4930  219.7230 C   0  0  0  0  0  0  0  0  0  0  0  0
  138.3610   72.8500  221.7940 C   0  0  0  0  0  0  0  0  0  0  0  0
  138.3160   71.4780  222.4910 C   0  0  0  0  0  0  0  0  0  0  0  0
  137.0683   67.6358  222.5300 H   0  0  0  0  0  0  0  0  0  0  0  0
  138.0920   68.8919  221.7547 H   0  0  0  0  0  0  0  0  0  0  0  0
  138.6219   67.1756  221.7547 H   0  0  0  0  0  0  0  0  0  0  0  0
  138.6535   67.3162  224.3040 H   0  0  0  0  0  0  0  0  0  0  0  0
  139.9004   68.2865  223.4587 H   0  0  0  0  0  0  0  0  0  0  0  0
  140.4705   72.5255  225.5762 H   0  0  0  0  0  0  0  0  0  0  0  0
  141.6174   72.6229  227.7661 H   0  0  0  0  0  0  0  0  0  0  0  0
  141.5970   70.6955  229.3069 H   0  0  0  0  0  0  0  0  0  0  0  0
  140.3912   68.6024  228.6470 H   0  0  0  0  0  0  0  0  0  0  0  0
  139.2295   68.4990  226.4397 H   0  0  0  0  0  0  0  0  0  0  0  0
  139.1262   72.4919  224.1653 H   0  0  0  0  0  0  0  0  0  0  0  0
  141.4201   71.9035  223.7312 H   0  0  0  0  0  0  0  0  0  0  0  0
  140.9538   70.3845  222.8937 H   0  0  0  0  0  0  0  0  0  0  0  0
  141.7351   72.5868  221.5512 H   0  0  0  0  0  0  0  0  0  0  0  0
  140.4924   71.4557  220.9065 H   0  0  0  0  0  0  0  0  0  0  0  0
  138.5511   75.6528  222.1882 H   0  0  0  0  0  0  0  0  0  0  0  0
  138.4130   75.3390  219.8710 H   0  0  0  0  0  0  0  0  0  0  0  0
  139.4600   76.6340  219.6500 H   0  0  0  0  0  0  0  0  0  0  0  0
  140.3217   76.3804  223.2547 H   0  0  0  0  0  0  0  0  0  0  0  0
  138.7335   78.4106  221.5611 H   0  0  0  0  0  0  0  0  0  0  0  0
  138.4316   78.0052  223.2267 H   0  0  0  0  0  0  0  0  0  0  0  0
  138.9964   80.6978  223.7750 H   0  0  0  0  0  0  0  0  0  0  0  0
  140.9042   82.2061  224.3059 H   0  0  0  0  0  0  0  0  0  0  0  0
  143.1837   81.4843  223.6989 H   0  0  0  0  0  0  0  0  0  0  0  0
  143.6159   79.3174  222.5834 H   0  0  0  0  0  0  0  0  0  0  0  0
  142.1944   76.6611  222.1628 H   0  0  0  0  0  0  0  0  0  0  0  0
  143.1855   75.9531  220.2955 H   0  0  0  0  0  0  0  0  0  0  0  0
  143.5726   76.2633  217.8616 H   0  0  0  0  0  0  0  0  0  0  0  0
  142.3035   78.0441  216.6501 H   0  0  0  0  0  0  0  0  0  0  0  0
  140.3334   79.1426  220.2358 H   0  0  0  0  0  0  0  0  0  0  0  0
  137.7922   73.5862  222.3810 H   0  0  0  0  0  0  0  0  0  0  0  0
  137.9145   72.7849  220.7908 H   0  0  0  0  0  0  0  0  0  0  0  0
  137.3038   71.2791  222.8730 H   0  0  0  0  0  0  0  0  0  0  0  0
  138.5722   70.6685  221.7917 H   0  0  0  0  0  0  0  0  0  0  0  0
  1  2  1  0
  2  3  1  0
  3  4  2  0
  3  5  1  0
  5  6  1  0
  6  7  2  0
  7  8  1  0
  8  9  2  0
  9 10  1  0
 10 11  2  0
  5 12  1  0
 12 13  1  0
 13 14  1  0
 14 15  1  0
 15 16  1  0
 16 17  2  0
 16 18  1  0
 18 19  1  0
 18 20  1  0
 20 21  1  0
 21 22  1  0
 22 23  2  0
 23 24  1  0
 24 25  2  0
 25 26  1  0
 26 27  2  0
 27 28  1  0
 28 29  1  0
 29 30  2  0
 30 31  1  0
 31 32  2  0
 32 33  1  0
 33 34  2  0
 15 35  1  0
 35 36  1  0
 11  6  1  0
 36 12  1  0
 28 20  1  0
 34 29  1  0
 27 22  1  0
  1 37  1  0
  1 38  1  0
  1 39  1  0
  2 40  1  0
  2 41  1  0
  7 42  1  0
  8 43  1  0
  9 44  1  0
 10 45  1  0
 11 46  1  0
 12 47  1  0
 13 48  1  0
 13 49  1  0
 14 50  1  0
 14 51  1  0
 18 52  1  1
 19 53  1  0
 19 54  1  0
 20 55  1  1
 21 56  1  0
 21 57  1  0
 23 58  1  0
 24 59  1  0
 25 60  1  0
 26 61  1  0
 28 62  1  1
 30 63  1  0
 31 64  1  0
 32 65  1  0
 34 66  1  0
 35 67  1  0
 35 68  1  0
 36 69  1  0
 36 70  1  0
M  END
>  <smiles>  (35) 
CCC(=O)N(c1ccccc1)C1CCN(C(=O)[C@H](N)C2Cc3ccccc3C2c2cccnc2)CC1

>  <score_type>  (35) 
oracle

>  <origin>  (35) 
autodockgpu

>  <m_score__min__energy>  (35) 
-9.3599999999999994

>  <m_primary>  (35) 
energy

>  <rmsd>  (35) 
5.391615894990256

>  <m_score__min__rmsd>  (35) 
5.391615894990256

>  <meeko>  (35) 
{"free_energy": -9.34, "intermolecular_energy": -11.72, "internal_energy": -2.32, "cluster_size": 36, "cluster_id": 1, "rank_in_cluster": 6}

>  <energy>  (35) 
-8.74

>  <cluster_rmsd>  (35) 
1.03

>  <cluster>  (35) 
1

$$$$

     RDKit          3D

 70 74  0  0  0  0  0  0  0  0999 V2000
  137.7880   82.9560  220.1570 C   0  0  0  0  0  0  0  0  0  0  0  0
  138.3360   83.2280  221.5370 C   0  0  0  0  0  0  0  0  0  0  0  0
  137.2940   82.8910  222.5430 C   0  0  0  0  0  0  0  0  0  0  0  0
  136.3800   83.7440  222.7070 O   0  0  0  0  0  0  0  0  0  0  0  0
  137.3350   81.6630  223.2810 N   0  0  0  0  0  0  0  0  0  0  0  0
  136.7150   81.6430  224.5600 C   0  0  0  0  0  0  0  0  0  0  0  0
  135.4270   81.1060  224.6060 C   0  0  0  0  0  0  0  0  0  0  0  0
  134.7660   81.0580  225.8170 C   0  0  0  0  0  0  0  0  0  0  0  0
  135.3430   81.5250  226.9760 C   0  0  0  0  0  0  0  0  0  0  0  0
  136.6260   82.0600  226.9290 C   0  0  0  0  0  0  0  0  0  0  0  0
  137.3000   82.1110  225.7060 C   0  0  0  0  0  0  0  0  0  0  0  0
  137.9940   80.5490  222.6730 C   0  0  0  0  0  0  0  0  0  0  0  0
  138.2800   79.5140  223.7420 C   0  0  0  0  0  0  0  0  0  0  0  0
  138.5130   78.1640  223.0900 C   0  0  0  0  0  0  0  0  0  0  0  0
  139.0570   78.3490  221.7340 N   0  0  0  0  0  0  0  0  0  0  0  0
  140.3580   77.8920  221.5010 C   0  0  0  0  0  0  0  0  0  0  0  0
  140.9640   77.3590  222.4970 O   0  0  0  0  0  0  0  0  0  0  0  0
  141.1310   77.9450  220.2410 C   0  0  2  0  0  0  0  0  0  0  0  0
  142.4010   77.3060  220.2910 N   0  0  0  0  0  0  0  0  0  0  0  0
  141.0550   79.2670  219.5780 C   0  0  2  0  0  0  0  0  0  0  0  0
  142.2230   79.5340  218.6500 C   0  0  0  0  0  0  0  0  0  0  0  0
  142.1010   81.0270  218.4360 C   0  0  0  0  0  0  0  0  0  0  0  0
  142.6600   81.7860  217.4290 C   0  0  0  0  0  0  0  0  0  0  0  0
  142.4380   83.1380  217.3820 C   0  0  0  0  0  0  0  0  0  0  0  0
  141.6500   83.6900  218.3610 C   0  0  0  0  0  0  0  0  0  0  0  0
  141.0780   82.9400  219.3850 C   0  0  0  0  0  0  0  0  0  0  0  0
  141.3070   81.5790  219.4250 C   0  0  0  0  0  0  0  0  0  0  0  0
  140.8560   80.4840  220.3770 C   0  0  2  0  0  0  0  0  0  0  0  0
  141.5160   80.6180  221.6680 C   0  0  0  0  0  0  0  0  0  0  0  0
  142.6820   79.9970  222.0490 C   0  0  0  0  0  0  0  0  0  0  0  0
  143.2450   80.1790  223.3070 C   0  0  0  0  0  0  0  0  0  0  0  0
  142.6000   81.0160  224.2030 C   0  0  0  0  0  0  0  0  0  0  0  0
  141.4560   81.6290  223.8420 N   0  0  0  0  0  0  0  0  0  0  0  0
  140.9150   81.4500  222.6200 C   0  0  0  0  0  0  0  0  0  0  0  0
  138.1840   78.9990  220.7900 C   0  0  0  0  0  0  0  0  0  0  0  0
  137.1930   79.8690  221.5840 C   0  0  0  0  0  0  0  0  0  0  0  0
  136.8056   82.4684  220.2421 H   0  0  0  0  0  0  0  0  0  0  0  0
  137.6802   83.9052  219.6116 H   0  0  0  0  0  0  0  0  0  0  0  0
  138.4788   82.2962  219.6116 H   0  0  0  0  0  0  0  0  0  0  0  0
  139.2290   82.6090  221.7085 H   0  0  0  0  0  0  0  0  0  0  0  0
  138.6117   84.2891  221.6265 H   0  0  0  0  0  0  0  0  0  0  0  0
  134.9466   80.7272  223.6918 H   0  0  0  0  0  0  0  0  0  0  0  0
  133.7512   80.6353  225.8567 H   0  0  0  0  0  0  0  0  0  0  0  0
  134.7956   81.4757  227.9288 H   0  0  0  0  0  0  0  0  0  0  0  0
  137.1047   82.4386  227.8442 H   0  0  0  0  0  0  0  0  0  0  0  0
  138.3149   82.5331  225.6634 H   0  0  0  0  0  0  0  0  0  0  0  0
  138.9051   80.9508  222.2057 H   0  0  0  0  0  0  0  0  0  0  0  0
  139.1771   79.8082  224.3065 H   0  0  0  0  0  0  0  0  0  0  0  0
  137.4215   79.4471  224.4264 H   0  0  0  0  0  0  0  0  0  0  0  0
  139.2278   77.5859  223.6939 H   0  0  0  0  0  0  0  0  0  0  0  0
  137.5573   77.6232  223.0259 H   0  0  0  0  0  0  0  0  0  0  0  0
  140.6144   77.2844  219.5292 H   0  0  0  0  0  0  0  0  0  0  0  0
  142.5730   76.7700  221.1460 H   0  0  0  0  0  0  0  0  0  0  0  0
  143.2250   77.8890  220.0760 H   0  0  0  0  0  0  0  0  0  0  0  0
  140.1017   79.1119  219.0516 H   0  0  0  0  0  0  0  0  0  0  0  0
  143.1808   79.2726  219.1236 H   0  0  0  0  0  0  0  0  0  0  0  0
  142.2031   78.9441  217.7217 H   0  0  0  0  0  0  0  0  0  0  0  0
  143.2852   81.3055  216.6621 H   0  0  0  0  0  0  0  0  0  0  0  0
  142.8763   83.7592  216.5870 H   0  0  0  0  0  0  0  0  0  0  0  0
  141.4620   84.7735  218.3353 H   0  0  0  0  0  0  0  0  0  0  0  0
  140.4534   83.4241  220.1502 H   0  0  0  0  0  0  0  0  0  0  0  0
  139.8086   80.5024  220.7126 H   0  0  0  0  0  0  0  0  0  0  0  0
  143.1875   79.3324  221.3328 H   0  0  0  0  0  0  0  0  0  0  0  0
  144.1802   79.6706  223.5844 H   0  0  0  0  0  0  0  0  0  0  0  0
  143.0207   81.1795  225.2061 H   0  0  0  0  0  0  0  0  0  0  0  0
  139.9796   81.9698  222.3652 H   0  0  0  0  0  0  0  0  0  0  0  0
  138.7736   79.6306  220.1091 H   0  0  0  0  0  0  0  0  0  0  0  0
  137.6432   78.2518  220.1906 H   0  0  0  0  0  0  0  0  0  0  0  0
  136.7341   80.6203  220.9245 H   0  0  0  0  0  0  0  0  0  0  0  0
  136.3814   79.2601  222.0088 H   0  0  0  0  0  0  0  0  0  0  0  0
  1  2  1  0
  2  3  1  0
  3  4  2  0
  3  5  1  0
  5  6  1  0
  6  7  2  0
  7  8  1  0
  8  9  2  0
  9 10  1  0
 10 11  2  0
  5 12  1  0
 12 13  1  0
 13 14  1  0
 14 15  1  0
 15 16  1  0
 16 17  2  0
 16 18  1  0
 18 19  1  0
 18 20  1  0
 20 21  1  0
 21 22  1  0
 22 23  2  0
 23 24  1  0
 24 25  2  0
 25 26  1  0
 26 27  2  0
 27 28  1  0
 28 29  1  0
 29 30  2  0
 30 31  1  0
 31 32  2  0
 32 33  1  0
 33 34  2  0
 15 35  1  0
 35 36  1  0
 11  6  1  0
 36 12  1  0
 28 20  1  0
 34 29  1  0
 27 22  1  0
  1 37  1  0
  1 38  1  0
  1 39  1  0
  2 40  1  0
  2 41  1  0
  7 42  1  0
  8 43  1  0
  9 44  1  0
 10 45  1  0
 11 46  1  0
 12 47  1  0
 13 48  1  0
 13 49  1  0
 14 50  1  0
 14 51  1  0
 18 52  1  6
 19 53  1  0
 19 54  1  0
 20 55  1  6
 21 56  1  0
 21 57  1  0
 23 58  1  0
 24 59  1  0
 25 60  1  0
 26 61  1  0
 28 62  1  1
 30 63  1  0
 31 64  1  0
 32 65  1  0
 34 66  1  0
 35 67  1  0
 35 68  1  0
 36 69  1  0
 36 70  1  0
M  END
>  <smiles>  (36) 
CCC(=O)N(c1ccccc1)C1CCN(C(=O)[C@H](N)C2Cc3ccccc3C2c2cccnc2)CC1

>  <score_type>  (36) 
oracle

>  <origin>  (36) 
autodockgpu

>  <m_score__min__energy>  (36) 
-9.3599999999999994

>  <m_primary>  (36) 
energy

>  <rmsd>  (36) 
4.981331502606643

>  <m_score__min__rmsd>  (36) 
4.981331502606643

>  <meeko>  (36) 
{"free_energy": -7.21, "intermolecular_energy": -9.59, "internal_energy": -4.18, "cluster_size": 12, "cluster_id": 4, "rank_in_cluster": 6}

>  <energy>  (36) 
-8.72

>  <cluster_rmsd>  (36) 
1.7

>  <cluster>  (36) 
1

$$$$

     RDKit          3D

 70 74  0  0  0  0  0  0  0  0999 V2000
  138.6410   83.7170  221.5750 C   0  0  0  0  0  0  0  0  0  0  0  0
  137.5120   82.9380  220.9430 C   0  0  0  0  0  0  0  0  0  0  0  0
  136.5740   82.5000  222.0110 C   0  0  0  0  0  0  0  0  0  0  0  0
  135.4950   83.1450  222.1040 O   0  0  0  0  0  0  0  0  0  0  0  0
  136.8880   81.4050  222.8800 N   0  0  0  0  0  0  0  0  0  0  0  0
  136.4330   81.4810  224.2250 C   0  0  0  0  0  0  0  0  0  0  0  0
  137.3350   82.0190  225.1450 C   0  0  0  0  0  0  0  0  0  0  0  0
  136.9580   82.1190  226.4690 C   0  0  0  0  0  0  0  0  0  0  0  0
  135.7210   81.7030  226.9040 C   0  0  0  0  0  0  0  0  0  0  0  0
  134.8240   81.1670  225.9860 C   0  0  0  0  0  0  0  0  0  0  0  0
  135.1990   81.0630  224.6440 C   0  0  0  0  0  0  0  0  0  0  0  0
  137.6320   80.3160  222.3280 C   0  0  0  0  0  0  0  0  0  0  0  0
  137.8290   79.2690  223.4060 C   0  0  0  0  0  0  0  0  0  0  0  0
  138.1610   77.9360  222.7620 C   0  0  0  0  0  0  0  0  0  0  0  0
  138.8400   78.1560  221.4740 N   0  0  0  0  0  0  0  0  0  0  0  0
  140.1670   77.7310  221.3720 C   0  0  0  0  0  0  0  0  0  0  0  0
  140.6780   77.1940  222.4180 O   0  0  0  0  0  0  0  0  0  0  0  0
  141.0660   77.8230  220.2010 C   0  0  2  0  0  0  0  0  0  0  0  0
  142.3530   77.2430  220.3880 N   0  0  0  0  0  0  0  0  0  0  0  0
  141.0000   79.1400  219.5290 C   0  0  2  0  0  0  0  0  0  0  0  0
  142.2150   79.4330  218.6720 C   0  0  0  0  0  0  0  0  0  0  0  0
  142.0710   80.9220  218.4450 C   0  0  0  0  0  0  0  0  0  0  0  0
  142.6730   81.6910  217.4700 C   0  0  0  0  0  0  0  0  0  0  0  0
  142.4220   83.0370  217.4050 C   0  0  0  0  0  0  0  0  0  0  0  0
  141.5640   83.5730  218.3330 C   0  0  0  0  0  0  0  0  0  0  0  0
  140.9500   82.8120  219.3230 C   0  0  0  0  0  0  0  0  0  0  0  0
  141.2070   81.4570  219.3820 C   0  0  0  0  0  0  0  0  0  0  0  0
  140.7260   80.3550  220.3100 C   0  0  2  0  0  0  0  0  0  0  0  0
  141.3040   80.5070  221.6380 C   0  0  0  0  0  0  0  0  0  0  0  0
  140.7240   81.1540  222.7030 C   0  0  0  0  0  0  0  0  0  0  0  0
  141.3480   81.2560  223.9410 C   0  0  0  0  0  0  0  0  0  0  0  0
  142.6000   80.6830  224.0970 C   0  0  0  0  0  0  0  0  0  0  0  0
  143.1790   80.0470  223.0610 N   0  0  0  0  0  0  0  0  0  0  0  0
  142.5680   79.9510  221.8620 C   0  0  0  0  0  0  0  0  0  0  0  0
  138.0550   78.8030  220.4530 C   0  0  0  0  0  0  0  0  0  0  0  0
  136.9660   79.6370  221.1510 C   0  0  0  0  0  0  0  0  0  0  0  0
  138.5579   83.6597  222.6704 H   0  0  0  0  0  0  0  0  0  0  0  0
  139.6038   83.2901  221.2575 H   0  0  0  0  0  0  0  0  0  0  0  0
  138.5836   84.7686  221.2575 H   0  0  0  0  0  0  0  0  0  0  0  0
  136.9798   83.5770  220.2230 H   0  0  0  0  0  0  0  0  0  0  0  0
  137.9135   82.0601  220.4156 H   0  0  0  0  0  0  0  0  0  0  0  0
  138.3298   82.3576  224.8200 H   0  0  0  0  0  0  0  0  0  0  0  0
  137.6661   82.5430  227.1963 H   0  0  0  0  0  0  0  0  0  0  0  0
  135.4446   81.7932  227.9649 H   0  0  0  0  0  0  0  0  0  0  0  0
  133.8298   80.8285  226.3130 H   0  0  0  0  0  0  0  0  0  0  0  0
  134.4930   80.6395  223.9145 H   0  0  0  0  0  0  0  0  0  0  0  0
  138.5770   80.7459  221.9644 H   0  0  0  0  0  0  0  0  0  0  0  0
  138.6548   79.5731  224.0659 H   0  0  0  0  0  0  0  0  0  0  0  0
  136.9054   79.1714  223.9954 H   0  0  0  0  0  0  0  0  0  0  0  0
  138.8218   77.3632  223.4293 H   0  0  0  0  0  0  0  0  0  0  0  0
  137.2302   77.3759  222.5892 H   0  0  0  0  0  0  0  0  0  0  0  0
  140.6581   77.1411  219.4403 H   0  0  0  0  0  0  0  0  0  0  0  0
  142.4570   76.7110  221.2560 H   0  0  0  0  0  0  0  0  0  0  0  0
  143.1670   77.8660  220.2630 H   0  0  0  0  0  0  0  0  0  0  0  0
  140.0844   78.9597  218.9466 H   0  0  0  0  0  0  0  0  0  0  0  0
  143.1484   79.1958  219.2035 H   0  0  0  0  0  0  0  0  0  0  0  0
  142.2648   78.8406  217.7464 H   0  0  0  0  0  0  0  0  0  0  0  0
  143.3548   81.2235  216.7444 H   0  0  0  0  0  0  0  0  0  0  0  0
  142.8922   83.6665  216.6352 H   0  0  0  0  0  0  0  0  0  0  0  0
  141.3525   84.6517  218.2921 H   0  0  0  0  0  0  0  0  0  0  0  0
  140.2699   83.2832  220.0479 H   0  0  0  0  0  0  0  0  0  0  0  0
  139.6603   80.3509  220.5827 H   0  0  0  0  0  0  0  0  0  0  0  0
  139.7305   81.6073  222.5710 H   0  0  0  0  0  0  0  0  0  0  0  0
  140.8597   81.7789  224.7766 H   0  0  0  0  0  0  0  0  0  0  0  0
  143.1194   80.7475  225.0645 H   0  0  0  0  0  0  0  0  0  0  0  0
  143.0756   79.4231  221.0412 H   0  0  0  0  0  0  0  0  0  0  0  0
  138.6974   79.4591  219.8473 H   0  0  0  0  0  0  0  0  0  0  0  0
  137.5978   78.0544  219.7893 H   0  0  0  0  0  0  0  0  0  0  0  0
  136.5609   80.3891  220.4580 H   0  0  0  0  0  0  0  0  0  0  0  0
  136.1292   79.0030  221.4793 H   0  0  0  0  0  0  0  0  0  0  0  0
  1  2  1  0
  2  3  1  0
  3  4  2  0
  3  5  1  0
  5  6  1  0
  6  7  2  0
  7  8  1  0
  8  9  2  0
  9 10  1  0
 10 11  2  0
  5 12  1  0
 12 13  1  0
 13 14  1  0
 14 15  1  0
 15 16  1  0
 16 17  2  0
 16 18  1  0
 18 19  1  0
 18 20  1  0
 20 21  1  0
 21 22  1  0
 22 23  2  0
 23 24  1  0
 24 25  2  0
 25 26  1  0
 26 27  2  0
 27 28  1  0
 28 29  1  0
 29 30  2  0
 30 31  1  0
 31 32  2  0
 32 33  1  0
 33 34  2  0
 15 35  1  0
 35 36  1  0
 11  6  1  0
 36 12  1  0
 28 20  1  0
 34 29  1  0
 27 22  1  0
  1 37  1  0
  1 38  1  0
  1 39  1  0
  2 40  1  0
  2 41  1  0
  7 42  1  0
  8 43  1  0
  9 44  1  0
 10 45  1  0
 11 46  1  0
 12 47  1  0
 13 48  1  0
 13 49  1  0
 14 50  1  0
 14 51  1  0
 18 52  1  6
 19 53  1  0
 19 54  1  0
 20 55  1  6
 21 56  1  0
 21 57  1  0
 23 58  1  0
 24 59  1  0
 25 60  1  0
 26 61  1  0
 28 62  1  1
 30 63  1  0
 31 64  1  0
 32 65  1  0
 34 66  1  0
 35 67  1  0
 35 68  1  0
 36 69  1  0
 36 70  1  0
M  END
>  <smiles>  (37) 
CCC(=O)N(c1ccccc1)C1CCN(C(=O)[C@H](N)C2Cc3ccccc3C2c2cccnc2)CC1

>  <score_type>  (37) 
oracle

>  <origin>  (37) 
autodockgpu

>  <m_score__min__energy>  (37) 
-9.3599999999999994

>  <m_primary>  (37) 
energy

>  <rmsd>  (37) 
4.895306151961542

>  <m_score__min__rmsd>  (37) 
4.895306151961542

>  <meeko>  (37) 
{"free_energy": -6.84, "intermolecular_energy": -9.23, "internal_energy": -4.24, "cluster_size": 12, "cluster_id": 4, "rank_in_cluster": 11}

>  <energy>  (37) 
-8.17

>  <cluster_rmsd>  (37) 
0.0

>  <cluster>  (37) 
2

$$$$

     RDKit          3D

 70 74  0  0  0  0  0  0  0  0999 V2000
  139.0030   84.1720  221.5930 C   0  0  0  0  0  0  0  0  0  0  0  0
  138.0930   83.0150  221.2580 C   0  0  0  0  0  0  0  0  0  0  0  0
  137.1920   82.7620  222.4140 C   0  0  0  0  0  0  0  0  0  0  0  0
  136.3470   83.6620  222.6710 O   0  0  0  0  0  0  0  0  0  0  0  0
  137.2880   81.5600  223.1880 N   0  0  0  0  0  0  0  0  0  0  0  0
  136.6800   81.5550  224.4730 C   0  0  0  0  0  0  0  0  0  0  0  0
  137.4730   82.0190  225.5260 C   0  0  0  0  0  0  0  0  0  0  0  0
  136.9450   82.0380  226.8010 C   0  0  0  0  0  0  0  0  0  0  0  0
  135.6630   81.6120  227.0610 C   0  0  0  0  0  0  0  0  0  0  0  0
  134.8750   81.1500  226.0120 C   0  0  0  0  0  0  0  0  0  0  0  0
  135.4030   81.1280  224.7190 C   0  0  0  0  0  0  0  0  0  0  0  0
  137.9840   80.4540  222.6080 C   0  0  0  0  0  0  0  0  0  0  0  0
  138.2870   79.4460  223.6980 C   0  0  0  0  0  0  0  0  0  0  0  0
  138.5650   78.0920  223.0730 C   0  0  0  0  0  0  0  0  0  0  0  0
  139.1190   78.2690  221.7200 N   0  0  0  0  0  0  0  0  0  0  0  0
  140.4340   77.8440  221.5100 C   0  0  0  0  0  0  0  0  0  0  0  0
  141.0440   77.3460  222.5220 O   0  0  0  0  0  0  0  0  0  0  0  0
  141.2200   77.8970  220.2580 C   0  0  2  0  0  0  0  0  0  0  0  0
  142.4950   77.2670  220.3240 N   0  0  0  0  0  0  0  0  0  0  0  0
  141.1420   79.2140  219.5880 C   0  0  2  0  0  0  0  0  0  0  0  0
  142.3150   79.4840  218.6670 C   0  0  0  0  0  0  0  0  0  0  0  0
  142.1860   80.9750  218.4440 C   0  0  0  0  0  0  0  0  0  0  0  0
  142.7490   81.7310  217.4370 C   0  0  0  0  0  0  0  0  0  0  0  0
  142.5190   83.0820  217.3820 C   0  0  0  0  0  0  0  0  0  0  0  0
  141.7200   83.6350  218.3520 C   0  0  0  0  0  0  0  0  0  0  0  0
  141.1450   82.8860  219.3750 C   0  0  0  0  0  0  0  0  0  0  0  0
  141.3820   81.5270  219.4240 C   0  0  0  0  0  0  0  0  0  0  0  0
  140.9300   80.4350  220.3780 C   0  0  2  0  0  0  0  0  0  0  0  0
  141.5790   80.5790  221.6740 C   0  0  0  0  0  0  0  0  0  0  0  0
  142.7520   79.9770  222.0620 C   0  0  0  0  0  0  0  0  0  0  0  0
  143.3040   80.1670  223.3240 C   0  0  0  0  0  0  0  0  0  0  0  0
  142.6400   80.9940  224.2150 C   0  0  0  0  0  0  0  0  0  0  0  0
  141.4890   81.5900  223.8480 N   0  0  0  0  0  0  0  0  0  0  0  0
  140.9590   81.4020  222.6210 C   0  0  0  0  0  0  0  0  0  0  0  0
  138.2400   78.8770  220.7550 C   0  0  0  0  0  0  0  0  0  0  0  0
  137.2150   79.7330  221.5220 C   0  0  0  0  0  0  0  0  0  0  0  0
  139.0818   84.2721  222.6856 H   0  0  0  0  0  0  0  0  0  0  0  0
  140.0011   83.9882  221.1688 H   0  0  0  0  0  0  0  0  0  0  0  0
  138.5892   85.0987  221.1688 H   0  0  0  0  0  0  0  0  0  0  0  0
  137.4935   83.2617  220.3693 H   0  0  0  0  0  0  0  0  0  0  0  0
  138.6927   82.1169  221.0487 H   0  0  0  0  0  0  0  0  0  0  0  0
  138.5013   82.3635  225.3416 H   0  0  0  0  0  0  0  0  0  0  0  0
  137.5661   82.4037  227.6319 H   0  0  0  0  0  0  0  0  0  0  0  0
  135.2657   81.6364  228.0865 H   0  0  0  0  0  0  0  0  0  0  0  0
  133.8471   80.8057  226.1987 H   0  0  0  0  0  0  0  0  0  0  0  0
  134.7838   80.7623  223.8866 H   0  0  0  0  0  0  0  0  0  0  0  0
  138.8891   80.8730  222.1441 H   0  0  0  0  0  0  0  0  0  0  0  0
  139.1692   79.7752  224.2667 H   0  0  0  0  0  0  0  0  0  0  0  0
  137.4229   79.3668  224.3741 H   0  0  0  0  0  0  0  0  0  0  0  0
  139.2888   77.5449  223.6949 H   0  0  0  0  0  0  0  0  0  0  0  0
  137.6257   77.5232  223.0083 H   0  0  0  0  0  0  0  0  0  0  0  0
  140.7149   77.2293  219.5445 H   0  0  0  0  0  0  0  0  0  0  0  0
  142.6620   76.7380  221.1850 H   0  0  0  0  0  0  0  0  0  0  0  0
  143.3170   77.8550  220.1130 H   0  0  0  0  0  0  0  0  0  0  0  0
  140.1934   79.0487  219.0561 H   0  0  0  0  0  0  0  0  0  0  0  0
  143.2709   79.2309  219.1489 H   0  0  0  0  0  0  0  0  0  0  0  0
  142.3049   78.8894  217.7416 H   0  0  0  0  0  0  0  0  0  0  0  0
  143.3829   81.2500  216.6775 H   0  0  0  0  0  0  0  0  0  0  0  0
  142.9599   83.7018  216.5873 H   0  0  0  0  0  0  0  0  0  0  0  0
  141.5257   84.7172  218.3194 H   0  0  0  0  0  0  0  0  0  0  0  0
  140.5114   83.3699  220.1329 H   0  0  0  0  0  0  0  0  0  0  0  0
  139.8797   80.4504  220.7045 H   0  0  0  0  0  0  0  0  0  0  0  0
  143.2728   79.3214  221.3486 H   0  0  0  0  0  0  0  0  0  0  0  0
  144.2448   79.6727  223.6078 H   0  0  0  0  0  0  0  0  0  0  0  0
  143.0519   81.1638  225.2207 H   0  0  0  0  0  0  0  0  0  0  0  0
  140.0177   81.9075  222.3593 H   0  0  0  0  0  0  0  0  0  0  0  0
  138.8198   79.5128  220.0697 H   0  0  0  0  0  0  0  0  0  0  0  0
  137.7276   78.1043  220.1630 H   0  0  0  0  0  0  0  0  0  0  0  0
  136.7435   80.4596  220.8440 H   0  0  0  0  0  0  0  0  0  0  0  0
  136.4153   79.1093  221.9480 H   0  0  0  0  0  0  0  0  0  0  0  0
  1  2  1  0
  2  3  1  0
  3  4  2  0
  3  5  1  0
  5  6  1  0
  6  7  2  0
  7  8  1  0
  8  9  2  0
  9 10  1  0
 10 11  2  0
  5 12  1  0
 12 13  1  0
 13 14  1  0
 14 15  1  0
 15 16  1  0
 16 17  2  0
 16 18  1  0
 18 19  1  0
 18 20  1  0
 20 21  1  0
 21 22  1  0
 22 23  2  0
 23 24  1  0
 24 25  2  0
 25 26  1  0
 26 27  2  0
 27 28  1  0
 28 29  1  0
 29 30  2  0
 30 31  1  0
 31 32  2  0
 32 33  1  0
 33 34  2  0
 15 35  1  0
 35 36  1  0
 11  6  1  0
 36 12  1  0
 28 20  1  0
 34 29  1  0
 27 22  1  0
  1 37  1  0
  1 38  1  0
  1 39  1  0
  2 40  1  0
  2 41  1  0
  7 42  1  0
  8 43  1  0
  9 44  1  0
 10 45  1  0
 11 46  1  0
 12 47  1  0
 13 48  1  0
 13 49  1  0
 14 50  1  0
 14 51  1  0
 18 52  1  6
 19 53  1  0
 19 54  1  0
 20 55  1  6
 21 56  1  0
 21 57  1  0
 23 58  1  0
 24 59  1  0
 25 60  1  0
 26 61  1  0
 28 62  1  1
 30 63  1  0
 31 64  1  0
 32 65  1  0
 34 66  1  0
 35 67  1  0
 35 68  1  0
 36 69  1  0
 36 70  1  0
M  END
>  <smiles>  (38) 
CCC(=O)N(c1ccccc1)C1CCN(C(=O)[C@H](N)C2Cc3ccccc3C2c2cccnc2)CC1

>  <score_type>  (38) 
oracle

>  <origin>  (38) 
autodockgpu

>  <m_score__min__energy>  (38) 
-9.3599999999999994

>  <m_primary>  (38) 
energy

>  <rmsd>  (38) 
4.947808192926138

>  <m_score__min__rmsd>  (38) 
4.947808192926138

>  <meeko>  (38) 
{"free_energy": -7.23, "intermolecular_energy": -9.62, "internal_energy": -4.21, "cluster_size": 12, "cluster_id": 4, "rank_in_cluster": 4}

>  <energy>  (38) 
-7.62

>  <cluster_rmsd>  (38) 
0.0

>  <cluster>  (38) 
3

$$$$

     RDKit          3D

 70 74  0  0  0  0  0  0  0  0999 V2000
  137.7910   67.9090  222.3320 C   0  0  0  0  0  0  0  0  0  0  0  0
  138.8060   68.2350  223.4010 C   0  0  0  0  0  0  0  0  0  0  0  0
  138.3090   69.3860  224.2000 C   0  0  0  0  0  0  0  0  0  0  0  0
  137.0990   69.3410  224.5510 O   0  0  0  0  0  0  0  0  0  0  0  0
  139.1650   70.4810  224.5470 N   0  0  0  0  0  0  0  0  0  0  0  0
  139.8150   70.4350  225.8110 C   0  0  0  0  0  0  0  0  0  0  0  0
  139.7950   69.2000  226.4630 C   0  0  0  0  0  0  0  0  0  0  0  0
  140.4050   69.0850  227.6950 C   0  0  0  0  0  0  0  0  0  0  0  0
  141.0300   70.1540  228.2970 C   0  0  0  0  0  0  0  0  0  0  0  0
  141.0490   71.3830  227.6460 C   0  0  0  0  0  0  0  0  0  0  0  0
  140.4340   71.5050  226.3980 C   0  0  0  0  0  0  0  0  0  0  0  0
  139.3060   71.5380  223.5940 C   0  0  0  0  0  0  0  0  0  0  0  0
  140.6820   71.4440  222.9650 C   0  0  0  0  0  0  0  0  0  0  0  0
  140.6910   72.2000  221.6500 C   0  0  0  0  0  0  0  0  0  0  0  0
  139.7060   73.2940  221.6950 N   0  0  0  0  0  0  0  0  0  0  0  0
  140.2020   74.6000  221.6330 C   0  0  0  0  0  0  0  0  0  0  0  0
  141.4750   74.7260  221.5540 O   0  0  0  0  0  0  0  0  0  0  0  0
  139.4370   75.8670  221.6500 C   0  0  2  0  0  0  0  0  0  0  0  0
  138.7800   76.1840  220.4280 N   0  0  0  0  0  0  0  0  0  0  0  0
  140.1540   76.9590  222.3450 C   0  0  2  0  0  0  0  0  0  0  0  0
  139.2920   78.1850  222.5730 C   0  0  0  0  0  0  0  0  0  0  0  0
  140.3350   79.2260  222.9170 C   0  0  0  0  0  0  0  0  0  0  0  0
  140.1450   80.4350  223.5520 C   0  0  0  0  0  0  0  0  0  0  0  0
  141.2130   81.2610  223.7940 C   0  0  0  0  0  0  0  0  0  0  0  0
  142.4530   80.8370  223.3840 C   0  0  0  0  0  0  0  0  0  0  0  0
  142.6620   79.6200  222.7420 C   0  0  0  0  0  0  0  0  0  0  0  0
  141.5810   78.7950  222.5020 C   0  0  0  0  0  0  0  0  0  0  0  0
  141.4480   77.4360  221.8380 C   0  0  2  0  0  0  0  0  0  0  0  0
  141.6690   77.5380  220.4020 C   0  0  0  0  0  0  0  0  0  0  0  0
  141.0030   78.3760  219.5390 C   0  0  0  0  0  0  0  0  0  0  0  0
  141.2750   78.4090  218.1760 C   0  0  0  0  0  0  0  0  0  0  0  0
  142.2520   77.5620  217.6790 C   0  0  0  0  0  0  0  0  0  0  0  0
  142.9110   76.7350  218.5140 N   0  0  0  0  0  0  0  0  0  0  0  0
  142.6430   76.7090  219.8360 C   0  0  0  0  0  0  0  0  0  0  0  0
  138.3270   72.8950  221.8090 C   0  0  0  0  0  0  0  0  0  0  0  0
  138.2910   71.5060  222.4720 C   0  0  0  0  0  0  0  0  0  0  0  0
  136.8453   67.6053  222.8047 H   0  0  0  0  0  0  0  0  0  0  0  0
  137.6194   68.7972  221.7062 H   0  0  0  0  0  0  0  0  0  0  0  0
  138.1687   67.0870  221.7062 H   0  0  0  0  0  0  0  0  0  0  0  0
  138.9453   67.3628  224.0566 H   0  0  0  0  0  0  0  0  0  0  0  0
  139.7690   68.4918  222.9355 H   0  0  0  0  0  0  0  0  0  0  0  0
  139.3006   68.3326  226.0013 H   0  0  0  0  0  0  0  0  0  0  0  0
  140.3917   68.1132  228.2102 H   0  0  0  0  0  0  0  0  0  0  0  0
  141.5084   70.0375  229.2806 H   0  0  0  0  0  0  0  0  0  0  0  0
  141.5432   72.2497  228.1092 H   0  0  0  0  0  0  0  0  0  0  0  0
  140.4474   72.4750  225.8795 H   0  0  0  0  0  0  0  0  0  0  0  0
  139.1486   72.4732  224.1513 H   0  0  0  0  0  0  0  0  0  0  0  0
  141.4266   71.8831  223.6452 H   0  0  0  0  0  0  0  0  0  0  0  0
  140.9295   70.3880  222.7819 H   0  0  0  0  0  0  0  0  0  0  0  0
  141.6934   72.6184  221.4765 H   0  0  0  0  0  0  0  0  0  0  0  0
  140.4300   71.5105  220.8336 H   0  0  0  0  0  0  0  0  0  0  0  0
  138.5641   75.6977  222.2976 H   0  0  0  0  0  0  0  0  0  0  0  0
  137.7770   75.9800  220.4200 H   0  0  0  0  0  0  0  0  0  0  0  0
  139.2130   75.8290  219.5600 H   0  0  0  0  0  0  0  0  0  0  0  0
  140.3936   76.4099  223.2676 H   0  0  0  0  0  0  0  0  0  0  0  0
  138.7347   78.4591  221.6651 H   0  0  0  0  0  0  0  0  0  0  0  0
  138.5184   78.0528  223.3437 H   0  0  0  0  0  0  0  0  0  0  0  0
  139.1349   80.7378  223.8652 H   0  0  0  0  0  0  0  0  0  0  0  0
  141.0807   82.2293  224.2989 H   0  0  0  0  0  0  0  0  0  0  0  0
  143.3196   81.4881  223.5713 H   0  0  0  0  0  0  0  0  0  0  0  0
  143.6733   79.3198  222.4304 H   0  0  0  0  0  0  0  0  0  0  0  0
  142.2074   76.6776  222.0791 H   0  0  0  0  0  0  0  0  0  0  0  0
  140.2273   79.0441  219.9414 H   0  0  0  0  0  0  0  0  0  0  0  0
  140.7278   79.0910  217.5086 H   0  0  0  0  0  0  0  0  0  0  0  0
  142.4893   77.5646  216.6049 H   0  0  0  0  0  0  0  0  0  0  0  0
  143.2038   76.0195  220.4841 H   0  0  0  0  0  0  0  0  0  0  0  0
  137.7780   73.6195  222.4285 H   0  0  0  0  0  0  0  0  0  0  0  0
  137.8547   72.8587  220.8162 H   0  0  0  0  0  0  0  0  0  0  0  0
  137.2873   71.3026  222.8735 H   0  0  0  0  0  0  0  0  0  0  0  0
  138.5255   70.7131  221.7465 H   0  0  0  0  0  0  0  0  0  0  0  0
  1  2  1  0
  2  3  1  0
  3  4  2  0
  3  5  1  0
  5  6  1  0
  6  7  2  0
  7  8  1  0
  8  9  2  0
  9 10  1  0
 10 11  2  0
  5 12  1  0
 12 13  1  0
 13 14  1  0
 14 15  1  0
 15 16  1  0
 16 17  2  0
 16 18  1  0
 18 19  1  0
 18 20  1  0
 20 21  1  0
 21 22  1  0
 22 23  2  0
 23 24  1  0
 24 25  2  0
 25 26  1  0
 26 27  2  0
 27 28  1  0
 28 29  1  0
 29 30  2  0
 30 31  1  0
 31 32  2  0
 32 33  1  0
 33 34  2  0
 15 35  1  0
 35 36  1  0
 11  6  1  0
 36 12  1  0
 28 20  1  0
 34 29  1  0
 27 22  1  0
  1 37  1  0
  1 38  1  0
  1 39  1  0
  2 40  1  0
  2 41  1  0
  7 42  1  0
  8 43  1  0
  9 44  1  0
 10 45  1  0
 11 46  1  0
 12 47  1  0
 13 48  1  0
 13 49  1  0
 14 50  1  0
 14 51  1  0
 18 52  1  1
 19 53  1  0
 19 54  1  0
 20 55  1  1
 21 56  1  0
 21 57  1  0
 23 58  1  0
 24 59  1  0
 25 60  1  0
 26 61  1  0
 28 62  1  1
 30 63  1  0
 31 64  1  0
 32 65  1  0
 34 66  1  0
 35 67  1  0
 35 68  1  0
 36 69  1  0
 36 70  1  0
M  END
>  <smiles>  (39) 
CCC(=O)N(c1ccccc1)C1CCN(C(=O)[C@H](N)C2Cc3ccccc3C2c2cccnc2)CC1

>  <score_type>  (39) 
oracle

>  <origin>  (39) 
autodockgpu

>  <m_score__min__energy>  (39) 
-9.3599999999999994

>  <m_primary>  (39) 
energy

>  <rmsd>  (39) 
5.382341558077919

>  <m_score__min__rmsd>  (39) 
5.382341558077919

>  <meeko>  (39) 
{"free_energy": -9.31, "intermolecular_energy": -11.7, "internal_energy": -2.26, "cluster_size": 36, "cluster_id": 1, "rank_in_cluster": 16}

>  <energy>  (39) 
-7.36

>  <cluster_rmsd>  (39) 
0.0

>  <cluster>  (39) 
4

$$$$

     RDKit          3D

 70 74  0  0  0  0  0  0  0  0999 V2000
  138.0810   68.0780  222.2260 C   0  0  0  0  0  0  0  0  0  0  0  0
  138.8290   68.2180  223.5310 C   0  0  0  0  0  0  0  0  0  0  0  0
  138.3120   69.4090  224.2560 C   0  0  0  0  0  0  0  0  0  0  0  0
  137.0860   69.3930  224.5530 O   0  0  0  0  0  0  0  0  0  0  0  0
  139.1670   70.5070  224.5940 N   0  0  0  0  0  0  0  0  0  0  0  0
  139.8180   70.4700  225.8580 C   0  0  0  0  0  0  0  0  0  0  0  0
  139.7840   69.2440  226.5270 C   0  0  0  0  0  0  0  0  0  0  0  0
  140.3950   69.1400  227.7600 C   0  0  0  0  0  0  0  0  0  0  0  0
  141.0340   70.2090  228.3460 C   0  0  0  0  0  0  0  0  0  0  0  0
  141.0660   71.4290  227.6790 C   0  0  0  0  0  0  0  0  0  0  0  0
  140.4500   71.5420  226.4300 C   0  0  0  0  0  0  0  0  0  0  0  0
  139.3040   71.5580  223.6340 C   0  0  0  0  0  0  0  0  0  0  0  0
  140.6800   71.4620  223.0050 C   0  0  0  0  0  0  0  0  0  0  0  0
  140.6850   72.2090  221.6850 C   0  0  0  0  0  0  0  0  0  0  0  0
  139.7000   73.3020  221.7230 N   0  0  0  0  0  0  0  0  0  0  0  0
  140.1930   74.6080  221.6530 C   0  0  0  0  0  0  0  0  0  0  0  0
  141.4660   74.7350  221.5710 O   0  0  0  0  0  0  0  0  0  0  0  0
  139.4260   75.8740  221.6610 C   0  0  2  0  0  0  0  0  0  0  0  0
  138.7850   76.1930  220.4310 N   0  0  0  0  0  0  0  0  0  0  0  0
  140.1320   76.9650  222.3690 C   0  0  2  0  0  0  0  0  0  0  0  0
  139.2710   78.1970  222.5710 C   0  0  0  0  0  0  0  0  0  0  0  0
  140.3110   79.2340  222.9360 C   0  0  0  0  0  0  0  0  0  0  0  0
  140.1120   80.4470  223.5610 C   0  0  0  0  0  0  0  0  0  0  0  0
  141.1790   81.2680  223.8240 C   0  0  0  0  0  0  0  0  0  0  0  0
  142.4260   80.8360  223.4470 C   0  0  0  0  0  0  0  0  0  0  0  0
  142.6440   79.6150  222.8150 C   0  0  0  0  0  0  0  0  0  0  0  0
  141.5650   78.7940  222.5530 C   0  0  0  0  0  0  0  0  0  0  0  0
  141.4400   77.4330  221.8920 C   0  0  2  0  0  0  0  0  0  0  0  0
  141.6960   77.5280  220.4610 C   0  0  0  0  0  0  0  0  0  0  0  0
  142.6220   76.7970  219.7550 C   0  0  0  0  0  0  0  0  0  0  0  0
  142.8040   76.9520  218.3850 C   0  0  0  0  0  0  0  0  0  0  0  0
  142.0210   77.8800  217.7180 C   0  0  0  0  0  0  0  0  0  0  0  0
  141.1110   78.6030  218.3980 N   0  0  0  0  0  0  0  0  0  0  0  0
  140.9380   78.4470  219.7270 C   0  0  0  0  0  0  0  0  0  0  0  0
  138.3210   72.9010  221.8410 C   0  0  0  0  0  0  0  0  0  0  0  0
  138.2880   71.5170  222.5140 C   0  0  0  0  0  0  0  0  0  0  0  0
  137.0188   67.8792  222.4317 H   0  0  0  0  0  0  0  0  0  0  0  0
  138.1745   69.0092  221.6480 H   0  0  0  0  0  0  0  0  0  0  0  0
  138.5050   67.2436  221.6480 H   0  0  0  0  0  0  0  0  0  0  0  0
  138.6753   67.3172  224.1434 H   0  0  0  0  0  0  0  0  0  0  0  0
  139.9043   68.3391  223.3336 H   0  0  0  0  0  0  0  0  0  0  0  0
  139.2786   68.3760  226.0784 H   0  0  0  0  0  0  0  0  0  0  0  0
  140.3707   68.1760  228.2892 H   0  0  0  0  0  0  0  0  0  0  0  0
  141.5135   70.0997  229.3299 H   0  0  0  0  0  0  0  0  0  0  0  0
  141.5710   72.2959  228.1301 H   0  0  0  0  0  0  0  0  0  0  0  0
  140.4729   72.5050  225.8989 H   0  0  0  0  0  0  0  0  0  0  0  0
  139.1445   72.4969  224.1845 H   0  0  0  0  0  0  0  0  0  0  0  0
  141.4244   71.9075  223.6814 H   0  0  0  0  0  0  0  0  0  0  0  0
  140.9304   70.4053  222.8296 H   0  0  0  0  0  0  0  0  0  0  0  0
  141.6867   72.6270  221.5065 H   0  0  0  0  0  0  0  0  0  0  0  0
  140.4221   71.5132  220.8746 H   0  0  0  0  0  0  0  0  0  0  0  0
  138.5434   75.7021  222.2947 H   0  0  0  0  0  0  0  0  0  0  0  0
  139.4240   76.4540  219.6750 H   0  0  0  0  0  0  0  0  0  0  0  0
  138.0040   76.8670  220.4740 H   0  0  0  0  0  0  0  0  0  0  0  0
  140.3462   76.4183  223.2992 H   0  0  0  0  0  0  0  0  0  0  0  0
  138.7374   78.4701  221.6487 H   0  0  0  0  0  0  0  0  0  0  0  0
  138.4782   78.0722  223.3232 H   0  0  0  0  0  0  0  0  0  0  0  0
  139.0965   80.7566  223.8490 H   0  0  0  0  0  0  0  0  0  0  0  0
  141.0399   82.2398  224.3203 H   0  0  0  0  0  0  0  0  0  0  0  0
  143.2913   81.4831  223.6534 H   0  0  0  0  0  0  0  0  0  0  0  0
  143.6609   79.3086  222.5285 H   0  0  0  0  0  0  0  0  0  0  0  0
  142.1889   76.6715  222.1550 H   0  0  0  0  0  0  0  0  0  0  0  0
  143.2408   76.0636  220.2928 H   0  0  0  0  0  0  0  0  0  0  0  0
  143.5512   76.3526  217.8443 H   0  0  0  0  0  0  0  0  0  0  0  0
  142.1425   78.0260  216.6345 H   0  0  0  0  0  0  0  0  0  0  0  0
  140.1834   79.0566  220.2456 H   0  0  0  0  0  0  0  0  0  0  0  0
  137.7711   73.6289  222.4556 H   0  0  0  0  0  0  0  0  0  0  0  0
  137.8481   72.8566  220.8488 H   0  0  0  0  0  0  0  0  0  0  0  0
  137.2851   71.3151  222.9183 H   0  0  0  0  0  0  0  0  0  0  0  0
  138.5228   70.7194  221.7938 H   0  0  0  0  0  0  0  0  0  0  0  0
  1  2  1  0
  2  3  1  0
  3  4  2  0
  3  5  1  0
  5  6  1  0
  6  7  2  0
  7  8  1  0
  8  9  2  0
  9 10  1  0
 10 11  2  0
  5 12  1  0
 12 13  1  0
 13 14  1  0
 14 15  1  0
 15 16  1  0
 16 17  2  0
 16 18  1  0
 18 19  1  0
 18 20  1  0
 20 21  1  0
 21 22  1  0
 22 23  2  0
 23 24  1  0
 24 25  2  0
 25 26  1  0
 26 27  2  0
 27 28  1  0
 28 29  1  0
 29 30  2  0
 30 31  1  0
 31 32  2  0
 32 33  1  0
 33 34  2  0
 15 35  1  0
 35 36  1  0
 11  6  1  0
 36 12  1  0
 28 20  1  0
 34 29  1  0
 27 22  1  0
  1 37  1  0
  1 38  1  0
  1 39  1  0
  2 40  1  0
  2 41  1  0
  7 42  1  0
  8 43  1  0
  9 44  1  0
 10 45  1  0
 11 46  1  0
 12 47  1  0
 13 48  1  0
 13 49  1  0
 14 50  1  0
 14 51  1  0
 18 52  1  1
 19 53  1  0
 19 54  1  0
 20 55  1  1
 21 56  1  0
 21 57  1  0
 23 58  1  0
 24 59  1  0
 25 60  1  0
 26 61  1  0
 28 62  1  1
 30 63  1  0
 31 64  1  0
 32 65  1  0
 34 66  1  0
 35 67  1  0
 35 68  1  0
 36 69  1  0
 36 70  1  0
M  END
>  <smiles>  (40) 
CCC(=O)N(c1ccccc1)C1CCN(C(=O)[C@H](N)C2Cc3ccccc3C2c2cccnc2)CC1

>  <score_type>  (40) 
oracle

>  <origin>  (40) 
autodockgpu

>  <m_score__min__energy>  (40) 
-9.3599999999999994

>  <m_primary>  (40) 
energy

>  <rmsd>  (40) 
5.387855239400626

>  <m_score__min__rmsd>  (40) 
5.387855239400626

>  <meeko>  (40) 
{"free_energy": -9.34, "intermolecular_energy": -11.72, "internal_energy": -2.29, "cluster_size": 36, "cluster_id": 1, "rank_in_cluster": 8}

>  <energy>  (40) 
-7.24

>  <cluster_rmsd>  (40) 
0.58

>  <cluster>  (40) 
4

$$$$

     RDKit          3D

 70 74  0  0  0  0  0  0  0  0999 V2000
  137.8230   83.0140  220.1940 C   0  0  0  0  0  0  0  0  0  0  0  0
  138.3520   83.2070  221.5950 C   0  0  0  0  0  0  0  0  0  0  0  0
  137.2780   82.8640  222.5650 C   0  0  0  0  0  0  0  0  0  0  0  0
  136.3700   83.7250  222.7200 O   0  0  0  0  0  0  0  0  0  0  0  0
  137.2860   81.6230  223.2810 N   0  0  0  0  0  0  0  0  0  0  0  0
  136.6280   81.5860  224.5400 C   0  0  0  0  0  0  0  0  0  0  0  0
  137.3820   82.0100  225.6370 C   0  0  0  0  0  0  0  0  0  0  0  0
  136.8040   81.9960  226.8900 C   0  0  0  0  0  0  0  0  0  0  0  0
  135.5080   81.5760  227.0870 C   0  0  0  0  0  0  0  0  0  0  0  0
  134.7580   81.1540  225.9940 C   0  0  0  0  0  0  0  0  0  0  0  0
  135.3370   81.1660  224.7220 C   0  0  0  0  0  0  0  0  0  0  0  0
  137.9520   80.5140  222.6730 C   0  0  0  0  0  0  0  0  0  0  0  0
  138.2210   79.4680  223.7360 C   0  0  0  0  0  0  0  0  0  0  0  0
  138.4620   78.1240  223.0750 C   0  0  0  0  0  0  0  0  0  0  0  0
  139.0260   78.3210  221.7290 N   0  0  0  0  0  0  0  0  0  0  0  0
  140.3290   77.8640  221.5110 C   0  0  0  0  0  0  0  0  0  0  0  0
  140.9200   77.3210  222.5110 O   0  0  0  0  0  0  0  0  0  0  0  0
  141.1200   77.9280  220.2620 C   0  0  2  0  0  0  0  0  0  0  0  0
  142.3950   77.2980  220.3290 N   0  0  0  0  0  0  0  0  0  0  0  0
  141.0440   79.2510  219.6030 C   0  0  2  0  0  0  0  0  0  0  0  0
  142.2030   79.5140  218.6630 C   0  0  0  0  0  0  0  0  0  0  0  0
  142.0870   81.0080  218.4530 C   0  0  0  0  0  0  0  0  0  0  0  0
  142.6390   81.7650  217.4410 C   0  0  0  0  0  0  0  0  0  0  0  0
  142.4240   83.1190  217.3990 C   0  0  0  0  0  0  0  0  0  0  0  0
  141.6510   83.6740  218.3890 C   0  0  0  0  0  0  0  0  0  0  0  0
  141.0870   82.9240  219.4170 C   0  0  0  0  0  0  0  0  0  0  0  0
  141.3080   81.5620  219.4520 C   0  0  0  0  0  0  0  0  0  0  0  0
  140.8620   80.4680  220.4070 C   0  0  2  0  0  0  0  0  0  0  0  0
  141.5380   80.5950  221.6900 C   0  0  0  0  0  0  0  0  0  0  0  0
  142.7230   79.9960  222.0440 C   0  0  0  0  0  0  0  0  0  0  0  0
  143.3000   80.1690  223.2960 C   0  0  0  0  0  0  0  0  0  0  0  0
  142.6490   80.9750  224.2160 C   0  0  0  0  0  0  0  0  0  0  0  0
  141.4860   81.5680  223.8830 N   0  0  0  0  0  0  0  0  0  0  0  0
  140.9320   81.3960  222.6650 C   0  0  0  0  0  0  0  0  0  0  0  0
  138.1680   78.9810  220.7780 C   0  0  0  0  0  0  0  0  0  0  0  0
  137.1660   79.8450  221.5660 C   0  0  0  0  0  0  0  0  0  0  0  0
  136.7906   82.6373  220.2406 H   0  0  0  0  0  0  0  0  0  0  0  0
  137.8387   83.9758  219.6604 H   0  0  0  0  0  0  0  0  0  0  0  0
  138.4544   82.2883  219.6604 H   0  0  0  0  0  0  0  0  0  0  0  0
  139.2194   82.5500  221.7563 H   0  0  0  0  0  0  0  0  0  0  0  0
  138.6627   84.2527  221.7361 H   0  0  0  0  0  0  0  0  0  0  0  0
  138.4198   82.3496  225.5041 H   0  0  0  0  0  0  0  0  0  0  0  0
  137.3953   82.3297  227.7554 H   0  0  0  0  0  0  0  0  0  0  0  0
  135.0707   81.5741  228.0964 H   0  0  0  0  0  0  0  0  0  0  0  0
  133.7205   80.8145  226.1294 H   0  0  0  0  0  0  0  0  0  0  0  0
  134.7476   80.8335  223.8548 H   0  0  0  0  0  0  0  0  0  0  0  0
  138.8705   80.9193  222.2234 H   0  0  0  0  0  0  0  0  0  0  0  0
  139.1100   79.7556  224.3164 H   0  0  0  0  0  0  0  0  0  0  0  0
  137.3521   79.3957  224.4067 H   0  0  0  0  0  0  0  0  0  0  0  0
  139.1673   77.5394  223.6839 H   0  0  0  0  0  0  0  0  0  0  0  0
  137.5067   77.5850  222.9919 H   0  0  0  0  0  0  0  0  0  0  0  0
  140.6185   77.2669  219.5399 H   0  0  0  0  0  0  0  0  0  0  0  0
  142.5640   76.7740  221.1920 H   0  0  0  0  0  0  0  0  0  0  0  0
  143.2160   77.8840  220.1130 H   0  0  0  0  0  0  0  0  0  0  0  0
  140.0839   79.1018  219.0873 H   0  0  0  0  0  0  0  0  0  0  0  0
  143.1645   79.2466  219.1257 H   0  0  0  0  0  0  0  0  0  0  0  0
  142.1695   78.9262  217.7338 H   0  0  0  0  0  0  0  0  0  0  0  0
  143.2527   81.2822  216.6662 H   0  0  0  0  0  0  0  0  0  0  0  0
  142.8560   83.7391  216.5997 H   0  0  0  0  0  0  0  0  0  0  0  0
  141.4696   84.7587  218.3688 H   0  0  0  0  0  0  0  0  0  0  0  0
  140.4740   83.4098  220.1904 H   0  0  0  0  0  0  0  0  0  0  0  0
  139.8188   80.4923  220.7551 H   0  0  0  0  0  0  0  0  0  0  0  0
  143.2335   79.3561  221.3092 H   0  0  0  0  0  0  0  0  0  0  0  0
  144.2508   79.6779  223.5507 H   0  0  0  0  0  0  0  0  0  0  0  0
  143.0807   81.1303  225.2158 H   0  0  0  0  0  0  0  0  0  0  0  0
  139.9810   81.8974  222.4324 H   0  0  0  0  0  0  0  0  0  0  0  0
  138.7684   79.6182  220.1120 H   0  0  0  0  0  0  0  0  0  0  0  0
  137.6355   78.2404  220.1633 H   0  0  0  0  0  0  0  0  0  0  0  0
  136.7175   80.6030  220.9070 H   0  0  0  0  0  0  0  0  0  0  0  0
  136.3477   79.2330  221.9733 H   0  0  0  0  0  0  0  0  0  0  0  0
  1  2  1  0
  2  3  1  0
  3  4  2  0
  3  5  1  0
  5  6  1  0
  6  7  2  0
  7  8  1  0
  8  9  2  0
  9 10  1  0
 10 11  2  0
  5 12  1  0
 12 13  1  0
 13 14  1  0
 14 15  1  0
 15 16  1  0
 16 17  2  0
 16 18  1  0
 18 19  1  0
 18 20  1  0
 20 21  1  0
 21 22  1  0
 22 23  2  0
 23 24  1  0
 24 25  2  0
 25 26  1  0
 26 27  2  0
 27 28  1  0
 28 29  1  0
 29 30  2  0
 30 31  1  0
 31 32  2  0
 32 33  1  0
 33 34  2  0
 15 35  1  0
 35 36  1  0
 11  6  1  0
 36 12  1  0
 28 20  1  0
 34 29  1  0
 27 22  1  0
  1 37  1  0
  1 38  1  0
  1 39  1  0
  2 40  1  0
  2 41  1  0
  7 42  1  0
  8 43  1  0
  9 44  1  0
 10 45  1  0
 11 46  1  0
 12 47  1  0
 13 48  1  0
 13 49  1  0
 14 50  1  0
 14 51  1  0
 18 52  1  6
 19 53  1  0
 19 54  1  0
 20 55  1  6
 21 56  1  0
 21 57  1  0
 23 58  1  0
 24 59  1  0
 25 60  1  0
 26 61  1  0
 28 62  1  1
 30 63  1  0
 31 64  1  0
 32 65  1  0
 34 66  1  0
 35 67  1  0
 35 68  1  0
 36 69  1  0
 36 70  1  0
M  END
>  <smiles>  (41) 
CCC(=O)N(c1ccccc1)C1CCN(C(=O)[C@H](N)C2Cc3ccccc3C2c2cccnc2)CC1

>  <score_type>  (41) 
oracle

>  <origin>  (41) 
autodockgpu

>  <m_score__min__energy>  (41) 
-9.3599999999999994

>  <m_primary>  (41) 
energy

>  <rmsd>  (41) 
4.975195663790465

>  <m_score__min__rmsd>  (41) 
4.975195663790465

>  <meeko>  (41) 
{"free_energy": -7.14, "intermolecular_energy": -9.53, "internal_energy": -4.23, "cluster_size": 12, "cluster_id": 4, "rank_in_cluster": 7}

>  <energy>  (41) 
-7.23

>  <cluster_rmsd>  (41) 
0.2

>  <cluster>  (41) 
4

$$$$

     RDKit          3D

 70 74  0  0  0  0  0  0  0  0999 V2000
  138.7080   68.1840  222.1350 C   0  0  0  0  0  0  0  0  0  0  0  0
  138.8280   68.1290  223.6390 C   0  0  0  0  0  0  0  0  0  0  0  0
  138.2630   69.3790  224.2130 C   0  0  0  0  0  0  0  0  0  0  0  0
  137.0110   69.4100  224.3590 O   0  0  0  0  0  0  0  0  0  0  0  0
  139.1020   70.4820  224.5740 N   0  0  0  0  0  0  0  0  0  0  0  0
  139.7280   70.4430  225.8510 C   0  0  0  0  0  0  0  0  0  0  0  0
  140.5430   71.5320  226.1660 C   0  0  0  0  0  0  0  0  0  0  0  0
  141.1820   71.5560  227.3890 C   0  0  0  0  0  0  0  0  0  0  0  0
  141.0380   70.5370  228.3020 C   0  0  0  0  0  0  0  0  0  0  0  0
  140.2260   69.4520  227.9870 C   0  0  0  0  0  0  0  0  0  0  0  0
  139.5760   69.4220  226.7510 C   0  0  0  0  0  0  0  0  0  0  0  0
  139.2520   71.5390  223.6230 C   0  0  0  0  0  0  0  0  0  0  0  0
  140.6280   71.4350  222.9960 C   0  0  0  0  0  0  0  0  0  0  0  0
  140.6440   72.1920  221.6820 C   0  0  0  0  0  0  0  0  0  0  0  0
  139.6680   73.2950  221.7260 N   0  0  0  0  0  0  0  0  0  0  0  0
  140.1740   74.5960  221.6680 C   0  0  0  0  0  0  0  0  0  0  0  0
  141.4490   74.7120  221.5890 O   0  0  0  0  0  0  0  0  0  0  0  0
  139.4200   75.8690  221.6850 C   0  0  2  0  0  0  0  0  0  0  0  0
  138.7690   76.1950  220.4610 N   0  0  0  0  0  0  0  0  0  0  0  0
  140.1420   76.9540  222.3860 C   0  0  2  0  0  0  0  0  0  0  0  0
  139.2940   78.1910  222.6000 C   0  0  0  0  0  0  0  0  0  0  0  0
  140.3470   79.2190  222.9540 C   0  0  0  0  0  0  0  0  0  0  0  0
  140.1650   80.4330  223.5830 C   0  0  0  0  0  0  0  0  0  0  0  0
  141.2410   81.2450  223.8350 C   0  0  0  0  0  0  0  0  0  0  0  0
  142.4800   80.8030  223.4420 C   0  0  0  0  0  0  0  0  0  0  0  0
  142.6810   79.5820  222.8060 C   0  0  0  0  0  0  0  0  0  0  0  0
  141.5920   78.7710  222.5560 C   0  0  0  0  0  0  0  0  0  0  0  0
  141.4490   77.4110  221.8930 C   0  0  2  0  0  0  0  0  0  0  0  0
  141.6880   77.5060  220.4600 C   0  0  0  0  0  0  0  0  0  0  0  0
  142.5900   76.7600  219.7390 C   0  0  0  0  0  0  0  0  0  0  0  0
  142.7580   76.9170  218.3680 C   0  0  0  0  0  0  0  0  0  0  0  0
  141.9850   77.8630  217.7140 C   0  0  0  0  0  0  0  0  0  0  0  0
  141.0990   78.6010  218.4080 N   0  0  0  0  0  0  0  0  0  0  0  0
  140.9400   78.4430  219.7390 C   0  0  0  0  0  0  0  0  0  0  0  0
  138.2860   72.9060  221.8390 C   0  0  0  0  0  0  0  0  0  0  0  0
  138.2380   71.5160  222.5000 C   0  0  0  0  0  0  0  0  0  0  0  0
  137.7397   68.6278  221.8604 H   0  0  0  0  0  0  0  0  0  0  0  0
  139.5226   68.7986  221.7244 H   0  0  0  0  0  0  0  0  0  0  0  0
  138.7742   67.1657  221.7244 H   0  0  0  0  0  0  0  0  0  0  0  0
  138.2706   67.2616  224.0225 H   0  0  0  0  0  0  0  0  0  0  0  0
  139.8857   68.0321  223.9253 H   0  0  0  0  0  0  0  0  0  0  0  0
  140.6737   72.3576  225.4509 H   0  0  0  0  0  0  0  0  0  0  0  0
  141.8239   72.4131  227.6406 H   0  0  0  0  0  0  0  0  0  0  0  0
  141.5588   70.5796  229.2699 H   0  0  0  0  0  0  0  0  0  0  0  0
  140.0973   68.6271  228.7032 H   0  0  0  0  0  0  0  0  0  0  0  0
  138.9331   68.5664  226.4970 H   0  0  0  0  0  0  0  0  0  0  0  0
  139.1010   72.4749  224.1809 H   0  0  0  0  0  0  0  0  0  0  0  0
  141.3751   71.8679  223.6776 H   0  0  0  0  0  0  0  0  0  0  0  0
  140.8680   70.3773  222.8125 H   0  0  0  0  0  0  0  0  0  0  0  0
  141.6501   72.6020  221.5097 H   0  0  0  0  0  0  0  0  0  0  0  0
  140.3772   71.5051  220.8654 H   0  0  0  0  0  0  0  0  0  0  0  0
  138.5437   75.7040  222.3292 H   0  0  0  0  0  0  0  0  0  0  0  0
  138.2780   75.4130  220.0200 H   0  0  0  0  0  0  0  0  0  0  0  0
  139.3300   76.6950  219.7540 H   0  0  0  0  0  0  0  0  0  0  0  0
  140.3621   76.4061  223.3141 H   0  0  0  0  0  0  0  0  0  0  0  0
  138.7514   78.4699  221.6847 H   0  0  0  0  0  0  0  0  0  0  0  0
  138.5092   78.0714  223.3614 H   0  0  0  0  0  0  0  0  0  0  0  0
  139.1553   80.7503  223.8829 H   0  0  0  0  0  0  0  0  0  0  0  0
  141.1157   82.2169  224.3348 H   0  0  0  0  0  0  0  0  0  0  0  0
  143.3528   81.4429  223.6388 H   0  0  0  0  0  0  0  0  0  0  0  0
  143.6918   79.2677  222.5070 H   0  0  0  0  0  0  0  0  0  0  0  0
  142.1954   76.6431  222.1445 H   0  0  0  0  0  0  0  0  0  0  0  0
  143.2007   76.0120  220.2658 H   0  0  0  0  0  0  0  0  0  0  0  0
  143.4867   76.3053  217.8159 H   0  0  0  0  0  0  0  0  0  0  0  0
  142.0953   78.0105  216.6295 H   0  0  0  0  0  0  0  0  0  0  0  0
  140.2047   79.0658  220.2695 H   0  0  0  0  0  0  0  0  0  0  0  0
  137.7424   73.6338  222.4593 H   0  0  0  0  0  0  0  0  0  0  0  0
  137.8144   72.8744  220.8457 H   0  0  0  0  0  0  0  0  0  0  0  0
  137.2323   71.3200  222.9001 H   0  0  0  0  0  0  0  0  0  0  0  0
  138.4667   70.7221  221.7738 H   0  0  0  0  0  0  0  0  0  0  0  0
  1  2  1  0
  2  3  1  0
  3  4  2  0
  3  5  1  0
  5  6  1  0
  6  7  2  0
  7  8  1  0
  8  9  2  0
  9 10  1  0
 10 11  2  0
  5 12  1  0
 12 13  1  0
 13 14  1  0
 14 15  1  0
 15 16  1  0
 16 17  2  0
 16 18  1  0
 18 19  1  0
 18 20  1  0
 20 21  1  0
 21 22  1  0
 22 23  2  0
 23 24  1  0
 24 25  2  0
 25 26  1  0
 26 27  2  0
 27 28  1  0
 28 29  1  0
 29 30  2  0
 30 31  1  0
 31 32  2  0
 32 33  1  0
 33 34  2  0
 15 35  1  0
 35 36  1  0
 11  6  1  0
 36 12  1  0
 28 20  1  0
 34 29  1  0
 27 22  1  0
  1 37  1  0
  1 38  1  0
  1 39  1  0
  2 40  1  0
  2 41  1  0
  7 42  1  0
  8 43  1  0
  9 44  1  0
 10 45  1  0
 11 46  1  0
 12 47  1  0
 13 48  1  0
 13 49  1  0
 14 50  1  0
 14 51  1  0
 18 52  1  1
 19 53  1  0
 19 54  1  0
 20 55  1  1
 21 56  1  0
 21 57  1  0
 23 58  1  0
 24 59  1  0
 25 60  1  0
 26 61  1  0
 28 62  1  1
 30 63  1  0
 31 64  1  0
 32 65  1  0
 34 66  1  0
 35 67  1  0
 35 68  1  0
 36 69  1  0
 36 70  1  0
M  END
>  <smiles>  (42) 
CCC(=O)N(c1ccccc1)C1CCN(C(=O)[C@H](N)C2Cc3ccccc3C2c2cccnc2)CC1

>  <score_type>  (42) 
oracle

>  <origin>  (42) 
autodockgpu

>  <m_score__min__energy>  (42) 
-9.3599999999999994

>  <m_primary>  (42) 
energy

>  <rmsd>  (42) 
5.4037347450278626

>  <m_score__min__rmsd>  (42) 
5.4037347450278626

>  <meeko>  (42) 
{"free_energy": -9.29, "intermolecular_energy": -11.68, "internal_energy": -2.31, "cluster_size": 36, "cluster_id": 1, "rank_in_cluster": 19}

>  <energy>  (42) 
-7.23

>  <cluster_rmsd>  (42) 
0.2

>  <cluster>  (42) 
4

$$$$

     RDKit          3D

 70 74  0  0  0  0  0  0  0  0999 V2000
  138.0230   67.9150  222.3210 C   0  0  0  0  0  0  0  0  0  0  0  0
  138.8240   68.1580  223.5780 C   0  0  0  0  0  0  0  0  0  0  0  0
  138.2860   69.3610  224.2660 C   0  0  0  0  0  0  0  0  0  0  0  0
  137.0520   69.3510  224.5250 O   0  0  0  0  0  0  0  0  0  0  0  0
  139.1300   70.4660  224.6090 N   0  0  0  0  0  0  0  0  0  0  0  0
  139.7600   70.4420  225.8840 C   0  0  0  0  0  0  0  0  0  0  0  0
  140.4380   71.6060  226.2530 C   0  0  0  0  0  0  0  0  0  0  0  0
  141.0740   71.6490  227.4760 C   0  0  0  0  0  0  0  0  0  0  0  0
  141.0590   70.5770  228.3400 C   0  0  0  0  0  0  0  0  0  0  0  0
  140.3830   69.4180  227.9710 C   0  0  0  0  0  0  0  0  0  0  0  0
  139.7370   69.3690  226.7330 C   0  0  0  0  0  0  0  0  0  0  0  0
  139.2800   71.5090  223.6430 C   0  0  0  0  0  0  0  0  0  0  0  0
  140.6620   71.4070  223.0290 C   0  0  0  0  0  0  0  0  0  0  0  0
  140.6830   72.1450  221.7030 C   0  0  0  0  0  0  0  0  0  0  0  0
  139.6980   73.2400  221.7230 N   0  0  0  0  0  0  0  0  0  0  0  0
  140.1940   74.5440  221.6490 C   0  0  0  0  0  0  0  0  0  0  0  0
  141.4680   74.6690  221.5790 O   0  0  0  0  0  0  0  0  0  0  0  0
  139.4290   75.8110  221.6400 C   0  0  2  0  0  0  0  0  0  0  0  0
  138.8080   76.1250  220.3990 N   0  0  0  0  0  0  0  0  0  0  0  0
  140.1250   76.9050  222.3540 C   0  0  2  0  0  0  0  0  0  0  0  0
  139.2480   78.1200  222.5800 C   0  0  0  0  0  0  0  0  0  0  0  0
  140.2760   79.1680  222.9460 C   0  0  0  0  0  0  0  0  0  0  0  0
  140.0650   80.3710  223.5880 C   0  0  0  0  0  0  0  0  0  0  0  0
  141.1220   81.2050  223.8510 C   0  0  0  0  0  0  0  0  0  0  0  0
  142.3710   80.7970  223.4550 C   0  0  0  0  0  0  0  0  0  0  0  0
  142.6010   79.5870  222.8060 C   0  0  0  0  0  0  0  0  0  0  0  0
  141.5320   78.7530  222.5450 C   0  0  0  0  0  0  0  0  0  0  0  0
  141.4210   77.3980  221.8680 C   0  0  2  0  0  0  0  0  0  0  0  0
  141.6600   77.5140  220.4360 C   0  0  0  0  0  0  0  0  0  0  0  0
  141.0120   78.3670  219.5740 C   0  0  0  0  0  0  0  0  0  0  0  0
  141.3010   78.4120  218.2150 C   0  0  0  0  0  0  0  0  0  0  0  0
  142.2780   77.5630  217.7210 C   0  0  0  0  0  0  0  0  0  0  0  0
  142.9200   76.7220  218.5540 N   0  0  0  0  0  0  0  0  0  0  0  0
  142.6350   76.6830  219.8730 C   0  0  0  0  0  0  0  0  0  0  0  0
  138.3180   72.8410  221.8300 C   0  0  0  0  0  0  0  0  0  0  0  0
  138.2750   71.4620  222.5120 C   0  0  0  0  0  0  0  0  0  0  0  0
  137.0025   67.6054  222.5906 H   0  0  0  0  0  0  0  0  0  0  0  0
  137.9808   68.8408  221.7284 H   0  0  0  0  0  0  0  0  0  0  0  0
  138.5023   67.1218  221.7284 H   0  0  0  0  0  0  0  0  0  0  0  0
  138.7425   67.2851  224.2424 H   0  0  0  0  0  0  0  0  0  0  0  0
  139.8818   68.3169  223.3213 H   0  0  0  0  0  0  0  0  0  0  0  0
  140.4643   72.4748  225.5788 H   0  0  0  0  0  0  0  0  0  0  0  0
  141.6080   72.5649  227.7693 H   0  0  0  0  0  0  0  0  0  0  0  0
  141.5749   70.6360  229.3097 H   0  0  0  0  0  0  0  0  0  0  0  0
  140.3575   68.5501  228.6464 H   0  0  0  0  0  0  0  0  0  0  0  0
  139.2022   68.4546  226.4365 H   0  0  0  0  0  0  0  0  0  0  0  0
  139.1172   72.4519  224.1856 H   0  0  0  0  0  0  0  0  0  0  0  0
  141.3998   71.8561  223.7102 H   0  0  0  0  0  0  0  0  0  0  0  0
  140.9121   70.3487  222.8633 H   0  0  0  0  0  0  0  0  0  0  0  0
  141.6871   72.5607  221.5328 H   0  0  0  0  0  0  0  0  0  0  0  0
  140.4288   71.4440  220.8943 H   0  0  0  0  0  0  0  0  0  0  0  0
  138.5372   75.6430  222.2616 H   0  0  0  0  0  0  0  0  0  0  0  0
  137.9270   75.6320  220.2280 H   0  0  0  0  0  0  0  0  0  0  0  0
  139.4010   76.0780  219.5560 H   0  0  0  0  0  0  0  0  0  0  0  0
  140.3568   76.3519  223.2762 H   0  0  0  0  0  0  0  0  0  0  0  0
  138.7001   78.3959  221.6669 H   0  0  0  0  0  0  0  0  0  0  0  0
  138.4654   77.9741  223.3391 H   0  0  0  0  0  0  0  0  0  0  0  0
  139.0478   80.6617  223.8893 H   0  0  0  0  0  0  0  0  0  0  0  0
  140.9735   82.1678  224.3618 H   0  0  0  0  0  0  0  0  0  0  0  0
  143.2284   81.4551  223.6594 H   0  0  0  0  0  0  0  0  0  0  0  0
  143.6194   79.2996  222.5056 H   0  0  0  0  0  0  0  0  0  0  0  0
  142.1844   76.6448  222.1127 H   0  0  0  0  0  0  0  0  0  0  0  0
  140.2373   79.0377  219.9740 H   0  0  0  0  0  0  0  0  0  0  0  0
  140.7670   79.1048  217.5481 H   0  0  0  0  0  0  0  0  0  0  0  0
  142.5289   77.5759  216.6501 H   0  0  0  0  0  0  0  0  0  0  0  0
  143.1819   75.9816  220.5203 H   0  0  0  0  0  0  0  0  0  0  0  0
  137.7629   73.5739  222.4339 H   0  0  0  0  0  0  0  0  0  0  0  0
  137.8559   72.7897  220.8331 H   0  0  0  0  0  0  0  0  0  0  0  0
  137.2675   71.2649  222.9071 H   0  0  0  0  0  0  0  0  0  0  0  0
  138.5156   70.6589  221.7998 H   0  0  0  0  0  0  0  0  0  0  0  0
  1  2  1  0
  2  3  1  0
  3  4  2  0
  3  5  1  0
  5  6  1  0
  6  7  2  0
  7  8  1  0
  8  9  2  0
  9 10  1  0
 10 11  2  0
  5 12  1  0
 12 13  1  0
 13 14  1  0
 14 15  1  0
 15 16  1  0
 16 17  2  0
 16 18  1  0
 18 19  1  0
 18 20  1  0
 20 21  1  0
 21 22  1  0
 22 23  2  0
 23 24  1  0
 24 25  2  0
 25 26  1  0
 26 27  2  0
 27 28  1  0
 28 29  1  0
 29 30  2  0
 30 31  1  0
 31 32  2  0
 32 33  1  0
 33 34  2  0
 15 35  1  0
 35 36  1  0
 11  6  1  0
 36 12  1  0
 28 20  1  0
 34 29  1  0
 27 22  1  0
  1 37  1  0
  1 38  1  0
  1 39  1  0
  2 40  1  0
  2 41  1  0
  7 42  1  0
  8 43  1  0
  9 44  1  0
 10 45  1  0
 11 46  1  0
 12 47  1  0
 13 48  1  0
 13 49  1  0
 14 50  1  0
 14 51  1  0
 18 52  1  1
 19 53  1  0
 19 54  1  0
 20 55  1  1
 21 56  1  0
 21 57  1  0
 23 58  1  0
 24 59  1  0
 25 60  1  0
 26 61  1  0
 28 62  1  1
 30 63  1  0
 31 64  1  0
 32 65  1  0
 34 66  1  0
 35 67  1  0
 35 68  1  0
 36 69  1  0
 36 70  1  0
M  END
>  <smiles>  (43) 
CCC(=O)N(c1ccccc1)C1CCN(C(=O)[C@H](N)C2Cc3ccccc3C2c2cccnc2)CC1

>  <score_type>  (43) 
oracle

>  <origin>  (43) 
autodockgpu

>  <m_score__min__energy>  (43) 
-9.3599999999999994

>  <m_primary>  (43) 
energy

>  <rmsd>  (43) 
5.431217588208406

>  <m_score__min__rmsd>  (43) 
5.431217588208406

>  <meeko>  (43) 
{"free_energy": -9.29, "intermolecular_energy": -11.68, "internal_energy": -2.29, "cluster_size": 36, "cluster_id": 1, "rank_in_cluster": 18}

>  <energy>  (43) 
-7.21

>  <cluster_rmsd>  (43) 
0.61

>  <cluster>  (43) 
4

$$$$

     RDKit          3D

 70 74  0  0  0  0  0  0  0  0999 V2000
  136.2160   70.0810  224.5040 C   0  0  0  0  0  0  0  0  0  0  0  0
  137.2770   69.0940  224.9280 C   0  0  0  0  0  0  0  0  0  0  0  0
  138.5470   69.4220  224.2280 C   0  0  0  0  0  0  0  0  0  0  0  0
  138.9070   68.6230  223.3210 O   0  0  0  0  0  0  0  0  0  0  0  0
  139.3120   70.5830  224.5710 N   0  0  0  0  0  0  0  0  0  0  0  0
  139.9460   70.6010  225.8440 C   0  0  0  0  0  0  0  0  0  0  0  0
  140.0250   69.3730  226.5050 C   0  0  0  0  0  0  0  0  0  0  0  0
  140.6250   69.3200  227.7460 C   0  0  0  0  0  0  0  0  0  0  0  0
  141.1480   70.4430  228.3470 C   0  0  0  0  0  0  0  0  0  0  0  0
  141.0690   71.6650  227.6880 C   0  0  0  0  0  0  0  0  0  0  0  0
  140.4610   71.7250  226.4310 C   0  0  0  0  0  0  0  0  0  0  0  0
  139.3840   71.6370  223.6070 C   0  0  0  0  0  0  0  0  0  0  0  0
  140.7030   71.5290  222.8690 C   0  0  0  0  0  0  0  0  0  0  0  0
  140.6110   72.2820  221.5550 C   0  0  0  0  0  0  0  0  0  0  0  0
  139.6430   73.3860  221.6770 N   0  0  0  0  0  0  0  0  0  0  0  0
  140.1440   74.6870  221.5720 C   0  0  0  0  0  0  0  0  0  0  0  0
  141.4080   74.8010  221.3880 O   0  0  0  0  0  0  0  0  0  0  0  0
  139.3950   75.9600  221.6470 C   0  0  2  0  0  0  0  0  0  0  0  0
  138.7100   76.3220  220.4530 N   0  0  0  0  0  0  0  0  0  0  0  0
  140.1410   77.0230  222.3570 C   0  0  2  0  0  0  0  0  0  0  0  0
  139.3100   78.2640  222.6130 C   0  0  0  0  0  0  0  0  0  0  0  0
  140.3800   79.2740  222.9680 C   0  0  0  0  0  0  0  0  0  0  0  0
  140.2220   80.4760  223.6260 C   0  0  0  0  0  0  0  0  0  0  0  0
  141.3110   81.2720  223.8740 C   0  0  0  0  0  0  0  0  0  0  0  0
  142.5380   80.8270  223.4480 C   0  0  0  0  0  0  0  0  0  0  0  0
  142.7140   79.6170  222.7830 C   0  0  0  0  0  0  0  0  0  0  0  0
  141.6130   78.8220  222.5370 C   0  0  0  0  0  0  0  0  0  0  0  0
  141.4430   77.4780  221.8490 C   0  0  2  0  0  0  0  0  0  0  0  0
  141.6560   77.6010  220.4140 C   0  0  0  0  0  0  0  0  0  0  0  0
  142.5830   76.9080  219.6710 C   0  0  0  0  0  0  0  0  0  0  0  0
  142.7220   77.0890  218.3000 C   0  0  0  0  0  0  0  0  0  0  0  0
  141.8950   78.0030  217.6680 C   0  0  0  0  0  0  0  0  0  0  0  0
  140.9830   78.6890  218.3840 N   0  0  0  0  0  0  0  0  0  0  0  0
  140.8520   78.5090  219.7150 C   0  0  0  0  0  0  0  0  0  0  0  0
  138.2740   72.9990  221.9040 C   0  0  0  0  0  0  0  0  0  0  0  0
  138.2800   71.6120  222.5720 C   0  0  0  0  0  0  0  0  0  0  0  0
  135.7451   70.5191  225.3964 H   0  0  0  0  0  0  0  0  0  0  0  0
  136.6767   70.8791  223.9034 H   0  0  0  0  0  0  0  0  0  0  0  0
  135.4532   69.5639  223.9034 H   0  0  0  0  0  0  0  0  0  0  0  0
  137.4276   69.1583  226.0157 H   0  0  0  0  0  0  0  0  0  0  0  0
  136.9612   68.0728  224.6683 H   0  0  0  0  0  0  0  0  0  0  0  0
  139.6152   68.4626  226.0432 H   0  0  0  0  0  0  0  0  0  0  0  0
  140.6873   68.3546  228.2696 H   0  0  0  0  0  0  0  0  0  0  0  0
  141.6228   70.3743  229.3369 H   0  0  0  0  0  0  0  0  0  0  0  0
  141.4804   72.5741  228.1508 H   0  0  0  0  0  0  0  0  0  0  0  0
  140.3954   72.6894  225.9060 H   0  0  0  0  0  0  0  0  0  0  0  0
  139.2809   72.5751  224.1721 H   0  0  0  0  0  0  0  0  0  0  0  0
  141.5043   71.9631  223.4850 H   0  0  0  0  0  0  0  0  0  0  0  0
  140.9259   70.4704  222.6699 H   0  0  0  0  0  0  0  0  0  0  0  0
  141.5997   72.6903  221.2985 H   0  0  0  0  0  0  0  0  0  0  0  0
  140.2772   71.5930  220.7651 H   0  0  0  0  0  0  0  0  0  0  0  0
  138.5372   75.7788  222.3114 H   0  0  0  0  0  0  0  0  0  0  0  0
  138.0970   75.5930  220.0780 H   0  0  0  0  0  0  0  0  0  0  0  0
  139.2800   76.7220  219.6910 H   0  0  0  0  0  0  0  0  0  0  0  0
  140.3725   76.4530  223.2689 H   0  0  0  0  0  0  0  0  0  0  0  0
  138.7530   78.5674  221.7143 H   0  0  0  0  0  0  0  0  0  0  0  0
  138.5387   78.1362  223.3868 H   0  0  0  0  0  0  0  0  0  0  0  0
  139.2215   80.7964  223.9522 H   0  0  0  0  0  0  0  0  0  0  0  0
  141.2050   82.2342  224.3964 H   0  0  0  0  0  0  0  0  0  0  0  0
  143.4208   81.4543  223.6407 H   0  0  0  0  0  0  0  0  0  0  0  0
  143.7158   79.2991  222.4583 H   0  0  0  0  0  0  0  0  0  0  0  0
  142.1858   76.6975  222.0705 H   0  0  0  0  0  0  0  0  0  0  0  0
  143.2375   76.1850  220.1798 H   0  0  0  0  0  0  0  0  0  0  0  0
  143.4712   76.5198  217.7302 H   0  0  0  0  0  0  0  0  0  0  0  0
  141.9827   78.1683  216.5840 H   0  0  0  0  0  0  0  0  0  0  0  0
  140.0956   79.0895  220.2636 H   0  0  0  0  0  0  0  0  0  0  0  0
  137.7834   73.7297  222.5638 H   0  0  0  0  0  0  0  0  0  0  0  0
  137.7224   72.9643  220.9529 H   0  0  0  0  0  0  0  0  0  0  0  0
  137.3108   71.4189  223.0551 H   0  0  0  0  0  0  0  0  0  0  0  0
  138.4470   70.8154  221.8321 H   0  0  0  0  0  0  0  0  0  0  0  0
  1  2  1  0
  2  3  1  0
  3  4  2  0
  3  5  1  0
  5  6  1  0
  6  7  2  0
  7  8  1  0
  8  9  2  0
  9 10  1  0
 10 11  2  0
  5 12  1  0
 12 13  1  0
 13 14  1  0
 14 15  1  0
 15 16  1  0
 16 17  2  0
 16 18  1  0
 18 19  1  0
 18 20  1  0
 20 21  1  0
 21 22  1  0
 22 23  2  0
 23 24  1  0
 24 25  2  0
 25 26  1  0
 26 27  2  0
 27 28  1  0
 28 29  1  0
 29 30  2  0
 30 31  1  0
 31 32  2  0
 32 33  1  0
 33 34  2  0
 15 35  1  0
 35 36  1  0
 11  6  1  0
 36 12  1  0
 28 20  1  0
 34 29  1  0
 27 22  1  0
  1 37  1  0
  1 38  1  0
  1 39  1  0
  2 40  1  0
  2 41  1  0
  7 42  1  0
  8 43  1  0
  9 44  1  0
 10 45  1  0
 11 46  1  0
 12 47  1  0
 13 48  1  0
 13 49  1  0
 14 50  1  0
 14 51  1  0
 18 52  1  1
 19 53  1  0
 19 54  1  0
 20 55  1  1
 21 56  1  0
 21 57  1  0
 23 58  1  0
 24 59  1  0
 25 60  1  0
 26 61  1  0
 28 62  1  1
 30 63  1  0
 31 64  1  0
 32 65  1  0
 34 66  1  0
 35 67  1  0
 35 68  1  0
 36 69  1  0
 36 70  1  0
M  END
>  <smiles>  (44) 
CCC(=O)N(c1ccccc1)C1CCN(C(=O)[C@H](N)C2Cc3ccccc3C2c2cccnc2)CC1

>  <score_type>  (44) 
oracle

>  <origin>  (44) 
autodockgpu

>  <m_score__min__energy>  (44) 
-9.3599999999999994

>  <m_primary>  (44) 
energy

>  <rmsd>  (44) 
5.353671587165624

>  <m_score__min__rmsd>  (44) 
5.353671587165624

>  <meeko>  (44) 
{"free_energy": -9.25, "intermolecular_energy": -11.63, "internal_energy": -2.27, "cluster_size": 36, "cluster_id": 1, "rank_in_cluster": 26}

>  <energy>  (44) 
-7.21

>  <cluster_rmsd>  (44) 
0.23

>  <cluster>  (44) 
4

$$$$

     RDKit          3D

 70 74  0  0  0  0  0  0  0  0999 V2000
  145.9590   67.9770  217.6890 C   0  0  0  0  0  0  0  0  0  0  0  0
  145.1190   69.2220  217.8360 C   0  0  0  0  0  0  0  0  0  0  0  0
  144.7610   69.3940  219.2700 C   0  0  0  0  0  0  0  0  0  0  0  0
  145.3090   68.5990  220.0810 O   0  0  0  0  0  0  0  0  0  0  0  0
  143.8430   70.4080  219.6950 N   0  0  0  0  0  0  0  0  0  0  0  0
  144.3760   71.6890  220.0070 C   0  0  0  0  0  0  0  0  0  0  0  0
  145.7430   71.8550  219.7770 C   0  0  0  0  0  0  0  0  0  0  0  0
  146.3250   73.0730  220.0610 C   0  0  0  0  0  0  0  0  0  0  0  0
  145.5950   74.1260  220.5640 C   0  0  0  0  0  0  0  0  0  0  0  0
  144.2330   73.9590  220.7930 C   0  0  0  0  0  0  0  0  0  0  0  0
  143.6380   72.7280  220.5070 C   0  0  0  0  0  0  0  0  0  0  0  0
  142.4590   70.0570  219.7700 C   0  0  0  0  0  0  0  0  0  0  0  0
  141.7010   70.8470  218.7220 C   0  0  0  0  0  0  0  0  0  0  0  0
  140.3740   70.1690  218.4390 C   0  0  0  0  0  0  0  0  0  0  0  0
  139.9190   69.4390  219.6340 N   0  0  0  0  0  0  0  0  0  0  0  0
  138.7490   69.8910  220.2510 C   0  0  0  0  0  0  0  0  0  0  0  0
  138.1810   70.9120  219.7220 O   0  0  0  0  0  0  0  0  0  0  0  0
  138.0760   69.3370  221.4470 C   0  0  2  0  0  0  0  0  0  0  0  0
  136.7080   69.7040  221.5870 N   0  0  0  0  0  0  0  0  0  0  0  0
  138.9270   69.3880  222.6570 C   0  0  2  0  0  0  0  0  0  0  0  0
  138.1450   69.1950  223.9410 C   0  0  0  0  0  0  0  0  0  0  0  0
  139.1430   69.6690  224.9740 C   0  0  0  0  0  0  0  0  0  0  0  0
  139.1420   69.4160  226.3300 C   0  0  0  0  0  0  0  0  0  0  0  0
  140.1370   69.9230  227.1260 C   0  0  0  0  0  0  0  0  0  0  0  0
  141.1140   70.6770  226.5240 C   0  0  0  0  0  0  0  0  0  0  0  0
  141.1300   70.9430  225.1580 C   0  0  0  0  0  0  0  0  0  0  0  0
  140.1240   70.4290  224.3640 C   0  0  0  0  0  0  0  0  0  0  0  0
  139.8350   70.5220  222.8760 C   0  0  2  0  0  0  0  0  0  0  0  0
  139.4110   71.8680  222.5150 C   0  0  0  0  0  0  0  0  0  0  0  0
  138.1130   72.2930  222.3570 C   0  0  0  0  0  0  0  0  0  0  0  0
  137.7960   73.6000  222.0080 C   0  0  0  0  0  0  0  0  0  0  0  0
  138.8310   74.4990  221.8110 C   0  0  0  0  0  0  0  0  0  0  0  0
  140.1070   74.0960  221.9620 N   0  0  0  0  0  0  0  0  0  0  0  0
  140.4090   72.8260  222.3020 C   0  0  0  0  0  0  0  0  0  0  0  0
  140.7450   68.3330  220.0470 C   0  0  0  0  0  0  0  0  0  0  0  0
  142.1720   68.5910  219.5300 C   0  0  0  0  0  0  0  0  0  0  0  0
  146.2196   67.5907  218.6854 H   0  0  0  0  0  0  0  0  0  0  0  0
  145.3903   67.2140  217.1372 H   0  0  0  0  0  0  0  0  0  0  0  0
  146.8794   68.2187  217.1372 H   0  0  0  0  0  0  0  0  0  0  0  0
  145.6904   70.0961  217.4904 H   0  0  0  0  0  0  0  0  0  0  0  0
  144.2046   69.1287  217.2317 H   0  0  0  0  0  0  0  0  0  0  0  0
  146.3465   71.0275  219.3756 H   0  0  0  0  0  0  0  0  0  0  0  0
  147.4019   73.2064  219.8806 H   0  0  0  0  0  0  0  0  0  0  0  0
  146.0825   75.0876  220.7822 H   0  0  0  0  0  0  0  0  0  0  0  0
  143.6311   74.7874  221.1949 H   0  0  0  0  0  0  0  0  0  0  0  0
  142.5613   72.5915  220.6861 H   0  0  0  0  0  0  0  0  0  0  0  0
  142.1422   70.2873  220.7979 H   0  0  0  0  0  0  0  0  0  0  0  0
  141.5200   71.8671  219.0917 H   0  0  0  0  0  0  0  0  0  0  0  0
  142.2943   70.8920  217.7968 H   0  0  0  0  0  0  0  0  0  0  0  0
  139.6262   70.9293  218.1694 H   0  0  0  0  0  0  0  0  0  0  0  0
  140.4998   69.4598  217.6076 H   0  0  0  0  0  0  0  0  0  0  0  0
  137.9650   68.2566  221.2725 H   0  0  0  0  0  0  0  0  0  0  0  0
  136.3740   70.3720  220.8870 H   0  0  0  0  0  0  0  0  0  0  0  0
  136.4000   70.0020  222.5260 H   0  0  0  0  0  0  0  0  0  0  0  0
  139.5835   68.5409  222.4089 H   0  0  0  0  0  0  0  0  0  0  0  0
  137.2324   69.8090  223.9522 H   0  0  0  0  0  0  0  0  0  0  0  0
  137.7886   68.1665  224.0996 H   0  0  0  0  0  0  0  0  0  0  0  0
  138.3413   68.8062  226.7739 H   0  0  0  0  0  0  0  0  0  0  0  0
  140.1519   69.7322  228.2092 H   0  0  0  0  0  0  0  0  0  0  0  0
  141.9198   71.0891  227.1492 H   0  0  0  0  0  0  0  0  0  0  0  0
  141.9320   71.5535  224.7175 H   0  0  0  0  0  0  0  0  0  0  0  0
  140.6853   70.4145  222.1865 H   0  0  0  0  0  0  0  0  0  0  0  0
  137.2964   71.5726  222.5124 H   0  0  0  0  0  0  0  0  0  0  0  0
  136.7481   73.9132  221.8909 H   0  0  0  0  0  0  0  0  0  0  0  0
  138.6112   75.5400  221.5318 H   0  0  0  0  0  0  0  0  0  0  0  0
  141.4642   72.5365  222.4145 H   0  0  0  0  0  0  0  0  0  0  0  0
  140.7522   68.2610  221.1446 H   0  0  0  0  0  0  0  0  0  0  0  0
  140.3541   67.3890  219.6396 H   0  0  0  0  0  0  0  0  0  0  0  0
  142.8933   67.9680  220.0792 H   0  0  0  0  0  0  0  0  0  0  0  0
  142.2595   68.3387  218.4629 H   0  0  0  0  0  0  0  0  0  0  0  0
  1  2  1  0
  2  3  1  0
  3  4  2  0
  3  5  1  0
  5  6  1  0
  6  7  2  0
  7  8  1  0
  8  9  2  0
  9 10  1  0
 10 11  2  0
  5 12  1  0
 12 13  1  0
 13 14  1  0
 14 15  1  0
 15 16  1  0
 16 17  2  0
 16 18  1  0
 18 19  1  0
 18 20  1  0
 20 21  1  0
 21 22  1  0
 22 23  2  0
 23 24  1  0
 24 25  2  0
 25 26  1  0
 26 27  2  0
 27 28  1  0
 28 29  1  0
 29 30  2  0
 30 31  1  0
 31 32  2  0
 32 33  1  0
 33 34  2  0
 15 35  1  0
 35 36  1  0
 11  6  1  0
 36 12  1  0
 28 20  1  0
 34 29  1  0
 27 22  1  0
  1 37  1  0
  1 38  1  0
  1 39  1  0
  2 40  1  0
  2 41  1  0
  7 42  1  0
  8 43  1  0
  9 44  1  0
 10 45  1  0
 11 46  1  0
 12 47  1  0
 13 48  1  0
 13 49  1  0
 14 50  1  0
 14 51  1  0
 18 52  1  6
 19 53  1  0
 19 54  1  0
 20 55  1  6
 21 56  1  0
 21 57  1  0
 23 58  1  0
 24 59  1  0
 25 60  1  0
 26 61  1  0
 28 62  1  6
 30 63  1  0
 31 64  1  0
 32 65  1  0
 34 66  1  0
 35 67  1  0
 35 68  1  0
 36 69  1  0
 36 70  1  0
M  END
>  <smiles>  (45) 
CCC(=O)N(c1ccccc1)C1CCN(C(=O)[C@H](N)C2Cc3ccccc3C2c2cccnc2)CC1

>  <score_type>  (45) 
oracle

>  <origin>  (45) 
autodockgpu

>  <m_score__min__energy>  (45) 
-9.3599999999999994

>  <m_primary>  (45) 
energy

>  <rmsd>  (45) 
10.478341447171019

>  <m_score__min__rmsd>  (45) 
10.478341447171019

>  <meeko>  (45) 
{"free_energy": -7.62, "intermolecular_energy": -10.0, "internal_energy": -3.63, "cluster_size": 1, "cluster_id": 3, "rank_in_cluster": 1}

>  <energy>  (45) 
-7.14

>  <cluster_rmsd>  (45) 
0.26

>  <cluster>  (45) 
4

$$$$

     RDKit          3D

 70 74  0  0  0  0  0  0  0  0999 V2000
  136.1610   68.9830  223.3750 C   0  0  0  0  0  0  0  0  0  0  0  0
  136.9680   69.3420  224.6000 C   0  0  0  0  0  0  0  0  0  0  0  0
  138.4080   69.3830  224.2310 C   0  0  0  0  0  0  0  0  0  0  0  0
  138.8540   68.3800  223.6100 O   0  0  0  0  0  0  0  0  0  0  0  0
  139.2350   70.5030  224.5690 N   0  0  0  0  0  0  0  0  0  0  0  0
  139.8940   70.4790  225.8290 C   0  0  0  0  0  0  0  0  0  0  0  0
  139.9230   69.2430  226.4800 C   0  0  0  0  0  0  0  0  0  0  0  0
  140.5450   69.1500  227.7080 C   0  0  0  0  0  0  0  0  0  0  0  0
  141.1340   70.2400  228.3070 C   0  0  0  0  0  0  0  0  0  0  0  0
  141.1050   71.4700  227.6570 C   0  0  0  0  0  0  0  0  0  0  0  0
  140.4770   71.5710  226.4130 C   0  0  0  0  0  0  0  0  0  0  0  0
  139.3400   71.5590  223.6110 C   0  0  0  0  0  0  0  0  0  0  0  0
  140.6880   71.4620  222.9270 C   0  0  0  0  0  0  0  0  0  0  0  0
  140.6450   72.2190  221.6130 C   0  0  0  0  0  0  0  0  0  0  0  0
  139.6670   73.3160  221.6990 N   0  0  0  0  0  0  0  0  0  0  0  0
  140.1630   74.6200  221.6180 C   0  0  0  0  0  0  0  0  0  0  0  0
  141.4330   74.7430  221.4860 O   0  0  0  0  0  0  0  0  0  0  0  0
  139.4040   75.8890  221.6670 C   0  0  2  0  0  0  0  0  0  0  0  0
  138.7250   76.2260  220.4620 N   0  0  0  0  0  0  0  0  0  0  0  0
  140.1370   76.9690  222.3650 C   0  0  2  0  0  0  0  0  0  0  0  0
  139.2920   78.2040  222.6020 C   0  0  0  0  0  0  0  0  0  0  0  0
  140.3490   79.2310  222.9470 C   0  0  0  0  0  0  0  0  0  0  0  0
  140.1770   80.4390  223.5890 C   0  0  0  0  0  0  0  0  0  0  0  0
  141.2570   81.2500  223.8290 C   0  0  0  0  0  0  0  0  0  0  0  0
  142.4890   80.8130  223.4120 C   0  0  0  0  0  0  0  0  0  0  0  0
  142.6800   79.5960  222.7630 C   0  0  0  0  0  0  0  0  0  0  0  0
  141.5880   78.7860  222.5240 C   0  0  0  0  0  0  0  0  0  0  0  0
  141.4350   77.4320  221.8540 C   0  0  2  0  0  0  0  0  0  0  0  0
  141.6510   77.5390  220.4180 C   0  0  0  0  0  0  0  0  0  0  0  0
  142.5710   76.8290  219.6830 C   0  0  0  0  0  0  0  0  0  0  0  0
  142.7130   76.9950  218.3100 C   0  0  0  0  0  0  0  0  0  0  0  0
  141.8950   77.9110  217.6680 C   0  0  0  0  0  0  0  0  0  0  0  0
  140.9900   78.6130  218.3770 N   0  0  0  0  0  0  0  0  0  0  0  0
  140.8560   78.4470  219.7090 C   0  0  0  0  0  0  0  0  0  0  0  0
  138.2920   72.9200  221.8690 C   0  0  0  0  0  0  0  0  0  0  0  0
  138.2790   71.5310  222.5320 C   0  0  0  0  0  0  0  0  0  0  0  0
  135.1965   68.5539  223.6841 H   0  0  0  0  0  0  0  0  0  0  0  0
  135.9843   69.8874  222.7743 H   0  0  0  0  0  0  0  0  0  0  0  0
  136.7144   68.2462  222.7743 H   0  0  0  0  0  0  0  0  0  0  0  0
  136.6540   70.3278  224.9736 H   0  0  0  0  0  0  0  0  0  0  0  0
  136.8055   68.5913  225.3875 H   0  0  0  0  0  0  0  0  0  0  0  0
  139.4575   68.3584  226.0209 H   0  0  0  0  0  0  0  0  0  0  0  0
  140.5708   68.1780  228.2223 H   0  0  0  0  0  0  0  0  0  0  0  0
  141.6219   70.1401  229.2878 H   0  0  0  0  0  0  0  0  0  0  0  0
  141.5715   72.3533  228.1176 H   0  0  0  0  0  0  0  0  0  0  0  0
  140.4508   72.5415  225.8958 H   0  0  0  0  0  0  0  0  0  0  0  0
  139.2084   72.4946  224.1743 H   0  0  0  0  0  0  0  0  0  0  0  0
  141.4608   71.8988  223.5765 H   0  0  0  0  0  0  0  0  0  0  0  0
  140.9253   70.4055  222.7335 H   0  0  0  0  0  0  0  0  0  0  0  0
  141.6408   72.6340  221.3983 H   0  0  0  0  0  0  0  0  0  0  0  0
  140.3478   71.5309  220.8080 H   0  0  0  0  0  0  0  0  0  0  0  0
  138.5428   75.7129  222.3284 H   0  0  0  0  0  0  0  0  0  0  0  0
  138.1300   75.4820  220.0880 H   0  0  0  0  0  0  0  0  0  0  0  0
  139.2970   76.6280  219.7020 H   0  0  0  0  0  0  0  0  0  0  0  0
  140.3726   76.4133  223.2846 H   0  0  0  0  0  0  0  0  0  0  0  0
  138.7347   78.4892  221.6976 H   0  0  0  0  0  0  0  0  0  0  0  0
  138.5200   78.0777  223.3754 H   0  0  0  0  0  0  0  0  0  0  0  0
  139.1725   80.7528  223.9091 H   0  0  0  0  0  0  0  0  0  0  0  0
  141.1394   82.2178  224.3384 H   0  0  0  0  0  0  0  0  0  0  0  0
  143.3644   81.4523  223.5987 H   0  0  0  0  0  0  0  0  0  0  0  0
  143.6861   79.2846  222.4454 H   0  0  0  0  0  0  0  0  0  0  0  0
  142.1854   76.6624  222.0875 H   0  0  0  0  0  0  0  0  0  0  0  0
  143.2174   76.1042  220.1995 H   0  0  0  0  0  0  0  0  0  0  0  0
  143.4571   76.4129  217.7465 H   0  0  0  0  0  0  0  0  0  0  0  0
  141.9845   78.0644  216.5824 H   0  0  0  0  0  0  0  0  0  0  0  0
  140.1040   79.0393  220.2509 H   0  0  0  0  0  0  0  0  0  0  0  0
  137.7706   73.6455  222.5107 H   0  0  0  0  0  0  0  0  0  0  0  0
  137.7798   72.8854  220.8961 H   0  0  0  0  0  0  0  0  0  0  0  0
  137.2922   71.3306  222.9747 H   0  0  0  0  0  0  0  0  0  0  0  0
  138.4805   70.7378  221.7969 H   0  0  0  0  0  0  0  0  0  0  0  0
  1  2  1  0
  2  3  1  0
  3  4  2  0
  3  5  1  0
  5  6  1  0
  6  7  2  0
  7  8  1  0
  8  9  2  0
  9 10  1  0
 10 11  2  0
  5 12  1  0
 12 13  1  0
 13 14  1  0
 14 15  1  0
 15 16  1  0
 16 17  2  0
 16 18  1  0
 18 19  1  0
 18 20  1  0
 20 21  1  0
 21 22  1  0
 22 23  2  0
 23 24  1  0
 24 25  2  0
 25 26  1  0
 26 27  2  0
 27 28  1  0
 28 29  1  0
 29 30  2  0
 30 31  1  0
 31 32  2  0
 32 33  1  0
 33 34  2  0
 15 35  1  0
 35 36  1  0
 11  6  1  0
 36 12  1  0
 28 20  1  0
 34 29  1  0
 27 22  1  0
  1 37  1  0
  1 38  1  0
  1 39  1  0
  2 40  1  0
  2 41  1  0
  7 42  1  0
  8 43  1  0
  9 44  1  0
 10 45  1  0
 11 46  1  0
 12 47  1  0
 13 48  1  0
 13 49  1  0
 14 50  1  0
 14 51  1  0
 18 52  1  1
 19 53  1  0
 19 54  1  0
 20 55  1  1
 21 56  1  0
 21 57  1  0
 23 58  1  0
 24 59  1  0
 25 60  1  0
 26 61  1  0
 28 62  1  1
 30 63  1  0
 31 64  1  0
 32 65  1  0
 34 66  1  0
 35 67  1  0
 35 68  1  0
 36 69  1  0
 36 70  1  0
M  END
>  <smiles>  (46) 
CCC(=O)N(c1ccccc1)C1CCN(C(=O)[C@H](N)C2Cc3ccccc3C2c2cccnc2)CC1

>  <score_type>  (46) 
oracle

>  <origin>  (46) 
autodockgpu

>  <m_score__min__energy>  (46) 
-9.3599999999999994

>  <m_primary>  (46) 
energy

>  <rmsd>  (46) 
5.390238740452595

>  <m_score__min__rmsd>  (46) 
5.390238740452595

>  <meeko>  (46) 
{"free_energy": -9.32, "intermolecular_energy": -11.7, "internal_energy": -2.27, "cluster_size": 36, "cluster_id": 1, "rank_in_cluster": 14}

>  <energy>  (46) 
-7.09

>  <cluster_rmsd>  (46) 
0.33

>  <cluster>  (46) 
4

$$$$

     RDKit          3D

 70 74  0  0  0  0  0  0  0  0999 V2000
  138.8330   67.3220  223.1280 C   0  0  0  0  0  0  0  0  0  0  0  0
  138.1180   68.5960  222.7460 C   0  0  0  0  0  0  0  0  0  0  0  0
  137.9540   69.4380  223.9610 C   0  0  0  0  0  0  0  0  0  0  0  0
  136.9240   69.2200  224.6560 O   0  0  0  0  0  0  0  0  0  0  0  0
  138.9160   70.4380  224.3140 N   0  0  0  0  0  0  0  0  0  0  0  0
  139.6260   70.2670  225.5340 C   0  0  0  0  0  0  0  0  0  0  0  0
  140.3410   71.3790  225.9850 C   0  0  0  0  0  0  0  0  0  0  0  0
  141.0550   71.2800  227.1620 C   0  0  0  0  0  0  0  0  0  0  0  0
  141.0810   70.1190  227.9000 C   0  0  0  0  0  0  0  0  0  0  0  0
  140.3680   69.0120  227.4490 C   0  0  0  0  0  0  0  0  0  0  0  0
  139.6430   69.1050  226.2580 C   0  0  0  0  0  0  0  0  0  0  0  0
  139.0940   71.5320  223.4100 C   0  0  0  0  0  0  0  0  0  0  0  0
  140.4720   71.4260  222.7870 C   0  0  0  0  0  0  0  0  0  0  0  0
  140.5120   72.2400  221.5070 C   0  0  0  0  0  0  0  0  0  0  0  0
  139.5590   73.3590  221.5950 N   0  0  0  0  0  0  0  0  0  0  0  0
  140.0930   74.6510  221.5960 C   0  0  0  0  0  0  0  0  0  0  0  0
  141.3700   74.7430  221.5290 O   0  0  0  0  0  0  0  0  0  0  0  0
  139.3650   75.9380  221.6650 C   0  0  2  0  0  0  0  0  0  0  0  0
  138.6770   76.3000  220.4720 N   0  0  0  0  0  0  0  0  0  0  0  0
  140.1340   76.9940  222.3590 C   0  0  2  0  0  0  0  0  0  0  0  0
  139.3230   78.2480  222.6160 C   0  0  0  0  0  0  0  0  0  0  0  0
  140.4110   79.2460  222.9520 C   0  0  0  0  0  0  0  0  0  0  0  0
  140.2770   80.4540  223.6040 C   0  0  0  0  0  0  0  0  0  0  0  0
  141.3800   81.2360  223.8340 C   0  0  0  0  0  0  0  0  0  0  0  0
  142.5960   80.7720  223.3970 C   0  0  0  0  0  0  0  0  0  0  0  0
  142.7470   79.5550  222.7380 C   0  0  0  0  0  0  0  0  0  0  0  0
  141.6320   78.7740  222.5090 C   0  0  0  0  0  0  0  0  0  0  0  0
  141.4360   77.4280  221.8330 C   0  0  2  0  0  0  0  0  0  0  0  0
  141.6340   77.5390  220.3940 C   0  0  0  0  0  0  0  0  0  0  0  0
  142.4700   76.7600  219.6300 C   0  0  0  0  0  0  0  0  0  0  0  0
  142.6020   76.9350  218.2570 C   0  0  0  0  0  0  0  0  0  0  0  0
  141.8620   77.9350  217.6470 C   0  0  0  0  0  0  0  0  0  0  0  0
  141.0400   78.7060  218.3840 N   0  0  0  0  0  0  0  0  0  0  0  0
  140.9150   78.5300  219.7160 C   0  0  0  0  0  0  0  0  0  0  0  0
  138.1680   72.9950  221.6820 C   0  0  0  0  0  0  0  0  0  0  0  0
  138.0870   71.5800  222.2820 C   0  0  0  0  0  0  0  0  0  0  0  0
  138.8782   67.2414  224.2241 H   0  0  0  0  0  0  0  0  0  0  0  0
  138.2876   66.4587  222.7191 H   0  0  0  0  0  0  0  0  0  0  0  0
  139.8540   67.3378  222.7191 H   0  0  0  0  0  0  0  0  0  0  0  0
  138.7098   69.1411  221.9959 H   0  0  0  0  0  0  0  0  0  0  0  0
  137.1317   68.3574  222.3214 H   0  0  0  0  0  0  0  0  0  0  0  0
  140.3351   72.3178  225.4117 H   0  0  0  0  0  0  0  0  0  0  0  0
  141.6191   72.1538  227.5201 H   0  0  0  0  0  0  0  0  0  0  0  0
  141.6582   70.0664  228.8349 H   0  0  0  0  0  0  0  0  0  0  0  0
  140.3751   68.0742  228.0238 H   0  0  0  0  0  0  0  0  0  0  0  0
  139.0782   68.2327  225.8972 H   0  0  0  0  0  0  0  0  0  0  0  0
  138.9587   72.4460  224.0070 H   0  0  0  0  0  0  0  0  0  0  0  0
  141.2235   71.8126  223.4911 H   0  0  0  0  0  0  0  0  0  0  0  0
  140.6913   70.3725  222.5588 H   0  0  0  0  0  0  0  0  0  0  0  0
  141.5273   72.6364  221.3583 H   0  0  0  0  0  0  0  0  0  0  0  0
  140.2367   71.5955  220.6591 H   0  0  0  0  0  0  0  0  0  0  0  0
  138.5092   75.7783  222.3374 H   0  0  0  0  0  0  0  0  0  0  0  0
  138.8510   75.6800  219.6760 H   0  0  0  0  0  0  0  0  0  0  0  0
  138.7550   77.2840  220.1700 H   0  0  0  0  0  0  0  0  0  0  0  0
  140.3689   76.4264  223.2715 H   0  0  0  0  0  0  0  0  0  0  0  0
  138.7599   78.5530  221.7216 H   0  0  0  0  0  0  0  0  0  0  0  0
  138.5590   78.1359  223.3994 H   0  0  0  0  0  0  0  0  0  0  0  0
  139.2850   80.7904  223.9397 H   0  0  0  0  0  0  0  0  0  0  0  0
  141.2933   82.2028  224.3514 H   0  0  0  0  0  0  0  0  0  0  0  0
  143.4895   81.3884  223.5752 H   0  0  0  0  0  0  0  0  0  0  0  0
  143.7405   79.2206  222.4046 H   0  0  0  0  0  0  0  0  0  0  0  0
  142.1705   76.6389  222.0517 H   0  0  0  0  0  0  0  0  0  0  0  0
  143.0556   75.9698  220.1226 H   0  0  0  0  0  0  0  0  0  0  0  0
  143.2772   76.2954  217.6696 H   0  0  0  0  0  0  0  0  0  0  0  0
  141.9458   78.0988  216.5625 H   0  0  0  0  0  0  0  0  0  0  0  0
  140.2321   79.1805  220.2821 H   0  0  0  0  0  0  0  0  0  0  0  0
  137.6350   73.7068  222.3295 H   0  0  0  0  0  0  0  0  0  0  0  0
  137.7029   73.0163  220.6854 H   0  0  0  0  0  0  0  0  0  0  0  0
  137.0749   71.3885  222.6680 H   0  0  0  0  0  0  0  0  0  0  0  0
  138.3037   70.8137  221.5231 H   0  0  0  0  0  0  0  0  0  0  0  0
  1  2  1  0
  2  3  1  0
  3  4  2  0
  3  5  1  0
  5  6  1  0
  6  7  2  0
  7  8  1  0
  8  9  2  0
  9 10  1  0
 10 11  2  0
  5 12  1  0
 12 13  1  0
 13 14  1  0
 14 15  1  0
 15 16  1  0
 16 17  2  0
 16 18  1  0
 18 19  1  0
 18 20  1  0
 20 21  1  0
 21 22  1  0
 22 23  2  0
 23 24  1  0
 24 25  2  0
 25 26  1  0
 26 27  2  0
 27 28  1  0
 28 29  1  0
 29 30  2  0
 30 31  1  0
 31 32  2  0
 32 33  1  0
 33 34  2  0
 15 35  1  0
 35 36  1  0
 11  6  1  0
 36 12  1  0
 28 20  1  0
 34 29  1  0
 27 22  1  0
  1 37  1  0
  1 38  1  0
  1 39  1  0
  2 40  1  0
  2 41  1  0
  7 42  1  0
  8 43  1  0
  9 44  1  0
 10 45  1  0
 11 46  1  0
 12 47  1  0
 13 48  1  0
 13 49  1  0
 14 50  1  0
 14 51  1  0
 18 52  1  1
 19 53  1  0
 19 54  1  0
 20 55  1  1
 21 56  1  0
 21 57  1  0
 23 58  1  0
 24 59  1  0
 25 60  1  0
 26 61  1  0
 28 62  1  1
 30 63  1  0
 31 64  1  0
 32 65  1  0
 34 66  1  0
 35 67  1  0
 35 68  1  0
 36 69  1  0
 36 70  1  0
M  END
>  <smiles>  (47) 
CCC(=O)N(c1ccccc1)C1CCN(C(=O)[C@H](N)C2Cc3ccccc3C2c2cccnc2)CC1

>  <score_type>  (47) 
oracle

>  <origin>  (47) 
autodockgpu

>  <m_score__min__energy>  (47) 
-9.3599999999999994

>  <m_primary>  (47) 
energy

>  <rmsd>  (47) 
5.337980830279578

>  <m_score__min__rmsd>  (47) 
5.337980830279578

>  <meeko>  (47) 
{"free_energy": -9.18, "intermolecular_energy": -11.57, "internal_energy": -2.17, "cluster_size": 36, "cluster_id": 1, "rank_in_cluster": 30}

>  <energy>  (47) 
-7.06

>  <cluster_rmsd>  (47) 
0.52

>  <cluster>  (47) 
4

$$$$

     RDKit          3D

 70 74  0  0  0  0  0  0  0  0999 V2000
  135.9960   69.0530  223.4280 C   0  0  0  0  0  0  0  0  0  0  0  0
  136.7840   69.5170  224.6300 C   0  0  0  0  0  0  0  0  0  0  0  0
  138.2350   69.4240  224.3190 C   0  0  0  0  0  0  0  0  0  0  0  0
  138.6220   68.3560  223.7720 O   0  0  0  0  0  0  0  0  0  0  0  0
  139.1360   70.4940  224.6280 N   0  0  0  0  0  0  0  0  0  0  0  0
  139.8130   70.4450  225.8780 C   0  0  0  0  0  0  0  0  0  0  0  0
  139.8480   69.1970  226.5050 C   0  0  0  0  0  0  0  0  0  0  0  0
  140.4870   69.0790  227.7220 C   0  0  0  0  0  0  0  0  0  0  0  0
  141.0870   70.1570  228.3330 C   0  0  0  0  0  0  0  0  0  0  0  0
  141.0510   71.3990  227.7080 C   0  0  0  0  0  0  0  0  0  0  0  0
  140.4060   71.5240  226.4750 C   0  0  0  0  0  0  0  0  0  0  0  0
  139.2910   71.5300  223.6550 C   0  0  0  0  0  0  0  0  0  0  0  0
  140.6770   71.4250  223.0520 C   0  0  0  0  0  0  0  0  0  0  0  0
  140.7070   72.1530  221.7210 C   0  0  0  0  0  0  0  0  0  0  0  0
  139.7200   73.2460  221.7250 N   0  0  0  0  0  0  0  0  0  0  0  0
  140.2140   74.5510  221.6440 C   0  0  0  0  0  0  0  0  0  0  0  0
  141.4880   74.6780  221.5840 O   0  0  0  0  0  0  0  0  0  0  0  0
  139.4470   75.8160  221.6200 C   0  0  2  0  0  0  0  0  0  0  0  0
  138.8410   76.1240  220.3700 N   0  0  0  0  0  0  0  0  0  0  0  0
  140.1300   76.9140  222.3390 C   0  0  2  0  0  0  0  0  0  0  0  0
  139.2440   78.1240  222.5570 C   0  0  0  0  0  0  0  0  0  0  0  0
  140.2630   79.1790  222.9310 C   0  0  0  0  0  0  0  0  0  0  0  0
  140.0400   80.3810  223.5710 C   0  0  0  0  0  0  0  0  0  0  0  0
  141.0900   81.2210  223.8410 C   0  0  0  0  0  0  0  0  0  0  0  0
  142.3450   80.8200  223.4550 C   0  0  0  0  0  0  0  0  0  0  0  0
  142.5870   79.6110  222.8090 C   0  0  0  0  0  0  0  0  0  0  0  0
  141.5250   78.7710  222.5400 C   0  0  0  0  0  0  0  0  0  0  0  0
  141.4270   77.4150  221.8630 C   0  0  2  0  0  0  0  0  0  0  0  0
  141.6770   77.5320  220.4330 C   0  0  0  0  0  0  0  0  0  0  0  0
  141.0440   78.3930  219.5690 C   0  0  0  0  0  0  0  0  0  0  0  0
  141.3420   78.4380  218.2120 C   0  0  0  0  0  0  0  0  0  0  0  0
  142.3130   77.5800  217.7220 C   0  0  0  0  0  0  0  0  0  0  0  0
  142.9410   76.7300  218.5580 N   0  0  0  0  0  0  0  0  0  0  0  0
  142.6470   76.6920  219.8740 C   0  0  0  0  0  0  0  0  0  0  0  0
  138.3390   72.8460  221.8250 C   0  0  0  0  0  0  0  0  0  0  0  0
  138.2940   71.4710  222.5170 C   0  0  0  0  0  0  0  0  0  0  0  0
  135.0935   68.5216  223.7641 H   0  0  0  0  0  0  0  0  0  0  0  0
  135.7046   69.9237  222.8222 H   0  0  0  0  0  0  0  0  0  0  0  0
  136.6160   68.3758  222.8222 H   0  0  0  0  0  0  0  0  0  0  0  0
  136.5223   70.5597  224.8632 H   0  0  0  0  0  0  0  0  0  0  0  0
  136.5473   68.8842  225.4981 H   0  0  0  0  0  0  0  0  0  0  0  0
  139.3737   68.3224  226.0358 H   0  0  0  0  0  0  0  0  0  0  0  0
  140.5179   68.0974  228.2174 H   0  0  0  0  0  0  0  0  0  0  0  0
  141.5891   70.0374  229.3044 H   0  0  0  0  0  0  0  0  0  0  0  0
  141.5249   72.2728  228.1791 H   0  0  0  0  0  0  0  0  0  0  0  0
  140.3744   72.5042  225.9768 H   0  0  0  0  0  0  0  0  0  0  0  0
  139.1228   72.4772  224.1884 H   0  0  0  0  0  0  0  0  0  0  0  0
  141.4093   71.8800  223.7352 H   0  0  0  0  0  0  0  0  0  0  0  0
  140.9292   70.3658  222.8959 H   0  0  0  0  0  0  0  0  0  0  0  0
  141.7116   72.5694  221.5556 H   0  0  0  0  0  0  0  0  0  0  0  0
  140.4605   71.4454  220.9156 H   0  0  0  0  0  0  0  0  0  0  0  0
  138.5477   75.6479  222.2307 H   0  0  0  0  0  0  0  0  0  0  0  0
  137.9670   75.6250  220.1870 H   0  0  0  0  0  0  0  0  0  0  0  0
  139.4470   76.0800  219.5350 H   0  0  0  0  0  0  0  0  0  0  0  0
  140.3572   76.3627  223.2634 H   0  0  0  0  0  0  0  0  0  0  0  0
  138.7020   78.3960  221.6393 H   0  0  0  0  0  0  0  0  0  0  0  0
  138.4562   77.9738  223.3098 H   0  0  0  0  0  0  0  0  0  0  0  0
  139.0190   80.6658  223.8649 H   0  0  0  0  0  0  0  0  0  0  0  0
  140.9319   82.1835  224.3496 H   0  0  0  0  0  0  0  0  0  0  0  0
  143.1968   81.4834  223.6655 H   0  0  0  0  0  0  0  0  0  0  0  0
  143.6094   79.3290  222.5172 H   0  0  0  0  0  0  0  0  0  0  0  0
  142.1925   76.6662  222.1144 H   0  0  0  0  0  0  0  0  0  0  0  0
  140.2738   79.0709  219.9655 H   0  0  0  0  0  0  0  0  0  0  0  0
  140.8194   79.1380  217.5434 H   0  0  0  0  0  0  0  0  0  0  0  0
  142.5708   77.5926  216.6527 H   0  0  0  0  0  0  0  0  0  0  0  0
  143.1825   75.9838  220.5234 H   0  0  0  0  0  0  0  0  0  0  0  0
  137.7786   73.5824  222.4198 H   0  0  0  0  0  0  0  0  0  0  0  0
  137.8835   72.7873  220.8255 H   0  0  0  0  0  0  0  0  0  0  0  0
  137.2842   71.2743  222.9062 H   0  0  0  0  0  0  0  0  0  0  0  0
  138.5412   70.6629  221.8129 H   0  0  0  0  0  0  0  0  0  0  0  0
  1  2  1  0
  2  3  1  0
  3  4  2  0
  3  5  1  0
  5  6  1  0
  6  7  2  0
  7  8  1  0
  8  9  2  0
  9 10  1  0
 10 11  2  0
  5 12  1  0
 12 13  1  0
 13 14  1  0
 14 15  1  0
 15 16  1  0
 16 17  2  0
 16 18  1  0
 18 19  1  0
 18 20  1  0
 20 21  1  0
 21 22  1  0
 22 23  2  0
 23 24  1  0
 24 25  2  0
 25 26  1  0
 26 27  2  0
 27 28  1  0
 28 29  1  0
 29 30  2  0
 30 31  1  0
 31 32  2  0
 32 33  1  0
 33 34  2  0
 15 35  1  0
 35 36  1  0
 11  6  1  0
 36 12  1  0
 28 20  1  0
 34 29  1  0
 27 22  1  0
  1 37  1  0
  1 38  1  0
  1 39  1  0
  2 40  1  0
  2 41  1  0
  7 42  1  0
  8 43  1  0
  9 44  1  0
 10 45  1  0
 11 46  1  0
 12 47  1  0
 13 48  1  0
 13 49  1  0
 14 50  1  0
 14 51  1  0
 18 52  1  1
 19 53  1  0
 19 54  1  0
 20 55  1  1
 21 56  1  0
 21 57  1  0
 23 58  1  0
 24 59  1  0
 25 60  1  0
 26 61  1  0
 28 62  1  1
 30 63  1  0
 31 64  1  0
 32 65  1  0
 34 66  1  0
 35 67  1  0
 35 68  1  0
 36 69  1  0
 36 70  1  0
M  END
>  <smiles>  (48) 
CCC(=O)N(c1ccccc1)C1CCN(C(=O)[C@H](N)C2Cc3ccccc3C2c2cccnc2)CC1

>  <score_type>  (48) 
oracle

>  <origin>  (48) 
autodockgpu

>  <m_score__min__energy>  (48) 
-9.3599999999999994

>  <m_primary>  (48) 
energy

>  <rmsd>  (48) 
5.419182064699353

>  <m_score__min__rmsd>  (48) 
5.419182064699353

>  <meeko>  (48) 
{"free_energy": -9.34, "intermolecular_energy": -11.73, "internal_energy": -2.25, "cluster_size": 36, "cluster_id": 1, "rank_in_cluster": 5}

>  <energy>  (48) 
-7.0

>  <cluster_rmsd>  (48) 
0.51

>  <cluster>  (48) 
4

$$$$

     RDKit          3D

 70 74  0  0  0  0  0  0  0  0999 V2000
  138.7890   68.3070  222.1160 C   0  0  0  0  0  0  0  0  0  0  0  0
  138.8160   68.1560  223.6180 C   0  0  0  0  0  0  0  0  0  0  0  0
  138.2810   69.3990  224.2350 C   0  0  0  0  0  0  0  0  0  0  0  0
  137.0360   69.4330  224.4320 O   0  0  0  0  0  0  0  0  0  0  0  0
  139.1400   70.4910  224.5830 N   0  0  0  0  0  0  0  0  0  0  0  0
  139.7940   70.4390  225.8440 C   0  0  0  0  0  0  0  0  0  0  0  0
  139.7200   69.2190  226.5210 C   0  0  0  0  0  0  0  0  0  0  0  0
  140.3310   69.1010  227.7520 C   0  0  0  0  0  0  0  0  0  0  0  0
  141.0090   70.1500  228.3290 C   0  0  0  0  0  0  0  0  0  0  0  0
  141.0820   71.3650  227.6540 C   0  0  0  0  0  0  0  0  0  0  0  0
  140.4660   71.4910  226.4070 C   0  0  0  0  0  0  0  0  0  0  0  0
  139.2790   71.5510  223.6330 C   0  0  0  0  0  0  0  0  0  0  0  0
  140.6550   71.4620  223.0050 C   0  0  0  0  0  0  0  0  0  0  0  0
  140.6630   72.2220  221.6930 C   0  0  0  0  0  0  0  0  0  0  0  0
  139.6760   73.3150  221.7400 N   0  0  0  0  0  0  0  0  0  0  0  0
  140.1690   74.6220  221.6830 C   0  0  0  0  0  0  0  0  0  0  0  0
  141.4420   74.7500  221.6040 O   0  0  0  0  0  0  0  0  0  0  0  0
  139.4010   75.8860  221.7030 C   0  0  2  0  0  0  0  0  0  0  0  0
  138.7520   76.2110  220.4780 N   0  0  0  0  0  0  0  0  0  0  0  0
  140.1100   76.9750  222.4120 C   0  0  2  0  0  0  0  0  0  0  0  0
  139.2510   78.2060  222.6190 C   0  0  0  0  0  0  0  0  0  0  0  0
  140.2930   79.2420  222.9840 C   0  0  0  0  0  0  0  0  0  0  0  0
  140.0980   80.4530  223.6130 C   0  0  0  0  0  0  0  0  0  0  0  0
  141.1660   81.2720  223.8760 C   0  0  0  0  0  0  0  0  0  0  0  0
  142.4110   80.8400  223.4930 C   0  0  0  0  0  0  0  0  0  0  0  0
  142.6260   79.6210  222.8570 C   0  0  0  0  0  0  0  0  0  0  0  0
  141.5450   78.8020  222.5960 C   0  0  0  0  0  0  0  0  0  0  0  0
  141.4170   77.4430  221.9310 C   0  0  2  0  0  0  0  0  0  0  0  0
  141.6690   77.5410  220.5000 C   0  0  0  0  0  0  0  0  0  0  0  0
  142.5750   76.7950  219.7840 C   0  0  0  0  0  0  0  0  0  0  0  0
  142.7540   76.9560  218.4150 C   0  0  0  0  0  0  0  0  0  0  0  0
  141.9890   77.9050  217.7570 C   0  0  0  0  0  0  0  0  0  0  0  0
  141.0980   78.6430  218.4470 N   0  0  0  0  0  0  0  0  0  0  0  0
  140.9280   78.4820  219.7750 C   0  0  0  0  0  0  0  0  0  0  0  0
  138.2980   72.9110  221.8520 C   0  0  0  0  0  0  0  0  0  0  0  0
  138.2640   71.5200  222.5110 C   0  0  0  0  0  0  0  0  0  0  0  0
  138.6009   69.3593  221.8566 H   0  0  0  0  0  0  0  0  0  0  0  0
  139.7574   67.9939  221.6985 H   0  0  0  0  0  0  0  0  0  0  0  0
  137.9891   67.6778  221.6985 H   0  0  0  0  0  0  0  0  0  0  0  0
  138.1937   67.2988  223.9145 H   0  0  0  0  0  0  0  0  0  0  0  0
  139.8481   67.9848  223.9576 H   0  0  0  0  0  0  0  0  0  0  0  0
  139.1832   68.3664  226.0794 H   0  0  0  0  0  0  0  0  0  0  0  0
  140.2746   68.1416  228.2872 H   0  0  0  0  0  0  0  0  0  0  0  0
  141.4877   70.0298  229.3121 H   0  0  0  0  0  0  0  0  0  0  0  0
  141.6188   72.2164  228.0978 H   0  0  0  0  0  0  0  0  0  0  0  0
  140.5214   72.4490  225.8693 H   0  0  0  0  0  0  0  0  0  0  0  0
  139.1194   72.4846  224.1925 H   0  0  0  0  0  0  0  0  0  0  0  0
  141.3982   71.9006  223.6871 H   0  0  0  0  0  0  0  0  0  0  0  0
  140.9050   70.4071  222.8187 H   0  0  0  0  0  0  0  0  0  0  0  0
  141.6648   72.6425  221.5213 H   0  0  0  0  0  0  0  0  0  0  0  0
  140.4028   71.5343  220.8748 H   0  0  0  0  0  0  0  0  0  0  0  0
  138.5233   75.7090  222.3420 H   0  0  0  0  0  0  0  0  0  0  0  0
  139.0550   75.6520  219.6760 H   0  0  0  0  0  0  0  0  0  0  0  0
  138.7260   77.2090  220.2150 H   0  0  0  0  0  0  0  0  0  0  0  0
  140.3267   76.4269  223.3408 H   0  0  0  0  0  0  0  0  0  0  0  0
  138.7152   78.4817  221.6987 H   0  0  0  0  0  0  0  0  0  0  0  0
  138.4601   78.0799  223.3730 H   0  0  0  0  0  0  0  0  0  0  0  0
  139.0837   80.7630  223.9046 H   0  0  0  0  0  0  0  0  0  0  0  0
  141.0295   82.2419  224.3767 H   0  0  0  0  0  0  0  0  0  0  0  0
  143.2775   81.4860  223.6978 H   0  0  0  0  0  0  0  0  0  0  0  0
  143.6417   79.3144  222.5665 H   0  0  0  0  0  0  0  0  0  0  0  0
  142.1663   76.6800  222.1885 H   0  0  0  0  0  0  0  0  0  0  0  0
  143.1798   76.0440  220.3133 H   0  0  0  0  0  0  0  0  0  0  0  0
  143.4858   76.3443  217.8671 H   0  0  0  0  0  0  0  0  0  0  0  0
  142.1088   78.0556  216.6740 H   0  0  0  0  0  0  0  0  0  0  0  0
  140.1896   79.1048  220.3012 H   0  0  0  0  0  0  0  0  0  0  0  0
  137.7465   73.6322  222.4730 H   0  0  0  0  0  0  0  0  0  0  0  0
  137.8274   72.8755  220.8584 H   0  0  0  0  0  0  0  0  0  0  0  0
  137.2606   71.3139  222.9119 H   0  0  0  0  0  0  0  0  0  0  0  0
  138.4995   70.7293  221.7834 H   0  0  0  0  0  0  0  0  0  0  0  0
  1  2  1  0
  2  3  1  0
  3  4  2  0
  3  5  1  0
  5  6  1  0
  6  7  2  0
  7  8  1  0
  8  9  2  0
  9 10  1  0
 10 11  2  0
  5 12  1  0
 12 13  1  0
 13 14  1  0
 14 15  1  0
 15 16  1  0
 16 17  2  0
 16 18  1  0
 18 19  1  0
 18 20  1  0
 20 21  1  0
 21 22  1  0
 22 23  2  0
 23 24  1  0
 24 25  2  0
 25 26  1  0
 26 27  2  0
 27 28  1  0
 28 29  1  0
 29 30  2  0
 30 31  1  0
 31 32  2  0
 32 33  1  0
 33 34  2  0
 15 35  1  0
 35 36  1  0
 11  6  1  0
 36 12  1  0
 28 20  1  0
 34 29  1  0
 27 22  1  0
  1 37  1  0
  1 38  1  0
  1 39  1  0
  2 40  1  0
  2 41  1  0
  7 42  1  0
  8 43  1  0
  9 44  1  0
 10 45  1  0
 11 46  1  0
 12 47  1  0
 13 48  1  0
 13 49  1  0
 14 50  1  0
 14 51  1  0
 18 52  1  1
 19 53  1  0
 19 54  1  0
 20 55  1  1
 21 56  1  0
 21 57  1  0
 23 58  1  0
 24 59  1  0
 25 60  1  0
 26 61  1  0
 28 62  1  1
 30 63  1  0
 31 64  1  0
 32 65  1  0
 34 66  1  0
 35 67  1  0
 35 68  1  0
 36 69  1  0
 36 70  1  0
M  END
>  <smiles>  (49) 
CCC(=O)N(c1ccccc1)C1CCN(C(=O)[C@H](N)C2Cc3ccccc3C2c2cccnc2)CC1

>  <score_type>  (49) 
oracle

>  <origin>  (49) 
autodockgpu

>  <m_score__min__energy>  (49) 
-9.3599999999999994

>  <m_primary>  (49) 
energy

>  <rmsd>  (49) 
5.396024246769905

>  <m_score__min__rmsd>  (49) 
5.396024246769905

>  <meeko>  (49) 
{"free_energy": -9.29, "intermolecular_energy": -11.68, "internal_energy": -2.27, "cluster_size": 36, "cluster_id": 1, "rank_in_cluster": 20}

>  <energy>  (49) 
-6.84

>  <cluster_rmsd>  (49) 
0.69

>  <cluster>  (49) 
4

$$$$

     RDKit          3D

 70 74  0  0  0  0  0  0  0  0999 V2000
  134.6450   69.7410  225.7470 C   0  0  0  0  0  0  0  0  0  0  0  0
  135.5210   70.5410  224.8120 C   0  0  0  0  0  0  0  0  0  0  0  0
  136.6450   69.6820  224.3550 C   0  0  0  0  0  0  0  0  0  0  0  0
  136.3340   68.5410  223.9160 O   0  0  0  0  0  0  0  0  0  0  0  0
  138.0030   70.1340  224.4130 N   0  0  0  0  0  0  0  0  0  0  0  0
  138.8610   69.5210  225.3670 C   0  0  0  0  0  0  0  0  0  0  0  0
  139.5970   70.3910  226.1740 C   0  0  0  0  0  0  0  0  0  0  0  0
  140.4520   69.8620  227.1200 C   0  0  0  0  0  0  0  0  0  0  0  0
  140.5960   68.5040  227.2880 C   0  0  0  0  0  0  0  0  0  0  0  0
  139.8610   67.6390  226.4840 C   0  0  0  0  0  0  0  0  0  0  0  0
  138.9950   68.1680  225.5240 C   0  0  0  0  0  0  0  0  0  0  0  0
  138.3960   71.1660  223.5040 C   0  0  0  0  0  0  0  0  0  0  0  0
  139.8790   71.0240  223.2220 C   0  0  0  0  0  0  0  0  0  0  0  0
  140.2200   71.7510  221.9350 C   0  0  0  0  0  0  0  0  0  0  0  0
  139.2860   72.8690  221.7270 N   0  0  0  0  0  0  0  0  0  0  0  0
  139.8190   74.1610  221.7650 C   0  0  0  0  0  0  0  0  0  0  0  0
  141.0780   74.2540  221.9880 O   0  0  0  0  0  0  0  0  0  0  0  0
  139.1100   75.4460  221.5790 C   0  0  2  0  0  0  0  0  0  0  0  0
  138.7160   75.7230  220.2390 N   0  0  0  0  0  0  0  0  0  0  0  0
  139.7120   76.5500  222.3580 C   0  0  2  0  0  0  0  0  0  0  0  0
  138.8440   77.7920  222.3970 C   0  0  0  0  0  0  0  0  0  0  0  0
  139.8280   78.8310  222.8900 C   0  0  0  0  0  0  0  0  0  0  0  0
  139.5500   80.0620  223.4480 C   0  0  0  0  0  0  0  0  0  0  0  0
  140.5730   80.8820  223.8490 C   0  0  0  0  0  0  0  0  0  0  0  0
  141.8580   80.4320  223.6740 C   0  0  0  0  0  0  0  0  0  0  0  0
  142.1560   79.1930  223.1130 C   0  0  0  0  0  0  0  0  0  0  0  0
  141.1200   78.3740  222.7110 C   0  0  0  0  0  0  0  0  0  0  0  0
  141.0820   76.9960  222.0720 C   0  0  2  0  0  0  0  0  0  0  0  0
  141.5510   77.0530  220.6940 C   0  0  0  0  0  0  0  0  0  0  0  0
  142.3810   76.1420  220.0840 C   0  0  0  0  0  0  0  0  0  0  0  0
  142.7840   76.2730  218.7600 C   0  0  0  0  0  0  0  0  0  0  0  0
  142.3300   77.3640  218.0380 C   0  0  0  0  0  0  0  0  0  0  0  0
  141.5170   78.2640  218.6240 N   0  0  0  0  0  0  0  0  0  0  0  0
  141.1290   78.1310  219.9090 C   0  0  0  0  0  0  0  0  0  0  0  0
  137.9080   72.5060  221.5160 C   0  0  0  0  0  0  0  0  0  0  0  0
  137.6750   71.1330  222.1740 C   0  0  0  0  0  0  0  0  0  0  0  0
  134.9064   69.9797  226.7885 H   0  0  0  0  0  0  0  0  0  0  0  0
  133.5897   69.9935  225.5667 H   0  0  0  0  0  0  0  0  0  0  0  0
  134.8010   68.6671  225.5667 H   0  0  0  0  0  0  0  0  0  0  0  0
  134.9310   70.8704  223.9440 H   0  0  0  0  0  0  0  0  0  0  0  0
  135.9152   71.4251  225.3345 H   0  0  0  0  0  0  0  0  0  0  0  0
  139.4971   71.4803  226.0578 H   0  0  0  0  0  0  0  0  0  0  0  0
  141.0339   70.5446  227.7567 H   0  0  0  0  0  0  0  0  0  0  0  0
  141.2841   68.1071  228.0489 H   0  0  0  0  0  0  0  0  0  0  0  0
  139.9606   66.5500  226.6029 H   0  0  0  0  0  0  0  0  0  0  0  0
  138.4126   67.4876  224.8853 H   0  0  0  0  0  0  0  0  0  0  0  0
  138.1381   72.1175  223.9921 H   0  0  0  0  0  0  0  0  0  0  0  0
  140.4537   71.4596  224.0527 H   0  0  0  0  0  0  0  0  0  0  0  0
  140.1328   69.9586  223.1200 H   0  0  0  0  0  0  0  0  0  0  0  0
  141.2468   72.1407  221.9976 H   0  0  0  0  0  0  0  0  0  0  0  0
  140.1384   71.0500  221.0913 H   0  0  0  0  0  0  0  0  0  0  0  0
  138.1215   75.3288  222.0472 H   0  0  0  0  0  0  0  0  0  0  0  0
  137.8140   75.3210  219.9700 H   0  0  0  0  0  0  0  0  0  0  0  0
  139.4130   75.5370  219.5010 H   0  0  0  0  0  0  0  0  0  0  0  0
  139.7772   76.0271  223.3236 H   0  0  0  0  0  0  0  0  0  0  0  0
  138.4590   78.0449  221.3981 H   0  0  0  0  0  0  0  0  0  0  0  0
  137.9452   77.6921  223.0232 H   0  0  0  0  0  0  0  0  0  0  0  0
  138.5060   80.3859  223.5713 H   0  0  0  0  0  0  0  0  0  0  0  0
  140.3710   81.8667  224.2956 H   0  0  0  0  0  0  0  0  0  0  0  0
  142.6892   81.0790  223.9910 H   0  0  0  0  0  0  0  0  0  0  0  0
  143.2010   78.8717  222.9920 H   0  0  0  0  0  0  0  0  0  0  0  0
  141.7747   76.2363  222.4631 H   0  0  0  0  0  0  0  0  0  0  0  0
  142.7388   75.2788  220.6644 H   0  0  0  0  0  0  0  0  0  0  0  0
  143.4476   75.5279  218.2969 H   0  0  0  0  0  0  0  0  0  0  0  0
  142.6325   77.4953  216.9886 H   0  0  0  0  0  0  0  0  0  0  0  0
  140.4647   78.8886  220.3502 H   0  0  0  0  0  0  0  0  0  0  0  0
  137.2489   73.2574  221.9753 H   0  0  0  0  0  0  0  0  0  0  0  0
  137.6843   72.4586  220.4400 H   0  0  0  0  0  0  0  0  0  0  0  0
  136.5992   70.9636  222.3290 H   0  0  0  0  0  0  0  0  0  0  0  0
  138.0509   70.3181  221.5379 H   0  0  0  0  0  0  0  0  0  0  0  0
  1  2  1  0
  2  3  1  0
  3  4  2  0
  3  5  1  0
  5  6  1  0
  6  7  2  0
  7  8  1  0
  8  9  2  0
  9 10  1  0
 10 11  2  0
  5 12  1  0
 12 13  1  0
 13 14  1  0
 14 15  1  0
 15 16  1  0
 16 17  2  0
 16 18  1  0
 18 19  1  0
 18 20  1  0
 20 21  1  0
 21 22  1  0
 22 23  2  0
 23 24  1  0
 24 25  2  0
 25 26  1  0
 26 27  2  0
 27 28  1  0
 28 29  1  0
 29 30  2  0
 30 31  1  0
 31 32  2  0
 32 33  1  0
 33 34  2  0
 15 35  1  0
 35 36  1  0
 11  6  1  0
 36 12  1  0
 28 20  1  0
 34 29  1  0
 27 22  1  0
  1 37  1  0
  1 38  1  0
  1 39  1  0
  2 40  1  0
  2 41  1  0
  7 42  1  0
  8 43  1  0
  9 44  1  0
 10 45  1  0
 11 46  1  0
 12 47  1  0
 13 48  1  0
 13 49  1  0
 14 50  1  0
 14 51  1  0
 18 52  1  1
 19 53  1  0
 19 54  1  0
 20 55  1  1
 21 56  1  0
 21 57  1  0
 23 58  1  0
 24 59  1  0
 25 60  1  0
 26 61  1  0
 28 62  1  1
 30 63  1  0
 31 64  1  0
 32 65  1  0
 34 66  1  0
 35 67  1  0
 35 68  1  0
 36 69  1  0
 36 70  1  0
M  END
>  <smiles>  (50) 
CCC(=O)N(c1ccccc1)C1CCN(C(=O)[C@H](N)C2Cc3ccccc3C2c2cccnc2)CC1

>  <score_type>  (50) 
oracle

>  <origin>  (50) 
autodockgpu

>  <m_score__min__energy>  (50) 
-9.3599999999999994

>  <m_primary>  (50) 
energy

>  <rmsd>  (50) 
5.683075180612661

>  <m_score__min__rmsd>  (50) 
5.683075180612661

>  <meeko>  (50) 
{"free_energy": -9.02, "intermolecular_energy": -11.41, "internal_energy": -2.19, "cluster_size": 36, "cluster_id": 1, "rank_in_cluster": 32}

>  <energy>  (50) 
-6.83

>  <cluster_rmsd>  (50) 
0.76

>  <cluster>  (50) 
4

$$$$

     RDKit          3D

 70 74  0  0  0  0  0  0  0  0999 V2000
  137.5410   78.7980  222.7070 C   0  0  0  0  0  0  0  0  0  0  0  0
  137.2390   80.1230  222.0050 C   0  0  0  0  0  0  0  0  0  0  0  0
  138.4320   80.8240  221.5490 C   0  0  0  0  0  0  0  0  0  0  0  0
  138.3740   82.0920  221.4020 O   0  0  0  0  0  0  0  0  0  0  0  0
  139.6860   80.2350  221.2400 N   0  0  0  0  0  0  0  0  0  0  0  0
  140.7030   80.3790  222.2580 C   0  0  0  0  0  0  0  0  0  0  0  0
  141.1730   79.2520  222.9130 C   0  0  0  0  0  0  0  0  0  0  0  0
  142.1500   79.3330  223.9040 C   0  0  0  0  0  0  0  0  0  0  0  0
  142.6370   80.5790  224.2120 C   0  0  0  0  0  0  0  0  0  0  0  0
  142.1840   81.7260  223.5690 C   0  0  0  0  0  0  0  0  0  0  0  0
  141.2090   81.6170  222.5860 C   0  0  0  0  0  0  0  0  0  0  0  0
  139.9930   79.5400  220.0260 C   0  0  0  0  0  0  0  0  0  0  0  0
  140.3390   78.1010  220.1670 C   0  0  0  0  0  0  0  0  0  0  0  0
  141.8290   77.8000  219.9040 C   0  0  0  0  0  0  0  0  0  0  0  0
  142.0140   78.0920  218.5010 N   0  0  0  0  0  0  0  0  0  0  0  0
  142.7950   77.3290  217.5990 C   0  0  0  0  0  0  0  0  0  0  0  0
  142.7910   77.7400  216.3920 O   0  0  0  0  0  0  0  0  0  0  0  0
  143.5810   76.1430  217.9270 C   0  0  2  0  0  0  0  0  0  0  0  0
  144.4300   75.7490  216.8910 N   0  0  0  0  0  0  0  0  0  0  0  0
  142.7700   74.9870  218.5040 C   0  0  1  0  0  0  0  0  0  0  0  0
  143.3800   73.6950  218.0130 C   0  0  0  0  0  0  0  0  0  0  0  0
  144.4070   73.3380  218.9880 C   0  0  0  0  0  0  0  0  0  0  0  0
  145.4750   72.4710  218.8830 C   0  0  0  0  0  0  0  0  0  0  0  0
  146.3010   72.3110  219.9790 C   0  0  0  0  0  0  0  0  0  0  0  0
  146.0980   72.9760  221.1490 C   0  0  0  0  0  0  0  0  0  0  0  0
  145.0090   73.8450  221.2190 C   0  0  0  0  0  0  0  0  0  0  0  0
  144.1590   74.0280  220.1340 C   0  0  0  0  0  0  0  0  0  0  0  0
  142.9490   74.9110  219.9860 C   0  0  2  0  0  0  0  0  0  0  0  0
  141.7860   74.3300  220.6920 C   0  0  0  0  0  0  0  0  0  0  0  0
  141.3870   73.0280  220.6470 C   0  0  0  0  0  0  0  0  0  0  0  0
  140.2810   72.6300  221.3700 C   0  0  0  0  0  0  0  0  0  0  0  0
  139.5720   73.5300  222.1370 C   0  0  0  0  0  0  0  0  0  0  0  0
  139.9670   74.8160  222.1800 N   0  0  0  0  0  0  0  0  0  0  0  0
  141.0400   75.1970  221.4790 C   0  0  0  0  0  0  0  0  0  0  0  0
  141.3200   79.3030  218.0180 C   0  0  0  0  0  0  0  0  0  0  0  0
  141.0340   80.2390  219.1720 C   0  0  0  0  0  0  0  0  0  0  0  0
  137.5076   78.9444  223.7967 H   0  0  0  0  0  0  0  0  0  0  0  0
  136.7906   78.0487  222.4146 H   0  0  0  0  0  0  0  0  0  0  0  0
  138.5420   78.4479  222.4146 H   0  0  0  0  0  0  0  0  0  0  0  0
  136.6011   79.9174  221.1327 H   0  0  0  0  0  0  0  0  0  0  0  0
  136.7429   80.7732  222.7406 H   0  0  0  0  0  0  0  0  0  0  0  0
  140.7642   78.2669  222.6437 H   0  0  0  0  0  0  0  0  0  0  0  0
  142.5166   78.4331  224.4194 H   0  0  0  0  0  0  0  0  0  0  0  0
  143.4084   80.6730  224.9905 H   0  0  0  0  0  0  0  0  0  0  0  0
  142.5944   82.7109  223.8367 H   0  0  0  0  0  0  0  0  0  0  0  0
  140.8420   82.5170  222.0709 H   0  0  0  0  0  0  0  0  0  0  0  0
  139.0250   79.5701  219.5044 H   0  0  0  0  0  0  0  0  0  0  0  0
  140.0945   77.7824  221.1911 H   0  0  0  0  0  0  0  0  0  0  0  0
  139.7587   77.5521  219.4108 H   0  0  0  0  0  0  0  0  0  0  0  0
  142.4710   78.4437  220.5232 H   0  0  0  0  0  0  0  0  0  0  0  0
  142.0972   76.7631  220.1547 H   0  0  0  0  0  0  0  0  0  0  0  0
  144.2307   76.4634  218.7548 H   0  0  0  0  0  0  0  0  0  0  0  0
  144.1230   75.9250  215.9450 H   0  0  0  0  0  0  0  0  0  0  0  0
  145.1410   75.0540  217.0330 H   0  0  0  0  0  0  0  0  0  0  0  0
  141.7185   75.1347  218.2167 H   0  0  0  0  0  0  0  0  0  0  0  0
  142.6142   72.9072  217.9588 H   0  0  0  0  0  0  0  0  0  0  0  0
  143.8042   73.8077  217.0044 H   0  0  0  0  0  0  0  0  0  0  0  0
  145.6643   71.9206  217.9496 H   0  0  0  0  0  0  0  0  0  0  0  0
  147.1541   71.6207  219.9031 H   0  0  0  0  0  0  0  0  0  0  0  0
  146.7689   72.8333  222.0090 H   0  0  0  0  0  0  0  0  0  0  0  0
  144.8189   74.3967  222.1515 H   0  0  0  0  0  0  0  0  0  0  0  0
  143.0588   75.9099  220.4334 H   0  0  0  0  0  0  0  0  0  0  0  0
  141.9426   72.2992  220.0386 H   0  0  0  0  0  0  0  0  0  0  0  0
  139.9601   71.5785  221.3338 H   0  0  0  0  0  0  0  0  0  0  0  0
  138.6918   73.2002  222.7084 H   0  0  0  0  0  0  0  0  0  0  0  0
  141.3476   76.2520  221.5284 H   0  0  0  0  0  0  0  0  0  0  0  0
  141.9564   79.8172  217.2827 H   0  0  0  0  0  0  0  0  0  0  0  0
  140.3684   79.0084  217.5516 H   0  0  0  0  0  0  0  0  0  0  0  0
  141.9494   80.4185  219.7550 H   0  0  0  0  0  0  0  0  0  0  0  0
  140.6762   81.2175  218.8192 H   0  0  0  0  0  0  0  0  0  0  0  0
  1  2  1  0
  2  3  1  0
  3  4  2  0
  3  5  1  0
  5  6  1  0
  6  7  2  0
  7  8  1  0
  8  9  2  0
  9 10  1  0
 10 11  2  0
  5 12  1  0
 12 13  1  0
 13 14  1  0
 14 15  1  0
 15 16  1  0
 16 17  2  0
 16 18  1  0
 18 19  1  0
 18 20  1  0
 20 21  1  0
 21 22  1  0
 22 23  2  0
 23 24  1  0
 24 25  2  0
 25 26  1  0
 26 27  2  0
 27 28  1  0
 28 29  1  0
 29 30  2  0
 30 31  1  0
 31 32  2  0
 32 33  1  0
 33 34  2  0
 15 35  1  0
 35 36  1  0
 11  6  1  0
 36 12  1  0
 28 20  1  0
 34 29  1  0
 27 22  1  0
  1 37  1  0
  1 38  1  0
  1 39  1  0
  2 40  1  0
  2 41  1  0
  7 42  1  0
  8 43  1  0
  9 44  1  0
 10 45  1  0
 11 46  1  0
 12 47  1  0
 13 48  1  0
 13 49  1  0
 14 50  1  0
 14 51  1  0
 18 52  1  1
 19 53  1  0
 19 54  1  0
 20 55  1  1
 21 56  1  0
 21 57  1  0
 23 58  1  0
 24 59  1  0
 25 60  1  0
 26 61  1  0
 28 62  1  1
 30 63  1  0
 31 64  1  0
 32 65  1  0
 34 66  1  0
 35 67  1  0
 35 68  1  0
 36 69  1  0
 36 70  1  0
M  END
>  <smiles>  (51) 
CCC(=O)N(c1ccccc1)C1CCN(C(=O)[C@H](N)C2Cc3ccccc3C2c2cccnc2)CC1

>  <score_type>  (51) 
oracle

>  <origin>  (51) 
autodockgpu

>  <m_score__min__energy>  (51) 
-9.3300000000000001

>  <m_primary>  (51) 
energy

>  <rmsd>  (51) 
7.330890553926063

>  <m_score__min__rmsd>  (51) 
7.330890553926063

>  <meeko>  (51) 
{"free_energy": -7.71, "intermolecular_energy": -10.09, "internal_energy": -3.19, "cluster_size": 10, "cluster_id": 3, "rank_in_cluster": 9}

>  <energy>  (51) 
-9.33

>  <cluster_rmsd>  (51) 
0.0

>  <cluster>  (51) 
1

$$$$

     RDKit          3D

 70 74  0  0  0  0  0  0  0  0999 V2000
  136.9160   70.7290  224.1470 C   0  0  0  0  0  0  0  0  0  0  0  0
  137.1390   69.2190  224.2430 C   0  0  0  0  0  0  0  0  0  0  0  0
  138.5440   68.8440  224.3320 C   0  0  0  0  0  0  0  0  0  0  0  0
  138.8450   67.6020  224.3050 O   0  0  0  0  0  0  0  0  0  0  0  0
  139.6450   69.7320  224.4500 N   0  0  0  0  0  0  0  0  0  0  0  0
  140.1590   69.9030  225.7900 C   0  0  0  0  0  0  0  0  0  0  0  0
  140.2250   71.1750  226.3370 C   0  0  0  0  0  0  0  0  0  0  0  0
  140.7130   71.3970  227.6230 C   0  0  0  0  0  0  0  0  0  0  0  0
  141.1320   70.3040  228.3380 C   0  0  0  0  0  0  0  0  0  0  0  0
  141.0770   69.0170  227.8150 C   0  0  0  0  0  0  0  0  0  0  0  0
  140.5860   68.8220  226.5310 C   0  0  0  0  0  0  0  0  0  0  0  0
  140.2490   70.4430  223.3640 C   0  0  0  0  0  0  0  0  0  0  0  0
  140.4580   71.9000  223.5730 C   0  0  0  0  0  0  0  0  0  0  0  0
  139.5210   72.7830  222.7220 C   0  0  0  0  0  0  0  0  0  0  0  0
  139.9340   72.5390  221.3590 N   0  0  0  0  0  0  0  0  0  0  0  0
  140.0410   73.5220  220.3450 C   0  0  0  0  0  0  0  0  0  0  0  0
  140.4650   73.0980  219.2190 O   0  0  0  0  0  0  0  0  0  0  0  0
  139.7160   74.9380  220.4780 C   0  0  2  0  0  0  0  0  0  0  0  0
  139.2730   75.5090  219.2830 N   0  0  0  0  0  0  0  0  0  0  0  0
  140.7890   75.7700  221.1740 C   0  0  1  0  0  0  0  0  0  0  0  0
  142.1380   75.2010  220.8030 C   0  0  0  0  0  0  0  0  0  0  0  0
  142.5390   75.8810  219.5740 C   0  0  0  0  0  0  0  0  0  0  0  0
  143.4870   75.5380  218.6320 C   0  0  0  0  0  0  0  0  0  0  0  0
  143.6720   76.3790  217.5520 C   0  0  0  0  0  0  0  0  0  0  0  0
  142.9570   77.5250  217.3870 C   0  0  0  0  0  0  0  0  0  0  0  0
  142.0070   77.8400  218.3590 C   0  0  0  0  0  0  0  0  0  0  0  0
  141.7960   77.0140  219.4580 C   0  0  0  0  0  0  0  0  0  0  0  0
  140.8300   77.1520  220.6040 C   0  0  2  0  0  0  0  0  0  0  0  0
  141.2990   78.1720  221.5660 C   0  0  0  0  0  0  0  0  0  0  0  0
  141.8370   79.3840  221.2540 C   0  0  0  0  0  0  0  0  0  0  0  0
  142.2230   80.2390  222.2670 C   0  0  0  0  0  0  0  0  0  0  0  0
  142.0730   79.8860  223.5910 C   0  0  0  0  0  0  0  0  0  0  0  0
  141.5420   78.6870  223.8980 N   0  0  0  0  0  0  0  0  0  0  0  0
  141.1690   77.8630  222.9140 C   0  0  0  0  0  0  0  0  0  0  0  0
  140.2520   71.1310  221.0450 C   0  0  0  0  0  0  0  0  0  0  0  0
  139.5670   70.2070  222.0290 C   0  0  0  0  0  0  0  0  0  0  0  0
  136.8530   71.1554  225.1590 H   0  0  0  0  0  0  0  0  0  0  0  0
  137.7558   71.1900  223.6065 H   0  0  0  0  0  0  0  0  0  0  0  0
  135.9788   70.9276  223.6065 H   0  0  0  0  0  0  0  0  0  0  0  0
  136.6218   68.8469  225.1396 H   0  0  0  0  0  0  0  0  0  0  0  0
  136.7430   68.7738  223.3183 H   0  0  0  0  0  0  0  0  0  0  0  0
  139.8827   72.0327  225.7393 H   0  0  0  0  0  0  0  0  0  0  0  0
  140.7604   72.4102  228.0487 H   0  0  0  0  0  0  0  0  0  0  0  0
  141.5233   70.4501  229.3556 H   0  0  0  0  0  0  0  0  0  0  0  0
  141.4197   68.1601  228.4136 H   0  0  0  0  0  0  0  0  0  0  0  0
  140.5379   67.8083  226.1066 H   0  0  0  0  0  0  0  0  0  0  0  0
  141.2523   69.9928  223.3373 H   0  0  0  0  0  0  0  0  0  0  0  0
  140.2829   72.1284  224.6347 H   0  0  0  0  0  0  0  0  0  0  0  0
  141.4885   72.1276  223.2626 H   0  0  0  0  0  0  0  0  0  0  0  0
  138.4710   72.4898  222.8686 H   0  0  0  0  0  0  0  0  0  0  0  0
  139.5860   73.8466  222.9950 H   0  0  0  0  0  0  0  0  0  0  0  0
  138.8597   74.9611  221.1681 H   0  0  0  0  0  0  0  0  0  0  0  0
  139.4880   75.0210  218.4260 H   0  0  0  0  0  0  0  0  0  0  0  0
  139.0440   76.4860  219.2230 H   0  0  0  0  0  0  0  0  0  0  0  0
  140.5726   75.7679  222.2525 H   0  0  0  0  0  0  0  0  0  0  0  0
  142.8677   75.3956  221.6028 H   0  0  0  0  0  0  0  0  0  0  0  0
  142.0901   74.1110  220.6625 H   0  0  0  0  0  0  0  0  0  0  0  0
  144.0805   74.6180  218.7384 H   0  0  0  0  0  0  0  0  0  0  0  0
  144.4259   76.1123  216.7967 H   0  0  0  0  0  0  0  0  0  0  0  0
  143.1221   78.1795  216.5185 H   0  0  0  0  0  0  0  0  0  0  0  0
  141.4130   78.7599  218.2541 H   0  0  0  0  0  0  0  0  0  0  0  0
  139.8286   77.5023  220.3133 H   0  0  0  0  0  0  0  0  0  0  0  0
  141.9631   79.6795  220.2020 H   0  0  0  0  0  0  0  0  0  0  0  0
  142.6571   81.2174  222.0135 H   0  0  0  0  0  0  0  0  0  0  0  0
  142.3838   80.5766  224.3888 H   0  0  0  0  0  0  0  0  0  0  0  0
  140.7363   76.8889  223.1859 H   0  0  0  0  0  0  0  0  0  0  0  0
  139.9055   70.8988  220.0272 H   0  0  0  0  0  0  0  0  0  0  0  0
  141.3401   70.9853  221.1144 H   0  0  0  0  0  0  0  0  0  0  0  0
  138.4960   70.4479  222.0985 H   0  0  0  0  0  0  0  0  0  0  0  0
  139.6436   69.1552  221.7164 H   0  0  0  0  0  0  0  0  0  0  0  0
  1  2  1  0
  2  3  1  0
  3  4  2  0
  3  5  1  0
  5  6  1  0
  6  7  2  0
  7  8  1  0
  8  9  2  0
  9 10  1  0
 10 11  2  0
  5 12  1  0
 12 13  1  0
 13 14  1  0
 14 15  1  0
 15 16  1  0
 16 17  2  0
 16 18  1  0
 18 19  1  0
 18 20  1  0
 20 21  1  0
 21 22  1  0
 22 23  2  0
 23 24  1  0
 24 25  2  0
 25 26  1  0
 26 27  2  0
 27 28  1  0
 28 29  1  0
 29 30  2  0
 30 31  1  0
 31 32  2  0
 32 33  1  0
 33 34  2  0
 15 35  1  0
 35 36  1  0
 11  6  1  0
 36 12  1  0
 28 20  1  0
 34 29  1  0
 27 22  1  0
  1 37  1  0
  1 38  1  0
  1 39  1  0
  2 40  1  0
  2 41  1  0
  7 42  1  0
  8 43  1  0
  9 44  1  0
 10 45  1  0
 11 46  1  0
 12 47  1  0
 13 48  1  0
 13 49  1  0
 14 50  1  0
 14 51  1  0
 18 52  1  1
 19 53  1  0
 19 54  1  0
 20 55  1  1
 21 56  1  0
 21 57  1  0
 23 58  1  0
 24 59  1  0
 25 60  1  0
 26 61  1  0
 28 62  1  6
 30 63  1  0
 31 64  1  0
 32 65  1  0
 34 66  1  0
 35 67  1  0
 35 68  1  0
 36 69  1  0
 36 70  1  0
M  END
>  <smiles>  (52) 
CCC(=O)N(c1ccccc1)C1CCN(C(=O)[C@H](N)C2Cc3ccccc3C2c2cccnc2)CC1

>  <score_type>  (52) 
oracle

>  <origin>  (52) 
autodockgpu

>  <m_score__min__energy>  (52) 
-9.3300000000000001

>  <m_primary>  (52) 
energy

>  <rmsd>  (52) 
7.09597148763359

>  <m_score__min__rmsd>  (52) 
7.09597148763359

>  <meeko>  (52) 
{"free_energy": -8.27, "intermolecular_energy": -10.66, "internal_energy": -2.65, "cluster_size": 5, "cluster_id": 2, "rank_in_cluster": 3}

>  <energy>  (52) 
-9.29

>  <cluster_rmsd>  (52) 
0.47

>  <cluster>  (52) 
1

$$$$

     RDKit          3D

 70 74  0  0  0  0  0  0  0  0999 V2000
  137.7170   80.9100  225.0220 C   0  0  0  0  0  0  0  0  0  0  0  0
  137.2420   81.4190  223.6600 C   0  0  0  0  0  0  0  0  0  0  0  0
  138.1860   81.1580  222.5810 C   0  0  0  0  0  0  0  0  0  0  0  0
  138.3810   82.0720  221.7090 O   0  0  0  0  0  0  0  0  0  0  0  0
  138.9310   79.9660  222.3860 N   0  0  0  0  0  0  0  0  0  0  0  0
  140.3460   80.0700  222.6660 C   0  0  0  0  0  0  0  0  0  0  0  0
  141.1820   80.6670  221.7360 C   0  0  0  0  0  0  0  0  0  0  0  0
  142.5530   80.7920  221.9530 C   0  0  0  0  0  0  0  0  0  0  0  0
  143.0530   80.2990  223.1320 C   0  0  0  0  0  0  0  0  0  0  0  0
  142.2380   79.6970  224.0840 C   0  0  0  0  0  0  0  0  0  0  0  0
  140.8750   79.5840  223.8420 C   0  0  0  0  0  0  0  0  0  0  0  0
  138.3880   78.7180  221.9420 C   0  0  0  0  0  0  0  0  0  0  0  0
  138.7690   77.5200  222.7350 C   0  0  0  0  0  0  0  0  0  0  0  0
  139.7350   76.5740  221.9910 C   0  0  0  0  0  0  0  0  0  0  0  0
  138.9560   76.0590  220.8880 N   0  0  0  0  0  0  0  0  0  0  0  0
  138.9770   74.7210  220.4230 C   0  0  0  0  0  0  0  0  0  0  0  0
  138.1800   74.4670  219.4590 O   0  0  0  0  0  0  0  0  0  0  0  0
  139.8090   73.6400  220.9400 C   0  0  2  0  0  0  0  0  0  0  0  0
  139.9970   73.7100  222.3220 N   0  0  0  0  0  0  0  0  0  0  0  0
  141.1100   73.4210  220.1730 C   0  0  1  0  0  0  0  0  0  0  0  0
  140.9150   73.9320  218.7650 C   0  0  0  0  0  0  0  0  0  0  0  0
  141.2800   75.3460  218.7950 C   0  0  0  0  0  0  0  0  0  0  0  0
  140.9880   76.3630  217.9100 C   0  0  0  0  0  0  0  0  0  0  0  0
  141.4730   77.6270  218.1800 C   0  0  0  0  0  0  0  0  0  0  0  0
  142.2240   77.9020  219.2820 C   0  0  0  0  0  0  0  0  0  0  0  0
  142.4990   76.8490  220.1550 C   0  0  0  0  0  0  0  0  0  0  0  0
  142.0260   75.5660  219.9110 C   0  0  0  0  0  0  0  0  0  0  0  0
  142.1890   74.3020  220.7140 C   0  0  2  0  0  0  0  0  0  0  0  0
  143.5480   73.7430  220.5400 C   0  0  0  0  0  0  0  0  0  0  0  0
  144.7200   74.4270  220.6630 C   0  0  0  0  0  0  0  0  0  0  0  0
  145.9170   73.7650  220.4790 C   0  0  0  0  0  0  0  0  0  0  0  0
  145.9460   72.4210  220.1740 C   0  0  0  0  0  0  0  0  0  0  0  0
  144.7870   71.7460  220.0530 N   0  0  0  0  0  0  0  0  0  0  0  0
  143.6300   72.3920  220.2330 C   0  0  0  0  0  0  0  0  0  0  0  0
  138.0920   77.0500  220.2150 C   0  0  0  0  0  0  0  0  0  0  0  0
  138.6090   78.4510  220.4650 C   0  0  0  0  0  0  0  0  0  0  0  0
  137.2008   81.4631  225.8205 H   0  0  0  0  0  0  0  0  0  0  0  0
  137.4892   79.8377  225.1125 H   0  0  0  0  0  0  0  0  0  0  0  0
  138.8025   81.0632  225.1125 H   0  0  0  0  0  0  0  0  0  0  0  0
  136.2896   80.9254  223.4165 H   0  0  0  0  0  0  0  0  0  0  0  0
  137.1368   82.5109  223.7411 H   0  0  0  0  0  0  0  0  0  0  0  0
  140.7515   81.0531  220.8003 H   0  0  0  0  0  0  0  0  0  0  0  0
  143.2086   81.2672  221.2084 H   0  0  0  0  0  0  0  0  0  0  0  0
  144.1318   80.3827  223.3300 H   0  0  0  0  0  0  0  0  0  0  0  0
  142.6689   79.3136  225.0207 H   0  0  0  0  0  0  0  0  0  0  0  0
  140.2199   79.1081  224.5866 H   0  0  0  0  0  0  0  0  0  0  0  0
  137.3133   78.8697  222.1207 H   0  0  0  0  0  0  0  0  0  0  0  0
  139.2556   77.8561  223.6625 H   0  0  0  0  0  0  0  0  0  0  0  0
  137.8466   76.9536  222.9309 H   0  0  0  0  0  0  0  0  0  0  0  0
  140.6132   77.1250  221.6234 H   0  0  0  0  0  0  0  0  0  0  0  0
  140.1218   75.7747  222.6402 H   0  0  0  0  0  0  0  0  0  0  0  0
  139.2223   72.7284  220.7533 H   0  0  0  0  0  0  0  0  0  0  0  0
  140.7250   73.1380  222.7230 H   0  0  0  0  0  0  0  0  0  0  0  0
  139.2710   74.0430  222.9320 H   0  0  0  0  0  0  0  0  0  0  0  0
  141.3685   72.3539  220.2402 H   0  0  0  0  0  0  0  0  0  0  0  0
  141.5647   73.3844  218.0664 H   0  0  0  0  0  0  0  0  0  0  0  0
  139.8783   73.7909  218.4254 H   0  0  0  0  0  0  0  0  0  0  0  0
  140.3835   76.1715  217.0112 H   0  0  0  0  0  0  0  0  0  0  0  0
  141.2441   78.4427  217.4784 H   0  0  0  0  0  0  0  0  0  0  0  0
  142.6001   78.9172  219.4768 H   0  0  0  0  0  0  0  0  0  0  0  0
  143.1026   77.0387  221.0548 H   0  0  0  0  0  0  0  0  0  0  0  0
  142.0944   74.4396  221.8012 H   0  0  0  0  0  0  0  0  0  0  0  0
  144.7122   75.4995  220.9073 H   0  0  0  0  0  0  0  0  0  0  0  0
  146.8625   74.3185  220.5773 H   0  0  0  0  0  0  0  0  0  0  0  0
  146.9067   71.9048  220.0308 H   0  0  0  0  0  0  0  0  0  0  0  0
  142.6942   71.8227  220.1325 H   0  0  0  0  0  0  0  0  0  0  0  0
  138.0872   76.8523  219.1329 H   0  0  0  0  0  0  0  0  0  0  0  0
  137.0713   76.9674  220.6167 H   0  0  0  0  0  0  0  0  0  0  0  0
  139.6798   78.5130  220.2209 H   0  0  0  0  0  0  0  0  0  0  0  0
  138.0896   79.1911  219.8385 H   0  0  0  0  0  0  0  0  0  0  0  0
  1  2  1  0
  2  3  1  0
  3  4  2  0
  3  5  1  0
  5  6  1  0
  6  7  2  0
  7  8  1  0
  8  9  2  0
  9 10  1  0
 10 11  2  0
  5 12  1  0
 12 13  1  0
 13 14  1  0
 14 15  1  0
 15 16  1  0
 16 17  2  0
 16 18  1  0
 18 19  1  0
 18 20  1  0
 20 21  1  0
 21 22  1  0
 22 23  2  0
 23 24  1  0
 24 25  2  0
 25 26  1  0
 26 27  2  0
 27 28  1  0
 28 29  1  0
 29 30  2  0
 30 31  1  0
 31 32  2  0
 32 33  1  0
 33 34  2  0
 15 35  1  0
 35 36  1  0
 11  6  1  0
 36 12  1  0
 28 20  1  0
 34 29  1  0
 27 22  1  0
  1 37  1  0
  1 38  1  0
  1 39  1  0
  2 40  1  0
  2 41  1  0
  7 42  1  0
  8 43  1  0
  9 44  1  0
 10 45  1  0
 11 46  1  0
 12 47  1  0
 13 48  1  0
 13 49  1  0
 14 50  1  0
 14 51  1  0
 18 52  1  1
 19 53  1  0
 19 54  1  0
 20 55  1  6
 21 56  1  0
 21 57  1  0
 23 58  1  0
 24 59  1  0
 25 60  1  0
 26 61  1  0
 28 62  1  1
 30 63  1  0
 31 64  1  0
 32 65  1  0
 34 66  1  0
 35 67  1  0
 35 68  1  0
 36 69  1  0
 36 70  1  0
M  END
>  <smiles>  (53) 
CCC(=O)N(c1ccccc1)C1CCN(C(=O)[C@H](N)C2Cc3ccccc3C2c2cccnc2)CC1

>  <score_type>  (53) 
oracle

>  <origin>  (53) 
autodockgpu

>  <m_score__min__energy>  (53) 
-9.3300000000000001

>  <m_primary>  (53) 
energy

>  <rmsd>  (53) 
6.039096437072069

>  <m_score__min__rmsd>  (53) 
6.039096437072069

>  <meeko>  (53) 
{"free_energy": -7.61, "intermolecular_energy": -9.99, "internal_energy": -3.33, "cluster_size": 15, "cluster_id": 5, "rank_in_cluster": 6}

>  <energy>  (53) 
-9.27

>  <cluster_rmsd>  (53) 
0.12

>  <cluster>  (53) 
1

$$$$

     RDKit          3D

 70 74  0  0  0  0  0  0  0  0999 V2000
  141.8340   78.9900  223.9850 C   0  0  0  0  0  0  0  0  0  0  0  0
  142.1370   80.4790  223.8110 C   0  0  0  0  0  0  0  0  0  0  0  0
  141.2800   81.1350  222.8320 C   0  0  0  0  0  0  0  0  0  0  0  0
  141.5320   82.3480  222.5180 O   0  0  0  0  0  0  0  0  0  0  0  0
  140.1630   80.5580  222.1720 N   0  0  0  0  0  0  0  0  0  0  0  0
  138.8940   80.7270  222.8430 C   0  0  0  0  0  0  0  0  0  0  0  0
  138.8530   80.7410  224.2280 C   0  0  0  0  0  0  0  0  0  0  0  0
  137.6580   80.8980  224.9270 C   0  0  0  0  0  0  0  0  0  0  0  0
  136.5090   81.0410  224.1900 C   0  0  0  0  0  0  0  0  0  0  0  0
  136.5210   81.0310  222.7990 C   0  0  0  0  0  0  0  0  0  0  0  0
  137.7260   80.8720  222.1280 C   0  0  0  0  0  0  0  0  0  0  0  0
  140.2190   79.8430  220.9320 C   0  0  0  0  0  0  0  0  0  0  0  0
  140.5790   78.4040  221.0230 C   0  0  0  0  0  0  0  0  0  0  0  0
  141.9860   78.0880  220.4740 C   0  0  0  0  0  0  0  0  0  0  0  0
  141.8890   78.3590  219.0570 N   0  0  0  0  0  0  0  0  0  0  0  0
  142.4710   77.5760  218.0300 C   0  0  0  0  0  0  0  0  0  0  0  0
  142.2270   77.9700  216.8410 O   0  0  0  0  0  0  0  0  0  0  0  0
  143.3000   76.3900  218.2130 C   0  0  2  0  0  0  0  0  0  0  0  0
  144.1000   76.1080  217.1030 N   0  0  0  0  0  0  0  0  0  0  0  0
  142.5500   75.1670  218.7320 C   0  0  1  0  0  0  0  0  0  0  0  0
  143.1580   73.9390  218.0970 C   0  0  0  0  0  0  0  0  0  0  0  0
  144.2480   73.5270  218.9770 C   0  0  0  0  0  0  0  0  0  0  0  0
  145.3260   72.7010  218.7370 C   0  0  0  0  0  0  0  0  0  0  0  0
  146.2180   72.4700  219.7660 C   0  0  0  0  0  0  0  0  0  0  0  0
  146.0700   73.0260  221.0000 C   0  0  0  0  0  0  0  0  0  0  0  0
  144.9670   73.8560  221.2060 C   0  0  0  0  0  0  0  0  0  0  0  0
  144.0520   74.1090  220.1910 C   0  0  0  0  0  0  0  0  0  0  0  0
  142.8170   74.9690  220.1890 C   0  0  2  0  0  0  0  0  0  0  0  0
  141.7100   74.2990  220.9060 C   0  0  0  0  0  0  0  0  0  0  0  0
  141.4920   72.9560  220.9710 C   0  0  0  0  0  0  0  0  0  0  0  0
  140.4150   72.4750  221.6890 C   0  0  0  0  0  0  0  0  0  0  0  0
  139.5570   73.3340  222.3420 C   0  0  0  0  0  0  0  0  0  0  0  0
  139.7730   74.6610  222.2760 N   0  0  0  0  0  0  0  0  0  0  0  0
  140.8180   75.1210  221.5800 C   0  0  0  0  0  0  0  0  0  0  0  0
  141.1170   79.5680  218.7040 C   0  0  0  0  0  0  0  0  0  0  0  0
  141.0720   80.5220  219.8770 C   0  0  0  0  0  0  0  0  0  0  0  0
  141.7849   78.7486  225.0571 H   0  0  0  0  0  0  0  0  0  0  0  0
  140.8695   78.7543  223.5115 H   0  0  0  0  0  0  0  0  0  0  0  0
  142.6297   78.3961  223.5115 H   0  0  0  0  0  0  0  0  0  0  0  0
  142.0018   80.9778  224.7821 H   0  0  0  0  0  0  0  0  0  0  0  0
  143.1702   80.5584  223.4420 H   0  0  0  0  0  0  0  0  0  0  0  0
  139.7905   80.6249  224.7916 H   0  0  0  0  0  0  0  0  0  0  0  0
  137.6363   80.9070  226.0268 H   0  0  0  0  0  0  0  0  0  0  0  0
  135.5505   81.1672  224.7147 H   0  0  0  0  0  0  0  0  0  0  0  0
  135.5836   81.1481  222.2354 H   0  0  0  0  0  0  0  0  0  0  0  0
  137.7477   80.8619  221.0283 H   0  0  0  0  0  0  0  0  0  0  0  0
  139.1665   79.8727  220.6137 H   0  0  0  0  0  0  0  0  0  0  0  0
  140.5411   78.1013  222.0799 H   0  0  0  0  0  0  0  0  0  0  0  0
  139.8574   77.8492  220.4053 H   0  0  0  0  0  0  0  0  0  0  0  0
  142.7413   78.7356  220.9432 H   0  0  0  0  0  0  0  0  0  0  0  0
  142.2944   77.0529  220.6825 H   0  0  0  0  0  0  0  0  0  0  0  0
  143.9864   76.6581  219.0297 H   0  0  0  0  0  0  0  0  0  0  0  0
  143.7350   76.3500  216.1930 H   0  0  0  0  0  0  0  0  0  0  0  0
  144.8360   75.4260  217.1480 H   0  0  0  0  0  0  0  0  0  0  0  0
  141.4805   75.3105  218.5184 H   0  0  0  0  0  0  0  0  0  0  0  0
  142.4076   73.1386  218.0179 H   0  0  0  0  0  0  0  0  0  0  0  0
  143.5198   74.1493  217.0797 H   0  0  0  0  0  0  0  0  0  0  0  0
  145.4719   72.2374  217.7502 H   0  0  0  0  0  0  0  0  0  0  0  0
  147.0802   71.8122  219.5816 H   0  0  0  0  0  0  0  0  0  0  0  0
  146.7931   72.8283  221.8050 H   0  0  0  0  0  0  0  0  0  0  0  0
  144.8188   74.3196  222.1924 H   0  0  0  0  0  0  0  0  0  0  0  0
  142.9314   75.9283  220.7149 H   0  0  0  0  0  0  0  0  0  0  0  0
  142.1692   72.2594  220.4551 H   0  0  0  0  0  0  0  0  0  0  0  0
  140.2391   71.3904  221.7407 H   0  0  0  0  0  0  0  0  0  0  0  0
  138.7034   72.9385  222.9120 H   0  0  0  0  0  0  0  0  0  0  0  0
  140.9790   76.2084  221.5396 H   0  0  0  0  0  0  0  0  0  0  0  0
  141.5952   80.0671  217.8483 H   0  0  0  0  0  0  0  0  0  0  0  0
  140.0900   79.2735  218.4421 H   0  0  0  0  0  0  0  0  0  0  0  0
  142.0862   80.7023  220.2628 H   0  0  0  0  0  0  0  0  0  0  0  0
  140.6560   81.4984  219.5880 H   0  0  0  0  0  0  0  0  0  0  0  0
  1  2  1  0
  2  3  1  0
  3  4  2  0
  3  5  1  0
  5  6  1  0
  6  7  2  0
  7  8  1  0
  8  9  2  0
  9 10  1  0
 10 11  2  0
  5 12  1  0
 12 13  1  0
 13 14  1  0
 14 15  1  0
 15 16  1  0
 16 17  2  0
 16 18  1  0
 18 19  1  0
 18 20  1  0
 20 21  1  0
 21 22  1  0
 22 23  2  0
 23 24  1  0
 24 25  2  0
 25 26  1  0
 26 27  2  0
 27 28  1  0
 28 29  1  0
 29 30  2  0
 30 31  1  0
 31 32  2  0
 32 33  1  0
 33 34  2  0
 15 35  1  0
 35 36  1  0
 11  6  1  0
 36 12  1  0
 28 20  1  0
 34 29  1  0
 27 22  1  0
  1 37  1  0
  1 38  1  0
  1 39  1  0
  2 40  1  0
  2 41  1  0
  7 42  1  0
  8 43  1  0
  9 44  1  0
 10 45  1  0
 11 46  1  0
 12 47  1  0
 13 48  1  0
 13 49  1  0
 14 50  1  0
 14 51  1  0
 18 52  1  1
 19 53  1  0
 19 54  1  0
 20 55  1  1
 21 56  1  0
 21 57  1  0
 23 58  1  0
 24 59  1  0
 25 60  1  0
 26 61  1  0
 28 62  1  1
 30 63  1  0
 31 64  1  0
 32 65  1  0
 34 66  1  0
 35 67  1  0
 35 68  1  0
 36 69  1  0
 36 70  1  0
M  END
>  <smiles>  (54) 
CCC(=O)N(c1ccccc1)C1CCN(C(=O)[C@H](N)C2Cc3ccccc3C2c2cccnc2)CC1

>  <score_type>  (54) 
oracle

>  <origin>  (54) 
autodockgpu

>  <m_score__min__energy>  (54) 
-9.3300000000000001

>  <m_primary>  (54) 
energy

>  <rmsd>  (54) 
7.2438731621456185

>  <m_score__min__rmsd>  (54) 
7.2438731621456185

>  <meeko>  (54) 
{"free_energy": -8.12, "intermolecular_energy": -10.51, "internal_energy": -3.12, "cluster_size": 10, "cluster_id": 3, "rank_in_cluster": 4}

>  <energy>  (54) 
-9.25

>  <cluster_rmsd>  (54) 
0.48

>  <cluster>  (54) 
1

$$$$

     RDKit          3D

 70 74  0  0  0  0  0  0  0  0999 V2000
  146.3320   73.3060  221.9290 C   0  0  0  0  0  0  0  0  0  0  0  0
  146.4720   73.7810  220.4820 C   0  0  0  0  0  0  0  0  0  0  0  0
  145.8670   72.8770  219.5130 C   0  0  0  0  0  0  0  0  0  0  0  0
  146.3120   71.6820  219.4340 O   0  0  0  0  0  0  0  0  0  0  0  0
  144.8080   73.1890  218.6210 N   0  0  0  0  0  0  0  0  0  0  0  0
  145.2000   73.3950  217.2450 C   0  0  0  0  0  0  0  0  0  0  0  0
  144.8640   74.5810  216.6120 C   0  0  0  0  0  0  0  0  0  0  0  0
  145.2150   74.8320  215.2860 C   0  0  0  0  0  0  0  0  0  0  0  0
  145.9120   73.8550  214.6220 C   0  0  0  0  0  0  0  0  0  0  0  0
  146.2630   72.6560  215.2320 C   0  0  0  0  0  0  0  0  0  0  0  0
  145.9010   72.4310  216.5540 C   0  0  0  0  0  0  0  0  0  0  0  0
  143.4290   73.3110  218.9900 C   0  0  0  0  0  0  0  0  0  0  0  0
  142.8870   74.6940  219.0420 C   0  0  0  0  0  0  0  0  0  0  0  0
  142.5990   75.1860  220.4750 C   0  0  0  0  0  0  0  0  0  0  0  0
  141.5180   74.3450  220.9360 N   0  0  0  0  0  0  0  0  0  0  0  0
  140.4090   74.7780  221.7020 C   0  0  0  0  0  0  0  0  0  0  0  0
  139.5450   73.8780  221.9680 O   0  0  0  0  0  0  0  0  0  0  0  0
  140.1770   76.1320  222.1960 C   0  0  2  0  0  0  0  0  0  0  0  0
  139.0720   76.2190  223.0450 N   0  0  0  0  0  0  0  0  0  0  0  0
  140.1840   77.2090  221.1160 C   0  0  1  0  0  0  0  0  0  0  0  0
  139.3200   78.3540  221.5900 C   0  0  0  0  0  0  0  0  0  0  0  0
  140.2010   79.2390  222.3470 C   0  0  0  0  0  0  0  0  0  0  0  0
  139.9030   80.2280  223.2610 C   0  0  0  0  0  0  0  0  0  0  0  0
  140.9460   80.9300  223.8320 C   0  0  0  0  0  0  0  0  0  0  0  0
  142.2490   80.6800  223.5260 C   0  0  0  0  0  0  0  0  0  0  0  0
  142.5130   79.6730  222.5980 C   0  0  0  0  0  0  0  0  0  0  0  0
  141.4850   78.9480  222.0050 C   0  0  0  0  0  0  0  0  0  0  0  0
  141.5410   77.8260  221.0030 C   0  0  2  0  0  0  0  0  0  0  0  0
  141.8410   78.3460  219.6510 C   0  0  0  0  0  0  0  0  0  0  0  0
  142.6020   77.7300  218.7030 C   0  0  0  0  0  0  0  0  0  0  0  0
  142.7870   78.3370  217.4780 C   0  0  0  0  0  0  0  0  0  0  0  0
  142.2130   79.5580  217.1960 C   0  0  0  0  0  0  0  0  0  0  0  0
  141.4610   80.1660  218.1330 N   0  0  0  0  0  0  0  0  0  0  0  0
  141.2840   79.5730  219.3190 C   0  0  0  0  0  0  0  0  0  0  0  0
  141.6320   72.9200  220.5600 C   0  0  0  0  0  0  0  0  0  0  0  0
  143.0740   72.5700  220.2650 C   0  0  0  0  0  0  0  0  0  0  0  0
  146.5758   74.1333  222.6117 H   0  0  0  0  0  0  0  0  0  0  0  0
  145.2982   72.9754  222.1080 H   0  0  0  0  0  0  0  0  0  0  0  0
  147.0212   72.4676  222.1080 H   0  0  0  0  0  0  0  0  0  0  0  0
  145.9882   74.7646  220.3900 H   0  0  0  0  0  0  0  0  0  0  0  0
  147.5481   73.8230  220.2577 H   0  0  0  0  0  0  0  0  0  0  0  0
  144.3049   75.3457  217.1711 H   0  0  0  0  0  0  0  0  0  0  0  0
  144.9435   75.7765  214.7919 H   0  0  0  0  0  0  0  0  0  0  0  0
  146.2022   74.0253  213.5747 H   0  0  0  0  0  0  0  0  0  0  0  0
  146.8226   71.8920  214.6724 H   0  0  0  0  0  0  0  0  0  0  0  0
  146.1731   71.4864  217.0476 H   0  0  0  0  0  0  0  0  0  0  0  0
  142.9294   72.8210  218.1413 H   0  0  0  0  0  0  0  0  0  0  0  0
  143.6194   75.3730  218.5809 H   0  0  0  0  0  0  0  0  0  0  0  0
  141.9285   74.6874  218.5024 H   0  0  0  0  0  0  0  0  0  0  0  0
  143.4862   75.0638  221.1137 H   0  0  0  0  0  0  0  0  0  0  0  0
  142.3400   76.2546  220.5062 H   0  0  0  0  0  0  0  0  0  0  0  0
  141.0601   76.3557  222.8125 H   0  0  0  0  0  0  0  0  0  0  0  0
  138.5660   75.3670  223.2410 H   0  0  0  0  0  0  0  0  0  0  0  0
  138.5990   77.0920  223.2010 H   0  0  0  0  0  0  0  0  0  0  0  0
  139.8543   76.7465  220.1740 H   0  0  0  0  0  0  0  0  0  0  0  0
  138.8889   78.8883  220.7305 H   0  0  0  0  0  0  0  0  0  0  0  0
  138.4822   77.9969  222.2069 H   0  0  0  0  0  0  0  0  0  0  0  0
  138.8598   80.4521  223.5286 H   0  0  0  0  0  0  0  0  0  0  0  0
  140.7156   81.7207  224.5612 H   0  0  0  0  0  0  0  0  0  0  0  0
  143.0640   81.2517  223.9939 H   0  0  0  0  0  0  0  0  0  0  0  0
  143.5557   79.4476  222.3296 H   0  0  0  0  0  0  0  0  0  0  0  0
  142.3382   77.0911  221.1886 H   0  0  0  0  0  0  0  0  0  0  0  0
  143.0658   76.7550  218.9132 H   0  0  0  0  0  0  0  0  0  0  0  0
  143.4023   77.8387  216.7143 H   0  0  0  0  0  0  0  0  0  0  0  0
  142.3677   80.0311  216.2151 H   0  0  0  0  0  0  0  0  0  0  0  0
  140.6646   80.0847  220.0703 H   0  0  0  0  0  0  0  0  0  0  0  0
  141.2691   72.2954  221.3896 H   0  0  0  0  0  0  0  0  0  0  0  0
  141.0274   72.7375  219.6594 H   0  0  0  0  0  0  0  0  0  0  0  0
  143.7235   72.8962  221.0906 H   0  0  0  0  0  0  0  0  0  0  0  0
  143.2114   71.4844  220.1529 H   0  0  0  0  0  0  0  0  0  0  0  0
  1  2  1  0
  2  3  1  0
  3  4  2  0
  3  5  1  0
  5  6  1  0
  6  7  2  0
  7  8  1  0
  8  9  2  0
  9 10  1  0
 10 11  2  0
  5 12  1  0
 12 13  1  0
 13 14  1  0
 14 15  1  0
 15 16  1  0
 16 17  2  0
 16 18  1  0
 18 19  1  0
 18 20  1  0
 20 21  1  0
 21 22  1  0
 22 23  2  0
 23 24  1  0
 24 25  2  0
 25 26  1  0
 26 27  2  0
 27 28  1  0
 28 29  1  0
 29 30  2  0
 30 31  1  0
 31 32  2  0
 32 33  1  0
 33 34  2  0
 15 35  1  0
 35 36  1  0
 11  6  1  0
 36 12  1  0
 28 20  1  0
 34 29  1  0
 27 22  1  0
  1 37  1  0
  1 38  1  0
  1 39  1  0
  2 40  1  0
  2 41  1  0
  7 42  1  0
  8 43  1  0
  9 44  1  0
 10 45  1  0
 11 46  1  0
 12 47  1  0
 13 48  1  0
 13 49  1  0
 14 50  1  0
 14 51  1  0
 18 52  1  1
 19 53  1  0
 19 54  1  0
 20 55  1  6
 21 56  1  0
 21 57  1  0
 23 58  1  0
 24 59  1  0
 25 60  1  0
 26 61  1  0
 28 62  1  1
 30 63  1  0
 31 64  1  0
 32 65  1  0
 34 66  1  0
 35 67  1  0
 35 68  1  0
 36 69  1  0
 36 70  1  0
M  END
>  <smiles>  (55) 
CCC(=O)N(c1ccccc1)C1CCN(C(=O)[C@H](N)C2Cc3ccccc3C2c2cccnc2)CC1

>  <score_type>  (55) 
oracle

>  <origin>  (55) 
autodockgpu

>  <m_score__min__energy>  (55) 
-9.3300000000000001

>  <m_primary>  (55) 
energy

>  <rmsd>  (55) 
4.196970433336037

>  <m_score__min__rmsd>  (55) 
4.196970433336037

>  <meeko>  (55) 
{"free_energy": -8.13, "intermolecular_energy": -10.51, "internal_energy": -2.85, "cluster_size": 17, "cluster_id": 1, "rank_in_cluster": 17}

>  <energy>  (55) 
-9.21

>  <cluster_rmsd>  (55) 
0.16

>  <cluster>  (55) 
1

$$$$

     RDKit          3D

 70 74  0  0  0  0  0  0  0  0999 V2000
  146.4980   73.2640  221.9820 C   0  0  0  0  0  0  0  0  0  0  0  0
  145.7980   73.9760  220.8230 C   0  0  0  0  0  0  0  0  0  0  0  0
  145.4480   73.0880  219.7230 C   0  0  0  0  0  0  0  0  0  0  0  0
  146.1990   73.0740  218.6890 O   0  0  0  0  0  0  0  0  0  0  0  0
  144.3310   72.2130  219.6720 N   0  0  0  0  0  0  0  0  0  0  0  0
  144.6510   70.8130  219.5070 C   0  0  0  0  0  0  0  0  0  0  0  0
  145.9720   70.4330  219.3240 C   0  0  0  0  0  0  0  0  0  0  0  0
  146.3360   69.0980  219.1580 C   0  0  0  0  0  0  0  0  0  0  0  0
  145.3340   68.1620  219.1810 C   0  0  0  0  0  0  0  0  0  0  0  0
  144.0010   68.5140  219.3630 C   0  0  0  0  0  0  0  0  0  0  0  0
  143.6640   69.8510  219.5260 C   0  0  0  0  0  0  0  0  0  0  0  0
  142.9610   72.6190  219.7660 C   0  0  0  0  0  0  0  0  0  0  0  0
  142.7090   74.0840  219.7180 C   0  0  0  0  0  0  0  0  0  0  0  0
  142.2580   74.6730  221.0700 C   0  0  0  0  0  0  0  0  0  0  0  0
  140.9620   74.0800  221.3070 N   0  0  0  0  0  0  0  0  0  0  0  0
  139.8370   74.7520  221.8440 C   0  0  0  0  0  0  0  0  0  0  0  0
  138.7740   74.0510  221.9330 O   0  0  0  0  0  0  0  0  0  0  0  0
  139.7930   76.1410  222.2900 C   0  0  2  0  0  0  0  0  0  0  0  0
  138.6860   76.4190  223.0950 N   0  0  0  0  0  0  0  0  0  0  0  0
  139.9940   77.1680  221.1800 C   0  0  1  0  0  0  0  0  0  0  0  0
  139.2490   78.4250  221.5640 C   0  0  0  0  0  0  0  0  0  0  0  0
  140.1860   79.2260  222.3470 C   0  0  0  0  0  0  0  0  0  0  0  0
  139.9570   80.2780  223.2100 C   0  0  0  0  0  0  0  0  0  0  0  0
  141.0430   80.8710  223.8230 C   0  0  0  0  0  0  0  0  0  0  0  0
  142.3210   80.4560  223.6080 C   0  0  0  0  0  0  0  0  0  0  0  0
  142.5150   79.3900  222.7290 C   0  0  0  0  0  0  0  0  0  0  0  0
  141.4430   78.7720  222.0960 C   0  0  0  0  0  0  0  0  0  0  0  0
  141.4200   77.6140  221.1330 C   0  0  2  0  0  0  0  0  0  0  0  0
  141.8600   78.0420  219.7880 C   0  0  0  0  0  0  0  0  0  0  0  0
  141.7660   79.3000  219.2730 C   0  0  0  0  0  0  0  0  0  0  0  0
  142.2290   79.5510  217.9980 C   0  0  0  0  0  0  0  0  0  0  0  0
  142.7870   78.5480  217.2350 C   0  0  0  0  0  0  0  0  0  0  0  0
  142.8800   77.3050  217.7440 N   0  0  0  0  0  0  0  0  0  0  0  0
  142.4300   77.0670  218.9800 C   0  0  0  0  0  0  0  0  0  0  0  0
  140.8550   72.6490  220.9540 C   0  0  0  0  0  0  0  0  0  0  0  0
  142.2260   72.0090  220.9440 C   0  0  0  0  0  0  0  0  0  0  0  0
  146.1149   73.6536  222.9367 H   0  0  0  0  0  0  0  0  0  0  0  0
  146.3007   72.1835  221.9213 H   0  0  0  0  0  0  0  0  0  0  0  0
  147.5817   73.4429  221.9213 H   0  0  0  0  0  0  0  0  0  0  0  0
  144.8756   74.4384  221.2044 H   0  0  0  0  0  0  0  0  0  0  0  0
  146.5041   74.7203  220.4263 H   0  0  0  0  0  0  0  0  0  0  0  0
  146.7540   71.2065  219.3095 H   0  0  0  0  0  0  0  0  0  0  0  0
  147.3868   68.8063  219.0140 H   0  0  0  0  0  0  0  0  0  0  0  0
  145.5925   67.1007  219.0516 H   0  0  0  0  0  0  0  0  0  0  0  0
  143.2200   67.7395  219.3777 H   0  0  0  0  0  0  0  0  0  0  0  0
  142.6129   70.1416  219.6698 H   0  0  0  0  0  0  0  0  0  0  0  0
  142.5455   72.2081  218.8340 H   0  0  0  0  0  0  0  0  0  0  0  0
  143.6375   74.5875  219.4107 H   0  0  0  0  0  0  0  0  0  0  0  0
  141.8898   74.2491  219.0027 H   0  0  0  0  0  0  0  0  0  0  0  0
  142.9632   74.3988  221.8685 H   0  0  0  0  0  0  0  0  0  0  0  0
  142.2195   75.7722  221.0561 H   0  0  0  0  0  0  0  0  0  0  0  0
  140.6792   76.2526  222.9320 H   0  0  0  0  0  0  0  0  0  0  0  0
  138.0950   75.6440  223.3590 H   0  0  0  0  0  0  0  0  0  0  0  0
  138.3000   77.3450  223.1530 H   0  0  0  0  0  0  0  0  0  0  0  0
  139.6664   76.7128  220.2337 H   0  0  0  0  0  0  0  0  0  0  0  0
  138.9366   78.9741  220.6635 H   0  0  0  0  0  0  0  0  0  0  0  0
  138.3393   78.1944  222.1378 H   0  0  0  0  0  0  0  0  0  0  0  0
  138.9350   80.6353  223.4048 H   0  0  0  0  0  0  0  0  0  0  0  0
  140.8683   81.7110  224.5114 H   0  0  0  0  0  0  0  0  0  0  0  0
  143.1704   80.9433  224.1091 H   0  0  0  0  0  0  0  0  0  0  0  0
  143.5364   79.0316  222.5331 H   0  0  0  0  0  0  0  0  0  0  0  0
  142.1096   76.7965  221.3901 H   0  0  0  0  0  0  0  0  0  0  0  0
  141.3235   80.1107  219.8704 H   0  0  0  0  0  0  0  0  0  0  0  0
  142.1517   80.5672  217.5840 H   0  0  0  0  0  0  0  0  0  0  0  0
  143.1529   78.7610  216.2197 H   0  0  0  0  0  0  0  0  0  0  0  0
  142.5157   76.0451  219.3780 H   0  0  0  0  0  0  0  0  0  0  0  0
  140.2212   72.1386  221.6942 H   0  0  0  0  0  0  0  0  0  0  0  0
  140.4097   72.5589  219.9522 H   0  0  0  0  0  0  0  0  0  0  0  0
  142.7575   72.2284  221.8818 H   0  0  0  0  0  0  0  0  0  0  0  0
  142.1601   70.9145  220.8560 H   0  0  0  0  0  0  0  0  0  0  0  0
  1  2  1  0
  2  3  1  0
  3  4  2  0
  3  5  1  0
  5  6  1  0
  6  7  2  0
  7  8  1  0
  8  9  2  0
  9 10  1  0
 10 11  2  0
  5 12  1  0
 12 13  1  0
 13 14  1  0
 14 15  1  0
 15 16  1  0
 16 17  2  0
 16 18  1  0
 18 19  1  0
 18 20  1  0
 20 21  1  0
 21 22  1  0
 22 23  2  0
 23 24  1  0
 24 25  2  0
 25 26  1  0
 26 27  2  0
 27 28  1  0
 28 29  1  0
 29 30  2  0
 30 31  1  0
 31 32  2  0
 32 33  1  0
 33 34  2  0
 15 35  1  0
 35 36  1  0
 11  6  1  0
 36 12  1  0
 28 20  1  0
 34 29  1  0
 27 22  1  0
  1 37  1  0
  1 38  1  0
  1 39  1  0
  2 40  1  0
  2 41  1  0
  7 42  1  0
  8 43  1  0
  9 44  1  0
 10 45  1  0
 11 46  1  0
 12 47  1  0
 13 48  1  0
 13 49  1  0
 14 50  1  0
 14 51  1  0
 18 52  1  1
 19 53  1  0
 19 54  1  0
 20 55  1  6
 21 56  1  0
 21 57  1  0
 23 58  1  0
 24 59  1  0
 25 60  1  0
 26 61  1  0
 28 62  1  1
 30 63  1  0
 31 64  1  0
 32 65  1  0
 34 66  1  0
 35 67  1  0
 35 68  1  0
 36 69  1  0
 36 70  1  0
M  END
>  <smiles>  (56) 
CCC(=O)N(c1ccccc1)C1CCN(C(=O)[C@H](N)C2Cc3ccccc3C2c2cccnc2)CC1

>  <score_type>  (56) 
oracle

>  <origin>  (56) 
autodockgpu

>  <m_score__min__energy>  (56) 
-9.3300000000000001

>  <m_primary>  (56) 
energy

>  <rmsd>  (56) 
4.329535554495851

>  <m_score__min__rmsd>  (56) 
4.329535554495851

>  <meeko>  (56) 
{"free_energy": -9.29, "intermolecular_energy": -11.67, "internal_energy": -2.71, "cluster_size": 17, "cluster_id": 1, "rank_in_cluster": 2}

>  <energy>  (56) 
-9.21

>  <cluster_rmsd>  (56) 
0.34

>  <cluster>  (56) 
1

$$$$

     RDKit          3D

 70 74  0  0  0  0  0  0  0  0999 V2000
  137.3230   81.9520  225.8120 C   0  0  0  0  0  0  0  0  0  0  0  0
  137.0500   80.8950  224.7410 C   0  0  0  0  0  0  0  0  0  0  0  0
  137.9130   81.0140  223.5740 C   0  0  0  0  0  0  0  0  0  0  0  0
  138.0220   82.1570  223.0120 O   0  0  0  0  0  0  0  0  0  0  0  0
  138.6670   79.9700  222.9750 N   0  0  0  0  0  0  0  0  0  0  0  0
  140.0980   80.1740  222.9590 C   0  0  0  0  0  0  0  0  0  0  0  0
  140.8960   79.4660  223.8440 C   0  0  0  0  0  0  0  0  0  0  0  0
  142.2800   79.6240  223.8730 C   0  0  0  0  0  0  0  0  0  0  0  0
  142.8340   80.5140  222.9860 C   0  0  0  0  0  0  0  0  0  0  0  0
  142.0570   81.2360  222.0870 C   0  0  0  0  0  0  0  0  0  0  0  0
  140.6800   81.0600  222.0790 C   0  0  0  0  0  0  0  0  0  0  0  0
  138.1150   78.7780  222.4050 C   0  0  0  0  0  0  0  0  0  0  0  0
  138.4640   77.5050  223.0880 C   0  0  0  0  0  0  0  0  0  0  0  0
  139.4310   76.6190  222.2750 C   0  0  0  0  0  0  0  0  0  0  0  0
  138.6670   76.2220  221.1140 N   0  0  0  0  0  0  0  0  0  0  0  0
  138.6780   74.9340  220.5250 C   0  0  0  0  0  0  0  0  0  0  0  0
  137.8960   74.7840  219.5280 O   0  0  0  0  0  0  0  0  0  0  0  0
  139.4850   73.7960  220.9530 C   0  0  2  0  0  0  0  0  0  0  0  0
  139.6460   73.7320  222.3380 N   0  0  0  0  0  0  0  0  0  0  0  0
  140.7980   73.6310  220.1930 C   0  0  1  0  0  0  0  0  0  0  0  0
  140.6260   74.2430  218.8230 C   0  0  0  0  0  0  0  0  0  0  0  0
  140.9910   75.6500  218.9600 C   0  0  0  0  0  0  0  0  0  0  0  0
  140.7130   76.7290  218.1460 C   0  0  0  0  0  0  0  0  0  0  0  0
  141.1940   77.9700  218.5140 C   0  0  0  0  0  0  0  0  0  0  0  0
  141.9270   78.1630  219.6450 C   0  0  0  0  0  0  0  0  0  0  0  0
  142.1880   77.0500  220.4440 C   0  0  0  0  0  0  0  0  0  0  0  0
  141.7180   75.7880  220.1010 C   0  0  0  0  0  0  0  0  0  0  0  0
  141.8690   74.4690  220.8130 C   0  0  2  0  0  0  0  0  0  0  0  0
  143.2300   73.9230  220.6210 C   0  0  0  0  0  0  0  0  0  0  0  0
  144.3720   74.6480  220.4560 C   0  0  0  0  0  0  0  0  0  0  0  0
  145.5760   73.9940  220.2960 C   0  0  0  0  0  0  0  0  0  0  0  0
  145.6430   72.6170  220.3010 C   0  0  0  0  0  0  0  0  0  0  0  0
  144.5150   71.9010  220.4630 N   0  0  0  0  0  0  0  0  0  0  0  0
  143.3500   72.5400  220.6190 C   0  0  0  0  0  0  0  0  0  0  0  0
  137.8290   77.2860  220.5240 C   0  0  0  0  0  0  0  0  0  0  0  0
  138.3600   78.6480  220.9140 C   0  0  0  0  0  0  0  0  0  0  0  0
  137.2068   81.5022  226.8091 H   0  0  0  0  0  0  0  0  0  0  0  0
  138.3489   82.3324  225.6986 H   0  0  0  0  0  0  0  0  0  0  0  0
  136.6097   82.7816  225.6986 H   0  0  0  0  0  0  0  0  0  0  0  0
  137.2019   79.9007  225.1864 H   0  0  0  0  0  0  0  0  0  0  0  0
  136.0163   81.0439  224.3955 H   0  0  0  0  0  0  0  0  0  0  0  0
  140.4236   78.7599  224.5427 H   0  0  0  0  0  0  0  0  0  0  0  0
  142.9049   79.0576  224.5792 H   0  0  0  0  0  0  0  0  0  0  0  0
  143.9243   80.6600  222.9867 H   0  0  0  0  0  0  0  0  0  0  0  0
  142.5297   81.9412  221.3876 H   0  0  0  0  0  0  0  0  0  0  0  0
  140.0555   81.6262  221.3722 H   0  0  0  0  0  0  0  0  0  0  0  0
  137.0392   78.9291  222.5777 H   0  0  0  0  0  0  0  0  0  0  0  0
  138.9372   77.7446  224.0517 H   0  0  0  0  0  0  0  0  0  0  0  0
  137.5304   76.9369  223.2133 H   0  0  0  0  0  0  0  0  0  0  0  0
  140.3235   77.1889  221.9771 H   0  0  0  0  0  0  0  0  0  0  0  0
  139.7940   75.7560  222.8525 H   0  0  0  0  0  0  0  0  0  0  0  0
  138.8900   72.9151  220.6702 H   0  0  0  0  0  0  0  0  0  0  0  0
  140.2490   73.0100  222.7040 H   0  0  0  0  0  0  0  0  0  0  0  0
  138.9760   74.1450  222.9620 H   0  0  0  0  0  0  0  0  0  0  0  0
  141.0546   72.5614  220.1872 H   0  0  0  0  0  0  0  0  0  0  0  0
  141.2865   73.7461  218.0971 H   0  0  0  0  0  0  0  0  0  0  0  0
  139.5946   74.1288  218.4582 H   0  0  0  0  0  0  0  0  0  0  0  0
  140.1226   76.6036  217.2264 H   0  0  0  0  0  0  0  0  0  0  0  0
  140.9769   78.8346  217.8696 H   0  0  0  0  0  0  0  0  0  0  0  0
  142.3000   79.1610  219.9188 H   0  0  0  0  0  0  0  0  0  0  0  0
  142.7778   77.1736  221.3642 H   0  0  0  0  0  0  0  0  0  0  0  0
  141.7579   74.5274  221.9058 H   0  0  0  0  0  0  0  0  0  0  0  0
  144.3340   75.7473  220.4504 H   0  0  0  0  0  0  0  0  0  0  0  0
  146.4970   74.5804  220.1624 H   0  0  0  0  0  0  0  0  0  0  0  0
  146.6098   72.1080  220.1737 H   0  0  0  0  0  0  0  0  0  0  0  0
  142.4393   71.9378  220.7527 H   0  0  0  0  0  0  0  0  0  0  0  0
  137.8409   77.1918  219.4281 H   0  0  0  0  0  0  0  0  0  0  0  0
  136.8004   77.1815  220.8995 H   0  0  0  0  0  0  0  0  0  0  0  0
  139.4360   78.7161  220.6956 H   0  0  0  0  0  0  0  0  0  0  0  0
  137.8627   79.4518  220.3513 H   0  0  0  0  0  0  0  0  0  0  0  0
  1  2  1  0
  2  3  1  0
  3  4  2  0
  3  5  1  0
  5  6  1  0
  6  7  2  0
  7  8  1  0
  8  9  2  0
  9 10  1  0
 10 11  2  0
  5 12  1  0
 12 13  1  0
 13 14  1  0
 14 15  1  0
 15 16  1  0
 16 17  2  0
 16 18  1  0
 18 19  1  0
 18 20  1  0
 20 21  1  0
 21 22  1  0
 22 23  2  0
 23 24  1  0
 24 25  2  0
 25 26  1  0
 26 27  2  0
 27 28  1  0
 28 29  1  0
 29 30  2  0
 30 31  1  0
 31 32  2  0
 32 33  1  0
 33 34  2  0
 15 35  1  0
 35 36  1  0
 11  6  1  0
 36 12  1  0
 28 20  1  0
 34 29  1  0
 27 22  1  0
  1 37  1  0
  1 38  1  0
  1 39  1  0
  2 40  1  0
  2 41  1  0
  7 42  1  0
  8 43  1  0
  9 44  1  0
 10 45  1  0
 11 46  1  0
 12 47  1  0
 13 48  1  0
 13 49  1  0
 14 50  1  0
 14 51  1  0
 18 52  1  6
 19 53  1  0
 19 54  1  0
 20 55  1  6
 21 56  1  0
 21 57  1  0
 23 58  1  0
 24 59  1  0
 25 60  1  0
 26 61  1  0
 28 62  1  1
 30 63  1  0
 31 64  1  0
 32 65  1  0
 34 66  1  0
 35 67  1  0
 35 68  1  0
 36 69  1  0
 36 70  1  0
M  END
>  <smiles>  (57) 
CCC(=O)N(c1ccccc1)C1CCN(C(=O)[C@H](N)C2Cc3ccccc3C2c2cccnc2)CC1

>  <score_type>  (57) 
oracle

>  <origin>  (57) 
autodockgpu

>  <m_score__min__energy>  (57) 
-9.3300000000000001

>  <m_primary>  (57) 
energy

>  <rmsd>  (57) 
5.991909547977001

>  <m_score__min__rmsd>  (57) 
5.991909547977001

>  <meeko>  (57) 
{"free_energy": -7.69, "intermolecular_energy": -10.08, "internal_energy": -3.32, "cluster_size": 15, "cluster_id": 5, "rank_in_cluster": 1}

>  <energy>  (57) 
-9.17

>  <cluster_rmsd>  (57) 
0.18

>  <cluster>  (57) 
1

$$$$

     RDKit          3D

 70 74  0  0  0  0  0  0  0  0999 V2000
  141.0470   67.7920  227.7860 C   0  0  0  0  0  0  0  0  0  0  0  0
  141.0100   67.5470  226.2770 C   0  0  0  0  0  0  0  0  0  0  0  0
  139.8530   68.1430  225.6200 C   0  0  0  0  0  0  0  0  0  0  0  0
  138.8600   67.3900  225.3370 O   0  0  0  0  0  0  0  0  0  0  0  0
  139.7060   69.5050  225.2510 N   0  0  0  0  0  0  0  0  0  0  0  0
  140.2480   70.4620  226.1890 C   0  0  0  0  0  0  0  0  0  0  0  0
  141.2680   71.3080  225.7860 C   0  0  0  0  0  0  0  0  0  0  0  0
  141.8290   72.2470  226.6490 C   0  0  0  0  0  0  0  0  0  0  0  0
  141.3320   72.3070  227.9270 C   0  0  0  0  0  0  0  0  0  0  0  0
  140.3090   71.4710  228.3590 C   0  0  0  0  0  0  0  0  0  0  0  0
  139.7670   70.5430  227.4780 C   0  0  0  0  0  0  0  0  0  0  0  0
  139.0720   69.9700  224.0540 C   0  0  0  0  0  0  0  0  0  0  0  0
  139.9740   70.5150  223.0060 C   0  0  0  0  0  0  0  0  0  0  0  0
  139.8620   72.0440  222.8350 C   0  0  0  0  0  0  0  0  0  0  0  0
  138.5270   72.2530  222.3230 N   0  0  0  0  0  0  0  0  0  0  0  0
  138.1710   73.1810  221.3130 C   0  0  0  0  0  0  0  0  0  0  0  0
  136.9390   73.1750  220.9790 O   0  0  0  0  0  0  0  0  0  0  0  0
  139.0690   74.1140  220.6420 C   0  0  2  0  0  0  0  0  0  0  0  0
  139.8920   73.4960  219.6990 N   0  0  0  0  0  0  0  0  0  0  0  0
  139.8340   75.0420  221.5820 C   0  0  1  0  0  0  0  0  0  0  0  0
  141.2820   74.6120  221.5880 C   0  0  0  0  0  0  0  0  0  0  0  0
  141.9240   75.3410  220.4980 C   0  0  0  0  0  0  0  0  0  0  0  0
  143.1150   75.1030  219.8440 C   0  0  0  0  0  0  0  0  0  0  0  0
  143.4960   75.9690  218.8370 C   0  0  0  0  0  0  0  0  0  0  0  0
  142.7400   77.0400  218.4700 C   0  0  0  0  0  0  0  0  0  0  0  0
  141.5410   77.2490  219.1530 C   0  0  0  0  0  0  0  0  0  0  0  0
  141.1310   76.3970  220.1710 C   0  0  0  0  0  0  0  0  0  0  0  0
  139.8880   76.4260  221.0200 C   0  0  2  0  0  0  0  0  0  0  0  0
  139.9840   77.4780  222.0550 C   0  0  0  0  0  0  0  0  0  0  0  0
  141.1230   77.8870  222.6830 C   0  0  0  0  0  0  0  0  0  0  0  0
  141.0570   78.8920  223.6260 C   0  0  0  0  0  0  0  0  0  0  0  0
  139.8560   79.4900  223.9440 C   0  0  0  0  0  0  0  0  0  0  0  0
  138.7320   79.0860  223.3230 N   0  0  0  0  0  0  0  0  0  0  0  0
  138.8010   78.1120  222.4090 C   0  0  0  0  0  0  0  0  0  0  0  0
  137.4810   71.4130  222.9420 C   0  0  0  0  0  0  0  0  0  0  0  0
  137.9310   70.9380  224.3060 C   0  0  0  0  0  0  0  0  0  0  0  0
  140.9030   66.8388  228.3159 H   0  0  0  0  0  0  0  0  0  0  0  0
  142.0204   68.2226  228.0638 H   0  0  0  0  0  0  0  0  0  0  0  0
  140.2442   68.4908  228.0638 H   0  0  0  0  0  0  0  0  0  0  0  0
  141.9212   67.9737  225.8324 H   0  0  0  0  0  0  0  0  0  0  0  0
  140.9430   66.4593  226.1270 H   0  0  0  0  0  0  0  0  0  0  0  0
  141.6459   71.2365  224.7554 H   0  0  0  0  0  0  0  0  0  0  0  0
  142.6388   72.9143  226.3189 H   0  0  0  0  0  0  0  0  0  0  0  0
  141.7560   73.0387  228.6305 H   0  0  0  0  0  0  0  0  0  0  0  0
  139.9316   71.5434  229.3897 H   0  0  0  0  0  0  0  0  0  0  0  0
  138.9572   69.8757  227.8081 H   0  0  0  0  0  0  0  0  0  0  0  0
  138.6624   69.0343  223.6456 H   0  0  0  0  0  0  0  0  0  0  0  0
  141.0115   70.2696  223.2770 H   0  0  0  0  0  0  0  0  0  0  0  0
  139.6744   70.0589  222.0509 H   0  0  0  0  0  0  0  0  0  0  0  0
  139.9925   72.5540  223.8009 H   0  0  0  0  0  0  0  0  0  0  0  0
  140.6353   72.4482  222.1652 H   0  0  0  0  0  0  0  0  0  0  0  0
  138.4005   74.7817  220.0787 H   0  0  0  0  0  0  0  0  0  0  0  0
  140.1220   72.5230  219.8480 H   0  0  0  0  0  0  0  0  0  0  0  0
  140.4860   74.0310  219.0910 H   0  0  0  0  0  0  0  0  0  0  0  0
  139.3426   75.0088  222.5656 H   0  0  0  0  0  0  0  0  0  0  0  0
  141.7527   74.8686  222.5485 H   0  0  0  0  0  0  0  0  0  0  0  0
  141.3793   73.5242  221.4568 H   0  0  0  0  0  0  0  0  0  0  0  0
  143.7461   74.2446  220.1175 H   0  0  0  0  0  0  0  0  0  0  0  0
  144.4454   75.7863  218.3124 H   0  0  0  0  0  0  0  0  0  0  0  0
  143.0624   77.7161  217.6644 H   0  0  0  0  0  0  0  0  0  0  0  0
  140.9076   78.1058  218.8797 H   0  0  0  0  0  0  0  0  0  0  0  0
  138.9694   76.6774  220.4696 H   0  0  0  0  0  0  0  0  0  0  0  0
  142.0881   77.4188  222.4394 H   0  0  0  0  0  0  0  0  0  0  0  0
  141.9766   79.2212  224.1319 H   0  0  0  0  0  0  0  0  0  0  0  0
  139.8167   80.2898  224.6982 H   0  0  0  0  0  0  0  0  0  0  0  0
  137.8717   77.7969  221.9118 H   0  0  0  0  0  0  0  0  0  0  0  0
  136.5581   72.0019  223.0487 H   0  0  0  0  0  0  0  0  0  0  0  0
  137.2968   70.5387  222.3004 H   0  0  0  0  0  0  0  0  0  0  0  0
  138.2773   71.7881  224.9121 H   0  0  0  0  0  0  0  0  0  0  0  0
  137.1092   70.4585  224.8580 H   0  0  0  0  0  0  0  0  0  0  0  0
  1  2  1  0
  2  3  1  0
  3  4  2  0
  3  5  1  0
  5  6  1  0
  6  7  2  0
  7  8  1  0
  8  9  2  0
  9 10  1  0
 10 11  2  0
  5 12  1  0
 12 13  1  0
 13 14  1  0
 14 15  1  0
 15 16  1  0
 16 17  2  0
 16 18  1  0
 18 19  1  0
 18 20  1  0
 20 21  1  0
 21 22  1  0
 22 23  2  0
 23 24  1  0
 24 25  2  0
 25 26  1  0
 26 27  2  0
 27 28  1  0
 28 29  1  0
 29 30  2  0
 30 31  1  0
 31 32  2  0
 32 33  1  0
 33 34  2  0
 15 35  1  0
 35 36  1  0
 11  6  1  0
 36 12  1  0
 28 20  1  0
 34 29  1  0
 27 22  1  0
  1 37  1  0
  1 38  1  0
  1 39  1  0
  2 40  1  0
  2 41  1  0
  7 42  1  0
  8 43  1  0
  9 44  1  0
 10 45  1  0
 11 46  1  0
 12 47  1  0
 13 48  1  0
 13 49  1  0
 14 50  1  0
 14 51  1  0
 18 52  1  6
 19 53  1  0
 19 54  1  0
 20 55  1  1
 21 56  1  0
 21 57  1  0
 23 58  1  0
 24 59  1  0
 25 60  1  0
 26 61  1  0
 28 62  1  6
 30 63  1  0
 31 64  1  0
 32 65  1  0
 34 66  1  0
 35 67  1  0
 35 68  1  0
 36 69  1  0
 36 70  1  0
M  END
>  <smiles>  (58) 
CCC(=O)N(c1ccccc1)C1CCN(C(=O)[C@H](N)C2Cc3ccccc3C2c2cccnc2)CC1

>  <score_type>  (58) 
oracle

>  <origin>  (58) 
autodockgpu

>  <m_score__min__energy>  (58) 
-9.3300000000000001

>  <m_primary>  (58) 
energy

>  <rmsd>  (58) 
7.763112524256489

>  <m_score__min__rmsd>  (58) 
7.763112524256489

>  <meeko>  (58) 
{"free_energy": -9.1, "intermolecular_energy": -11.49, "internal_energy": -2.16, "cluster_size": 5, "cluster_id": 2, "rank_in_cluster": 1}

>  <energy>  (58) 
-9.16

>  <cluster_rmsd>  (58) 
0.14

>  <cluster>  (58) 
1

$$$$

     RDKit          3D

 70 74  0  0  0  0  0  0  0  0999 V2000
  142.9820   75.6340  219.7600 C   0  0  0  0  0  0  0  0  0  0  0  0
  142.6080   77.0980  219.5240 C   0  0  0  0  0  0  0  0  0  0  0  0
  141.2770   77.4430  220.0060 C   0  0  0  0  0  0  0  0  0  0  0  0
  140.3510   77.6400  219.1470 O   0  0  0  0  0  0  0  0  0  0  0  0
  140.8860   77.5890  221.3620 N   0  0  0  0  0  0  0  0  0  0  0  0
  141.4290   78.7440  222.0400 C   0  0  0  0  0  0  0  0  0  0  0  0
  141.6380   79.9150  221.3290 C   0  0  0  0  0  0  0  0  0  0  0  0
  142.1610   81.0580  221.9320 C   0  0  0  0  0  0  0  0  0  0  0  0
  142.4660   80.9840  223.2690 C   0  0  0  0  0  0  0  0  0  0  0  0
  142.2660   79.8230  224.0060 C   0  0  0  0  0  0  0  0  0  0  0  0
  141.7430   78.6980  223.3810 C   0  0  0  0  0  0  0  0  0  0  0  0
  140.0230   76.6920  222.0710 C   0  0  0  0  0  0  0  0  0  0  0  0
  140.3580   75.2470  221.9710 C   0  0  0  0  0  0  0  0  0  0  0  0
  139.3530   74.4430  221.1210 C   0  0  0  0  0  0  0  0  0  0  0  0
  138.1230   74.4890  221.8780 N   0  0  0  0  0  0  0  0  0  0  0  0
  137.2220   73.4090  222.0470 C   0  0  0  0  0  0  0  0  0  0  0  0
  136.2130   73.6520  222.7900 O   0  0  0  0  0  0  0  0  0  0  0  0
  137.3480   72.0790  221.4600 C   0  0  2  0  0  0  0  0  0  0  0  0
  136.1360   71.5780  220.9810 N   0  0  0  0  0  0  0  0  0  0  0  0
  138.1070   71.0760  222.3240 C   0  0  1  0  0  0  0  0  0  0  0  0
  138.7310   70.0480  221.4110 C   0  0  0  0  0  0  0  0  0  0  0  0
  140.0410   70.5790  221.0420 C   0  0  0  0  0  0  0  0  0  0  0  0
  140.8810   70.2400  220.0010 C   0  0  0  0  0  0  0  0  0  0  0  0
  142.0850   70.9060  219.8860 C   0  0  0  0  0  0  0  0  0  0  0  0
  142.4680   71.8780  220.7590 C   0  0  0  0  0  0  0  0  0  0  0  0
  141.5940   72.1940  221.7990 C   0  0  0  0  0  0  0  0  0  0  0  0
  140.3750   71.5420  221.9420 C   0  0  0  0  0  0  0  0  0  0  0  0
  139.2880   71.7290  222.9670 C   0  0  2  0  0  0  0  0  0  0  0  0
  139.6720   71.1140  224.2560 C   0  0  0  0  0  0  0  0  0  0  0  0
  140.6850   71.5220  225.0710 C   0  0  0  0  0  0  0  0  0  0  0  0
  140.9200   70.8500  226.2540 C   0  0  0  0  0  0  0  0  0  0  0  0
  140.1450   69.7720  226.6250 C   0  0  0  0  0  0  0  0  0  0  0  0
  139.1440   69.3700  225.8190 N   0  0  0  0  0  0  0  0  0  0  0  0
  138.9200   70.0250  224.6740 C   0  0  0  0  0  0  0  0  0  0  0  0
  137.8190   75.7950  222.4980 C   0  0  0  0  0  0  0  0  0  0  0  0
  138.5510   76.9020  221.7730 C   0  0  0  0  0  0  0  0  0  0  0  0
  143.0321   75.4381  220.8412 H   0  0  0  0  0  0  0  0  0  0  0  0
  142.2213   74.9832  219.3042 H   0  0  0  0  0  0  0  0  0  0  0  0
  143.9617   75.4278  219.3042 H   0  0  0  0  0  0  0  0  0  0  0  0
  143.3415   77.7327  220.0428 H   0  0  0  0  0  0  0  0  0  0  0  0
  142.6105   77.2612  218.4362 H   0  0  0  0  0  0  0  0  0  0  0  0
  141.3842   79.9434  220.2591 H   0  0  0  0  0  0  0  0  0  0  0  0
  142.3230   81.9830  221.3593 H   0  0  0  0  0  0  0  0  0  0  0  0
  142.8810   81.8702  223.7715 H   0  0  0  0  0  0  0  0  0  0  0  0
  142.5199   79.7950  225.0759 H   0  0  0  0  0  0  0  0  0  0  0  0
  141.5801   77.7736  223.9546 H   0  0  0  0  0  0  0  0  0  0  0  0
  140.2196   76.9773  223.1150 H   0  0  0  0  0  0  0  0  0  0  0  0
  141.3549   75.1508  221.5161 H   0  0  0  0  0  0  0  0  0  0  0  0
  140.3247   74.8345  222.9902 H   0  0  0  0  0  0  0  0  0  0  0  0
  139.2195   74.9079  220.1331 H   0  0  0  0  0  0  0  0  0  0  0  0
  139.6918   73.4132  220.9344 H   0  0  0  0  0  0  0  0  0  0  0  0
  137.9912   72.2263  220.5799 H   0  0  0  0  0  0  0  0  0  0  0  0
  135.2880   72.0200  221.3060 H   0  0  0  0  0  0  0  0  0  0  0  0
  136.0670   70.6500  220.6020 H   0  0  0  0  0  0  0  0  0  0  0  0
  137.4033   70.6641  223.0624 H   0  0  0  0  0  0  0  0  0  0  0  0
  138.8419   69.0878  221.9360 H   0  0  0  0  0  0  0  0  0  0  0  0
  138.1064   69.8648  220.5243 H   0  0  0  0  0  0  0  0  0  0  0  0
  140.5983   69.4584  219.2805 H   0  0  0  0  0  0  0  0  0  0  0  0
  142.7597   70.6415  219.0585 H   0  0  0  0  0  0  0  0  0  0  0  0
  143.4323   72.3956  220.6481 H   0  0  0  0  0  0  0  0  0  0  0  0
  141.8752   72.9751  222.5207 H   0  0  0  0  0  0  0  0  0  0  0  0
  139.0822   72.7785  223.2241 H   0  0  0  0  0  0  0  0  0  0  0  0
  141.3113   72.3810  224.7883 H   0  0  0  0  0  0  0  0  0  0  0  0
  141.7384   71.1800  226.9107 H   0  0  0  0  0  0  0  0  0  0  0  0
  140.3424   69.2453  227.5703 H   0  0  0  0  0  0  0  0  0  0  0  0
  138.0966   69.6824  224.0301 H   0  0  0  0  0  0  0  0  0  0  0  0
  136.7359   75.9795  222.4435 H   0  0  0  0  0  0  0  0  0  0  0  0
  138.1454   75.7776  223.5483 H   0  0  0  0  0  0  0  0  0  0  0  0
  138.3668   76.8374  220.6904 H   0  0  0  0  0  0  0  0  0  0  0  0
  138.2100   77.8946  222.1022 H   0  0  0  0  0  0  0  0  0  0  0  0
  1  2  1  0
  2  3  1  0
  3  4  2  0
  3  5  1  0
  5  6  1  0
  6  7  2  0
  7  8  1  0
  8  9  2  0
  9 10  1  0
 10 11  2  0
  5 12  1  0
 12 13  1  0
 13 14  1  0
 14 15  1  0
 15 16  1  0
 16 17  2  0
 16 18  1  0
 18 19  1  0
 18 20  1  0
 20 21  1  0
 21 22  1  0
 22 23  2  0
 23 24  1  0
 24 25  2  0
 25 26  1  0
 26 27  2  0
 27 28  1  0
 28 29  1  0
 29 30  2  0
 30 31  1  0
 31 32  2  0
 32 33  1  0
 33 34  2  0
 15 35  1  0
 35 36  1  0
 11  6  1  0
 36 12  1  0
 28 20  1  0
 34 29  1  0
 27 22  1  0
  1 37  1  0
  1 38  1  0
  1 39  1  0
  2 40  1  0
  2 41  1  0
  7 42  1  0
  8 43  1  0
  9 44  1  0
 10 45  1  0
 11 46  1  0
 12 47  1  0
 13 48  1  0
 13 49  1  0
 14 50  1  0
 14 51  1  0
 18 52  1  6
 19 53  1  0
 19 54  1  0
 20 55  1  1
 21 56  1  0
 21 57  1  0
 23 58  1  0
 24 59  1  0
 25 60  1  0
 26 61  1  0
 28 62  1  1
 30 63  1  0
 31 64  1  0
 32 65  1  0
 34 66  1  0
 35 67  1  0
 35 68  1  0
 36 69  1  0
 36 70  1  0
M  END
>  <smiles>  (59) 
CCC(=O)N(c1ccccc1)C1CCN(C(=O)[C@H](N)C2Cc3ccccc3C2c2cccnc2)CC1

>  <score_type>  (59) 
oracle

>  <origin>  (59) 
autodockgpu

>  <m_score__min__energy>  (59) 
-9.3300000000000001

>  <m_primary>  (59) 
energy

>  <rmsd>  (59) 
8.574710309995533

>  <m_score__min__rmsd>  (59) 
8.574710309995533

>  <meeko>  (59) 
{"free_energy": -7.2, "intermolecular_energy": -9.59, "internal_energy": -3.35, "cluster_size": 2, "cluster_id": 6, "rank_in_cluster": 2}

>  <energy>  (59) 
-9.05

>  <cluster_rmsd>  (59) 
0.2

>  <cluster>  (59) 
1

$$$$

     RDKit          3D

 70 74  0  0  0  0  0  0  0  0999 V2000
  146.3410   73.2890  221.9080 C   0  0  0  0  0  0  0  0  0  0  0  0
  145.7530   73.9830  220.6780 C   0  0  0  0  0  0  0  0  0  0  0  0
  145.4440   73.0680  219.5870 C   0  0  0  0  0  0  0  0  0  0  0  0
  146.2420   73.0210  218.5890 O   0  0  0  0  0  0  0  0  0  0  0  0
  144.3240   72.2000  219.5090 N   0  0  0  0  0  0  0  0  0  0  0  0
  144.6370   70.8080  219.2780 C   0  0  0  0  0  0  0  0  0  0  0  0
  145.9560   70.3870  219.3390 C   0  0  0  0  0  0  0  0  0  0  0  0
  146.3140   69.0580  219.1230 C   0  0  0  0  0  0  0  0  0  0  0  0
  145.3060   68.1690  218.8440 C   0  0  0  0  0  0  0  0  0  0  0  0
  143.9740   68.5630  218.7770 C   0  0  0  0  0  0  0  0  0  0  0  0
  143.6440   69.8940  218.9960 C   0  0  0  0  0  0  0  0  0  0  0  0
  142.9570   72.6070  219.6350 C   0  0  0  0  0  0  0  0  0  0  0  0
  142.7060   74.0730  219.6100 C   0  0  0  0  0  0  0  0  0  0  0  0
  142.2820   74.6450  220.9790 C   0  0  0  0  0  0  0  0  0  0  0  0
  140.9900   74.0500  221.2340 N   0  0  0  0  0  0  0  0  0  0  0  0
  139.8770   74.7170  221.8020 C   0  0  0  0  0  0  0  0  0  0  0  0
  138.8160   74.0170  221.9030 O   0  0  0  0  0  0  0  0  0  0  0  0
  139.8440   76.1010  222.2660 C   0  0  2  0  0  0  0  0  0  0  0  0
  138.7540   76.3700  223.0960 N   0  0  0  0  0  0  0  0  0  0  0  0
  140.0250   77.1410  221.1660 C   0  0  1  0  0  0  0  0  0  0  0  0
  139.2810   78.3910  221.5740 C   0  0  0  0  0  0  0  0  0  0  0  0
  140.2260   79.1860  222.3540 C   0  0  0  0  0  0  0  0  0  0  0  0
  140.0050   80.2270  223.2320 C   0  0  0  0  0  0  0  0  0  0  0  0
  141.0970   80.8180  223.8370 C   0  0  0  0  0  0  0  0  0  0  0  0
  142.3740   80.4100  223.5980 C   0  0  0  0  0  0  0  0  0  0  0  0
  142.5590   79.3550  222.7040 C   0  0  0  0  0  0  0  0  0  0  0  0
  141.4810   78.7400  222.0790 C   0  0  0  0  0  0  0  0  0  0  0  0
  141.4490   77.5930  221.1040 C   0  0  2  0  0  0  0  0  0  0  0  0
  141.8680   78.0390  219.7570 C   0  0  0  0  0  0  0  0  0  0  0  0
  142.4600   77.2670  218.8030 C   0  0  0  0  0  0  0  0  0  0  0  0
  142.7880   77.8240  217.5840 C   0  0  0  0  0  0  0  0  0  0  0  0
  142.5260   79.1510  217.3150 C   0  0  0  0  0  0  0  0  0  0  0  0
  141.9410   79.9120  218.2590 N   0  0  0  0  0  0  0  0  0  0  0  0
  141.6240   79.3680  219.4380 C   0  0  0  0  0  0  0  0  0  0  0  0
  140.8740   72.6250  220.8650 C   0  0  0  0  0  0  0  0  0  0  0  0
  142.2440   71.9820  220.8200 C   0  0  0  0  0  0  0  0  0  0  0  0
  145.9429   73.7589  222.8195 H   0  0  0  0  0  0  0  0  0  0  0  0
  146.0662   72.2240  221.8945 H   0  0  0  0  0  0  0  0  0  0  0  0
  147.4367   73.3851  221.8945 H   0  0  0  0  0  0  0  0  0  0  0  0
  144.8261   74.4945  220.9766 H   0  0  0  0  0  0  0  0  0  0  0  0
  146.5151   74.6840  220.3066 H   0  0  0  0  0  0  0  0  0  0  0  0
  146.7422   71.1227  219.5642 H   0  0  0  0  0  0  0  0  0  0  0  0
  147.3638   68.7336  219.1741 H   0  0  0  0  0  0  0  0  0  0  0  0
  145.5595   67.1131  218.6681 H   0  0  0  0  0  0  0  0  0  0  0  0
  143.1884   67.8265  218.5524 H   0  0  0  0  0  0  0  0  0  0  0  0
  142.5940   70.2180  218.9447 H   0  0  0  0  0  0  0  0  0  0  0  0
  142.5225   72.2092  218.7060 H   0  0  0  0  0  0  0  0  0  0  0  0
  143.6289   74.5795  219.2911 H   0  0  0  0  0  0  0  0  0  0  0  0
  141.8736   74.2483  218.9126 H   0  0  0  0  0  0  0  0  0  0  0  0
  143.0025   74.3599  221.7598 H   0  0  0  0  0  0  0  0  0  0  0  0
  142.2443   75.7443  220.9800 H   0  0  0  0  0  0  0  0  0  0  0  0
  140.7430   76.2037  222.8915 H   0  0  0  0  0  0  0  0  0  0  0  0
  138.1430   75.5990  223.3270 H   0  0  0  0  0  0  0  0  0  0  0  0
  138.3950   77.3020  223.2030 H   0  0  0  0  0  0  0  0  0  0  0  0
  139.6852   76.6952  220.2195 H   0  0  0  0  0  0  0  0  0  0  0  0
  138.9552   78.9494  220.6840 H   0  0  0  0  0  0  0  0  0  0  0  0
  138.3795   78.1509  222.1568 H   0  0  0  0  0  0  0  0  0  0  0  0
  138.9844   80.5777  223.4449 H   0  0  0  0  0  0  0  0  0  0  0  0
  140.9289   81.6490  224.5378 H   0  0  0  0  0  0  0  0  0  0  0  0
  143.2289   80.8948  224.0920 H   0  0  0  0  0  0  0  0  0  0  0  0
  143.5788   79.0029  222.4895 H   0  0  0  0  0  0  0  0  0  0  0  0
  142.1452   76.7753  221.3420 H   0  0  0  0  0  0  0  0  0  0  0  0
  142.6750   76.2070  219.0033 H   0  0  0  0  0  0  0  0  0  0  0  0
  143.2660   77.1998  216.8146 H   0  0  0  0  0  0  0  0  0  0  0  0
  142.7923   79.5832  216.3392 H   0  0  0  0  0  0  0  0  0  0  0  0
  141.1449   80.0064  220.1949 H   0  0  0  0  0  0  0  0  0  0  0  0
  140.2537   72.1062  221.6107 H   0  0  0  0  0  0  0  0  0  0  0  0
  140.4096   72.5489  219.8708 H   0  0  0  0  0  0  0  0  0  0  0  0
  142.7943   72.1880  221.7500 H   0  0  0  0  0  0  0  0  0  0  0  0
  142.1744   70.8888  220.7193 H   0  0  0  0  0  0  0  0  0  0  0  0
  1  2  1  0
  2  3  1  0
  3  4  2  0
  3  5  1  0
  5  6  1  0
  6  7  2  0
  7  8  1  0
  8  9  2  0
  9 10  1  0
 10 11  2  0
  5 12  1  0
 12 13  1  0
 13 14  1  0
 14 15  1  0
 15 16  1  0
 16 17  2  0
 16 18  1  0
 18 19  1  0
 18 20  1  0
 20 21  1  0
 21 22  1  0
 22 23  2  0
 23 24  1  0
 24 25  2  0
 25 26  1  0
 26 27  2  0
 27 28  1  0
 28 29  1  0
 29 30  2  0
 30 31  1  0
 31 32  2  0
 32 33  1  0
 33 34  2  0
 15 35  1  0
 35 36  1  0
 11  6  1  0
 36 12  1  0
 28 20  1  0
 34 29  1  0
 27 22  1  0
  1 37  1  0
  1 38  1  0
  1 39  1  0
  2 40  1  0
  2 41  1  0
  7 42  1  0
  8 43  1  0
  9 44  1  0
 10 45  1  0
 11 46  1  0
 12 47  1  0
 13 48  1  0
 13 49  1  0
 14 50  1  0
 14 51  1  0
 18 52  1  1
 19 53  1  0
 19 54  1  0
 20 55  1  6
 21 56  1  0
 21 57  1  0
 23 58  1  0
 24 59  1  0
 25 60  1  0
 26 61  1  0
 28 62  1  1
 30 63  1  0
 31 64  1  0
 32 65  1  0
 34 66  1  0
 35 67  1  0
 35 68  1  0
 36 69  1  0
 36 70  1  0
M  END
>  <smiles>  (60) 
CCC(=O)N(c1ccccc1)C1CCN(C(=O)[C@H](N)C2Cc3ccccc3C2c2cccnc2)CC1

>  <score_type>  (60) 
oracle

>  <origin>  (60) 
autodockgpu

>  <m_score__min__energy>  (60) 
-9.3300000000000001

>  <m_primary>  (60) 
energy

>  <rmsd>  (60) 
4.334269179392264

>  <m_score__min__rmsd>  (60) 
4.334269179392264

>  <meeko>  (60) 
{"free_energy": -9.17, "intermolecular_energy": -11.56, "internal_energy": -2.89, "cluster_size": 17, "cluster_id": 1, "rank_in_cluster": 7}

>  <energy>  (60) 
-9.05

>  <cluster_rmsd>  (60) 
0.55

>  <cluster>  (60) 
1

$$$$

     RDKit          3D

 70 74  0  0  0  0  0  0  0  0999 V2000
  142.9240   75.6520  219.7340 C   0  0  0  0  0  0  0  0  0  0  0  0
  142.5770   77.1300  219.5460 C   0  0  0  0  0  0  0  0  0  0  0  0
  141.2340   77.4730  219.9960 C   0  0  0  0  0  0  0  0  0  0  0  0
  140.3170   77.6180  219.1180 O   0  0  0  0  0  0  0  0  0  0  0  0
  140.8230   77.6710  221.3410 N   0  0  0  0  0  0  0  0  0  0  0  0
  141.3120   78.8800  221.9640 C   0  0  0  0  0  0  0  0  0  0  0  0
  141.3530   80.0560  221.2310 C   0  0  0  0  0  0  0  0  0  0  0  0
  141.8170   81.2490  221.7820 C   0  0  0  0  0  0  0  0  0  0  0  0
  142.2360   81.2220  223.0880 C   0  0  0  0  0  0  0  0  0  0  0  0
  142.2050   80.0570  223.8470 C   0  0  0  0  0  0  0  0  0  0  0  0
  141.7390   78.8810  223.2740 C   0  0  0  0  0  0  0  0  0  0  0  0
  139.9900   76.7770  222.0870 C   0  0  0  0  0  0  0  0  0  0  0  0
  140.3090   75.3300  221.9640 C   0  0  0  0  0  0  0  0  0  0  0  0
  139.2590   74.5360  221.1600 C   0  0  0  0  0  0  0  0  0  0  0  0
  138.0670   74.5870  221.9760 N   0  0  0  0  0  0  0  0  0  0  0  0
  137.1680   73.5120  222.1830 C   0  0  0  0  0  0  0  0  0  0  0  0
  136.1990   73.7580  222.9750 O   0  0  0  0  0  0  0  0  0  0  0  0
  137.2570   72.1830  221.5850 C   0  0  2  0  0  0  0  0  0  0  0  0
  136.0270   71.7100  221.1260 N   0  0  0  0  0  0  0  0  0  0  0  0
  138.0120   71.1600  222.4280 C   0  0  1  0  0  0  0  0  0  0  0  0
  138.6180   70.1390  221.4950 C   0  0  0  0  0  0  0  0  0  0  0  0
  139.9300   70.6610  221.1220 C   0  0  0  0  0  0  0  0  0  0  0  0
  140.7570   70.3290  220.0690 C   0  0  0  0  0  0  0  0  0  0  0  0
  141.9680   70.9830  219.9540 C   0  0  0  0  0  0  0  0  0  0  0  0
  142.3690   71.9380  220.8380 C   0  0  0  0  0  0  0  0  0  0  0  0
  141.5070   72.2480  221.8900 C   0  0  0  0  0  0  0  0  0  0  0  0
  140.2820   71.6070  222.0330 C   0  0  0  0  0  0  0  0  0  0  0  0
  139.2060   71.7910  223.0700 C   0  0  2  0  0  0  0  0  0  0  0  0
  139.5940   71.1530  224.3470 C   0  0  0  0  0  0  0  0  0  0  0  0
  140.6300   71.5260  225.1500 C   0  0  0  0  0  0  0  0  0  0  0  0
  140.8650   70.8360  226.3220 C   0  0  0  0  0  0  0  0  0  0  0  0
  140.0680   69.7740  226.6940 C   0  0  0  0  0  0  0  0  0  0  0  0
  139.0450   69.4070  225.9000 N   0  0  0  0  0  0  0  0  0  0  0  0
  138.8210   70.0780  224.7660 C   0  0  0  0  0  0  0  0  0  0  0  0
  137.8020   75.8910  222.6160 C   0  0  0  0  0  0  0  0  0  0  0  0
  138.5060   76.9980  221.8610 C   0  0  0  0  0  0  0  0  0  0  0  0
  142.9780   75.4218  220.8083 H   0  0  0  0  0  0  0  0  0  0  0  0
  142.1474   75.0304  219.2644 H   0  0  0  0  0  0  0  0  0  0  0  0
  143.8961   75.4410  219.2644 H   0  0  0  0  0  0  0  0  0  0  0  0
  143.2997   77.7326  220.1157 H   0  0  0  0  0  0  0  0  0  0  0  0
  142.6198   77.3379  218.4667 H   0  0  0  0  0  0  0  0  0  0  0  0
  141.0099   80.0472  220.1859 H   0  0  0  0  0  0  0  0  0  0  0  0
  141.8462   82.1770  221.1921 H   0  0  0  0  0  0  0  0  0  0  0  0
  142.6075   82.1493  223.5486 H   0  0  0  0  0  0  0  0  0  0  0  0
  142.5468   80.0670  224.8925 H   0  0  0  0  0  0  0  0  0  0  0  0
  141.7109   77.9531  223.8641 H   0  0  0  0  0  0  0  0  0  0  0  0
  140.2396   77.0561  223.1213 H   0  0  0  0  0  0  0  0  0  0  0  0
  141.2821   75.2293  221.4611 H   0  0  0  0  0  0  0  0  0  0  0  0
  140.3211   74.9131  222.9819 H   0  0  0  0  0  0  0  0  0  0  0  0
  139.0812   75.0060  220.1815 H   0  0  0  0  0  0  0  0  0  0  0  0
  139.5815   73.5049  220.9530 H   0  0  0  0  0  0  0  0  0  0  0  0
  137.8867   72.3227  220.6939 H   0  0  0  0  0  0  0  0  0  0  0  0
  136.0240   71.1810  220.2650 H   0  0  0  0  0  0  0  0  0  0  0  0
  135.1620   72.1220  221.4280 H   0  0  0  0  0  0  0  0  0  0  0  0
  137.3099   70.7452  223.1662 H   0  0  0  0  0  0  0  0  0  0  0  0
  138.7234   69.1703  222.0054 H   0  0  0  0  0  0  0  0  0  0  0  0
  137.9840   69.9754  220.6111 H   0  0  0  0  0  0  0  0  0  0  0  0
  140.4592   69.5621  219.3388 H   0  0  0  0  0  0  0  0  0  0  0  0
  142.6332   70.7228  219.1174 H   0  0  0  0  0  0  0  0  0  0  0  0
  143.3379   72.4467  220.7265 H   0  0  0  0  0  0  0  0  0  0  0  0
  141.8026   73.0150  222.6210 H   0  0  0  0  0  0  0  0  0  0  0  0
  139.0143   72.8390  223.3438 H   0  0  0  0  0  0  0  0  0  0  0  0
  141.2744   72.3711  224.8661 H   0  0  0  0  0  0  0  0  0  0  0  0
  141.7013   71.1380  226.9696 H   0  0  0  0  0  0  0  0  0  0  0  0
  140.2663   69.2321  227.6305 H   0  0  0  0  0  0  0  0  0  0  0  0
  137.9801   69.7621  224.1311 H   0  0  0  0  0  0  0  0  0  0  0  0
  136.7188   76.0826  222.6149 H   0  0  0  0  0  0  0  0  0  0  0  0
  138.1786   75.8662  223.6492 H   0  0  0  0  0  0  0  0  0  0  0  0
  138.2695   76.9399  220.7883 H   0  0  0  0  0  0  0  0  0  0  0  0
  138.1877   77.9912  222.2107 H   0  0  0  0  0  0  0  0  0  0  0  0
  1  2  1  0
  2  3  1  0
  3  4  2  0
  3  5  1  0
  5  6  1  0
  6  7  2  0
  7  8  1  0
  8  9  2  0
  9 10  1  0
 10 11  2  0
  5 12  1  0
 12 13  1  0
 13 14  1  0
 14 15  1  0
 15 16  1  0
 16 17  2  0
 16 18  1  0
 18 19  1  0
 18 20  1  0
 20 21  1  0
 21 22  1  0
 22 23  2  0
 23 24  1  0
 24 25  2  0
 25 26  1  0
 26 27  2  0
 27 28  1  0
 28 29  1  0
 29 30  2  0
 30 31  1  0
 31 32  2  0
 32 33  1  0
 33 34  2  0
 15 35  1  0
 35 36  1  0
 11  6  1  0
 36 12  1  0
 28 20  1  0
 34 29  1  0
 27 22  1  0
  1 37  1  0
  1 38  1  0
  1 39  1  0
  2 40  1  0
  2 41  1  0
  7 42  1  0
  8 43  1  0
  9 44  1  0
 10 45  1  0
 11 46  1  0
 12 47  1  0
 13 48  1  0
 13 49  1  0
 14 50  1  0
 14 51  1  0
 18 52  1  6
 19 53  1  0
 19 54  1  0
 20 55  1  1
 21 56  1  0
 21 57  1  0
 23 58  1  0
 24 59  1  0
 25 60  1  0
 26 61  1  0
 28 62  1  1
 30 63  1  0
 31 64  1  0
 32 65  1  0
 34 66  1  0
 35 67  1  0
 35 68  1  0
 36 69  1  0
 36 70  1  0
M  END
>  <smiles>  (61) 
CCC(=O)N(c1ccccc1)C1CCN(C(=O)[C@H](N)C2Cc3ccccc3C2c2cccnc2)CC1

>  <score_type>  (61) 
oracle

>  <origin>  (61) 
autodockgpu

>  <m_score__min__energy>  (61) 
-9.3300000000000001

>  <m_primary>  (61) 
energy

>  <rmsd>  (61) 
8.541061295950875

>  <m_score__min__rmsd>  (61) 
8.541061295950875

>  <meeko>  (61) 
{"free_energy": -7.22, "intermolecular_energy": -9.61, "internal_energy": -3.28, "cluster_size": 2, "cluster_id": 6, "rank_in_cluster": 1}

>  <energy>  (61) 
-9.02

>  <cluster_rmsd>  (61) 
0.56

>  <cluster>  (61) 
1

$$$$

     RDKit          3D

 70 74  0  0  0  0  0  0  0  0999 V2000
  139.8840   82.6090  220.5280 C   0  0  0  0  0  0  0  0  0  0  0  0
  138.8170   82.8330  221.6020 C   0  0  0  0  0  0  0  0  0  0  0  0
  138.6190   81.6820  222.4720 C   0  0  0  0  0  0  0  0  0  0  0  0
  137.7820   81.7820  223.4320 O   0  0  0  0  0  0  0  0  0  0  0  0
  139.2730   80.4260  222.3680 N   0  0  0  0  0  0  0  0  0  0  0  0
  140.6680   80.4240  222.7470 C   0  0  0  0  0  0  0  0  0  0  0  0
  141.0900   81.2250  223.7970 C   0  0  0  0  0  0  0  0  0  0  0  0
  142.4230   81.2630  224.2030 C   0  0  0  0  0  0  0  0  0  0  0  0
  143.3140   80.4720  223.5220 C   0  0  0  0  0  0  0  0  0  0  0  0
  142.9180   79.6580  222.4660 C   0  0  0  0  0  0  0  0  0  0  0  0
  141.5840   79.6390  222.0810 C   0  0  0  0  0  0  0  0  0  0  0  0
  138.6590   79.2120  221.9230 C   0  0  0  0  0  0  0  0  0  0  0  0
  138.9560   77.9960  222.7250 C   0  0  0  0  0  0  0  0  0  0  0  0
  139.8700   76.9890  221.9970 C   0  0  0  0  0  0  0  0  0  0  0  0
  139.0740   76.5180  220.8860 N   0  0  0  0  0  0  0  0  0  0  0  0
  139.0170   75.1790  220.4270 C   0  0  0  0  0  0  0  0  0  0  0  0
  138.2170   74.9700  219.4560 O   0  0  0  0  0  0  0  0  0  0  0  0
  139.7750   74.0510  220.9590 C   0  0  2  0  0  0  0  0  0  0  0  0
  139.9940   74.1420  222.3350 N   0  0  0  0  0  0  0  0  0  0  0  0
  141.0400   73.7140  220.1760 C   0  0  1  0  0  0  0  0  0  0  0  0
  140.8410   74.1610  218.7480 C   0  0  0  0  0  0  0  0  0  0  0  0
  141.2890   75.5500  218.6930 C   0  0  0  0  0  0  0  0  0  0  0  0
  141.0350   76.5350  217.7610 C   0  0  0  0  0  0  0  0  0  0  0  0
  141.6010   77.7800  217.9520 C   0  0  0  0  0  0  0  0  0  0  0  0
  142.3940   78.0670  219.0210 C   0  0  0  0  0  0  0  0  0  0  0  0
  142.6290   77.0470  219.9430 C   0  0  0  0  0  0  0  0  0  0  0  0
  142.0740   75.7830  219.7790 C   0  0  0  0  0  0  0  0  0  0  0  0
  142.1840   74.5550  220.6440 C   0  0  2  0  0  0  0  0  0  0  0  0
  143.5020   73.9070  220.4710 C   0  0  0  0  0  0  0  0  0  0  0  0
  144.7140   74.5300  220.4980 C   0  0  0  0  0  0  0  0  0  0  0  0
  145.8650   73.7880  220.3290 C   0  0  0  0  0  0  0  0  0  0  0  0
  145.8080   72.4240  220.1320 C   0  0  0  0  0  0  0  0  0  0  0  0
  144.6100   71.8100  220.1050 N   0  0  0  0  0  0  0  0  0  0  0  0
  143.4980   72.5340  220.2710 C   0  0  0  0  0  0  0  0  0  0  0  0
  138.2810   77.5570  220.2000 C   0  0  0  0  0  0  0  0  0  0  0  0
  138.8800   78.9240  220.4500 C   0  0  0  0  0  0  0  0  0  0  0  0
  140.8519   82.4058  221.0095 H   0  0  0  0  0  0  0  0  0  0  0  0
  139.5990   81.7511  219.9013 H   0  0  0  0  0  0  0  0  0  0  0  0
  139.9680   83.5091  219.9013 H   0  0  0  0  0  0  0  0  0  0  0  0
  139.1208   83.6897  222.2215 H   0  0  0  0  0  0  0  0  0  0  0  0
  137.8652   83.0124  221.0806 H   0  0  0  0  0  0  0  0  0  0  0  0
  140.3524   81.8478  224.3243 H   0  0  0  0  0  0  0  0  0  0  0  0
  142.7481   81.9023  225.0370 H   0  0  0  0  0  0  0  0  0  0  0  0
  144.3728   80.4820  223.8201 H   0  0  0  0  0  0  0  0  0  0  0  0
  143.6557   79.0342  221.9400 H   0  0  0  0  0  0  0  0  0  0  0  0
  141.2595   78.9993  221.2470 H   0  0  0  0  0  0  0  0  0  0  0  0
  137.5940   79.4316  222.0888 H   0  0  0  0  0  0  0  0  0  0  0  0
  139.4514   78.3057  223.6571 H   0  0  0  0  0  0  0  0  0  0  0  0
  137.9980   77.4885  222.9115 H   0  0  0  0  0  0  0  0  0  0  0  0
  140.7851   77.4828  221.6383 H   0  0  0  0  0  0  0  0  0  0  0  0
  140.1984   76.1702  222.6540 H   0  0  0  0  0  0  0  0  0  0  0  0
  139.1178   73.1820  220.8074 H   0  0  0  0  0  0  0  0  0  0  0  0
  139.2270   73.8980  222.9460 H   0  0  0  0  0  0  0  0  0  0  0  0
  140.7310   74.7120  222.7110 H   0  0  0  0  0  0  0  0  0  0  0  0
  141.2352   72.6380  220.2953 H   0  0  0  0  0  0  0  0  0  0  0  0
  141.4399   73.5393  218.0662 H   0  0  0  0  0  0  0  0  0  0  0  0
  139.7896   74.0650  218.4394 H   0  0  0  0  0  0  0  0  0  0  0  0
  140.3975   76.3336  216.8875 H   0  0  0  0  0  0  0  0  0  0  0  0
  141.4037   78.5700  217.2124 H   0  0  0  0  0  0  0  0  0  0  0  0
  142.8333   79.0668  219.1527 H   0  0  0  0  0  0  0  0  0  0  0  0
  143.2661   77.2467  220.8172 H   0  0  0  0  0  0  0  0  0  0  0  0
  142.1270   74.7544  221.7243 H   0  0  0  0  0  0  0  0  0  0  0  0
  144.7742   75.6173  220.6535 H   0  0  0  0  0  0  0  0  0  0  0  0
  146.8426   74.2918  220.3517 H   0  0  0  0  0  0  0  0  0  0  0  0
  146.7326   71.8433  219.9982 H   0  0  0  0  0  0  0  0  0  0  0  0
  142.5291   72.0136  220.2478 H   0  0  0  0  0  0  0  0  0  0  0  0
  138.2760   77.3550  219.1187 H   0  0  0  0  0  0  0  0  0  0  0  0
  137.2530   77.5394  220.5909 H   0  0  0  0  0  0  0  0  0  0  0  0
  139.9553   78.9187  220.2184 H   0  0  0  0  0  0  0  0  0  0  0  0
  138.4142   79.6914  219.8142 H   0  0  0  0  0  0  0  0  0  0  0  0
  1  2  1  0
  2  3  1  0
  3  4  2  0
  3  5  1  0
  5  6  1  0
  6  7  2  0
  7  8  1  0
  8  9  2  0
  9 10  1  0
 10 11  2  0
  5 12  1  0
 12 13  1  0
 13 14  1  0
 14 15  1  0
 15 16  1  0
 16 17  2  0
 16 18  1  0
 18 19  1  0
 18 20  1  0
 20 21  1  0
 21 22  1  0
 22 23  2  0
 23 24  1  0
 24 25  2  0
 25 26  1  0
 26 27  2  0
 27 28  1  0
 28 29  1  0
 29 30  2  0
 30 31  1  0
 31 32  2  0
 32 33  1  0
 33 34  2  0
 15 35  1  0
 35 36  1  0
 11  6  1  0
 36 12  1  0
 28 20  1  0
 34 29  1  0
 27 22  1  0
  1 37  1  0
  1 38  1  0
  1 39  1  0
  2 40  1  0
  2 41  1  0
  7 42  1  0
  8 43  1  0
  9 44  1  0
 10 45  1  0
 11 46  1  0
 12 47  1  0
 13 48  1  0
 13 49  1  0
 14 50  1  0
 14 51  1  0
 18 52  1  1
 19 53  1  0
 19 54  1  0
 20 55  1  6
 21 56  1  0
 21 57  1  0
 23 58  1  0
 24 59  1  0
 25 60  1  0
 26 61  1  0
 28 62  1  1
 30 63  1  0
 31 64  1  0
 32 65  1  0
 34 66  1  0
 35 67  1  0
 35 68  1  0
 36 69  1  0
 36 70  1  0
M  END
>  <smiles>  (62) 
CCC(=O)N(c1ccccc1)C1CCN(C(=O)[C@H](N)C2Cc3ccccc3C2c2cccnc2)CC1

>  <score_type>  (62) 
oracle

>  <origin>  (62) 
autodockgpu

>  <m_score__min__energy>  (62) 
-9.3300000000000001

>  <m_primary>  (62) 
energy

>  <rmsd>  (62) 
5.959670463489115

>  <m_score__min__rmsd>  (62) 
5.959670463489115

>  <meeko>  (62) 
{"free_energy": -7.59, "intermolecular_energy": -9.98, "internal_energy": -3.18, "cluster_size": 15, "cluster_id": 5, "rank_in_cluster": 9}

>  <energy>  (62) 
-8.9

>  <cluster_rmsd>  (62) 
0.42

>  <cluster>  (62) 
1

$$$$

     RDKit          3D

 70 74  0  0  0  0  0  0  0  0999 V2000
  146.6160   73.3920  221.9260 C   0  0  0  0  0  0  0  0  0  0  0  0
  145.7700   74.0280  220.8220 C   0  0  0  0  0  0  0  0  0  0  0  0
  145.4890   73.1260  219.7130 C   0  0  0  0  0  0  0  0  0  0  0  0
  146.2980   73.1070  218.7230 O   0  0  0  0  0  0  0  0  0  0  0  0
  144.3830   72.2410  219.6080 N   0  0  0  0  0  0  0  0  0  0  0  0
  144.7210   70.8580  219.3580 C   0  0  0  0  0  0  0  0  0  0  0  0
  143.7080   69.9410  219.1280 C   0  0  0  0  0  0  0  0  0  0  0  0
  143.9770   68.5950  218.8830 C   0  0  0  0  0  0  0  0  0  0  0  0
  145.2930   68.2040  218.8770 C   0  0  0  0  0  0  0  0  0  0  0  0
  146.3290   69.1030  219.1030 C   0  0  0  0  0  0  0  0  0  0  0  0
  146.0340   70.4390  219.3450 C   0  0  0  0  0  0  0  0  0  0  0  0
  143.0080   72.6240  219.7260 C   0  0  0  0  0  0  0  0  0  0  0  0
  142.7300   74.0840  219.6790 C   0  0  0  0  0  0  0  0  0  0  0  0
  142.2920   74.6690  221.0380 C   0  0  0  0  0  0  0  0  0  0  0  0
  141.0120   74.0530  221.3000 N   0  0  0  0  0  0  0  0  0  0  0  0
  139.8850   74.7070  221.8560 C   0  0  0  0  0  0  0  0  0  0  0  0
  138.8370   73.9880  221.9660 O   0  0  0  0  0  0  0  0  0  0  0  0
  139.8240   76.0960  222.2990 C   0  0  2  0  0  0  0  0  0  0  0  0
  138.7090   76.3650  223.0950 N   0  0  0  0  0  0  0  0  0  0  0  0
  140.0250   77.1230  221.1890 C   0  0  1  0  0  0  0  0  0  0  0  0
  139.2820   78.3810  221.5740 C   0  0  0  0  0  0  0  0  0  0  0  0
  140.2210   79.1810  222.3560 C   0  0  0  0  0  0  0  0  0  0  0  0
  139.9940   80.2330  223.2200 C   0  0  0  0  0  0  0  0  0  0  0  0
  141.0800   80.8250  223.8320 C   0  0  0  0  0  0  0  0  0  0  0  0
  142.3580   80.4080  223.6150 C   0  0  0  0  0  0  0  0  0  0  0  0
  142.5500   79.3420  222.7360 C   0  0  0  0  0  0  0  0  0  0  0  0
  141.4770   78.7250  222.1030 C   0  0  0  0  0  0  0  0  0  0  0  0
  141.4520   77.5670  221.1410 C   0  0  2  0  0  0  0  0  0  0  0  0
  141.8910   77.9950  219.7950 C   0  0  0  0  0  0  0  0  0  0  0  0
  142.5540   77.2290  218.8840 C   0  0  0  0  0  0  0  0  0  0  0  0
  142.8910   77.7670  217.6590 C   0  0  0  0  0  0  0  0  0  0  0  0
  142.5690   79.0700  217.3410 C   0  0  0  0  0  0  0  0  0  0  0  0
  141.9140   79.8260  218.2420 N   0  0  0  0  0  0  0  0  0  0  0  0
  141.5880   79.3000  219.4280 C   0  0  0  0  0  0  0  0  0  0  0  0
  140.9240   72.6200  220.9520 C   0  0  0  0  0  0  0  0  0  0  0  0
  142.3050   72.0030  220.9190 C   0  0  0  0  0  0  0  0  0  0  0  0
  146.2204   73.6894  222.9084 H   0  0  0  0  0  0  0  0  0  0  0  0
  146.5783   72.2967  221.8318 H   0  0  0  0  0  0  0  0  0  0  0  0
  147.6577   73.7325  221.8318 H   0  0  0  0  0  0  0  0  0  0  0  0
  144.8136   74.3514  221.2588 H   0  0  0  0  0  0  0  0  0  0  0  0
  146.3488   74.8704  220.4154 H   0  0  0  0  0  0  0  0  0  0  0  0
  142.6630   70.2843  219.1390 H   0  0  0  0  0  0  0  0  0  0  0  0
  143.1661   67.8742  218.7015 H   0  0  0  0  0  0  0  0  0  0  0  0
  145.5349   67.1478  218.6877 H   0  0  0  0  0  0  0  0  0  0  0  0
  147.3739   68.7594  219.0903 H   0  0  0  0  0  0  0  0  0  0  0  0
  146.8453   71.1596  219.5255 H   0  0  0  0  0  0  0  0  0  0  0  0
  142.5822   72.2046  218.8025 H   0  0  0  0  0  0  0  0  0  0  0  0
  143.6442   74.6027  219.3546 H   0  0  0  0  0  0  0  0  0  0  0  0
  141.8959   74.2331  218.9776 H   0  0  0  0  0  0  0  0  0  0  0  0
  143.0164   74.4105  221.8244 H   0  0  0  0  0  0  0  0  0  0  0  0
  142.2327   75.7673  221.0215 H   0  0  0  0  0  0  0  0  0  0  0  0
  140.7039   76.2171  222.9480 H   0  0  0  0  0  0  0  0  0  0  0  0
  138.1200   75.5850  223.3500 H   0  0  0  0  0  0  0  0  0  0  0  0
  138.3170   77.2880  223.1510 H   0  0  0  0  0  0  0  0  0  0  0  0
  139.6956   76.6687  220.2429 H   0  0  0  0  0  0  0  0  0  0  0  0
  138.9692   78.9305  220.6739 H   0  0  0  0  0  0  0  0  0  0  0  0
  138.3728   78.1514  222.1490 H   0  0  0  0  0  0  0  0  0  0  0  0
  138.9725   80.5908  223.4160 H   0  0  0  0  0  0  0  0  0  0  0  0
  140.9068   81.6650  224.5208 H   0  0  0  0  0  0  0  0  0  0  0  0
  143.2086   80.8944  224.1150 H   0  0  0  0  0  0  0  0  0  0  0  0
  143.5709   78.9824  222.5398 H   0  0  0  0  0  0  0  0  0  0  0  0
  142.1407   76.7487  221.3979 H   0  0  0  0  0  0  0  0  0  0  0  0
  142.8188   76.1886  219.1235 H   0  0  0  0  0  0  0  0  0  0  0  0
  143.4251   77.1468  216.9241 H   0  0  0  0  0  0  0  0  0  0  0  0
  142.8446   79.4871  216.3612 H   0  0  0  0  0  0  0  0  0  0  0  0
  141.0522   79.9337  220.1500 H   0  0  0  0  0  0  0  0  0  0  0  0
  140.3122   72.1006  221.7042 H   0  0  0  0  0  0  0  0  0  0  0  0
  140.4632   72.5203  219.9581 H   0  0  0  0  0  0  0  0  0  0  0  0
  142.8494   72.2332  221.8467 H   0  0  0  0  0  0  0  0  0  0  0  0
  142.2565   70.9073  220.8346 H   0  0  0  0  0  0  0  0  0  0  0  0
  1  2  1  0
  2  3  1  0
  3  4  2  0
  3  5  1  0
  5  6  1  0
  6  7  2  0
  7  8  1  0
  8  9  2  0
  9 10  1  0
 10 11  2  0
  5 12  1  0
 12 13  1  0
 13 14  1  0
 14 15  1  0
 15 16  1  0
 16 17  2  0
 16 18  1  0
 18 19  1  0
 18 20  1  0
 20 21  1  0
 21 22  1  0
 22 23  2  0
 23 24  1  0
 24 25  2  0
 25 26  1  0
 26 27  2  0
 27 28  1  0
 28 29  1  0
 29 30  2  0
 30 31  1  0
 31 32  2  0
 32 33  1  0
 33 34  2  0
 15 35  1  0
 35 36  1  0
 11  6  1  0
 36 12  1  0
 28 20  1  0
 34 29  1  0
 27 22  1  0
  1 37  1  0
  1 38  1  0
  1 39  1  0
  2 40  1  0
  2 41  1  0
  7 42  1  0
  8 43  1  0
  9 44  1  0
 10 45  1  0
 11 46  1  0
 12 47  1  0
 13 48  1  0
 13 49  1  0
 14 50  1  0
 14 51  1  0
 18 52  1  1
 19 53  1  0
 19 54  1  0
 20 55  1  6
 21 56  1  0
 21 57  1  0
 23 58  1  0
 24 59  1  0
 25 60  1  0
 26 61  1  0
 28 62  1  1
 30 63  1  0
 31 64  1  0
 32 65  1  0
 34 66  1  0
 35 67  1  0
 35 68  1  0
 36 69  1  0
 36 70  1  0
M  END
>  <smiles>  (63) 
CCC(=O)N(c1ccccc1)C1CCN(C(=O)[C@H](N)C2Cc3ccccc3C2c2cccnc2)CC1

>  <score_type>  (63) 
oracle

>  <origin>  (63) 
autodockgpu

>  <m_score__min__energy>  (63) 
-9.3300000000000001

>  <m_primary>  (63) 
energy

>  <rmsd>  (63) 
4.358480680943735

>  <m_score__min__rmsd>  (63) 
4.358480680943735

>  <meeko>  (63) 
{"free_energy": -9.27, "intermolecular_energy": -11.65, "internal_energy": -2.83, "cluster_size": 17, "cluster_id": 1, "rank_in_cluster": 3}

>  <energy>  (63) 
-8.69

>  <cluster_rmsd>  (63) 
0.66

>  <cluster>  (63) 
1

$$$$

     RDKit          3D

 70 74  0  0  0  0  0  0  0  0999 V2000
  138.0070   80.8950  224.3970 C   0  0  0  0  0  0  0  0  0  0  0  0
  137.5770   80.0500  223.1970 C   0  0  0  0  0  0  0  0  0  0  0  0
  138.2540   80.4120  221.9580 C   0  0  0  0  0  0  0  0  0  0  0  0
  137.6690   81.2200  221.1590 O   0  0  0  0  0  0  0  0  0  0  0  0
  139.5270   79.9520  221.5310 N   0  0  0  0  0  0  0  0  0  0  0  0
  140.6150   80.2060  222.4480 C   0  0  0  0  0  0  0  0  0  0  0  0
  141.1140   79.1670  223.2170 C   0  0  0  0  0  0  0  0  0  0  0  0
  142.1600   79.3560  224.1190 C   0  0  0  0  0  0  0  0  0  0  0  0
  142.6860   80.6190  224.2200 C   0  0  0  0  0  0  0  0  0  0  0  0
  142.2060   81.6800  223.4600 C   0  0  0  0  0  0  0  0  0  0  0  0
  141.1620   81.4650  222.5700 C   0  0  0  0  0  0  0  0  0  0  0  0
  139.7870   79.2820  220.2920 C   0  0  0  0  0  0  0  0  0  0  0  0
  140.1920   77.8550  220.3930 C   0  0  0  0  0  0  0  0  0  0  0  0
  141.6740   77.6120  220.0400 C   0  0  0  0  0  0  0  0  0  0  0  0
  141.7660   77.9270  218.6330 N   0  0  0  0  0  0  0  0  0  0  0  0
  142.5200   77.2030  217.6770 C   0  0  0  0  0  0  0  0  0  0  0  0
  142.4290   77.6270  216.4770 O   0  0  0  0  0  0  0  0  0  0  0  0
  143.3660   76.0440  217.9430 C   0  0  2  0  0  0  0  0  0  0  0  0
  144.1940   75.7170  216.8680 N   0  0  0  0  0  0  0  0  0  0  0  0
  142.6250   74.8370  218.5120 C   0  0  1  0  0  0  0  0  0  0  0  0
  143.3100   73.5880  218.0120 C   0  0  0  0  0  0  0  0  0  0  0  0
  144.3580   73.2850  218.9830 C   0  0  0  0  0  0  0  0  0  0  0  0
  145.4750   72.4830  218.8720 C   0  0  0  0  0  0  0  0  0  0  0  0
  146.3090   72.3650  219.9660 C   0  0  0  0  0  0  0  0  0  0  0  0
  146.0690   73.0080  221.1410 C   0  0  0  0  0  0  0  0  0  0  0  0
  144.9300   73.8110  221.2180 C   0  0  0  0  0  0  0  0  0  0  0  0
  144.0700   73.9500  220.1340 C   0  0  0  0  0  0  0  0  0  0  0  0
  142.8100   74.7620  219.9930 C   0  0  2  0  0  0  0  0  0  0  0  0
  141.6840   74.1080  220.6950 C   0  0  0  0  0  0  0  0  0  0  0  0
  141.2670   72.8230  220.5230 C   0  0  0  0  0  0  0  0  0  0  0  0
  140.2010   72.3480  221.2590 C   0  0  0  0  0  0  0  0  0  0  0  0
  139.5500   73.1550  222.1690 C   0  0  0  0  0  0  0  0  0  0  0  0
  139.9630   74.4250  222.3380 N   0  0  0  0  0  0  0  0  0  0  0  0
  140.9970   74.8800  221.6220 C   0  0  0  0  0  0  0  0  0  0  0  0
  141.0010   79.1170  218.2070 C   0  0  0  0  0  0  0  0  0  0  0  0
  140.7500   80.0280  219.3880 C   0  0  0  0  0  0  0  0  0  0  0  0
  137.7410   80.3723  225.3276 H   0  0  0  0  0  0  0  0  0  0  0  0
  139.0951   81.0529  224.3632 H   0  0  0  0  0  0  0  0  0  0  0  0
  137.4942   81.8676  224.3632 H   0  0  0  0  0  0  0  0  0  0  0  0
  137.7960   78.9949  223.4179 H   0  0  0  0  0  0  0  0  0  0  0  0
  136.5028   80.2300  223.0431 H   0  0  0  0  0  0  0  0  0  0  0  0
  140.6724   78.1649  223.1128 H   0  0  0  0  0  0  0  0  0  0  0  0
  142.5484   78.5249  224.7260 H   0  0  0  0  0  0  0  0  0  0  0  0
  143.5125   80.7978  224.9235 H   0  0  0  0  0  0  0  0  0  0  0  0
  142.6496   82.6813  223.5630 H   0  0  0  0  0  0  0  0  0  0  0  0
  140.7729   82.2968  221.9644 H   0  0  0  0  0  0  0  0  0  0  0  0
  138.7893   79.2823  219.8287 H   0  0  0  0  0  0  0  0  0  0  0  0
  140.0193   77.5158  221.4250 H   0  0  0  0  0  0  0  0  0  0  0  0
  139.5885   77.2939  219.6643 H   0  0  0  0  0  0  0  0  0  0  0  0
  142.3276   78.2715  220.6298 H   0  0  0  0  0  0  0  0  0  0  0  0
  141.9936   76.5828  220.2604 H   0  0  0  0  0  0  0  0  0  0  0  0
  144.0296   76.3686  218.7580 H   0  0  0  0  0  0  0  0  0  0  0  0
  145.1150   75.3610  217.0810 H   0  0  0  0  0  0  0  0  0  0  0  0
  144.0380   76.0990  215.9520 H   0  0  0  0  0  0  0  0  0  0  0  0
  141.5663   74.9234  218.2261 H   0  0  0  0  0  0  0  0  0  0  0  0
  142.5923   72.7565  217.9529 H   0  0  0  0  0  0  0  0  0  0  0  0
  143.7257   73.7335  217.0040 H   0  0  0  0  0  0  0  0  0  0  0  0
  145.6958   71.9507  217.9350 H   0  0  0  0  0  0  0  0  0  0  0  0
  147.2014   71.7270  219.8847 H   0  0  0  0  0  0  0  0  0  0  0  0
  146.7483   72.8989  221.9993 H   0  0  0  0  0  0  0  0  0  0  0  0
  144.7083   74.3442  222.1542 H   0  0  0  0  0  0  0  0  0  0  0  0
  142.8616   75.7625  220.4473 H   0  0  0  0  0  0  0  0  0  0  0  0
  141.7770   72.1677  219.8016 H   0  0  0  0  0  0  0  0  0  0  0  0
  139.8651   71.3101  221.1180 H   0  0  0  0  0  0  0  0  0  0  0  0
  138.7019   72.7646  222.7507 H   0  0  0  0  0  0  0  0  0  0  0  0
  141.3199   75.9202  221.7757 H   0  0  0  0  0  0  0  0  0  0  0  0
  141.5739   79.6626  217.4427 H   0  0  0  0  0  0  0  0  0  0  0  0
  140.0350   78.7928  217.7926 H   0  0  0  0  0  0  0  0  0  0  0  0
  141.6911   80.2342  219.9188 H   0  0  0  0  0  0  0  0  0  0  0  0
  140.3369   80.9966  219.0700 H   0  0  0  0  0  0  0  0  0  0  0  0
  1  2  1  0
  2  3  1  0
  3  4  2  0
  3  5  1  0
  5  6  1  0
  6  7  2  0
  7  8  1  0
  8  9  2  0
  9 10  1  0
 10 11  2  0
  5 12  1  0
 12 13  1  0
 13 14  1  0
 14 15  1  0
 15 16  1  0
 16 17  2  0
 16 18  1  0
 18 19  1  0
 18 20  1  0
 20 21  1  0
 21 22  1  0
 22 23  2  0
 23 24  1  0
 24 25  2  0
 25 26  1  0
 26 27  2  0
 27 28  1  0
 28 29  1  0
 29 30  2  0
 30 31  1  0
 31 32  2  0
 32 33  1  0
 33 34  2  0
 15 35  1  0
 35 36  1  0
 11  6  1  0
 36 12  1  0
 28 20  1  0
 34 29  1  0
 27 22  1  0
  1 37  1  0
  1 38  1  0
  1 39  1  0
  2 40  1  0
  2 41  1  0
  7 42  1  0
  8 43  1  0
  9 44  1  0
 10 45  1  0
 11 46  1  0
 12 47  1  0
 13 48  1  0
 13 49  1  0
 14 50  1  0
 14 51  1  0
 18 52  1  1
 19 53  1  0
 19 54  1  0
 20 55  1  1
 21 56  1  0
 21 57  1  0
 23 58  1  0
 24 59  1  0
 25 60  1  0
 26 61  1  0
 28 62  1  1
 30 63  1  0
 31 64  1  0
 32 65  1  0
 34 66  1  0
 35 67  1  0
 35 68  1  0
 36 69  1  0
 36 70  1  0
M  END
>  <smiles>  (64) 
CCC(=O)N(c1ccccc1)C1CCN(C(=O)[C@H](N)C2Cc3ccccc3C2c2cccnc2)CC1

>  <score_type>  (64) 
oracle

>  <origin>  (64) 
autodockgpu

>  <m_score__min__energy>  (64) 
-9.3300000000000001

>  <m_primary>  (64) 
energy

>  <rmsd>  (64) 
7.304344181047264

>  <m_score__min__rmsd>  (64) 
7.304344181047264

>  <meeko>  (64) 
{"free_energy": -8.0, "intermolecular_energy": -10.39, "internal_energy": -3.21, "cluster_size": 10, "cluster_id": 3, "rank_in_cluster": 6}

>  <energy>  (64) 
-8.44

>  <cluster_rmsd>  (64) 
0.55

>  <cluster>  (64) 
1

$$$$

     RDKit          3D

 70 74  0  0  0  0  0  0  0  0999 V2000
  138.0470   80.8580  224.2070 C   0  0  0  0  0  0  0  0  0  0  0  0
  137.5760   80.2250  222.8960 C   0  0  0  0  0  0  0  0  0  0  0  0
  138.3740   80.6180  221.7420 C   0  0  0  0  0  0  0  0  0  0  0  0
  137.9170   81.5250  220.9670 O   0  0  0  0  0  0  0  0  0  0  0  0
  139.6380   80.0880  221.3750 N   0  0  0  0  0  0  0  0  0  0  0  0
  140.6910   80.2710  222.3480 C   0  0  0  0  0  0  0  0  0  0  0  0
  141.1870   79.1710  223.0300 C   0  0  0  0  0  0  0  0  0  0  0  0
  142.1990   79.2900  223.9800 C   0  0  0  0  0  0  0  0  0  0  0  0
  142.6950   80.5470  224.2210 C   0  0  0  0  0  0  0  0  0  0  0  0
  142.2170   81.6680  223.5510 C   0  0  0  0  0  0  0  0  0  0  0  0
  141.2080   81.5210  222.6100 C   0  0  0  0  0  0  0  0  0  0  0  0
  139.9220   79.4140  220.1440 C   0  0  0  0  0  0  0  0  0  0  0  0
  140.2930   77.9780  220.2550 C   0  0  0  0  0  0  0  0  0  0  0  0
  141.7800   77.7030  219.9480 C   0  0  0  0  0  0  0  0  0  0  0  0
  141.9220   78.0170  218.5440 N   0  0  0  0  0  0  0  0  0  0  0  0
  142.6890   77.2780  217.6110 C   0  0  0  0  0  0  0  0  0  0  0  0
  142.6460   77.7050  216.4100 O   0  0  0  0  0  0  0  0  0  0  0  0
  143.5010   76.1000  217.9010 C   0  0  2  0  0  0  0  0  0  0  0  0
  144.3390   75.7420  216.8430 N   0  0  0  0  0  0  0  0  0  0  0  0
  142.7210   74.9180  218.4680 C   0  0  1  0  0  0  0  0  0  0  0  0
  143.3770   73.6470  217.9830 C   0  0  0  0  0  0  0  0  0  0  0  0
  144.4040   73.3220  218.9690 C   0  0  0  0  0  0  0  0  0  0  0  0
  145.5000   72.4890  218.8750 C   0  0  0  0  0  0  0  0  0  0  0  0
  146.3180   72.3540  219.9790 C   0  0  0  0  0  0  0  0  0  0  0  0
  146.0820   73.0110  221.1480 C   0  0  0  0  0  0  0  0  0  0  0  0
  144.9650   73.8450  221.2060 C   0  0  0  0  0  0  0  0  0  0  0  0
  144.1220   74.0010  220.1120 C   0  0  0  0  0  0  0  0  0  0  0  0
  142.8870   74.8470  219.9520 C   0  0  2  0  0  0  0  0  0  0  0  0
  141.7350   74.2290  220.6450 C   0  0  0  0  0  0  0  0  0  0  0  0
  141.2970   72.9480  220.4910 C   0  0  0  0  0  0  0  0  0  0  0  0
  140.2080   72.5080  221.2160 C   0  0  0  0  0  0  0  0  0  0  0  0
  139.5550   73.3460  222.0950 C   0  0  0  0  0  0  0  0  0  0  0  0
  139.9880   74.6120  222.2460 N   0  0  0  0  0  0  0  0  0  0  0  0
  141.0450   75.0320  221.5420 C   0  0  0  0  0  0  0  0  0  0  0  0
  141.1970   79.2240  218.0970 C   0  0  0  0  0  0  0  0  0  0  0  0
  140.9290   80.1400  219.2710 C   0  0  0  0  0  0  0  0  0  0  0  0
  137.6294   80.2968  225.0559 H   0  0  0  0  0  0  0  0  0  0  0  0
  139.1456   80.8300  224.2538 H   0  0  0  0  0  0  0  0  0  0  0  0
  137.7045   81.9023  224.2538 H   0  0  0  0  0  0  0  0  0  0  0  0
  137.6278   79.1311  222.9991 H   0  0  0  0  0  0  0  0  0  0  0  0
  136.5501   80.5786  222.7159 H   0  0  0  0  0  0  0  0  0  0  0  0
  140.7698   78.1761  222.8151 H   0  0  0  0  0  0  0  0  0  0  0  0
  142.5856   78.4108  224.5162 H   0  0  0  0  0  0  0  0  0  0  0  0
  143.4944   80.6714  224.9663 H   0  0  0  0  0  0  0  0  0  0  0  0
  142.6352   82.6626  223.7652 H   0  0  0  0  0  0  0  0  0  0  0  0
  140.8216   82.4006  222.0743 H   0  0  0  0  0  0  0  0  0  0  0  0
  138.9393   79.4366  219.6502 H   0  0  0  0  0  0  0  0  0  0  0  0
  140.0808   77.6415  221.2805 H   0  0  0  0  0  0  0  0  0  0  0  0
  139.7007   77.4311  219.5066 H   0  0  0  0  0  0  0  0  0  0  0  0
  142.4291   78.3479  220.5585 H   0  0  0  0  0  0  0  0  0  0  0  0
  142.0705   76.6671  220.1772 H   0  0  0  0  0  0  0  0  0  0  0  0
  144.1590   76.4157  218.7240 H   0  0  0  0  0  0  0  0  0  0  0  0
  145.2230   75.3120  217.0730 H   0  0  0  0  0  0  0  0  0  0  0  0
  144.2430   76.1620  215.9350 H   0  0  0  0  0  0  0  0  0  0  0  0
  141.6684   75.0317  218.1693 H   0  0  0  0  0  0  0  0  0  0  0  0
  142.6373   72.8353  217.9199 H   0  0  0  0  0  0  0  0  0  0  0  0
  143.8084   73.7742  216.9791 H   0  0  0  0  0  0  0  0  0  0  0  0
  145.7167   71.9458  217.9433 H   0  0  0  0  0  0  0  0  0  0  0  0
  147.1931   71.6909  219.9117 H   0  0  0  0  0  0  0  0  0  0  0  0
  146.7477   72.8887  222.0151 H   0  0  0  0  0  0  0  0  0  0  0  0
  144.7471   74.3901  222.1363 H   0  0  0  0  0  0  0  0  0  0  0  0
  142.9614   75.8484  220.4011 H   0  0  0  0  0  0  0  0  0  0  0  0
  141.8082   72.2686  219.7931 H   0  0  0  0  0  0  0  0  0  0  0  0
  139.8558   71.4735  221.0907 H   0  0  0  0  0  0  0  0  0  0  0  0
  138.6884   72.9837  222.6675 H   0  0  0  0  0  0  0  0  0  0  0  0
  141.3852   76.0687  221.6815 H   0  0  0  0  0  0  0  0  0  0  0  0
  141.8053   79.7576  217.3518 H   0  0  0  0  0  0  0  0  0  0  0  0
  140.2373   78.9212  217.6528 H   0  0  0  0  0  0  0  0  0  0  0  0
  141.8573   80.3256  219.8311 H   0  0  0  0  0  0  0  0  0  0  0  0
  140.5471   81.1175  218.9414 H   0  0  0  0  0  0  0  0  0  0  0  0
  1  2  1  0
  2  3  1  0
  3  4  2  0
  3  5  1  0
  5  6  1  0
  6  7  2  0
  7  8  1  0
  8  9  2  0
  9 10  1  0
 10 11  2  0
  5 12  1  0
 12 13  1  0
 13 14  1  0
 14 15  1  0
 15 16  1  0
 16 17  2  0
 16 18  1  0
 18 19  1  0
 18 20  1  0
 20 21  1  0
 21 22  1  0
 22 23  2  0
 23 24  1  0
 24 25  2  0
 25 26  1  0
 26 27  2  0
 27 28  1  0
 28 29  1  0
 29 30  2  0
 30 31  1  0
 31 32  2  0
 32 33  1  0
 33 34  2  0
 15 35  1  0
 35 36  1  0
 11  6  1  0
 36 12  1  0
 28 20  1  0
 34 29  1  0
 27 22  1  0
  1 37  1  0
  1 38  1  0
  1 39  1  0
  2 40  1  0
  2 41  1  0
  7 42  1  0
  8 43  1  0
  9 44  1  0
 10 45  1  0
 11 46  1  0
 12 47  1  0
 13 48  1  0
 13 49  1  0
 14 50  1  0
 14 51  1  0
 18 52  1  1
 19 53  1  0
 19 54  1  0
 20 55  1  1
 21 56  1  0
 21 57  1  0
 23 58  1  0
 24 59  1  0
 25 60  1  0
 26 61  1  0
 28 62  1  1
 30 63  1  0
 31 64  1  0
 32 65  1  0
 34 66  1  0
 35 67  1  0
 35 68  1  0
 36 69  1  0
 36 70  1  0
M  END
>  <smiles>  (65) 
CCC(=O)N(c1ccccc1)C1CCN(C(=O)[C@H](N)C2Cc3ccccc3C2c2cccnc2)CC1

>  <score_type>  (65) 
oracle

>  <origin>  (65) 
autodockgpu

>  <m_score__min__energy>  (65) 
-9.3300000000000001

>  <m_primary>  (65) 
energy

>  <rmsd>  (65) 
7.3253361871847575

>  <m_score__min__rmsd>  (65) 
7.3253361871847575

>  <meeko>  (65) 
{"free_energy": -8.05, "intermolecular_energy": -10.44, "internal_energy": -3.19, "cluster_size": 10, "cluster_id": 3, "rank_in_cluster": 5}

>  <energy>  (65) 
-8.4

>  <cluster_rmsd>  (65) 
0.69

>  <cluster>  (65) 
1

$$$$

     RDKit          3D

 70 74  0  0  0  0  0  0  0  0999 V2000
  137.3110   81.6060  225.7040 C   0  0  0  0  0  0  0  0  0  0  0  0
  136.8480   81.0510  224.3550 C   0  0  0  0  0  0  0  0  0  0  0  0
  137.8750   81.1020  223.3230 C   0  0  0  0  0  0  0  0  0  0  0  0
  138.1410   82.2300  222.7850 O   0  0  0  0  0  0  0  0  0  0  0  0
  138.6320   80.0050  222.8350 N   0  0  0  0  0  0  0  0  0  0  0  0
  140.0670   80.1630  222.9100 C   0  0  0  0  0  0  0  0  0  0  0  0
  140.7050   81.0120  222.0210 C   0  0  0  0  0  0  0  0  0  0  0  0
  142.0860   81.2010  222.0470 C   0  0  0  0  0  0  0  0  0  0  0  0
  142.8000   80.5090  222.9930 C   0  0  0  0  0  0  0  0  0  0  0  0
  142.1860   79.6510  223.8980 C   0  0  0  0  0  0  0  0  0  0  0  0
  140.8080   79.4810  223.8510 C   0  0  0  0  0  0  0  0  0  0  0  0
  138.0800   78.8010  222.2910 C   0  0  0  0  0  0  0  0  0  0  0  0
  138.4330   77.5410  222.9980 C   0  0  0  0  0  0  0  0  0  0  0  0
  139.3980   76.6400  222.2010 C   0  0  0  0  0  0  0  0  0  0  0  0
  138.6320   76.2200  221.0500 N   0  0  0  0  0  0  0  0  0  0  0  0
  138.6430   74.9200  220.4870 C   0  0  0  0  0  0  0  0  0  0  0  0
  137.8590   74.7490  219.4950 O   0  0  0  0  0  0  0  0  0  0  0  0
  139.4530   73.7910  220.9350 C   0  0  2  0  0  0  0  0  0  0  0  0
  139.6130   73.7530  222.3220 N   0  0  0  0  0  0  0  0  0  0  0  0
  140.7670   73.6170  220.1800 C   0  0  1  0  0  0  0  0  0  0  0  0
  140.6030   74.2260  218.8070 C   0  0  0  0  0  0  0  0  0  0  0  0
  140.9760   75.6320  218.9420 C   0  0  0  0  0  0  0  0  0  0  0  0
  140.7070   76.7100  218.1240 C   0  0  0  0  0  0  0  0  0  0  0  0
  141.1940   77.9480  218.4900 C   0  0  0  0  0  0  0  0  0  0  0  0
  141.9250   78.1410  219.6230 C   0  0  0  0  0  0  0  0  0  0  0  0
  142.1780   77.0280  220.4260 C   0  0  0  0  0  0  0  0  0  0  0  0
  141.7010   75.7680  220.0850 C   0  0  0  0  0  0  0  0  0  0  0  0
  141.8410   74.4500  220.8000 C   0  0  2  0  0  0  0  0  0  0  0  0
  143.1990   73.8950  220.6140 C   0  0  0  0  0  0  0  0  0  0  0  0
  144.3510   74.6120  220.4900 C   0  0  0  0  0  0  0  0  0  0  0  0
  145.5520   73.9500  220.3290 C   0  0  0  0  0  0  0  0  0  0  0  0
  145.6040   72.5730  220.2920 C   0  0  0  0  0  0  0  0  0  0  0  0
  144.4650   71.8650  220.4150 N   0  0  0  0  0  0  0  0  0  0  0  0
  143.3050   72.5110  220.5710 C   0  0  0  0  0  0  0  0  0  0  0  0
  137.7920   77.2700  220.4400 C   0  0  0  0  0  0  0  0  0  0  0  0
  138.3220   78.6410  220.8020 C   0  0  0  0  0  0  0  0  0  0  0  0
  136.8363   81.0370  226.5170 H   0  0  0  0  0  0  0  0  0  0  0  0
  138.4044   81.5146  225.7823 H   0  0  0  0  0  0  0  0  0  0  0  0
  137.0251   82.6653  225.7823 H   0  0  0  0  0  0  0  0  0  0  0  0
  136.5464   80.0024  224.4948 H   0  0  0  0  0  0  0  0  0  0  0  0
  136.0145   81.6825  224.0139 H   0  0  0  0  0  0  0  0  0  0  0  0
  140.1054   81.5522  221.2736 H   0  0  0  0  0  0  0  0  0  0  0  0
  142.5838   81.8781  221.3372 H   0  0  0  0  0  0  0  0  0  0  0  0
  143.8916   80.6373  223.0364 H   0  0  0  0  0  0  0  0  0  0  0  0
  142.7862   79.1111  224.6452 H   0  0  0  0  0  0  0  0  0  0  0  0
  140.3104   78.8049  224.5618 H   0  0  0  0  0  0  0  0  0  0  0  0
  137.0047   78.9547  222.4645 H   0  0  0  0  0  0  0  0  0  0  0  0
  138.9087   77.8001  223.9554 H   0  0  0  0  0  0  0  0  0  0  0  0
  137.5003   76.9746  223.1364 H   0  0  0  0  0  0  0  0  0  0  0  0
  140.2896   77.2042  221.8901 H   0  0  0  0  0  0  0  0  0  0  0  0
  139.7625   75.7887  222.7947 H   0  0  0  0  0  0  0  0  0  0  0  0
  138.8615   72.9033  220.6664 H   0  0  0  0  0  0  0  0  0  0  0  0
  140.5160   73.4760  222.6790 H   0  0  0  0  0  0  0  0  0  0  0  0
  138.8220   73.6830  222.9380 H   0  0  0  0  0  0  0  0  0  0  0  0
  141.0172   72.5458  220.1787 H   0  0  0  0  0  0  0  0  0  0  0  0
  141.2630   73.7233  218.0848 H   0  0  0  0  0  0  0  0  0  0  0  0
  139.5723   74.1166  218.4386 H   0  0  0  0  0  0  0  0  0  0  0  0
  140.1188   76.5856  217.2028 H   0  0  0  0  0  0  0  0  0  0  0  0
  140.9839   78.8119  217.8422 H   0  0  0  0  0  0  0  0  0  0  0  0
  142.3022   79.1378  219.8951 H   0  0  0  0  0  0  0  0  0  0  0  0
  142.7666   77.1505  221.3471 H   0  0  0  0  0  0  0  0  0  0  0  0
  141.7265   74.5121  221.8923 H   0  0  0  0  0  0  0  0  0  0  0  0
  144.3244   75.7113  220.5180 H   0  0  0  0  0  0  0  0  0  0  0  0
  146.4812   74.5301  220.2287 H   0  0  0  0  0  0  0  0  0  0  0  0
  146.5670   72.0572  220.1632 H   0  0  0  0  0  0  0  0  0  0  0  0
  142.3860   71.9148  220.6706 H   0  0  0  0  0  0  0  0  0  0  0  0
  137.8026   77.1537  219.3462 H   0  0  0  0  0  0  0  0  0  0  0  0
  136.7639   77.1716  220.8187 H   0  0  0  0  0  0  0  0  0  0  0  0
  139.3974   78.7063  220.5800 H   0  0  0  0  0  0  0  0  0  0  0  0
  137.8220   79.4325  220.2244 H   0  0  0  0  0  0  0  0  0  0  0  0
  1  2  1  0
  2  3  1  0
  3  4  2  0
  3  5  1  0
  5  6  1  0
  6  7  2  0
  7  8  1  0
  8  9  2  0
  9 10  1  0
 10 11  2  0
  5 12  1  0
 12 13  1  0
 13 14  1  0
 14 15  1  0
 15 16  1  0
 16 17  2  0
 16 18  1  0
 18 19  1  0
 18 20  1  0
 20 21  1  0
 21 22  1  0
 22 23  2  0
 23 24  1  0
 24 25  2  0
 25 26  1  0
 26 27  2  0
 27 28  1  0
 28 29  1  0
 29 30  2  0
 30 31  1  0
 31 32  2  0
 32 33  1  0
 33 34  2  0
 15 35  1  0
 35 36  1  0
 11  6  1  0
 36 12  1  0
 28 20  1  0
 34 29  1  0
 27 22  1  0
  1 37  1  0
  1 38  1  0
  1 39  1  0
  2 40  1  0
  2 41  1  0
  7 42  1  0
  8 43  1  0
  9 44  1  0
 10 45  1  0
 11 46  1  0
 12 47  1  0
 13 48  1  0
 13 49  1  0
 14 50  1  0
 14 51  1  0
 18 52  1  6
 19 53  1  0
 19 54  1  0
 20 55  1  6
 21 56  1  0
 21 57  1  0
 23 58  1  0
 24 59  1  0
 25 60  1  0
 26 61  1  0
 28 62  1  1
 30 63  1  0
 31 64  1  0
 32 65  1  0
 34 66  1  0
 35 67  1  0
 35 68  1  0
 36 69  1  0
 36 70  1  0
M  END
>  <smiles>  (66) 
CCC(=O)N(c1ccccc1)C1CCN(C(=O)[C@H](N)C2Cc3ccccc3C2c2cccnc2)CC1

>  <score_type>  (66) 
oracle

>  <origin>  (66) 
autodockgpu

>  <m_score__min__energy>  (66) 
-9.3300000000000001

>  <m_primary>  (66) 
energy

>  <rmsd>  (66) 
5.9869531887519285

>  <m_score__min__rmsd>  (66) 
5.9869531887519285

>  <meeko>  (66) 
{"free_energy": -7.58, "intermolecular_energy": -9.97, "internal_energy": -3.33, "cluster_size": 15, "cluster_id": 5, "rank_in_cluster": 11}

>  <energy>  (66) 
-8.4

>  <cluster_rmsd>  (66) 
0.88

>  <cluster>  (66) 
1

$$$$

     RDKit          3D

 70 74  0  0  0  0  0  0  0  0999 V2000
  136.7750   70.6680  224.2210 C   0  0  0  0  0  0  0  0  0  0  0  0
  137.1660   69.2030  224.0190 C   0  0  0  0  0  0  0  0  0  0  0  0
  138.5350   68.9070  224.4190 C   0  0  0  0  0  0  0  0  0  0  0  0
  138.8290   67.7050  224.7410 O   0  0  0  0  0  0  0  0  0  0  0  0
  139.6080   69.8330  224.4920 N   0  0  0  0  0  0  0  0  0  0  0  0
  140.1190   70.0820  225.8210 C   0  0  0  0  0  0  0  0  0  0  0  0
  140.1690   71.3820  226.2990 C   0  0  0  0  0  0  0  0  0  0  0  0
  140.6530   71.6790  227.5710 C   0  0  0  0  0  0  0  0  0  0  0  0
  141.0840   70.6310  228.3450 C   0  0  0  0  0  0  0  0  0  0  0  0
  141.0450   69.3170  227.8920 C   0  0  0  0  0  0  0  0  0  0  0  0
  140.5580   69.0480  226.6190 C   0  0  0  0  0  0  0  0  0  0  0  0
  140.1880   70.5110  223.3720 C   0  0  0  0  0  0  0  0  0  0  0  0
  140.4360   71.9670  223.5470 C   0  0  0  0  0  0  0  0  0  0  0  0
  139.4880   72.8550  222.7140 C   0  0  0  0  0  0  0  0  0  0  0  0
  139.8470   72.5770  221.3420 N   0  0  0  0  0  0  0  0  0  0  0  0
  139.9380   73.5400  220.3070 C   0  0  0  0  0  0  0  0  0  0  0  0
  140.3120   73.0870  219.1740 O   0  0  0  0  0  0  0  0  0  0  0  0
  139.6480   74.9650  220.4250 C   0  0  2  0  0  0  0  0  0  0  0  0
  139.2560   75.5430  219.2150 N   0  0  0  0  0  0  0  0  0  0  0  0
  140.7230   75.7710  221.1480 C   0  0  1  0  0  0  0  0  0  0  0  0
  142.0680   75.1840  220.7920 C   0  0  0  0  0  0  0  0  0  0  0  0
  142.5010   75.8720  219.5790 C   0  0  0  0  0  0  0  0  0  0  0  0
  143.4580   75.5260  218.6490 C   0  0  0  0  0  0  0  0  0  0  0  0
  143.6760   76.3760  217.5830 C   0  0  0  0  0  0  0  0  0  0  0  0
  142.9820   77.5360  217.4200 C   0  0  0  0  0  0  0  0  0  0  0  0
  142.0210   77.8540  218.3810 C   0  0  0  0  0  0  0  0  0  0  0  0
  141.7790   77.0190  219.4650 C   0  0  0  0  0  0  0  0  0  0  0  0
  140.7960   77.1580  220.5970 C   0  0  2  0  0  0  0  0  0  0  0  0
  141.2650   78.1590  221.5790 C   0  0  0  0  0  0  0  0  0  0  0  0
  141.8410   79.3600  221.2920 C   0  0  0  0  0  0  0  0  0  0  0  0
  142.2220   80.1960  222.3210 C   0  0  0  0  0  0  0  0  0  0  0  0
  142.0300   79.8360  223.6380 C   0  0  0  0  0  0  0  0  0  0  0  0
  141.4610   78.6490  223.9210 N   0  0  0  0  0  0  0  0  0  0  0  0
  141.0920   77.8430  222.9200 C   0  0  0  0  0  0  0  0  0  0  0  0
  140.1230   71.1570  221.0430 C   0  0  0  0  0  0  0  0  0  0  0  0
  139.4540   70.2670  222.0670 C   0  0  0  0  0  0  0  0  0  0  0  0
  136.7166   70.8868  225.2974 H   0  0  0  0  0  0  0  0  0  0  0  0
  137.5314   71.3169  223.7554 H   0  0  0  0  0  0  0  0  0  0  0  0
  135.7958   70.8537  223.7554 H   0  0  0  0  0  0  0  0  0  0  0  0
  136.4859   68.5758  224.6141 H   0  0  0  0  0  0  0  0  0  0  0  0
  137.0910   68.9935  222.9417 H   0  0  0  0  0  0  0  0  0  0  0  0
  139.8167   72.2020  225.6560 H   0  0  0  0  0  0  0  0  0  0  0  0
  140.6884   72.7143  227.9410 H   0  0  0  0  0  0  0  0  0  0  0  0
  141.4718   70.8365  229.3536 H   0  0  0  0  0  0  0  0  0  0  0  0
  141.3967   68.4975  228.5360 H   0  0  0  0  0  0  0  0  0  0  0  0
  140.5230   68.0126  226.2492 H   0  0  0  0  0  0  0  0  0  0  0  0
  141.1795   70.0378  223.3177 H   0  0  0  0  0  0  0  0  0  0  0  0
  140.3044   72.2178  224.6099 H   0  0  0  0  0  0  0  0  0  0  0  0
  141.4593   72.1664  223.1962 H   0  0  0  0  0  0  0  0  0  0  0  0
  138.4379   72.5877  222.9033 H   0  0  0  0  0  0  0  0  0  0  0  0
  139.5850   73.9217  222.9646 H   0  0  0  0  0  0  0  0  0  0  0  0
  138.7730   75.0138  221.0898 H   0  0  0  0  0  0  0  0  0  0  0  0
  138.5590   76.2730  219.2520 H   0  0  0  0  0  0  0  0  0  0  0  0
  139.3950   75.0700  218.3400 H   0  0  0  0  0  0  0  0  0  0  0  0
  140.4888   75.7598  222.2227 H   0  0  0  0  0  0  0  0  0  0  0  0
  142.7874   75.3561  221.6062 H   0  0  0  0  0  0  0  0  0  0  0  0
  142.0040   74.0969  220.6367 H   0  0  0  0  0  0  0  0  0  0  0  0
  144.0342   74.5949  218.7537 H   0  0  0  0  0  0  0  0  0  0  0  0
  144.4387   76.1060  216.8377 H   0  0  0  0  0  0  0  0  0  0  0  0
  143.1717   78.1983  216.5624 H   0  0  0  0  0  0  0  0  0  0  0  0
  141.4435   78.7845  218.2781 H   0  0  0  0  0  0  0  0  0  0  0  0
  139.8050   77.5276  220.2947 H   0  0  0  0  0  0  0  0  0  0  0  0
  142.0012   79.6611  220.2462 H   0  0  0  0  0  0  0  0  0  0  0  0
  142.6864   81.1653  222.0871 H   0  0  0  0  0  0  0  0  0  0  0  0
  142.3386   80.5117  224.4493 H   0  0  0  0  0  0  0  0  0  0  0  0
  140.6268   76.8786  223.1721 H   0  0  0  0  0  0  0  0  0  0  0  0
  139.7354   70.9145  220.0425 H   0  0  0  0  0  0  0  0  0  0  0  0
  141.2095   70.9882  221.0764 H   0  0  0  0  0  0  0  0  0  0  0  0
  138.3917   70.5333  222.1698 H   0  0  0  0  0  0  0  0  0  0  0  0
  139.4963   69.2083  221.7714 H   0  0  0  0  0  0  0  0  0  0  0  0
  1  2  1  0
  2  3  1  0
  3  4  2  0
  3  5  1  0
  5  6  1  0
  6  7  2  0
  7  8  1  0
  8  9  2  0
  9 10  1  0
 10 11  2  0
  5 12  1  0
 12 13  1  0
 13 14  1  0
 14 15  1  0
 15 16  1  0
 16 17  2  0
 16 18  1  0
 18 19  1  0
 18 20  1  0
 20 21  1  0
 21 22  1  0
 22 23  2  0
 23 24  1  0
 24 25  2  0
 25 26  1  0
 26 27  2  0
 27 28  1  0
 28 29  1  0
 29 30  2  0
 30 31  1  0
 31 32  2  0
 32 33  1  0
 33 34  2  0
 15 35  1  0
 35 36  1  0
 11  6  1  0
 36 12  1  0
 28 20  1  0
 34 29  1  0
 27 22  1  0
  1 37  1  0
  1 38  1  0
  1 39  1  0
  2 40  1  0
  2 41  1  0
  7 42  1  0
  8 43  1  0
  9 44  1  0
 10 45  1  0
 11 46  1  0
 12 47  1  0
 13 48  1  0
 13 49  1  0
 14 50  1  0
 14 51  1  0
 18 52  1  1
 19 53  1  0
 19 54  1  0
 20 55  1  1
 21 56  1  0
 21 57  1  0
 23 58  1  0
 24 59  1  0
 25 60  1  0
 26 61  1  0
 28 62  1  6
 30 63  1  0
 31 64  1  0
 32 65  1  0
 34 66  1  0
 35 67  1  0
 35 68  1  0
 36 69  1  0
 36 70  1  0
M  END
>  <smiles>  (67) 
CCC(=O)N(c1ccccc1)C1CCN(C(=O)[C@H](N)C2Cc3ccccc3C2c2cccnc2)CC1

>  <score_type>  (67) 
oracle

>  <origin>  (67) 
autodockgpu

>  <m_score__min__energy>  (67) 
-9.3300000000000001

>  <m_primary>  (67) 
energy

>  <rmsd>  (67) 
7.073899247449338

>  <m_score__min__rmsd>  (67) 
7.073899247449338

>  <meeko>  (67) 
{"free_energy": -8.36, "intermolecular_energy": -10.75, "internal_energy": -2.49, "cluster_size": 5, "cluster_id": 2, "rank_in_cluster": 2}

>  <energy>  (67) 
-8.13

>  <cluster_rmsd>  (67) 
1.84

>  <cluster>  (67) 
1

$$$$

     RDKit          3D

 70 74  0  0  0  0  0  0  0  0999 V2000
  143.4590   80.7580  223.8420 C   0  0  0  0  0  0  0  0  0  0  0  0
  142.1000   80.0560  223.8250 C   0  0  0  0  0  0  0  0  0  0  0  0
  141.1030   80.7410  223.0120 C   0  0  0  0  0  0  0  0  0  0  0  0
  141.1800   82.0120  222.8990 O   0  0  0  0  0  0  0  0  0  0  0  0
  140.0270   80.1350  222.3130 N   0  0  0  0  0  0  0  0  0  0  0  0
  138.7520   80.1710  222.9920 C   0  0  0  0  0  0  0  0  0  0  0  0
  137.6950   79.4230  222.4970 C   0  0  0  0  0  0  0  0  0  0  0  0
  136.4440   79.4230  223.1100 C   0  0  0  0  0  0  0  0  0  0  0  0
  136.2900   80.1950  224.2340 C   0  0  0  0  0  0  0  0  0  0  0  0
  137.3330   80.9550  224.7530 C   0  0  0  0  0  0  0  0  0  0  0  0
  138.5700   80.9380  224.1220 C   0  0  0  0  0  0  0  0  0  0  0  0
  140.1280   79.5090  221.0290 C   0  0  0  0  0  0  0  0  0  0  0  0
  140.4980   78.0690  221.0300 C   0  0  0  0  0  0  0  0  0  0  0  0
  141.9240   77.8020  220.5050 C   0  0  0  0  0  0  0  0  0  0  0  0
  141.8690   78.1710  219.1090 N   0  0  0  0  0  0  0  0  0  0  0  0
  142.4900   77.4670  218.0480 C   0  0  0  0  0  0  0  0  0  0  0  0
  142.2810   77.9420  216.8830 O   0  0  0  0  0  0  0  0  0  0  0  0
  143.3240   76.2760  218.1740 C   0  0  2  0  0  0  0  0  0  0  0  0
  144.0710   76.0110  217.0250 N   0  0  0  0  0  0  0  0  0  0  0  0
  142.5950   75.0470  218.7070 C   0  0  1  0  0  0  0  0  0  0  0  0
  143.2260   73.8220  218.0870 C   0  0  0  0  0  0  0  0  0  0  0  0
  144.3220   73.4400  218.9730 C   0  0  0  0  0  0  0  0  0  0  0  0
  145.4150   72.6300  218.7430 C   0  0  0  0  0  0  0  0  0  0  0  0
  146.3090   72.4270  219.7750 C   0  0  0  0  0  0  0  0  0  0  0  0
  146.1500   72.9960  221.0020 C   0  0  0  0  0  0  0  0  0  0  0  0
  145.0330   73.8090  221.1980 C   0  0  0  0  0  0  0  0  0  0  0  0
  144.1150   74.0330  220.1790 C   0  0  0  0  0  0  0  0  0  0  0  0
  142.8640   74.8710  220.1660 C   0  0  2  0  0  0  0  0  0  0  0  0
  141.7690   74.1900  220.8900 C   0  0  0  0  0  0  0  0  0  0  0  0
  141.5620   72.8450  220.9540 C   0  0  0  0  0  0  0  0  0  0  0  0
  140.4960   72.3530  221.6800 C   0  0  0  0  0  0  0  0  0  0  0  0
  139.6350   73.2030  222.3420 C   0  0  0  0  0  0  0  0  0  0  0  0
  139.8400   74.5320  222.2770 N   0  0  0  0  0  0  0  0  0  0  0  0
  140.8760   75.0030  221.5740 C   0  0  0  0  0  0  0  0  0  0  0  0
  141.0990   79.3970  218.8160 C   0  0  0  0  0  0  0  0  0  0  0  0
  141.0080   80.2660  220.0520 C   0  0  0  0  0  0  0  0  0  0  0  0
  143.7745   80.9210  224.8831 H   0  0  0  0  0  0  0  0  0  0  0  0
  144.2021   80.1309  223.3276 H   0  0  0  0  0  0  0  0  0  0  0  0
  143.3777   81.7269  223.3276 H   0  0  0  0  0  0  0  0  0  0  0  0
  142.2375   79.0405  223.4253 H   0  0  0  0  0  0  0  0  0  0  0  0
  141.7257   80.0495  224.8593 H   0  0  0  0  0  0  0  0  0  0  0  0
  137.8484   78.8124  221.5950 H   0  0  0  0  0  0  0  0  0  0  0  0
  135.6114   78.8269  222.7083 H   0  0  0  0  0  0  0  0  0  0  0  0
  135.3131   80.2134  224.7393 H   0  0  0  0  0  0  0  0  0  0  0  0
  137.1793   81.5644  225.6558 H   0  0  0  0  0  0  0  0  0  0  0  0
  139.4021   81.5352  224.5232 H   0  0  0  0  0  0  0  0  0  0  0  0
  139.0856   79.5536  220.6807 H   0  0  0  0  0  0  0  0  0  0  0  0
  140.4300   77.6923  222.0612 H   0  0  0  0  0  0  0  0  0  0  0  0
  139.8010   77.5543  220.3523 H   0  0  0  0  0  0  0  0  0  0  0  0
  142.6584   78.4201  221.0422 H   0  0  0  0  0  0  0  0  0  0  0  0
  142.2349   76.7569  220.6501 H   0  0  0  0  0  0  0  0  0  0  0  0
  144.0481   76.5289  218.9625 H   0  0  0  0  0  0  0  0  0  0  0  0
  144.9840   75.5970  217.1480 H   0  0  0  0  0  0  0  0  0  0  0  0
  143.8820   76.4820  216.1570 H   0  0  0  0  0  0  0  0  0  0  0  0
  141.5234   75.1692  218.4910 H   0  0  0  0  0  0  0  0  0  0  0  0
  142.4901   73.0074  218.0166 H   0  0  0  0  0  0  0  0  0  0  0  0
  143.5853   74.0267  217.0677 H   0  0  0  0  0  0  0  0  0  0  0  0
  145.5701   72.1577  217.7617 H   0  0  0  0  0  0  0  0  0  0  0  0
  147.1824   71.7816  219.5997 H   0  0  0  0  0  0  0  0  0  0  0  0
  146.8760   72.8210  221.8096 H   0  0  0  0  0  0  0  0  0  0  0  0
  144.8760   74.2820  222.1786 H   0  0  0  0  0  0  0  0  0  0  0  0
  142.9605   75.8384  220.6806 H   0  0  0  0  0  0  0  0  0  0  0  0
  142.2402   72.1552  220.4303 H   0  0  0  0  0  0  0  0  0  0  0  0
  140.3308   71.2667  221.7313 H   0  0  0  0  0  0  0  0  0  0  0  0
  138.7890   72.7990  222.9175 H   0  0  0  0  0  0  0  0  0  0  0  0
  141.0282   76.0918  221.5360 H   0  0  0  0  0  0  0  0  0  0  0  0
  141.6007   79.9580  218.0137 H   0  0  0  0  0  0  0  0  0  0  0  0
  140.0836   79.1158  218.4998 H   0  0  0  0  0  0  0  0  0  0  0  0
  142.0078   80.4255  220.4820 H   0  0  0  0  0  0  0  0  0  0  0  0
  140.5924   81.2574  219.8188 H   0  0  0  0  0  0  0  0  0  0  0  0
  1  2  1  0
  2  3  1  0
  3  4  2  0
  3  5  1  0
  5  6  1  0
  6  7  2  0
  7  8  1  0
  8  9  2  0
  9 10  1  0
 10 11  2  0
  5 12  1  0
 12 13  1  0
 13 14  1  0
 14 15  1  0
 15 16  1  0
 16 17  2  0
 16 18  1  0
 18 19  1  0
 18 20  1  0
 20 21  1  0
 21 22  1  0
 22 23  2  0
 23 24  1  0
 24 25  2  0
 25 26  1  0
 26 27  2  0
 27 28  1  0
 28 29  1  0
 29 30  2  0
 30 31  1  0
 31 32  2  0
 32 33  1  0
 33 34  2  0
 15 35  1  0
 35 36  1  0
 11  6  1  0
 36 12  1  0
 28 20  1  0
 34 29  1  0
 27 22  1  0
  1 37  1  0
  1 38  1  0
  1 39  1  0
  2 40  1  0
  2 41  1  0
  7 42  1  0
  8 43  1  0
  9 44  1  0
 10 45  1  0
 11 46  1  0
 12 47  1  0
 13 48  1  0
 13 49  1  0
 14 50  1  0
 14 51  1  0
 18 52  1  1
 19 53  1  0
 19 54  1  0
 20 55  1  1
 21 56  1  0
 21 57  1  0
 23 58  1  0
 24 59  1  0
 25 60  1  0
 26 61  1  0
 28 62  1  1
 30 63  1  0
 31 64  1  0
 32 65  1  0
 34 66  1  0
 35 67  1  0
 35 68  1  0
 36 69  1  0
 36 70  1  0
M  END
>  <smiles>  (68) 
CCC(=O)N(c1ccccc1)C1CCN(C(=O)[C@H](N)C2Cc3ccccc3C2c2cccnc2)CC1

>  <score_type>  (68) 
oracle

>  <origin>  (68) 
autodockgpu

>  <m_score__min__energy>  (68) 
-9.3300000000000001

>  <m_primary>  (68) 
energy

>  <rmsd>  (68) 
7.271704266980527

>  <m_score__min__rmsd>  (68) 
7.271704266980527

>  <meeko>  (68) 
{"free_energy": -8.19, "intermolecular_energy": -10.58, "internal_energy": -2.98, "cluster_size": 10, "cluster_id": 3, "rank_in_cluster": 3}

>  <energy>  (68) 
-9.1

>  <cluster_rmsd>  (68) 
0.0

>  <cluster>  (68) 
2

$$$$

     RDKit          3D

 70 74  0  0  0  0  0  0  0  0999 V2000
  145.9680   74.1190  221.1550 C   0  0  0  0  0  0  0  0  0  0  0  0
  146.2650   72.7200  220.6110 C   0  0  0  0  0  0  0  0  0  0  0  0
  145.5380   72.4060  219.3880 C   0  0  0  0  0  0  0  0  0  0  0  0
  145.9460   72.9180  218.2900 O   0  0  0  0  0  0  0  0  0  0  0  0
  144.3950   71.5720  219.2810 N   0  0  0  0  0  0  0  0  0  0  0  0
  144.6710   70.1760  219.0260 C   0  0  0  0  0  0  0  0  0  0  0  0
  145.5510   69.8300  218.0130 C   0  0  0  0  0  0  0  0  0  0  0  0
  145.8520   68.5000  217.7230 C   0  0  0  0  0  0  0  0  0  0  0  0
  145.2420   67.5340  218.4830 C   0  0  0  0  0  0  0  0  0  0  0  0
  144.3560   67.8530  219.5060 C   0  0  0  0  0  0  0  0  0  0  0  0
  144.0730   69.1850  219.7740 C   0  0  0  0  0  0  0  0  0  0  0  0
  143.0380   72.0150  219.3990 C   0  0  0  0  0  0  0  0  0  0  0  0
  142.8240   73.4850  219.3540 C   0  0  0  0  0  0  0  0  0  0  0  0
  142.4130   74.0870  220.7140 C   0  0  0  0  0  0  0  0  0  0  0  0
  141.1060   73.5280  220.9750 N   0  0  0  0  0  0  0  0  0  0  0  0
  140.0090   74.2300  221.5320 C   0  0  0  0  0  0  0  0  0  0  0  0
  138.9310   73.5580  221.6410 O   0  0  0  0  0  0  0  0  0  0  0  0
  140.0100   75.6200  221.9770 C   0  0  2  0  0  0  0  0  0  0  0  0
  138.9540   75.9150  222.8420 N   0  0  0  0  0  0  0  0  0  0  0  0
  140.1650   76.6430  220.8560 C   0  0  1  0  0  0  0  0  0  0  0  0
  139.2990   77.8360  221.1880 C   0  0  0  0  0  0  0  0  0  0  0  0
  140.1320   78.7280  221.9900 C   0  0  0  0  0  0  0  0  0  0  0  0
  139.7800   79.7690  222.8240 C   0  0  0  0  0  0  0  0  0  0  0  0
  140.7850   80.4650  223.4660 C   0  0  0  0  0  0  0  0  0  0  0  0
  142.1020   80.1590  223.3060 C   0  0  0  0  0  0  0  0  0  0  0  0
  142.4210   79.1000  222.4550 C   0  0  0  0  0  0  0  0  0  0  0  0
  141.4320   78.3810  221.7940 C   0  0  0  0  0  0  0  0  0  0  0  0
  141.5480   77.2110  220.8540 C   0  0  2  0  0  0  0  0  0  0  0  0
  142.0000   77.6540  219.5180 C   0  0  0  0  0  0  0  0  0  0  0  0
  141.8200   78.8920  218.9780 C   0  0  0  0  0  0  0  0  0  0  0  0
  142.3090   79.1620  217.7160 C   0  0  0  0  0  0  0  0  0  0  0  0
  142.9780   78.1980  216.9910 C   0  0  0  0  0  0  0  0  0  0  0  0
  143.1550   76.9760  217.5260 N   0  0  0  0  0  0  0  0  0  0  0  0
  142.6810   76.7190  218.7500 C   0  0  0  0  0  0  0  0  0  0  0  0
  140.9550   72.1010  220.6250 C   0  0  0  0  0  0  0  0  0  0  0  0
  142.3080   71.4240  220.5910 C   0  0  0  0  0  0  0  0  0  0  0  0
  145.9734   74.0936  222.2547 H   0  0  0  0  0  0  0  0  0  0  0  0
  146.7371   74.8211  220.8007 H   0  0  0  0  0  0  0  0  0  0  0  0
  144.9800   74.4481  220.8007 H   0  0  0  0  0  0  0  0  0  0  0  0
  147.3429   72.6486  220.4035 H   0  0  0  0  0  0  0  0  0  0  0  0
  145.9390   71.9994  221.3755 H   0  0  0  0  0  0  0  0  0  0  0  0
  146.0252   70.6269  217.4213 H   0  0  0  0  0  0  0  0  0  0  0  0
  146.5514   68.2353  216.9163 H   0  0  0  0  0  0  0  0  0  0  0  0
  145.4604   66.4758  218.2768 H   0  0  0  0  0  0  0  0  0  0  0  0
  143.8830   67.0558  220.0983 H   0  0  0  0  0  0  0  0  0  0  0  0
  143.3736   69.4489  220.5809 H   0  0  0  0  0  0  0  0  0  0  0  0
  142.5950   71.6160  218.4746 H   0  0  0  0  0  0  0  0  0  0  0  0
  143.7597   73.9637  219.0294 H   0  0  0  0  0  0  0  0  0  0  0  0
  141.9966   73.6711  218.6535 H   0  0  0  0  0  0  0  0  0  0  0  0
  143.1251   73.7951  221.4999 H   0  0  0  0  0  0  0  0  0  0  0  0
  142.4031   75.1869  220.6996 H   0  0  0  0  0  0  0  0  0  0  0  0
  140.9321   75.7193  222.5686 H   0  0  0  0  0  0  0  0  0  0  0  0
  138.2860   75.1800  223.0290 H   0  0  0  0  0  0  0  0  0  0  0  0
  138.6720   76.8620  223.0200 H   0  0  0  0  0  0  0  0  0  0  0  0
  139.9157   76.1463  219.9067 H   0  0  0  0  0  0  0  0  0  0  0  0
  138.9752   78.3415  220.2662 H   0  0  0  0  0  0  0  0  0  0  0  0
  138.3911   77.5357  221.7317 H   0  0  0  0  0  0  0  0  0  0  0  0
  138.7240   80.0381  222.9740 H   0  0  0  0  0  0  0  0  0  0  0  0
  140.5115   81.2973  224.1312 H   0  0  0  0  0  0  0  0  0  0  0  0
  142.8863   80.7261  223.8287 H   0  0  0  0  0  0  0  0  0  0  0  0
  143.4763   78.8288  222.3043 H   0  0  0  0  0  0  0  0  0  0  0  0
  142.2962   76.4620  221.1527 H   0  0  0  0  0  0  0  0  0  0  0  0
  141.2885   79.6710  219.5442 H   0  0  0  0  0  0  0  0  0  0  0  0
  142.1629   80.1619  217.2814 H   0  0  0  0  0  0  0  0  0  0  0  0
  143.3628   78.4257  215.9860 H   0  0  0  0  0  0  0  0  0  0  0  0
  142.8389   75.7147  219.1700 H   0  0  0  0  0  0  0  0  0  0  0  0
  140.3210   71.6079  221.3766 H   0  0  0  0  0  0  0  0  0  0  0  0
  140.4901   72.0230  219.6311 H   0  0  0  0  0  0  0  0  0  0  0  0
  142.8619   71.6288  221.5191 H   0  0  0  0  0  0  0  0  0  0  0  0
  142.2114   70.3316  220.5048 H   0  0  0  0  0  0  0  0  0  0  0  0
  1  2  1  0
  2  3  1  0
  3  4  2  0
  3  5  1  0
  5  6  1  0
  6  7  2  0
  7  8  1  0
  8  9  2  0
  9 10  1  0
 10 11  2  0
  5 12  1  0
 12 13  1  0
 13 14  1  0
 14 15  1  0
 15 16  1  0
 16 17  2  0
 16 18  1  0
 18 19  1  0
 18 20  1  0
 20 21  1  0
 21 22  1  0
 22 23  2  0
 23 24  1  0
 24 25  2  0
 25 26  1  0
 26 27  2  0
 27 28  1  0
 28 29  1  0
 29 30  2  0
 30 31  1  0
 31 32  2  0
 32 33  1  0
 33 34  2  0
 15 35  1  0
 35 36  1  0
 11  6  1  0
 36 12  1  0
 28 20  1  0
 34 29  1  0
 27 22  1  0
  1 37  1  0
  1 38  1  0
  1 39  1  0
  2 40  1  0
  2 41  1  0
  7 42  1  0
  8 43  1  0
  9 44  1  0
 10 45  1  0
 11 46  1  0
 12 47  1  0
 13 48  1  0
 13 49  1  0
 14 50  1  0
 14 51  1  0
 18 52  1  1
 19 53  1  0
 19 54  1  0
 20 55  1  6
 21 56  1  0
 21 57  1  0
 23 58  1  0
 24 59  1  0
 25 60  1  0
 26 61  1  0
 28 62  1  1
 30 63  1  0
 31 64  1  0
 32 65  1  0
 34 66  1  0
 35 67  1  0
 35 68  1  0
 36 69  1  0
 36 70  1  0
M  END
>  <smiles>  (69) 
CCC(=O)N(c1ccccc1)C1CCN(C(=O)[C@H](N)C2Cc3ccccc3C2c2cccnc2)CC1

>  <score_type>  (69) 
oracle

>  <origin>  (69) 
autodockgpu

>  <m_score__min__energy>  (69) 
-9.3300000000000001

>  <m_primary>  (69) 
energy

>  <rmsd>  (69) 
4.685472822294028

>  <m_score__min__rmsd>  (69) 
4.685472822294028

>  <meeko>  (69) 
{"free_energy": -8.4, "intermolecular_energy": -10.78, "internal_energy": -3.0, "cluster_size": 17, "cluster_id": 1, "rank_in_cluster": 16}

>  <energy>  (69) 
-8.36

>  <cluster_rmsd>  (69) 
1.54

>  <cluster>  (69) 
2

$$$$

     RDKit          3D

 70 74  0  0  0  0  0  0  0  0999 V2000
  146.6480   73.0780  221.9250 C   0  0  0  0  0  0  0  0  0  0  0  0
  145.7540   73.7770  220.8990 C   0  0  0  0  0  0  0  0  0  0  0  0
  145.4770   72.9660  219.7220 C   0  0  0  0  0  0  0  0  0  0  0  0
  146.2930   73.0190  218.7400 O   0  0  0  0  0  0  0  0  0  0  0  0
  144.3680   72.0980  219.5410 N   0  0  0  0  0  0  0  0  0  0  0  0
  144.7010   70.7090  219.3170 C   0  0  0  0  0  0  0  0  0  0  0  0
  145.6320   70.3810  218.3450 C   0  0  0  0  0  0  0  0  0  0  0  0
  145.9890   69.0590  218.0860 C   0  0  0  0  0  0  0  0  0  0  0  0
  145.3810   68.0820  218.8330 C   0  0  0  0  0  0  0  0  0  0  0  0
  144.4440   68.3830  219.8150 C   0  0  0  0  0  0  0  0  0  0  0  0
  144.1060   69.7080  220.0530 C   0  0  0  0  0  0  0  0  0  0  0  0
  142.9940   72.5020  219.5620 C   0  0  0  0  0  0  0  0  0  0  0  0
  142.7450   73.9680  219.5890 C   0  0  0  0  0  0  0  0  0  0  0  0
  142.1960   74.4710  220.9400 C   0  0  0  0  0  0  0  0  0  0  0  0
  140.8870   73.8680  221.0450 N   0  0  0  0  0  0  0  0  0  0  0  0
  139.7250   74.5090  221.5410 C   0  0  0  0  0  0  0  0  0  0  0  0
  138.6600   73.8070  221.5080 O   0  0  0  0  0  0  0  0  0  0  0  0
  139.6470   75.8670  222.0710 C   0  0  2  0  0  0  0  0  0  0  0  0
  138.5530   76.0580  222.9180 N   0  0  0  0  0  0  0  0  0  0  0  0
  139.7850   76.9640  221.0200 C   0  0  1  0  0  0  0  0  0  0  0  0
  139.0480   78.1850  221.5170 C   0  0  0  0  0  0  0  0  0  0  0  0
  140.0140   78.9470  222.3040 C   0  0  0  0  0  0  0  0  0  0  0  0
  139.8180   79.9390  223.2420 C   0  0  0  0  0  0  0  0  0  0  0  0
  140.9260   80.5060  223.8390 C   0  0  0  0  0  0  0  0  0  0  0  0
  142.1970   80.1210  223.5370 C   0  0  0  0  0  0  0  0  0  0  0  0
  142.3570   79.1140  222.5840 C   0  0  0  0  0  0  0  0  0  0  0  0
  141.2620   78.5240  221.9650 C   0  0  0  0  0  0  0  0  0  0  0  0
  141.2030   77.4290  220.9330 C   0  0  2  0  0  0  0  0  0  0  0  0
  141.5740   77.9460  219.5980 C   0  0  0  0  0  0  0  0  0  0  0  0
  142.2040   79.1250  219.3390 C   0  0  0  0  0  0  0  0  0  0  0  0
  142.4940   79.4710  218.0350 C   0  0  0  0  0  0  0  0  0  0  0  0
  142.1540   78.6410  216.9880 C   0  0  0  0  0  0  0  0  0  0  0  0
  141.5310   77.4760  217.2450 N   0  0  0  0  0  0  0  0  0  0  0  0
  141.2530   77.1450  218.5100 C   0  0  0  0  0  0  0  0  0  0  0  0
  140.8080   72.4640  220.5950 C   0  0  0  0  0  0  0  0  0  0  0  0
  142.1760   71.8200  220.6420 C   0  0  0  0  0  0  0  0  0  0  0  0
  146.3143   73.3389  222.9402 H   0  0  0  0  0  0  0  0  0  0  0  0
  146.5830   71.9887  221.7863 H   0  0  0  0  0  0  0  0  0  0  0  0
  147.6894   73.4038  221.7863 H   0  0  0  0  0  0  0  0  0  0  0  0
  144.7981   74.0265  221.3827 H   0  0  0  0  0  0  0  0  0  0  0  0
  146.2939   74.6718  220.5557 H   0  0  0  0  0  0  0  0  0  0  0  0
  146.1024   71.1862  217.7616 H   0  0  0  0  0  0  0  0  0  0  0  0
  146.7298   68.8085  217.3124 H   0  0  0  0  0  0  0  0  0  0  0  0
  145.6426   67.0294  218.6495 H   0  0  0  0  0  0  0  0  0  0  0  0
  143.9743   67.5776  220.3987 H   0  0  0  0  0  0  0  0  0  0  0  0
  143.3653   69.9580  220.8269 H   0  0  0  0  0  0  0  0  0  0  0  0
  142.6468   72.1528  218.5784 H   0  0  0  0  0  0  0  0  0  0  0  0
  143.6929   74.4866  219.3829 H   0  0  0  0  0  0  0  0  0  0  0  0
  141.9803   74.1817  218.8277 H   0  0  0  0  0  0  0  0  0  0  0  0
  142.8422   74.1445  221.7682 H   0  0  0  0  0  0  0  0  0  0  0  0
  142.1565   75.5690  220.9930 H   0  0  0  0  0  0  0  0  0  0  0  0
  140.5454   75.9715  222.6971 H   0  0  0  0  0  0  0  0  0  0  0  0
  138.5740   76.8620  223.5300 H   0  0  0  0  0  0  0  0  0  0  0  0
  137.9370   75.3020  223.1550 H   0  0  0  0  0  0  0  0  0  0  0  0
  139.4162   76.5650  220.0636 H   0  0  0  0  0  0  0  0  0  0  0  0
  138.6879   78.7855  220.6686 H   0  0  0  0  0  0  0  0  0  0  0  0
  138.1690   77.9078  222.1174 H   0  0  0  0  0  0  0  0  0  0  0  0
  138.8033   80.2703  223.5079 H   0  0  0  0  0  0  0  0  0  0  0  0
  140.7767   81.2987  224.5869 H   0  0  0  0  0  0  0  0  0  0  0  0
  143.0654   80.5865  224.0261 H   0  0  0  0  0  0  0  0  0  0  0  0
  143.3708   78.7806  222.3175 H   0  0  0  0  0  0  0  0  0  0  0  0
  141.9115   76.6052  221.1042 H   0  0  0  0  0  0  0  0  0  0  0  0
  142.4801   79.7977  220.1644 H   0  0  0  0  0  0  0  0  0  0  0  0
  143.0041   80.4233  217.8278 H   0  0  0  0  0  0  0  0  0  0  0  0
  142.3896   78.9281  215.9526 H   0  0  0  0  0  0  0  0  0  0  0  0
  140.7436   76.1885  218.6989 H   0  0  0  0  0  0  0  0  0  0  0  0
  140.1232   71.9098  221.2537 H   0  0  0  0  0  0  0  0  0  0  0  0
  140.4367   72.4403  219.5598 H   0  0  0  0  0  0  0  0  0  0  0  0
  142.6385   71.9756  221.6279 H   0  0  0  0  0  0  0  0  0  0  0  0
  142.1168   70.7338  220.4784 H   0  0  0  0  0  0  0  0  0  0  0  0
  1  2  1  0
  2  3  1  0
  3  4  2  0
  3  5  1  0
  5  6  1  0
  6  7  2  0
  7  8  1  0
  8  9  2  0
  9 10  1  0
 10 11  2  0
  5 12  1  0
 12 13  1  0
 13 14  1  0
 14 15  1  0
 15 16  1  0
 16 17  2  0
 16 18  1  0
 18 19  1  0
 18 20  1  0
 20 21  1  0
 21 22  1  0
 22 23  2  0
 23 24  1  0
 24 25  2  0
 25 26  1  0
 26 27  2  0
 27 28  1  0
 28 29  1  0
 29 30  2  0
 30 31  1  0
 31 32  2  0
 32 33  1  0
 33 34  2  0
 15 35  1  0
 35 36  1  0
 11  6  1  0
 36 12  1  0
 28 20  1  0
 34 29  1  0
 27 22  1  0
  1 37  1  0
  1 38  1  0
  1 39  1  0
  2 40  1  0
  2 41  1  0
  7 42  1  0
  8 43  1  0
  9 44  1  0
 10 45  1  0
 11 46  1  0
 12 47  1  0
 13 48  1  0
 13 49  1  0
 14 50  1  0
 14 51  1  0
 18 52  1  1
 19 53  1  0
 19 54  1  0
 20 55  1  6
 21 56  1  0
 21 57  1  0
 23 58  1  0
 24 59  1  0
 25 60  1  0
 26 61  1  0
 28 62  1  1
 30 63  1  0
 31 64  1  0
 32 65  1  0
 34 66  1  0
 35 67  1  0
 35 68  1  0
 36 69  1  0
 36 70  1  0
M  END
>  <smiles>  (70) 
CCC(=O)N(c1ccccc1)C1CCN(C(=O)[C@H](N)C2Cc3ccccc3C2c2cccnc2)CC1

>  <score_type>  (70) 
oracle

>  <origin>  (70) 
autodockgpu

>  <m_score__min__energy>  (70) 
-9.3300000000000001

>  <m_primary>  (70) 
energy

>  <rmsd>  (70) 
4.436472015406894

>  <m_score__min__rmsd>  (70) 
4.436472015406894

>  <meeko>  (70) 
{"free_energy": -8.69, "intermolecular_energy": -11.07, "internal_energy": -2.71, "cluster_size": 17, "cluster_id": 1, "rank_in_cluster": 13}

>  <energy>  (70) 
-8.27

>  <cluster_rmsd>  (70) 
1.58

>  <cluster>  (70) 
2

$$$$

     RDKit          3D

 70 74  0  0  0  0  0  0  0  0999 V2000
  138.0730   83.0350  221.9780 C   0  0  0  0  0  0  0  0  0  0  0  0
  137.2430   82.0720  222.8300 C   0  0  0  0  0  0  0  0  0  0  0  0
  138.0470   81.0880  223.5430 C   0  0  0  0  0  0  0  0  0  0  0  0
  138.1210   81.1710  224.8160 O   0  0  0  0  0  0  0  0  0  0  0  0
  138.7770   80.0180  222.9620 N   0  0  0  0  0  0  0  0  0  0  0  0
  140.2130   80.1860  222.9490 C   0  0  0  0  0  0  0  0  0  0  0  0
  140.7890   81.0390  222.0210 C   0  0  0  0  0  0  0  0  0  0  0  0
  142.1680   81.2370  221.9620 C   0  0  0  0  0  0  0  0  0  0  0  0
  142.9440   80.5520  222.8630 C   0  0  0  0  0  0  0  0  0  0  0  0
  142.3920   79.6900  223.8050 C   0  0  0  0  0  0  0  0  0  0  0  0
  141.0150   79.5110  223.8420 C   0  0  0  0  0  0  0  0  0  0  0  0
  138.1980   78.8320  222.4070 C   0  0  0  0  0  0  0  0  0  0  0  0
  138.5410   77.5560  223.0880 C   0  0  0  0  0  0  0  0  0  0  0  0
  139.4810   76.6530  222.2610 C   0  0  0  0  0  0  0  0  0  0  0  0
  138.6900   76.2640  221.1160 N   0  0  0  0  0  0  0  0  0  0  0  0
  138.6720   74.9730  220.5320 C   0  0  0  0  0  0  0  0  0  0  0  0
  137.8700   74.8310  219.5500 O   0  0  0  0  0  0  0  0  0  0  0  0
  139.4710   73.8250  220.9490 C   0  0  2  0  0  0  0  0  0  0  0  0
  139.6290   73.7470  222.3340 N   0  0  0  0  0  0  0  0  0  0  0  0
  140.7830   73.6590  220.1890 C   0  0  1  0  0  0  0  0  0  0  0  0
  140.6130   74.2700  218.8190 C   0  0  0  0  0  0  0  0  0  0  0  0
  140.9790   75.6780  218.9570 C   0  0  0  0  0  0  0  0  0  0  0  0
  140.7020   76.7560  218.1420 C   0  0  0  0  0  0  0  0  0  0  0  0
  141.1850   77.9970  218.5100 C   0  0  0  0  0  0  0  0  0  0  0  0
  141.9180   78.1900  219.6410 C   0  0  0  0  0  0  0  0  0  0  0  0
  142.1780   77.0760  220.4400 C   0  0  0  0  0  0  0  0  0  0  0  0
  141.7070   75.8140  220.0970 C   0  0  0  0  0  0  0  0  0  0  0  0
  141.8560   74.4960  220.8090 C   0  0  2  0  0  0  0  0  0  0  0  0
  143.2160   73.9480  220.6180 C   0  0  0  0  0  0  0  0  0  0  0  0
  144.3610   74.6710  220.4690 C   0  0  0  0  0  0  0  0  0  0  0  0
  145.5640   74.0160  220.3070 C   0  0  0  0  0  0  0  0  0  0  0  0
  145.6270   72.6390  220.2930 C   0  0  0  0  0  0  0  0  0  0  0  0
  144.4950   71.9250  220.4400 N   0  0  0  0  0  0  0  0  0  0  0  0
  143.3320   72.5640  220.5970 C   0  0  0  0  0  0  0  0  0  0  0  0
  137.8570   77.3370  220.5370 C   0  0  0  0  0  0  0  0  0  0  0  0
  138.4140   78.6930  220.9120 C   0  0  0  0  0  0  0  0  0  0  0  0
  138.6488   83.7031  222.6354 H   0  0  0  0  0  0  0  0  0  0  0  0
  138.7637   82.4607  221.3431 H   0  0  0  0  0  0  0  0  0  0  0  0
  137.4031   83.6334  221.3431 H   0  0  0  0  0  0  0  0  0  0  0  0
  136.6763   82.6593  223.5675 H   0  0  0  0  0  0  0  0  0  0  0  0
  136.5850   81.5176  222.1446 H   0  0  0  0  0  0  0  0  0  0  0  0
  140.1407   81.5744  221.3117 H   0  0  0  0  0  0  0  0  0  0  0  0
  142.6165   81.9160  221.2219 H   0  0  0  0  0  0  0  0  0  0  0  0
  144.0352   80.6887  222.8396 H   0  0  0  0  0  0  0  0  0  0  0  0
  143.0403   79.1548  224.5144 H   0  0  0  0  0  0  0  0  0  0  0  0
  140.5666   78.8322  224.5823 H   0  0  0  0  0  0  0  0  0  0  0  0
  137.1280   78.9995  222.5994 H   0  0  0  0  0  0  0  0  0  0  0  0
  139.0346   77.7918  224.0423 H   0  0  0  0  0  0  0  0  0  0  0  0
  137.6017   77.0018  223.2315 H   0  0  0  0  0  0  0  0  0  0  0  0
  140.3762   77.2088  221.9450 H   0  0  0  0  0  0  0  0  0  0  0  0
  139.8424   75.7869  222.8348 H   0  0  0  0  0  0  0  0  0  0  0  0
  138.8718   72.9501  220.6564 H   0  0  0  0  0  0  0  0  0  0  0  0
  138.9230   74.1840  222.9090 H   0  0  0  0  0  0  0  0  0  0  0  0
  140.5260   73.5640  222.7490 H   0  0  0  0  0  0  0  0  0  0  0  0
  141.0375   72.5889  220.1836 H   0  0  0  0  0  0  0  0  0  0  0  0
  141.2742   73.7726  218.0941 H   0  0  0  0  0  0  0  0  0  0  0  0
  139.5822   74.1560  218.4524 H   0  0  0  0  0  0  0  0  0  0  0  0
  140.1115   76.6307  217.2224 H   0  0  0  0  0  0  0  0  0  0  0  0
  140.9693   78.8616  217.8650 H   0  0  0  0  0  0  0  0  0  0  0  0
  142.2916   79.1877  219.9149 H   0  0  0  0  0  0  0  0  0  0  0  0
  142.7678   77.1990  221.3603 H   0  0  0  0  0  0  0  0  0  0  0  0
  141.7450   74.5549  221.9018 H   0  0  0  0  0  0  0  0  0  0  0  0
  144.3263   75.7704  220.4778 H   0  0  0  0  0  0  0  0  0  0  0  0
  146.4875   74.6015  220.1871 H   0  0  0  0  0  0  0  0  0  0  0  0
  146.5927   72.1285  220.1630 H   0  0  0  0  0  0  0  0  0  0  0  0
  142.4187   71.9625  220.7158 H   0  0  0  0  0  0  0  0  0  0  0  0
  137.8480   77.2385  219.4415 H   0  0  0  0  0  0  0  0  0  0  0  0
  136.8339   77.2485  220.9312 H   0  0  0  0  0  0  0  0  0  0  0  0
  139.4866   78.7452  220.6739 H   0  0  0  0  0  0  0  0  0  0  0  0
  137.9177   79.5016  220.3553 H   0  0  0  0  0  0  0  0  0  0  0  0
  1  2  1  0
  2  3  1  0
  3  4  2  0
  3  5  1  0
  5  6  1  0
  6  7  2  0
  7  8  1  0
  8  9  2  0
  9 10  1  0
 10 11  2  0
  5 12  1  0
 12 13  1  0
 13 14  1  0
 14 15  1  0
 15 16  1  0
 16 17  2  0
 16 18  1  0
 18 19  1  0
 18 20  1  0
 20 21  1  0
 21 22  1  0
 22 23  2  0
 23 24  1  0
 24 25  2  0
 25 26  1  0
 26 27  2  0
 27 28  1  0
 28 29  1  0
 29 30  2  0
 30 31  1  0
 31 32  2  0
 32 33  1  0
 33 34  2  0
 15 35  1  0
 35 36  1  0
 11  6  1  0
 36 12  1  0
 28 20  1  0
 34 29  1  0
 27 22  1  0
  1 37  1  0
  1 38  1  0
  1 39  1  0
  2 40  1  0
  2 41  1  0
  7 42  1  0
  8 43  1  0
  9 44  1  0
 10 45  1  0
 11 46  1  0
 12 47  1  0
 13 48  1  0
 13 49  1  0
 14 50  1  0
 14 51  1  0
 18 52  1  6
 19 53  1  0
 19 54  1  0
 20 55  1  6
 21 56  1  0
 21 57  1  0
 23 58  1  0
 24 59  1  0
 25 60  1  0
 26 61  1  0
 28 62  1  1
 30 63  1  0
 31 64  1  0
 32 65  1  0
 34 66  1  0
 35 67  1  0
 35 68  1  0
 36 69  1  0
 36 70  1  0
M  END
>  <smiles>  (71) 
CCC(=O)N(c1ccccc1)C1CCN(C(=O)[C@H](N)C2Cc3ccccc3C2c2cccnc2)CC1

>  <score_type>  (71) 
oracle

>  <origin>  (71) 
autodockgpu

>  <m_score__min__energy>  (71) 
-9.3300000000000001

>  <m_primary>  (71) 
energy

>  <rmsd>  (71) 
5.973681074448126

>  <m_score__min__rmsd>  (71) 
5.973681074448126

>  <meeko>  (71) 
{"free_energy": -7.4, "intermolecular_energy": -9.79, "internal_energy": -3.43, "cluster_size": 15, "cluster_id": 5, "rank_in_cluster": 15}

>  <energy>  (71) 
-8.04

>  <cluster_rmsd>  (71) 
1.28

>  <cluster>  (71) 
2

$$$$

     RDKit          3D

 70 74  0  0  0  0  0  0  0  0999 V2000
  141.8390   78.8990  224.1830 C   0  0  0  0  0  0  0  0  0  0  0  0
  142.2540   80.2870  223.6940 C   0  0  0  0  0  0  0  0  0  0  0  0
  141.2600   80.9230  222.8400 C   0  0  0  0  0  0  0  0  0  0  0  0
  141.3570   82.1800  222.6250 O   0  0  0  0  0  0  0  0  0  0  0  0
  140.1640   80.2830  222.2050 N   0  0  0  0  0  0  0  0  0  0  0  0
  138.9120   80.3410  222.9250 C   0  0  0  0  0  0  0  0  0  0  0  0
  137.7650   79.8280  222.3400 C   0  0  0  0  0  0  0  0  0  0  0  0
  136.5320   79.8600  222.9890 C   0  0  0  0  0  0  0  0  0  0  0  0
  136.4910   80.4210  224.2400 C   0  0  0  0  0  0  0  0  0  0  0  0
  137.6260   80.9420  224.8520 C   0  0  0  0  0  0  0  0  0  0  0  0
  138.8420   80.8980  224.1840 C   0  0  0  0  0  0  0  0  0  0  0  0
  140.2250   79.6050  220.9440 C   0  0  0  0  0  0  0  0  0  0  0  0
  140.5880   78.1640  220.9940 C   0  0  0  0  0  0  0  0  0  0  0  0
  141.9960   77.8670  220.4400 C   0  0  0  0  0  0  0  0  0  0  0  0
  141.9030   78.1790  219.0320 N   0  0  0  0  0  0  0  0  0  0  0  0
  142.4890   77.4290  217.9840 C   0  0  0  0  0  0  0  0  0  0  0  0
  142.2490   77.8570  216.8060 O   0  0  0  0  0  0  0  0  0  0  0  0
  143.3210   76.2390  218.1340 C   0  0  2  0  0  0  0  0  0  0  0  0
  144.0830   75.9600  216.9970 N   0  0  0  0  0  0  0  0  0  0  0  0
  142.5840   75.0160  218.6710 C   0  0  1  0  0  0  0  0  0  0  0  0
  143.2250   73.7840  218.0780 C   0  0  0  0  0  0  0  0  0  0  0  0
  144.3070   73.4150  218.9880 C   0  0  0  0  0  0  0  0  0  0  0  0
  145.4050   72.6030  218.7880 C   0  0  0  0  0  0  0  0  0  0  0  0
  146.2820   72.4150  219.8370 C   0  0  0  0  0  0  0  0  0  0  0  0
  146.1020   73.0000  221.0530 C   0  0  0  0  0  0  0  0  0  0  0  0
  144.9810   73.8140  221.2200 C   0  0  0  0  0  0  0  0  0  0  0  0
  144.0800   74.0230  220.1830 C   0  0  0  0  0  0  0  0  0  0  0  0
  142.8290   74.8610  220.1370 C   0  0  2  0  0  0  0  0  0  0  0  0
  141.7230   74.1880  220.8520 C   0  0  0  0  0  0  0  0  0  0  0  0
  141.4640   72.8510  220.8570 C   0  0  0  0  0  0  0  0  0  0  0  0
  140.3940   72.3670  221.5820 C   0  0  0  0  0  0  0  0  0  0  0  0
  139.5810   73.2160  222.3020 C   0  0  0  0  0  0  0  0  0  0  0  0
  139.8370   74.5380  222.2960 N   0  0  0  0  0  0  0  0  0  0  0  0
  140.8760   75.0020  221.5930 C   0  0  0  0  0  0  0  0  0  0  0  0
  141.1300   79.3970  218.7120 C   0  0  0  0  0  0  0  0  0  0  0  0
  141.0800   80.3160  219.9130 C   0  0  0  0  0  0  0  0  0  0  0  0
  141.8345   78.8839  225.2829 H   0  0  0  0  0  0  0  0  0  0  0  0
  140.8315   78.6645  223.8090 H   0  0  0  0  0  0  0  0  0  0  0  0
  142.5525   78.1500  223.8090 H   0  0  0  0  0  0  0  0  0  0  0  0
  142.4219   80.9294  224.5710 H   0  0  0  0  0  0  0  0  0  0  0  0
  143.1647   80.1587  223.0906 H   0  0  0  0  0  0  0  0  0  0  0  0
  137.8296   79.3834  221.3359 H   0  0  0  0  0  0  0  0  0  0  0  0
  135.6268   79.4512  222.5163 H   0  0  0  0  0  0  0  0  0  0  0  0
  135.5310   80.4600  224.7756 H   0  0  0  0  0  0  0  0  0  0  0  0
  137.5607   81.3851  225.8567 H   0  0  0  0  0  0  0  0  0  0  0  0
  139.7469   81.3063  224.6578 H   0  0  0  0  0  0  0  0  0  0  0  0
  139.1736   79.6423  220.6230 H   0  0  0  0  0  0  0  0  0  0  0  0
  140.5481   77.8306  222.0415 H   0  0  0  0  0  0  0  0  0  0  0  0
  139.8691   77.6261  220.3585 H   0  0  0  0  0  0  0  0  0  0  0  0
  142.7488   78.5018  220.9302 H   0  0  0  0  0  0  0  0  0  0  0  0
  142.3054   76.8267  220.6188 H   0  0  0  0  0  0  0  0  0  0  0  0
  144.0352   76.5010  218.9286 H   0  0  0  0  0  0  0  0  0  0  0  0
  145.0040   75.5700  217.1380 H   0  0  0  0  0  0  0  0  0  0  0  0
  143.8890   76.4020  216.1160 H   0  0  0  0  0  0  0  0  0  0  0  0
  141.5160   75.1335  218.4355 H   0  0  0  0  0  0  0  0  0  0  0  0
  142.4908   72.9680  218.0065 H   0  0  0  0  0  0  0  0  0  0  0  0
  143.6007   73.9748  217.0619 H   0  0  0  0  0  0  0  0  0  0  0  0
  145.5770   72.1174  217.8161 H   0  0  0  0  0  0  0  0  0  0  0  0
  147.1589   71.7685  219.6849 H   0  0  0  0  0  0  0  0  0  0  0  0
  146.8149   72.8368  221.8747 H   0  0  0  0  0  0  0  0  0  0  0  0
  144.8072   74.2997  222.1915 H   0  0  0  0  0  0  0  0  0  0  0  0
  142.9163   75.8360  220.6387 H   0  0  0  0  0  0  0  0  0  0  0  0
  142.1036   72.1612  220.2868 H   0  0  0  0  0  0  0  0  0  0  0  0
  140.1867   71.2867  221.5853 H   0  0  0  0  0  0  0  0  0  0  0  0
  138.7314   72.8175  222.8759 H   0  0  0  0  0  0  0  0  0  0  0  0
  141.0698   76.0848  221.6022 H   0  0  0  0  0  0  0  0  0  0  0  0
  141.6101   79.9218  217.8729 H   0  0  0  0  0  0  0  0  0  0  0  0
  140.1043   79.1090  218.4381 H   0  0  0  0  0  0  0  0  0  0  0  0
  142.0927   80.4861  220.3072 H   0  0  0  0  0  0  0  0  0  0  0  0
  140.6636   81.3001  219.6519 H   0  0  0  0  0  0  0  0  0  0  0  0
  1  2  1  0
  2  3  1  0
  3  4  2  0
  3  5  1  0
  5  6  1  0
  6  7  2  0
  7  8  1  0
  8  9  2  0
  9 10  1  0
 10 11  2  0
  5 12  1  0
 12 13  1  0
 13 14  1  0
 14 15  1  0
 15 16  1  0
 16 17  2  0
 16 18  1  0
 18 19  1  0
 18 20  1  0
 20 21  1  0
 21 22  1  0
 22 23  2  0
 23 24  1  0
 24 25  2  0
 25 26  1  0
 26 27  2  0
 27 28  1  0
 28 29  1  0
 29 30  2  0
 30 31  1  0
 31 32  2  0
 32 33  1  0
 33 34  2  0
 15 35  1  0
 35 36  1  0
 11  6  1  0
 36 12  1  0
 28 20  1  0
 34 29  1  0
 27 22  1  0
  1 37  1  0
  1 38  1  0
  1 39  1  0
  2 40  1  0
  2 41  1  0
  7 42  1  0
  8 43  1  0
  9 44  1  0
 10 45  1  0
 11 46  1  0
 12 47  1  0
 13 48  1  0
 13 49  1  0
 14 50  1  0
 14 51  1  0
 18 52  1  1
 19 53  1  0
 19 54  1  0
 20 55  1  1
 21 56  1  0
 21 57  1  0
 23 58  1  0
 24 59  1  0
 25 60  1  0
 26 61  1  0
 28 62  1  1
 30 63  1  0
 31 64  1  0
 32 65  1  0
 34 66  1  0
 35 67  1  0
 35 68  1  0
 36 69  1  0
 36 70  1  0
M  END
>  <smiles>  (72) 
CCC(=O)N(c1ccccc1)C1CCN(C(=O)[C@H](N)C2Cc3ccccc3C2c2cccnc2)CC1

>  <score_type>  (72) 
oracle

>  <origin>  (72) 
autodockgpu

>  <m_score__min__energy>  (72) 
-9.3300000000000001

>  <m_primary>  (72) 
energy

>  <rmsd>  (72) 
7.285725702358421

>  <m_score__min__rmsd>  (72) 
7.285725702358421

>  <meeko>  (72) 
{"free_energy": -8.26, "intermolecular_energy": -10.65, "internal_energy": -3.16, "cluster_size": 10, "cluster_id": 3, "rank_in_cluster": 1}

>  <energy>  (72) 
-7.86

>  <cluster_rmsd>  (72) 
1.35

>  <cluster>  (72) 
2

$$$$

     RDKit          3D

 70 74  0  0  0  0  0  0  0  0999 V2000
  137.6500   81.2370  225.1610 C   0  0  0  0  0  0  0  0  0  0  0  0
  137.1280   81.2340  223.7230 C   0  0  0  0  0  0  0  0  0  0  0  0
  138.1820   81.1160  222.7230 C   0  0  0  0  0  0  0  0  0  0  0  0
  138.4780   82.1460  222.0270 O   0  0  0  0  0  0  0  0  0  0  0  0
  138.9360   79.9500  222.4300 N   0  0  0  0  0  0  0  0  0  0  0  0
  140.3620   80.0700  222.6320 C   0  0  0  0  0  0  0  0  0  0  0  0
  140.9190   79.6440  223.8280 C   0  0  0  0  0  0  0  0  0  0  0  0
  142.2870   79.7380  224.0760 C   0  0  0  0  0  0  0  0  0  0  0  0
  143.0740   80.2720  223.0870 C   0  0  0  0  0  0  0  0  0  0  0  0
  142.5430   80.7070  221.8780 C   0  0  0  0  0  0  0  0  0  0  0  0
  141.1760   80.6020  221.6560 C   0  0  0  0  0  0  0  0  0  0  0  0
  138.3890   78.7120  221.9610 C   0  0  0  0  0  0  0  0  0  0  0  0
  138.7640   77.4970  222.7320 C   0  0  0  0  0  0  0  0  0  0  0  0
  139.7290   76.5630  221.9730 C   0  0  0  0  0  0  0  0  0  0  0  0
  138.9520   76.0720  220.8580 N   0  0  0  0  0  0  0  0  0  0  0  0
  138.9700   74.7430  220.3670 C   0  0  0  0  0  0  0  0  0  0  0  0
  138.1740   74.5100  219.3970 O   0  0  0  0  0  0  0  0  0  0  0  0
  139.7970   73.6490  220.8660 C   0  0  2  0  0  0  0  0  0  0  0  0
  139.9800   73.6920  222.2500 N   0  0  0  0  0  0  0  0  0  0  0  0
  141.0990   73.4400  220.1000 C   0  0  1  0  0  0  0  0  0  0  0  0
  140.9030   73.9550  218.6930 C   0  0  0  0  0  0  0  0  0  0  0  0
  141.2590   75.3710  218.7290 C   0  0  0  0  0  0  0  0  0  0  0  0
  140.9610   76.3900  217.8470 C   0  0  0  0  0  0  0  0  0  0  0  0
  141.4390   77.6560  218.1210 C   0  0  0  0  0  0  0  0  0  0  0  0
  142.1870   77.9310  219.2250 C   0  0  0  0  0  0  0  0  0  0  0  0
  142.4680   76.8770  220.0950 C   0  0  0  0  0  0  0  0  0  0  0  0
  142.0020   75.5920  219.8460 C   0  0  0  0  0  0  0  0  0  0  0  0
  142.1730   74.3260  220.6440 C   0  0  2  0  0  0  0  0  0  0  0  0
  143.5350   73.7760  220.4700 C   0  0  0  0  0  0  0  0  0  0  0  0
  144.7030   74.4620  220.6140 C   0  0  0  0  0  0  0  0  0  0  0  0
  145.9040   73.8080  220.4260 C   0  0  0  0  0  0  0  0  0  0  0  0
  145.9410   72.4700  220.0950 C   0  0  0  0  0  0  0  0  0  0  0  0
  144.7860   71.7940  219.9530 N   0  0  0  0  0  0  0  0  0  0  0  0
  143.6250   72.4310  220.1370 C   0  0  0  0  0  0  0  0  0  0  0  0
  138.0930   77.0790  220.2020 C   0  0  0  0  0  0  0  0  0  0  0  0
  138.6140   78.4720  220.4800 C   0  0  0  0  0  0  0  0  0  0  0  0
  136.8003   81.2321  225.8595 H   0  0  0  0  0  0  0  0  0  0  0  0
  138.2677   80.3424  225.3287 H   0  0  0  0  0  0  0  0  0  0  0  0
  138.2574   82.1386  225.3287 H   0  0  0  0  0  0  0  0  0  0  0  0
  136.4387   80.3850  223.6044 H   0  0  0  0  0  0  0  0  0  0  0  0
  136.6306   82.2010  223.5569 H   0  0  0  0  0  0  0  0  0  0  0  0
  140.2629   79.2201  224.6025 H   0  0  0  0  0  0  0  0  0  0  0  0
  142.7194   79.3971  225.0283 H   0  0  0  0  0  0  0  0  0  0  0  0
  144.1575   80.3585  223.2558 H   0  0  0  0  0  0  0  0  0  0  0  0
  143.1998   81.1307  221.1040 H   0  0  0  0  0  0  0  0  0  0  0  0
  140.7443   80.9427  220.7033 H   0  0  0  0  0  0  0  0  0  0  0  0
  137.3144   78.8644  222.1400 H   0  0  0  0  0  0  0  0  0  0  0  0
  139.2487   77.8135  223.6674 H   0  0  0  0  0  0  0  0  0  0  0  0
  137.8393   76.9298  222.9139 H   0  0  0  0  0  0  0  0  0  0  0  0
  140.6100   77.1183  221.6189 H   0  0  0  0  0  0  0  0  0  0  0  0
  140.1113   75.7500  222.6077 H   0  0  0  0  0  0  0  0  0  0  0  0
  139.2083   72.7431  220.6594 H   0  0  0  0  0  0  0  0  0  0  0  0
  139.2290   74.0740  222.8070 H   0  0  0  0  0  0  0  0  0  0  0  0
  140.8970   73.6580  222.6580 H   0  0  0  0  0  0  0  0  0  0  0  0
  141.3628   72.3741  220.1646 H   0  0  0  0  0  0  0  0  0  0  0  0
  141.5573   73.4141  217.9935 H   0  0  0  0  0  0  0  0  0  0  0  0
  139.8678   73.8085  218.3510 H   0  0  0  0  0  0  0  0  0  0  0  0
  140.3574   76.1981  216.9477 H   0  0  0  0  0  0  0  0  0  0  0  0
  141.2069   78.4726  217.4215 H   0  0  0  0  0  0  0  0  0  0  0  0
  142.5565   78.9478  219.4239 H   0  0  0  0  0  0  0  0  0  0  0  0
  143.0703   77.0671  220.9956 H   0  0  0  0  0  0  0  0  0  0  0  0
  142.0775   74.4594  221.7317 H   0  0  0  0  0  0  0  0  0  0  0  0
  144.6892   75.5297  220.8783 H   0  0  0  0  0  0  0  0  0  0  0  0
  146.8465   74.3631  220.5421 H   0  0  0  0  0  0  0  0  0  0  0  0
  146.9047   71.9603  219.9485 H   0  0  0  0  0  0  0  0  0  0  0  0
  142.6925   71.8598  220.0184 H   0  0  0  0  0  0  0  0  0  0  0  0
  138.0902   76.9022  219.1163 H   0  0  0  0  0  0  0  0  0  0  0  0
  137.0710   76.9924  220.5996 H   0  0  0  0  0  0  0  0  0  0  0  0
  139.6858   78.5345  220.2407 H   0  0  0  0  0  0  0  0  0  0  0  0
  138.0994   79.2257  219.8659 H   0  0  0  0  0  0  0  0  0  0  0  0
  1  2  1  0
  2  3  1  0
  3  4  2  0
  3  5  1  0
  5  6  1  0
  6  7  2  0
  7  8  1  0
  8  9  2  0
  9 10  1  0
 10 11  2  0
  5 12  1  0
 12 13  1  0
 13 14  1  0
 14 15  1  0
 15 16  1  0
 16 17  2  0
 16 18  1  0
 18 19  1  0
 18 20  1  0
 20 21  1  0
 21 22  1  0
 22 23  2  0
 23 24  1  0
 24 25  2  0
 25 26  1  0
 26 27  2  0
 27 28  1  0
 28 29  1  0
 29 30  2  0
 30 31  1  0
 31 32  2  0
 32 33  1  0
 33 34  2  0
 15 35  1  0
 35 36  1  0
 11  6  1  0
 36 12  1  0
 28 20  1  0
 34 29  1  0
 27 22  1  0
  1 37  1  0
  1 38  1  0
  1 39  1  0
  2 40  1  0
  2 41  1  0
  7 42  1  0
  8 43  1  0
  9 44  1  0
 10 45  1  0
 11 46  1  0
 12 47  1  0
 13 48  1  0
 13 49  1  0
 14 50  1  0
 14 51  1  0
 18 52  1  1
 19 53  1  0
 19 54  1  0
 20 55  1  6
 21 56  1  0
 21 57  1  0
 23 58  1  0
 24 59  1  0
 25 60  1  0
 26 61  1  0
 28 62  1  1
 30 63  1  0
 31 64  1  0
 32 65  1  0
 34 66  1  0
 35 67  1  0
 35 68  1  0
 36 69  1  0
 36 70  1  0
M  END
>  <smiles>  (73) 
CCC(=O)N(c1ccccc1)C1CCN(C(=O)[C@H](N)C2Cc3ccccc3C2c2cccnc2)CC1

>  <score_type>  (73) 
oracle

>  <origin>  (73) 
autodockgpu

>  <m_score__min__energy>  (73) 
-9.3300000000000001

>  <m_primary>  (73) 
energy

>  <rmsd>  (73) 
6.038320179153456

>  <m_score__min__rmsd>  (73) 
6.038320179153456

>  <meeko>  (73) 
{"free_energy": -7.6, "intermolecular_energy": -9.99, "internal_energy": -3.33, "cluster_size": 15, "cluster_id": 5, "rank_in_cluster": 7}

>  <energy>  (73) 
-8.26

>  <cluster_rmsd>  (73) 
0.0

>  <cluster>  (73) 
3

$$$$

     RDKit          3D

 70 74  0  0  0  0  0  0  0  0999 V2000
  146.4150   73.3160  221.9490 C   0  0  0  0  0  0  0  0  0  0  0  0
  145.7810   73.9980  220.7350 C   0  0  0  0  0  0  0  0  0  0  0  0
  145.4800   73.0810  219.6450 C   0  0  0  0  0  0  0  0  0  0  0  0
  146.2660   73.0530  218.6370 O   0  0  0  0  0  0  0  0  0  0  0  0
  144.3770   72.1900  219.5760 N   0  0  0  0  0  0  0  0  0  0  0  0
  144.7160   70.8030  219.3510 C   0  0  0  0  0  0  0  0  0  0  0  0
  143.7030   69.8740  219.1750 C   0  0  0  0  0  0  0  0  0  0  0  0
  143.9730   68.5250  218.9560 C   0  0  0  0  0  0  0  0  0  0  0  0
  145.2910   68.1420  218.9190 C   0  0  0  0  0  0  0  0  0  0  0  0
  146.3270   69.0520  219.0920 C   0  0  0  0  0  0  0  0  0  0  0  0
  146.0310   70.3910  219.3090 C   0  0  0  0  0  0  0  0  0  0  0  0
  143.0020   72.5700  219.7080 C   0  0  0  0  0  0  0  0  0  0  0  0
  142.7180   74.0280  219.6470 C   0  0  0  0  0  0  0  0  0  0  0  0
  142.2970   74.6280  221.0050 C   0  0  0  0  0  0  0  0  0  0  0  0
  141.0220   74.0110  221.2910 N   0  0  0  0  0  0  0  0  0  0  0  0
  139.9000   74.6680  221.8540 C   0  0  0  0  0  0  0  0  0  0  0  0
  138.8560   73.9470  221.9860 O   0  0  0  0  0  0  0  0  0  0  0  0
  139.8410   76.0620  222.2820 C   0  0  2  0  0  0  0  0  0  0  0  0
  138.7330   76.3380  223.0860 N   0  0  0  0  0  0  0  0  0  0  0  0
  140.0280   77.0770  221.1580 C   0  0  1  0  0  0  0  0  0  0  0  0
  139.2670   78.3290  221.5250 C   0  0  0  0  0  0  0  0  0  0  0  0
  140.1940   79.1530  222.2970 C   0  0  0  0  0  0  0  0  0  0  0  0
  139.9520   80.2130  223.1460 C   0  0  0  0  0  0  0  0  0  0  0  0
  141.0300   80.8290  223.7500 C   0  0  0  0  0  0  0  0  0  0  0  0
  142.3130   80.4270  223.5390 C   0  0  0  0  0  0  0  0  0  0  0  0
  142.5200   79.3520  222.6740 C   0  0  0  0  0  0  0  0  0  0  0  0
  141.4560   78.7110  222.0500 C   0  0  0  0  0  0  0  0  0  0  0  0
  141.4480   77.5400  221.1040 C   0  0  2  0  0  0  0  0  0  0  0  0
  141.8810   77.9560  219.7520 C   0  0  0  0  0  0  0  0  0  0  0  0
  142.4320   77.1510  218.8010 C   0  0  0  0  0  0  0  0  0  0  0  0
  142.7800   77.6830  217.5760 C   0  0  0  0  0  0  0  0  0  0  0  0
  142.5780   79.0180  217.2980 C   0  0  0  0  0  0  0  0  0  0  0  0
  142.0340   79.8130  218.2390 N   0  0  0  0  0  0  0  0  0  0  0  0
  141.6970   79.2930  219.4240 C   0  0  0  0  0  0  0  0  0  0  0  0
  140.9340   72.5740  220.9610 C   0  0  0  0  0  0  0  0  0  0  0  0
  142.3170   71.9610  220.9170 C   0  0  0  0  0  0  0  0  0  0  0  0
  146.0067   73.7553  222.8711 H   0  0  0  0  0  0  0  0  0  0  0  0
  146.1893   72.2397  221.9244 H   0  0  0  0  0  0  0  0  0  0  0  0
  147.5049   73.4627  221.9244 H   0  0  0  0  0  0  0  0  0  0  0  0
  144.8443   74.4779  221.0550 H   0  0  0  0  0  0  0  0  0  0  0  0
  146.5131   74.7249  220.3534 H   0  0  0  0  0  0  0  0  0  0  0  0
  142.6565   70.2111  219.2092 H   0  0  0  0  0  0  0  0  0  0  0  0
  143.1618   67.7950  218.8180 H   0  0  0  0  0  0  0  0  0  0  0  0
  145.5342   67.0831  218.7473 H   0  0  0  0  0  0  0  0  0  0  0  0
  147.3732   68.7141  219.0573 H   0  0  0  0  0  0  0  0  0  0  0  0
  146.8427   71.1205  219.4469 H   0  0  0  0  0  0  0  0  0  0  0  0
  142.5657   72.1381  218.7952 H   0  0  0  0  0  0  0  0  0  0  0  0
  143.6256   74.5459  219.3034 H   0  0  0  0  0  0  0  0  0  0  0  0
  141.8736   74.1656  218.9556 H   0  0  0  0  0  0  0  0  0  0  0  0
  143.0326   74.3808  221.7846 H   0  0  0  0  0  0  0  0  0  0  0  0
  142.2345   75.7259  220.9769 H   0  0  0  0  0  0  0  0  0  0  0  0
  140.7273   76.1919  222.9204 H   0  0  0  0  0  0  0  0  0  0  0  0
  138.7190   77.2240  223.5710 H   0  0  0  0  0  0  0  0  0  0  0  0
  138.1410   75.6040  223.4310 H   0  0  0  0  0  0  0  0  0  0  0  0
  139.7055   76.6052  220.2181 H   0  0  0  0  0  0  0  0  0  0  0  0
  138.9474   78.8617  220.6172 H   0  0  0  0  0  0  0  0  0  0  0  0
  138.3605   78.0944  222.1022 H   0  0  0  0  0  0  0  0  0  0  0  0
  138.9255   80.5590  223.3371 H   0  0  0  0  0  0  0  0  0  0  0  0
  140.8450   81.6761  224.4269 H   0  0  0  0  0  0  0  0  0  0  0  0
  143.1566   80.9315  224.0327 H   0  0  0  0  0  0  0  0  0  0  0  0
  143.5459   79.0047  222.4819 H   0  0  0  0  0  0  0  0  0  0  0  0
  142.1484   76.7352  221.3719 H   0  0  0  0  0  0  0  0  0  0  0  0
  142.5985   76.0836  219.0082 H   0  0  0  0  0  0  0  0  0  0  0  0
  143.2254   77.0317  216.8096 H   0  0  0  0  0  0  0  0  0  0  0  0
  142.8584   79.4298  216.3173 H   0  0  0  0  0  0  0  0  0  0  0  0
  141.2511   79.9585  220.1779 H   0  0  0  0  0  0  0  0  0  0  0  0
  140.3339   72.0615  221.7273 H   0  0  0  0  0  0  0  0  0  0  0  0
  140.4604   72.4611  219.9746 H   0  0  0  0  0  0  0  0  0  0  0  0
  142.8728   72.2039  221.8347 H   0  0  0  0  0  0  0  0  0  0  0  0
  142.2712   70.8642  220.8461 H   0  0  0  0  0  0  0  0  0  0  0  0
  1  2  1  0
  2  3  1  0
  3  4  2  0
  3  5  1  0
  5  6  1  0
  6  7  2  0
  7  8  1  0
  8  9  2  0
  9 10  1  0
 10 11  2  0
  5 12  1  0
 12 13  1  0
 13 14  1  0
 14 15  1  0
 15 16  1  0
 16 17  2  0
 16 18  1  0
 18 19  1  0
 18 20  1  0
 20 21  1  0
 21 22  1  0
 22 23  2  0
 23 24  1  0
 24 25  2  0
 25 26  1  0
 26 27  2  0
 27 28  1  0
 28 29  1  0
 29 30  2  0
 30 31  1  0
 31 32  2  0
 32 33  1  0
 33 34  2  0
 15 35  1  0
 35 36  1  0
 11  6  1  0
 36 12  1  0
 28 20  1  0
 34 29  1  0
 27 22  1  0
  1 37  1  0
  1 38  1  0
  1 39  1  0
  2 40  1  0
  2 41  1  0
  7 42  1  0
  8 43  1  0
  9 44  1  0
 10 45  1  0
 11 46  1  0
 12 47  1  0
 13 48  1  0
 13 49  1  0
 14 50  1  0
 14 51  1  0
 18 52  1  1
 19 53  1  0
 19 54  1  0
 20 55  1  6
 21 56  1  0
 21 57  1  0
 23 58  1  0
 24 59  1  0
 25 60  1  0
 26 61  1  0
 28 62  1  1
 30 63  1  0
 31 64  1  0
 32 65  1  0
 34 66  1  0
 35 67  1  0
 35 68  1  0
 36 69  1  0
 36 70  1  0
M  END
>  <smiles>  (74) 
CCC(=O)N(c1ccccc1)C1CCN(C(=O)[C@H](N)C2Cc3ccccc3C2c2cccnc2)CC1

>  <score_type>  (74) 
oracle

>  <origin>  (74) 
autodockgpu

>  <m_score__min__energy>  (74) 
-9.3300000000000001

>  <m_primary>  (74) 
energy

>  <rmsd>  (74) 
4.385209954942417

>  <m_score__min__rmsd>  (74) 
4.385209954942417

>  <meeko>  (74) 
{"free_energy": -9.21, "intermolecular_energy": -11.6, "internal_energy": -2.81, "cluster_size": 17, "cluster_id": 1, "rank_in_cluster": 5}

>  <energy>  (74) 
-8.24

>  <cluster_rmsd>  (74) 
0.13

>  <cluster>  (74) 
3

$$$$

     RDKit          3D

 70 74  0  0  0  0  0  0  0  0999 V2000
  137.2770   81.9290  225.8440 C   0  0  0  0  0  0  0  0  0  0  0  0
  137.0680   80.8070  224.8250 C   0  0  0  0  0  0  0  0  0  0  0  0
  137.8900   80.9480  223.6300 C   0  0  0  0  0  0  0  0  0  0  0  0
  137.9520   82.0930  223.0660 O   0  0  0  0  0  0  0  0  0  0  0  0
  138.6500   79.9240  223.0070 N   0  0  0  0  0  0  0  0  0  0  0  0
  140.0790   80.1370  222.9930 C   0  0  0  0  0  0  0  0  0  0  0  0
  140.8870   79.3950  223.8400 C   0  0  0  0  0  0  0  0  0  0  0  0
  142.2700   79.5620  223.8690 C   0  0  0  0  0  0  0  0  0  0  0  0
  142.8130   80.4950  223.0210 C   0  0  0  0  0  0  0  0  0  0  0  0
  142.0270   81.2520  222.1600 C   0  0  0  0  0  0  0  0  0  0  0  0
  140.6510   81.0670  222.1510 C   0  0  0  0  0  0  0  0  0  0  0  0
  138.1050   78.7420  222.4100 C   0  0  0  0  0  0  0  0  0  0  0  0
  138.4390   77.4570  223.0810 C   0  0  0  0  0  0  0  0  0  0  0  0
  139.4180   76.5800  222.2720 C   0  0  0  0  0  0  0  0  0  0  0  0
  138.6730   76.2020  221.0930 N   0  0  0  0  0  0  0  0  0  0  0  0
  138.6910   74.9230  220.4860 C   0  0  0  0  0  0  0  0  0  0  0  0
  137.9260   74.7890  219.4740 O   0  0  0  0  0  0  0  0  0  0  0  0
  139.4880   73.7760  220.9110 C   0  0  2  0  0  0  0  0  0  0  0  0
  139.6290   73.6960  222.2980 N   0  0  0  0  0  0  0  0  0  0  0  0
  140.8110   73.6150  220.1680 C   0  0  1  0  0  0  0  0  0  0  0  0
  140.6560   74.2290  218.7970 C   0  0  0  0  0  0  0  0  0  0  0  0
  141.0160   75.6370  218.9420 C   0  0  0  0  0  0  0  0  0  0  0  0
  140.7470   76.7170  218.1260 C   0  0  0  0  0  0  0  0  0  0  0  0
  141.2210   77.9580  218.5030 C   0  0  0  0  0  0  0  0  0  0  0  0
  141.9380   78.1510  219.6430 C   0  0  0  0  0  0  0  0  0  0  0  0
  142.1920   77.0360  220.4440 C   0  0  0  0  0  0  0  0  0  0  0  0
  141.7280   75.7740  220.0920 C   0  0  0  0  0  0  0  0  0  0  0  0
  141.8720   74.4540  220.8030 C   0  0  2  0  0  0  0  0  0  0  0  0
  143.2370   73.9110  220.6280 C   0  0  0  0  0  0  0  0  0  0  0  0
  144.3780   74.6380  220.4730 C   0  0  0  0  0  0  0  0  0  0  0  0
  145.5860   73.9870  220.3290 C   0  0  0  0  0  0  0  0  0  0  0  0
  145.6570   72.6100  220.3380 C   0  0  0  0  0  0  0  0  0  0  0  0
  144.5280   71.8920  220.4910 N   0  0  0  0  0  0  0  0  0  0  0  0
  143.3600   72.5280  220.6320 C   0  0  0  0  0  0  0  0  0  0  0  0
  137.8490   77.2760  220.5030 C   0  0  0  0  0  0  0  0  0  0  0  0
  138.3760   78.6320  220.9220 C   0  0  0  0  0  0  0  0  0  0  0  0
  137.2006   81.5189  226.8618 H   0  0  0  0  0  0  0  0  0  0  0  0
  138.2733   82.3729  225.7014 H   0  0  0  0  0  0  0  0  0  0  0  0
  136.5074   82.7019  225.7014 H   0  0  0  0  0  0  0  0  0  0  0  0
  137.3143   79.8490  225.3062 H   0  0  0  0  0  0  0  0  0  0  0  0
  136.0172   80.8534  224.5029 H   0  0  0  0  0  0  0  0  0  0  0  0
  140.4237   78.6538  224.5078 H   0  0  0  0  0  0  0  0  0  0  0  0
  142.9026   78.9688  224.5457 H   0  0  0  0  0  0  0  0  0  0  0  0
  143.9023   80.6481  223.0229 H   0  0  0  0  0  0  0  0  0  0  0  0
  142.4914   81.9916  221.4912 H   0  0  0  0  0  0  0  0  0  0  0  0
  140.0190   81.6607  221.4741 H   0  0  0  0  0  0  0  0  0  0  0  0
  137.0268   78.8945  222.5658 H   0  0  0  0  0  0  0  0  0  0  0  0
  138.8959   77.6812  224.0562 H   0  0  0  0  0  0  0  0  0  0  0  0
  137.5019   76.8898  223.1817 H   0  0  0  0  0  0  0  0  0  0  0  0
  140.3168   77.1517  221.9976 H   0  0  0  0  0  0  0  0  0  0  0  0
  139.7692   75.7079  222.8431 H   0  0  0  0  0  0  0  0  0  0  0  0
  138.8947   72.9005  220.6085 H   0  0  0  0  0  0  0  0  0  0  0  0
  138.9000   74.1060  222.8650 H   0  0  0  0  0  0  0  0  0  0  0  0
  140.5250   73.5410  222.7250 H   0  0  0  0  0  0  0  0  0  0  0  0
  141.0696   72.5458  220.1640 H   0  0  0  0  0  0  0  0  0  0  0  0
  141.3274   73.7351  218.0791 H   0  0  0  0  0  0  0  0  0  0  0  0
  139.6299   74.1130  218.4179 H   0  0  0  0  0  0  0  0  0  0  0  0
  140.1693   76.5924  217.1983 H   0  0  0  0  0  0  0  0  0  0  0  0
  141.0109   78.8233  217.8571 H   0  0  0  0  0  0  0  0  0  0  0  0
  142.3044   79.1495  219.9235 H   0  0  0  0  0  0  0  0  0  0  0  0
  142.7705   77.1587  221.3715 H   0  0  0  0  0  0  0  0  0  0  0  0
  141.7462   74.5100  221.8943 H   0  0  0  0  0  0  0  0  0  0  0  0
  144.3369   75.7372  220.4627 H   0  0  0  0  0  0  0  0  0  0  0  0
  146.5069   74.5758  220.2051 H   0  0  0  0  0  0  0  0  0  0  0  0
  146.6262   72.1030  220.2214 H   0  0  0  0  0  0  0  0  0  0  0  0
  142.4493   71.9240  220.7577 H   0  0  0  0  0  0  0  0  0  0  0  0
  137.8810   77.1972  219.4063 H   0  0  0  0  0  0  0  0  0  0  0  0
  136.8134   77.1689  220.8581 H   0  0  0  0  0  0  0  0  0  0  0  0
  139.4558   78.7007  220.7237 H   0  0  0  0  0  0  0  0  0  0  0  0
  137.8901   79.4446  220.3620 H   0  0  0  0  0  0  0  0  0  0  0  0
  1  2  1  0
  2  3  1  0
  3  4  2  0
  3  5  1  0
  5  6  1  0
  6  7  2  0
  7  8  1  0
  8  9  2  0
  9 10  1  0
 10 11  2  0
  5 12  1  0
 12 13  1  0
 13 14  1  0
 14 15  1  0
 15 16  1  0
 16 17  2  0
 16 18  1  0
 18 19  1  0
 18 20  1  0
 20 21  1  0
 21 22  1  0
 22 23  2  0
 23 24  1  0
 24 25  2  0
 25 26  1  0
 26 27  2  0
 27 28  1  0
 28 29  1  0
 29 30  2  0
 30 31  1  0
 31 32  2  0
 32 33  1  0
 33 34  2  0
 15 35  1  0
 35 36  1  0
 11  6  1  0
 36 12  1  0
 28 20  1  0
 34 29  1  0
 27 22  1  0
  1 37  1  0
  1 38  1  0
  1 39  1  0
  2 40  1  0
  2 41  1  0
  7 42  1  0
  8 43  1  0
  9 44  1  0
 10 45  1  0
 11 46  1  0
 12 47  1  0
 13 48  1  0
 13 49  1  0
 14 50  1  0
 14 51  1  0
 18 52  1  6
 19 53  1  0
 19 54  1  0
 20 55  1  6
 21 56  1  0
 21 57  1  0
 23 58  1  0
 24 59  1  0
 25 60  1  0
 26 61  1  0
 28 62  1  1
 30 63  1  0
 31 64  1  0
 32 65  1  0
 34 66  1  0
 35 67  1  0
 35 68  1  0
 36 69  1  0
 36 70  1  0
M  END
>  <smiles>  (75) 
CCC(=O)N(c1ccccc1)C1CCN(C(=O)[C@H](N)C2Cc3ccccc3C2c2cccnc2)CC1

>  <score_type>  (75) 
oracle

>  <origin>  (75) 
autodockgpu

>  <m_score__min__energy>  (75) 
-9.3300000000000001

>  <m_primary>  (75) 
energy

>  <rmsd>  (75) 
6.003044773137737

>  <m_score__min__rmsd>  (75) 
6.003044773137737

>  <meeko>  (75) 
{"free_energy": -7.64, "intermolecular_energy": -10.02, "internal_energy": -3.31, "cluster_size": 15, "cluster_id": 5, "rank_in_cluster": 4}

>  <energy>  (75) 
-8.19

>  <cluster_rmsd>  (75) 
0.28

>  <cluster>  (75) 
3

$$$$

     RDKit          3D

 70 74  0  0  0  0  0  0  0  0999 V2000
  146.6810   73.3920  221.9620 C   0  0  0  0  0  0  0  0  0  0  0  0
  145.6980   73.9610  220.9370 C   0  0  0  0  0  0  0  0  0  0  0  0
  145.4510   73.0700  219.8120 C   0  0  0  0  0  0  0  0  0  0  0  0
  146.3050   73.0390  218.8610 O   0  0  0  0  0  0  0  0  0  0  0  0
  144.3340   72.2080  219.6510 N   0  0  0  0  0  0  0  0  0  0  0  0
  144.6560   70.8310  219.3540 C   0  0  0  0  0  0  0  0  0  0  0  0
  145.5220   70.5430  218.3120 C   0  0  0  0  0  0  0  0  0  0  0  0
  145.8650   69.2330  217.9810 C   0  0  0  0  0  0  0  0  0  0  0  0
  145.3100   68.2260  218.7300 C   0  0  0  0  0  0  0  0  0  0  0  0
  144.4380   68.4860  219.7820 C   0  0  0  0  0  0  0  0  0  0  0  0
  144.1130   69.8000  220.0900 C   0  0  0  0  0  0  0  0  0  0  0  0
  142.9630   72.6090  219.7550 C   0  0  0  0  0  0  0  0  0  0  0  0
  142.7040   74.0720  219.7040 C   0  0  0  0  0  0  0  0  0  0  0  0
  142.2620   74.6640  221.0590 C   0  0  0  0  0  0  0  0  0  0  0  0
  140.9710   74.0650  221.3090 N   0  0  0  0  0  0  0  0  0  0  0  0
  139.8480   74.7350  221.8540 C   0  0  0  0  0  0  0  0  0  0  0  0
  138.7890   74.0290  221.9540 O   0  0  0  0  0  0  0  0  0  0  0  0
  139.8010   76.1250  222.2950 C   0  0  2  0  0  0  0  0  0  0  0  0
  138.6860   76.4070  223.0880 N   0  0  0  0  0  0  0  0  0  0  0  0
  140.0160   77.1480  221.1850 C   0  0  1  0  0  0  0  0  0  0  0  0
  139.2830   78.4130  221.5650 C   0  0  0  0  0  0  0  0  0  0  0  0
  140.2260   79.2060  222.3500 C   0  0  0  0  0  0  0  0  0  0  0  0
  140.0050   80.2610  223.2110 C   0  0  0  0  0  0  0  0  0  0  0  0
  141.0950   80.8440  223.8270 C   0  0  0  0  0  0  0  0  0  0  0  0
  142.3700   80.4150  223.6160 C   0  0  0  0  0  0  0  0  0  0  0  0
  142.5550   79.3460  222.7390 C   0  0  0  0  0  0  0  0  0  0  0  0
  141.4790   78.7380  222.1030 C   0  0  0  0  0  0  0  0  0  0  0  0
  141.4470   77.5790  221.1420 C   0  0  2  0  0  0  0  0  0  0  0  0
  141.8950   78.0010  219.7970 C   0  0  0  0  0  0  0  0  0  0  0  0
  142.5390   77.2220  218.8830 C   0  0  0  0  0  0  0  0  0  0  0  0
  142.8890   77.7560  217.6600 C   0  0  0  0  0  0  0  0  0  0  0  0
  142.5980   79.0670  217.3470 C   0  0  0  0  0  0  0  0  0  0  0  0
  141.9630   79.8360  218.2510 N   0  0  0  0  0  0  0  0  0  0  0  0
  141.6250   79.3140  219.4350 C   0  0  0  0  0  0  0  0  0  0  0  0
  140.8680   72.6330  220.9620 C   0  0  0  0  0  0  0  0  0  0  0  0
  142.2410   71.9990  220.9420 C   0  0  0  0  0  0  0  0  0  0  0  0
  146.3152   73.6037  222.9776 H   0  0  0  0  0  0  0  0  0  0  0  0
  146.7673   72.3043  221.8227 H   0  0  0  0  0  0  0  0  0  0  0  0
  147.6672   73.8589  221.8227 H   0  0  0  0  0  0  0  0  0  0  0  0
  144.7411   74.1560  221.4433 H   0  0  0  0  0  0  0  0  0  0  0  0
  146.1494   74.8780  220.5303 H   0  0  0  0  0  0  0  0  0  0  0  0
  145.9512   71.3714  217.7292 H   0  0  0  0  0  0  0  0  0  0  0  0
  146.5539   69.0150  217.1516 H   0  0  0  0  0  0  0  0  0  0  0  0
  145.5622   67.1822  218.4914 H   0  0  0  0  0  0  0  0  0  0  0  0
  144.0095   67.6574  220.3650 H   0  0  0  0  0  0  0  0  0  0  0  0
  143.4239   70.0178  220.9193 H   0  0  0  0  0  0  0  0  0  0  0  0
  142.5412   72.1942  218.8277 H   0  0  0  0  0  0  0  0  0  0  0  0
  143.6274   74.5787  219.3867 H   0  0  0  0  0  0  0  0  0  0  0  0
  141.8779   74.2309  218.9953 H   0  0  0  0  0  0  0  0  0  0  0  0
  142.9755   74.3961  221.8521 H   0  0  0  0  0  0  0  0  0  0  0  0
  142.2181   75.7630  221.0421 H   0  0  0  0  0  0  0  0  0  0  0  0
  140.6805   76.2374  222.9460 H   0  0  0  0  0  0  0  0  0  0  0  0
  138.0930   75.6320  223.3500 H   0  0  0  0  0  0  0  0  0  0  0  0
  138.2980   77.3320  223.1340 H   0  0  0  0  0  0  0  0  0  0  0  0
  139.6865   76.6952  220.2382 H   0  0  0  0  0  0  0  0  0  0  0  0
  138.9790   78.9640  220.6628 H   0  0  0  0  0  0  0  0  0  0  0  0
  138.3694   78.1924  222.1365 H   0  0  0  0  0  0  0  0  0  0  0  0
  138.9861   80.6287  223.4021 H   0  0  0  0  0  0  0  0  0  0  0  0
  140.9269   81.6866  224.5139 H   0  0  0  0  0  0  0  0  0  0  0  0
  143.2231   80.8940  224.1188 H   0  0  0  0  0  0  0  0  0  0  0  0
  143.5732   78.9767  222.5469 H   0  0  0  0  0  0  0  0  0  0  0  0
  142.1274   76.7549  221.4026 H   0  0  0  0  0  0  0  0  0  0  0  0
  142.7782   76.1745  219.1187 H   0  0  0  0  0  0  0  0  0  0  0  0
  143.4084   77.1260  216.9229 H   0  0  0  0  0  0  0  0  0  0  0  0
  142.8821   79.4804  216.3680 H   0  0  0  0  0  0  0  0  0  0  0  0
  141.1060   79.9584  220.1598 H   0  0  0  0  0  0  0  0  0  0  0  0
  140.2431   72.1223  221.7094 H   0  0  0  0  0  0  0  0  0  0  0  0
  140.4147   72.5377  219.9643 H   0  0  0  0  0  0  0  0  0  0  0  0
  142.7798   72.2235  221.8743 H   0  0  0  0  0  0  0  0  0  0  0  0
  142.1792   70.9039  220.8581 H   0  0  0  0  0  0  0  0  0  0  0  0
  1  2  1  0
  2  3  1  0
  3  4  2  0
  3  5  1  0
  5  6  1  0
  6  7  2  0
  7  8  1  0
  8  9  2  0
  9 10  1  0
 10 11  2  0
  5 12  1  0
 12 13  1  0
 13 14  1  0
 14 15  1  0
 15 16  1  0
 16 17  2  0
 16 18  1  0
 18 19  1  0
 18 20  1  0
 20 21  1  0
 21 22  1  0
 22 23  2  0
 23 24  1  0
 24 25  2  0
 25 26  1  0
 26 27  2  0
 27 28  1  0
 28 29  1  0
 29 30  2  0
 30 31  1  0
 31 32  2  0
 32 33  1  0
 33 34  2  0
 15 35  1  0
 35 36  1  0
 11  6  1  0
 36 12  1  0
 28 20  1  0
 34 29  1  0
 27 22  1  0
  1 37  1  0
  1 38  1  0
  1 39  1  0
  2 40  1  0
  2 41  1  0
  7 42  1  0
  8 43  1  0
  9 44  1  0
 10 45  1  0
 11 46  1  0
 12 47  1  0
 13 48  1  0
 13 49  1  0
 14 50  1  0
 14 51  1  0
 18 52  1  1
 19 53  1  0
 19 54  1  0
 20 55  1  6
 21 56  1  0
 21 57  1  0
 23 58  1  0
 24 59  1  0
 25 60  1  0
 26 61  1  0
 28 62  1  1
 30 63  1  0
 31 64  1  0
 32 65  1  0
 34 66  1  0
 35 67  1  0
 35 68  1  0
 36 69  1  0
 36 70  1  0
M  END
>  <smiles>  (76) 
CCC(=O)N(c1ccccc1)C1CCN(C(=O)[C@H](N)C2Cc3ccccc3C2c2cccnc2)CC1

>  <score_type>  (76) 
oracle

>  <origin>  (76) 
autodockgpu

>  <m_score__min__energy>  (76) 
-9.3300000000000001

>  <m_primary>  (76) 
energy

>  <rmsd>  (76) 
4.3429636882498786

>  <m_score__min__rmsd>  (76) 
4.3429636882498786

>  <meeko>  (76) 
{"free_energy": -9.21, "intermolecular_energy": -11.6, "internal_energy": -2.7, "cluster_size": 17, "cluster_id": 1, "rank_in_cluster": 6}

>  <energy>  (76) 
-8.12

>  <cluster_rmsd>  (76) 
0.33

>  <cluster>  (76) 
3

$$$$

     RDKit          3D

 70 74  0  0  0  0  0  0  0  0999 V2000
  145.5670   74.5020  220.8410 C   0  0  0  0  0  0  0  0  0  0  0  0
  145.8360   73.0000  220.7370 C   0  0  0  0  0  0  0  0  0  0  0  0
  145.3000   72.3970  219.5230 C   0  0  0  0  0  0  0  0  0  0  0  0
  145.9090   72.6060  218.4200 O   0  0  0  0  0  0  0  0  0  0  0  0
  144.1420   71.5820  219.4310 N   0  0  0  0  0  0  0  0  0  0  0  0
  144.3920   70.1820  219.1690 C   0  0  0  0  0  0  0  0  0  0  0  0
  145.6690   69.6740  219.3450 C   0  0  0  0  0  0  0  0  0  0  0  0
  145.9660   68.3340  219.1060 C   0  0  0  0  0  0  0  0  0  0  0  0
  144.9410   67.5240  218.6860 C   0  0  0  0  0  0  0  0  0  0  0  0
  143.6500   68.0070  218.5020 C   0  0  0  0  0  0  0  0  0  0  0  0
  143.3800   69.3460  218.7470 C   0  0  0  0  0  0  0  0  0  0  0  0
  142.7940   72.0460  219.5710 C   0  0  0  0  0  0  0  0  0  0  0  0
  142.6030   73.5200  219.5310 C   0  0  0  0  0  0  0  0  0  0  0  0
  142.2220   74.1260  220.8980 C   0  0  0  0  0  0  0  0  0  0  0  0
  140.9110   73.5880  221.1780 N   0  0  0  0  0  0  0  0  0  0  0  0
  139.8340   74.3060  221.7520 C   0  0  0  0  0  0  0  0  0  0  0  0
  138.7470   73.6510  221.8760 O   0  0  0  0  0  0  0  0  0  0  0  0
  139.8640   75.6950  222.2000 C   0  0  2  0  0  0  0  0  0  0  0  0
  138.8080   76.0140  223.0560 N   0  0  0  0  0  0  0  0  0  0  0  0
  140.0520   76.7160  221.0810 C   0  0  1  0  0  0  0  0  0  0  0  0
  139.2280   77.9360  221.4170 C   0  0  0  0  0  0  0  0  0  0  0  0
  140.0900   78.7980  222.2210 C   0  0  0  0  0  0  0  0  0  0  0  0
  139.7730   79.8480  223.0580 C   0  0  0  0  0  0  0  0  0  0  0  0
  140.8020   80.5070  223.7010 C   0  0  0  0  0  0  0  0  0  0  0  0
  142.1080   80.1580  223.5400 C   0  0  0  0  0  0  0  0  0  0  0  0
  142.3910   79.0920  222.6860 C   0  0  0  0  0  0  0  0  0  0  0  0
  141.3780   78.4080  222.0240 C   0  0  0  0  0  0  0  0  0  0  0  0
  141.4530   77.2370  221.0800 C   0  0  2  0  0  0  0  0  0  0  0  0
  141.9200   77.6690  219.7450 C   0  0  0  0  0  0  0  0  0  0  0  0
  142.5570   76.8910  218.8250 C   0  0  0  0  0  0  0  0  0  0  0  0
  142.9270   77.4350  217.6120 C   0  0  0  0  0  0  0  0  0  0  0  0
  142.6620   78.7550  217.3150 C   0  0  0  0  0  0  0  0  0  0  0  0
  142.0330   79.5220  218.2240 N   0  0  0  0  0  0  0  0  0  0  0  0
  141.6760   78.9900  219.3980 C   0  0  0  0  0  0  0  0  0  0  0  0
  140.7320   72.1640  220.8280 C   0  0  0  0  0  0  0  0  0  0  0  0
  142.0730   71.4650  220.7720 C   0  0  0  0  0  0  0  0  0  0  0  0
  145.5149   74.7927  221.9006 H   0  0  0  0  0  0  0  0  0  0  0  0
  146.3804   75.0551  220.3486 H   0  0  0  0  0  0  0  0  0  0  0  0
  144.6122   74.7385  220.3486 H   0  0  0  0  0  0  0  0  0  0  0  0
  146.9240   72.8389  220.7549 H   0  0  0  0  0  0  0  0  0  0  0  0
  145.3297   72.5205  221.5877 H   0  0  0  0  0  0  0  0  0  0  0  0
  146.4705   70.3474  219.6828 H   0  0  0  0  0  0  0  0  0  0  0  0
  146.9832   67.9403  219.2485 H   0  0  0  0  0  0  0  0  0  0  0  0
  145.1466   66.4615  218.4891 H   0  0  0  0  0  0  0  0  0  0  0  0
  142.8489   67.3328  218.1648 H   0  0  0  0  0  0  0  0  0  0  0  0
  142.3624   69.7389  218.6050 H   0  0  0  0  0  0  0  0  0  0  0  0
  142.3304   71.6550  218.6533 H   0  0  0  0  0  0  0  0  0  0  0  0
  143.5413   73.9841  219.1932 H   0  0  0  0  0  0  0  0  0  0  0  0
  141.7685   73.7207  218.8430 H   0  0  0  0  0  0  0  0  0  0  0  0
  142.9411   73.8213  221.6726 H   0  0  0  0  0  0  0  0  0  0  0  0
  142.2293   75.2259  220.8852 H   0  0  0  0  0  0  0  0  0  0  0  0
  140.7828   75.7711  222.8001 H   0  0  0  0  0  0  0  0  0  0  0  0
  138.0880   75.3180  223.1860 H   0  0  0  0  0  0  0  0  0  0  0  0
  138.5860   76.9680  223.2800 H   0  0  0  0  0  0  0  0  0  0  0  0
  139.7848   76.2308  220.1306 H   0  0  0  0  0  0  0  0  0  0  0  0
  138.9209   78.4546  220.4968 H   0  0  0  0  0  0  0  0  0  0  0  0
  138.3113   77.6644  221.9610 H   0  0  0  0  0  0  0  0  0  0  0  0
  138.7269   80.1525  223.2093 H   0  0  0  0  0  0  0  0  0  0  0  0
  140.5571   81.3461  224.3689 H   0  0  0  0  0  0  0  0  0  0  0  0
  142.9109   80.6970  224.0643 H   0  0  0  0  0  0  0  0  0  0  0  0
  143.4367   78.7865  222.5334 H   0  0  0  0  0  0  0  0  0  0  0  0
  142.1749   76.4616  221.3760 H   0  0  0  0  0  0  0  0  0  0  0  0
  142.7748   75.8361  219.0480 H   0  0  0  0  0  0  0  0  0  0  0  0
  143.4413   76.8058  216.8706 H   0  0  0  0  0  0  0  0  0  0  0  0
  142.9619   79.1769  216.3444 H   0  0  0  0  0  0  0  0  0  0  0  0
  141.1618   79.6337  220.1269 H   0  0  0  0  0  0  0  0  0  0  0  0
  140.1017   71.6798  221.5884 H   0  0  0  0  0  0  0  0  0  0  0  0
  140.2510   72.0955  219.8411 H   0  0  0  0  0  0  0  0  0  0  0  0
  142.6442   71.6586  221.6919 H   0  0  0  0  0  0  0  0  0  0  0  0
  141.9570   70.3746  220.6852 H   0  0  0  0  0  0  0  0  0  0  0  0
  1  2  1  0
  2  3  1  0
  3  4  2  0
  3  5  1  0
  5  6  1  0
  6  7  2  0
  7  8  1  0
  8  9  2  0
  9 10  1  0
 10 11  2  0
  5 12  1  0
 12 13  1  0
 13 14  1  0
 14 15  1  0
 15 16  1  0
 16 17  2  0
 16 18  1  0
 18 19  1  0
 18 20  1  0
 20 21  1  0
 21 22  1  0
 22 23  2  0
 23 24  1  0
 24 25  2  0
 25 26  1  0
 26 27  2  0
 27 28  1  0
 28 29  1  0
 29 30  2  0
 30 31  1  0
 31 32  2  0
 32 33  1  0
 33 34  2  0
 15 35  1  0
 35 36  1  0
 11  6  1  0
 36 12  1  0
 28 20  1  0
 34 29  1  0
 27 22  1  0
  1 37  1  0
  1 38  1  0
  1 39  1  0
  2 40  1  0
  2 41  1  0
  7 42  1  0
  8 43  1  0
  9 44  1  0
 10 45  1  0
 11 46  1  0
 12 47  1  0
 13 48  1  0
 13 49  1  0
 14 50  1  0
 14 51  1  0
 18 52  1  1
 19 53  1  0
 19 54  1  0
 20 55  1  6
 21 56  1  0
 21 57  1  0
 23 58  1  0
 24 59  1  0
 25 60  1  0
 26 61  1  0
 28 62  1  1
 30 63  1  0
 31 64  1  0
 32 65  1  0
 34 66  1  0
 35 67  1  0
 35 68  1  0
 36 69  1  0
 36 70  1  0
M  END
>  <smiles>  (77) 
CCC(=O)N(c1ccccc1)C1CCN(C(=O)[C@H](N)C2Cc3ccccc3C2c2cccnc2)CC1

>  <score_type>  (77) 
oracle

>  <origin>  (77) 
autodockgpu

>  <m_score__min__energy>  (77) 
-9.3300000000000001

>  <m_primary>  (77) 
energy

>  <rmsd>  (77) 
4.642487671781045

>  <m_score__min__rmsd>  (77) 
4.642487671781045

>  <meeko>  (77) 
{"free_energy": -8.44, "intermolecular_energy": -10.83, "internal_energy": -3.14, "cluster_size": 17, "cluster_id": 1, "rank_in_cluster": 14}

>  <energy>  (77) 
-8.05

>  <cluster_rmsd>  (77) 
1.67

>  <cluster>  (77) 
3

$$$$

     RDKit          3D

 70 74  0  0  0  0  0  0  0  0999 V2000
  141.8640   78.6140  224.2130 C   0  0  0  0  0  0  0  0  0  0  0  0
  142.3160   80.0100  223.7800 C   0  0  0  0  0  0  0  0  0  0  0  0
  141.3080   80.7370  223.0190 C   0  0  0  0  0  0  0  0  0  0  0  0
  141.3990   82.0100  222.9500 O   0  0  0  0  0  0  0  0  0  0  0  0
  140.2060   80.1700  222.3270 N   0  0  0  0  0  0  0  0  0  0  0  0
  138.9380   80.2490  223.0160 C   0  0  0  0  0  0  0  0  0  0  0  0
  137.8230   79.6390  222.4630 C   0  0  0  0  0  0  0  0  0  0  0  0
  136.5760   79.6850  223.0830 C   0  0  0  0  0  0  0  0  0  0  0  0
  136.4870   80.3620  224.2740 C   0  0  0  0  0  0  0  0  0  0  0  0
  137.5890   80.9820  224.8520 C   0  0  0  0  0  0  0  0  0  0  0  0
  138.8200   80.9210  224.2130 C   0  0  0  0  0  0  0  0  0  0  0  0
  140.2750   79.5440  221.0410 C   0  0  0  0  0  0  0  0  0  0  0  0
  140.6120   78.0960  221.0350 C   0  0  0  0  0  0  0  0  0  0  0  0
  142.0240   77.7970  220.4900 C   0  0  0  0  0  0  0  0  0  0  0  0
  141.9580   78.1700  219.0950 N   0  0  0  0  0  0  0  0  0  0  0  0
  142.5480   77.4530  218.0260 C   0  0  0  0  0  0  0  0  0  0  0  0
  142.3340   77.9350  216.8640 O   0  0  0  0  0  0  0  0  0  0  0  0
  143.3560   76.2430  218.1380 C   0  0  2  0  0  0  0  0  0  0  0  0
  144.0850   75.9650  216.9800 N   0  0  0  0  0  0  0  0  0  0  0  0
  142.6050   75.0290  218.6740 C   0  0  1  0  0  0  0  0  0  0  0  0
  143.2280   73.7900  218.0760 C   0  0  0  0  0  0  0  0  0  0  0  0
  144.3080   73.4040  218.9810 C   0  0  0  0  0  0  0  0  0  0  0  0
  145.3940   72.5780  218.7750 C   0  0  0  0  0  0  0  0  0  0  0  0
  146.2710   72.3750  219.8210 C   0  0  0  0  0  0  0  0  0  0  0  0
  146.1030   72.9590  221.0390 C   0  0  0  0  0  0  0  0  0  0  0  0
  144.9940   73.7880  221.2110 C   0  0  0  0  0  0  0  0  0  0  0  0
  144.0920   74.0120  220.1780 C   0  0  0  0  0  0  0  0  0  0  0  0
  142.8520   74.8660  220.1390 C   0  0  2  0  0  0  0  0  0  0  0  0
  141.7390   74.2060  220.8550 C   0  0  0  0  0  0  0  0  0  0  0  0
  141.5090   72.8650  220.9230 C   0  0  0  0  0  0  0  0  0  0  0  0
  140.4280   72.3940  221.6400 C   0  0  0  0  0  0  0  0  0  0  0  0
  139.5760   73.2610  222.2910 C   0  0  0  0  0  0  0  0  0  0  0  0
  139.8040   74.5860  222.2240 N   0  0  0  0  0  0  0  0  0  0  0  0
  140.8530   75.0370  221.5280 C   0  0  0  0  0  0  0  0  0  0  0  0
  141.2120   79.4140  218.8150 C   0  0  0  0  0  0  0  0  0  0  0  0
  141.1590   80.2820  220.0530 C   0  0  0  0  0  0  0  0  0  0  0  0
  141.8461   78.5587  225.3115 H   0  0  0  0  0  0  0  0  0  0  0  0
  140.8560   78.4165  223.8194 H   0  0  0  0  0  0  0  0  0  0  0  0
  142.5649   77.8631  223.8194 H   0  0  0  0  0  0  0  0  0  0  0  0
  142.5593   80.5923  224.6809 H   0  0  0  0  0  0  0  0  0  0  0  0
  143.1867   79.8784  223.1208 H   0  0  0  0  0  0  0  0  0  0  0  0
  137.9254   79.1034  221.5077 H   0  0  0  0  0  0  0  0  0  0  0  0
  135.6971   79.1978  222.6356 H   0  0  0  0  0  0  0  0  0  0  0  0
  135.5150   80.4155  224.7862 H   0  0  0  0  0  0  0  0  0  0  0  0
  137.4864   81.5166  225.8079 H   0  0  0  0  0  0  0  0  0  0  0  0
  139.6987   81.4078  224.6611 H   0  0  0  0  0  0  0  0  0  0  0  0
  139.2291   79.6133  220.7072 H   0  0  0  0  0  0  0  0  0  0  0  0
  140.5496   77.7194  222.0666 H   0  0  0  0  0  0  0  0  0  0  0  0
  139.8941   77.5986  220.3662 H   0  0  0  0  0  0  0  0  0  0  0  0
  142.7800   78.3969  221.0179 H   0  0  0  0  0  0  0  0  0  0  0  0
  142.3128   76.7447  220.6292 H   0  0  0  0  0  0  0  0  0  0  0  0
  144.0943   76.4769  218.9192 H   0  0  0  0  0  0  0  0  0  0  0  0
  145.0060   75.5680  217.0930 H   0  0  0  0  0  0  0  0  0  0  0  0
  143.8710   76.4140  216.1070 H   0  0  0  0  0  0  0  0  0  0  0  0
  141.5380   75.1619  218.4420 H   0  0  0  0  0  0  0  0  0  0  0  0
  142.4828   72.9840  218.0049 H   0  0  0  0  0  0  0  0  0  0  0  0
  143.6031   73.9788  217.0593 H   0  0  0  0  0  0  0  0  0  0  0  0
  145.5567   72.0933  217.8010 H   0  0  0  0  0  0  0  0  0  0  0  0
  147.1382   71.7166  219.6646 H   0  0  0  0  0  0  0  0  0  0  0  0
  146.8159   72.7837  221.8582 H   0  0  0  0  0  0  0  0  0  0  0  0
  144.8304   74.2741  222.1841 H   0  0  0  0  0  0  0  0  0  0  0  0
  142.9536   75.8378  220.6443 H   0  0  0  0  0  0  0  0  0  0  0  0
  142.1810   72.1617  220.4094 H   0  0  0  0  0  0  0  0  0  0  0  0
  140.2433   71.3109  221.6930 H   0  0  0  0  0  0  0  0  0  0  0  0
  138.7179   72.8735  222.8598 H   0  0  0  0  0  0  0  0  0  0  0  0
  141.0230   76.1230  221.4864 H   0  0  0  0  0  0  0  0  0  0  0  0
  141.7147   79.9648  218.0064 H   0  0  0  0  0  0  0  0  0  0  0  0
  140.1860   79.1567  218.5131 H   0  0  0  0  0  0  0  0  0  0  0  0
  142.1682   80.4169  220.4692 H   0  0  0  0  0  0  0  0  0  0  0  0
  140.7638   81.2835  219.8274 H   0  0  0  0  0  0  0  0  0  0  0  0
  1  2  1  0
  2  3  1  0
  3  4  2  0
  3  5  1  0
  5  6  1  0
  6  7  2  0
  7  8  1  0
  8  9  2  0
  9 10  1  0
 10 11  2  0
  5 12  1  0
 12 13  1  0
 13 14  1  0
 14 15  1  0
 15 16  1  0
 16 17  2  0
 16 18  1  0
 18 19  1  0
 18 20  1  0
 20 21  1  0
 21 22  1  0
 22 23  2  0
 23 24  1  0
 24 25  2  0
 25 26  1  0
 26 27  2  0
 27 28  1  0
 28 29  1  0
 29 30  2  0
 30 31  1  0
 31 32  2  0
 32 33  1  0
 33 34  2  0
 15 35  1  0
 35 36  1  0
 11  6  1  0
 36 12  1  0
 28 20  1  0
 34 29  1  0
 27 22  1  0
  1 37  1  0
  1 38  1  0
  1 39  1  0
  2 40  1  0
  2 41  1  0
  7 42  1  0
  8 43  1  0
  9 44  1  0
 10 45  1  0
 11 46  1  0
 12 47  1  0
 13 48  1  0
 13 49  1  0
 14 50  1  0
 14 51  1  0
 18 52  1  1
 19 53  1  0
 19 54  1  0
 20 55  1  1
 21 56  1  0
 21 57  1  0
 23 58  1  0
 24 59  1  0
 25 60  1  0
 26 61  1  0
 28 62  1  1
 30 63  1  0
 31 64  1  0
 32 65  1  0
 34 66  1  0
 35 67  1  0
 35 68  1  0
 36 69  1  0
 36 70  1  0
M  END
>  <smiles>  (78) 
CCC(=O)N(c1ccccc1)C1CCN(C(=O)[C@H](N)C2Cc3ccccc3C2c2cccnc2)CC1

>  <score_type>  (78) 
oracle

>  <origin>  (78) 
autodockgpu

>  <m_score__min__energy>  (78) 
-9.3300000000000001

>  <m_primary>  (78) 
energy

>  <rmsd>  (78) 
7.297848334527563

>  <m_score__min__rmsd>  (78) 
7.297848334527563

>  <meeko>  (78) 
{"free_energy": -8.24, "intermolecular_energy": -10.63, "internal_energy": -3.12, "cluster_size": 10, "cluster_id": 3, "rank_in_cluster": 2}

>  <energy>  (78) 
-8.0

>  <cluster_rmsd>  (78) 
1.69

>  <cluster>  (78) 
3

$$$$

     RDKit          3D

 70 74  0  0  0  0  0  0  0  0999 V2000
  146.2850   73.0840  221.8040 C   0  0  0  0  0  0  0  0  0  0  0  0
  145.8300   73.8540  220.5630 C   0  0  0  0  0  0  0  0  0  0  0  0
  145.4180   72.9920  219.4630 C   0  0  0  0  0  0  0  0  0  0  0  0
  146.1020   73.0150  218.3840 O   0  0  0  0  0  0  0  0  0  0  0  0
  144.3100   72.1060  219.4590 N   0  0  0  0  0  0  0  0  0  0  0  0
  144.6350   70.7110  219.2670 C   0  0  0  0  0  0  0  0  0  0  0  0
  145.9590   70.3050  219.3350 C   0  0  0  0  0  0  0  0  0  0  0  0
  146.3290   68.9740  219.1560 C   0  0  0  0  0  0  0  0  0  0  0  0
  145.3290   68.0670  218.9070 C   0  0  0  0  0  0  0  0  0  0  0  0
  143.9940   68.4460  218.8340 C   0  0  0  0  0  0  0  0  0  0  0  0
  143.6510   69.7790  219.0160 C   0  0  0  0  0  0  0  0  0  0  0  0
  142.9420   72.4970  219.6230 C   0  0  0  0  0  0  0  0  0  0  0  0
  142.6700   73.9580  219.5720 C   0  0  0  0  0  0  0  0  0  0  0  0
  142.2840   74.5580  220.9400 C   0  0  0  0  0  0  0  0  0  0  0  0
  141.0100   73.9520  221.2540 N   0  0  0  0  0  0  0  0  0  0  0  0
  139.9080   74.6180  221.8430 C   0  0  0  0  0  0  0  0  0  0  0  0
  138.8600   73.9050  221.9970 O   0  0  0  0  0  0  0  0  0  0  0  0
  139.8700   76.0110  222.2750 C   0  0  2  0  0  0  0  0  0  0  0  0
  138.7730   76.2990  223.0900 N   0  0  0  0  0  0  0  0  0  0  0  0
  140.0610   77.0270  221.1530 C   0  0  1  0  0  0  0  0  0  0  0  0
  139.2910   78.2750  221.5150 C   0  0  0  0  0  0  0  0  0  0  0  0
  140.2090   79.1030  222.2930 C   0  0  0  0  0  0  0  0  0  0  0  0
  139.9550   80.1620  223.1400 C   0  0  0  0  0  0  0  0  0  0  0  0
  141.0260   80.7830  223.7520 C   0  0  0  0  0  0  0  0  0  0  0  0
  142.3130   80.3880  223.5510 C   0  0  0  0  0  0  0  0  0  0  0  0
  142.5310   79.3130  222.6870 C   0  0  0  0  0  0  0  0  0  0  0  0
  141.4750   78.6680  222.0560 C   0  0  0  0  0  0  0  0  0  0  0  0
  141.4790   77.4970  221.1090 C   0  0  2  0  0  0  0  0  0  0  0  0
  141.9200   77.9150  219.7610 C   0  0  0  0  0  0  0  0  0  0  0  0
  142.5430   77.1280  218.8390 C   0  0  0  0  0  0  0  0  0  0  0  0
  142.8890   77.6590  217.6130 C   0  0  0  0  0  0  0  0  0  0  0  0
  142.6140   78.9750  217.3050 C   0  0  0  0  0  0  0  0  0  0  0  0
  141.9990   79.7510  218.2170 N   0  0  0  0  0  0  0  0  0  0  0  0
  141.6650   79.2320  219.4030 C   0  0  0  0  0  0  0  0  0  0  0  0
  140.9020   72.5170  220.9220 C   0  0  0  0  0  0  0  0  0  0  0  0
  142.2780   71.8920  220.8450 C   0  0  0  0  0  0  0  0  0  0  0  0
  145.9660   73.6238  222.7078 H   0  0  0  0  0  0  0  0  0  0  0  0
  145.8348   72.0803  221.7983 H   0  0  0  0  0  0  0  0  0  0  0  0
  147.3813   72.9942  221.7983 H   0  0  0  0  0  0  0  0  0  0  0  0
  144.9792   74.4929  220.8422 H   0  0  0  0  0  0  0  0  0  0  0  0
  146.6926   74.4385  220.2105 H   0  0  0  0  0  0  0  0  0  0  0  0
  146.7387   71.0545  219.5358 H   0  0  0  0  0  0  0  0  0  0  0  0
  147.3822   68.6616  219.2120 H   0  0  0  0  0  0  0  0  0  0  0  0
  145.5922   67.0090  218.7609 H   0  0  0  0  0  0  0  0  0  0  0  0
  143.2150   67.6957  218.6336 H   0  0  0  0  0  0  0  0  0  0  0  0
  142.5974   70.0903  218.9601 H   0  0  0  0  0  0  0  0  0  0  0  0
  142.4821   72.0699  218.7196 H   0  0  0  0  0  0  0  0  0  0  0  0
  143.5746   74.4686  219.2102 H   0  0  0  0  0  0  0  0  0  0  0  0
  141.8121   74.1051  218.8994 H   0  0  0  0  0  0  0  0  0  0  0  0
  143.0346   74.3025  221.7024 H   0  0  0  0  0  0  0  0  0  0  0  0
  142.2301   75.6564  220.9150 H   0  0  0  0  0  0  0  0  0  0  0  0
  140.7634   76.1274  222.9061 H   0  0  0  0  0  0  0  0  0  0  0  0
  138.1520   75.5370  223.3200 H   0  0  0  0  0  0  0  0  0  0  0  0
  138.4240   77.2360  223.1860 H   0  0  0  0  0  0  0  0  0  0  0  0
  139.7482   76.5538  220.2105 H   0  0  0  0  0  0  0  0  0  0  0  0
  138.9747   78.8063  220.6052 H   0  0  0  0  0  0  0  0  0  0  0  0
  138.3817   78.0360  222.0859 H   0  0  0  0  0  0  0  0  0  0  0  0
  138.9254   80.5031  223.3232 H   0  0  0  0  0  0  0  0  0  0  0  0
  140.8316   81.6290  224.4276 H   0  0  0  0  0  0  0  0  0  0  0  0
  143.1504   80.8969  224.0508 H   0  0  0  0  0  0  0  0  0  0  0  0
  143.5597   78.9700  222.5023 H   0  0  0  0  0  0  0  0  0  0  0  0
  142.1812   76.6953  221.3814 H   0  0  0  0  0  0  0  0  0  0  0  0
  142.7685   76.0766  219.0705 H   0  0  0  0  0  0  0  0  0  0  0  0
  143.3920   77.0227  216.8699 H   0  0  0  0  0  0  0  0  0  0  0  0
  142.8944   79.3863  216.3241 H   0  0  0  0  0  0  0  0  0  0  0  0
  141.1618   79.8825  220.1335 H   0  0  0  0  0  0  0  0  0  0  0  0
  140.3148   72.0075  221.7002 H   0  0  0  0  0  0  0  0  0  0  0  0
  140.4053   72.4113  219.9462 H   0  0  0  0  0  0  0  0  0  0  0  0
  142.8563   72.1274  221.7506 H   0  0  0  0  0  0  0  0  0  0  0  0
  142.2200   70.7960  220.7719 H   0  0  0  0  0  0  0  0  0  0  0  0
  1  2  1  0
  2  3  1  0
  3  4  2  0
  3  5  1  0
  5  6  1  0
  6  7  2  0
  7  8  1  0
  8  9  2  0
  9 10  1  0
 10 11  2  0
  5 12  1  0
 12 13  1  0
 13 14  1  0
 14 15  1  0
 15 16  1  0
 16 17  2  0
 16 18  1  0
 18 19  1  0
 18 20  1  0
 20 21  1  0
 21 22  1  0
 22 23  2  0
 23 24  1  0
 24 25  2  0
 25 26  1  0
 26 27  2  0
 27 28  1  0
 28 29  1  0
 29 30  2  0
 30 31  1  0
 31 32  2  0
 32 33  1  0
 33 34  2  0
 15 35  1  0
 35 36  1  0
 11  6  1  0
 36 12  1  0
 28 20  1  0
 34 29  1  0
 27 22  1  0
  1 37  1  0
  1 38  1  0
  1 39  1  0
  2 40  1  0
  2 41  1  0
  7 42  1  0
  8 43  1  0
  9 44  1  0
 10 45  1  0
 11 46  1  0
 12 47  1  0
 13 48  1  0
 13 49  1  0
 14 50  1  0
 14 51  1  0
 18 52  1  1
 19 53  1  0
 19 54  1  0
 20 55  1  6
 21 56  1  0
 21 57  1  0
 23 58  1  0
 24 59  1  0
 25 60  1  0
 26 61  1  0
 28 62  1  1
 30 63  1  0
 31 64  1  0
 32 65  1  0
 34 66  1  0
 35 67  1  0
 35 68  1  0
 36 69  1  0
 36 70  1  0
M  END
>  <smiles>  (79) 
CCC(=O)N(c1ccccc1)C1CCN(C(=O)[C@H](N)C2Cc3ccccc3C2c2cccnc2)CC1

>  <score_type>  (79) 
oracle

>  <origin>  (79) 
autodockgpu

>  <m_score__min__energy>  (79) 
-9.3300000000000001

>  <m_primary>  (79) 
energy

>  <rmsd>  (79) 
4.408766741194386

>  <m_score__min__rmsd>  (79) 
4.408766741194386

>  <meeko>  (79) 
{"free_energy": -9.05, "intermolecular_energy": -11.43, "internal_energy": -2.97, "cluster_size": 17, "cluster_id": 1, "rank_in_cluster": 9}

>  <energy>  (79) 
-7.9

>  <cluster_rmsd>  (79) 
0.77

>  <cluster>  (79) 
3

$$$$

     RDKit          3D

 70 74  0  0  0  0  0  0  0  0999 V2000
  136.9560   82.3090  225.4520 C   0  0  0  0  0  0  0  0  0  0  0  0
  137.4690   80.9530  224.9640 C   0  0  0  0  0  0  0  0  0  0  0  0
  138.0820   81.0050  223.6430 C   0  0  0  0  0  0  0  0  0  0  0  0
  137.9670   82.0800  222.9610 O   0  0  0  0  0  0  0  0  0  0  0  0
  138.8120   79.9630  223.0140 N   0  0  0  0  0  0  0  0  0  0  0  0
  140.2450   80.1460  222.9810 C   0  0  0  0  0  0  0  0  0  0  0  0
  140.8010   81.0030  222.0440 C   0  0  0  0  0  0  0  0  0  0  0  0
  142.1760   81.2140  221.9670 C   0  0  0  0  0  0  0  0  0  0  0  0
  142.9710   80.5390  222.8600 C   0  0  0  0  0  0  0  0  0  0  0  0
  142.4400   79.6750  223.8100 C   0  0  0  0  0  0  0  0  0  0  0  0
  141.0660   79.4810  223.8660 C   0  0  0  0  0  0  0  0  0  0  0  0
  138.2340   78.7910  222.4280 C   0  0  0  0  0  0  0  0  0  0  0  0
  138.5550   77.5010  223.0940 C   0  0  0  0  0  0  0  0  0  0  0  0
  139.5030   76.6050  222.2700 C   0  0  0  0  0  0  0  0  0  0  0  0
  138.7320   76.2400  221.1040 N   0  0  0  0  0  0  0  0  0  0  0  0
  138.7150   74.9600  220.4980 C   0  0  0  0  0  0  0  0  0  0  0  0
  137.9310   74.8400  219.4990 O   0  0  0  0  0  0  0  0  0  0  0  0
  139.4970   73.7990  220.9120 C   0  0  2  0  0  0  0  0  0  0  0  0
  139.6280   73.6960  222.2980 N   0  0  0  0  0  0  0  0  0  0  0  0
  140.8220   73.6340  220.1740 C   0  0  1  0  0  0  0  0  0  0  0  0
  140.6720   74.2420  218.8000 C   0  0  0  0  0  0  0  0  0  0  0  0
  141.0330   75.6510  218.9400 C   0  0  0  0  0  0  0  0  0  0  0  0
  140.7670   76.7270  218.1190 C   0  0  0  0  0  0  0  0  0  0  0  0
  141.2400   77.9690  218.4930 C   0  0  0  0  0  0  0  0  0  0  0  0
  141.9540   78.1670  219.6350 C   0  0  0  0  0  0  0  0  0  0  0  0
  142.2040   77.0550  220.4410 C   0  0  0  0  0  0  0  0  0  0  0  0
  141.7410   75.7920  220.0930 C   0  0  0  0  0  0  0  0  0  0  0  0
  141.8820   74.4750  220.8100 C   0  0  2  0  0  0  0  0  0  0  0  0
  143.2460   73.9300  220.6420 C   0  0  0  0  0  0  0  0  0  0  0  0
  144.3870   74.6560  220.4760 C   0  0  0  0  0  0  0  0  0  0  0  0
  145.5960   74.0030  220.3400 C   0  0  0  0  0  0  0  0  0  0  0  0
  145.6670   72.6270  220.3690 C   0  0  0  0  0  0  0  0  0  0  0  0
  144.5390   71.9100  220.5330 N   0  0  0  0  0  0  0  0  0  0  0  0
  143.3710   72.5470  220.6650 C   0  0  0  0  0  0  0  0  0  0  0  0
  137.9180   77.3290  220.5270 C   0  0  0  0  0  0  0  0  0  0  0  0
  138.4780   78.6740  220.9350 C   0  0  0  0  0  0  0  0  0  0  0  0
  136.9501   82.3246  226.5519 H   0  0  0  0  0  0  0  0  0  0  0  0
  137.6145   83.1065  225.0775 H   0  0  0  0  0  0  0  0  0  0  0  0
  135.9345   82.4709  225.0775 H   0  0  0  0  0  0  0  0  0  0  0  0
  138.2177   80.5853  225.6811 H   0  0  0  0  0  0  0  0  0  0  0  0
  136.5983   80.2848  224.8908 H   0  0  0  0  0  0  0  0  0  0  0  0
  140.1386   81.5308  221.3422 H   0  0  0  0  0  0  0  0  0  0  0  0
  142.6082   81.8953  221.2193 H   0  0  0  0  0  0  0  0  0  0  0  0
  144.0604   80.6865  222.8223 H   0  0  0  0  0  0  0  0  0  0  0  0
  143.1030   79.1487  224.5124 H   0  0  0  0  0  0  0  0  0  0  0  0
  140.6346   78.7993  224.6138 H   0  0  0  0  0  0  0  0  0  0  0  0
  137.1619   78.9646  222.6023 H   0  0  0  0  0  0  0  0  0  0  0  0
  139.0325   77.7173  224.0611 H   0  0  0  0  0  0  0  0  0  0  0  0
  137.6091   76.9518  223.2108 H   0  0  0  0  0  0  0  0  0  0  0  0
  140.4079   77.1592  221.9801 H   0  0  0  0  0  0  0  0  0  0  0  0
  139.8466   75.7268  222.8364 H   0  0  0  0  0  0  0  0  0  0  0  0
  138.8957   72.9345  220.5942 H   0  0  0  0  0  0  0  0  0  0  0  0
  140.1610   72.9180  222.6590 H   0  0  0  0  0  0  0  0  0  0  0  0
  138.9860   74.1550  222.9200 H   0  0  0  0  0  0  0  0  0  0  0  0
  141.0799   72.5647  220.1748 H   0  0  0  0  0  0  0  0  0  0  0  0
  141.3452   73.7443  218.0865 H   0  0  0  0  0  0  0  0  0  0  0  0
  139.6470   74.1253  218.4181 H   0  0  0  0  0  0  0  0  0  0  0  0
  140.1925   76.5988  217.1897 H   0  0  0  0  0  0  0  0  0  0  0  0
  141.0319   78.8318  217.8431 H   0  0  0  0  0  0  0  0  0  0  0  0
  142.3204   79.1664  219.9124 H   0  0  0  0  0  0  0  0  0  0  0  0
  142.7790   77.1812  221.3702 H   0  0  0  0  0  0  0  0  0  0  0  0
  141.7531   74.5359  221.9007 H   0  0  0  0  0  0  0  0  0  0  0  0
  144.3453   75.7549  220.4505 H   0  0  0  0  0  0  0  0  0  0  0  0
  146.5166   74.5901  220.2064 H   0  0  0  0  0  0  0  0  0  0  0  0
  146.6364   72.1189  220.2592 H   0  0  0  0  0  0  0  0  0  0  0  0
  142.4609   71.9438  220.7989 H   0  0  0  0  0  0  0  0  0  0  0  0
  137.9292   77.2486  219.4300 H   0  0  0  0  0  0  0  0  0  0  0  0
  136.8868   77.2420  220.9000 H   0  0  0  0  0  0  0  0  0  0  0  0
  139.5555   78.7213  220.7186 H   0  0  0  0  0  0  0  0  0  0  0  0
  137.9988   79.4954  220.3821 H   0  0  0  0  0  0  0  0  0  0  0  0
  1  2  1  0
  2  3  1  0
  3  4  2  0
  3  5  1  0
  5  6  1  0
  6  7  2  0
  7  8  1  0
  8  9  2  0
  9 10  1  0
 10 11  2  0
  5 12  1  0
 12 13  1  0
 13 14  1  0
 14 15  1  0
 15 16  1  0
 16 17  2  0
 16 18  1  0
 18 19  1  0
 18 20  1  0
 20 21  1  0
 21 22  1  0
 22 23  2  0
 23 24  1  0
 24 25  2  0
 25 26  1  0
 26 27  2  0
 27 28  1  0
 28 29  1  0
 29 30  2  0
 30 31  1  0
 31 32  2  0
 32 33  1  0
 33 34  2  0
 15 35  1  0
 35 36  1  0
 11  6  1  0
 36 12  1  0
 28 20  1  0
 34 29  1  0
 27 22  1  0
  1 37  1  0
  1 38  1  0
  1 39  1  0
  2 40  1  0
  2 41  1  0
  7 42  1  0
  8 43  1  0
  9 44  1  0
 10 45  1  0
 11 46  1  0
 12 47  1  0
 13 48  1  0
 13 49  1  0
 14 50  1  0
 14 51  1  0
 18 52  1  6
 19 53  1  0
 19 54  1  0
 20 55  1  6
 21 56  1  0
 21 57  1  0
 23 58  1  0
 24 59  1  0
 25 60  1  0
 26 61  1  0
 28 62  1  1
 30 63  1  0
 31 64  1  0
 32 65  1  0
 34 66  1  0
 35 67  1  0
 35 68  1  0
 36 69  1  0
 36 70  1  0
M  END
>  <smiles>  (80) 
CCC(=O)N(c1ccccc1)C1CCN(C(=O)[C@H](N)C2Cc3ccccc3C2c2cccnc2)CC1

>  <score_type>  (80) 
oracle

>  <origin>  (80) 
autodockgpu

>  <m_score__min__energy>  (80) 
-9.3300000000000001

>  <m_primary>  (80) 
energy

>  <rmsd>  (80) 
5.989192599543232

>  <m_score__min__rmsd>  (80) 
5.989192599543232

>  <meeko>  (80) 
{"free_energy": -7.62, "intermolecular_energy": -10.0, "internal_energy": -3.33, "cluster_size": 15, "cluster_id": 5, "rank_in_cluster": 5}

>  <energy>  (80) 
-7.79

>  <cluster_rmsd>  (80) 
1.71

>  <cluster>  (80) 
3

$$$$

     RDKit          3D

 70 74  0  0  0  0  0  0  0  0999 V2000
  146.5980   73.3490  221.9660 C   0  0  0  0  0  0  0  0  0  0  0  0
  145.7830   73.9910  220.8420 C   0  0  0  0  0  0  0  0  0  0  0  0
  145.4730   73.0730  219.7530 C   0  0  0  0  0  0  0  0  0  0  0  0
  146.2540   73.0430  218.7420 O   0  0  0  0  0  0  0  0  0  0  0  0
  144.3670   72.1860  219.6910 N   0  0  0  0  0  0  0  0  0  0  0  0
  144.7030   70.7920  219.5050 C   0  0  0  0  0  0  0  0  0  0  0  0
  143.6920   69.8450  219.4870 C   0  0  0  0  0  0  0  0  0  0  0  0
  143.9600   68.4880  219.3130 C   0  0  0  0  0  0  0  0  0  0  0  0
  145.2720   68.1180  219.1570 C   0  0  0  0  0  0  0  0  0  0  0  0
  146.3060   69.0470  219.1700 C   0  0  0  0  0  0  0  0  0  0  0  0
  146.0120   70.3930  219.3450 C   0  0  0  0  0  0  0  0  0  0  0  0
  142.9920   72.5750  219.7930 C   0  0  0  0  0  0  0  0  0  0  0  0
  142.7200   74.0350  219.7300 C   0  0  0  0  0  0  0  0  0  0  0  0
  142.2720   74.6340  221.0790 C   0  0  0  0  0  0  0  0  0  0  0  0
  140.9860   74.0260  221.3350 N   0  0  0  0  0  0  0  0  0  0  0  0
  139.8570   74.6890  221.8740 C   0  0  0  0  0  0  0  0  0  0  0  0
  138.8050   73.9740  221.9800 O   0  0  0  0  0  0  0  0  0  0  0  0
  139.7970   76.0820  222.3050 C   0  0  2  0  0  0  0  0  0  0  0  0
  138.6770   76.3620  223.0890 N   0  0  0  0  0  0  0  0  0  0  0  0
  140.0110   77.0990  221.1870 C   0  0  1  0  0  0  0  0  0  0  0  0
  139.2670   78.3610  221.5530 C   0  0  0  0  0  0  0  0  0  0  0  0
  140.2000   79.1660  222.3370 C   0  0  0  0  0  0  0  0  0  0  0  0
  139.9670   80.2270  223.1890 C   0  0  0  0  0  0  0  0  0  0  0  0
  141.0500   80.8220  223.8060 C   0  0  0  0  0  0  0  0  0  0  0  0
  142.3290   80.4010  223.6040 C   0  0  0  0  0  0  0  0  0  0  0  0
  142.5260   79.3260  222.7360 C   0  0  0  0  0  0  0  0  0  0  0  0
  141.4570   78.7060  222.1000 C   0  0  0  0  0  0  0  0  0  0  0  0
  141.4390   77.5390  221.1480 C   0  0  2  0  0  0  0  0  0  0  0  0
  141.8910   77.9540  219.8020 C   0  0  0  0  0  0  0  0  0  0  0  0
  142.5300   77.1680  218.8910 C   0  0  0  0  0  0  0  0  0  0  0  0
  142.8840   77.6960  217.6660 C   0  0  0  0  0  0  0  0  0  0  0  0
  142.6020   79.0080  217.3490 C   0  0  0  0  0  0  0  0  0  0  0  0
  141.9710   79.7830  218.2500 N   0  0  0  0  0  0  0  0  0  0  0  0
  141.6290   79.2670  219.4350 C   0  0  0  0  0  0  0  0  0  0  0  0
  140.8960   72.5900  220.9990 C   0  0  0  0  0  0  0  0  0  0  0  0
  142.2750   71.9680  220.9840 C   0  0  0  0  0  0  0  0  0  0  0  0
  146.1947   73.6667  222.9389 H   0  0  0  0  0  0  0  0  0  0  0  0
  146.5369   72.2538  221.8837 H   0  0  0  0  0  0  0  0  0  0  0  0
  147.6485   73.6649  221.8837 H   0  0  0  0  0  0  0  0  0  0  0  0
  144.8377   74.3617  221.2650 H   0  0  0  0  0  0  0  0  0  0  0  0
  146.3958   74.8006  220.4190 H   0  0  0  0  0  0  0  0  0  0  0  0
  142.6496   70.1727  219.6134 H   0  0  0  0  0  0  0  0  0  0  0  0
  143.1510   67.7428  219.3012 H   0  0  0  0  0  0  0  0  0  0  0  0
  145.5130   67.0538  219.0174 H   0  0  0  0  0  0  0  0  0  0  0  0
  147.3482   68.7188  219.0428 H   0  0  0  0  0  0  0  0  0  0  0  0
  146.8213   71.1379  219.3558 H   0  0  0  0  0  0  0  0  0  0  0  0
  142.5738   72.1480  218.8695 H   0  0  0  0  0  0  0  0  0  0  0  0
  143.6390   74.5473  219.4092 H   0  0  0  0  0  0  0  0  0  0  0  0
  141.8929   74.1806  219.0196 H   0  0  0  0  0  0  0  0  0  0  0  0
  142.9878   74.3794  221.8745 H   0  0  0  0  0  0  0  0  0  0  0  0
  142.2177   75.7323  221.0518 H   0  0  0  0  0  0  0  0  0  0  0  0
  140.6714   76.2053  222.9608 H   0  0  0  0  0  0  0  0  0  0  0  0
  138.0880   75.5850  223.3540 H   0  0  0  0  0  0  0  0  0  0  0  0
  138.2820   77.2850  223.1270 H   0  0  0  0  0  0  0  0  0  0  0  0
  139.6898   76.6369  220.2419 H   0  0  0  0  0  0  0  0  0  0  0  0
  138.9642   78.9030  220.6450 H   0  0  0  0  0  0  0  0  0  0  0  0
  138.3515   78.1384  222.1208 H   0  0  0  0  0  0  0  0  0  0  0  0
  138.9446   80.5894  223.3718 H   0  0  0  0  0  0  0  0  0  0  0  0
  140.8725   81.6680  224.4863 H   0  0  0  0  0  0  0  0  0  0  0  0
  143.1762   80.8904  224.1067 H   0  0  0  0  0  0  0  0  0  0  0  0
  143.5476   78.9622  222.5516 H   0  0  0  0  0  0  0  0  0  0  0  0
  142.1239   76.7218  221.4183 H   0  0  0  0  0  0  0  0  0  0  0  0
  142.7622   76.1197  219.1302 H   0  0  0  0  0  0  0  0  0  0  0  0
  143.3992   77.0602  216.9310 H   0  0  0  0  0  0  0  0  0  0  0  0
  142.8900   79.4170  216.3693 H   0  0  0  0  0  0  0  0  0  0  0  0
  141.1130   79.9169  220.1570 H   0  0  0  0  0  0  0  0  0  0  0  0
  140.2756   72.0795  221.7503 H   0  0  0  0  0  0  0  0  0  0  0  0
  140.4438   72.4830  220.0020 H   0  0  0  0  0  0  0  0  0  0  0  0
  142.8115   72.2044  221.9147 H   0  0  0  0  0  0  0  0  0  0  0  0
  142.2228   70.8719  220.9082 H   0  0  0  0  0  0  0  0  0  0  0  0
  1  2  1  0
  2  3  1  0
  3  4  2  0
  3  5  1  0
  5  6  1  0
  6  7  2  0
  7  8  1  0
  8  9  2  0
  9 10  1  0
 10 11  2  0
  5 12  1  0
 12 13  1  0
 13 14  1  0
 14 15  1  0
 15 16  1  0
 16 17  2  0
 16 18  1  0
 18 19  1  0
 18 20  1  0
 20 21  1  0
 21 22  1  0
 22 23  2  0
 23 24  1  0
 24 25  2  0
 25 26  1  0
 26 27  2  0
 27 28  1  0
 28 29  1  0
 29 30  2  0
 30 31  1  0
 31 32  2  0
 32 33  1  0
 33 34  2  0
 15 35  1  0
 35 36  1  0
 11  6  1  0
 36 12  1  0
 28 20  1  0
 34 29  1  0
 27 22  1  0
  1 37  1  0
  1 38  1  0
  1 39  1  0
  2 40  1  0
  2 41  1  0
  7 42  1  0
  8 43  1  0
  9 44  1  0
 10 45  1  0
 11 46  1  0
 12 47  1  0
 13 48  1  0
 13 49  1  0
 14 50  1  0
 14 51  1  0
 18 52  1  1
 19 53  1  0
 19 54  1  0
 20 55  1  6
 21 56  1  0
 21 57  1  0
 23 58  1  0
 24 59  1  0
 25 60  1  0
 26 61  1  0
 28 62  1  1
 30 63  1  0
 31 64  1  0
 32 65  1  0
 34 66  1  0
 35 67  1  0
 35 68  1  0
 36 69  1  0
 36 70  1  0
M  END
>  <smiles>  (81) 
CCC(=O)N(c1ccccc1)C1CCN(C(=O)[C@H](N)C2Cc3ccccc3C2c2cccnc2)CC1

>  <score_type>  (81) 
oracle

>  <origin>  (81) 
autodockgpu

>  <m_score__min__energy>  (81) 
-9.3300000000000001

>  <m_primary>  (81) 
energy

>  <rmsd>  (81) 
4.3837855888507775

>  <m_score__min__rmsd>  (81) 
4.3837855888507775

>  <meeko>  (81) 
{"free_energy": -9.33, "intermolecular_energy": -11.72, "internal_energy": -2.73, "cluster_size": 17, "cluster_id": 1, "rank_in_cluster": 1}

>  <energy>  (81) 
-7.71

>  <cluster_rmsd>  (81) 
1.62

>  <cluster>  (81) 
3

$$$$

     RDKit          3D

 70 74  0  0  0  0  0  0  0  0999 V2000
  136.5840   83.0220  223.9120 C   0  0  0  0  0  0  0  0  0  0  0  0
  137.3450   82.1000  222.9570 C   0  0  0  0  0  0  0  0  0  0  0  0
  138.0590   81.0260  223.6340 C   0  0  0  0  0  0  0  0  0  0  0  0
  138.0440   80.9950  224.9120 O   0  0  0  0  0  0  0  0  0  0  0  0
  138.7910   79.9800  223.0120 N   0  0  0  0  0  0  0  0  0  0  0  0
  140.2250   80.1590  222.9900 C   0  0  0  0  0  0  0  0  0  0  0  0
  140.7860   81.0490  222.0880 C   0  0  0  0  0  0  0  0  0  0  0  0
  142.1620   81.2590  222.0210 C   0  0  0  0  0  0  0  0  0  0  0  0
  142.9520   80.5480  222.8890 C   0  0  0  0  0  0  0  0  0  0  0  0
  142.4170   79.6500  223.8050 C   0  0  0  0  0  0  0  0  0  0  0  0
  141.0420   79.4590  223.8500 C   0  0  0  0  0  0  0  0  0  0  0  0
  138.2140   78.8080  222.4250 C   0  0  0  0  0  0  0  0  0  0  0  0
  138.5380   77.5180  223.0890 C   0  0  0  0  0  0  0  0  0  0  0  0
  139.4860   76.6240  222.2640 C   0  0  0  0  0  0  0  0  0  0  0  0
  138.7150   76.2600  221.0970 N   0  0  0  0  0  0  0  0  0  0  0  0
  138.7000   74.9810  220.4900 C   0  0  0  0  0  0  0  0  0  0  0  0
  137.9150   74.8620  219.4910 O   0  0  0  0  0  0  0  0  0  0  0  0
  139.4830   73.8200  220.9010 C   0  0  2  0  0  0  0  0  0  0  0  0
  139.6210   73.7190  222.2860 N   0  0  0  0  0  0  0  0  0  0  0  0
  140.8050   73.6540  220.1570 C   0  0  1  0  0  0  0  0  0  0  0  0
  140.6510   74.2660  218.7850 C   0  0  0  0  0  0  0  0  0  0  0  0
  141.0150   75.6730  218.9270 C   0  0  0  0  0  0  0  0  0  0  0  0
  140.7470   76.7520  218.1090 C   0  0  0  0  0  0  0  0  0  0  0  0
  141.2240   77.9930  218.4830 C   0  0  0  0  0  0  0  0  0  0  0  0
  141.9430   78.1860  219.6230 C   0  0  0  0  0  0  0  0  0  0  0  0
  142.1940   77.0730  220.4250 C   0  0  0  0  0  0  0  0  0  0  0  0
  141.7280   75.8110  220.0760 C   0  0  0  0  0  0  0  0  0  0  0  0
  141.8690   74.4920  220.7900 C   0  0  2  0  0  0  0  0  0  0  0  0
  143.2320   73.9450  220.6150 C   0  0  0  0  0  0  0  0  0  0  0  0
  144.3770   74.6690  220.4700 C   0  0  0  0  0  0  0  0  0  0  0  0
  145.5830   74.0150  220.3240 C   0  0  0  0  0  0  0  0  0  0  0  0
  145.6480   72.6370  220.3230 C   0  0  0  0  0  0  0  0  0  0  0  0
  144.5160   71.9230  220.4660 N   0  0  0  0  0  0  0  0  0  0  0  0
  143.3500   72.5620  220.6080 C   0  0  0  0  0  0  0  0  0  0  0  0
  137.8990   77.3490  220.5220 C   0  0  0  0  0  0  0  0  0  0  0  0
  138.4580   78.6940  220.9320 C   0  0  0  0  0  0  0  0  0  0  0  0
  136.8137   82.7437  224.9511 H   0  0  0  0  0  0  0  0  0  0  0  0
  136.8883   84.0643  223.7357 H   0  0  0  0  0  0  0  0  0  0  0  0
  135.5029   82.9208  223.7357 H   0  0  0  0  0  0  0  0  0  0  0  0
  136.6244   81.6522  222.2569 H   0  0  0  0  0  0  0  0  0  0  0  0
  138.0976   82.7158  222.4428 H   0  0  0  0  0  0  0  0  0  0  0  0
  140.1265   81.6054  221.4057 H   0  0  0  0  0  0  0  0  0  0  0  0
  142.5978   81.9669  221.3006 H   0  0  0  0  0  0  0  0  0  0  0  0
  144.0420   80.6932  222.8589 H   0  0  0  0  0  0  0  0  0  0  0  0
  143.0768   79.0954  224.4884 H   0  0  0  0  0  0  0  0  0  0  0  0
  140.6068   78.7507  224.5704 H   0  0  0  0  0  0  0  0  0  0  0  0
  137.1416   78.9789  222.6001 H   0  0  0  0  0  0  0  0  0  0  0  0
  139.0163   77.7342  224.0557 H   0  0  0  0  0  0  0  0  0  0  0  0
  137.5930   76.9673  223.2058 H   0  0  0  0  0  0  0  0  0  0  0  0
  140.3906   77.1791  221.9749 H   0  0  0  0  0  0  0  0  0  0  0  0
  139.8299   75.7452  222.8292 H   0  0  0  0  0  0  0  0  0  0  0  0
  138.8798   72.9555  220.5868 H   0  0  0  0  0  0  0  0  0  0  0  0
  138.9060   74.1460  222.8580 H   0  0  0  0  0  0  0  0  0  0  0  0
  140.5120   73.5320  222.7110 H   0  0  0  0  0  0  0  0  0  0  0  0
  141.0604   72.5841  220.1546 H   0  0  0  0  0  0  0  0  0  0  0  0
  141.3205   73.7688  218.0677 H   0  0  0  0  0  0  0  0  0  0  0  0
  139.6243   74.1523  218.4068 H   0  0  0  0  0  0  0  0  0  0  0  0
  140.1679   76.6266  217.1822 H   0  0  0  0  0  0  0  0  0  0  0  0
  141.0153   78.8576  217.8358 H   0  0  0  0  0  0  0  0  0  0  0  0
  142.3126   79.1839  219.9014 H   0  0  0  0  0  0  0  0  0  0  0  0
  142.7724   77.1964  221.3525 H   0  0  0  0  0  0  0  0  0  0  0  0
  141.7441   74.5509  221.8813 H   0  0  0  0  0  0  0  0  0  0  0  0
  144.3401   75.7684  220.4693 H   0  0  0  0  0  0  0  0  0  0  0  0
  146.5064   74.6011  220.2067 H   0  0  0  0  0  0  0  0  0  0  0  0
  146.6155   72.1267  220.2065 H   0  0  0  0  0  0  0  0  0  0  0  0
  142.4367   71.9603  220.7254 H   0  0  0  0  0  0  0  0  0  0  0  0
  137.9096   77.2704  219.4249 H   0  0  0  0  0  0  0  0  0  0  0  0
  136.8681   77.2602  220.8952 H   0  0  0  0  0  0  0  0  0  0  0  0
  139.5354   78.7427  220.7156 H   0  0  0  0  0  0  0  0  0  0  0  0
  137.9782   79.5159  220.3804 H   0  0  0  0  0  0  0  0  0  0  0  0
  1  2  1  0
  2  3  1  0
  3  4  2  0
  3  5  1  0
  5  6  1  0
  6  7  2  0
  7  8  1  0
  8  9  2  0
  9 10  1  0
 10 11  2  0
  5 12  1  0
 12 13  1  0
 13 14  1  0
 14 15  1  0
 15 16  1  0
 16 17  2  0
 16 18  1  0
 18 19  1  0
 18 20  1  0
 20 21  1  0
 21 22  1  0
 22 23  2  0
 23 24  1  0
 24 25  2  0
 25 26  1  0
 26 27  2  0
 27 28  1  0
 28 29  1  0
 29 30  2  0
 30 31  1  0
 31 32  2  0
 32 33  1  0
 33 34  2  0
 15 35  1  0
 35 36  1  0
 11  6  1  0
 36 12  1  0
 28 20  1  0
 34 29  1  0
 27 22  1  0
  1 37  1  0
  1 38  1  0
  1 39  1  0
  2 40  1  0
  2 41  1  0
  7 42  1  0
  8 43  1  0
  9 44  1  0
 10 45  1  0
 11 46  1  0
 12 47  1  0
 13 48  1  0
 13 49  1  0
 14 50  1  0
 14 51  1  0
 18 52  1  6
 19 53  1  0
 19 54  1  0
 20 55  1  6
 21 56  1  0
 21 57  1  0
 23 58  1  0
 24 59  1  0
 25 60  1  0
 26 61  1  0
 28 62  1  1
 30 63  1  0
 31 64  1  0
 32 65  1  0
 34 66  1  0
 35 67  1  0
 35 68  1  0
 36 69  1  0
 36 70  1  0
M  END
>  <smiles>  (82) 
CCC(=O)N(c1ccccc1)C1CCN(C(=O)[C@H](N)C2Cc3ccccc3C2c2cccnc2)CC1

>  <score_type>  (82) 
oracle

>  <origin>  (82) 
autodockgpu

>  <m_score__min__energy>  (82) 
-9.3300000000000001

>  <m_primary>  (82) 
energy

>  <rmsd>  (82) 
5.982200746216649

>  <m_score__min__rmsd>  (82) 
5.982200746216649

>  <meeko>  (82) 
{"free_energy": -7.46, "intermolecular_energy": -9.84, "internal_energy": -3.34, "cluster_size": 15, "cluster_id": 5, "rank_in_cluster": 14}

>  <energy>  (82) 
-7.6

>  <cluster_rmsd>  (82) 
1.79

>  <cluster>  (82) 
3

$$$$

     RDKit          3D

 70 74  0  0  0  0  0  0  0  0999 V2000
  145.9430   73.0190  221.7880 C   0  0  0  0  0  0  0  0  0  0  0  0
  146.0110   73.7150  220.4270 C   0  0  0  0  0  0  0  0  0  0  0  0
  145.4390   72.9280  219.3430 C   0  0  0  0  0  0  0  0  0  0  0  0
  145.9660   73.0200  218.1820 O   0  0  0  0  0  0  0  0  0  0  0  0
  144.3310   72.0460  219.4370 N   0  0  0  0  0  0  0  0  0  0  0  0
  144.6530   70.6390  219.3580 C   0  0  0  0  0  0  0  0  0  0  0  0
  145.9800   70.2470  219.2940 C   0  0  0  0  0  0  0  0  0  0  0  0
  146.3470   68.9050  219.2150 C   0  0  0  0  0  0  0  0  0  0  0  0
  145.3390   67.9740  219.2020 C   0  0  0  0  0  0  0  0  0  0  0  0
  143.9990   68.3390  219.2650 C   0  0  0  0  0  0  0  0  0  0  0  0
  143.6610   69.6830  219.3440 C   0  0  0  0  0  0  0  0  0  0  0  0
  142.9670   72.4530  219.5950 C   0  0  0  0  0  0  0  0  0  0  0  0
  142.7100   73.9160  219.5350 C   0  0  0  0  0  0  0  0  0  0  0  0
  142.3270   74.5280  220.8990 C   0  0  0  0  0  0  0  0  0  0  0  0
  141.0460   73.9370  221.2130 N   0  0  0  0  0  0  0  0  0  0  0  0
  139.9490   74.6170  221.7960 C   0  0  0  0  0  0  0  0  0  0  0  0
  138.8940   73.9160  221.9510 O   0  0  0  0  0  0  0  0  0  0  0  0
  139.9250   76.0130  222.2200 C   0  0  2  0  0  0  0  0  0  0  0  0
  138.8470   76.3090  223.0560 N   0  0  0  0  0  0  0  0  0  0  0  0
  140.0940   77.0210  221.0870 C   0  0  1  0  0  0  0  0  0  0  0  0
  139.3020   78.2580  221.4380 C   0  0  0  0  0  0  0  0  0  0  0  0
  140.2060   79.1110  222.2060 C   0  0  0  0  0  0  0  0  0  0  0  0
  139.9360   80.1730  223.0430 C   0  0  0  0  0  0  0  0  0  0  0  0
  140.9960   80.8200  223.6470 C   0  0  0  0  0  0  0  0  0  0  0  0
  142.2900   80.4460  223.4450 C   0  0  0  0  0  0  0  0  0  0  0  0
  142.5260   79.3680  222.5920 C   0  0  0  0  0  0  0  0  0  0  0  0
  141.4800   78.6960  221.9700 C   0  0  0  0  0  0  0  0  0  0  0  0
  141.5030   77.5160  221.0350 C   0  0  2  0  0  0  0  0  0  0  0  0
  141.9330   77.9290  219.6810 C   0  0  0  0  0  0  0  0  0  0  0  0
  141.8610   79.1870  219.1630 C   0  0  0  0  0  0  0  0  0  0  0  0
  142.3110   79.4220  217.8800 C   0  0  0  0  0  0  0  0  0  0  0  0
  142.8340   78.4030  217.1120 C   0  0  0  0  0  0  0  0  0  0  0  0
  142.9050   77.1600  217.6250 N   0  0  0  0  0  0  0  0  0  0  0  0
  142.4680   76.9380  218.8690 C   0  0  0  0  0  0  0  0  0  0  0  0
  140.9250   72.5000  220.8900 C   0  0  0  0  0  0  0  0  0  0  0  0
  142.2940   71.8610  220.8200 C   0  0  0  0  0  0  0  0  0  0  0  0
  146.0164   73.7703  222.5881 H   0  0  0  0  0  0  0  0  0  0  0  0
  144.9880   72.4805  221.8771 H   0  0  0  0  0  0  0  0  0  0  0  0
  146.7757   72.3058  221.8771 H   0  0  0  0  0  0  0  0  0  0  0  0
  145.4620   74.6658  220.4943 H   0  0  0  0  0  0  0  0  0  0  0  0
  147.0753   73.8637  220.1923 H   0  0  0  0  0  0  0  0  0  0  0  0
  146.7660   71.0165  219.3059 H   0  0  0  0  0  0  0  0  0  0  0  0
  147.4037   68.6037  219.1650 H   0  0  0  0  0  0  0  0  0  0  0  0
  145.5990   66.9070  219.1399 H   0  0  0  0  0  0  0  0  0  0  0  0
  143.2133   67.5693  219.2524 H   0  0  0  0  0  0  0  0  0  0  0  0
  142.6042   69.9839  219.3953 H   0  0  0  0  0  0  0  0  0  0  0  0
  142.5047   72.0268  218.6924 H   0  0  0  0  0  0  0  0  0  0  0  0
  143.6206   74.4153  219.1723 H   0  0  0  0  0  0  0  0  0  0  0  0
  141.8551   74.0679  218.8597 H   0  0  0  0  0  0  0  0  0  0  0  0
  143.0730   74.2690  221.6648 H   0  0  0  0  0  0  0  0  0  0  0  0
  142.2847   75.6267  220.8678 H   0  0  0  0  0  0  0  0  0  0  0  0
  140.8322   76.1312  222.8307 H   0  0  0  0  0  0  0  0  0  0  0  0
  138.2330   75.5490  223.3110 H   0  0  0  0  0  0  0  0  0  0  0  0
  138.4960   77.2460  223.1460 H   0  0  0  0  0  0  0  0  0  0  0  0
  139.7873   76.5329  220.1501 H   0  0  0  0  0  0  0  0  0  0  0  0
  138.9742   78.7741  220.5236 H   0  0  0  0  0  0  0  0  0  0  0  0
  138.3984   78.0079  222.0133 H   0  0  0  0  0  0  0  0  0  0  0  0
  138.9008   80.4972  223.2253 H   0  0  0  0  0  0  0  0  0  0  0  0
  140.7877   81.6683  224.3156 H   0  0  0  0  0  0  0  0  0  0  0  0
  143.1193   80.9752  223.9370 H   0  0  0  0  0  0  0  0  0  0  0  0
  143.5606   79.0430  222.4077 H   0  0  0  0  0  0  0  0  0  0  0  0
  142.2202   76.7299  221.3137 H   0  0  0  0  0  0  0  0  0  0  0  0
  141.4467   80.0101  219.7637 H   0  0  0  0  0  0  0  0  0  0  0  0
  142.2517   80.4382  217.4632 H   0  0  0  0  0  0  0  0  0  0  0  0
  143.1896   78.6036  216.0906 H   0  0  0  0  0  0  0  0  0  0  0  0
  142.5360   75.9161  219.2704 H   0  0  0  0  0  0  0  0  0  0  0  0
  140.3312   72.0014  221.6702 H   0  0  0  0  0  0  0  0  0  0  0  0
  140.4297   72.3930  219.9137 H   0  0  0  0  0  0  0  0  0  0  0  0
  142.8727   72.0958  221.7256 H   0  0  0  0  0  0  0  0  0  0  0  0
  142.2254   70.7652  220.7533 H   0  0  0  0  0  0  0  0  0  0  0  0
  1  2  1  0
  2  3  1  0
  3  4  2  0
  3  5  1  0
  5  6  1  0
  6  7  2  0
  7  8  1  0
  8  9  2  0
  9 10  1  0
 10 11  2  0
  5 12  1  0
 12 13  1  0
 13 14  1  0
 14 15  1  0
 15 16  1  0
 16 17  2  0
 16 18  1  0
 18 19  1  0
 18 20  1  0
 20 21  1  0
 21 22  1  0
 22 23  2  0
 23 24  1  0
 24 25  2  0
 25 26  1  0
 26 27  2  0
 27 28  1  0
 28 29  1  0
 29 30  2  0
 30 31  1  0
 31 32  2  0
 32 33  1  0
 33 34  2  0
 15 35  1  0
 35 36  1  0
 11  6  1  0
 36 12  1  0
 28 20  1  0
 34 29  1  0
 27 22  1  0
  1 37  1  0
  1 38  1  0
  1 39  1  0
  2 40  1  0
  2 41  1  0
  7 42  1  0
  8 43  1  0
  9 44  1  0
 10 45  1  0
 11 46  1  0
 12 47  1  0
 13 48  1  0
 13 49  1  0
 14 50  1  0
 14 51  1  0
 18 52  1  1
 19 53  1  0
 19 54  1  0
 20 55  1  6
 21 56  1  0
 21 57  1  0
 23 58  1  0
 24 59  1  0
 25 60  1  0
 26 61  1  0
 28 62  1  1
 30 63  1  0
 31 64  1  0
 32 65  1  0
 34 66  1  0
 35 67  1  0
 35 68  1  0
 36 69  1  0
 36 70  1  0
M  END
>  <smiles>  (83) 
CCC(=O)N(c1ccccc1)C1CCN(C(=O)[C@H](N)C2Cc3ccccc3C2c2cccnc2)CC1

>  <score_type>  (83) 
oracle

>  <origin>  (83) 
autodockgpu

>  <m_score__min__energy>  (83) 
-9.3300000000000001

>  <m_primary>  (83) 
energy

>  <rmsd>  (83) 
4.412952188242168

>  <m_score__min__rmsd>  (83) 
4.412952188242168

>  <meeko>  (83) 
{"free_energy": -9.02, "intermolecular_energy": -11.4, "internal_energy": -2.89, "cluster_size": 17, "cluster_id": 1, "rank_in_cluster": 11}

>  <energy>  (83) 
-8.06

>  <cluster_rmsd>  (83) 
0.0

>  <cluster>  (83) 
4

$$$$

     RDKit          3D

 70 74  0  0  0  0  0  0  0  0999 V2000
  140.6710   83.7430  221.1640 C   0  0  0  0  0  0  0  0  0  0  0  0
  139.6400   83.0460  220.2740 C   0  0  0  0  0  0  0  0  0  0  0  0
  139.3210   81.6910  220.7060 C   0  0  0  0  0  0  0  0  0  0  0  0
  138.1530   81.4590  221.1700 O   0  0  0  0  0  0  0  0  0  0  0  0
  140.1910   80.5700  220.6670 N   0  0  0  0  0  0  0  0  0  0  0  0
  140.9090   80.3030  221.8940 C   0  0  0  0  0  0  0  0  0  0  0  0
  142.2040   80.7740  222.0410 C   0  0  0  0  0  0  0  0  0  0  0  0
  142.9420   80.5440  223.2000 C   0  0  0  0  0  0  0  0  0  0  0  0
  142.3380   79.8280  224.2030 C   0  0  0  0  0  0  0  0  0  0  0  0
  141.0400   79.3450  224.0830 C   0  0  0  0  0  0  0  0  0  0  0  0
  140.3260   79.5880  222.9170 C   0  0  0  0  0  0  0  0  0  0  0  0
  140.3950   79.7250  219.5290 C   0  0  0  0  0  0  0  0  0  0  0  0
  140.6830   78.2950  219.8200 C   0  0  0  0  0  0  0  0  0  0  0  0
  142.1400   77.8900  219.5170 C   0  0  0  0  0  0  0  0  0  0  0  0
  142.2560   78.0090  218.0810 N   0  0  0  0  0  0  0  0  0  0  0  0
  142.9480   77.1070  217.2360 C   0  0  0  0  0  0  0  0  0  0  0  0
  142.8910   77.3760  215.9900 O   0  0  0  0  0  0  0  0  0  0  0  0
  143.6970   75.9280  217.6590 C   0  0  2  0  0  0  0  0  0  0  0  0
  144.5390   75.4320  216.6620 N   0  0  0  0  0  0  0  0  0  0  0  0
  142.8500   74.8440  218.3180 C   0  0  1  0  0  0  0  0  0  0  0  0
  143.4450   73.5030  217.9600 C   0  0  0  0  0  0  0  0  0  0  0  0
  144.4430   73.2160  218.9870 C   0  0  0  0  0  0  0  0  0  0  0  0
  145.4950   72.3240  218.9860 C   0  0  0  0  0  0  0  0  0  0  0  0
  146.2930   72.2490  220.1110 C   0  0  0  0  0  0  0  0  0  0  0  0
  146.0780   73.0210  221.2120 C   0  0  0  0  0  0  0  0  0  0  0  0
  145.0050   73.9120  221.1770 C   0  0  0  0  0  0  0  0  0  0  0  0
  144.1840   74.0110  220.0600 C   0  0  0  0  0  0  0  0  0  0  0  0
  142.9950   74.8990  219.8050 C   0  0  2  0  0  0  0  0  0  0  0  0
  141.8060   74.4050  220.5310 C   0  0  0  0  0  0  0  0  0  0  0  0
  141.3300   73.1290  220.5220 C   0  0  0  0  0  0  0  0  0  0  0  0
  140.2080   72.8140  221.2610 C   0  0  0  0  0  0  0  0  0  0  0  0
  139.5590   73.7730  222.0100 C   0  0  0  0  0  0  0  0  0  0  0  0
  140.0290   75.0340  222.0180 N   0  0  0  0  0  0  0  0  0  0  0  0
  141.1180   75.3330  221.3010 C   0  0  0  0  0  0  0  0  0  0  0  0
  141.5900   79.1900  217.4960 C   0  0  0  0  0  0  0  0  0  0  0  0
  141.4150   80.2660  218.5450 C   0  0  0  0  0  0  0  0  0  0  0  0
  140.4183   83.5722  222.2209 H   0  0  0  0  0  0  0  0  0  0  0  0
  141.6710   83.3349  220.9555 H   0  0  0  0  0  0  0  0  0  0  0  0
  140.6650   84.8230  220.9555 H   0  0  0  0  0  0  0  0  0  0  0  0
  138.7147   83.6408  220.2814 H   0  0  0  0  0  0  0  0  0  0  0  0
  140.0790   82.9703  219.2682 H   0  0  0  0  0  0  0  0  0  0  0  0
  142.6618   81.3452  221.2199 H   0  0  0  0  0  0  0  0  0  0  0  0
  143.9695   80.9218  223.3071 H   0  0  0  0  0  0  0  0  0  0  0  0
  142.8975   79.6305  225.1293 H   0  0  0  0  0  0  0  0  0  0  0  0
  140.5822   78.7750  224.9049 H   0  0  0  0  0  0  0  0  0  0  0  0
  139.2982   79.2108  222.8106 H   0  0  0  0  0  0  0  0  0  0  0  0
  139.4005   79.7452  219.0594 H   0  0  0  0  0  0  0  0  0  0  0  0
  140.4838   78.1090  220.8857 H   0  0  0  0  0  0  0  0  0  0  0  0
  140.0357   77.6934  219.1650 H   0  0  0  0  0  0  0  0  0  0  0  0
  142.8450   78.5669  220.0217 H   0  0  0  0  0  0  0  0  0  0  0  0
  142.3759   76.8766  219.8738 H   0  0  0  0  0  0  0  0  0  0  0  0
  144.3523   76.2914  218.4643 H   0  0  0  0  0  0  0  0  0  0  0  0
  145.4400   75.0750  216.9480 H   0  0  0  0  0  0  0  0  0  0  0  0
  144.4220   75.6940  215.6990 H   0  0  0  0  0  0  0  0  0  0  0  0
  141.8082   74.9840  217.9939 H   0  0  0  0  0  0  0  0  0  0  0  0
  142.6650   72.7274  217.9582 H   0  0  0  0  0  0  0  0  0  0  0  0
  143.8941   73.5175  216.9559 H   0  0  0  0  0  0  0  0  0  0  0  0
  145.6936   71.6879  218.1108 H   0  0  0  0  0  0  0  0  0  0  0  0
  147.1334   71.5393  220.1178 H   0  0  0  0  0  0  0  0  0  0  0  0
  146.7269   72.9448  222.0970 H   0  0  0  0  0  0  0  0  0  0  0  0
  144.8048   74.5490  222.0511 H   0  0  0  0  0  0  0  0  0  0  0  0
  143.1151   75.9318  220.1641 H   0  0  0  0  0  0  0  0  0  0  0  0
  141.8372   72.3537  219.9289 H   0  0  0  0  0  0  0  0  0  0  0  0
  139.8256   71.7827  221.2525 H   0  0  0  0  0  0  0  0  0  0  0  0
  138.6657   73.5097  222.5953 H   0  0  0  0  0  0  0  0  0  0  0  0
  141.4879   76.3687  221.3226 H   0  0  0  0  0  0  0  0  0  0  0  0
  142.2044   79.5825  216.6723 H   0  0  0  0  0  0  0  0  0  0  0  0
  140.6003   78.8930  217.1188 H   0  0  0  0  0  0  0  0  0  0  0  0
  142.3701   80.4635  219.0537 H   0  0  0  0  0  0  0  0  0  0  0  0
  141.0822   81.2148  218.0989 H   0  0  0  0  0  0  0  0  0  0  0  0
  1  2  1  0
  2  3  1  0
  3  4  2  0
  3  5  1  0
  5  6  1  0
  6  7  2  0
  7  8  1  0
  8  9  2  0
  9 10  1  0
 10 11  2  0
  5 12  1  0
 12 13  1  0
 13 14  1  0
 14 15  1  0
 15 16  1  0
 16 17  2  0
 16 18  1  0
 18 19  1  0
 18 20  1  0
 20 21  1  0
 21 22  1  0
 22 23  2  0
 23 24  1  0
 24 25  2  0
 25 26  1  0
 26 27  2  0
 27 28  1  0
 28 29  1  0
 29 30  2  0
 30 31  1  0
 31 32  2  0
 32 33  1  0
 33 34  2  0
 15 35  1  0
 35 36  1  0
 11  6  1  0
 36 12  1  0
 28 20  1  0
 34 29  1  0
 27 22  1  0
  1 37  1  0
  1 38  1  0
  1 39  1  0
  2 40  1  0
  2 41  1  0
  7 42  1  0
  8 43  1  0
  9 44  1  0
 10 45  1  0
 11 46  1  0
 12 47  1  0
 13 48  1  0
 13 49  1  0
 14 50  1  0
 14 51  1  0
 18 52  1  1
 19 53  1  0
 19 54  1  0
 20 55  1  1
 21 56  1  0
 21 57  1  0
 23 58  1  0
 24 59  1  0
 25 60  1  0
 26 61  1  0
 28 62  1  1
 30 63  1  0
 31 64  1  0
 32 65  1  0
 34 66  1  0
 35 67  1  0
 35 68  1  0
 36 69  1  0
 36 70  1  0
M  END
>  <smiles>  (84) 
CCC(=O)N(c1ccccc1)C1CCN(C(=O)[C@H](N)C2Cc3ccccc3C2c2cccnc2)CC1

>  <score_type>  (84) 
oracle

>  <origin>  (84) 
autodockgpu

>  <m_score__min__energy>  (84) 
-9.3300000000000001

>  <m_primary>  (84) 
energy

>  <rmsd>  (84) 
7.44864658665747

>  <m_score__min__rmsd>  (84) 
7.44864658665747

>  <meeko>  (84) 
{"free_energy": -7.79, "intermolecular_energy": -10.18, "internal_energy": -3.31, "cluster_size": 10, "cluster_id": 3, "rank_in_cluster": 8}

>  <energy>  (84) 
-7.69

>  <cluster_rmsd>  (84) 
0.0

>  <cluster>  (84) 
5

$$$$

     RDKit          3D

 70 74  0  0  0  0  0  0  0  0999 V2000
  138.0080   82.9710  221.9420 C   0  0  0  0  0  0  0  0  0  0  0  0
  137.2050   82.0810  222.8910 C   0  0  0  0  0  0  0  0  0  0  0  0
  138.0140   81.0810  223.5740 C   0  0  0  0  0  0  0  0  0  0  0  0
  138.0890   81.1260  224.8500 O   0  0  0  0  0  0  0  0  0  0  0  0
  138.7500   80.0330  222.9610 N   0  0  0  0  0  0  0  0  0  0  0  0
  140.1820   80.2250  222.9230 C   0  0  0  0  0  0  0  0  0  0  0  0
  140.9830   79.5520  223.8310 C   0  0  0  0  0  0  0  0  0  0  0  0
  142.3690   79.7010  223.8400 C   0  0  0  0  0  0  0  0  0  0  0  0
  142.9200   80.5450  222.9090 C   0  0  0  0  0  0  0  0  0  0  0  0
  142.1400   81.2320  221.9850 C   0  0  0  0  0  0  0  0  0  0  0  0
  140.7620   81.0660  221.9980 C   0  0  0  0  0  0  0  0  0  0  0  0
  138.1790   78.8470  222.3970 C   0  0  0  0  0  0  0  0  0  0  0  0
  138.5140   77.5710  223.0810 C   0  0  0  0  0  0  0  0  0  0  0  0
  139.4650   76.6690  222.2660 C   0  0  0  0  0  0  0  0  0  0  0  0
  138.6900   76.2800  221.1100 N   0  0  0  0  0  0  0  0  0  0  0  0
  138.6810   74.9910  220.5240 C   0  0  0  0  0  0  0  0  0  0  0  0
  137.8920   74.8500  219.5310 O   0  0  0  0  0  0  0  0  0  0  0  0
  139.4740   73.8430  220.9510 C   0  0  2  0  0  0  0  0  0  0  0  0
  139.6290   73.7730  222.3370 N   0  0  0  0  0  0  0  0  0  0  0  0
  140.7880   73.6670  220.1950 C   0  0  1  0  0  0  0  0  0  0  0  0
  140.6220   74.2670  218.8200 C   0  0  0  0  0  0  0  0  0  0  0  0
  140.9920   75.6750  218.9460 C   0  0  0  0  0  0  0  0  0  0  0  0
  140.7190   76.7470  218.1220 C   0  0  0  0  0  0  0  0  0  0  0  0
  141.2040   77.9890  218.4800 C   0  0  0  0  0  0  0  0  0  0  0  0
  141.9350   78.1900  219.6110 C   0  0  0  0  0  0  0  0  0  0  0  0
  142.1900   77.0830  220.4210 C   0  0  0  0  0  0  0  0  0  0  0  0
  141.7170   75.8190  220.0870 C   0  0  0  0  0  0  0  0  0  0  0  0
  141.8610   74.5070  220.8110 C   0  0  2  0  0  0  0  0  0  0  0  0
  143.2200   73.9540  220.6270 C   0  0  0  0  0  0  0  0  0  0  0  0
  144.3680   74.6730  220.4800 C   0  0  0  0  0  0  0  0  0  0  0  0
  145.5700   74.0130  220.3250 C   0  0  0  0  0  0  0  0  0  0  0  0
  145.6290   72.6360  220.3170 C   0  0  0  0  0  0  0  0  0  0  0  0
  144.4940   71.9260  220.4620 N   0  0  0  0  0  0  0  0  0  0  0  0
  143.3320   72.5700  220.6130 C   0  0  0  0  0  0  0  0  0  0  0  0
  137.8640   77.3540  220.5200 C   0  0  0  0  0  0  0  0  0  0  0  0
  138.4160   78.7100  220.9040 C   0  0  0  0  0  0  0  0  0  0  0  0
  138.6318   83.6624  222.5275 H   0  0  0  0  0  0  0  0  0  0  0  0
  138.6518   82.3438  221.3078 H   0  0  0  0  0  0  0  0  0  0  0  0
  137.3181   83.5471  221.3078 H   0  0  0  0  0  0  0  0  0  0  0  0
  136.7290   82.7206  223.6489 H   0  0  0  0  0  0  0  0  0  0  0  0
  136.4682   81.5388  222.2801 H   0  0  0  0  0  0  0  0  0  0  0  0
  140.5124   78.8815  224.5652 H   0  0  0  0  0  0  0  0  0  0  0  0
  142.9967   79.1627  224.5654 H   0  0  0  0  0  0  0  0  0  0  0  0
  144.0113   80.6823  222.8930 H   0  0  0  0  0  0  0  0  0  0  0  0
  142.6111   81.9013  221.2501 H   0  0  0  0  0  0  0  0  0  0  0  0
  140.1347   81.6041  221.2721 H   0  0  0  0  0  0  0  0  0  0  0  0
  137.1063   79.0130  222.5750 H   0  0  0  0  0  0  0  0  0  0  0  0
  138.9951   77.8064  224.0418 H   0  0  0  0  0  0  0  0  0  0  0  0
  137.5732   77.0162  223.2115 H   0  0  0  0  0  0  0  0  0  0  0  0
  140.3641   77.2254  221.9624 H   0  0  0  0  0  0  0  0  0  0  0  0
  139.8186   75.8026  222.8442 H   0  0  0  0  0  0  0  0  0  0  0  0
  138.8712   72.9690  220.6633 H   0  0  0  0  0  0  0  0  0  0  0  0
  140.3730   73.1900  222.6930 H   0  0  0  0  0  0  0  0  0  0  0  0
  138.8770   74.0080  222.9600 H   0  0  0  0  0  0  0  0  0  0  0  0
  141.0405   72.5964  220.1987 H   0  0  0  0  0  0  0  0  0  0  0  0
  141.2827   73.7614  218.1004 H   0  0  0  0  0  0  0  0  0  0  0  0
  139.5912   74.1532  218.4532 H   0  0  0  0  0  0  0  0  0  0  0  0
  140.1296   76.6156  217.2026 H   0  0  0  0  0  0  0  0  0  0  0  0
  140.9919   78.8485  217.8270 H   0  0  0  0  0  0  0  0  0  0  0  0
  142.3109   79.1891  219.8765 H   0  0  0  0  0  0  0  0  0  0  0  0
  142.7770   77.2129  221.3422 H   0  0  0  0  0  0  0  0  0  0  0  0
  141.7473   74.5759  221.9029 H   0  0  0  0  0  0  0  0  0  0  0  0
  144.3369   75.7725  220.4848 H   0  0  0  0  0  0  0  0  0  0  0  0
  146.4957   74.5951  220.2059 H   0  0  0  0  0  0  0  0  0  0  0  0
  146.5937   72.1221  220.1934 H   0  0  0  0  0  0  0  0  0  0  0  0
  142.4165   71.9719  220.7324 H   0  0  0  0  0  0  0  0  0  0  0  0
  137.8700   77.2564  219.4244 H   0  0  0  0  0  0  0  0  0  0  0  0
  136.8355   77.2649  220.8998 H   0  0  0  0  0  0  0  0  0  0  0  0
  139.4918   78.7625  220.6808 H   0  0  0  0  0  0  0  0  0  0  0  0
  137.9278   79.5193  220.3413 H   0  0  0  0  0  0  0  0  0  0  0  0
  1  2  1  0
  2  3  1  0
  3  4  2  0
  3  5  1  0
  5  6  1  0
  6  7  2  0
  7  8  1  0
  8  9  2  0
  9 10  1  0
 10 11  2  0
  5 12  1  0
 12 13  1  0
 13 14  1  0
 14 15  1  0
 15 16  1  0
 16 17  2  0
 16 18  1  0
 18 19  1  0
 18 20  1  0
 20 21  1  0
 21 22  1  0
 22 23  2  0
 23 24  1  0
 24 25  2  0
 25 26  1  0
 26 27  2  0
 27 28  1  0
 28 29  1  0
 29 30  2  0
 30 31  1  0
 31 32  2  0
 32 33  1  0
 33 34  2  0
 15 35  1  0
 35 36  1  0
 11  6  1  0
 36 12  1  0
 28 20  1  0
 34 29  1  0
 27 22  1  0
  1 37  1  0
  1 38  1  0
  1 39  1  0
  2 40  1  0
  2 41  1  0
  7 42  1  0
  8 43  1  0
  9 44  1  0
 10 45  1  0
 11 46  1  0
 12 47  1  0
 13 48  1  0
 13 49  1  0
 14 50  1  0
 14 51  1  0
 18 52  1  6
 19 53  1  0
 19 54  1  0
 20 55  1  6
 21 56  1  0
 21 57  1  0
 23 58  1  0
 24 59  1  0
 25 60  1  0
 26 61  1  0
 28 62  1  1
 30 63  1  0
 31 64  1  0
 32 65  1  0
 34 66  1  0
 35 67  1  0
 35 68  1  0
 36 69  1  0
 36 70  1  0
M  END
>  <smiles>  (85) 
CCC(=O)N(c1ccccc1)C1CCN(C(=O)[C@H](N)C2Cc3ccccc3C2c2cccnc2)CC1

>  <score_type>  (85) 
oracle

>  <origin>  (85) 
autodockgpu

>  <m_score__min__energy>  (85) 
-9.3300000000000001

>  <m_primary>  (85) 
energy

>  <rmsd>  (85) 
5.978792896562247

>  <m_score__min__rmsd>  (85) 
5.978792896562247

>  <meeko>  (85) 
{"free_energy": -7.46, "intermolecular_energy": -9.85, "internal_energy": -3.41, "cluster_size": 15, "cluster_id": 5, "rank_in_cluster": 13}

>  <energy>  (85) 
-7.68

>  <cluster_rmsd>  (85) 
0.41

>  <cluster>  (85) 
5

$$$$

     RDKit          3D

 70 74  0  0  0  0  0  0  0  0999 V2000
  137.2970   81.4030  225.5280 C   0  0  0  0  0  0  0  0  0  0  0  0
  136.9310   80.8090  224.1670 C   0  0  0  0  0  0  0  0  0  0  0  0
  138.0030   80.9060  223.1840 C   0  0  0  0  0  0  0  0  0  0  0  0
  138.2820   82.0560  222.7010 O   0  0  0  0  0  0  0  0  0  0  0  0
  138.7920   79.8340  222.6920 N   0  0  0  0  0  0  0  0  0  0  0  0
  140.2210   80.0430  222.7490 C   0  0  0  0  0  0  0  0  0  0  0  0
  140.8530   80.7100  221.7110 C   0  0  0  0  0  0  0  0  0  0  0  0
  142.2280   80.9370  221.7130 C   0  0  0  0  0  0  0  0  0  0  0  0
  142.9440   80.4740  222.7890 C   0  0  0  0  0  0  0  0  0  0  0  0
  142.3360   79.8030  223.8440 C   0  0  0  0  0  0  0  0  0  0  0  0
  140.9640   79.5890  223.8170 C   0  0  0  0  0  0  0  0  0  0  0  0
  138.2760   78.6090  222.1590 C   0  0  0  0  0  0  0  0  0  0  0  0
  138.6510   77.3700  222.8900 C   0  0  0  0  0  0  0  0  0  0  0  0
  139.6480   76.4810  222.1180 C   0  0  0  0  0  0  0  0  0  0  0  0
  138.9070   76.0240  220.9650 N   0  0  0  0  0  0  0  0  0  0  0  0
  138.9570   74.7170  220.4220 C   0  0  0  0  0  0  0  0  0  0  0  0
  138.1890   74.5120  219.4240 O   0  0  0  0  0  0  0  0  0  0  0  0
  139.7880   73.6150  220.8980 C   0  0  2  0  0  0  0  0  0  0  0  0
  139.9710   73.6300  222.2820 N   0  0  0  0  0  0  0  0  0  0  0  0
  141.0910   73.4280  220.1260 C   0  0  1  0  0  0  0  0  0  0  0  0
  140.8860   73.9540  218.7250 C   0  0  0  0  0  0  0  0  0  0  0  0
  141.2280   75.3740  218.7740 C   0  0  0  0  0  0  0  0  0  0  0  0
  140.9170   76.3970  217.9020 C   0  0  0  0  0  0  0  0  0  0  0  0
  141.3810   77.6660  218.1880 C   0  0  0  0  0  0  0  0  0  0  0  0
  142.1290   77.9390  219.2920 C   0  0  0  0  0  0  0  0  0  0  0  0
  142.4230   76.8790  220.1510 C   0  0  0  0  0  0  0  0  0  0  0  0
  141.9710   75.5910  219.8920 C   0  0  0  0  0  0  0  0  0  0  0  0
  142.1570   74.3200  220.6770 C   0  0  2  0  0  0  0  0  0  0  0  0
  143.5240   73.7860  220.4950 C   0  0  0  0  0  0  0  0  0  0  0  0
  144.6860   74.4820  220.6460 C   0  0  0  0  0  0  0  0  0  0  0  0
  145.8930   73.8430  220.4490 C   0  0  0  0  0  0  0  0  0  0  0  0
  145.9430   72.5100  220.1020 C   0  0  0  0  0  0  0  0  0  0  0  0
  144.7940   71.8230  219.9530 N   0  0  0  0  0  0  0  0  0  0  0  0
  143.6270   72.4470  220.1450 C   0  0  0  0  0  0  0  0  0  0  0  0
  138.0490   77.0440  220.3290 C   0  0  0  0  0  0  0  0  0  0  0  0
  138.5410   78.4330  220.6760 C   0  0  0  0  0  0  0  0  0  0  0  0
  136.9006   80.7597  226.3274 H   0  0  0  0  0  0  0  0  0  0  0  0
  138.3915   81.4671  225.6177 H   0  0  0  0  0  0  0  0  0  0  0  0
  136.8622   82.4094  225.6177 H   0  0  0  0  0  0  0  0  0  0  0  0
  136.6812   79.7468  224.3063 H   0  0  0  0  0  0  0  0  0  0  0  0
  136.0813   81.3894  223.7781 H   0  0  0  0  0  0  0  0  0  0  0  0
  140.2527   81.0700  220.8625 H   0  0  0  0  0  0  0  0  0  0  0  0
  142.7207   81.4667  220.8843 H   0  0  0  0  0  0  0  0  0  0  0  0
  144.0312   80.6388  222.8173 H   0  0  0  0  0  0  0  0  0  0  0  0
  142.9366   79.4446  224.6930 H   0  0  0  0  0  0  0  0  0  0  0  0
  140.4720   79.0587  224.6457 H   0  0  0  0  0  0  0  0  0  0  0  0
  137.1949   78.7382  222.3154 H   0  0  0  0  0  0  0  0  0  0  0  0
  139.1085   77.6557  223.8487 H   0  0  0  0  0  0  0  0  0  0  0  0
  137.7310   76.7828  223.0270 H   0  0  0  0  0  0  0  0  0  0  0  0
  140.5289   77.0627  221.8086 H   0  0  0  0  0  0  0  0  0  0  0  0
  140.0263   75.6483  222.7292 H   0  0  0  0  0  0  0  0  0  0  0  0
  139.2033   72.7107  220.6738 H   0  0  0  0  0  0  0  0  0  0  0  0
  140.6870   73.0280  222.6630 H   0  0  0  0  0  0  0  0  0  0  0  0
  139.2500   73.9540  222.9020 H   0  0  0  0  0  0  0  0  0  0  0  0
  141.3667   72.3644  220.1790 H   0  0  0  0  0  0  0  0  0  0  0  0
  141.5439   73.4265  218.0186 H   0  0  0  0  0  0  0  0  0  0  0  0
  139.8515   73.8002  218.3842 H   0  0  0  0  0  0  0  0  0  0  0  0
  140.3146   76.2067  217.0015 H   0  0  0  0  0  0  0  0  0  0  0  0
  141.1369   78.4869  217.4977 H   0  0  0  0  0  0  0  0  0  0  0  0
  142.4885   78.9577  219.4995 H   0  0  0  0  0  0  0  0  0  0  0  0
  143.0253   77.0673  221.0520 H   0  0  0  0  0  0  0  0  0  0  0  0
  142.0625   74.4419  221.7661 H   0  0  0  0  0  0  0  0  0  0  0  0
  144.6618   75.5462  220.9231 H   0  0  0  0  0  0  0  0  0  0  0  0
  146.8300   74.4062  220.5708 H   0  0  0  0  0  0  0  0  0  0  0  0
  146.9117   72.0121  219.9483 H   0  0  0  0  0  0  0  0  0  0  0  0
  142.6999   71.8686  220.0189 H   0  0  0  0  0  0  0  0  0  0  0  0
  138.0757   76.9115  219.2373 H   0  0  0  0  0  0  0  0  0  0  0  0
  137.0192   76.9262  220.6972 H   0  0  0  0  0  0  0  0  0  0  0  0
  139.6172   78.5212  220.4664 H   0  0  0  0  0  0  0  0  0  0  0  0
  138.0298   79.2033  220.0800 H   0  0  0  0  0  0  0  0  0  0  0  0
  1  2  1  0
  2  3  1  0
  3  4  2  0
  3  5  1  0
  5  6  1  0
  6  7  2  0
  7  8  1  0
  8  9  2  0
  9 10  1  0
 10 11  2  0
  5 12  1  0
 12 13  1  0
 13 14  1  0
 14 15  1  0
 15 16  1  0
 16 17  2  0
 16 18  1  0
 18 19  1  0
 18 20  1  0
 20 21  1  0
 21 22  1  0
 22 23  2  0
 23 24  1  0
 24 25  2  0
 25 26  1  0
 26 27  2  0
 27 28  1  0
 28 29  1  0
 29 30  2  0
 30 31  1  0
 31 32  2  0
 32 33  1  0
 33 34  2  0
 15 35  1  0
 35 36  1  0
 11  6  1  0
 36 12  1  0
 28 20  1  0
 34 29  1  0
 27 22  1  0
  1 37  1  0
  1 38  1  0
  1 39  1  0
  2 40  1  0
  2 41  1  0
  7 42  1  0
  8 43  1  0
  9 44  1  0
 10 45  1  0
 11 46  1  0
 12 47  1  0
 13 48  1  0
 13 49  1  0
 14 50  1  0
 14 51  1  0
 18 52  1  1
 19 53  1  0
 19 54  1  0
 20 55  1  6
 21 56  1  0
 21 57  1  0
 23 58  1  0
 24 59  1  0
 25 60  1  0
 26 61  1  0
 28 62  1  1
 30 63  1  0
 31 64  1  0
 32 65  1  0
 34 66  1  0
 35 67  1  0
 35 68  1  0
 36 69  1  0
 36 70  1  0
M  END
>  <smiles>  (86) 
CCC(=O)N(c1ccccc1)C1CCN(C(=O)[C@H](N)C2Cc3ccccc3C2c2cccnc2)CC1

>  <score_type>  (86) 
oracle

>  <origin>  (86) 
autodockgpu

>  <m_score__min__energy>  (86) 
-9.3300000000000001

>  <m_primary>  (86) 
energy

>  <rmsd>  (86) 
6.072101102232951

>  <m_score__min__rmsd>  (86) 
6.072101102232951

>  <meeko>  (86) 
{"free_energy": -7.68, "intermolecular_energy": -10.07, "internal_energy": -3.28, "cluster_size": 15, "cluster_id": 5, "rank_in_cluster": 2}

>  <energy>  (86) 
-7.68

>  <cluster_rmsd>  (86) 
0.04

>  <cluster>  (86) 
5

$$$$

     RDKit          3D

 70 74  0  0  0  0  0  0  0  0999 V2000
  146.3480   73.2880  221.9280 C   0  0  0  0  0  0  0  0  0  0  0  0
  145.7860   73.9740  220.6810 C   0  0  0  0  0  0  0  0  0  0  0  0
  145.4630   73.0470  219.6050 C   0  0  0  0  0  0  0  0  0  0  0  0
  146.2230   73.0200  218.5770 O   0  0  0  0  0  0  0  0  0  0  0  0
  144.3660   72.1470  219.5700 N   0  0  0  0  0  0  0  0  0  0  0  0
  144.7130   70.7600  219.3560 C   0  0  0  0  0  0  0  0  0  0  0  0
  143.7060   69.8300  219.1540 C   0  0  0  0  0  0  0  0  0  0  0  0
  143.9830   68.4800  218.9450 C   0  0  0  0  0  0  0  0  0  0  0  0
  145.3010   68.0980  218.9460 C   0  0  0  0  0  0  0  0  0  0  0  0
  146.3310   69.0090  219.1450 C   0  0  0  0  0  0  0  0  0  0  0  0
  146.0280   70.3490  219.3510 C   0  0  0  0  0  0  0  0  0  0  0  0
  142.9920   72.5170  219.7240 C   0  0  0  0  0  0  0  0  0  0  0  0
  142.6930   73.9710  219.6360 C   0  0  0  0  0  0  0  0  0  0  0  0
  142.2970   74.5990  220.9880 C   0  0  0  0  0  0  0  0  0  0  0  0
  141.0340   73.9780  221.3180 N   0  0  0  0  0  0  0  0  0  0  0  0
  139.9200   74.6390  221.8910 C   0  0  0  0  0  0  0  0  0  0  0  0
  138.8850   73.9120  222.0630 O   0  0  0  0  0  0  0  0  0  0  0  0
  139.8570   76.0420  222.2870 C   0  0  2  0  0  0  0  0  0  0  0  0
  138.7430   76.3350  223.0760 N   0  0  0  0  0  0  0  0  0  0  0  0
  140.0530   77.0310  221.1420 C   0  0  1  0  0  0  0  0  0  0  0  0
  139.2790   78.2860  221.4700 C   0  0  0  0  0  0  0  0  0  0  0  0
  140.1900   79.1340  222.2340 C   0  0  0  0  0  0  0  0  0  0  0  0
  139.9300   80.2120  223.0550 C   0  0  0  0  0  0  0  0  0  0  0  0
  140.9950   80.8490  223.6590 C   0  0  0  0  0  0  0  0  0  0  0  0
  142.2840   80.4520  223.4740 C   0  0  0  0  0  0  0  0  0  0  0  0
  142.5100   79.3580  222.6380 C   0  0  0  0  0  0  0  0  0  0  0  0
  141.4580   78.6960  222.0150 C   0  0  0  0  0  0  0  0  0  0  0  0
  141.4700   77.5030  221.0960 C   0  0  2  0  0  0  0  0  0  0  0  0
  141.9190   77.8900  219.7410 C   0  0  0  0  0  0  0  0  0  0  0  0
  142.5560   77.0850  218.8440 C   0  0  0  0  0  0  0  0  0  0  0  0
  142.9070   77.5880  217.6080 C   0  0  0  0  0  0  0  0  0  0  0  0
  142.6240   78.8930  217.2640 C   0  0  0  0  0  0  0  0  0  0  0  0
  141.9950   79.6870  218.1510 N   0  0  0  0  0  0  0  0  0  0  0  0
  141.6560   79.1950  219.3480 C   0  0  0  0  0  0  0  0  0  0  0  0
  140.9520   72.5330  221.0240 C   0  0  0  0  0  0  0  0  0  0  0  0
  142.3400   71.9320  220.9630 C   0  0  0  0  0  0  0  0  0  0  0  0
  145.9471   73.7774  222.8278 H   0  0  0  0  0  0  0  0  0  0  0  0
  146.0557   72.2275  221.9263 H   0  0  0  0  0  0  0  0  0  0  0  0
  147.4452   73.3659  221.9263 H   0  0  0  0  0  0  0  0  0  0  0  0
  144.8697   74.5132  220.9631 H   0  0  0  0  0  0  0  0  0  0  0  0
  146.5673   74.6497  220.3029 H   0  0  0  0  0  0  0  0  0  0  0  0
  142.6587   70.1664  219.1587 H   0  0  0  0  0  0  0  0  0  0  0  0
  143.1764   67.7493  218.7855 H   0  0  0  0  0  0  0  0  0  0  0  0
  145.5495   67.0387  218.7844 H   0  0  0  0  0  0  0  0  0  0  0  0
  147.3780   68.6719  219.1395 H   0  0  0  0  0  0  0  0  0  0  0  0
  146.8351   71.0793  219.5096 H   0  0  0  0  0  0  0  0  0  0  0  0
  142.5400   72.0588  218.8319 H   0  0  0  0  0  0  0  0  0  0  0  0
  143.5878   74.4887  219.2601 H   0  0  0  0  0  0  0  0  0  0  0  0
  141.8319   74.0847  218.9611 H   0  0  0  0  0  0  0  0  0  0  0  0
  143.0523   74.3768  221.7563 H   0  0  0  0  0  0  0  0  0  0  0  0
  142.2235   75.6953  220.9351 H   0  0  0  0  0  0  0  0  0  0  0  0
  140.7379   76.1874  222.9295 H   0  0  0  0  0  0  0  0  0  0  0  0
  138.1400   75.5670  223.3340 H   0  0  0  0  0  0  0  0  0  0  0  0
  138.3660   77.2650  223.1240 H   0  0  0  0  0  0  0  0  0  0  0  0
  139.7469   76.5347  220.2092 H   0  0  0  0  0  0  0  0  0  0  0  0
  138.9675   78.7952  220.5460 H   0  0  0  0  0  0  0  0  0  0  0  0
  138.3668   78.0585  222.0410 H   0  0  0  0  0  0  0  0  0  0  0  0
  138.8987   80.5554  223.2241 H   0  0  0  0  0  0  0  0  0  0  0  0
  140.7948   81.7095  224.3143 H   0  0  0  0  0  0  0  0  0  0  0  0
  143.1174   80.9749  223.9659 H   0  0  0  0  0  0  0  0  0  0  0  0
  143.5405   79.0126  222.4685 H   0  0  0  0  0  0  0  0  0  0  0  0
  142.1719   76.7094  221.3919 H   0  0  0  0  0  0  0  0  0  0  0  0
  142.7886   76.0417  219.1037 H   0  0  0  0  0  0  0  0  0  0  0  0
  143.4210   76.9373  216.8852 H   0  0  0  0  0  0  0  0  0  0  0  0
  142.9092   79.2813  216.2751 H   0  0  0  0  0  0  0  0  0  0  0  0
  141.1419   79.8595  220.0580 H   0  0  0  0  0  0  0  0  0  0  0  0
  140.3743   72.0334  221.8156 H   0  0  0  0  0  0  0  0  0  0  0  0
  140.4570   72.3922  220.0518 H   0  0  0  0  0  0  0  0  0  0  0  0
  142.9140   72.2026  221.8615 H   0  0  0  0  0  0  0  0  0  0  0  0
  142.3030   70.8335  220.9197 H   0  0  0  0  0  0  0  0  0  0  0  0
  1  2  1  0
  2  3  1  0
  3  4  2  0
  3  5  1  0
  5  6  1  0
  6  7  2  0
  7  8  1  0
  8  9  2  0
  9 10  1  0
 10 11  2  0
  5 12  1  0
 12 13  1  0
 13 14  1  0
 14 15  1  0
 15 16  1  0
 16 17  2  0
 16 18  1  0
 18 19  1  0
 18 20  1  0
 20 21  1  0
 21 22  1  0
 22 23  2  0
 23 24  1  0
 24 25  2  0
 25 26  1  0
 26 27  2  0
 27 28  1  0
 28 29  1  0
 29 30  2  0
 30 31  1  0
 31 32  2  0
 32 33  1  0
 33 34  2  0
 15 35  1  0
 35 36  1  0
 11  6  1  0
 36 12  1  0
 28 20  1  0
 34 29  1  0
 27 22  1  0
  1 37  1  0
  1 38  1  0
  1 39  1  0
  2 40  1  0
  2 41  1  0
  7 42  1  0
  8 43  1  0
  9 44  1  0
 10 45  1  0
 11 46  1  0
 12 47  1  0
 13 48  1  0
 13 49  1  0
 14 50  1  0
 14 51  1  0
 18 52  1  1
 19 53  1  0
 19 54  1  0
 20 55  1  6
 21 56  1  0
 21 57  1  0
 23 58  1  0
 24 59  1  0
 25 60  1  0
 26 61  1  0
 28 62  1  1
 30 63  1  0
 31 64  1  0
 32 65  1  0
 34 66  1  0
 35 67  1  0
 35 68  1  0
 36 69  1  0
 36 70  1  0
M  END
>  <smiles>  (87) 
CCC(=O)N(c1ccccc1)C1CCN(C(=O)[C@H](N)C2Cc3ccccc3C2c2cccnc2)CC1

>  <score_type>  (87) 
oracle

>  <origin>  (87) 
autodockgpu

>  <m_score__min__energy>  (87) 
-9.3300000000000001

>  <m_primary>  (87) 
energy

>  <rmsd>  (87) 
4.415451708636248

>  <m_score__min__rmsd>  (87) 
4.415451708636248

>  <meeko>  (87) 
{"free_energy": -9.16, "intermolecular_energy": -11.54, "internal_energy": -2.88, "cluster_size": 17, "cluster_id": 1, "rank_in_cluster": 8}

>  <energy>  (87) 
-7.64

>  <cluster_rmsd>  (87) 
0.11

>  <cluster>  (87) 
5

$$$$

     RDKit          3D

 70 74  0  0  0  0  0  0  0  0999 V2000
  136.2210   81.2470  225.2170 C   0  0  0  0  0  0  0  0  0  0  0  0
  137.7260   81.2230  224.9450 C   0  0  0  0  0  0  0  0  0  0  0  0
  138.0580   81.0910  223.5320 C   0  0  0  0  0  0  0  0  0  0  0  0
  137.6690   82.0040  222.7270 O   0  0  0  0  0  0  0  0  0  0  0  0
  138.7860   80.0280  222.9360 N   0  0  0  0  0  0  0  0  0  0  0  0
  140.2200   80.2060  222.8990 C   0  0  0  0  0  0  0  0  0  0  0  0
  141.0110   79.5560  223.8320 C   0  0  0  0  0  0  0  0  0  0  0  0
  142.3980   79.6940  223.8430 C   0  0  0  0  0  0  0  0  0  0  0  0
  142.9610   80.5040  222.8890 C   0  0  0  0  0  0  0  0  0  0  0  0
  142.1910   81.1680  221.9400 C   0  0  0  0  0  0  0  0  0  0  0  0
  140.8110   81.0130  221.9510 C   0  0  0  0  0  0  0  0  0  0  0  0
  138.2060   78.8390  222.3870 C   0  0  0  0  0  0  0  0  0  0  0  0
  138.5510   77.5660  223.0730 C   0  0  0  0  0  0  0  0  0  0  0  0
  139.4900   76.6600  222.2490 C   0  0  0  0  0  0  0  0  0  0  0  0
  138.6970   76.2650  221.1070 N   0  0  0  0  0  0  0  0  0  0  0  0
  138.6790   74.9720  220.5290 C   0  0  0  0  0  0  0  0  0  0  0  0
  137.8750   74.8250  219.5490 O   0  0  0  0  0  0  0  0  0  0  0  0
  139.4790   73.8260  220.9500 C   0  0  2  0  0  0  0  0  0  0  0  0
  139.6380   73.7530  222.3350 N   0  0  0  0  0  0  0  0  0  0  0  0
  140.7910   73.6570  220.1900 C   0  0  1  0  0  0  0  0  0  0  0  0
  140.6220   74.2720  218.8210 C   0  0  0  0  0  0  0  0  0  0  0  0
  140.9920   75.6780  218.9620 C   0  0  0  0  0  0  0  0  0  0  0  0
  140.7180   76.7590  218.1490 C   0  0  0  0  0  0  0  0  0  0  0  0
  141.2040   77.9980  218.5200 C   0  0  0  0  0  0  0  0  0  0  0  0
  141.9370   78.1860  219.6510 C   0  0  0  0  0  0  0  0  0  0  0  0
  142.1940   77.0700  220.4480 C   0  0  0  0  0  0  0  0  0  0  0  0
  141.7200   75.8110  220.1030 C   0  0  0  0  0  0  0  0  0  0  0  0
  141.8650   74.4900  220.8120 C   0  0  2  0  0  0  0  0  0  0  0  0
  143.2240   73.9390  220.6190 C   0  0  0  0  0  0  0  0  0  0  0  0
  144.3700   74.6600  220.4640 C   0  0  0  0  0  0  0  0  0  0  0  0
  145.5720   74.0010  220.3010 C   0  0  0  0  0  0  0  0  0  0  0  0
  145.6320   72.6240  220.2940 C   0  0  0  0  0  0  0  0  0  0  0  0
  144.4990   71.9130  220.4480 N   0  0  0  0  0  0  0  0  0  0  0  0
  143.3370   72.5550  220.6060 C   0  0  0  0  0  0  0  0  0  0  0  0
  137.8630   77.3350  220.5240 C   0  0  0  0  0  0  0  0  0  0  0  0
  138.4200   78.6930  220.8920 C   0  0  0  0  0  0  0  0  0  0  0  0
  136.0446   81.2498  226.3028 H   0  0  0  0  0  0  0  0  0  0  0  0
  135.7823   82.1523  224.7719 H   0  0  0  0  0  0  0  0  0  0  0  0
  135.7537   80.3562  224.7719 H   0  0  0  0  0  0  0  0  0  0  0  0
  138.1628   82.1606  225.3195 H   0  0  0  0  0  0  0  0  0  0  0  0
  138.1341   80.3395  225.4578 H   0  0  0  0  0  0  0  0  0  0  0  0
  140.5314   78.9133  224.5849 H   0  0  0  0  0  0  0  0  0  0  0  0
  143.0177   79.1735  224.5880 H   0  0  0  0  0  0  0  0  0  0  0  0
  144.0534   80.6319  222.8744 H   0  0  0  0  0  0  0  0  0  0  0  0
  142.6710   81.8105  221.1871 H   0  0  0  0  0  0  0  0  0  0  0  0
  140.1915   81.5328  221.2053 H   0  0  0  0  0  0  0  0  0  0  0  0
  137.1363   79.0073  222.5803 H   0  0  0  0  0  0  0  0  0  0  0  0
  139.0459   77.8064  224.0255 H   0  0  0  0  0  0  0  0  0  0  0  0
  137.6122   77.0119  223.2201 H   0  0  0  0  0  0  0  0  0  0  0  0
  140.3842   77.2149  221.9288 H   0  0  0  0  0  0  0  0  0  0  0  0
  139.8531   75.7969  222.8262 H   0  0  0  0  0  0  0  0  0  0  0  0
  138.8796   72.9502  220.6606 H   0  0  0  0  0  0  0  0  0  0  0  0
  140.1550   72.9670  222.7040 H   0  0  0  0  0  0  0  0  0  0  0  0
  139.0240   74.2460  222.9590 H   0  0  0  0  0  0  0  0  0  0  0  0
  141.0433   72.5863  220.1822 H   0  0  0  0  0  0  0  0  0  0  0  0
  141.2813   73.7744  218.0946 H   0  0  0  0  0  0  0  0  0  0  0  0
  139.5906   74.1619  218.4547 H   0  0  0  0  0  0  0  0  0  0  0  0
  140.1276   76.6373  217.2289 H   0  0  0  0  0  0  0  0  0  0  0  0
  140.9905   78.8647  217.8772 H   0  0  0  0  0  0  0  0  0  0  0  0
  142.3134   79.1821  219.9270 H   0  0  0  0  0  0  0  0  0  0  0  0
  142.7842   77.1898  221.3685 H   0  0  0  0  0  0  0  0  0  0  0  0
  141.7533   74.5467  221.9048 H   0  0  0  0  0  0  0  0  0  0  0  0
  144.3374   75.7595  220.4688 H   0  0  0  0  0  0  0  0  0  0  0  0
  146.4963   74.5839  220.1747 H   0  0  0  0  0  0  0  0  0  0  0  0
  146.5962   72.1108  220.1639 H   0  0  0  0  0  0  0  0  0  0  0  0
  142.4231   71.9559  220.7322 H   0  0  0  0  0  0  0  0  0  0  0  0
  137.8528   77.2314  219.4289 H   0  0  0  0  0  0  0  0  0  0  0  0
  136.8404   77.2480  220.9198 H   0  0  0  0  0  0  0  0  0  0  0  0
  139.4923   78.7445  220.6521 H   0  0  0  0  0  0  0  0  0  0  0  0
  137.9226   79.4987  220.3322 H   0  0  0  0  0  0  0  0  0  0  0  0
  1  2  1  0
  2  3  1  0
  3  4  2  0
  3  5  1  0
  5  6  1  0
  6  7  2  0
  7  8  1  0
  8  9  2  0
  9 10  1  0
 10 11  2  0
  5 12  1  0
 12 13  1  0
 13 14  1  0
 14 15  1  0
 15 16  1  0
 16 17  2  0
 16 18  1  0
 18 19  1  0
 18 20  1  0
 20 21  1  0
 21 22  1  0
 22 23  2  0
 23 24  1  0
 24 25  2  0
 25 26  1  0
 26 27  2  0
 27 28  1  0
 28 29  1  0
 29 30  2  0
 30 31  1  0
 31 32  2  0
 32 33  1  0
 33 34  2  0
 15 35  1  0
 35 36  1  0
 11  6  1  0
 36 12  1  0
 28 20  1  0
 34 29  1  0
 27 22  1  0
  1 37  1  0
  1 38  1  0
  1 39  1  0
  2 40  1  0
  2 41  1  0
  7 42  1  0
  8 43  1  0
  9 44  1  0
 10 45  1  0
 11 46  1  0
 12 47  1  0
 13 48  1  0
 13 49  1  0
 14 50  1  0
 14 51  1  0
 18 52  1  6
 19 53  1  0
 19 54  1  0
 20 55  1  6
 21 56  1  0
 21 57  1  0
 23 58  1  0
 24 59  1  0
 25 60  1  0
 26 61  1  0
 28 62  1  1
 30 63  1  0
 31 64  1  0
 32 65  1  0
 34 66  1  0
 35 67  1  0
 35 68  1  0
 36 69  1  0
 36 70  1  0
M  END
>  <smiles>  (88) 
CCC(=O)N(c1ccccc1)C1CCN(C(=O)[C@H](N)C2Cc3ccccc3C2c2cccnc2)CC1

>  <score_type>  (88) 
oracle

>  <origin>  (88) 
autodockgpu

>  <m_score__min__energy>  (88) 
-9.3300000000000001

>  <m_primary>  (88) 
energy

>  <rmsd>  (88) 
5.968111906149234

>  <m_score__min__rmsd>  (88) 
5.968111906149234

>  <meeko>  (88) 
{"free_energy": -7.6, "intermolecular_energy": -9.98, "internal_energy": -3.36, "cluster_size": 15, "cluster_id": 5, "rank_in_cluster": 8}

>  <energy>  (88) 
-7.62

>  <cluster_rmsd>  (88) 
0.16

>  <cluster>  (88) 
5

$$$$

     RDKit          3D

 70 74  0  0  0  0  0  0  0  0999 V2000
  137.7730   80.9110  224.9580 C   0  0  0  0  0  0  0  0  0  0  0  0
  137.3210   81.5520  223.6440 C   0  0  0  0  0  0  0  0  0  0  0  0
  138.1890   81.2400  222.5160 C   0  0  0  0  0  0  0  0  0  0  0  0
  138.3090   82.1060  221.5840 O   0  0  0  0  0  0  0  0  0  0  0  0
  138.9350   80.0470  222.3350 N   0  0  0  0  0  0  0  0  0  0  0  0
  140.3520   80.1590  222.5970 C   0  0  0  0  0  0  0  0  0  0  0  0
  140.8610   79.6940  223.8000 C   0  0  0  0  0  0  0  0  0  0  0  0
  142.2180   79.7790  224.1060 C   0  0  0  0  0  0  0  0  0  0  0  0
  143.0430   80.3440  223.1660 C   0  0  0  0  0  0  0  0  0  0  0  0
  142.5610   80.8170  221.9510 C   0  0  0  0  0  0  0  0  0  0  0  0
  141.2040   80.7210  221.6710 C   0  0  0  0  0  0  0  0  0  0  0  0
  138.3890   78.7900  221.9180 C   0  0  0  0  0  0  0  0  0  0  0  0
  138.7930   77.6040  222.7200 C   0  0  0  0  0  0  0  0  0  0  0  0
  139.7490   76.6540  221.9690 C   0  0  0  0  0  0  0  0  0  0  0  0
  138.9520   76.1190  220.8890 N   0  0  0  0  0  0  0  0  0  0  0  0
  138.9710   74.7750  220.4420 C   0  0  0  0  0  0  0  0  0  0  0  0
  138.1560   74.5040  219.4990 O   0  0  0  0  0  0  0  0  0  0  0  0
  139.8190   73.7050  220.9570 C   0  0  2  0  0  0  0  0  0  0  0  0
  140.0190   73.7860  222.3370 N   0  0  0  0  0  0  0  0  0  0  0  0
  141.1150   73.4960  220.1800 C   0  0  1  0  0  0  0  0  0  0  0  0
  140.9080   74.0160  218.7770 C   0  0  0  0  0  0  0  0  0  0  0  0
  141.2690   75.4310  218.8130 C   0  0  0  0  0  0  0  0  0  0  0  0
  140.9660   76.4530  217.9370 C   0  0  0  0  0  0  0  0  0  0  0  0
  141.4490   77.7170  218.2120 C   0  0  0  0  0  0  0  0  0  0  0  0
  142.2060   77.9880  219.3100 C   0  0  0  0  0  0  0  0  0  0  0  0
  142.4920   76.9300  220.1740 C   0  0  0  0  0  0  0  0  0  0  0  0
  142.0210   75.6460  219.9260 C   0  0  0  0  0  0  0  0  0  0  0  0
  142.1950   74.3780  220.7180 C   0  0  2  0  0  0  0  0  0  0  0  0
  143.5540   73.8250  220.5310 C   0  0  0  0  0  0  0  0  0  0  0  0
  144.7250   74.5140  220.6440 C   0  0  0  0  0  0  0  0  0  0  0  0
  145.9230   73.8570  220.4480 C   0  0  0  0  0  0  0  0  0  0  0  0
  145.9550   72.5140  220.1400 C   0  0  0  0  0  0  0  0  0  0  0  0
  144.7980   71.8350  220.0280 N   0  0  0  0  0  0  0  0  0  0  0  0
  143.6390   72.4750  220.2190 C   0  0  0  0  0  0  0  0  0  0  0  0
  138.0690   77.0970  220.2210 C   0  0  0  0  0  0  0  0  0  0  0  0
  138.5820   78.5030  220.4410 C   0  0  0  0  0  0  0  0  0  0  0  0
  137.3681   81.4852  225.8044 H   0  0  0  0  0  0  0  0  0  0  0  0
  137.4039   79.8759  225.0071 H   0  0  0  0  0  0  0  0  0  0  0  0
  138.8719   80.9111  225.0071 H   0  0  0  0  0  0  0  0  0  0  0  0
  136.3071   81.1937  223.4126 H   0  0  0  0  0  0  0  0  0  0  0  0
  137.3559   82.6421  223.7871 H   0  0  0  0  0  0  0  0  0  0  0  0
  140.1746   79.2455  224.5333 H   0  0  0  0  0  0  0  0  0  0  0  0
  142.6124   79.4078  225.0634 H   0  0  0  0  0  0  0  0  0  0  0  0
  144.1188   80.4251  223.3806 H   0  0  0  0  0  0  0  0  0  0  0  0
  143.2485   81.2635  221.2175 H   0  0  0  0  0  0  0  0  0  0  0  0
  140.8106   81.0924  220.7132 H   0  0  0  0  0  0  0  0  0  0  0  0
  137.3172   78.9397  222.1151 H   0  0  0  0  0  0  0  0  0  0  0  0
  139.2963   77.9552  223.6329 H   0  0  0  0  0  0  0  0  0  0  0  0
  137.8781   77.0352  222.9426 H   0  0  0  0  0  0  0  0  0  0  0  0
  140.6161   77.2054  221.5763 H   0  0  0  0  0  0  0  0  0  0  0  0
  140.1533   75.8657  222.6210 H   0  0  0  0  0  0  0  0  0  0  0  0
  139.2408   72.7860  220.7804 H   0  0  0  0  0  0  0  0  0  0  0  0
  140.7560   73.2210  222.7340 H   0  0  0  0  0  0  0  0  0  0  0  0
  139.2960   74.1160  222.9520 H   0  0  0  0  0  0  0  0  0  0  0  0
  141.3778   72.4295  220.2392 H   0  0  0  0  0  0  0  0  0  0  0  0
  141.5540   73.4749  218.0699 H   0  0  0  0  0  0  0  0  0  0  0  0
  139.8690   73.8743  218.4447 H   0  0  0  0  0  0  0  0  0  0  0  0
  140.3549   76.2655  217.0418 H   0  0  0  0  0  0  0  0  0  0  0  0
  141.2129   78.5363  217.5170 H   0  0  0  0  0  0  0  0  0  0  0  0
  142.5787   79.0036  219.5092 H   0  0  0  0  0  0  0  0  0  0  0  0
  143.1028   77.1161  221.0697 H   0  0  0  0  0  0  0  0  0  0  0  0
  142.1084   74.5087  221.8068 H   0  0  0  0  0  0  0  0  0  0  0  0
  144.7152   75.5862  220.8897 H   0  0  0  0  0  0  0  0  0  0  0  0
  146.8671   74.4141  220.5391 H   0  0  0  0  0  0  0  0  0  0  0  0
  146.9165   72.0020  219.9872 H   0  0  0  0  0  0  0  0  0  0  0  0
  142.7049   71.9019  220.1239 H   0  0  0  0  0  0  0  0  0  0  0  0
  138.0431   76.8848  219.1420 H   0  0  0  0  0  0  0  0  0  0  0  0
  137.0576   77.0145  220.6455 H   0  0  0  0  0  0  0  0  0  0  0  0
  139.6473   78.5676  220.1747 H   0  0  0  0  0  0  0  0  0  0  0  0
  138.0456   79.2311  219.8148 H   0  0  0  0  0  0  0  0  0  0  0  0
  1  2  1  0
  2  3  1  0
  3  4  2  0
  3  5  1  0
  5  6  1  0
  6  7  2  0
  7  8  1  0
  8  9  2  0
  9 10  1  0
 10 11  2  0
  5 12  1  0
 12 13  1  0
 13 14  1  0
 14 15  1  0
 15 16  1  0
 16 17  2  0
 16 18  1  0
 18 19  1  0
 18 20  1  0
 20 21  1  0
 21 22  1  0
 22 23  2  0
 23 24  1  0
 24 25  2  0
 25 26  1  0
 26 27  2  0
 27 28  1  0
 28 29  1  0
 29 30  2  0
 30 31  1  0
 31 32  2  0
 32 33  1  0
 33 34  2  0
 15 35  1  0
 35 36  1  0
 11  6  1  0
 36 12  1  0
 28 20  1  0
 34 29  1  0
 27 22  1  0
  1 37  1  0
  1 38  1  0
  1 39  1  0
  2 40  1  0
  2 41  1  0
  7 42  1  0
  8 43  1  0
  9 44  1  0
 10 45  1  0
 11 46  1  0
 12 47  1  0
 13 48  1  0
 13 49  1  0
 14 50  1  0
 14 51  1  0
 18 52  1  1
 19 53  1  0
 19 54  1  0
 20 55  1  6
 21 56  1  0
 21 57  1  0
 23 58  1  0
 24 59  1  0
 25 60  1  0
 26 61  1  0
 28 62  1  1
 30 63  1  0
 31 64  1  0
 32 65  1  0
 34 66  1  0
 35 67  1  0
 35 68  1  0
 36 69  1  0
 36 70  1  0
M  END
>  <smiles>  (89) 
CCC(=O)N(c1ccccc1)C1CCN(C(=O)[C@H](N)C2Cc3ccccc3C2c2cccnc2)CC1

>  <score_type>  (89) 
oracle

>  <origin>  (89) 
autodockgpu

>  <m_score__min__energy>  (89) 
-9.3300000000000001

>  <m_primary>  (89) 
energy

>  <rmsd>  (89) 
5.992330769775213

>  <m_score__min__rmsd>  (89) 
5.992330769775213

>  <meeko>  (89) 
{"free_energy": -7.58, "intermolecular_energy": -9.97, "internal_energy": -3.35, "cluster_size": 15, "cluster_id": 5, "rank_in_cluster": 10}

>  <energy>  (89) 
-7.61

>  <cluster_rmsd>  (89) 
0.54

>  <cluster>  (89) 
5

$$$$

     RDKit          3D

 70 74  0  0  0  0  0  0  0  0999 V2000
  137.3060   81.9150  225.7850 C   0  0  0  0  0  0  0  0  0  0  0  0
  137.0240   80.9050  224.6710 C   0  0  0  0  0  0  0  0  0  0  0  0
  137.9270   81.0280  223.5340 C   0  0  0  0  0  0  0  0  0  0  0  0
  138.0730   82.1770  222.9940 O   0  0  0  0  0  0  0  0  0  0  0  0
  138.6820   79.9810  222.9440 N   0  0  0  0  0  0  0  0  0  0  0  0
  140.1130   80.1860  222.9260 C   0  0  0  0  0  0  0  0  0  0  0  0
  140.9100   79.5030  223.8310 C   0  0  0  0  0  0  0  0  0  0  0  0
  142.2940   79.6650  223.8590 C   0  0  0  0  0  0  0  0  0  0  0  0
  142.8480   80.5320  222.9510 C   0  0  0  0  0  0  0  0  0  0  0  0
  142.0730   81.2290  222.0310 C   0  0  0  0  0  0  0  0  0  0  0  0
  140.6960   81.0500  222.0250 C   0  0  0  0  0  0  0  0  0  0  0  0
  138.1320   78.7830  222.3830 C   0  0  0  0  0  0  0  0  0  0  0  0
  138.4880   77.5150  223.0730 C   0  0  0  0  0  0  0  0  0  0  0  0
  139.4550   76.6270  222.2630 C   0  0  0  0  0  0  0  0  0  0  0  0
  138.6880   76.2200  221.1070 N   0  0  0  0  0  0  0  0  0  0  0  0
  138.7010   74.9290  220.5270 C   0  0  0  0  0  0  0  0  0  0  0  0
  137.9170   74.7700  219.5330 O   0  0  0  0  0  0  0  0  0  0  0  0
  139.5130   73.7950  220.9590 C   0  0  2  0  0  0  0  0  0  0  0  0
  139.6750   73.7390  222.3450 N   0  0  0  0  0  0  0  0  0  0  0  0
  140.8260   73.6320  220.1990 C   0  0  1  0  0  0  0  0  0  0  0  0
  140.6550   74.2460  218.8300 C   0  0  0  0  0  0  0  0  0  0  0  0
  141.0190   75.6540  218.9700 C   0  0  0  0  0  0  0  0  0  0  0  0
  140.7410   76.7330  218.1570 C   0  0  0  0  0  0  0  0  0  0  0  0
  141.2210   77.9740  218.5270 C   0  0  0  0  0  0  0  0  0  0  0  0
  141.9530   78.1660  219.6590 C   0  0  0  0  0  0  0  0  0  0  0  0
  142.2150   77.0520  220.4560 C   0  0  0  0  0  0  0  0  0  0  0  0
  141.7460   75.7900  220.1110 C   0  0  0  0  0  0  0  0  0  0  0  0
  141.8970   74.4710  220.8210 C   0  0  2  0  0  0  0  0  0  0  0  0
  143.2580   73.9250  220.6290 C   0  0  0  0  0  0  0  0  0  0  0  0
  144.4000   74.6510  220.4690 C   0  0  0  0  0  0  0  0  0  0  0  0
  145.6050   73.9980  220.3080 C   0  0  0  0  0  0  0  0  0  0  0  0
  145.6730   72.6210  220.3060 C   0  0  0  0  0  0  0  0  0  0  0  0
  144.5440   71.9050  220.4640 N   0  0  0  0  0  0  0  0  0  0  0  0
  143.3780   72.5420  220.6200 C   0  0  0  0  0  0  0  0  0  0  0  0
  137.8450   77.2780  220.5120 C   0  0  0  0  0  0  0  0  0  0  0  0
  138.3730   78.6440  220.8920 C   0  0  0  0  0  0  0  0  0  0  0  0
  137.1705   81.4297  226.7628 H   0  0  0  0  0  0  0  0  0  0  0  0
  138.3402   82.2792  225.6966 H   0  0  0  0  0  0  0  0  0  0  0  0
  136.6101   82.7623  225.6966 H   0  0  0  0  0  0  0  0  0  0  0  0
  137.1231   79.8913  225.0865 H   0  0  0  0  0  0  0  0  0  0  0  0
  136.0078   81.1061  224.3010 H   0  0  0  0  0  0  0  0  0  0  0  0
  140.4374   78.8143  224.5467 H   0  0  0  0  0  0  0  0  0  0  0  0
  142.9184   79.1187  224.5813 H   0  0  0  0  0  0  0  0  0  0  0  0
  143.9380   80.6800  222.9511 H   0  0  0  0  0  0  0  0  0  0  0  0
  142.5464   81.9161  221.3142 H   0  0  0  0  0  0  0  0  0  0  0  0
  140.0721   81.5967  221.3026 H   0  0  0  0  0  0  0  0  0  0  0  0
  137.0563   78.9318  222.5581 H   0  0  0  0  0  0  0  0  0  0  0  0
  138.9636   77.7624  224.0335 H   0  0  0  0  0  0  0  0  0  0  0  0
  137.5567   76.9446  223.2047 H   0  0  0  0  0  0  0  0  0  0  0  0
  140.3447   77.1977  221.9584 H   0  0  0  0  0  0  0  0  0  0  0  0
  139.8229   75.7691  222.8449 H   0  0  0  0  0  0  0  0  0  0  0  0
  138.9222   72.9100  220.6801 H   0  0  0  0  0  0  0  0  0  0  0  0
  140.2870   73.0250  222.7130 H   0  0  0  0  0  0  0  0  0  0  0  0
  139.0000   74.1460  222.9670 H   0  0  0  0  0  0  0  0  0  0  0  0
  141.0827   72.5624  220.1917 H   0  0  0  0  0  0  0  0  0  0  0  0
  141.3166   73.7509  218.1040 H   0  0  0  0  0  0  0  0  0  0  0  0
  139.6241   74.1316  218.4638 H   0  0  0  0  0  0  0  0  0  0  0  0
  140.1516   76.6082  217.2367 H   0  0  0  0  0  0  0  0  0  0  0  0
  141.0039   78.8393  217.8834 H   0  0  0  0  0  0  0  0  0  0  0  0
  142.3244   79.1640  219.9349 H   0  0  0  0  0  0  0  0  0  0  0  0
  142.8048   77.1746  221.3764 H   0  0  0  0  0  0  0  0  0  0  0  0
  141.7853   74.5289  221.9138 H   0  0  0  0  0  0  0  0  0  0  0  0
  144.3616   75.7503  220.4682 H   0  0  0  0  0  0  0  0  0  0  0  0
  146.5260   74.5855  220.1792 H   0  0  0  0  0  0  0  0  0  0  0  0
  146.6399   72.1126  220.1766 H   0  0  0  0  0  0  0  0  0  0  0  0
  142.4672   71.9387  220.7477 H   0  0  0  0  0  0  0  0  0  0  0  0
  137.8545   77.1768  219.4167 H   0  0  0  0  0  0  0  0  0  0  0  0
  136.8176   77.1729  220.8906 H   0  0  0  0  0  0  0  0  0  0  0  0
  139.4481   78.7139  220.6701 H   0  0  0  0  0  0  0  0  0  0  0  0
  137.8715   79.4426  220.3257 H   0  0  0  0  0  0  0  0  0  0  0  0
  1  2  1  0
  2  3  1  0
  3  4  2  0
  3  5  1  0
  5  6  1  0
  6  7  2  0
  7  8  1  0
  8  9  2  0
  9 10  1  0
 10 11  2  0
  5 12  1  0
 12 13  1  0
 13 14  1  0
 14 15  1  0
 15 16  1  0
 16 17  2  0
 16 18  1  0
 18 19  1  0
 18 20  1  0
 20 21  1  0
 21 22  1  0
 22 23  2  0
 23 24  1  0
 24 25  2  0
 25 26  1  0
 26 27  2  0
 27 28  1  0
 28 29  1  0
 29 30  2  0
 30 31  1  0
 31 32  2  0
 32 33  1  0
 33 34  2  0
 15 35  1  0
 35 36  1  0
 11  6  1  0
 36 12  1  0
 28 20  1  0
 34 29  1  0
 27 22  1  0
  1 37  1  0
  1 38  1  0
  1 39  1  0
  2 40  1  0
  2 41  1  0
  7 42  1  0
  8 43  1  0
  9 44  1  0
 10 45  1  0
 11 46  1  0
 12 47  1  0
 13 48  1  0
 13 49  1  0
 14 50  1  0
 14 51  1  0
 18 52  1  6
 19 53  1  0
 19 54  1  0
 20 55  1  6
 21 56  1  0
 21 57  1  0
 23 58  1  0
 24 59  1  0
 25 60  1  0
 26 61  1  0
 28 62  1  1
 30 63  1  0
 31 64  1  0
 32 65  1  0
 34 66  1  0
 35 67  1  0
 35 68  1  0
 36 69  1  0
 36 70  1  0
M  END
>  <smiles>  (90) 
CCC(=O)N(c1ccccc1)C1CCN(C(=O)[C@H](N)C2Cc3ccccc3C2c2cccnc2)CC1

>  <score_type>  (90) 
oracle

>  <origin>  (90) 
autodockgpu

>  <m_score__min__energy>  (90) 
-9.3300000000000001

>  <m_primary>  (90) 
energy

>  <rmsd>  (90) 
5.982755479694249

>  <m_score__min__rmsd>  (90) 
5.982755479694249

>  <meeko>  (90) 
{"free_energy": -7.68, "intermolecular_energy": -10.07, "internal_energy": -3.33, "cluster_size": 15, "cluster_id": 5, "rank_in_cluster": 3}

>  <energy>  (90) 
-7.6

>  <cluster_rmsd>  (90) 
0.55

>  <cluster>  (90) 
5

$$$$

     RDKit          3D

 70 74  0  0  0  0  0  0  0  0999 V2000
  141.8490   78.7690  223.9380 C   0  0  0  0  0  0  0  0  0  0  0  0
  142.4210   80.1770  223.7590 C   0  0  0  0  0  0  0  0  0  0  0  0
  141.5680   81.0550  222.9700 C   0  0  0  0  0  0  0  0  0  0  0  0
  141.8460   82.3020  222.9330 O   0  0  0  0  0  0  0  0  0  0  0  0
  140.4280   80.6660  222.2180 N   0  0  0  0  0  0  0  0  0  0  0  0
  139.1530   80.9640  222.8300 C   0  0  0  0  0  0  0  0  0  0  0  0
  138.3840   82.0030  222.3300 C   0  0  0  0  0  0  0  0  0  0  0  0
  137.1490   82.3350  222.8830 C   0  0  0  0  0  0  0  0  0  0  0  0
  136.7140   81.5910  223.9510 C   0  0  0  0  0  0  0  0  0  0  0  0
  137.4640   80.5430  224.4730 C   0  0  0  0  0  0  0  0  0  0  0  0
  138.6920   80.2330  223.9030 C   0  0  0  0  0  0  0  0  0  0  0  0
  140.4660   80.0180  220.9420 C   0  0  0  0  0  0  0  0  0  0  0  0
  140.7020   78.5500  220.9610 C   0  0  0  0  0  0  0  0  0  0  0  0
  142.0950   78.1450  220.4360 C   0  0  0  0  0  0  0  0  0  0  0  0
  142.0690   78.5000  219.0350 N   0  0  0  0  0  0  0  0  0  0  0  0
  142.6190   77.7280  217.9830 C   0  0  0  0  0  0  0  0  0  0  0  0
  142.4500   78.2050  216.8110 O   0  0  0  0  0  0  0  0  0  0  0  0
  143.3400   76.4670  218.1220 C   0  0  2  0  0  0  0  0  0  0  0  0
  144.0460   76.1130  216.9700 N   0  0  0  0  0  0  0  0  0  0  0  0
  142.5050   75.3200  218.6840 C   0  0  1  0  0  0  0  0  0  0  0  0
  143.0060   74.0320  218.0740 C   0  0  0  0  0  0  0  0  0  0  0  0
  144.0750   73.5600  218.9490 C   0  0  0  0  0  0  0  0  0  0  0  0
  145.0830   72.6460  218.7160 C   0  0  0  0  0  0  0  0  0  0  0  0
  145.9700   72.3730  219.7370 C   0  0  0  0  0  0  0  0  0  0  0  0
  145.8860   72.9710  220.9580 C   0  0  0  0  0  0  0  0  0  0  0  0
  144.8550   73.8890  221.1580 C   0  0  0  0  0  0  0  0  0  0  0  0
  143.9460   74.1860  220.1490 C   0  0  0  0  0  0  0  0  0  0  0  0
  142.7810   75.1400  220.1420 C   0  0  2  0  0  0  0  0  0  0  0  0
  141.6380   74.5760  220.8930 C   0  0  0  0  0  0  0  0  0  0  0  0
  140.5180   75.2510  221.2790 C   0  0  0  0  0  0  0  0  0  0  0  0
  139.5270   74.5850  221.9700 C   0  0  0  0  0  0  0  0  0  0  0  0
  139.6500   73.2460  222.2760 C   0  0  0  0  0  0  0  0  0  0  0  0
  140.7560   72.5810  221.8940 N   0  0  0  0  0  0  0  0  0  0  0  0
  141.7140   73.2300  221.2240 C   0  0  0  0  0  0  0  0  0  0  0  0
  141.4140   79.7880  218.7280 C   0  0  0  0  0  0  0  0  0  0  0  0
  141.4090   80.6780  219.9520 C   0  0  0  0  0  0  0  0  0  0  0  0
  141.7576   78.5440  225.0109 H   0  0  0  0  0  0  0  0  0  0  0  0
  140.8570   78.7135  223.4659 H   0  0  0  0  0  0  0  0  0  0  0  0
  142.5212   78.0374  223.4659 H   0  0  0  0  0  0  0  0  0  0  0  0
  142.5577   80.6263  224.7537 H   0  0  0  0  0  0  0  0  0  0  0  0
  143.3707   80.0733  223.2138 H   0  0  0  0  0  0  0  0  0  0  0  0
  138.7591   82.5815  221.4729 H   0  0  0  0  0  0  0  0  0  0  0  0
  136.5459   83.1615  222.4791 H   0  0  0  0  0  0  0  0  0  0  0  0
  135.7426   81.8310  224.4079 H   0  0  0  0  0  0  0  0  0  0  0  0
  137.0881   79.9646  225.3298 H   0  0  0  0  0  0  0  0  0  0  0  0
  139.2947   79.4063  224.3070 H   0  0  0  0  0  0  0  0  0  0  0  0
  139.4310   80.1552  220.5958 H   0  0  0  0  0  0  0  0  0  0  0  0
  140.6034   78.1947  221.9973 H   0  0  0  0  0  0  0  0  0  0  0  0
  139.9581   78.0935  220.2915 H   0  0  0  0  0  0  0  0  0  0  0  0
  142.8857   78.6989  220.9632 H   0  0  0  0  0  0  0  0  0  0  0  0
  142.3082   77.0775  220.5939 H   0  0  0  0  0  0  0  0  0  0  0  0
  144.0938   76.6653  218.8982 H   0  0  0  0  0  0  0  0  0  0  0  0
  144.9360   75.6530  217.0930 H   0  0  0  0  0  0  0  0  0  0  0  0
  143.8640   76.5580  216.0880 H   0  0  0  0  0  0  0  0  0  0  0  0
  141.4465   75.5404  218.4816 H   0  0  0  0  0  0  0  0  0  0  0  0
  142.1949   73.2904  218.0277 H   0  0  0  0  0  0  0  0  0  0  0  0
  143.3661   74.1869  217.0462 H   0  0  0  0  0  0  0  0  0  0  0  0
  145.1768   72.1474  217.7400 H   0  0  0  0  0  0  0  0  0  0  0  0
  146.7752   71.6452  219.5583 H   0  0  0  0  0  0  0  0  0  0  0  0
  146.6051   72.7384  221.7572 H   0  0  0  0  0  0  0  0  0  0  0  0
  144.7593   74.3879  222.1337 H   0  0  0  0  0  0  0  0  0  0  0  0
  142.9783   76.1010  220.6396 H   0  0  0  0  0  0  0  0  0  0  0  0
  140.4054   76.3191  221.0411 H   0  0  0  0  0  0  0  0  0  0  0  0
  138.6243   75.1307  222.2819 H   0  0  0  0  0  0  0  0  0  0  0  0
  138.8520   72.7266  222.8269 H   0  0  0  0  0  0  0  0  0  0  0  0
  142.6091   72.6680  220.9192 H   0  0  0  0  0  0  0  0  0  0  0  0
  141.9617   80.2896  217.9165 H   0  0  0  0  0  0  0  0  0  0  0  0
  140.3756   79.5974  218.4192 H   0  0  0  0  0  0  0  0  0  0  0  0
  142.4210   80.7499  220.3770 H   0  0  0  0  0  0  0  0  0  0  0  0
  141.0862   81.7006  219.7067 H   0  0  0  0  0  0  0  0  0  0  0  0
  1  2  1  0
  2  3  1  0
  3  4  2  0
  3  5  1  0
  5  6  1  0
  6  7  2  0
  7  8  1  0
  8  9  2  0
  9 10  1  0
 10 11  2  0
  5 12  1  0
 12 13  1  0
 13 14  1  0
 14 15  1  0
 15 16  1  0
 16 17  2  0
 16 18  1  0
 18 19  1  0
 18 20  1  0
 20 21  1  0
 21 22  1  0
 22 23  2  0
 23 24  1  0
 24 25  2  0
 25 26  1  0
 26 27  2  0
 27 28  1  0
 28 29  1  0
 29 30  2  0
 30 31  1  0
 31 32  2  0
 32 33  1  0
 33 34  2  0
 15 35  1  0
 35 36  1  0
 11  6  1  0
 36 12  1  0
 28 20  1  0
 34 29  1  0
 27 22  1  0
  1 37  1  0
  1 38  1  0
  1 39  1  0
  2 40  1  0
  2 41  1  0
  7 42  1  0
  8 43  1  0
  9 44  1  0
 10 45  1  0
 11 46  1  0
 12 47  1  0
 13 48  1  0
 13 49  1  0
 14 50  1  0
 14 51  1  0
 18 52  1  1
 19 53  1  0
 19 54  1  0
 20 55  1  1
 21 56  1  0
 21 57  1  0
 23 58  1  0
 24 59  1  0
 25 60  1  0
 26 61  1  0
 28 62  1  1
 30 63  1  0
 31 64  1  0
 32 65  1  0
 34 66  1  0
 35 67  1  0
 35 68  1  0
 36 69  1  0
 36 70  1  0
M  END
>  <smiles>  (91) 
CCC(=O)N(c1ccccc1)C1CCN(C(=O)[C@H](N)C2Cc3ccccc3C2c2cccnc2)CC1

>  <score_type>  (91) 
oracle

>  <origin>  (91) 
autodockgpu

>  <m_score__min__energy>  (91) 
-9.3300000000000001

>  <m_primary>  (91) 
energy

>  <rmsd>  (91) 
7.2479656754881105

>  <m_score__min__rmsd>  (91) 
7.2479656754881105

>  <meeko>  (91) 
{"free_energy": -7.9, "intermolecular_energy": -10.29, "internal_energy": -3.14, "cluster_size": 10, "cluster_id": 3, "rank_in_cluster": 7}

>  <energy>  (91) 
-7.6

>  <cluster_rmsd>  (91) 
0.24

>  <cluster>  (91) 
5

$$$$

     RDKit          3D

 70 74  0  0  0  0  0  0  0  0999 V2000
  135.1990   85.0700  227.5700 C   0  0  0  0  0  0  0  0  0  0  0  0
  136.5250   84.3990  227.2090 C   0  0  0  0  0  0  0  0  0  0  0  0
  136.3940   83.3640  226.1920 C   0  0  0  0  0  0  0  0  0  0  0  0
  136.5900   83.6840  224.9700 O   0  0  0  0  0  0  0  0  0  0  0  0
  136.0630   82.0020  226.4150 N   0  0  0  0  0  0  0  0  0  0  0  0
  135.4260   81.7220  227.6820 C   0  0  0  0  0  0  0  0  0  0  0  0
  136.1990   81.6480  228.8310 C   0  0  0  0  0  0  0  0  0  0  0  0
  135.6380   81.3790  230.0780 C   0  0  0  0  0  0  0  0  0  0  0  0
  134.2800   81.1870  230.1320 C   0  0  0  0  0  0  0  0  0  0  0  0
  133.4810   81.2560  228.9960 C   0  0  0  0  0  0  0  0  0  0  0  0
  134.0650   81.5250  227.7660 C   0  0  0  0  0  0  0  0  0  0  0  0
  136.3170   80.9320  225.4980 C   0  0  0  0  0  0  0  0  0  0  0  0
  137.6910   80.8660  224.9340 C   0  0  0  0  0  0  0  0  0  0  0  0
  137.7590   81.2420  223.4400 C   0  0  0  0  0  0  0  0  0  0  0  0
  137.0300   80.1890  222.7700 N   0  0  0  0  0  0  0  0  0  0  0  0
  137.4030   79.5850  221.5440 C   0  0  0  0  0  0  0  0  0  0  0  0
  136.6390   78.6430  221.1470 O   0  0  0  0  0  0  0  0  0  0  0  0
  138.5550   79.9400  220.7210 C   0  0  2  0  0  0  0  0  0  0  0  0
  138.1960   80.5270  219.5060 N   0  0  0  0  0  0  0  0  0  0  0  0
  139.5850   78.8260  220.5620 C   0  0  1  0  0  0  0  0  0  0  0  0
  140.9250   79.4630  220.2790 C   0  0  0  0  0  0  0  0  0  0  0  0
  141.5360   79.7150  221.5820 C   0  0  0  0  0  0  0  0  0  0  0  0
  142.5720   80.5550  221.9350 C   0  0  0  0  0  0  0  0  0  0  0  0
  142.9620   80.5950  223.2590 C   0  0  0  0  0  0  0  0  0  0  0  0
  142.3620   79.8410  224.2200 C   0  0  0  0  0  0  0  0  0  0  0  0
  141.3180   79.0030  223.8270 C   0  0  0  0  0  0  0  0  0  0  0  0
  140.9020   78.9400  222.5020 C   0  0  0  0  0  0  0  0  0  0  0  0
  139.8050   78.1280  221.8660 C   0  0  2  0  0  0  0  0  0  0  0  0
  140.2170   76.7160  221.7160 C   0  0  0  0  0  0  0  0  0  0  0  0
  141.3140   76.2650  221.0450 C   0  0  0  0  0  0  0  0  0  0  0  0
  141.5750   74.9110  220.9990 C   0  0  0  0  0  0  0  0  0  0  0  0
  140.7430   74.0050  221.6220 C   0  0  0  0  0  0  0  0  0  0  0  0
  139.6600   74.4510  222.2840 N   0  0  0  0  0  0  0  0  0  0  0  0
  139.4110   75.7640  222.3270 C   0  0  0  0  0  0  0  0  0  0  0  0
  135.7980   79.7480  223.4540 C   0  0  0  0  0  0  0  0  0  0  0  0
  135.2960   80.8350  224.3800 C   0  0  0  0  0  0  0  0  0  0  0  0
  135.0995   85.1203  228.6643 H   0  0  0  0  0  0  0  0  0  0  0  0
  135.1774   86.0875  227.1527 H   0  0  0  0  0  0  0  0  0  0  0  0
  134.3663   84.4848  227.1527 H   0  0  0  0  0  0  0  0  0  0  0  0
  137.2148   85.1698  226.8347 H   0  0  0  0  0  0  0  0  0  0  0  0
  136.8999   83.9113  228.1209 H   0  0  0  0  0  0  0  0  0  0  0  0
  137.2850   81.8060  228.7560 H   0  0  0  0  0  0  0  0  0  0  0  0
  136.2594   81.3227  230.9839 H   0  0  0  0  0  0  0  0  0  0  0  0
  133.8097   80.9721  231.1029 H   0  0  0  0  0  0  0  0  0  0  0  0
  132.3949   81.0987  229.0716 H   0  0  0  0  0  0  0  0  0  0  0  0
  133.4428   81.5808  226.8606 H   0  0  0  0  0  0  0  0  0  0  0  0
  136.2155   80.0535  226.1522 H   0  0  0  0  0  0  0  0  0  0  0  0
  138.3328   81.5592  225.4975 H   0  0  0  0  0  0  0  0  0  0  0  0
  138.0280   79.8226  225.0217 H   0  0  0  0  0  0  0  0  0  0  0  0
  137.2839   82.2181  223.2624 H   0  0  0  0  0  0  0  0  0  0  0  0
  138.7936   81.3317  223.0772 H   0  0  0  0  0  0  0  0  0  0  0  0
  139.0768   80.7176  221.2981 H   0  0  0  0  0  0  0  0  0  0  0  0
  137.2650   80.3460  219.1580 H   0  0  0  0  0  0  0  0  0  0  0  0
  138.8900   80.8380  218.8500 H   0  0  0  0  0  0  0  0  0  0  0  0
  139.2275   78.1438  219.7766 H   0  0  0  0  0  0  0  0  0  0  0  0
  141.5543   78.7819  219.6874 H   0  0  0  0  0  0  0  0  0  0  0  0
  140.8147   80.3918  219.7001 H   0  0  0  0  0  0  0  0  0  0  0  0
  143.0749   81.1775  221.1803 H   0  0  0  0  0  0  0  0  0  0  0  0
  143.7884   81.2611  223.5477 H   0  0  0  0  0  0  0  0  0  0  0  0
  142.6885   79.8905  225.2693 H   0  0  0  0  0  0  0  0  0  0  0  0
  140.8141   78.3798  224.5805 H   0  0  0  0  0  0  0  0  0  0  0  0
  138.8800   78.0731  222.4587 H   0  0  0  0  0  0  0  0  0  0  0  0
  141.9870   76.9759  220.5433 H   0  0  0  0  0  0  0  0  0  0  0  0
  142.4608   74.5486  220.4568 H   0  0  0  0  0  0  0  0  0  0  0  0
  140.9626   72.9280  221.5782 H   0  0  0  0  0  0  0  0  0  0  0  0
  138.5214   76.1082  222.8748 H   0  0  0  0  0  0  0  0  0  0  0  0
  135.0256   79.5250  222.7032 H   0  0  0  0  0  0  0  0  0  0  0  0
  136.0188   78.8469  224.0450 H   0  0  0  0  0  0  0  0  0  0  0  0
  135.2243   81.7923  223.8430 H   0  0  0  0  0  0  0  0  0  0  0  0
  134.2928   80.6042  224.7677 H   0  0  0  0  0  0  0  0  0  0  0  0
  1  2  1  0
  2  3  1  0
  3  4  2  0
  3  5  1  0
  5  6  1  0
  6  7  2  0
  7  8  1  0
  8  9  2  0
  9 10  1  0
 10 11  2  0
  5 12  1  0
 12 13  1  0
 13 14  1  0
 14 15  1  0
 15 16  1  0
 16 17  2  0
 16 18  1  0
 18 19  1  0
 18 20  1  0
 20 21  1  0
 21 22  1  0
 22 23  2  0
 23 24  1  0
 24 25  2  0
 25 26  1  0
 26 27  2  0
 27 28  1  0
 28 29  1  0
 29 30  2  0
 30 31  1  0
 31 32  2  0
 32 33  1  0
 33 34  2  0
 15 35  1  0
 35 36  1  0
 11  6  1  0
 36 12  1  0
 28 20  1  0
 34 29  1  0
 27 22  1  0
  1 37  1  0
  1 38  1  0
  1 39  1  0
  2 40  1  0
  2 41  1  0
  7 42  1  0
  8 43  1  0
  9 44  1  0
 10 45  1  0
 11 46  1  0
 12 47  1  0
 13 48  1  0
 13 49  1  0
 14 50  1  0
 14 51  1  0
 18 52  1  1
 19 53  1  0
 19 54  1  0
 20 55  1  6
 21 56  1  0
 21 57  1  0
 23 58  1  0
 24 59  1  0
 25 60  1  0
 26 61  1  0
 28 62  1  1
 30 63  1  0
 31 64  1  0
 32 65  1  0
 34 66  1  0
 35 67  1  0
 35 68  1  0
 36 69  1  0
 36 70  1  0
M  END
>  <smiles>  (92) 
CCC(=O)N(c1ccccc1)C1CCN(C(=O)[C@H](N)C2Cc3ccccc3C2c2cccnc2)CC1

>  <score_type>  (92) 
oracle

>  <origin>  (92) 
autodockgpu

>  <m_score__min__energy>  (92) 
-9.3300000000000001

>  <m_primary>  (92) 
energy

>  <rmsd>  (92) 
6.443553157087676

>  <m_score__min__rmsd>  (92) 
6.443553157087676

>  <meeko>  (92) 
{"free_energy": -8.06, "intermolecular_energy": -10.44, "internal_energy": -2.8, "cluster_size": 1, "cluster_id": 4, "rank_in_cluster": 1}

>  <energy>  (92) 
-7.59

>  <cluster_rmsd>  (92) 
1.11

>  <cluster>  (92) 
5

$$$$

     RDKit          3D

 70 74  0  0  0  0  0  0  0  0999 V2000
  145.6320   73.0300  221.6030 C   0  0  0  0  0  0  0  0  0  0  0  0
  146.1810   73.5650  220.2800 C   0  0  0  0  0  0  0  0  0  0  0  0
  145.5410   72.9840  219.1080 C   0  0  0  0  0  0  0  0  0  0  0  0
  146.0030   73.2780  217.9530 O   0  0  0  0  0  0  0  0  0  0  0  0
  144.4280   72.1030  219.1080 N   0  0  0  0  0  0  0  0  0  0  0  0
  144.7440   70.7090  218.8870 C   0  0  0  0  0  0  0  0  0  0  0  0
  145.9510   70.2050  219.3430 C   0  0  0  0  0  0  0  0  0  0  0  0
  146.3080   68.8710  219.1550 C   0  0  0  0  0  0  0  0  0  0  0  0
  145.4140   68.0640  218.4980 C   0  0  0  0  0  0  0  0  0  0  0  0
  144.1950   68.5430  218.0300 C   0  0  0  0  0  0  0  0  0  0  0  0
  143.8640   69.8770  218.2300 C   0  0  0  0  0  0  0  0  0  0  0  0
  143.0650   72.4970  219.3020 C   0  0  0  0  0  0  0  0  0  0  0  0
  142.8070   73.9610  219.3340 C   0  0  0  0  0  0  0  0  0  0  0  0
  142.4350   74.4880  220.7360 C   0  0  0  0  0  0  0  0  0  0  0  0
  141.1570   73.8770  221.0230 N   0  0  0  0  0  0  0  0  0  0  0  0
  140.0650   74.5190  221.6560 C   0  0  0  0  0  0  0  0  0  0  0  0
  139.0120   73.8100  221.7770 O   0  0  0  0  0  0  0  0  0  0  0  0
  140.0430   75.8870  222.1650 C   0  0  2  0  0  0  0  0  0  0  0  0
  139.0210   76.1080  223.0900 N   0  0  0  0  0  0  0  0  0  0  0  0
  140.1130   76.9640  221.0860 C   0  0  1  0  0  0  0  0  0  0  0  0
  139.2870   78.1420  221.5470 C   0  0  0  0  0  0  0  0  0  0  0  0
  140.1900   78.9900  222.3200 C   0  0  0  0  0  0  0  0  0  0  0  0
  139.9160   79.9900  223.2310 C   0  0  0  0  0  0  0  0  0  0  0  0
  140.9770   80.6490  223.8200 C   0  0  0  0  0  0  0  0  0  0  0  0
  142.2730   80.3470  223.5360 C   0  0  0  0  0  0  0  0  0  0  0  0
  142.5130   79.3310  222.6110 C   0  0  0  0  0  0  0  0  0  0  0  0
  141.4670   78.6490  222.0000 C   0  0  0  0  0  0  0  0  0  0  0  0
  141.4950   77.5260  220.9970 C   0  0  2  0  0  0  0  0  0  0  0  0
  141.8390   78.0340  219.6520 C   0  0  0  0  0  0  0  0  0  0  0  0
  141.7730   79.3310  219.2400 C   0  0  0  0  0  0  0  0  0  0  0  0
  142.1360   79.6560  217.9490 C   0  0  0  0  0  0  0  0  0  0  0  0
  142.5660   78.6880  217.0670 C   0  0  0  0  0  0  0  0  0  0  0  0
  142.6300   77.4060  217.4740 N   0  0  0  0  0  0  0  0  0  0  0  0
  142.2780   77.0960  218.7260 C   0  0  0  0  0  0  0  0  0  0  0  0
  141.0330   72.4640  220.6140 C   0  0  0  0  0  0  0  0  0  0  0  0
  142.4030   71.8310  220.4930 C   0  0  0  0  0  0  0  0  0  0  0  0
  146.1430   73.5280  222.4402 H   0  0  0  0  0  0  0  0  0  0  0  0
  144.5522   73.2318  221.6603 H   0  0  0  0  0  0  0  0  0  0  0  0
  145.8059   71.9453  221.6603 H   0  0  0  0  0  0  0  0  0  0  0  0
  146.0296   74.6543  220.2553 H   0  0  0  0  0  0  0  0  0  0  0  0
  147.2453   73.2906  220.2368 H   0  0  0  0  0  0  0  0  0  0  0  0
  146.6468   70.8761  219.8679 H   0  0  0  0  0  0  0  0  0  0  0  0
  147.2695   68.4802  219.5194 H   0  0  0  0  0  0  0  0  0  0  0  0
  145.6690   67.0062  218.3365 H   0  0  0  0  0  0  0  0  0  0  0  0
  143.4992   67.8712  217.5061 H   0  0  0  0  0  0  0  0  0  0  0  0
  142.9027   70.2678  217.8651 H   0  0  0  0  0  0  0  0  0  0  0  0
  142.5952   72.1255  218.3794 H   0  0  0  0  0  0  0  0  0  0  0  0
  143.7144   74.4823  218.9951 H   0  0  0  0  0  0  0  0  0  0  0  0
  141.9465   74.1532  218.6763 H   0  0  0  0  0  0  0  0  0  0  0  0
  143.1874   74.1835  221.4784 H   0  0  0  0  0  0  0  0  0  0  0  0
  142.3919   75.5865  220.7729 H   0  0  0  0  0  0  0  0  0  0  0  0
  140.9880   75.9899  222.7185 H   0  0  0  0  0  0  0  0  0  0  0  0
  138.3690   75.3540  223.2510 H   0  0  0  0  0  0  0  0  0  0  0  0
  138.7390   77.0370  223.3460 H   0  0  0  0  0  0  0  0  0  0  0  0
  139.7823   76.5158  220.1374 H   0  0  0  0  0  0  0  0  0  0  0  0
  138.8921   78.6939  220.6813 H   0  0  0  0  0  0  0  0  0  0  0  0
  138.4250   77.8183  222.1488 H   0  0  0  0  0  0  0  0  0  0  0  0
  138.8783   80.2554  223.4816 H   0  0  0  0  0  0  0  0  0  0  0  0
  140.7666   81.4481  224.5461 H   0  0  0  0  0  0  0  0  0  0  0  0
  143.1021   80.8851  224.0188 H   0  0  0  0  0  0  0  0  0  0  0  0
  143.5502   79.0642  222.3601 H   0  0  0  0  0  0  0  0  0  0  0  0
  142.2586   76.7594  221.1950 H   0  0  0  0  0  0  0  0  0  0  0  0
  141.4322   80.1147  219.9326 H   0  0  0  0  0  0  0  0  0  0  0  0
  142.0814   80.7038  217.6186 H   0  0  0  0  0  0  0  0  0  0  0  0
  142.8540   78.9600  216.0408 H   0  0  0  0  0  0  0  0  0  0  0  0
  142.3392   76.0433  219.0392 H   0  0  0  0  0  0  0  0  0  0  0  0
  140.4461   71.9181  221.3674 H   0  0  0  0  0  0  0  0  0  0  0  0
  140.5289   72.4166  219.6375 H   0  0  0  0  0  0  0  0  0  0  0  0
  142.9893   72.0102  221.4063 H   0  0  0  0  0  0  0  0  0  0  0  0
  142.3340   70.7413  220.3595 H   0  0  0  0  0  0  0  0  0  0  0  0
  1  2  1  0
  2  3  1  0
  3  4  2  0
  3  5  1  0
  5  6  1  0
  6  7  2  0
  7  8  1  0
  8  9  2  0
  9 10  1  0
 10 11  2  0
  5 12  1  0
 12 13  1  0
 13 14  1  0
 14 15  1  0
 15 16  1  0
 16 17  2  0
 16 18  1  0
 18 19  1  0
 18 20  1  0
 20 21  1  0
 21 22  1  0
 22 23  2  0
 23 24  1  0
 24 25  2  0
 25 26  1  0
 26 27  2  0
 27 28  1  0
 28 29  1  0
 29 30  2  0
 30 31  1  0
 31 32  2  0
 32 33  1  0
 33 34  2  0
 15 35  1  0
 35 36  1  0
 11  6  1  0
 36 12  1  0
 28 20  1  0
 34 29  1  0
 27 22  1  0
  1 37  1  0
  1 38  1  0
  1 39  1  0
  2 40  1  0
  2 41  1  0
  7 42  1  0
  8 43  1  0
  9 44  1  0
 10 45  1  0
 11 46  1  0
 12 47  1  0
 13 48  1  0
 13 49  1  0
 14 50  1  0
 14 51  1  0
 18 52  1  1
 19 53  1  0
 19 54  1  0
 20 55  1  6
 21 56  1  0
 21 57  1  0
 23 58  1  0
 24 59  1  0
 25 60  1  0
 26 61  1  0
 28 62  1  1
 30 63  1  0
 31 64  1  0
 32 65  1  0
 34 66  1  0
 35 67  1  0
 35 68  1  0
 36 69  1  0
 36 70  1  0
M  END
>  <smiles>  (93) 
CCC(=O)N(c1ccccc1)C1CCN(C(=O)[C@H](N)C2Cc3ccccc3C2c2cccnc2)CC1

>  <score_type>  (93) 
oracle

>  <origin>  (93) 
autodockgpu

>  <m_score__min__energy>  (93) 
-9.3300000000000001

>  <m_primary>  (93) 
energy

>  <rmsd>  (93) 
4.4409764768921285

>  <m_score__min__rmsd>  (93) 
4.4409764768921285

>  <meeko>  (93) 
{"free_energy": -8.4, "intermolecular_energy": -10.79, "internal_energy": -3.17, "cluster_size": 17, "cluster_id": 1, "rank_in_cluster": 15}

>  <energy>  (93) 
-7.58

>  <cluster_rmsd>  (93) 
0.55

>  <cluster>  (93) 
5

$$$$

     RDKit          3D

 70 74  0  0  0  0  0  0  0  0999 V2000
  146.3600   73.2320  221.9620 C   0  0  0  0  0  0  0  0  0  0  0  0
  145.7570   73.9450  220.7500 C   0  0  0  0  0  0  0  0  0  0  0  0
  145.4120   73.0440  219.6580 C   0  0  0  0  0  0  0  0  0  0  0  0
  146.1700   73.0170  218.6300 O   0  0  0  0  0  0  0  0  0  0  0  0
  144.2940   72.1710  219.6110 N   0  0  0  0  0  0  0  0  0  0  0  0
  144.6110   70.7720  219.4290 C   0  0  0  0  0  0  0  0  0  0  0  0
  145.9380   70.3800  219.3460 C   0  0  0  0  0  0  0  0  0  0  0  0
  146.3000   69.0460  219.1700 C   0  0  0  0  0  0  0  0  0  0  0  0
  145.2890   68.1230  219.0800 C   0  0  0  0  0  0  0  0  0  0  0  0
  143.9500   68.4880  219.1610 C   0  0  0  0  0  0  0  0  0  0  0  0
  143.6160   69.8240  219.3370 C   0  0  0  0  0  0  0  0  0  0  0  0
  142.9260   72.5780  219.7230 C   0  0  0  0  0  0  0  0  0  0  0  0
  142.6730   74.0420  219.6750 C   0  0  0  0  0  0  0  0  0  0  0  0
  142.2400   74.6340  221.0320 C   0  0  0  0  0  0  0  0  0  0  0  0
  140.9470   74.0410  221.2880 N   0  0  0  0  0  0  0  0  0  0  0  0
  139.8300   74.7150  221.8390 C   0  0  0  0  0  0  0  0  0  0  0  0
  138.7690   74.0140  221.9440 O   0  0  0  0  0  0  0  0  0  0  0  0
  139.7920   76.1050  222.2820 C   0  0  2  0  0  0  0  0  0  0  0  0
  138.6900   76.3880  223.0920 N   0  0  0  0  0  0  0  0  0  0  0  0
  139.9900   77.1290  221.1690 C   0  0  1  0  0  0  0  0  0  0  0  0
  139.2380   78.3840  221.5460 C   0  0  0  0  0  0  0  0  0  0  0  0
  140.1690   79.1920  222.3290 C   0  0  0  0  0  0  0  0  0  0  0  0
  139.9330   80.2460  223.1880 C   0  0  0  0  0  0  0  0  0  0  0  0
  141.0130   80.8470  223.8020 C   0  0  0  0  0  0  0  0  0  0  0  0
  142.2950   80.4380  223.5910 C   0  0  0  0  0  0  0  0  0  0  0  0
  142.4960   79.3690  222.7160 C   0  0  0  0  0  0  0  0  0  0  0  0
  141.4290   78.7430  222.0820 C   0  0  0  0  0  0  0  0  0  0  0  0
  141.4140   77.5820  221.1240 C   0  0  2  0  0  0  0  0  0  0  0  0
  141.8550   78.0080  219.7780 C   0  0  0  0  0  0  0  0  0  0  0  0
  141.7650   79.2660  219.2630 C   0  0  0  0  0  0  0  0  0  0  0  0
  142.2290   79.5150  217.9870 C   0  0  0  0  0  0  0  0  0  0  0  0
  142.7830   78.5090  217.2240 C   0  0  0  0  0  0  0  0  0  0  0  0
  142.8710   77.2660  217.7340 N   0  0  0  0  0  0  0  0  0  0  0  0
  142.4210   77.0300  218.9710 C   0  0  0  0  0  0  0  0  0  0  0  0
  140.8360   72.6100  220.9400 C   0  0  0  0  0  0  0  0  0  0  0  0
  142.2060   71.9690  220.9120 C   0  0  0  0  0  0  0  0  0  0  0  0
  145.9740   73.6884  222.8854 H   0  0  0  0  0  0  0  0  0  0  0  0
  146.0840   72.1675  221.9360 H   0  0  0  0  0  0  0  0  0  0  0  0
  147.4555   73.3275  221.9360 H   0  0  0  0  0  0  0  0  0  0  0  0
  144.8441   74.4675  221.0720 H   0  0  0  0  0  0  0  0  0  0  0  0
  146.5216   74.6378  220.3686 H   0  0  0  0  0  0  0  0  0  0  0  0
  146.7269   71.1429  219.4211 H   0  0  0  0  0  0  0  0  0  0  0  0
  147.3559   68.7445  219.1057 H   0  0  0  0  0  0  0  0  0  0  0  0
  145.5455   67.0626  218.9396 H   0  0  0  0  0  0  0  0  0  0  0  0
  143.1616   67.7245  219.0862 H   0  0  0  0  0  0  0  0  0  0  0  0
  142.5599   70.1246  219.4028 H   0  0  0  0  0  0  0  0  0  0  0  0
  142.4982   72.1662  218.7970 H   0  0  0  0  0  0  0  0  0  0  0  0
  143.5971   74.5451  219.3541 H   0  0  0  0  0  0  0  0  0  0  0  0
  141.8442   74.2052  218.9704 H   0  0  0  0  0  0  0  0  0  0  0  0
  142.9560   74.3618  221.8215 H   0  0  0  0  0  0  0  0  0  0  0  0
  142.2009   75.7332  221.0161 H   0  0  0  0  0  0  0  0  0  0  0  0
  140.6819   76.2153  222.9191 H   0  0  0  0  0  0  0  0  0  0  0  0
  138.0970   75.6150  223.3580 H   0  0  0  0  0  0  0  0  0  0  0  0
  138.3080   77.3150  223.1520 H   0  0  0  0  0  0  0  0  0  0  0  0
  139.6664   76.6686  220.2239 H   0  0  0  0  0  0  0  0  0  0  0  0
  138.9260   78.9284  220.6425 H   0  0  0  0  0  0  0  0  0  0  0  0
  138.3275   78.1514  222.1177 H   0  0  0  0  0  0  0  0  0  0  0  0
  138.9087   80.5986  223.3787 H   0  0  0  0  0  0  0  0  0  0  0  0
  140.8317   81.6879  224.4876 H   0  0  0  0  0  0  0  0  0  0  0  0
  143.1408   80.9319  224.0917 H   0  0  0  0  0  0  0  0  0  0  0  0
  143.5196   79.0148  222.5243 H   0  0  0  0  0  0  0  0  0  0  0  0
  142.1069   76.7688  221.3858 H   0  0  0  0  0  0  0  0  0  0  0  0
  141.3253   80.0783  219.8603 H   0  0  0  0  0  0  0  0  0  0  0  0
  142.1557   80.5313  217.5726 H   0  0  0  0  0  0  0  0  0  0  0  0
  143.1495   78.7199  216.2085 H   0  0  0  0  0  0  0  0  0  0  0  0
  142.5035   76.0082  219.3699 H   0  0  0  0  0  0  0  0  0  0  0  0
  140.2126   72.1014  221.6901 H   0  0  0  0  0  0  0  0  0  0  0  0
  140.3775   72.5183  219.9443 H   0  0  0  0  0  0  0  0  0  0  0  0
  142.7502   72.1886  221.8424 H   0  0  0  0  0  0  0  0  0  0  0  0
  142.1381   70.8745  220.8257 H   0  0  0  0  0  0  0  0  0  0  0  0
  1  2  1  0
  2  3  1  0
  3  4  2  0
  3  5  1  0
  5  6  1  0
  6  7  2  0
  7  8  1  0
  8  9  2  0
  9 10  1  0
 10 11  2  0
  5 12  1  0
 12 13  1  0
 13 14  1  0
 14 15  1  0
 15 16  1  0
 16 17  2  0
 16 18  1  0
 18 19  1  0
 18 20  1  0
 20 21  1  0
 21 22  1  0
 22 23  2  0
 23 24  1  0
 24 25  2  0
 25 26  1  0
 26 27  2  0
 27 28  1  0
 28 29  1  0
 29 30  2  0
 30 31  1  0
 31 32  2  0
 32 33  1  0
 33 34  2  0
 15 35  1  0
 35 36  1  0
 11  6  1  0
 36 12  1  0
 28 20  1  0
 34 29  1  0
 27 22  1  0
  1 37  1  0
  1 38  1  0
  1 39  1  0
  2 40  1  0
  2 41  1  0
  7 42  1  0
  8 43  1  0
  9 44  1  0
 10 45  1  0
 11 46  1  0
 12 47  1  0
 13 48  1  0
 13 49  1  0
 14 50  1  0
 14 51  1  0
 18 52  1  1
 19 53  1  0
 19 54  1  0
 20 55  1  6
 21 56  1  0
 21 57  1  0
 23 58  1  0
 24 59  1  0
 25 60  1  0
 26 61  1  0
 28 62  1  1
 30 63  1  0
 31 64  1  0
 32 65  1  0
 34 66  1  0
 35 67  1  0
 35 68  1  0
 36 69  1  0
 36 70  1  0
M  END
>  <smiles>  (94) 
CCC(=O)N(c1ccccc1)C1CCN(C(=O)[C@H](N)C2Cc3ccccc3C2c2cccnc2)CC1

>  <score_type>  (94) 
oracle

>  <origin>  (94) 
autodockgpu

>  <m_score__min__energy>  (94) 
-9.3300000000000001

>  <m_primary>  (94) 
energy

>  <rmsd>  (94) 
4.346129802356121

>  <m_score__min__rmsd>  (94) 
4.346129802356121

>  <meeko>  (94) 
{"free_energy": -9.25, "intermolecular_energy": -11.63, "internal_energy": -2.76, "cluster_size": 17, "cluster_id": 1, "rank_in_cluster": 4}

>  <energy>  (94) 
-7.58

>  <cluster_rmsd>  (94) 
0.18

>  <cluster>  (94) 
5

$$$$

     RDKit          3D

 70 74  0  0  0  0  0  0  0  0999 V2000
  141.3910   81.8540  219.2380 C   0  0  0  0  0  0  0  0  0  0  0  0
  140.3700   82.6040  220.0960 C   0  0  0  0  0  0  0  0  0  0  0  0
  139.5170   81.7250  220.8840 C   0  0  0  0  0  0  0  0  0  0  0  0
  138.3100   82.0840  221.1030 O   0  0  0  0  0  0  0  0  0  0  0  0
  139.8910   80.4790  221.4530 N   0  0  0  0  0  0  0  0  0  0  0  0
  141.0660   80.5120  222.2940 C   0  0  0  0  0  0  0  0  0  0  0  0
  142.1700   79.7470  221.9510 C   0  0  0  0  0  0  0  0  0  0  0  0
  143.3280   79.7390  222.7260 C   0  0  0  0  0  0  0  0  0  0  0  0
  143.3400   80.5230  223.8520 C   0  0  0  0  0  0  0  0  0  0  0  0
  142.2480   81.3020  224.2190 C   0  0  0  0  0  0  0  0  0  0  0  0
  141.1060   81.2910  223.4300 C   0  0  0  0  0  0  0  0  0  0  0  0
  139.2020   79.2400  221.2470 C   0  0  0  0  0  0  0  0  0  0  0  0
  139.5420   78.1390  222.1870 C   0  0  0  0  0  0  0  0  0  0  0  0
  140.3520   77.0020  221.5320 C   0  0  0  0  0  0  0  0  0  0  0  0
  139.4400   76.4110  220.5800 N   0  0  0  0  0  0  0  0  0  0  0  0
  139.3020   75.0240  220.3280 C   0  0  0  0  0  0  0  0  0  0  0  0
  138.4050   74.7130  219.4750 O   0  0  0  0  0  0  0  0  0  0  0  0
  140.0760   73.9520  220.9460 C   0  0  2  0  0  0  0  0  0  0  0  0
  140.3120   74.1660  222.3050 N   0  0  0  0  0  0  0  0  0  0  0  0
  141.3330   73.5570  220.1780 C   0  0  1  0  0  0  0  0  0  0  0  0
  141.1250   73.9110  218.7240 C   0  0  0  0  0  0  0  0  0  0  0  0
  141.5810   75.2900  218.5750 C   0  0  0  0  0  0  0  0  0  0  0  0
  141.3250   76.2130  217.5820 C   0  0  0  0  0  0  0  0  0  0  0  0
  141.8990   77.4640  217.6860 C   0  0  0  0  0  0  0  0  0  0  0  0
  142.7020   77.8160  218.7270 C   0  0  0  0  0  0  0  0  0  0  0  0
  142.9380   76.8580  219.7130 C   0  0  0  0  0  0  0  0  0  0  0  0
  142.3750   75.5890  219.6380 C   0  0  0  0  0  0  0  0  0  0  0  0
  142.4850   74.4210  220.5810 C   0  0  2  0  0  0  0  0  0  0  0  0
  143.7980   73.7550  220.4420 C   0  0  0  0  0  0  0  0  0  0  0  0
  145.0080   74.2890  220.7680 C   0  0  0  0  0  0  0  0  0  0  0  0
  146.1530   73.5390  220.5890 C   0  0  0  0  0  0  0  0  0  0  0  0
  146.0920   72.2580  220.0840 C   0  0  0  0  0  0  0  0  0  0  0  0
  144.8960   71.7320  219.7620 N   0  0  0  0  0  0  0  0  0  0  0  0
  143.7890   72.4620  219.9380 C   0  0  0  0  0  0  0  0  0  0  0  0
  138.6130   77.3750  219.8260 C   0  0  0  0  0  0  0  0  0  0  0  0
  139.2710   78.7370  219.8180 C   0  0  0  0  0  0  0  0  0  0  0  0
  142.1044   81.3300  219.8911 H   0  0  0  0  0  0  0  0  0  0  0  0
  140.8696   81.1226  218.6030 H   0  0  0  0  0  0  0  0  0  0  0  0
  141.9330   82.5702  218.6030 H   0  0  0  0  0  0  0  0  0  0  0  0
  140.9138   83.2692  220.7829 H   0  0  0  0  0  0  0  0  0  0  0  0
  139.7153   83.1598  219.4086 H   0  0  0  0  0  0  0  0  0  0  0  0
  142.1308   79.1291  221.0418 H   0  0  0  0  0  0  0  0  0  0  0  0
  144.1987   79.1279  222.4460 H   0  0  0  0  0  0  0  0  0  0  0  0
  144.2406   80.5357  224.4835 H   0  0  0  0  0  0  0  0  0  0  0  0
  142.2889   81.9217  225.1269 H   0  0  0  0  0  0  0  0  0  0  0  0
  140.2356   81.9023  223.7107 H   0  0  0  0  0  0  0  0  0  0  0  0
  138.1644   79.5247  221.4756 H   0  0  0  0  0  0  0  0  0  0  0  0
  140.1344   78.5573  223.0141 H   0  0  0  0  0  0  0  0  0  0  0  0
  138.5932   77.7035  222.5335 H   0  0  0  0  0  0  0  0  0  0  0  0
  141.2412   77.4016  221.0224 H   0  0  0  0  0  0  0  0  0  0  0  0
  140.7195   76.2720  222.2683 H   0  0  0  0  0  0  0  0  0  0  0  0
  139.4250   73.0678  220.8805 H   0  0  0  0  0  0  0  0  0  0  0  0
  139.5330   74.0480  222.9370 H   0  0  0  0  0  0  0  0  0  0  0  0
  141.0950   74.7090  222.6210 H   0  0  0  0  0  0  0  0  0  0  0  0
  141.5237   72.4902  220.3665 H   0  0  0  0  0  0  0  0  0  0  0  0
  141.7146   73.2420  218.0799 H   0  0  0  0  0  0  0  0  0  0  0  0
  140.0706   73.8019  218.4302 H   0  0  0  0  0  0  0  0  0  0  0  0
  140.6794   75.9583  216.7285 H   0  0  0  0  0  0  0  0  0  0  0  0
  141.6999   78.2047  216.8975 H   0  0  0  0  0  0  0  0  0  0  0  0
  143.1486   78.8194  218.7886 H   0  0  0  0  0  0  0  0  0  0  0  0
  143.5827   77.1117  220.5674 H   0  0  0  0  0  0  0  0  0  0  0  0
  142.4372   74.6923  221.6460 H   0  0  0  0  0  0  0  0  0  0  0  0
  145.0722   75.3105  221.1710 H   0  0  0  0  0  0  0  0  0  0  0  0
  147.1296   73.9706  220.8536 H   0  0  0  0  0  0  0  0  0  0  0  0
  147.0121   71.6713  219.9455 H   0  0  0  0  0  0  0  0  0  0  0  0
  142.8210   72.0140  219.6692 H   0  0  0  0  0  0  0  0  0  0  0  0
  138.4970   77.0219  218.7907 H   0  0  0  0  0  0  0  0  0  0  0  0
  137.6280   77.4561  220.3089 H   0  0  0  0  0  0  0  0  0  0  0  0
  140.3182   78.6542  219.4916 H   0  0  0  0  0  0  0  0  0  0  0  0
  138.7674   79.4249  219.1228 H   0  0  0  0  0  0  0  0  0  0  0  0
  1  2  1  0
  2  3  1  0
  3  4  2  0
  3  5  1  0
  5  6  1  0
  6  7  2  0
  7  8  1  0
  8  9  2  0
  9 10  1  0
 10 11  2  0
  5 12  1  0
 12 13  1  0
 13 14  1  0
 14 15  1  0
 15 16  1  0
 16 17  2  0
 16 18  1  0
 18 19  1  0
 18 20  1  0
 20 21  1  0
 21 22  1  0
 22 23  2  0
 23 24  1  0
 24 25  2  0
 25 26  1  0
 26 27  2  0
 27 28  1  0
 28 29  1  0
 29 30  2  0
 30 31  1  0
 31 32  2  0
 32 33  1  0
 33 34  2  0
 15 35  1  0
 35 36  1  0
 11  6  1  0
 36 12  1  0
 28 20  1  0
 34 29  1  0
 27 22  1  0
  1 37  1  0
  1 38  1  0
  1 39  1  0
  2 40  1  0
  2 41  1  0
  7 42  1  0
  8 43  1  0
  9 44  1  0
 10 45  1  0
 11 46  1  0
 12 47  1  0
 13 48  1  0
 13 49  1  0
 14 50  1  0
 14 51  1  0
 18 52  1  1
 19 53  1  0
 19 54  1  0
 20 55  1  6
 21 56  1  0
 21 57  1  0
 23 58  1  0
 24 59  1  0
 25 60  1  0
 26 61  1  0
 28 62  1  1
 30 63  1  0
 31 64  1  0
 32 65  1  0
 34 66  1  0
 35 67  1  0
 35 68  1  0
 36 69  1  0
 36 70  1  0
M  END
>  <smiles>  (95) 
CCC(=O)N(c1ccccc1)C1CCN(C(=O)[C@H](N)C2Cc3ccccc3C2c2cccnc2)CC1

>  <score_type>  (95) 
oracle

>  <origin>  (95) 
autodockgpu

>  <m_score__min__energy>  (95) 
-9.3300000000000001

>  <m_primary>  (95) 
energy

>  <rmsd>  (95) 
5.9630359899458005

>  <m_score__min__rmsd>  (95) 
5.9630359899458005

>  <meeko>  (95) 
{"free_energy": -7.56, "intermolecular_energy": -9.95, "internal_energy": -3.24, "cluster_size": 15, "cluster_id": 5, "rank_in_cluster": 12}

>  <energy>  (95) 
-7.56

>  <cluster_rmsd>  (95) 
1.58

>  <cluster>  (95) 
5

$$$$

     RDKit          3D

 70 74  0  0  0  0  0  0  0  0999 V2000
  137.8480   81.9390  222.3930 C   0  0  0  0  0  0  0  0  0  0  0  0
  139.0110   82.7590  221.8300 C   0  0  0  0  0  0  0  0  0  0  0  0
  139.6190   82.1670  220.6460 C   0  0  0  0  0  0  0  0  0  0  0  0
  139.4680   82.7610  219.5240 O   0  0  0  0  0  0  0  0  0  0  0  0
  140.3820   80.9710  220.6010 N   0  0  0  0  0  0  0  0  0  0  0  0
  140.9960   80.5840  221.8510 C   0  0  0  0  0  0  0  0  0  0  0  0
  142.2100   81.1450  222.2160 C   0  0  0  0  0  0  0  0  0  0  0  0
  142.8480   80.8060  223.4080 C   0  0  0  0  0  0  0  0  0  0  0  0
  142.2270   79.8880  224.2180 C   0  0  0  0  0  0  0  0  0  0  0  0
  141.0090   79.3100  223.8770 C   0  0  0  0  0  0  0  0  0  0  0  0
  140.3950   79.6650  222.6840 C   0  0  0  0  0  0  0  0  0  0  0  0
  140.5750   80.1610  219.4360 C   0  0  0  0  0  0  0  0  0  0  0  0
  140.7590   78.7050  219.6760 C   0  0  0  0  0  0  0  0  0  0  0  0
  142.1970   78.2170  219.4080 C   0  0  0  0  0  0  0  0  0  0  0  0
  142.3760   78.3860  217.9840 N   0  0  0  0  0  0  0  0  0  0  0  0
  143.0410   77.4750  217.1260 C   0  0  0  0  0  0  0  0  0  0  0  0
  143.0500   77.7980  215.8920 O   0  0  0  0  0  0  0  0  0  0  0  0
  143.6960   76.2330  217.5250 C   0  0  2  0  0  0  0  0  0  0  0  0
  144.4580   75.6670  216.5020 N   0  0  0  0  0  0  0  0  0  0  0  0
  142.7770   75.2260  218.2100 C   0  0  1  0  0  0  0  0  0  0  0  0
  143.2060   73.8400  217.7920 C   0  0  0  0  0  0  0  0  0  0  0  0
  144.2240   73.4250  218.7540 C   0  0  0  0  0  0  0  0  0  0  0  0
  145.1750   72.4280  218.6750 C   0  0  0  0  0  0  0  0  0  0  0  0
  146.0210   72.2420  219.7500 C   0  0  0  0  0  0  0  0  0  0  0  0
  145.9490   73.0030  220.8770 C   0  0  0  0  0  0  0  0  0  0  0  0
  144.9760   74.0010  220.9210 C   0  0  0  0  0  0  0  0  0  0  0  0
  144.1090   74.2140  219.8560 C   0  0  0  0  0  0  0  0  0  0  0  0
  143.0090   75.2280  219.6870 C   0  0  2  0  0  0  0  0  0  0  0  0
  141.8160   74.8420  220.4710 C   0  0  0  0  0  0  0  0  0  0  0  0
  141.2390   73.6070  220.5030 C   0  0  0  0  0  0  0  0  0  0  0  0
  140.1280   73.3950  221.2940 C   0  0  0  0  0  0  0  0  0  0  0  0
  139.5910   74.4130  222.0530 C   0  0  0  0  0  0  0  0  0  0  0  0
  140.1610   75.6320  222.0200 N   0  0  0  0  0  0  0  0  0  0  0  0
  141.2380   75.8330  221.2530 C   0  0  0  0  0  0  0  0  0  0  0  0
  141.8110   79.6310  217.4260 C   0  0  0  0  0  0  0  0  0  0  0  0
  141.6650   80.6730  218.5140 C   0  0  0  0  0  0  0  0  0  0  0  0
  137.8812   81.9624  223.4923 H   0  0  0  0  0  0  0  0  0  0  0  0
  136.8959   82.3666  222.0457 H   0  0  0  0  0  0  0  0  0  0  0  0
  137.9310   80.8986  222.0457 H   0  0  0  0  0  0  0  0  0  0  0  0
  138.6365   83.7591  221.5662 H   0  0  0  0  0  0  0  0  0  0  0  0
  139.7874   82.7966  222.6083 H   0  0  0  0  0  0  0  0  0  0  0  0
  142.6831   81.8782  221.5462 H   0  0  0  0  0  0  0  0  0  0  0  0
  143.8115   81.2565  223.6887 H   0  0  0  0  0  0  0  0  0  0  0  0
  142.7072   79.6010  225.1651 H   0  0  0  0  0  0  0  0  0  0  0  0
  140.5360   78.5773  224.5474 H   0  0  0  0  0  0  0  0  0  0  0  0
  139.4315   79.2142  222.4041 H   0  0  0  0  0  0  0  0  0  0  0  0
  139.6029   80.2652  218.9318 H   0  0  0  0  0  0  0  0  0  0  0  0
  140.5077   78.4901  220.7251 H   0  0  0  0  0  0  0  0  0  0  0  0
  140.0998   78.1743  218.9733 H   0  0  0  0  0  0  0  0  0  0  0  0
  142.9244   78.8247  219.9663 H   0  0  0  0  0  0  0  0  0  0  0  0
  142.3526   77.1764  219.7289 H   0  0  0  0  0  0  0  0  0  0  0  0
  144.4062   76.5350  218.3088 H   0  0  0  0  0  0  0  0  0  0  0  0
  145.3530   75.2710  216.7530 H   0  0  0  0  0  0  0  0  0  0  0  0
  144.3050   75.9100  215.5390 H   0  0  0  0  0  0  0  0  0  0  0  0
  141.7394   75.4816  217.9490 H   0  0  0  0  0  0  0  0  0  0  0  0
  142.3496   73.1502  217.8206 H   0  0  0  0  0  0  0  0  0  0  0  0
  143.5971   73.8328  216.7639 H   0  0  0  0  0  0  0  0  0  0  0  0
  145.2569   71.7971  217.7776 H   0  0  0  0  0  0  0  0  0  0  0  0
  146.7817   71.4494  219.6941 H   0  0  0  0  0  0  0  0  0  0  0  0
  146.6334   72.8365  221.7219 H   0  0  0  0  0  0  0  0  0  0  0  0
  144.8930   74.6329  221.8176 H   0  0  0  0  0  0  0  0  0  0  0  0
  143.2575   76.2333  220.0581 H   0  0  0  0  0  0  0  0  0  0  0  0
  141.6561   72.7852  219.9025 H   0  0  0  0  0  0  0  0  0  0  0  0
  139.6637   72.3981  221.3193 H   0  0  0  0  0  0  0  0  0  0  0  0
  138.7054   74.2308  222.6794 H   0  0  0  0  0  0  0  0  0  0  0  0
  141.6896   76.8360  221.2411 H   0  0  0  0  0  0  0  0  0  0  0  0
  142.4812   80.0150  216.6428 H   0  0  0  0  0  0  0  0  0  0  0  0
  140.8199   79.4158  217.0001 H   0  0  0  0  0  0  0  0  0  0  0  0
  142.6104   80.7860  219.0649 H   0  0  0  0  0  0  0  0  0  0  0  0
  141.4116   81.6591  218.0976 H   0  0  0  0  0  0  0  0  0  0  0  0
  1  2  1  0
  2  3  1  0
  3  4  2  0
  3  5  1  0
  5  6  1  0
  6  7  2  0
  7  8  1  0
  8  9  2  0
  9 10  1  0
 10 11  2  0
  5 12  1  0
 12 13  1  0
 13 14  1  0
 14 15  1  0
 15 16  1  0
 16 17  2  0
 16 18  1  0
 18 19  1  0
 18 20  1  0
 20 21  1  0
 21 22  1  0
 22 23  2  0
 23 24  1  0
 24 25  2  0
 25 26  1  0
 26 27  2  0
 27 28  1  0
 28 29  1  0
 29 30  2  0
 30 31  1  0
 31 32  2  0
 32 33  1  0
 33 34  2  0
 15 35  1  0
 35 36  1  0
 11  6  1  0
 36 12  1  0
 28 20  1  0
 34 29  1  0
 27 22  1  0
  1 37  1  0
  1 38  1  0
  1 39  1  0
  2 40  1  0
  2 41  1  0
  7 42  1  0
  8 43  1  0
  9 44  1  0
 10 45  1  0
 11 46  1  0
 12 47  1  0
 13 48  1  0
 13 49  1  0
 14 50  1  0
 14 51  1  0
 18 52  1  1
 19 53  1  0
 19 54  1  0
 20 55  1  1
 21 56  1  0
 21 57  1  0
 23 58  1  0
 24 59  1  0
 25 60  1  0
 26 61  1  0
 28 62  1  1
 30 63  1  0
 31 64  1  0
 32 65  1  0
 34 66  1  0
 35 67  1  0
 35 68  1  0
 36 69  1  0
 36 70  1  0
M  END
>  <smiles>  (96) 
CCC(=O)N(c1ccccc1)C1CCN(C(=O)[C@H](N)C2Cc3ccccc3C2c2cccnc2)CC1

>  <score_type>  (96) 
oracle

>  <origin>  (96) 
autodockgpu

>  <m_score__min__energy>  (96) 
-9.3300000000000001

>  <m_primary>  (96) 
energy

>  <rmsd>  (96) 
7.4118035276699

>  <m_score__min__rmsd>  (96) 
7.4118035276699

>  <meeko>  (96) 
{"free_energy": -7.6, "intermolecular_energy": -9.99, "internal_energy": -3.3, "cluster_size": 10, "cluster_id": 3, "rank_in_cluster": 10}

>  <energy>  (96) 
-7.46

>  <cluster_rmsd>  (96) 
0.59

>  <cluster>  (96) 
5

$$$$

     RDKit          3D

 70 74  0  0  0  0  0  0  0  0999 V2000
  145.9680   73.0450  221.8170 C   0  0  0  0  0  0  0  0  0  0  0  0
  145.9850   73.7560  220.4630 C   0  0  0  0  0  0  0  0  0  0  0  0
  145.4280   72.9560  219.3800 C   0  0  0  0  0  0  0  0  0  0  0  0
  145.9680   73.0360  218.2240 O   0  0  0  0  0  0  0  0  0  0  0  0
  144.3200   72.0730  219.4710 N   0  0  0  0  0  0  0  0  0  0  0  0
  144.6420   70.6670  219.3760 C   0  0  0  0  0  0  0  0  0  0  0  0
  145.9710   70.2740  219.3300 C   0  0  0  0  0  0  0  0  0  0  0  0
  146.3380   68.9330  219.2370 C   0  0  0  0  0  0  0  0  0  0  0  0
  145.3290   68.0030  219.1920 C   0  0  0  0  0  0  0  0  0  0  0  0
  143.9880   68.3690  219.2370 C   0  0  0  0  0  0  0  0  0  0  0  0
  143.6500   69.7120  219.3290 C   0  0  0  0  0  0  0  0  0  0  0  0
  142.9570   72.4770  219.6380 C   0  0  0  0  0  0  0  0  0  0  0  0
  142.6950   73.9390  219.5690 C   0  0  0  0  0  0  0  0  0  0  0  0
  142.3240   74.5610  220.9310 C   0  0  0  0  0  0  0  0  0  0  0  0
  141.0480   73.9700  221.2620 N   0  0  0  0  0  0  0  0  0  0  0  0
  139.9550   74.6520  221.8500 C   0  0  0  0  0  0  0  0  0  0  0  0
  138.9040   73.9500  222.0220 O   0  0  0  0  0  0  0  0  0  0  0  0
  139.9310   76.0520  222.2620 C   0  0  2  0  0  0  0  0  0  0  0  0
  138.8530   76.3550  223.0960 N   0  0  0  0  0  0  0  0  0  0  0  0
  140.1010   77.0500  221.1210 C   0  0  1  0  0  0  0  0  0  0  0  0
  139.3180   78.2950  221.4680 C   0  0  0  0  0  0  0  0  0  0  0  0
  140.2310   79.1480  222.2240 C   0  0  0  0  0  0  0  0  0  0  0  0
  139.9720   80.2180  223.0550 C   0  0  0  0  0  0  0  0  0  0  0  0
  141.0390   80.8620  223.6480 C   0  0  0  0  0  0  0  0  0  0  0  0
  142.3300   80.4790  223.4430 C   0  0  0  0  0  0  0  0  0  0  0  0
  142.5540   79.3930  222.5960 C   0  0  0  0  0  0  0  0  0  0  0  0
  141.5010   78.7240  221.9850 C   0  0  0  0  0  0  0  0  0  0  0  0
  141.5120   77.5370  221.0580 C   0  0  2  0  0  0  0  0  0  0  0  0
  141.9380   77.9370  219.6990 C   0  0  0  0  0  0  0  0  0  0  0  0
  141.8350   79.1830  219.1590 C   0  0  0  0  0  0  0  0  0  0  0  0
  142.2850   79.4080  217.8730 C   0  0  0  0  0  0  0  0  0  0  0  0
  142.8380   78.3890  217.1260 C   0  0  0  0  0  0  0  0  0  0  0  0
  142.9390   77.1580  217.6610 N   0  0  0  0  0  0  0  0  0  0  0  0
  142.5020   76.9460  218.9070 C   0  0  0  0  0  0  0  0  0  0  0  0
  140.9270   72.5310  220.9530 C   0  0  0  0  0  0  0  0  0  0  0  0
  142.2980   71.8940  220.8740 C   0  0  0  0  0  0  0  0  0  0  0  0
  145.9859   73.7924  222.6239 H   0  0  0  0  0  0  0  0  0  0  0  0
  145.0551   72.4371  221.9005 H   0  0  0  0  0  0  0  0  0  0  0  0
  146.8508   72.3941  221.9005 H   0  0  0  0  0  0  0  0  0  0  0  0
  145.3984   74.6826  220.5488 H   0  0  0  0  0  0  0  0  0  0  0  0
  147.0383   73.9510  220.2129 H   0  0  0  0  0  0  0  0  0  0  0  0
  146.7574   71.0422  219.3680 H   0  0  0  0  0  0  0  0  0  0  0  0
  147.3952   68.6312  219.2010 H   0  0  0  0  0  0  0  0  0  0  0  0
  145.5889   66.9367  219.1182 H   0  0  0  0  0  0  0  0  0  0  0  0
  143.2018   67.6005  219.2000 H   0  0  0  0  0  0  0  0  0  0  0  0
  142.5926   70.0132  219.3643 H   0  0  0  0  0  0  0  0  0  0  0  0
  142.4878   72.0420  218.7432 H   0  0  0  0  0  0  0  0  0  0  0  0
  143.6004   74.4379  219.1931 H   0  0  0  0  0  0  0  0  0  0  0  0
  141.8328   74.0827  218.9013 H   0  0  0  0  0  0  0  0  0  0  0  0
  143.0780   74.3099  221.6916 H   0  0  0  0  0  0  0  0  0  0  0  0
  142.2790   75.6594  220.8913 H   0  0  0  0  0  0  0  0  0  0  0  0
  140.8382   76.1758  222.8717 H   0  0  0  0  0  0  0  0  0  0  0  0
  138.2360   75.5980  223.3530 H   0  0  0  0  0  0  0  0  0  0  0  0
  138.5070   77.2940  223.1840 H   0  0  0  0  0  0  0  0  0  0  0  0
  139.7874   76.5564  220.1893 H   0  0  0  0  0  0  0  0  0  0  0  0
  138.9877   78.8064  220.5518 H   0  0  0  0  0  0  0  0  0  0  0  0
  138.4165   78.0543  222.0506 H   0  0  0  0  0  0  0  0  0  0  0  0
  138.9399   80.5501  223.2406 H   0  0  0  0  0  0  0  0  0  0  0  0
  140.8393   81.7167  224.3111 H   0  0  0  0  0  0  0  0  0  0  0  0
  143.1651   81.0063  223.9273 H   0  0  0  0  0  0  0  0  0  0  0  0
  143.5854   79.0598  222.4083 H   0  0  0  0  0  0  0  0  0  0  0  0
  142.2261   76.7489  221.3388 H   0  0  0  0  0  0  0  0  0  0  0  0
  141.3961   80.0050  219.7435 H   0  0  0  0  0  0  0  0  0  0  0  0
  142.2012   80.4148  217.4380 H   0  0  0  0  0  0  0  0  0  0  0  0
  143.1932   78.5805  216.1027 H   0  0  0  0  0  0  0  0  0  0  0  0
  142.5943   75.9333  219.3264 H   0  0  0  0  0  0  0  0  0  0  0  0
  140.3427   72.0378  221.7438 H   0  0  0  0  0  0  0  0  0  0  0  0
  140.4216   72.4144  219.9830 H   0  0  0  0  0  0  0  0  0  0  0  0
  142.8853   72.1375  221.7716 H   0  0  0  0  0  0  0  0  0  0  0  0
  142.2311   70.7975  220.8168 H   0  0  0  0  0  0  0  0  0  0  0  0
  1  2  1  0
  2  3  1  0
  3  4  2  0
  3  5  1  0
  5  6  1  0
  6  7  2  0
  7  8  1  0
  8  9  2  0
  9 10  1  0
 10 11  2  0
  5 12  1  0
 12 13  1  0
 13 14  1  0
 14 15  1  0
 15 16  1  0
 16 17  2  0
 16 18  1  0
 18 19  1  0
 18 20  1  0
 20 21  1  0
 21 22  1  0
 22 23  2  0
 23 24  1  0
 24 25  2  0
 25 26  1  0
 26 27  2  0
 27 28  1  0
 28 29  1  0
 29 30  2  0
 30 31  1  0
 31 32  2  0
 32 33  1  0
 33 34  2  0
 15 35  1  0
 35 36  1  0
 11  6  1  0
 36 12  1  0
 28 20  1  0
 34 29  1  0
 27 22  1  0
  1 37  1  0
  1 38  1  0
  1 39  1  0
  2 40  1  0
  2 41  1  0
  7 42  1  0
  8 43  1  0
  9 44  1  0
 10 45  1  0
 11 46  1  0
 12 47  1  0
 13 48  1  0
 13 49  1  0
 14 50  1  0
 14 51  1  0
 18 52  1  1
 19 53  1  0
 19 54  1  0
 20 55  1  6
 21 56  1  0
 21 57  1  0
 23 58  1  0
 24 59  1  0
 25 60  1  0
 26 61  1  0
 28 62  1  1
 30 63  1  0
 31 64  1  0
 32 65  1  0
 34 66  1  0
 35 67  1  0
 35 68  1  0
 36 69  1  0
 36 70  1  0
M  END
>  <smiles>  (97) 
CCC(=O)N(c1ccccc1)C1CCN(C(=O)[C@H](N)C2Cc3ccccc3C2c2cccnc2)CC1

>  <score_type>  (97) 
oracle

>  <origin>  (97) 
autodockgpu

>  <m_score__min__energy>  (97) 
-9.3300000000000001

>  <m_primary>  (97) 
energy

>  <rmsd>  (97) 
4.40131431778792

>  <m_score__min__rmsd>  (97) 
4.40131431778792

>  <meeko>  (97) 
{"free_energy": -9.05, "intermolecular_energy": -11.43, "internal_energy": -2.92, "cluster_size": 17, "cluster_id": 1, "rank_in_cluster": 10}

>  <energy>  (97) 
-7.46

>  <cluster_rmsd>  (97) 
0.58

>  <cluster>  (97) 
5

$$$$

     RDKit          3D

 70 74  0  0  0  0  0  0  0  0999 V2000
  136.7270   70.3810  224.2360 C   0  0  0  0  0  0  0  0  0  0  0  0
  137.0700   68.9100  224.4800 C   0  0  0  0  0  0  0  0  0  0  0  0
  138.5030   68.6520  224.5470 C   0  0  0  0  0  0  0  0  0  0  0  0
  138.9000   67.4390  224.6010 O   0  0  0  0  0  0  0  0  0  0  0  0
  139.5330   69.6280  224.5610 N   0  0  0  0  0  0  0  0  0  0  0  0
  140.1120   69.8960  225.8580 C   0  0  0  0  0  0  0  0  0  0  0  0
  140.4910   68.8370  226.6670 C   0  0  0  0  0  0  0  0  0  0  0  0
  141.0520   69.0380  227.9260 C   0  0  0  0  0  0  0  0  0  0  0  0
  141.2200   70.3340  228.3440 C   0  0  0  0  0  0  0  0  0  0  0  0
  140.8500   71.4160  227.5530 C   0  0  0  0  0  0  0  0  0  0  0  0
  140.2930   71.1880  226.3020 C   0  0  0  0  0  0  0  0  0  0  0  0
  140.0100   70.3380  223.4120 C   0  0  0  0  0  0  0  0  0  0  0  0
  140.0900   71.8170  223.5440 C   0  0  0  0  0  0  0  0  0  0  0  0
  139.0310   72.5650  222.7080 C   0  0  0  0  0  0  0  0  0  0  0  0
  139.3950   72.2930  221.3370 N   0  0  0  0  0  0  0  0  0  0  0  0
  139.3550   73.2300  220.2760 C   0  0  0  0  0  0  0  0  0  0  0  0
  139.7600   72.7930  219.1470 O   0  0  0  0  0  0  0  0  0  0  0  0
  138.9040   74.6150  220.3630 C   0  0  2  0  0  0  0  0  0  0  0  0
  138.8190   75.2390  219.1170 N   0  0  0  0  0  0  0  0  0  0  0  0
  139.6400   75.4560  221.4010 C   0  0  1  0  0  0  0  0  0  0  0  0
  141.0240   74.8770  221.5770 C   0  0  0  0  0  0  0  0  0  0  0  0
  141.8670   75.5360  220.5820 C   0  0  0  0  0  0  0  0  0  0  0  0
  143.0980   75.1750  220.0740 C   0  0  0  0  0  0  0  0  0  0  0  0
  143.6850   75.9980  219.1340 C   0  0  0  0  0  0  0  0  0  0  0  0
  143.0950   77.1430  218.6930 C   0  0  0  0  0  0  0  0  0  0  0  0
  141.8510   77.4760  219.2290 C   0  0  0  0  0  0  0  0  0  0  0  0
  141.2330   76.6690  220.1770 C   0  0  0  0  0  0  0  0  0  0  0  0
  139.9050   76.8270  220.8700 C   0  0  2  0  0  0  0  0  0  0  0  0
  139.9840   77.8620  221.9240 C   0  0  0  0  0  0  0  0  0  0  0  0
  141.1160   78.2810  222.5570 C   0  0  0  0  0  0  0  0  0  0  0  0
  141.0330   79.2670  223.5190 C   0  0  0  0  0  0  0  0  0  0  0  0
  139.8210   79.8370  223.8500 C   0  0  0  0  0  0  0  0  0  0  0  0
  138.7040   79.4220  223.2230 N   0  0  0  0  0  0  0  0  0  0  0  0
  138.7900   78.4670  222.2920 C   0  0  0  0  0  0  0  0  0  0  0  0
  139.8290   70.9070  221.0680 C   0  0  0  0  0  0  0  0  0  0  0  0
  139.2870   69.9730  222.1290 C   0  0  0  0  0  0  0  0  0  0  0  0
  136.6072   70.8946  225.2013 H   0  0  0  0  0  0  0  0  0  0  0  0
  137.5383   70.8569  223.6656 H   0  0  0  0  0  0  0  0  0  0  0  0
  135.7889   70.4490  223.6656 H   0  0  0  0  0  0  0  0  0  0  0  0
  136.6151   68.5994  225.4322 H   0  0  0  0  0  0  0  0  0  0  0  0
  136.6775   68.3395  223.6253 H   0  0  0  0  0  0  0  0  0  0  0  0
  140.3448   67.8086  226.3049 H   0  0  0  0  0  0  0  0  0  0  0  0
  141.3490   68.1902  228.5608 H   0  0  0  0  0  0  0  0  0  0  0  0
  141.6604   70.5226  229.3342 H   0  0  0  0  0  0  0  0  0  0  0  0
  140.9974   72.4441  227.9154 H   0  0  0  0  0  0  0  0  0  0  0  0
  139.9970   72.0361  225.6671 H   0  0  0  0  0  0  0  0  0  0  0  0
  141.0492   69.9827  223.3497 H   0  0  0  0  0  0  0  0  0  0  0  0
  139.9486   72.0807  224.6025 H   0  0  0  0  0  0  0  0  0  0  0  0
  141.0769   72.1237  223.1673 H   0  0  0  0  0  0  0  0  0  0  0  0
  138.0227   72.1830  222.9258 H   0  0  0  0  0  0  0  0  0  0  0  0
  139.0079   73.6423  222.9290 H   0  0  0  0  0  0  0  0  0  0  0  0
  137.8750   74.5457  220.7454 H   0  0  0  0  0  0  0  0  0  0  0  0
  138.1790   76.0160  219.0270 H   0  0  0  0  0  0  0  0  0  0  0  0
  139.1120   74.7730  218.2770 H   0  0  0  0  0  0  0  0  0  0  0  0
  139.0312   75.4729  222.3170 H   0  0  0  0  0  0  0  0  0  0  0  0
  141.3980   75.0825  222.5909 H   0  0  0  0  0  0  0  0  0  0  0  0
  141.0233   73.7851  221.4442 H   0  0  0  0  0  0  0  0  0  0  0  0
  143.5988   74.2549  220.4095 H   0  0  0  0  0  0  0  0  0  0  0  0
  144.6672   75.7180  218.7255 H   0  0  0  0  0  0  0  0  0  0  0  0
  143.5815   77.7821  217.9415 H   0  0  0  0  0  0  0  0  0  0  0  0
  141.3489   78.3959  218.8947 H   0  0  0  0  0  0  0  0  0  0  0  0
  139.0908   77.1741  220.2168 H   0  0  0  0  0  0  0  0  0  0  0  0
  142.0894   77.8361  222.3028 H   0  0  0  0  0  0  0  0  0  0  0  0
  141.9473   79.6036  224.0297 H   0  0  0  0  0  0  0  0  0  0  0  0
  139.7677   80.6224  224.6183 H   0  0  0  0  0  0  0  0  0  0  0  0
  137.8658   78.1433  221.7909 H   0  0  0  0  0  0  0  0  0  0  0  0
  139.4539   70.5938  220.0825 H   0  0  0  0  0  0  0  0  0  0  0  0
  140.9282   70.8664  221.0823 H   0  0  0  0  0  0  0  0  0  0  0  0
  138.2027   70.1157  222.2468 H   0  0  0  0  0  0  0  0  0  0  0  0
  139.4485   68.9187  221.8600 H   0  0  0  0  0  0  0  0  0  0  0  0
  1  2  1  0
  2  3  1  0
  3  4  2  0
  3  5  1  0
  5  6  1  0
  6  7  2  0
  7  8  1  0
  8  9  2  0
  9 10  1  0
 10 11  2  0
  5 12  1  0
 12 13  1  0
 13 14  1  0
 14 15  1  0
 15 16  1  0
 16 17  2  0
 16 18  1  0
 18 19  1  0
 18 20  1  0
 20 21  1  0
 21 22  1  0
 22 23  2  0
 23 24  1  0
 24 25  2  0
 25 26  1  0
 26 27  2  0
 27 28  1  0
 28 29  1  0
 29 30  2  0
 30 31  1  0
 31 32  2  0
 32 33  1  0
 33 34  2  0
 15 35  1  0
 35 36  1  0
 11  6  1  0
 36 12  1  0
 28 20  1  0
 34 29  1  0
 27 22  1  0
  1 37  1  0
  1 38  1  0
  1 39  1  0
  2 40  1  0
  2 41  1  0
  7 42  1  0
  8 43  1  0
  9 44  1  0
 10 45  1  0
 11 46  1  0
 12 47  1  0
 13 48  1  0
 13 49  1  0
 14 50  1  0
 14 51  1  0
 18 52  1  1
 19 53  1  0
 19 54  1  0
 20 55  1  1
 21 56  1  0
 21 57  1  0
 23 58  1  0
 24 59  1  0
 25 60  1  0
 26 61  1  0
 28 62  1  6
 30 63  1  0
 31 64  1  0
 32 65  1  0
 34 66  1  0
 35 67  1  0
 35 68  1  0
 36 69  1  0
 36 70  1  0
M  END
>  <smiles>  (98) 
CCC(=O)N(c1ccccc1)C1CCN(C(=O)[C@H](N)C2Cc3ccccc3C2c2cccnc2)CC1

>  <score_type>  (98) 
oracle

>  <origin>  (98) 
autodockgpu

>  <m_score__min__energy>  (98) 
-9.3300000000000001

>  <m_primary>  (98) 
energy

>  <rmsd>  (98) 
7.22029919549308

>  <m_score__min__rmsd>  (98) 
7.22029919549308

>  <meeko>  (98) 
{"free_energy": -8.04, "intermolecular_energy": -10.43, "internal_energy": -2.71, "cluster_size": 5, "cluster_id": 2, "rank_in_cluster": 4}

>  <energy>  (98) 
-7.4

>  <cluster_rmsd>  (98) 
0.6

>  <cluster>  (98) 
5

$$$$

     RDKit          3D

 70 74  0  0  0  0  0  0  0  0999 V2000
  146.3500   73.3750  221.8370 C   0  0  0  0  0  0  0  0  0  0  0  0
  145.6560   74.0440  220.6500 C   0  0  0  0  0  0  0  0  0  0  0  0
  145.4290   73.1440  219.5270 C   0  0  0  0  0  0  0  0  0  0  0  0
  146.2910   73.1190  218.5840 O   0  0  0  0  0  0  0  0  0  0  0  0
  144.3240   72.2690  219.3610 N   0  0  0  0  0  0  0  0  0  0  0  0
  144.6590   70.9210  218.9610 C   0  0  0  0  0  0  0  0  0  0  0  0
  145.8710   70.3760  219.3520 C   0  0  0  0  0  0  0  0  0  0  0  0
  146.2460   69.0830  218.9930 C   0  0  0  0  0  0  0  0  0  0  0  0
  145.3640   68.3580  218.2310 C   0  0  0  0  0  0  0  0  0  0  0  0
  144.1410   68.8790  217.8250 C   0  0  0  0  0  0  0  0  0  0  0  0
  143.7920   70.1710  218.1960 C   0  0  0  0  0  0  0  0  0  0  0  0
  142.9510   72.6300  219.5540 C   0  0  0  0  0  0  0  0  0  0  0  0
  142.6470   74.0850  219.5180 C   0  0  0  0  0  0  0  0  0  0  0  0
  142.2760   74.6680  220.8970 C   0  0  0  0  0  0  0  0  0  0  0  0
  141.0220   74.0330  221.2320 N   0  0  0  0  0  0  0  0  0  0  0  0
  139.9170   74.6700  221.8470 C   0  0  0  0  0  0  0  0  0  0  0  0
  138.8890   73.9350  222.0170 O   0  0  0  0  0  0  0  0  0  0  0  0
  139.8580   76.0600  222.2890 C   0  0  2  0  0  0  0  0  0  0  0  0
  138.7540   76.3260  223.1020 N   0  0  0  0  0  0  0  0  0  0  0  0
  140.0390   77.0860  221.1750 C   0  0  1  0  0  0  0  0  0  0  0  0
  139.2670   78.3280  221.5520 C   0  0  0  0  0  0  0  0  0  0  0  0
  140.1850   79.1530  222.3330 C   0  0  0  0  0  0  0  0  0  0  0  0
  139.9320   80.2040  223.1910 C   0  0  0  0  0  0  0  0  0  0  0  0
  141.0030   80.8230  223.8030 C   0  0  0  0  0  0  0  0  0  0  0  0
  142.2910   80.4350  223.5910 C   0  0  0  0  0  0  0  0  0  0  0  0
  142.5090   79.3690  222.7170 C   0  0  0  0  0  0  0  0  0  0  0  0
  141.4510   78.7250  222.0850 C   0  0  0  0  0  0  0  0  0  0  0  0
  141.4550   77.5620  221.1280 C   0  0  2  0  0  0  0  0  0  0  0  0
  141.8880   77.9940  219.7810 C   0  0  0  0  0  0  0  0  0  0  0  0
  142.5490   77.2310  218.8660 C   0  0  0  0  0  0  0  0  0  0  0  0
  142.8810   77.7720  217.6410 C   0  0  0  0  0  0  0  0  0  0  0  0
  142.5530   79.0740  217.3260 C   0  0  0  0  0  0  0  0  0  0  0  0
  141.8990   79.8270  218.2310 N   0  0  0  0  0  0  0  0  0  0  0  0
  141.5800   79.2980  219.4170 C   0  0  0  0  0  0  0  0  0  0  0  0
  140.9380   72.5970  220.8930 C   0  0  0  0  0  0  0  0  0  0  0  0
  142.3250   72.0030  220.7850 C   0  0  0  0  0  0  0  0  0  0  0  0
  145.9368   73.7733  222.7754 H   0  0  0  0  0  0  0  0  0  0  0  0
  146.1829   72.2886  221.7948 H   0  0  0  0  0  0  0  0  0  0  0  0
  147.4296   73.5818  221.7948 H   0  0  0  0  0  0  0  0  0  0  0  0
  144.6835   74.4310  220.9882 H   0  0  0  0  0  0  0  0  0  0  0  0
  146.3223   74.8437  220.2943 H   0  0  0  0  0  0  0  0  0  0  0  0
  146.5568   70.9811  219.9632 H   0  0  0  0  0  0  0  0  0  0  0  0
  147.2112   68.6597  219.3079 H   0  0  0  0  0  0  0  0  0  0  0  0
  145.6331   67.3340  217.9327 H   0  0  0  0  0  0  0  0  0  0  0  0
  143.4552   68.2729  217.2148 H   0  0  0  0  0  0  0  0  0  0  0  0
  142.8270   70.5942  217.8804 H   0  0  0  0  0  0  0  0  0  0  0  0
  142.4822   72.1995  218.6569 H   0  0  0  0  0  0  0  0  0  0  0  0
  143.5331   74.6171  219.1415 H   0  0  0  0  0  0  0  0  0  0  0  0
  141.7728   74.2178  218.8636 H   0  0  0  0  0  0  0  0  0  0  0  0
  143.0470   74.4239  221.6427 H   0  0  0  0  0  0  0  0  0  0  0  0
  142.1983   75.7651  220.8805 H   0  0  0  0  0  0  0  0  0  0  0  0
  140.7472   76.1854  222.9242 H   0  0  0  0  0  0  0  0  0  0  0  0
  138.7390   77.2100  223.5910 H   0  0  0  0  0  0  0  0  0  0  0  0
  138.1680   75.5870  223.4470 H   0  0  0  0  0  0  0  0  0  0  0  0
  139.7227   76.6197  220.2303 H   0  0  0  0  0  0  0  0  0  0  0  0
  138.9444   78.8661  220.6485 H   0  0  0  0  0  0  0  0  0  0  0  0
  138.3617   78.0803  222.1256 H   0  0  0  0  0  0  0  0  0  0  0  0
  138.9022   80.5400  223.3823 H   0  0  0  0  0  0  0  0  0  0  0  0
  140.8089   81.6615  224.4880 H   0  0  0  0  0  0  0  0  0  0  0  0
  143.1290   80.9432  224.0904 H   0  0  0  0  0  0  0  0  0  0  0  0
  143.5381   79.0316  222.5243 H   0  0  0  0  0  0  0  0  0  0  0  0
  142.1615   76.7606  221.3899 H   0  0  0  0  0  0  0  0  0  0  0  0
  142.8162   76.1905  219.1024 H   0  0  0  0  0  0  0  0  0  0  0  0
  143.4158   77.1551  216.9039 H   0  0  0  0  0  0  0  0  0  0  0  0
  142.8228   79.4932  216.3455 H   0  0  0  0  0  0  0  0  0  0  0  0
  141.0455   79.9291  220.1423 H   0  0  0  0  0  0  0  0  0  0  0  0
  140.3775   72.0703  221.6795 H   0  0  0  0  0  0  0  0  0  0  0  0
  140.4241   72.4861  219.9268 H   0  0  0  0  0  0  0  0  0  0  0  0
  142.9159   72.2456  221.6805 H   0  0  0  0  0  0  0  0  0  0  0  0
  142.2897   70.9064  220.7061 H   0  0  0  0  0  0  0  0  0  0  0  0
  1  2  1  0
  2  3  1  0
  3  4  2  0
  3  5  1  0
  5  6  1  0
  6  7  2  0
  7  8  1  0
  8  9  2  0
  9 10  1  0
 10 11  2  0
  5 12  1  0
 12 13  1  0
 13 14  1  0
 14 15  1  0
 15 16  1  0
 16 17  2  0
 16 18  1  0
 18 19  1  0
 18 20  1  0
 20 21  1  0
 21 22  1  0
 22 23  2  0
 23 24  1  0
 24 25  2  0
 25 26  1  0
 26 27  2  0
 27 28  1  0
 28 29  1  0
 29 30  2  0
 30 31  1  0
 31 32  2  0
 32 33  1  0
 33 34  2  0
 15 35  1  0
 35 36  1  0
 11  6  1  0
 36 12  1  0
 28 20  1  0
 34 29  1  0
 27 22  1  0
  1 37  1  0
  1 38  1  0
  1 39  1  0
  2 40  1  0
  2 41  1  0
  7 42  1  0
  8 43  1  0
  9 44  1  0
 10 45  1  0
 11 46  1  0
 12 47  1  0
 13 48  1  0
 13 49  1  0
 14 50  1  0
 14 51  1  0
 18 52  1  1
 19 53  1  0
 19 54  1  0
 20 55  1  6
 21 56  1  0
 21 57  1  0
 23 58  1  0
 24 59  1  0
 25 60  1  0
 26 61  1  0
 28 62  1  1
 30 63  1  0
 31 64  1  0
 32 65  1  0
 34 66  1  0
 35 67  1  0
 35 68  1  0
 36 69  1  0
 36 70  1  0
M  END
>  <smiles>  (99) 
CCC(=O)N(c1ccccc1)C1CCN(C(=O)[C@H](N)C2Cc3ccccc3C2c2cccnc2)CC1

>  <score_type>  (99) 
oracle

>  <origin>  (99) 
autodockgpu

>  <m_score__min__energy>  (99) 
-9.3300000000000001

>  <m_primary>  (99) 
energy

>  <rmsd>  (99) 
4.345857634308416

>  <m_score__min__rmsd>  (99) 
4.345857634308416

>  <meeko>  (99) 
{"free_energy": -8.9, "intermolecular_energy": -11.29, "internal_energy": -2.95, "cluster_size": 17, "cluster_id": 1, "rank_in_cluster": 12}

>  <energy>  (99) 
-7.22

>  <cluster_rmsd>  (99) 
0.0

>  <cluster>  (99) 
6

$$$$

     RDKit          3D

 70 74  0  0  0  0  0  0  0  0999 V2000
  136.7370   70.4010  224.2260 C   0  0  0  0  0  0  0  0  0  0  0  0
  137.0850   68.9190  224.0690 C   0  0  0  0  0  0  0  0  0  0  0  0
  138.4890   68.6230  224.3200 C   0  0  0  0  0  0  0  0  0  0  0  0
  138.8410   67.4000  224.4350 O   0  0  0  0  0  0  0  0  0  0  0  0
  139.5370   69.5700  224.4540 N   0  0  0  0  0  0  0  0  0  0  0  0
  140.0800   69.7060  225.7870 C   0  0  0  0  0  0  0  0  0  0  0  0
  140.1610   70.9630  226.3650 C   0  0  0  0  0  0  0  0  0  0  0  0
  140.6760   71.1510  227.6460 C   0  0  0  0  0  0  0  0  0  0  0  0
  141.1060   70.0390  228.3240 C   0  0  0  0  0  0  0  0  0  0  0  0
  141.0360   68.7660  227.7690 C   0  0  0  0  0  0  0  0  0  0  0  0
  140.5180   68.6050  226.4910 C   0  0  0  0  0  0  0  0  0  0  0  0
  140.0640   70.3720  223.3900 C   0  0  0  0  0  0  0  0  0  0  0  0
  140.0390   71.8420  223.6060 C   0  0  0  0  0  0  0  0  0  0  0  0
  139.0090   72.5740  222.7200 C   0  0  0  0  0  0  0  0  0  0  0  0
  139.5060   72.4030  221.3740 N   0  0  0  0  0  0  0  0  0  0  0  0
  139.4970   73.3950  220.3630 C   0  0  0  0  0  0  0  0  0  0  0  0
  140.0230   73.0480  219.2540 O   0  0  0  0  0  0  0  0  0  0  0  0
  138.9530   74.7440  220.4820 C   0  0  2  0  0  0  0  0  0  0  0  0
  138.7520   75.3610  219.2450 N   0  0  0  0  0  0  0  0  0  0  0  0
  139.6850   75.6360  221.4800 C   0  0  1  0  0  0  0  0  0  0  0  0
  141.0990   75.1210  221.6170 C   0  0  0  0  0  0  0  0  0  0  0  0
  141.8770   75.7990  220.5830 C   0  0  0  0  0  0  0  0  0  0  0  0
  143.1050   75.4830  220.0400 C   0  0  0  0  0  0  0  0  0  0  0  0
  143.6240   76.3130  219.0650 C   0  0  0  0  0  0  0  0  0  0  0  0
  142.9690   77.4220  218.6260 C   0  0  0  0  0  0  0  0  0  0  0  0
  141.7290   77.7100  219.1980 C   0  0  0  0  0  0  0  0  0  0  0  0
  141.1810   76.8950  220.1810 C   0  0  0  0  0  0  0  0  0  0  0  0
  139.8710   77.0080  220.9160 C   0  0  2  0  0  0  0  0  0  0  0  0
  139.9390   78.0640  221.9490 C   0  0  0  0  0  0  0  0  0  0  0  0
  141.0660   78.5090  222.5710 C   0  0  0  0  0  0  0  0  0  0  0  0
  140.9730   79.5140  223.5130 C   0  0  0  0  0  0  0  0  0  0  0  0
  139.7560   80.0750  223.8350 C   0  0  0  0  0  0  0  0  0  0  0  0
  138.6420   79.6340  223.2190 N   0  0  0  0  0  0  0  0  0  0  0  0
  138.7380   78.6620  222.3070 C   0  0  0  0  0  0  0  0  0  0  0  0
  140.0480   71.0620  221.0730 C   0  0  0  0  0  0  0  0  0  0  0  0
  139.4780   70.0390  222.0310 C   0  0  0  0  0  0  0  0  0  0  0  0
  136.6779   70.6525  225.2952 H   0  0  0  0  0  0  0  0  0  0  0  0
  137.5158   71.0132  223.7478 H   0  0  0  0  0  0  0  0  0  0  0  0
  135.7671   70.6025  223.7478 H   0  0  0  0  0  0  0  0  0  0  0  0
  136.4749   68.3408  224.7785 H   0  0  0  0  0  0  0  0  0  0  0  0
  136.8784   68.6467  223.0234 H   0  0  0  0  0  0  0  0  0  0  0  0
  139.8089   71.8365  225.7967 H   0  0  0  0  0  0  0  0  0  0  0  0
  140.7354   72.1529  228.0962 H   0  0  0  0  0  0  0  0  0  0  0  0
  141.5185   70.1577  229.3368 H   0  0  0  0  0  0  0  0  0  0  0  0
  141.3883   67.8931  228.3382 H   0  0  0  0  0  0  0  0  0  0  0  0
  140.4574   67.6026  226.0420 H   0  0  0  0  0  0  0  0  0  0  0  0
  141.1253   70.0829  223.4009 H   0  0  0  0  0  0  0  0  0  0  0  0
  139.7920   72.0354  224.6603 H   0  0  0  0  0  0  0  0  0  0  0  0
  141.0330   72.2272  223.3345 H   0  0  0  0  0  0  0  0  0  0  0  0
  138.0121   72.1215  222.8272 H   0  0  0  0  0  0  0  0  0  0  0  0
  138.8981   73.6335  222.9943 H   0  0  0  0  0  0  0  0  0  0  0  0
  137.9554   74.6004  220.9225 H   0  0  0  0  0  0  0  0  0  0  0  0
  138.0130   76.0470  219.1820 H   0  0  0  0  0  0  0  0  0  0  0  0
  139.0800   74.9430  218.3930 H   0  0  0  0  0  0  0  0  0  0  0  0
  139.1075   75.6437  222.4162 H   0  0  0  0  0  0  0  0  0  0  0  0
  141.4979   75.3602  222.6138 H   0  0  0  0  0  0  0  0  0  0  0  0
  141.1424   74.0279  221.5018 H   0  0  0  0  0  0  0  0  0  0  0  0
  143.6572   74.5925  220.3748 H   0  0  0  0  0  0  0  0  0  0  0  0
  144.6031   76.0682  218.6274 H   0  0  0  0  0  0  0  0  0  0  0  0
  143.4014   78.0684  217.8481 H   0  0  0  0  0  0  0  0  0  0  0  0
  141.1747   78.5995  218.8642 H   0  0  0  0  0  0  0  0  0  0  0  0
  139.0213   77.3072  220.2847 H   0  0  0  0  0  0  0  0  0  0  0  0
  142.0442   78.0704  222.3243 H   0  0  0  0  0  0  0  0  0  0  0  0
  141.8842   79.8725  224.0142 H   0  0  0  0  0  0  0  0  0  0  0  0
  139.6949   80.8749  224.5876 H   0  0  0  0  0  0  0  0  0  0  0  0
  137.8171   78.3174  221.8139 H   0  0  0  0  0  0  0  0  0  0  0  0
  139.7789   70.7844  220.0432 H   0  0  0  0  0  0  0  0  0  0  0  0
  141.1423   71.0850  221.1829 H   0  0  0  0  0  0  0  0  0  0  0  0
  138.3807   70.1107  222.0593 H   0  0  0  0  0  0  0  0  0  0  0  0
  139.7284   69.0131  221.7231 H   0  0  0  0  0  0  0  0  0  0  0  0
  1  2  1  0
  2  3  1  0
  3  4  2  0
  3  5  1  0
  5  6  1  0
  6  7  2  0
  7  8  1  0
  8  9  2  0
  9 10  1  0
 10 11  2  0
  5 12  1  0
 12 13  1  0
 13 14  1  0
 14 15  1  0
 15 16  1  0
 16 17  2  0
 16 18  1  0
 18 19  1  0
 18 20  1  0
 20 21  1  0
 21 22  1  0
 22 23  2  0
 23 24  1  0
 24 25  2  0
 25 26  1  0
 26 27  2  0
 27 28  1  0
 28 29  1  0
 29 30  2  0
 30 31  1  0
 31 32  2  0
 32 33  1  0
 33 34  2  0
 15 35  1  0
 35 36  1  0
 11  6  1  0
 36 12  1  0
 28 20  1  0
 34 29  1  0
 27 22  1  0
  1 37  1  0
  1 38  1  0
  1 39  1  0
  2 40  1  0
  2 41  1  0
  7 42  1  0
  8 43  1  0
  9 44  1  0
 10 45  1  0
 11 46  1  0
 12 47  1  0
 13 48  1  0
 13 49  1  0
 14 50  1  0
 14 51  1  0
 18 52  1  1
 19 53  1  0
 19 54  1  0
 20 55  1  1
 21 56  1  0
 21 57  1  0
 23 58  1  0
 24 59  1  0
 25 60  1  0
 26 61  1  0
 28 62  1  6
 30 63  1  0
 31 64  1  0
 32 65  1  0
 34 66  1  0
 35 67  1  0
 35 68  1  0
 36 69  1  0
 36 70  1  0
M  END
>  <smiles>  (100) 
CCC(=O)N(c1ccccc1)C1CCN(C(=O)[C@H](N)C2Cc3ccccc3C2c2cccnc2)CC1

>  <score_type>  (100) 
oracle

>  <origin>  (100) 
autodockgpu

>  <m_score__min__energy>  (100) 
-9.3300000000000001

>  <m_primary>  (100) 
energy

>  <rmsd>  (100) 
7.086885066182947

>  <m_score__min__rmsd>  (100) 
7.086885066182947

>  <meeko>  (100) 
{"free_energy": -7.86, "intermolecular_energy": -10.25, "internal_energy": -2.79, "cluster_size": 5, "cluster_id": 2, "rank_in_cluster": 5}

>  <energy>  (100) 
-7.2

>  <cluster_rmsd>  (100) 
0.21

>  <cluster>  (100) 
6

$$$$

     RDKit          3D

 70 74  0  0  0  0  0  0  0  0999 V2000
  138.0530   80.5280  224.2600 C   0  0  0  0  0  0  0  0  0  0  0  0
  137.9470   80.0440  222.8390 C   0  0  0  0  0  0  0  0  0  0  0  0
  138.1240   78.5690  222.7840 C   0  0  0  0  0  0  0  0  0  0  0  0
  137.0800   77.8770  222.9700 O   0  0  0  0  0  0  0  0  0  0  0  0
  139.4010   77.9680  222.5350 N   0  0  0  0  0  0  0  0  0  0  0  0
  140.5360   78.8240  222.5800 C   0  0  0  0  0  0  0  0  0  0  0  0
  141.0590   79.4500  221.4680 C   0  0  0  0  0  0  0  0  0  0  0  0
  142.1640   80.2760  221.5840 C   0  0  0  0  0  0  0  0  0  0  0  0
  142.7540   80.4770  222.8270 C   0  0  0  0  0  0  0  0  0  0  0  0
  142.2260   79.8480  223.9350 C   0  0  0  0  0  0  0  0  0  0  0  0
  141.1200   79.0190  223.8350 C   0  0  0  0  0  0  0  0  0  0  0  0
  139.4840   76.5580  222.2550 C   0  0  0  0  0  0  0  0  0  0  0  0
  140.9090   76.0230  222.3230 C   0  0  0  0  0  0  0  0  0  0  0  0
  141.0040   74.7440  221.4980 C   0  0  0  0  0  0  0  0  0  0  0  0
  139.7050   74.0820  221.4790 N   0  0  0  0  0  0  0  0  0  0  0  0
  139.6030   72.8310  222.1250 C   0  0  0  0  0  0  0  0  0  0  0  0
  140.6640   72.3970  222.6690 O   0  0  0  0  0  0  0  0  0  0  0  0
  138.4100   71.9930  222.2330 C   0  0  2  0  0  0  0  0  0  0  0  0
  137.3840   72.6410  223.0730 N   0  0  0  0  0  0  0  0  0  0  0  0
  138.6510   70.6040  222.7840 C   0  0  2  0  0  0  0  0  0  0  0  0
  137.7520   69.6780  221.9990 C   0  0  0  0  0  0  0  0  0  0  0  0
  136.5770   69.4660  222.8650 C   0  0  0  0  0  0  0  0  0  0  0  0
  135.3450   68.8940  222.6120 C   0  0  0  0  0  0  0  0  0  0  0  0
  134.4060   68.8190  223.6180 C   0  0  0  0  0  0  0  0  0  0  0  0
  134.6710   69.3070  224.8810 C   0  0  0  0  0  0  0  0  0  0  0  0
  135.8960   69.8790  225.1380 C   0  0  0  0  0  0  0  0  0  0  0  0
  136.8510   69.9560  224.1180 C   0  0  0  0  0  0  0  0  0  0  0  0
  138.2100   70.5310  224.2050 C   0  0  1  0  0  0  0  0  0  0  0  0
  139.0310   69.6160  225.0500 C   0  0  0  0  0  0  0  0  0  0  0  0
  139.9870   70.0630  225.9340 C   0  0  0  0  0  0  0  0  0  0  0  0
  140.7110   69.1610  226.6880 C   0  0  0  0  0  0  0  0  0  0  0  0
  140.5120   67.7950  226.5910 C   0  0  0  0  0  0  0  0  0  0  0  0
  139.5720   67.3760  225.7190 N   0  0  0  0  0  0  0  0  0  0  0  0
  138.8490   68.2500  224.9680 C   0  0  0  0  0  0  0  0  0  0  0  0
  138.6320   74.7670  220.8060 C   0  0  0  0  0  0  0  0  0  0  0  0
  138.8610   76.2530  220.9130 C   0  0  0  0  0  0  0  0  0  0  0  0
  137.8693   79.6893  224.9477 H   0  0  0  0  0  0  0  0  0  0  0  0
  139.0609   80.9321  224.4355 H   0  0  0  0  0  0  0  0  0  0  0  0
  137.3062   81.3164  224.4355 H   0  0  0  0  0  0  0  0  0  0  0  0
  136.9565   80.3062  222.4389 H   0  0  0  0  0  0  0  0  0  0  0  0
  138.7340   80.5224  222.2375 H   0  0  0  0  0  0  0  0  0  0  0  0
  140.5955   79.2921  220.4830 H   0  0  0  0  0  0  0  0  0  0  0  0
  142.5751   80.7732  220.6931 H   0  0  0  0  0  0  0  0  0  0  0  0
  143.6329   81.1310  222.9256 H   0  0  0  0  0  0  0  0  0  0  0  0
  142.6924   80.0076  224.9184 H   0  0  0  0  0  0  0  0  0  0  0  0
  140.7091   78.5234  224.7270 H   0  0  0  0  0  0  0  0  0  0  0  0
  138.9187   76.0402  223.0439 H   0  0  0  0  0  0  0  0  0  0  0  0
  141.6037   76.7740  221.9188 H   0  0  0  0  0  0  0  0  0  0  0  0
  141.1740   75.8088  223.3689 H   0  0  0  0  0  0  0  0  0  0  0  0
  141.3044   74.9923  220.4694 H   0  0  0  0  0  0  0  0  0  0  0  0
  141.7518   74.0729  221.9457 H   0  0  0  0  0  0  0  0  0  0  0  0
  138.0710   71.8785  221.1928 H   0  0  0  0  0  0  0  0  0  0  0  0
  137.3420   73.6700  222.8970 H   0  0  0  0  0  0  0  0  0  0  0  0
  137.6140   72.5330  224.0770 H   0  0  0  0  0  0  0  0  0  0  0  0
  139.7175   70.3444  222.7127 H   0  0  0  0  0  0  0  0  0  0  0  0
  137.4531   70.1430  221.0480 H   0  0  0  0  0  0  0  0  0  0  0  0
  138.2533   68.7331  221.7424 H   0  0  0  0  0  0  0  0  0  0  0  0
  135.1145   68.4999  221.6112 H   0  0  0  0  0  0  0  0  0  0  0  0
  133.4274   68.3617  223.4102 H   0  0  0  0  0  0  0  0  0  0  0  0
  133.9115   69.2396  225.6738 H   0  0  0  0  0  0  0  0  0  0  0  0
  136.1232   70.2734  226.1394 H   0  0  0  0  0  0  0  0  0  0  0  0
  138.2861   71.5248  224.6703 H   0  0  0  0  0  0  0  0  0  0  0  0
  140.1746   71.1417  226.0399 H   0  0  0  0  0  0  0  0  0  0  0  0
  141.4701   69.5402  227.3880 H   0  0  0  0  0  0  0  0  0  0  0  0
  141.0932   67.0841  227.1967 H   0  0  0  0  0  0  0  0  0  0  0  0
  138.0941   67.8551  224.2722 H   0  0  0  0  0  0  0  0  0  0  0  0
  138.6118   74.4715  219.7466 H   0  0  0  0  0  0  0  0  0  0  0  0
  137.6706   74.5028  221.2707 H   0  0  0  0  0  0  0  0  0  0  0  0
  139.5367   76.5811  220.1094 H   0  0  0  0  0  0  0  0  0  0  0  0
  137.9029   76.7850  220.8179 H   0  0  0  0  0  0  0  0  0  0  0  0
  1  2  1  0
  2  3  1  0
  3  4  2  0
  3  5  1  0
  5  6  1  0
  6  7  2  0
  7  8  1  0
  8  9  2  0
  9 10  1  0
 10 11  2  0
  5 12  1  0
 12 13  1  0
 13 14  1  0
 14 15  1  0
 15 16  1  0
 16 17  2  0
 16 18  1  0
 18 19  1  0
 18 20  1  0
 20 21  1  0
 21 22  1  0
 22 23  2  0
 23 24  1  0
 24 25  2  0
 25 26  1  0
 26 27  2  0
 27 28  1  0
 28 29  1  0
 29 30  2  0
 30 31  1  0
 31 32  2  0
 32 33  1  0
 33 34  2  0
 15 35  1  0
 35 36  1  0
 11  6  1  0
 36 12  1  0
 28 20  1  0
 34 29  1  0
 27 22  1  0
  1 37  1  0
  1 38  1  0
  1 39  1  0
  2 40  1  0
  2 41  1  0
  7 42  1  0
  8 43  1  0
  9 44  1  0
 10 45  1  0
 11 46  1  0
 12 47  1  0
 13 48  1  0
 13 49  1  0
 14 50  1  0
 14 51  1  0
 18 52  1  6
 19 53  1  0
 19 54  1  0
 20 55  1  1
 21 56  1  0
 21 57  1  0
 23 58  1  0
 24 59  1  0
 25 60  1  0
 26 61  1  0
 28 62  1  1
 30 63  1  0
 31 64  1  0
 32 65  1  0
 34 66  1  0
 35 67  1  0
 35 68  1  0
 36 69  1  0
 36 70  1  0
M  END
>  <smiles>  (101) 
CCC(=O)N(c1ccccc1)C1CCN(C(=O)[C@H](N)C2Cc3ccccc3C2c2cccnc2)CC1

>  <score_type>  (101) 
oracle

>  <origin>  (101) 
autodockgpu

>  <m_score__min__energy>  (101) 
-9.0999999999999996

>  <m_primary>  (101) 
energy

>  <rmsd>  (101) 
8.72754527454089

>  <m_score__min__rmsd>  (101) 
8.72754527454089

>  <meeko>  (101) 
{"free_energy": -9.08, "intermolecular_energy": -11.46, "internal_energy": -2.17, "cluster_size": 2, "cluster_id": 2, "rank_in_cluster": 1}

>  <energy>  (101) 
-9.1

>  <cluster_rmsd>  (101) 
0.0

>  <cluster>  (101) 
1

$$$$

     RDKit          3D

 70 74  0  0  0  0  0  0  0  0999 V2000
  142.5110   79.4590  223.1490 C   0  0  0  0  0  0  0  0  0  0  0  0
  141.8090   80.7730  223.3700 C   0  0  0  0  0  0  0  0  0  0  0  0
  140.7130   80.9430  222.3800 C   0  0  0  0  0  0  0  0  0  0  0  0
  140.9910   81.6370  221.3580 O   0  0  0  0  0  0  0  0  0  0  0  0
  139.4210   80.3550  222.5730 N   0  0  0  0  0  0  0  0  0  0  0  0
  138.4530   81.1370  223.2610 C   0  0  0  0  0  0  0  0  0  0  0  0
  137.6600   82.0800  222.6410 C   0  0  0  0  0  0  0  0  0  0  0  0
  136.7320   82.8040  223.3700 C   0  0  0  0  0  0  0  0  0  0  0  0
  136.5970   82.5830  224.7360 C   0  0  0  0  0  0  0  0  0  0  0  0
  137.3930   81.6400  225.3500 C   0  0  0  0  0  0  0  0  0  0  0  0
  138.3260   80.9060  224.6330 C   0  0  0  0  0  0  0  0  0  0  0  0
  139.1600   79.0280  222.0770 C   0  0  0  0  0  0  0  0  0  0  0  0
  138.4500   79.0290  220.7280 C   0  0  0  0  0  0  0  0  0  0  0  0
  137.7230   77.7020  220.5430 C   0  0  0  0  0  0  0  0  0  0  0  0
  138.4210   76.6590  221.2860 N   0  0  0  0  0  0  0  0  0  0  0  0
  139.0370   75.6290  220.5420 C   0  0  0  0  0  0  0  0  0  0  0  0
  138.9230   75.7110  219.2810 O   0  0  0  0  0  0  0  0  0  0  0  0
  139.7850   74.4900  221.0700 C   0  0  2  0  0  0  0  0  0  0  0  0
  139.1930   74.0130  222.3350 N   0  0  0  0  0  0  0  0  0  0  0  0
  141.2570   74.7490  221.3150 C   0  0  2  0  0  0  0  0  0  0  0  0
  141.3700   76.2070  221.6890 C   0  0  0  0  0  0  0  0  0  0  0  0
  141.7890   76.8860  220.4480 C   0  0  0  0  0  0  0  0  0  0  0  0
  141.8530   78.2240  220.1130 C   0  0  0  0  0  0  0  0  0  0  0  0
  142.2910   78.5960  218.8590 C   0  0  0  0  0  0  0  0  0  0  0  0
  142.6680   77.6540  217.9250 C   0  0  0  0  0  0  0  0  0  0  0  0
  142.6050   76.3180  218.2540 C   0  0  0  0  0  0  0  0  0  0  0  0
  142.1620   75.9400  219.5260 C   0  0  0  0  0  0  0  0  0  0  0  0
  142.0280   74.5650  220.0550 C   0  0  1  0  0  0  0  0  0  0  0  0
  143.4040   74.0260  220.2570 C   0  0  0  0  0  0  0  0  0  0  0  0
  143.6950   72.6800  220.2410 C   0  0  0  0  0  0  0  0  0  0  0  0
  144.9920   72.2490  220.4340 C   0  0  0  0  0  0  0  0  0  0  0  0
  146.0370   73.1320  220.6470 C   0  0  0  0  0  0  0  0  0  0  0  0
  145.7320   74.4460  220.6580 N   0  0  0  0  0  0  0  0  0  0  0  0
  144.4600   74.8890  220.4700 C   0  0  0  0  0  0  0  0  0  0  0  0
  138.4290   76.7740  222.7220 C   0  0  0  0  0  0  0  0  0  0  0  0
  138.3750   78.2330  223.0940 C   0  0  0  0  0  0  0  0  0  0  0  0
  142.7536   79.0049  224.1211 H   0  0  0  0  0  0  0  0  0  0  0  0
  141.8539   78.7830  222.5823 H   0  0  0  0  0  0  0  0  0  0  0  0
  143.4382   79.6294  222.5823 H   0  0  0  0  0  0  0  0  0  0  0  0
  141.3874   80.7933  224.3858 H   0  0  0  0  0  0  0  0  0  0  0  0
  142.5333   81.5917  223.2474 H   0  0  0  0  0  0  0  0  0  0  0  0
  137.7656   82.2579  221.5606 H   0  0  0  0  0  0  0  0  0  0  0  0
  136.1019   83.5535  222.8688 H   0  0  0  0  0  0  0  0  0  0  0  0
  135.8620   83.1552  225.3211 H   0  0  0  0  0  0  0  0  0  0  0  0
  137.2860   81.4661  226.4309 H   0  0  0  0  0  0  0  0  0  0  0  0
  138.9544   80.1558  225.1353 H   0  0  0  0  0  0  0  0  0  0  0  0
  140.1364   78.5476  221.9160 H   0  0  0  0  0  0  0  0  0  0  0  0
  137.7234   79.8542  220.6953 H   0  0  0  0  0  0  0  0  0  0  0  0
  139.1873   79.1618  219.9225 H   0  0  0  0  0  0  0  0  0  0  0  0
  136.6928   77.7927  220.9178 H   0  0  0  0  0  0  0  0  0  0  0  0
  137.7021   77.4405  219.4747 H   0  0  0  0  0  0  0  0  0  0  0  0
  139.7138   73.7324  220.2757 H   0  0  0  0  0  0  0  0  0  0  0  0
  138.1580   74.1480  222.3460 H   0  0  0  0  0  0  0  0  0  0  0  0
  139.5610   74.5550  223.1380 H   0  0  0  0  0  0  0  0  0  0  0  0
  141.6421   74.0671  222.0875 H   0  0  0  0  0  0  0  0  0  0  0  0
  140.3998   76.5945  222.0335 H   0  0  0  0  0  0  0  0  0  0  0  0
  142.0828   76.3696  222.5109 H   0  0  0  0  0  0  0  0  0  0  0  0
  141.5557   78.9907  220.8437 H   0  0  0  0  0  0  0  0  0  0  0  0
  142.3405   79.6637  218.5992 H   0  0  0  0  0  0  0  0  0  0  0  0
  143.0150   77.9660  216.9289 H   0  0  0  0  0  0  0  0  0  0  0  0
  142.9012   75.5530  217.5211 H   0  0  0  0  0  0  0  0  0  0  0  0
  141.5118   73.8439  219.4042 H   0  0  0  0  0  0  0  0  0  0  0  0
  142.8921   71.9468  220.0740 H   0  0  0  0  0  0  0  0  0  0  0  0
  145.2022   71.1694  220.4181 H   0  0  0  0  0  0  0  0  0  0  0  0
  147.0674   72.7787  220.8000 H   0  0  0  0  0  0  0  0  0  0  0  0
  144.2662   75.9716  220.4883 H   0  0  0  0  0  0  0  0  0  0  0  0
  137.5542   76.2538  223.1392 H   0  0  0  0  0  0  0  0  0  0  0  0
  139.3447   76.3191  223.1277 H   0  0  0  0  0  0  0  0  0  0  0  0
  137.3291   78.5736  223.1011 H   0  0  0  0  0  0  0  0  0  0  0  0
  138.8081   78.3782  224.0947 H   0  0  0  0  0  0  0  0  0  0  0  0
  1  2  1  0
  2  3  1  0
  3  4  2  0
  3  5  1  0
  5  6  1  0
  6  7  2  0
  7  8  1  0
  8  9  2  0
  9 10  1  0
 10 11  2  0
  5 12  1  0
 12 13  1  0
 13 14  1  0
 14 15  1  0
 15 16  1  0
 16 17  2  0
 16 18  1  0
 18 19  1  0
 18 20  1  0
 20 21  1  0
 21 22  1  0
 22 23  2  0
 23 24  1  0
 24 25  2  0
 25 26  1  0
 26 27  2  0
 27 28  1  0
 28 29  1  0
 29 30  2  0
 30 31  1  0
 31 32  2  0
 32 33  1  0
 33 34  2  0
 15 35  1  0
 35 36  1  0
 11  6  1  0
 36 12  1  0
 28 20  1  0
 34 29  1  0
 27 22  1  0
  1 37  1  0
  1 38  1  0
  1 39  1  0
  2 40  1  0
  2 41  1  0
  7 42  1  0
  8 43  1  0
  9 44  1  0
 10 45  1  0
 11 46  1  0
 12 47  1  0
 13 48  1  0
 13 49  1  0
 14 50  1  0
 14 51  1  0
 18 52  1  6
 19 53  1  0
 19 54  1  0
 20 55  1  1
 21 56  1  0
 21 57  1  0
 23 58  1  0
 24 59  1  0
 25 60  1  0
 26 61  1  0
 28 62  1  6
 30 63  1  0
 31 64  1  0
 32 65  1  0
 34 66  1  0
 35 67  1  0
 35 68  1  0
 36 69  1  0
 36 70  1  0
M  END
>  <smiles>  (102) 
CCC(=O)N(c1ccccc1)C1CCN(C(=O)[C@H](N)C2Cc3ccccc3C2c2cccnc2)CC1

>  <score_type>  (102) 
oracle

>  <origin>  (102) 
autodockgpu

>  <m_score__min__energy>  (102) 
-9.0999999999999996

>  <m_primary>  (102) 
energy

>  <rmsd>  (102) 
5.513991551893905

>  <m_score__min__rmsd>  (102) 
5.513991551893905

>  <meeko>  (102) 
{"free_energy": -7.81, "intermolecular_energy": -10.2, "internal_energy": -3.23, "cluster_size": 28, "cluster_id": 5, "rank_in_cluster": 25}

>  <energy>  (102) 
-8.94

>  <cluster_rmsd>  (102) 
0.26

>  <cluster>  (102) 
1

$$$$

     RDKit          3D

 70 74  0  0  0  0  0  0  0  0999 V2000
  137.7530   80.5880  224.6090 C   0  0  0  0  0  0  0  0  0  0  0  0
  137.5090   81.3380  223.3270 C   0  0  0  0  0  0  0  0  0  0  0  0
  137.8890   80.5000  222.1600 C   0  0  0  0  0  0  0  0  0  0  0  0
  137.1350   80.5870  221.1450 O   0  0  0  0  0  0  0  0  0  0  0  0
  139.0400   79.6470  222.1830 N   0  0  0  0  0  0  0  0  0  0  0  0
  140.2570   80.2190  222.6480 C   0  0  0  0  0  0  0  0  0  0  0  0
  140.6370   81.5170  222.3780 C   0  0  0  0  0  0  0  0  0  0  0  0
  141.8340   82.0120  222.8660 C   0  0  0  0  0  0  0  0  0  0  0  0
  142.6610   81.1990  223.6310 C   0  0  0  0  0  0  0  0  0  0  0  0
  142.2760   79.9010  223.8970 C   0  0  0  0  0  0  0  0  0  0  0  0
  141.0800   79.3920  223.4160 C   0  0  0  0  0  0  0  0  0  0  0  0
  138.9230   78.2800  221.7460 C   0  0  0  0  0  0  0  0  0  0  0  0
  138.3270   78.1540  220.3490 C   0  0  0  0  0  0  0  0  0  0  0  0
  137.7220   76.7640  220.1860 C   0  0  0  0  0  0  0  0  0  0  0  0
  138.4360   75.8210  221.0390 N   0  0  0  0  0  0  0  0  0  0  0  0
  139.1880   74.8080  220.4040 C   0  0  0  0  0  0  0  0  0  0  0  0
  139.1710   74.8160  219.1350 O   0  0  0  0  0  0  0  0  0  0  0  0
  139.9780   73.7630  221.0520 C   0  0  2  0  0  0  0  0  0  0  0  0
  139.3910   73.3910  222.3540 N   0  0  0  0  0  0  0  0  0  0  0  0
  141.4340   74.1100  221.2820 C   0  0  2  0  0  0  0  0  0  0  0  0
  141.4540   75.5400  221.7650 C   0  0  0  0  0  0  0  0  0  0  0  0
  141.7870   76.3400  220.5710 C   0  0  0  0  0  0  0  0  0  0  0  0
  141.7460   77.7010  220.3400 C   0  0  0  0  0  0  0  0  0  0  0  0
  142.1190   78.1970  219.1080 C   0  0  0  0  0  0  0  0  0  0  0  0
  142.5350   77.3590  218.0950 C   0  0  0  0  0  0  0  0  0  0  0  0
  142.5770   76.0010  218.3200 C   0  0  0  0  0  0  0  0  0  0  0  0
  142.1990   75.4960  219.5690 C   0  0  0  0  0  0  0  0  0  0  0  0
  142.1790   74.0790  219.9920 C   0  0  1  0  0  0  0  0  0  0  0  0
  143.5950   73.6290  220.1200 C   0  0  0  0  0  0  0  0  0  0  0  0
  144.5510   74.3390  220.8100 C   0  0  0  0  0  0  0  0  0  0  0  0
  145.8450   73.8640  220.8900 C   0  0  0  0  0  0  0  0  0  0  0  0
  146.2310   72.6760  220.2930 C   0  0  0  0  0  0  0  0  0  0  0  0
  145.2800   71.9950  219.6210 N   0  0  0  0  0  0  0  0  0  0  0  0
  144.0000   72.4480  219.5320 C   0  0  0  0  0  0  0  0  0  0  0  0
  138.3200   76.0100  222.4620 C   0  0  0  0  0  0  0  0  0  0  0  0
  138.1230   77.4770  222.7440 C   0  0  0  0  0  0  0  0  0  0  0  0
  137.5392   81.2453  225.4647 H   0  0  0  0  0  0  0  0  0  0  0  0
  137.0950   79.7074  224.6496 H   0  0  0  0  0  0  0  0  0  0  0  0
  138.8032   80.2632  224.6496 H   0  0  0  0  0  0  0  0  0  0  0  0
  136.4425   81.5976  223.2556 H   0  0  0  0  0  0  0  0  0  0  0  0
  138.1199   82.2527  223.3253 H   0  0  0  0  0  0  0  0  0  0  0  0
  139.9850   82.1627  221.7713 H   0  0  0  0  0  0  0  0  0  0  0  0
  142.1303   83.0487  222.6482 H   0  0  0  0  0  0  0  0  0  0  0  0
  143.6138   81.5865  224.0210 H   0  0  0  0  0  0  0  0  0  0  0  0
  142.9311   79.2576  224.5027 H   0  0  0  0  0  0  0  0  0  0  0  0
  140.7842   78.3554  223.6351 H   0  0  0  0  0  0  0  0  0  0  0  0
  139.9433   77.8729  221.6881 H   0  0  0  0  0  0  0  0  0  0  0  0
  137.5439   78.9144  220.2131 H   0  0  0  0  0  0  0  0  0  0  0  0
  139.1145   78.3051  219.5960 H   0  0  0  0  0  0  0  0  0  0  0  0
  136.6610   76.7895  220.4752 H   0  0  0  0  0  0  0  0  0  0  0  0
  137.8079   76.4471  219.1362 H   0  0  0  0  0  0  0  0  0  0  0  0
  139.9499   72.9266  220.3381 H   0  0  0  0  0  0  0  0  0  0  0  0
  138.3470   73.4190  222.3240 H   0  0  0  0  0  0  0  0  0  0  0  0
  139.6730   74.0660  223.0880 H   0  0  0  0  0  0  0  0  0  0  0  0
  141.8891   73.4020  221.9903 H   0  0  0  0  0  0  0  0  0  0  0  0
  140.4693   75.8282  222.1615 H   0  0  0  0  0  0  0  0  0  0  0  0
  142.1774   75.6916  222.5797 H   0  0  0  0  0  0  0  0  0  0  0  0
  141.4173   78.3865  221.1350 H   0  0  0  0  0  0  0  0  0  0  0  0
  142.0839   79.2820  218.9303 H   0  0  0  0  0  0  0  0  0  0  0  0
  142.8299   77.7705  217.1184 H   0  0  0  0  0  0  0  0  0  0  0  0
  142.9056   75.3177  217.5230 H   0  0  0  0  0  0  0  0  0  0  0  0
  141.6968   73.3739  219.2990 H   0  0  0  0  0  0  0  0  0  0  0  0
  144.2835   75.2873  221.2990 H   0  0  0  0  0  0  0  0  0  0  0  0
  146.5932   74.4482  221.4459 H   0  0  0  0  0  0  0  0  0  0  0  0
  147.2642   72.3050  220.3633 H   0  0  0  0  0  0  0  0  0  0  0  0
  143.2633   71.8528  218.9725 H   0  0  0  0  0  0  0  0  0  0  0  0
  137.4577   75.4419  222.8411 H   0  0  0  0  0  0  0  0  0  0  0  0
  139.2329   75.6533  222.9614 H   0  0  0  0  0  0  0  0  0  0  0  0
  137.0566   77.7306  222.6517 H   0  0  0  0  0  0  0  0  0  0  0  0
  138.4614   77.7085  223.7647 H   0  0  0  0  0  0  0  0  0  0  0  0
  1  2  1  0
  2  3  1  0
  3  4  2  0
  3  5  1  0
  5  6  1  0
  6  7  2  0
  7  8  1  0
  8  9  2  0
  9 10  1  0
 10 11  2  0
  5 12  1  0
 12 13  1  0
 13 14  1  0
 14 15  1  0
 15 16  1  0
 16 17  2  0
 16 18  1  0
 18 19  1  0
 18 20  1  0
 20 21  1  0
 21 22  1  0
 22 23  2  0
 23 24  1  0
 24 25  2  0
 25 26  1  0
 26 27  2  0
 27 28  1  0
 28 29  1  0
 29 30  2  0
 30 31  1  0
 31 32  2  0
 32 33  1  0
 33 34  2  0
 15 35  1  0
 35 36  1  0
 11  6  1  0
 36 12  1  0
 28 20  1  0
 34 29  1  0
 27 22  1  0
  1 37  1  0
  1 38  1  0
  1 39  1  0
  2 40  1  0
  2 41  1  0
  7 42  1  0
  8 43  1  0
  9 44  1  0
 10 45  1  0
 11 46  1  0
 12 47  1  0
 13 48  1  0
 13 49  1  0
 14 50  1  0
 14 51  1  0
 18 52  1  6
 19 53  1  0
 19 54  1  0
 20 55  1  1
 21 56  1  0
 21 57  1  0
 23 58  1  0
 24 59  1  0
 25 60  1  0
 26 61  1  0
 28 62  1  6
 30 63  1  0
 31 64  1  0
 32 65  1  0
 34 66  1  0
 35 67  1  0
 35 68  1  0
 36 69  1  0
 36 70  1  0
M  END
>  <smiles>  (103) 
CCC(=O)N(c1ccccc1)C1CCN(C(=O)[C@H](N)C2Cc3ccccc3C2c2cccnc2)CC1

>  <score_type>  (103) 
oracle

>  <origin>  (103) 
autodockgpu

>  <m_score__min__energy>  (103) 
-9.0999999999999996

>  <m_primary>  (103) 
energy

>  <rmsd>  (103) 
5.6459707924471285

>  <m_score__min__rmsd>  (103) 
5.6459707924471285

>  <meeko>  (103) 
{"free_energy": -7.82, "intermolecular_energy": -10.21, "internal_energy": -3.34, "cluster_size": 28, "cluster_id": 5, "rank_in_cluster": 23}

>  <energy>  (103) 
-8.87

>  <cluster_rmsd>  (103) 
0.57

>  <cluster>  (103) 
1

$$$$

     RDKit          3D

 70 74  0  0  0  0  0  0  0  0999 V2000
  137.7750   80.8880  224.5840 C   0  0  0  0  0  0  0  0  0  0  0  0
  137.3690   80.6880  223.1480 C   0  0  0  0  0  0  0  0  0  0  0  0
  138.5660   80.7180  222.2670 C   0  0  0  0  0  0  0  0  0  0  0  0
  138.6100   81.6610  221.4220 O   0  0  0  0  0  0  0  0  0  0  0  0
  139.6070   79.7390  222.3700 N   0  0  0  0  0  0  0  0  0  0  0  0
  140.8510   80.1740  222.9040 C   0  0  0  0  0  0  0  0  0  0  0  0
  140.9780   81.2620  223.7410 C   0  0  0  0  0  0  0  0  0  0  0  0
  142.2200   81.6280  224.2310 C   0  0  0  0  0  0  0  0  0  0  0  0
  143.3490   80.8980  223.8760 C   0  0  0  0  0  0  0  0  0  0  0  0
  143.2160   79.8110  223.0370 C   0  0  0  0  0  0  0  0  0  0  0  0
  141.9780   79.4320  222.5400 C   0  0  0  0  0  0  0  0  0  0  0  0
  139.3590   78.3870  221.9380 C   0  0  0  0  0  0  0  0  0  0  0  0
  138.5300   78.3170  220.6610 C   0  0  0  0  0  0  0  0  0  0  0  0
  137.8470   76.9550  220.5820 C   0  0  0  0  0  0  0  0  0  0  0  0
  138.6550   75.9660  221.2860 N   0  0  0  0  0  0  0  0  0  0  0  0
  139.2440   74.9390  220.5170 C   0  0  0  0  0  0  0  0  0  0  0  0
  139.0120   74.9760  219.2700 O   0  0  0  0  0  0  0  0  0  0  0  0
  140.0870   73.8490  221.0050 C   0  0  2  0  0  0  0  0  0  0  0  0
  139.6000   73.3490  222.3060 N   0  0  0  0  0  0  0  0  0  0  0  0
  141.5530   74.1940  221.1600 C   0  0  2  0  0  0  0  0  0  0  0  0
  141.6050   75.6590  221.5180 C   0  0  0  0  0  0  0  0  0  0  0  0
  141.9100   76.3490  220.2500 C   0  0  0  0  0  0  0  0  0  0  0  0
  141.8770   77.6860  219.9040 C   0  0  0  0  0  0  0  0  0  0  0  0
  142.2170   78.0700  218.6240 C   0  0  0  0  0  0  0  0  0  0  0  0
  142.5910   77.1420  217.6750 C   0  0  0  0  0  0  0  0  0  0  0  0
  142.6250   75.8080  218.0140 C   0  0  0  0  0  0  0  0  0  0  0  0
  142.2800   75.4170  219.3120 C   0  0  0  0  0  0  0  0  0  0  0  0
  142.2570   74.0420  219.8560 C   0  0  1  0  0  0  0  0  0  0  0  0
  143.6710   73.5840  219.9790 C   0  0  0  0  0  0  0  0  0  0  0  0
  144.4250   73.7660  221.1170 C   0  0  0  0  0  0  0  0  0  0  0  0
  145.7290   73.3160  221.1630 C   0  0  0  0  0  0  0  0  0  0  0  0
  146.3250   72.6740  220.0920 C   0  0  0  0  0  0  0  0  0  0  0  0
  145.5710   72.5050  218.9860 N   0  0  0  0  0  0  0  0  0  0  0  0
  144.2840   72.9420  218.9220 C   0  0  0  0  0  0  0  0  0  0  0  0
  138.7900   76.1270  222.7110 C   0  0  0  0  0  0  0  0  0  0  0  0
  138.7070   77.5940  223.0450 C   0  0  0  0  0  0  0  0  0  0  0  0
  136.9866   80.4996  225.2454 H   0  0  0  0  0  0  0  0  0  0  0  0
  138.7144   80.3496  224.7778 H   0  0  0  0  0  0  0  0  0  0  0  0
  137.9206   81.9609  224.7778 H   0  0  0  0  0  0  0  0  0  0  0  0
  136.8662   79.7151  223.0447 H   0  0  0  0  0  0  0  0  0  0  0  0
  136.6854   81.4974  222.8523 H   0  0  0  0  0  0  0  0  0  0  0  0
  140.0870   81.8430  224.0213 H   0  0  0  0  0  0  0  0  0  0  0  0
  142.3137   82.4956  224.9007 H   0  0  0  0  0  0  0  0  0  0  0  0
  144.3389   81.1846  224.2606 H   0  0  0  0  0  0  0  0  0  0  0  0
  144.1094   79.2336  222.7568 H   0  0  0  0  0  0  0  0  0  0  0  0
  141.8848   78.5634  221.8716 H   0  0  0  0  0  0  0  0  0  0  0  0
  140.3360   77.9407  221.7007 H   0  0  0  0  0  0  0  0  0  0  0  0
  137.7684   79.1107  220.6725 H   0  0  0  0  0  0  0  0  0  0  0  0
  139.1839   78.4544  219.7872 H   0  0  0  0  0  0  0  0  0  0  0  0
  136.8526   77.0156  221.0484 H   0  0  0  0  0  0  0  0  0  0  0  0
  137.7395   76.6586  219.5282 H   0  0  0  0  0  0  0  0  0  0  0  0
  140.0124   73.0820  220.2200 H   0  0  0  0  0  0  0  0  0  0  0  0
  139.0990   72.4390  222.2010 H   0  0  0  0  0  0  0  0  0  0  0  0
  138.9140   74.0080  222.7160 H   0  0  0  0  0  0  0  0  0  0  0  0
  142.0217   73.5427  221.9124 H   0  0  0  0  0  0  0  0  0  0  0  0
  140.6367   75.9943  221.9179 H   0  0  0  0  0  0  0  0  0  0  0  0
  142.3551   75.8691  222.2947 H   0  0  0  0  0  0  0  0  0  0  0  0
  141.5806   78.4414  220.6467 H   0  0  0  0  0  0  0  0  0  0  0  0
  142.1894   79.1362  218.3549 H   0  0  0  0  0  0  0  0  0  0  0  0
  142.8593   77.4641  216.6580 H   0  0  0  0  0  0  0  0  0  0  0  0
  142.9215   75.0548  217.2692 H   0  0  0  0  0  0  0  0  0  0  0  0
  141.7453   73.2869  219.2412 H   0  0  0  0  0  0  0  0  0  0  0  0
  143.9872   74.2709  221.9908 H   0  0  0  0  0  0  0  0  0  0  0  0
  146.3137   73.4729  222.0814 H   0  0  0  0  0  0  0  0  0  0  0  0
  147.3647   72.3181  220.1400 H   0  0  0  0  0  0  0  0  0  0  0  0
  143.7126   72.7781  217.9964 H   0  0  0  0  0  0  0  0  0  0  0  0
  137.9807   75.5852  223.2224 H   0  0  0  0  0  0  0  0  0  0  0  0
  139.7579   75.7229  223.0423 H   0  0  0  0  0  0  0  0  0  0  0  0
  137.6523   77.8916  223.1402 H   0  0  0  0  0  0  0  0  0  0  0  0
  139.2239   77.7887  223.9962 H   0  0  0  0  0  0  0  0  0  0  0  0
  1  2  1  0
  2  3  1  0
  3  4  2  0
  3  5  1  0
  5  6  1  0
  6  7  2  0
  7  8  1  0
  8  9  2  0
  9 10  1  0
 10 11  2  0
  5 12  1  0
 12 13  1  0
 13 14  1  0
 14 15  1  0
 15 16  1  0
 16 17  2  0
 16 18  1  0
 18 19  1  0
 18 20  1  0
 20 21  1  0
 21 22  1  0
 22 23  2  0
 23 24  1  0
 24 25  2  0
 25 26  1  0
 26 27  2  0
 27 28  1  0
 28 29  1  0
 29 30  2  0
 30 31  1  0
 31 32  2  0
 32 33  1  0
 33 34  2  0
 15 35  1  0
 35 36  1  0
 11  6  1  0
 36 12  1  0
 28 20  1  0
 34 29  1  0
 27 22  1  0
  1 37  1  0
  1 38  1  0
  1 39  1  0
  2 40  1  0
  2 41  1  0
  7 42  1  0
  8 43  1  0
  9 44  1  0
 10 45  1  0
 11 46  1  0
 12 47  1  0
 13 48  1  0
 13 49  1  0
 14 50  1  0
 14 51  1  0
 18 52  1  6
 19 53  1  0
 19 54  1  0
 20 55  1  1
 21 56  1  0
 21 57  1  0
 23 58  1  0
 24 59  1  0
 25 60  1  0
 26 61  1  0
 28 62  1  6
 30 63  1  0
 31 64  1  0
 32 65  1  0
 34 66  1  0
 35 67  1  0
 35 68  1  0
 36 69  1  0
 36 70  1  0
M  END
>  <smiles>  (104) 
CCC(=O)N(c1ccccc1)C1CCN(C(=O)[C@H](N)C2Cc3ccccc3C2c2cccnc2)CC1

>  <score_type>  (104) 
oracle

>  <origin>  (104) 
autodockgpu

>  <m_score__min__energy>  (104) 
-9.0999999999999996

>  <m_primary>  (104) 
energy

>  <rmsd>  (104) 
5.665560574389637

>  <m_score__min__rmsd>  (104) 
5.665560574389637

>  <meeko>  (104) 
{"free_energy": -8.22, "intermolecular_energy": -10.61, "internal_energy": -3.18, "cluster_size": 28, "cluster_id": 5, "rank_in_cluster": 2}

>  <energy>  (104) 
-8.75

>  <cluster_rmsd>  (104) 
0.87

>  <cluster>  (104) 
1

$$$$

     RDKit          3D

 70 74  0  0  0  0  0  0  0  0999 V2000
  137.7830   80.9070  224.9290 C   0  0  0  0  0  0  0  0  0  0  0  0
  137.1120   80.1600  223.8080 C   0  0  0  0  0  0  0  0  0  0  0  0
  137.9570   80.1990  222.5860 C   0  0  0  0  0  0  0  0  0  0  0  0
  137.5930   81.0110  221.6840 O   0  0  0  0  0  0  0  0  0  0  0  0
  139.1140   79.3670  222.4390 N   0  0  0  0  0  0  0  0  0  0  0  0
  140.3510   79.8940  222.9030 C   0  0  0  0  0  0  0  0  0  0  0  0
  140.6460   81.2420  222.9090 C   0  0  0  0  0  0  0  0  0  0  0  0
  141.8690   81.6890  223.3800 C   0  0  0  0  0  0  0  0  0  0  0  0
  142.8070   80.7770  223.8510 C   0  0  0  0  0  0  0  0  0  0  0  0
  142.5060   79.4310  223.8420 C   0  0  0  0  0  0  0  0  0  0  0  0
  141.2850   78.9690  223.3730 C   0  0  0  0  0  0  0  0  0  0  0  0
  138.9840   78.0630  221.8410 C   0  0  0  0  0  0  0  0  0  0  0  0
  138.3400   78.1070  220.4600 C   0  0  0  0  0  0  0  0  0  0  0  0
  137.7320   76.7430  220.1480 C   0  0  0  0  0  0  0  0  0  0  0  0
  138.4760   75.7070  220.8540 N   0  0  0  0  0  0  0  0  0  0  0  0
  139.2070   74.7840  220.0740 C   0  0  0  0  0  0  0  0  0  0  0  0
  139.1460   74.9470  218.8170 O   0  0  0  0  0  0  0  0  0  0  0  0
  140.0190   73.6710  220.5620 C   0  0  2  0  0  0  0  0  0  0  0  0
  139.4310   73.0860  221.7830 N   0  0  0  0  0  0  0  0  0  0  0  0
  141.4630   74.0150  220.8610 C   0  0  2  0  0  0  0  0  0  0  0  0
  141.4450   75.3810  221.5040 C   0  0  0  0  0  0  0  0  0  0  0  0
  141.7850   76.3170  220.4170 C   0  0  0  0  0  0  0  0  0  0  0  0
  141.7210   77.6950  220.3410 C   0  0  0  0  0  0  0  0  0  0  0  0
  142.1080   78.3360  219.1830 C   0  0  0  0  0  0  0  0  0  0  0  0
  142.5600   77.6260  218.0900 C   0  0  0  0  0  0  0  0  0  0  0  0
  142.6250   76.2520  218.1600 C   0  0  0  0  0  0  0  0  0  0  0  0
  142.2330   75.6010  219.3340 C   0  0  0  0  0  0  0  0  0  0  0  0
  142.2330   74.1450  219.5930 C   0  0  1  0  0  0  0  0  0  0  0  0
  143.6560   73.7080  219.6990 C   0  0  0  0  0  0  0  0  0  0  0  0
  144.4160   73.8910  220.8320 C   0  0  0  0  0  0  0  0  0  0  0  0
  145.7280   73.4610  220.8630 C   0  0  0  0  0  0  0  0  0  0  0  0
  146.3240   72.8390  219.7800 C   0  0  0  0  0  0  0  0  0  0  0  0
  145.5630   72.6690  218.6790 N   0  0  0  0  0  0  0  0  0  0  0  0
  144.2690   73.0870  218.6310 C   0  0  0  0  0  0  0  0  0  0  0  0
  138.4080   75.7190  222.2920 C   0  0  0  0  0  0  0  0  0  0  0  0
  138.2190   77.1390  222.7590 C   0  0  0  0  0  0  0  0  0  0  0  0
  137.4303   80.5143  225.8941 H   0  0  0  0  0  0  0  0  0  0  0  0
  138.8728   80.7762  224.8561 H   0  0  0  0  0  0  0  0  0  0  0  0
  137.5364   81.9765  224.8561 H   0  0  0  0  0  0  0  0  0  0  0  0
  136.9581   79.1135  224.1099 H   0  0  0  0  0  0  0  0  0  0  0  0
  136.1440   80.6346  223.5898 H   0  0  0  0  0  0  0  0  0  0  0  0
  139.9054   81.9656  222.5375 H   0  0  0  0  0  0  0  0  0  0  0  0
  142.0983   82.7648  223.3816 H   0  0  0  0  0  0  0  0  0  0  0  0
  143.7800   81.1257  224.2273 H   0  0  0  0  0  0  0  0  0  0  0  0
  143.2487   78.7098  224.2140 H   0  0  0  0  0  0  0  0  0  0  0  0
  141.0568   77.8929  223.3715 H   0  0  0  0  0  0  0  0  0  0  0  0
  140.0021   77.6716  221.6990 H   0  0  0  0  0  0  0  0  0  0  0  0
  137.5513   78.8736  220.4458 H   0  0  0  0  0  0  0  0  0  0  0  0
  139.1003   78.3549  219.7047 H   0  0  0  0  0  0  0  0  0  0  0  0
  136.6814   76.7266  220.4736 H   0  0  0  0  0  0  0  0  0  0  0  0
  137.7828   76.5577  219.0649 H   0  0  0  0  0  0  0  0  0  0  0  0
  140.0193   72.9549  219.7270 H   0  0  0  0  0  0  0  0  0  0  0  0
  139.4160   72.0430  221.7360 H   0  0  0  0  0  0  0  0  0  0  0  0
  138.4440   73.3820  221.8910 H   0  0  0  0  0  0  0  0  0  0  0  0
  141.9182   73.2386  221.4935 H   0  0  0  0  0  0  0  0  0  0  0  0
  140.4472   75.6047  221.9093 H   0  0  0  0  0  0  0  0  0  0  0  0
  142.1492   75.4513  222.3461 H   0  0  0  0  0  0  0  0  0  0  0  0
  141.3625   78.2790  221.2015 H   0  0  0  0  0  0  0  0  0  0  0  0
  142.0553   79.4335  219.1299 H   0  0  0  0  0  0  0  0  0  0  0  0
  142.8650   78.1513  217.1729 H   0  0  0  0  0  0  0  0  0  0  0  0
  142.9830   75.6703  217.2978 H   0  0  0  0  0  0  0  0  0  0  0  0
  141.7782   73.5152  218.8142 H   0  0  0  0  0  0  0  0  0  0  0  0
  143.9776   74.3805  221.7141 H   0  0  0  0  0  0  0  0  0  0  0  0
  146.3182   73.6180  221.7779 H   0  0  0  0  0  0  0  0  0  0  0  0
  147.3696   72.4990  219.8152 H   0  0  0  0  0  0  0  0  0  0  0  0
  143.6920   72.9240  217.7087 H   0  0  0  0  0  0  0  0  0  0  0  0
  137.5597   75.1040  222.6269 H   0  0  0  0  0  0  0  0  0  0  0  0
  139.3377   75.3085  222.7129 H   0  0  0  0  0  0  0  0  0  0  0  0
  137.1498   77.3964  222.7344 H   0  0  0  0  0  0  0  0  0  0  0  0
  138.5915   77.2450  223.7886 H   0  0  0  0  0  0  0  0  0  0  0  0
  1  2  1  0
  2  3  1  0
  3  4  2  0
  3  5  1  0
  5  6  1  0
  6  7  2  0
  7  8  1  0
  8  9  2  0
  9 10  1  0
 10 11  2  0
  5 12  1  0
 12 13  1  0
 13 14  1  0
 14 15  1  0
 15 16  1  0
 16 17  2  0
 16 18  1  0
 18 19  1  0
 18 20  1  0
 20 21  1  0
 21 22  1  0
 22 23  2  0
 23 24  1  0
 24 25  2  0
 25 26  1  0
 26 27  2  0
 27 28  1  0
 28 29  1  0
 29 30  2  0
 30 31  1  0
 31 32  2  0
 32 33  1  0
 33 34  2  0
 15 35  1  0
 35 36  1  0
 11  6  1  0
 36 12  1  0
 28 20  1  0
 34 29  1  0
 27 22  1  0
  1 37  1  0
  1 38  1  0
  1 39  1  0
  2 40  1  0
  2 41  1  0
  7 42  1  0
  8 43  1  0
  9 44  1  0
 10 45  1  0
 11 46  1  0
 12 47  1  0
 13 48  1  0
 13 49  1  0
 14 50  1  0
 14 51  1  0
 18 52  1  6
 19 53  1  0
 19 54  1  0
 20 55  1  1
 21 56  1  0
 21 57  1  0
 23 58  1  0
 24 59  1  0
 25 60  1  0
 26 61  1  0
 28 62  1  6
 30 63  1  0
 31 64  1  0
 32 65  1  0
 34 66  1  0
 35 67  1  0
 35 68  1  0
 36 69  1  0
 36 70  1  0
M  END
>  <smiles>  (105) 
CCC(=O)N(c1ccccc1)C1CCN(C(=O)[C@H](N)C2Cc3ccccc3C2c2cccnc2)CC1

>  <score_type>  (105) 
oracle

>  <origin>  (105) 
autodockgpu

>  <m_score__min__energy>  (105) 
-9.0999999999999996

>  <m_primary>  (105) 
energy

>  <rmsd>  (105) 
5.641325090464393

>  <m_score__min__rmsd>  (105) 
5.641325090464393

>  <meeko>  (105) 
{"free_energy": -7.65, "intermolecular_energy": -10.04, "internal_energy": -3.4, "cluster_size": 28, "cluster_id": 5, "rank_in_cluster": 26}

>  <energy>  (105) 
-8.73

>  <cluster_rmsd>  (105) 
0.76

>  <cluster>  (105) 
1

$$$$

     RDKit          3D

 70 74  0  0  0  0  0  0  0  0999 V2000
  137.7850   80.8670  224.4770 C   0  0  0  0  0  0  0  0  0  0  0  0
  137.3800   80.7430  223.0320 C   0  0  0  0  0  0  0  0  0  0  0  0
  138.5830   80.7340  222.1600 C   0  0  0  0  0  0  0  0  0  0  0  0
  138.6440   81.6510  221.2880 O   0  0  0  0  0  0  0  0  0  0  0  0
  139.6110   79.7460  222.2980 N   0  0  0  0  0  0  0  0  0  0  0  0
  140.8520   80.1780  222.8410 C   0  0  0  0  0  0  0  0  0  0  0  0
  140.9750   81.2660  223.6810 C   0  0  0  0  0  0  0  0  0  0  0  0
  142.2140   81.6300  224.1790 C   0  0  0  0  0  0  0  0  0  0  0  0
  143.3440   80.8980  223.8310 C   0  0  0  0  0  0  0  0  0  0  0  0
  143.2150   79.8120  222.9910 C   0  0  0  0  0  0  0  0  0  0  0  0
  141.9810   79.4360  222.4850 C   0  0  0  0  0  0  0  0  0  0  0  0
  139.3550   78.3880  221.8920 C   0  0  0  0  0  0  0  0  0  0  0  0
  138.5110   78.2990  220.6260 C   0  0  0  0  0  0  0  0  0  0  0  0
  137.8240   76.9380  220.5760 C   0  0  0  0  0  0  0  0  0  0  0  0
  138.6360   75.9590  221.2880 N   0  0  0  0  0  0  0  0  0  0  0  0
  139.2140   74.9170  220.5300 C   0  0  0  0  0  0  0  0  0  0  0  0
  138.9680   74.9340  219.2850 O   0  0  0  0  0  0  0  0  0  0  0  0
  140.0580   73.8330  221.0270 C   0  0  2  0  0  0  0  0  0  0  0  0
  139.5770   73.3480  222.3360 N   0  0  0  0  0  0  0  0  0  0  0  0
  141.5250   74.1780  221.1720 C   0  0  2  0  0  0  0  0  0  0  0  0
  141.5780   75.6440  221.5280 C   0  0  0  0  0  0  0  0  0  0  0  0
  141.8740   76.3330  220.2570 C   0  0  0  0  0  0  0  0  0  0  0  0
  141.8380   77.6700  219.9110 C   0  0  0  0  0  0  0  0  0  0  0  0
  142.1680   78.0530  218.6280 C   0  0  0  0  0  0  0  0  0  0  0  0
  142.5370   77.1250  217.6770 C   0  0  0  0  0  0  0  0  0  0  0  0
  142.5740   75.7910  218.0170 C   0  0  0  0  0  0  0  0  0  0  0  0
  142.2390   75.4010  219.3180 C   0  0  0  0  0  0  0  0  0  0  0  0
  142.2200   74.0260  219.8630 C   0  0  1  0  0  0  0  0  0  0  0  0
  143.6360   73.5700  219.9770 C   0  0  0  0  0  0  0  0  0  0  0  0
  144.4050   73.7730  221.1010 C   0  0  0  0  0  0  0  0  0  0  0  0
  145.7090   73.3230  221.1390 C   0  0  0  0  0  0  0  0  0  0  0  0
  146.2910   72.6600  220.0730 C   0  0  0  0  0  0  0  0  0  0  0  0
  145.5220   72.4700  218.9810 N   0  0  0  0  0  0  0  0  0  0  0  0
  144.2340   72.9070  218.9250 C   0  0  0  0  0  0  0  0  0  0  0  0
  138.7870   76.1430  222.7090 C   0  0  0  0  0  0  0  0  0  0  0  0
  138.7120   77.6150  223.0190 C   0  0  0  0  0  0  0  0  0  0  0  0
  136.9320   80.6058  225.1206 H   0  0  0  0  0  0  0  0  0  0  0  0
  138.6224   80.1841  224.6830 H   0  0  0  0  0  0  0  0  0  0  0  0
  138.0965   81.9017  224.6830 H   0  0  0  0  0  0  0  0  0  0  0  0
  136.8218   79.8058  222.8904 H   0  0  0  0  0  0  0  0  0  0  0  0
  136.7478   81.6017  222.7619 H   0  0  0  0  0  0  0  0  0  0  0  0
  140.0828   81.8475  223.9565 H   0  0  0  0  0  0  0  0  0  0  0  0
  142.3048   82.4974  224.8494 H   0  0  0  0  0  0  0  0  0  0  0  0
  144.3319   81.1827  224.2222 H   0  0  0  0  0  0  0  0  0  0  0  0
  144.1092   79.2328  222.7173 H   0  0  0  0  0  0  0  0  0  0  0  0
  141.8919   78.5684  221.8147 H   0  0  0  0  0  0  0  0  0  0  0  0
  140.3285   77.9355  221.6522 H   0  0  0  0  0  0  0  0  0  0  0  0
  137.7514   79.0945  220.6336 H   0  0  0  0  0  0  0  0  0  0  0  0
  139.1554   78.4204  219.7429 H   0  0  0  0  0  0  0  0  0  0  0  0
  136.8343   77.0089  221.0509 H   0  0  0  0  0  0  0  0  0  0  0  0
  137.7056   76.6246  219.5283 H   0  0  0  0  0  0  0  0  0  0  0  0
  139.9788   73.0577  220.2507 H   0  0  0  0  0  0  0  0  0  0  0  0
  138.8140   73.9550  222.7100 H   0  0  0  0  0  0  0  0  0  0  0  0
  140.3370   73.3790  223.0390 H   0  0  0  0  0  0  0  0  0  0  0  0
  141.9992   73.5273  221.9214 H   0  0  0  0  0  0  0  0  0  0  0  0
  140.6120   75.9788  221.9339 H   0  0  0  0  0  0  0  0  0  0  0  0
  142.3331   75.8557  222.2994 H   0  0  0  0  0  0  0  0  0  0  0  0
  141.5474   78.4257  220.6556 H   0  0  0  0  0  0  0  0  0  0  0  0
  142.1363   79.1189  218.3581 H   0  0  0  0  0  0  0  0  0  0  0  0
  142.7989   77.4467  216.6582 H   0  0  0  0  0  0  0  0  0  0  0  0
  142.8650   75.0372  217.2706 H   0  0  0  0  0  0  0  0  0  0  0  0
  141.7043   73.2703  219.2524 H   0  0  0  0  0  0  0  0  0  0  0  0
  143.9790   74.2950  221.9705 H   0  0  0  0  0  0  0  0  0  0  0  0
  146.3055   73.4971  222.0467 H   0  0  0  0  0  0  0  0  0  0  0  0
  147.3313   72.3048  220.1140 H   0  0  0  0  0  0  0  0  0  0  0  0
  143.6504   72.7255  218.0104 H   0  0  0  0  0  0  0  0  0  0  0  0
  137.9817   75.6124  223.2380 H   0  0  0  0  0  0  0  0  0  0  0  0
  139.7572   75.7412  223.0367 H   0  0  0  0  0  0  0  0  0  0  0  0
  137.6593   77.9175  223.1201 H   0  0  0  0  0  0  0  0  0  0  0  0
  139.2396   77.8238  223.9614 H   0  0  0  0  0  0  0  0  0  0  0  0
  1  2  1  0
  2  3  1  0
  3  4  2  0
  3  5  1  0
  5  6  1  0
  6  7  2  0
  7  8  1  0
  8  9  2  0
  9 10  1  0
 10 11  2  0
  5 12  1  0
 12 13  1  0
 13 14  1  0
 14 15  1  0
 15 16  1  0
 16 17  2  0
 16 18  1  0
 18 19  1  0
 18 20  1  0
 20 21  1  0
 21 22  1  0
 22 23  2  0
 23 24  1  0
 24 25  2  0
 25 26  1  0
 26 27  2  0
 27 28  1  0
 28 29  1  0
 29 30  2  0
 30 31  1  0
 31 32  2  0
 32 33  1  0
 33 34  2  0
 15 35  1  0
 35 36  1  0
 11  6  1  0
 36 12  1  0
 28 20  1  0
 34 29  1  0
 27 22  1  0
  1 37  1  0
  1 38  1  0
  1 39  1  0
  2 40  1  0
  2 41  1  0
  7 42  1  0
  8 43  1  0
  9 44  1  0
 10 45  1  0
 11 46  1  0
 12 47  1  0
 13 48  1  0
 13 49  1  0
 14 50  1  0
 14 51  1  0
 18 52  1  6
 19 53  1  0
 19 54  1  0
 20 55  1  1
 21 56  1  0
 21 57  1  0
 23 58  1  0
 24 59  1  0
 25 60  1  0
 26 61  1  0
 28 62  1  6
 30 63  1  0
 31 64  1  0
 32 65  1  0
 34 66  1  0
 35 67  1  0
 35 68  1  0
 36 69  1  0
 36 70  1  0
M  END
>  <smiles>  (106) 
CCC(=O)N(c1ccccc1)C1CCN(C(=O)[C@H](N)C2Cc3ccccc3C2c2cccnc2)CC1

>  <score_type>  (106) 
oracle

>  <origin>  (106) 
autodockgpu

>  <m_score__min__energy>  (106) 
-9.0999999999999996

>  <m_primary>  (106) 
energy

>  <rmsd>  (106) 
5.6667257748700886

>  <m_score__min__rmsd>  (106) 
5.6667257748700886

>  <meeko>  (106) 
{"free_energy": -8.23, "intermolecular_energy": -10.61, "internal_energy": -3.2, "cluster_size": 28, "cluster_id": 5, "rank_in_cluster": 1}

>  <energy>  (106) 
-8.7

>  <cluster_rmsd>  (106) 
0.67

>  <cluster>  (106) 
1

$$$$

     RDKit          3D

 70 74  0  0  0  0  0  0  0  0999 V2000
  134.8330   70.4500  224.7240 C   0  0  0  0  0  0  0  0  0  0  0  0
  135.8940   69.5930  225.3610 C   0  0  0  0  0  0  0  0  0  0  0  0
  136.9650   69.2830  224.3780 C   0  0  0  0  0  0  0  0  0  0  0  0
  136.6640   68.4480  223.4740 O   0  0  0  0  0  0  0  0  0  0  0  0
  138.2580   69.8950  224.4480 N   0  0  0  0  0  0  0  0  0  0  0  0
  139.1180   69.4660  225.4960 C   0  0  0  0  0  0  0  0  0  0  0  0
  139.8730   70.3310  226.2610 C   0  0  0  0  0  0  0  0  0  0  0  0
  140.6860   69.8460  227.2700 C   0  0  0  0  0  0  0  0  0  0  0  0
  140.7460   68.4790  227.5170 C   0  0  0  0  0  0  0  0  0  0  0  0
  139.9890   67.6190  226.7490 C   0  0  0  0  0  0  0  0  0  0  0  0
  139.1700   68.0900  225.7350 C   0  0  0  0  0  0  0  0  0  0  0  0
  138.6270   70.8970  223.4810 C   0  0  0  0  0  0  0  0  0  0  0  0
  137.4260   71.6450  222.9160 C   0  0  0  0  0  0  0  0  0  0  0  0
  137.7980   72.2410  221.5620 C   0  0  0  0  0  0  0  0  0  0  0  0
  139.2300   72.5120  221.5290 N   0  0  0  0  0  0  0  0  0  0  0  0
  139.6360   73.8620  221.4530 C   0  0  0  0  0  0  0  0  0  0  0  0
  138.7030   74.7220  221.4230 O   0  0  0  0  0  0  0  0  0  0  0  0
  141.0080   74.3660  221.4090 C   0  0  2  0  0  0  0  0  0  0  0  0
  141.0900   75.7200  221.9890 N   0  0  0  0  0  0  0  0  0  0  0  0
  141.6280   74.4140  220.0280 C   0  0  2  0  0  0  0  0  0  0  0  0
  142.1520   73.0250  219.7550 C   0  0  0  0  0  0  0  0  0  0  0  0
  143.5950   73.0990  220.0510 C   0  0  0  0  0  0  0  0  0  0  0  0
  144.5530   72.1130  220.1880 C   0  0  0  0  0  0  0  0  0  0  0  0
  145.8570   72.4610  220.4720 C   0  0  0  0  0  0  0  0  0  0  0  0
  146.2280   73.7810  220.6250 C   0  0  0  0  0  0  0  0  0  0  0  0
  145.2770   74.7670  220.4910 C   0  0  0  0  0  0  0  0  0  0  0  0
  143.9530   74.4150  220.2020 C   0  0  0  0  0  0  0  0  0  0  0  0
  142.8030   75.3280  220.0240 C   0  0  1  0  0  0  0  0  0  0  0  0
  143.0030   76.0550  218.7380 C   0  0  0  0  0  0  0  0  0  0  0  0
  143.5690   75.4750  217.6250 C   0  0  0  0  0  0  0  0  0  0  0  0
  143.7240   76.2060  216.4640 C   0  0  0  0  0  0  0  0  0  0  0  0
  143.3240   77.5270  216.3680 C   0  0  0  0  0  0  0  0  0  0  0  0
  142.7710   78.0780  217.4680 N   0  0  0  0  0  0  0  0  0  0  0  0
  142.6110   77.3730  218.6210 C   0  0  0  0  0  0  0  0  0  0  0  0
  140.1120   71.3740  221.5840 C   0  0  0  0  0  0  0  0  0  0  0  0
  139.4420   70.2770  222.3700 C   0  0  0  0  0  0  0  0  0  0  0  0
  134.2331   70.9345  225.5085 H   0  0  0  0  0  0  0  0  0  0  0  0
  135.3096   71.2196  224.0990 H   0  0  0  0  0  0  0  0  0  0  0  0
  134.1809   69.8222  224.0990 H   0  0  0  0  0  0  0  0  0  0  0  0
  136.3303   70.1309  226.2156 H   0  0  0  0  0  0  0  0  0  0  0  0
  135.4374   68.6520  225.7016 H   0  0  0  0  0  0  0  0  0  0  0  0
  139.8283   71.4129  226.0675 H   0  0  0  0  0  0  0  0  0  0  0  0
  141.2846   70.5415  227.8765 H   0  0  0  0  0  0  0  0  0  0  0  0
  141.3910   68.0871  228.3172 H   0  0  0  0  0  0  0  0  0  0  0  0
  140.0363   66.5377  226.9452 H   0  0  0  0  0  0  0  0  0  0  0  0
  138.5717   67.3934  225.1293 H   0  0  0  0  0  0  0  0  0  0  0  0
  139.2396   71.6429  224.0085 H   0  0  0  0  0  0  0  0  0  0  0  0
  136.5836   70.9485  222.7925 H   0  0  0  0  0  0  0  0  0  0  0  0
  137.1337   72.4499  223.6064 H   0  0  0  0  0  0  0  0  0  0  0  0
  137.5409   71.5285  220.7643 H   0  0  0  0  0  0  0  0  0  0  0  0
  137.2431   73.1783  221.4083 H   0  0  0  0  0  0  0  0  0  0  0  0
  141.5800   73.6351  221.9994 H   0  0  0  0  0  0  0  0  0  0  0  0
  141.8560   75.7850  222.6970 H   0  0  0  0  0  0  0  0  0  0  0  0
  140.2160   75.9560  222.4910 H   0  0  0  0  0  0  0  0  0  0  0  0
  140.8896   74.7572  219.2884 H   0  0  0  0  0  0  0  0  0  0  0  0
  141.6599   72.2902  220.4091 H   0  0  0  0  0  0  0  0  0  0  0  0
  141.9572   72.7047  218.7209 H   0  0  0  0  0  0  0  0  0  0  0  0
  144.2768   71.0547  220.0711 H   0  0  0  0  0  0  0  0  0  0  0  0
  146.6154   71.6714  220.5785 H   0  0  0  0  0  0  0  0  0  0  0  0
  147.2722   74.0425  220.8515 H   0  0  0  0  0  0  0  0  0  0  0  0
  145.5553   75.8245  220.6102 H   0  0  0  0  0  0  0  0  0  0  0  0
  142.6755   76.1026  220.7945 H   0  0  0  0  0  0  0  0  0  0  0  0
  143.8987   74.4262  217.6608 H   0  0  0  0  0  0  0  0  0  0  0  0
  144.1801   75.7227  215.5874 H   0  0  0  0  0  0  0  0  0  0  0  0
  143.4510   78.1010  215.4383 H   0  0  0  0  0  0  0  0  0  0  0  0
  142.1538   77.8705  219.4890 H   0  0  0  0  0  0  0  0  0  0  0  0
  140.3241   71.0212  220.5639 H   0  0  0  0  0  0  0  0  0  0  0  0
  141.0574   71.6574  222.0696 H   0  0  0  0  0  0  0  0  0  0  0  0
  138.7821   69.6982  221.7070 H   0  0  0  0  0  0  0  0  0  0  0  0
  140.2028   69.6065  222.7961 H   0  0  0  0  0  0  0  0  0  0  0  0
  1  2  1  0
  2  3  1  0
  3  4  2  0
  3  5  1  0
  5  6  1  0
  6  7  2  0
  7  8  1  0
  8  9  2  0
  9 10  1  0
 10 11  2  0
  5 12  1  0
 12 13  1  0
 13 14  1  0
 14 15  1  0
 15 16  1  0
 16 17  2  0
 16 18  1  0
 18 19  1  0
 18 20  1  0
 20 21  1  0
 21 22  1  0
 22 23  2  0
 23 24  1  0
 24 25  2  0
 25 26  1  0
 26 27  2  0
 27 28  1  0
 28 29  1  0
 29 30  2  0
 30 31  1  0
 31 32  2  0
 32 33  1  0
 33 34  2  0
 15 35  1  0
 35 36  1  0
 11  6  1  0
 36 12  1  0
 28 20  1  0
 34 29  1  0
 27 22  1  0
  1 37  1  0
  1 38  1  0
  1 39  1  0
  2 40  1  0
  2 41  1  0
  7 42  1  0
  8 43  1  0
  9 44  1  0
 10 45  1  0
 11 46  1  0
 12 47  1  0
 13 48  1  0
 13 49  1  0
 14 50  1  0
 14 51  1  0
 18 52  1  1
 19 53  1  0
 19 54  1  0
 20 55  1  6
 21 56  1  0
 21 57  1  0
 23 58  1  0
 24 59  1  0
 25 60  1  0
 26 61  1  0
 28 62  1  1
 30 63  1  0
 31 64  1  0
 32 65  1  0
 34 66  1  0
 35 67  1  0
 35 68  1  0
 36 69  1  0
 36 70  1  0
M  END
>  <smiles>  (107) 
CCC(=O)N(c1ccccc1)C1CCN(C(=O)[C@H](N)C2Cc3ccccc3C2c2cccnc2)CC1

>  <score_type>  (107) 
oracle

>  <origin>  (107) 
autodockgpu

>  <m_score__min__energy>  (107) 
-9.0999999999999996

>  <m_primary>  (107) 
energy

>  <rmsd>  (107) 
8.272748651348184

>  <m_score__min__rmsd>  (107) 
8.272748651348184

>  <meeko>  (107) 
{"free_energy": -8.37, "intermolecular_energy": -10.76, "internal_energy": -2.85, "cluster_size": 12, "cluster_id": 1, "rank_in_cluster": 12}

>  <energy>  (107) 
-8.66

>  <cluster_rmsd>  (107) 
0.72

>  <cluster>  (107) 
1

$$$$

     RDKit          3D

 70 74  0  0  0  0  0  0  0  0999 V2000
  146.3750   73.3830  221.7410 C   0  0  0  0  0  0  0  0  0  0  0  0
  145.3210   73.8320  220.7650 C   0  0  0  0  0  0  0  0  0  0  0  0
  145.2380   72.8830  219.6240 C   0  0  0  0  0  0  0  0  0  0  0  0
  146.3040   72.2570  219.3450 O   0  0  0  0  0  0  0  0  0  0  0  0
  144.0260   72.6890  218.8860 N   0  0  0  0  0  0  0  0  0  0  0  0
  143.5710   71.3500  218.7340 C   0  0  0  0  0  0  0  0  0  0  0  0
  143.9180   70.5480  217.6670 C   0  0  0  0  0  0  0  0  0  0  0  0
  143.4430   69.2500  217.5840 C   0  0  0  0  0  0  0  0  0  0  0  0
  142.6100   68.7500  218.5780 C   0  0  0  0  0  0  0  0  0  0  0  0
  142.2650   69.5580  219.6410 C   0  0  0  0  0  0  0  0  0  0  0  0
  142.7330   70.8590  219.7390 C   0  0  0  0  0  0  0  0  0  0  0  0
  143.3330   73.8280  218.3400 C   0  0  0  0  0  0  0  0  0  0  0  0
  141.9390   73.4840  217.8290 C   0  0  0  0  0  0  0  0  0  0  0  0
  141.5120   74.5250  216.7990 C   0  0  0  0  0  0  0  0  0  0  0  0
  142.1660   75.7940  217.0930 N   0  0  0  0  0  0  0  0  0  0  0  0
  141.3470   76.8720  217.4950 C   0  0  0  0  0  0  0  0  0  0  0  0
  140.1040   76.6290  217.5650 O   0  0  0  0  0  0  0  0  0  0  0  0
  141.7810   78.2250  217.8380 C   0  0  2  0  0  0  0  0  0  0  0  0
  142.8330   78.6910  216.9130 N   0  0  0  0  0  0  0  0  0  0  0  0
  142.2980   78.3930  219.2510 C   0  0  2  0  0  0  0  0  0  0  0  0
  142.9140   77.0690  219.6330 C   0  0  0  0  0  0  0  0  0  0  0  0
  141.8820   76.3880  220.4380 C   0  0  0  0  0  0  0  0  0  0  0  0
  141.7820   75.0850  220.8830 C   0  0  0  0  0  0  0  0  0  0  0  0
  140.6900   74.7000  221.6340 C   0  0  0  0  0  0  0  0  0  0  0  0
  139.6900   75.5960  221.9510 C   0  0  0  0  0  0  0  0  0  0  0  0
  139.7850   76.8960  221.5090 C   0  0  0  0  0  0  0  0  0  0  0  0
  140.8920   77.2870  220.7470 C   0  0  0  0  0  0  0  0  0  0  0  0
  141.1650   78.6280  220.1880 C   0  0  1  0  0  0  0  0  0  0  0  0
  141.4960   79.5310  221.3290 C   0  0  0  0  0  0  0  0  0  0  0  0
  142.1490   79.1010  222.4630 C   0  0  0  0  0  0  0  0  0  0  0  0
  142.4270   79.9900  223.4810 C   0  0  0  0  0  0  0  0  0  0  0  0
  142.0700   81.3260  223.4110 C   0  0  0  0  0  0  0  0  0  0  0  0
  141.4310   81.7270  222.2920 N   0  0  0  0  0  0  0  0  0  0  0  0
  141.1490   80.8650  221.2780 C   0  0  0  0  0  0  0  0  0  0  0  0
  143.5990   75.8380  216.9550 C   0  0  0  0  0  0  0  0  0  0  0  0
  144.1590   74.4710  217.2510 C   0  0  0  0  0  0  0  0  0  0  0  0
  146.0130   73.5372  222.7682 H   0  0  0  0  0  0  0  0  0  0  0  0
  146.5892   72.3155  221.5841 H   0  0  0  0  0  0  0  0  0  0  0  0
  147.2932   73.9681  221.5841 H   0  0  0  0  0  0  0  0  0  0  0  0
  144.3473   73.8723  221.2752 H   0  0  0  0  0  0  0  0  0  0  0  0
  145.5875   74.8287  220.3833 H   0  0  0  0  0  0  0  0  0  0  0  0
  144.5755   70.9415  216.8778 H   0  0  0  0  0  0  0  0  0  0  0  0
  143.7249   68.6146  216.7315 H   0  0  0  0  0  0  0  0  0  0  0  0
  142.2296   67.7197  218.5174 H   0  0  0  0  0  0  0  0  0  0  0  0
  141.6051   69.1620  220.4270 H   0  0  0  0  0  0  0  0  0  0  0  0
  142.4501   71.4933  220.5920 H   0  0  0  0  0  0  0  0  0  0  0  0
  143.1955   74.5453  219.1625 H   0  0  0  0  0  0  0  0  0  0  0  0
  141.9537   72.4883  217.3616 H   0  0  0  0  0  0  0  0  0  0  0  0
  141.2279   73.4807  218.6682 H   0  0  0  0  0  0  0  0  0  0  0  0
  141.8024   74.1868  215.7934 H   0  0  0  0  0  0  0  0  0  0  0  0
  140.4206   74.6561  216.8400 H   0  0  0  0  0  0  0  0  0  0  0  0
  140.8654   78.8284  217.7508 H   0  0  0  0  0  0  0  0  0  0  0  0
  143.7820   78.6070  217.3430 H   0  0  0  0  0  0  0  0  0  0  0  0
  142.7070   79.6950  216.6930 H   0  0  0  0  0  0  0  0  0  0  0  0
  143.0029   79.2359  219.3027 H   0  0  0  0  0  0  0  0  0  0  0  0
  143.1549   76.4809  218.7352 H   0  0  0  0  0  0  0  0  0  0  0  0
  143.8554   77.1951  220.1878 H   0  0  0  0  0  0  0  0  0  0  0  0
  142.5696   74.3565  220.6399 H   0  0  0  0  0  0  0  0  0  0  0  0
  140.6157   73.6605  221.9860 H   0  0  0  0  0  0  0  0  0  0  0  0
  138.8257   75.2748  222.5508 H   0  0  0  0  0  0  0  0  0  0  0  0
  138.9962   77.6228  221.7530 H   0  0  0  0  0  0  0  0  0  0  0  0
  140.3325   79.1077  219.6524 H   0  0  0  0  0  0  0  0  0  0  0  0
  142.4494   78.0470  222.5572 H   0  0  0  0  0  0  0  0  0  0  0  0
  142.9494   79.6253  224.3777 H   0  0  0  0  0  0  0  0  0  0  0  0
  142.2964   82.0268  224.2281 H   0  0  0  0  0  0  0  0  0  0  0  0
  140.6267   81.2446  220.3875 H   0  0  0  0  0  0  0  0  0  0  0  0
  143.8624   76.1307  215.9279 H   0  0  0  0  0  0  0  0  0  0  0  0
  144.0190   76.5733  217.6571 H   0  0  0  0  0  0  0  0  0  0  0  0
  144.1192   73.8513  216.3430 H   0  0  0  0  0  0  0  0  0  0  0  0
  145.2046   74.5605  217.5806 H   0  0  0  0  0  0  0  0  0  0  0  0
  1  2  1  0
  2  3  1  0
  3  4  2  0
  3  5  1  0
  5  6  1  0
  6  7  2  0
  7  8  1  0
  8  9  2  0
  9 10  1  0
 10 11  2  0
  5 12  1  0
 12 13  1  0
 13 14  1  0
 14 15  1  0
 15 16  1  0
 16 17  2  0
 16 18  1  0
 18 19  1  0
 18 20  1  0
 20 21  1  0
 21 22  1  0
 22 23  2  0
 23 24  1  0
 24 25  2  0
 25 26  1  0
 26 27  2  0
 27 28  1  0
 28 29  1  0
 29 30  2  0
 30 31  1  0
 31 32  2  0
 32 33  1  0
 33 34  2  0
 15 35  1  0
 35 36  1  0
 11  6  1  0
 36 12  1  0
 28 20  1  0
 34 29  1  0
 27 22  1  0
  1 37  1  0
  1 38  1  0
  1 39  1  0
  2 40  1  0
  2 41  1  0
  7 42  1  0
  8 43  1  0
  9 44  1  0
 10 45  1  0
 11 46  1  0
 12 47  1  0
 13 48  1  0
 13 49  1  0
 14 50  1  0
 14 51  1  0
 18 52  1  1
 19 53  1  0
 19 54  1  0
 20 55  1  6
 21 56  1  0
 21 57  1  0
 23 58  1  0
 24 59  1  0
 25 60  1  0
 26 61  1  0
 28 62  1  6
 30 63  1  0
 31 64  1  0
 32 65  1  0
 34 66  1  0
 35 67  1  0
 35 68  1  0
 36 69  1  0
 36 70  1  0
M  END
>  <smiles>  (108) 
CCC(=O)N(c1ccccc1)C1CCN(C(=O)[C@H](N)C2Cc3ccccc3C2c2cccnc2)CC1

>  <score_type>  (108) 
oracle

>  <origin>  (108) 
autodockgpu

>  <m_score__min__energy>  (108) 
-9.0999999999999996

>  <m_primary>  (108) 
energy

>  <rmsd>  (108) 
5.58820567176922

>  <m_score__min__rmsd>  (108) 
5.58820567176922

>  <meeko>  (108) 
{"free_energy": -7.45, "intermolecular_energy": -9.84, "internal_energy": -3.14, "cluster_size": 1, "cluster_id": 6, "rank_in_cluster": 1}

>  <energy>  (108) 
-8.61

>  <cluster_rmsd>  (108) 
0.81

>  <cluster>  (108) 
1

$$$$

     RDKit          3D

 70 74  0  0  0  0  0  0  0  0999 V2000
  138.7320   67.1280  222.3850 C   0  0  0  0  0  0  0  0  0  0  0  0
  139.0840   68.5890  222.3040 C   0  0  0  0  0  0  0  0  0  0  0  0
  138.4460   69.3340  223.4210 C   0  0  0  0  0  0  0  0  0  0  0  0
  137.3870   68.8260  223.8940 O   0  0  0  0  0  0  0  0  0  0  0  0
  138.9990   70.5540  223.9310 N   0  0  0  0  0  0  0  0  0  0  0  0
  139.7020   70.4770  225.1640 C   0  0  0  0  0  0  0  0  0  0  0  0
  140.4630   71.5100  225.6700 C   0  0  0  0  0  0  0  0  0  0  0  0
  141.1180   71.3710  226.8810 C   0  0  0  0  0  0  0  0  0  0  0  0
  141.0130   70.1820  227.5940 C   0  0  0  0  0  0  0  0  0  0  0  0
  140.2510   69.1520  227.0830 C   0  0  0  0  0  0  0  0  0  0  0  0
  139.5890   69.2770  225.8720 C   0  0  0  0  0  0  0  0  0  0  0  0
  138.8240   71.7790  223.1930 C   0  0  0  0  0  0  0  0  0  0  0  0
  137.5840   71.7650  222.3080 C   0  0  0  0  0  0  0  0  0  0  0  0
  137.7580   72.7820  221.1850 C   0  0  0  0  0  0  0  0  0  0  0  0
  138.6310   73.8590  221.6380 N   0  0  0  0  0  0  0  0  0  0  0  0
  138.0630   75.1450  221.7730 C   0  0  0  0  0  0  0  0  0  0  0  0
  136.8310   75.2410  221.4850 O   0  0  0  0  0  0  0  0  0  0  0  0
  138.7420   76.3630  222.2090 C   0  0  2  0  0  0  0  0  0  0  0  0
  137.9070   77.5520  221.9520 N   0  0  0  0  0  0  0  0  0  0  0  0
  140.0970   76.6020  221.5750 C   0  0  2  0  0  0  0  0  0  0  0  0
  141.0750   76.7430  222.7160 C   0  0  0  0  0  0  0  0  0  0  0  0
  141.2570   78.1970  222.8830 C   0  0  0  0  0  0  0  0  0  0  0  0
  141.8590   78.9360  223.8830 C   0  0  0  0  0  0  0  0  0  0  0  0
  141.8930   80.3120  223.7920 C   0  0  0  0  0  0  0  0  0  0  0  0
  141.3350   80.9710  222.7160 C   0  0  0  0  0  0  0  0  0  0  0  0
  140.7330   80.2400  221.7170 C   0  0  0  0  0  0  0  0  0  0  0  0
  140.6980   78.8440  221.8080 C   0  0  0  0  0  0  0  0  0  0  0  0
  140.1000   77.8980  220.8420 C   0  0  1  0  0  0  0  0  0  0  0  0
  140.9570   77.9030  219.6210 C   0  0  0  0  0  0  0  0  0  0  0  0
  142.2370   77.3970  219.5980 C   0  0  0  0  0  0  0  0  0  0  0  0
  142.9760   77.4320  218.4320 C   0  0  0  0  0  0  0  0  0  0  0  0
  142.4730   77.9660  217.2580 C   0  0  0  0  0  0  0  0  0  0  0  0
  141.2180   78.4570  217.3000 N   0  0  0  0  0  0  0  0  0  0  0  0
  140.4750   78.4310  218.4400 C   0  0  0  0  0  0  0  0  0  0  0  0
  140.0010   73.5150  221.9170 C   0  0  0  0  0  0  0  0  0  0  0  0
  140.0590   72.0820  222.3800 C   0  0  0  0  0  0  0  0  0  0  0  0
  138.6593   66.8263  223.4403 H   0  0  0  0  0  0  0  0  0  0  0  0
  137.7665   66.9553  221.8869 H   0  0  0  0  0  0  0  0  0  0  0  0
  139.5129   66.5345  221.8869 H   0  0  0  0  0  0  0  0  0  0  0  0
  140.1761   68.7036  222.3679 H   0  0  0  0  0  0  0  0  0  0  0  0
  138.7190   68.9935  221.3484 H   0  0  0  0  0  0  0  0  0  0  0  0
  140.5499   72.4510  225.1070 H   0  0  0  0  0  0  0  0  0  0  0  0
  141.7211   72.2003  227.2791 H   0  0  0  0  0  0  0  0  0  0  0  0
  141.5326   70.0638  228.5563 H   0  0  0  0  0  0  0  0  0  0  0  0
  140.1671   68.2121  227.6483 H   0  0  0  0  0  0  0  0  0  0  0  0
  138.9857   68.4472  225.4752 H   0  0  0  0  0  0  0  0  0  0  0  0
  138.6711   72.5798  223.9314 H   0  0  0  0  0  0  0  0  0  0  0  0
  137.4502   70.7614  221.8780 H   0  0  0  0  0  0  0  0  0  0  0  0
  136.6990   72.0243  222.9076 H   0  0  0  0  0  0  0  0  0  0  0  0
  138.2068   72.2893  220.3099 H   0  0  0  0  0  0  0  0  0  0  0  0
  136.7770   73.1958  220.9086 H   0  0  0  0  0  0  0  0  0  0  0  0
  138.9066   76.2060  223.2852 H   0  0  0  0  0  0  0  0  0  0  0  0
  137.8780   78.1840  222.7830 H   0  0  0  0  0  0  0  0  0  0  0  0
  136.9250   77.2760  221.7690 H   0  0  0  0  0  0  0  0  0  0  0  0
  140.3451   75.7839  220.8827 H   0  0  0  0  0  0  0  0  0  0  0  0
  140.6655   76.2964  223.6340 H   0  0  0  0  0  0  0  0  0  0  0  0
  142.0253   76.2276  222.5127 H   0  0  0  0  0  0  0  0  0  0  0  0
  142.3097   78.4289  224.7489 H   0  0  0  0  0  0  0  0  0  0  0  0
  142.3737   80.8944  224.5918 H   0  0  0  0  0  0  0  0  0  0  0  0
  141.3708   82.0688  222.6571 H   0  0  0  0  0  0  0  0  0  0  0  0
  140.2824   80.7499  220.8527 H   0  0  0  0  0  0  0  0  0  0  0  0
  139.0814   78.1349  220.5008 H   0  0  0  0  0  0  0  0  0  0  0  0
  142.6722   76.9638  220.5106 H   0  0  0  0  0  0  0  0  0  0  0  0
  143.9969   77.0225  218.4362 H   0  0  0  0  0  0  0  0  0  0  0  0
  143.0694   77.9887  216.3340 H   0  0  0  0  0  0  0  0  0  0  0  0
  139.4560   78.8447  218.4197 H   0  0  0  0  0  0  0  0  0  0  0  0
  140.6047   73.6333  221.0051 H   0  0  0  0  0  0  0  0  0  0  0  0
  140.3997   74.1765  222.7002 H   0  0  0  0  0  0  0  0  0  0  0  0
  140.0994   71.4136  221.5073 H   0  0  0  0  0  0  0  0  0  0  0  0
  140.9572   71.9259  222.9955 H   0  0  0  0  0  0  0  0  0  0  0  0
  1  2  1  0
  2  3  1  0
  3  4  2  0
  3  5  1  0
  5  6  1  0
  6  7  2  0
  7  8  1  0
  8  9  2  0
  9 10  1  0
 10 11  2  0
  5 12  1  0
 12 13  1  0
 13 14  1  0
 14 15  1  0
 15 16  1  0
 16 17  2  0
 16 18  1  0
 18 19  1  0
 18 20  1  0
 20 21  1  0
 21 22  1  0
 22 23  2  0
 23 24  1  0
 24 25  2  0
 25 26  1  0
 26 27  2  0
 27 28  1  0
 28 29  1  0
 29 30  2  0
 30 31  1  0
 31 32  2  0
 32 33  1  0
 33 34  2  0
 15 35  1  0
 35 36  1  0
 11  6  1  0
 36 12  1  0
 28 20  1  0
 34 29  1  0
 27 22  1  0
  1 37  1  0
  1 38  1  0
  1 39  1  0
  2 40  1  0
  2 41  1  0
  7 42  1  0
  8 43  1  0
  9 44  1  0
 10 45  1  0
 11 46  1  0
 12 47  1  0
 13 48  1  0
 13 49  1  0
 14 50  1  0
 14 51  1  0
 18 52  1  1
 19 53  1  0
 19 54  1  0
 20 55  1  6
 21 56  1  0
 21 57  1  0
 23 58  1  0
 24 59  1  0
 25 60  1  0
 26 61  1  0
 28 62  1  6
 30 63  1  0
 31 64  1  0
 32 65  1  0
 34 66  1  0
 35 67  1  0
 35 68  1  0
 36 69  1  0
 36 70  1  0
M  END
>  <smiles>  (109) 
CCC(=O)N(c1ccccc1)C1CCN(C(=O)[C@H](N)C2Cc3ccccc3C2c2cccnc2)CC1

>  <score_type>  (109) 
oracle

>  <origin>  (109) 
autodockgpu

>  <m_score__min__energy>  (109) 
-9.0999999999999996

>  <m_primary>  (109) 
energy

>  <rmsd>  (109) 
5.8111298044010935

>  <m_score__min__rmsd>  (109) 
5.8111298044010935

>  <meeko>  (109) 
{"free_energy": -8.0, "intermolecular_energy": -10.39, "internal_energy": -2.86, "cluster_size": 6, "cluster_id": 4, "rank_in_cluster": 6}

>  <energy>  (109) 
-8.57

>  <cluster_rmsd>  (109) 
0.72

>  <cluster>  (109) 
1

$$$$

     RDKit          3D

 70 74  0  0  0  0  0  0  0  0999 V2000
  137.6740   81.0750  224.8760 C   0  0  0  0  0  0  0  0  0  0  0  0
  137.0260   80.2090  223.8290 C   0  0  0  0  0  0  0  0  0  0  0  0
  137.8290   80.2270  222.5780 C   0  0  0  0  0  0  0  0  0  0  0  0
  137.4060   80.9900  221.6590 O   0  0  0  0  0  0  0  0  0  0  0  0
  139.0090   79.4300  222.4240 N   0  0  0  0  0  0  0  0  0  0  0  0
  140.2360   80.0050  222.8540 C   0  0  0  0  0  0  0  0  0  0  0  0
  140.5960   81.3100  222.5910 C   0  0  0  0  0  0  0  0  0  0  0  0
  141.8050   81.8090  223.0440 C   0  0  0  0  0  0  0  0  0  0  0  0
  142.6650   80.9910  223.7680 C   0  0  0  0  0  0  0  0  0  0  0  0
  142.3010   79.6860  224.0270 C   0  0  0  0  0  0  0  0  0  0  0  0
  141.0930   79.1740  223.5800 C   0  0  0  0  0  0  0  0  0  0  0  0
  138.9090   78.1110  221.8520 C   0  0  0  0  0  0  0  0  0  0  0  0
  138.2770   78.1140  220.4650 C   0  0  0  0  0  0  0  0  0  0  0  0
  137.6970   76.7330  220.1770 C   0  0  0  0  0  0  0  0  0  0  0  0
  138.4540   75.7260  220.9110 N   0  0  0  0  0  0  0  0  0  0  0  0
  139.2090   74.8010  220.1570 C   0  0  0  0  0  0  0  0  0  0  0  0
  139.1570   74.9370  218.8970 O   0  0  0  0  0  0  0  0  0  0  0  0
  140.0380   73.7140  220.6760 C   0  0  2  0  0  0  0  0  0  0  0  0
  139.4630   73.1600  221.9170 N   0  0  0  0  0  0  0  0  0  0  0  0
  141.4780   74.0860  220.9580 C   0  0  2  0  0  0  0  0  0  0  0  0
  141.4420   75.4540  221.5960 C   0  0  0  0  0  0  0  0  0  0  0  0
  141.7540   76.3920  220.5010 C   0  0  0  0  0  0  0  0  0  0  0  0
  141.6630   77.7680  220.4200 C   0  0  0  0  0  0  0  0  0  0  0  0
  142.0260   78.4110  219.2550 C   0  0  0  0  0  0  0  0  0  0  0  0
  142.4790   77.7050  218.1610 C   0  0  0  0  0  0  0  0  0  0  0  0
  142.5710   76.3330  218.2350 C   0  0  0  0  0  0  0  0  0  0  0  0
  142.2030   75.6790  219.4170 C   0  0  0  0  0  0  0  0  0  0  0  0
  142.2330   74.2250  219.6810 C   0  0  1  0  0  0  0  0  0  0  0  0
  143.6640   73.8150  219.7740 C   0  0  0  0  0  0  0  0  0  0  0  0
  144.4700   74.1310  220.8450 C   0  0  0  0  0  0  0  0  0  0  0  0
  145.7870   73.7190  220.8670 C   0  0  0  0  0  0  0  0  0  0  0  0
  146.3460   72.9830  219.8360 C   0  0  0  0  0  0  0  0  0  0  0  0
  145.5400   72.6830  218.7960 N   0  0  0  0  0  0  0  0  0  0  0  0
  144.2400   73.0810  218.7570 C   0  0  0  0  0  0  0  0  0  0  0  0
  138.3730   75.7670  222.3480 C   0  0  0  0  0  0  0  0  0  0  0  0
  138.1530   77.1930  222.7830 C   0  0  0  0  0  0  0  0  0  0  0  0
  137.3997   80.7084  225.8762 H   0  0  0  0  0  0  0  0  0  0  0  0
  138.7670   81.0366  224.7585 H   0  0  0  0  0  0  0  0  0  0  0  0
  137.3288   82.1128  224.7585 H   0  0  0  0  0  0  0  0  0  0  0  0
  136.9585   79.1765  224.2025 H   0  0  0  0  0  0  0  0  0  0  0  0
  136.0195   80.5977  223.6147 H   0  0  0  0  0  0  0  0  0  0  0  0
  139.9178   81.9588  222.0173 H   0  0  0  0  0  0  0  0  0  0  0  0
  142.0850   82.8513  222.8315 H   0  0  0  0  0  0  0  0  0  0  0  0
  143.6273   81.3811  224.1311 H   0  0  0  0  0  0  0  0  0  0  0  0
  142.9824   79.0393  224.5992 H   0  0  0  0  0  0  0  0  0  0  0  0
  140.8139   78.1316  223.7931 H   0  0  0  0  0  0  0  0  0  0  0  0
  139.9353   77.7356  221.7266 H   0  0  0  0  0  0  0  0  0  0  0  0
  137.4746   78.8655  220.4276 H   0  0  0  0  0  0  0  0  0  0  0  0
  139.0394   78.3599  219.7112 H   0  0  0  0  0  0  0  0  0  0  0  0
  136.6442   76.7039  220.4943 H   0  0  0  0  0  0  0  0  0  0  0  0
  137.7605   76.5259  219.0985 H   0  0  0  0  0  0  0  0  0  0  0  0
  140.0444   72.9724  219.8636 H   0  0  0  0  0  0  0  0  0  0  0  0
  138.4570   72.9070  221.7910 H   0  0  0  0  0  0  0  0  0  0  0  0
  139.4890   73.8630  222.6770 H   0  0  0  0  0  0  0  0  0  0  0  0
  141.9538   73.3205  221.5886 H   0  0  0  0  0  0  0  0  0  0  0  0
  140.4446   75.6614  222.0108 H   0  0  0  0  0  0  0  0  0  0  0  0
  142.1534   75.5405  222.4305 H   0  0  0  0  0  0  0  0  0  0  0  0
  141.3023   78.3489  221.2816 H   0  0  0  0  0  0  0  0  0  0  0  0
  141.9527   79.5071  219.1978 H   0  0  0  0  0  0  0  0  0  0  0  0
  142.7640   78.2321  217.2386 H   0  0  0  0  0  0  0  0  0  0  0  0
  142.9312   75.7548  217.3713 H   0  0  0  0  0  0  0  0  0  0  0  0
  141.7825   73.5837  218.9092 H   0  0  0  0  0  0  0  0  0  0  0  0
  144.0631   74.7132  221.6850 H   0  0  0  0  0  0  0  0  0  0  0  0
  146.4130   73.9840  221.7318 H   0  0  0  0  0  0  0  0  0  0  0  0
  147.3967   72.6584  219.8633 H   0  0  0  0  0  0  0  0  0  0  0  0
  143.6269   72.8086  217.8853 H   0  0  0  0  0  0  0  0  0  0  0  0
  137.5335   75.1431  222.6887 H   0  0  0  0  0  0  0  0  0  0  0  0
  139.3065   75.3833  222.7854 H   0  0  0  0  0  0  0  0  0  0  0  0
  137.0795   77.4296  222.7435 H   0  0  0  0  0  0  0  0  0  0  0  0
  138.5137   77.3280  223.8134 H   0  0  0  0  0  0  0  0  0  0  0  0
  1  2  1  0
  2  3  1  0
  3  4  2  0
  3  5  1  0
  5  6  1  0
  6  7  2  0
  7  8  1  0
  8  9  2  0
  9 10  1  0
 10 11  2  0
  5 12  1  0
 12 13  1  0
 13 14  1  0
 14 15  1  0
 15 16  1  0
 16 17  2  0
 16 18  1  0
 18 19  1  0
 18 20  1  0
 20 21  1  0
 21 22  1  0
 22 23  2  0
 23 24  1  0
 24 25  2  0
 25 26  1  0
 26 27  2  0
 27 28  1  0
 28 29  1  0
 29 30  2  0
 30 31  1  0
 31 32  2  0
 32 33  1  0
 33 34  2  0
 15 35  1  0
 35 36  1  0
 11  6  1  0
 36 12  1  0
 28 20  1  0
 34 29  1  0
 27 22  1  0
  1 37  1  0
  1 38  1  0
  1 39  1  0
  2 40  1  0
  2 41  1  0
  7 42  1  0
  8 43  1  0
  9 44  1  0
 10 45  1  0
 11 46  1  0
 12 47  1  0
 13 48  1  0
 13 49  1  0
 14 50  1  0
 14 51  1  0
 18 52  1  6
 19 53  1  0
 19 54  1  0
 20 55  1  1
 21 56  1  0
 21 57  1  0
 23 58  1  0
 24 59  1  0
 25 60  1  0
 26 61  1  0
 28 62  1  6
 30 63  1  0
 31 64  1  0
 32 65  1  0
 34 66  1  0
 35 67  1  0
 35 68  1  0
 36 69  1  0
 36 70  1  0
M  END
>  <smiles>  (110) 
CCC(=O)N(c1ccccc1)C1CCN(C(=O)[C@H](N)C2Cc3ccccc3C2c2cccnc2)CC1

>  <score_type>  (110) 
oracle

>  <origin>  (110) 
autodockgpu

>  <m_score__min__energy>  (110) 
-9.0999999999999996

>  <m_primary>  (110) 
energy

>  <rmsd>  (110) 
5.622969002779518

>  <m_score__min__rmsd>  (110) 
5.622969002779518

>  <meeko>  (110) 
{"free_energy": -7.99, "intermolecular_energy": -10.38, "internal_energy": -3.4, "cluster_size": 28, "cluster_id": 5, "rank_in_cluster": 10}

>  <energy>  (110) 
-8.56

>  <cluster_rmsd>  (110) 
0.88

>  <cluster>  (110) 
1

$$$$

     RDKit          3D

 70 74  0  0  0  0  0  0  0  0999 V2000
  138.1920   67.5410  222.2600 C   0  0  0  0  0  0  0  0  0  0  0  0
  139.1870   68.5570  222.7540 C   0  0  0  0  0  0  0  0  0  0  0  0
  138.6260   69.3060  223.9090 C   0  0  0  0  0  0  0  0  0  0  0  0
  137.6730   68.7430  224.5260 O   0  0  0  0  0  0  0  0  0  0  0  0
  139.1350   70.5870  224.3000 N   0  0  0  0  0  0  0  0  0  0  0  0
  139.7920   70.6620  225.5600 C   0  0  0  0  0  0  0  0  0  0  0  0
  139.6430   69.7160  226.5510 C   0  0  0  0  0  0  0  0  0  0  0  0
  140.3160   69.8480  227.7530 C   0  0  0  0  0  0  0  0  0  0  0  0
  141.1490   70.9410  227.9660 C   0  0  0  0  0  0  0  0  0  0  0  0
  141.2930   71.8850  226.9710 C   0  0  0  0  0  0  0  0  0  0  0  0
  140.6250   71.7650  225.7620 C   0  0  0  0  0  0  0  0  0  0  0  0
  138.9640   71.7190  223.4270 C   0  0  0  0  0  0  0  0  0  0  0  0
  137.7730   71.5680  222.4880 C   0  0  0  0  0  0  0  0  0  0  0  0
  137.9770   72.4640  221.2710 C   0  0  0  0  0  0  0  0  0  0  0  0
  138.7940   73.6120  221.6460 N   0  0  0  0  0  0  0  0  0  0  0  0
  138.1850   74.8850  221.6130 C   0  0  0  0  0  0  0  0  0  0  0  0
  136.9670   74.9090  221.2560 O   0  0  0  0  0  0  0  0  0  0  0  0
  138.8060   76.1660  221.9450 C   0  0  2  0  0  0  0  0  0  0  0  0
  138.0190   77.2900  221.4020 N   0  0  0  0  0  0  0  0  0  0  0  0
  140.2340   76.3270  221.4700 C   0  0  2  0  0  0  0  0  0  0  0  0
  141.0740   76.4960  222.7120 C   0  0  0  0  0  0  0  0  0  0  0  0
  141.2910   77.9500  222.8290 C   0  0  0  0  0  0  0  0  0  0  0  0
  141.7980   78.7210  223.8570 C   0  0  0  0  0  0  0  0  0  0  0  0
  141.8960   80.0880  223.7040 C   0  0  0  0  0  0  0  0  0  0  0  0
  141.4950   80.7070  222.5390 C   0  0  0  0  0  0  0  0  0  0  0  0
  140.9890   79.9440  221.5110 C   0  0  0  0  0  0  0  0  0  0  0  0
  140.8890   78.5560  221.6650 C   0  0  0  0  0  0  0  0  0  0  0  0
  140.3750   77.5810  220.6800 C   0  0  1  0  0  0  0  0  0  0  0  0
  141.3710   77.4940  219.5720 C   0  0  0  0  0  0  0  0  0  0  0  0
  141.3680   78.3440  218.4890 C   0  0  0  0  0  0  0  0  0  0  0  0
  142.3210   78.2090  217.4990 C   0  0  0  0  0  0  0  0  0  0  0  0
  143.3020   77.2340  217.5510 C   0  0  0  0  0  0  0  0  0  0  0  0
  143.2890   76.4110  218.6200 N   0  0  0  0  0  0  0  0  0  0  0  0
  142.3570   76.5300  219.6040 C   0  0  0  0  0  0  0  0  0  0  0  0
  140.1580   73.3470  222.0280 C   0  0  0  0  0  0  0  0  0  0  0  0
  140.2310   71.9740  222.6460 C   0  0  0  0  0  0  0  0  0  0  0  0
  137.7115   67.0504  223.1193 H   0  0  0  0  0  0  0  0  0  0  0  0
  137.4270   68.0435  221.6498 H   0  0  0  0  0  0  0  0  0  0  0  0
  138.7104   66.7867  221.6498 H   0  0  0  0  0  0  0  0  0  0  0  0
  140.1070   68.0419  223.0674 H   0  0  0  0  0  0  0  0  0  0  0  0
  139.4105   69.2646  221.9420 H   0  0  0  0  0  0  0  0  0  0  0  0
  138.9848   68.8503  226.3855 H   0  0  0  0  0  0  0  0  0  0  0  0
  140.1921   69.0889  228.5394 H   0  0  0  0  0  0  0  0  0  0  0  0
  141.6877   71.0515  228.9187 H   0  0  0  0  0  0  0  0  0  0  0  0
  141.9508   72.7503  227.1399 H   0  0  0  0  0  0  0  0  0  0  0  0
  140.7487   72.5246  224.9761 H   0  0  0  0  0  0  0  0  0  0  0  0
  138.7500   72.5882  224.0663 H   0  0  0  0  0  0  0  0  0  0  0  0
  137.6907   70.5201  222.1637 H   0  0  0  0  0  0  0  0  0  0  0  0
  136.8506   71.8600  223.0113 H   0  0  0  0  0  0  0  0  0  0  0  0
  138.4848   71.8956  220.4779 H   0  0  0  0  0  0  0  0  0  0  0  0
  137.0005   72.8124  220.9036 H   0  0  0  0  0  0  0  0  0  0  0  0
  138.8237   76.1760  223.0448 H   0  0  0  0  0  0  0  0  0  0  0  0
  136.9930   77.1170  221.4950 H   0  0  0  0  0  0  0  0  0  0  0  0
  138.1990   77.4050  220.3880 H   0  0  0  0  0  0  0  0  0  0  0  0
  140.5308   75.4654  220.8539 H   0  0  0  0  0  0  0  0  0  0  0  0
  140.5414   76.1120  223.5946 H   0  0  0  0  0  0  0  0  0  0  0  0
  142.0210   75.9399  222.6500 H   0  0  0  0  0  0  0  0  0  0  0  0
  142.1225   78.2461  224.7946 H   0  0  0  0  0  0  0  0  0  0  0  0
  142.3015   80.6957  224.5264 H   0  0  0  0  0  0  0  0  0  0  0  0
  141.5785   81.7986  222.4322 H   0  0  0  0  0  0  0  0  0  0  0  0
  140.6653   80.4218  220.5745 H   0  0  0  0  0  0  0  0  0  0  0  0
  139.4148   77.8324  220.2058 H   0  0  0  0  0  0  0  0  0  0  0  0
  140.6047   79.1324  218.4122 H   0  0  0  0  0  0  0  0  0  0  0  0
  142.2999   78.8981  216.6419 H   0  0  0  0  0  0  0  0  0  0  0  0
  144.0573   77.1347  216.7575 H   0  0  0  0  0  0  0  0  0  0  0  0
  142.3910   75.8333  220.4546 H   0  0  0  0  0  0  0  0  0  0  0  0
  140.8053   73.3875  221.1396 H   0  0  0  0  0  0  0  0  0  0  0  0
  140.4967   74.1018  222.7530 H   0  0  0  0  0  0  0  0  0  0  0  0
  140.3345   71.2179  221.8538 H   0  0  0  0  0  0  0  0  0  0  0  0
  141.1002   71.9142  223.3175 H   0  0  0  0  0  0  0  0  0  0  0  0
  1  2  1  0
  2  3  1  0
  3  4  2  0
  3  5  1  0
  5  6  1  0
  6  7  2  0
  7  8  1  0
  8  9  2  0
  9 10  1  0
 10 11  2  0
  5 12  1  0
 12 13  1  0
 13 14  1  0
 14 15  1  0
 15 16  1  0
 16 17  2  0
 16 18  1  0
 18 19  1  0
 18 20  1  0
 20 21  1  0
 21 22  1  0
 22 23  2  0
 23 24  1  0
 24 25  2  0
 25 26  1  0
 26 27  2  0
 27 28  1  0
 28 29  1  0
 29 30  2  0
 30 31  1  0
 31 32  2  0
 32 33  1  0
 33 34  2  0
 15 35  1  0
 35 36  1  0
 11  6  1  0
 36 12  1  0
 28 20  1  0
 34 29  1  0
 27 22  1  0
  1 37  1  0
  1 38  1  0
  1 39  1  0
  2 40  1  0
  2 41  1  0
  7 42  1  0
  8 43  1  0
  9 44  1  0
 10 45  1  0
 11 46  1  0
 12 47  1  0
 13 48  1  0
 13 49  1  0
 14 50  1  0
 14 51  1  0
 18 52  1  1
 19 53  1  0
 19 54  1  0
 20 55  1  6
 21 56  1  0
 21 57  1  0
 23 58  1  0
 24 59  1  0
 25 60  1  0
 26 61  1  0
 28 62  1  6
 30 63  1  0
 31 64  1  0
 32 65  1  0
 34 66  1  0
 35 67  1  0
 35 68  1  0
 36 69  1  0
 36 70  1  0
M  END
>  <smiles>  (111) 
CCC(=O)N(c1ccccc1)C1CCN(C(=O)[C@H](N)C2Cc3ccccc3C2c2cccnc2)CC1

>  <score_type>  (111) 
oracle

>  <origin>  (111) 
autodockgpu

>  <m_score__min__energy>  (111) 
-9.0999999999999996

>  <m_primary>  (111) 
energy

>  <rmsd>  (111) 
5.972123083576377

>  <m_score__min__rmsd>  (111) 
5.972123083576377

>  <meeko>  (111) 
{"free_energy": -8.12, "intermolecular_energy": -10.5, "internal_energy": -2.74, "cluster_size": 6, "cluster_id": 4, "rank_in_cluster": 5}

>  <energy>  (111) 
-8.55

>  <cluster_rmsd>  (111) 
0.68

>  <cluster>  (111) 
1

$$$$

     RDKit          3D

 70 74  0  0  0  0  0  0  0  0999 V2000
  135.3090   68.8400  222.7320 C   0  0  0  0  0  0  0  0  0  0  0  0
  136.7420   68.5280  223.0690 C   0  0  0  0  0  0  0  0  0  0  0  0
  137.1400   69.2280  224.3190 C   0  0  0  0  0  0  0  0  0  0  0  0
  136.3080   69.1770  225.2730 O   0  0  0  0  0  0  0  0  0  0  0  0
  138.3910   69.9170  224.4360 N   0  0  0  0  0  0  0  0  0  0  0  0
  139.2660   69.4930  225.4740 C   0  0  0  0  0  0  0  0  0  0  0  0
  139.3830   68.1800  225.8790 C   0  0  0  0  0  0  0  0  0  0  0  0
  140.2590   67.8350  226.8940 C   0  0  0  0  0  0  0  0  0  0  0  0
  141.0270   68.8160  227.5110 C   0  0  0  0  0  0  0  0  0  0  0  0
  140.9050   70.1280  227.1020 C   0  0  0  0  0  0  0  0  0  0  0  0
  140.0320   70.4880  226.0870 C   0  0  0  0  0  0  0  0  0  0  0  0
  138.7040   70.9850  223.5220 C   0  0  0  0  0  0  0  0  0  0  0  0
  137.4760   71.7830  223.1010 C   0  0  0  0  0  0  0  0  0  0  0  0
  137.7600   72.4760  221.7720 C   0  0  0  0  0  0  0  0  0  0  0  0
  139.1900   72.7370  221.6580 N   0  0  0  0  0  0  0  0  0  0  0  0
  139.6080   74.0860  221.6540 C   0  0  0  0  0  0  0  0  0  0  0  0
  138.6860   74.9530  221.7540 O   0  0  0  0  0  0  0  0  0  0  0  0
  140.9790   74.5810  221.5500 C   0  0  2  0  0  0  0  0  0  0  0  0
  141.0900   75.9450  222.1030 N   0  0  0  0  0  0  0  0  0  0  0  0
  141.5480   74.6010  220.1470 C   0  0  2  0  0  0  0  0  0  0  0  0
  142.0060   73.1920  219.8600 C   0  0  0  0  0  0  0  0  0  0  0  0
  143.4610   73.2100  220.1010 C   0  0  0  0  0  0  0  0  0  0  0  0
  144.3840   72.1870  220.2050 C   0  0  0  0  0  0  0  0  0  0  0  0
  145.7110   72.4840  220.4390 C   0  0  0  0  0  0  0  0  0  0  0  0
  146.1390   73.7890  220.5730 C   0  0  0  0  0  0  0  0  0  0  0  0
  145.2230   74.8110  220.4700 C   0  0  0  0  0  0  0  0  0  0  0  0
  143.8770   74.5120  220.2340 C   0  0  0  0  0  0  0  0  0  0  0  0
  142.7570   75.4680  220.0960 C   0  0  1  0  0  0  0  0  0  0  0  0
  142.9370   76.1840  218.7990 C   0  0  0  0  0  0  0  0  0  0  0  0
  142.6650   77.5240  218.6360 C   0  0  0  0  0  0  0  0  0  0  0  0
  142.8550   78.1260  217.4080 C   0  0  0  0  0  0  0  0  0  0  0  0
  143.3180   77.4240  216.3090 C   0  0  0  0  0  0  0  0  0  0  0  0
  143.5790   76.1130  216.4880 N   0  0  0  0  0  0  0  0  0  0  0  0
  143.3970   75.5030  217.6910 C   0  0  0  0  0  0  0  0  0  0  0  0
  140.0580   71.5920  221.5650 C   0  0  0  0  0  0  0  0  0  0  0  0
  139.4310   70.4440  222.3130 C   0  0  0  0  0  0  0  0  0  0  0  0
  134.7329   68.9654  223.6606 H   0  0  0  0  0  0  0  0  0  0  0  0
  135.2644   69.7689  222.1445 H   0  0  0  0  0  0  0  0  0  0  0  0
  134.8822   68.0137  222.1445 H   0  0  0  0  0  0  0  0  0  0  0  0
  136.8543   67.4427  223.2089 H   0  0  0  0  0  0  0  0  0  0  0  0
  137.3867   68.8694  222.2457 H   0  0  0  0  0  0  0  0  0  0  0  0
  138.7765   67.4019  225.3925 H   0  0  0  0  0  0  0  0  0  0  0  0
  140.3473   66.7857  227.2120 H   0  0  0  0  0  0  0  0  0  0  0  0
  141.7254   68.5486  228.3177 H   0  0  0  0  0  0  0  0  0  0  0  0
  141.5125   70.9038  227.5910 H   0  0  0  0  0  0  0  0  0  0  0  0
  139.9439   71.5377  225.7700 H   0  0  0  0  0  0  0  0  0  0  0  0
  139.3621   71.6844  224.0584 H   0  0  0  0  0  0  0  0  0  0  0  0
  136.6178   71.1045  222.9862 H   0  0  0  0  0  0  0  0  0  0  0  0
  137.2435   72.5360  223.8684 H   0  0  0  0  0  0  0  0  0  0  0  0
  137.4381   71.8276  220.9438 H   0  0  0  0  0  0  0  0  0  0  0  0
  137.2082   73.4266  221.7279 H   0  0  0  0  0  0  0  0  0  0  0  0
  141.5684   73.8569  222.1316 H   0  0  0  0  0  0  0  0  0  0  0  0
  141.9010   76.0260  222.7560 H   0  0  0  0  0  0  0  0  0  0  0  0
  140.2500   76.1830  222.6600 H   0  0  0  0  0  0  0  0  0  0  0  0
  140.7966   74.9711  219.4339 H   0  0  0  0  0  0  0  0  0  0  0  0
  141.5106   72.4788  220.5352 H   0  0  0  0  0  0  0  0  0  0  0  0
  141.7596   72.8769  218.8353 H   0  0  0  0  0  0  0  0  0  0  0  0
  144.0622   71.1402  220.1017 H   0  0  0  0  0  0  0  0  0  0  0  0
  146.4412   71.6654  220.5202 H   0  0  0  0  0  0  0  0  0  0  0  0
  147.2002   74.0099  220.7600 H   0  0  0  0  0  0  0  0  0  0  0  0
  145.5475   75.8570  220.5727 H   0  0  0  0  0  0  0  0  0  0  0  0
  142.6885   76.2482  220.8684 H   0  0  0  0  0  0  0  0  0  0  0  0
  142.2955   78.1162  219.4861 H   0  0  0  0  0  0  0  0  0  0  0  0
  142.6312   79.1976  217.2999 H   0  0  0  0  0  0  0  0  0  0  0  0
  143.4663   77.9126  215.3347 H   0  0  0  0  0  0  0  0  0  0  0  0
  143.6244   74.4307  217.7829 H   0  0  0  0  0  0  0  0  0  0  0  0
  140.1928   71.3153  220.5089 H   0  0  0  0  0  0  0  0  0  0  0  0
  141.0390   71.8308  222.0017 H   0  0  0  0  0  0  0  0  0  0  0  0
  138.7189   69.9214  221.6574 H   0  0  0  0  0  0  0  0  0  0  0  0
  140.2113   69.7378  222.6330 H   0  0  0  0  0  0  0  0  0  0  0  0
  1  2  1  0
  2  3  1  0
  3  4  2  0
  3  5  1  0
  5  6  1  0
  6  7  2  0
  7  8  1  0
  8  9  2  0
  9 10  1  0
 10 11  2  0
  5 12  1  0
 12 13  1  0
 13 14  1  0
 14 15  1  0
 15 16  1  0
 16 17  2  0
 16 18  1  0
 18 19  1  0
 18 20  1  0
 20 21  1  0
 21 22  1  0
 22 23  2  0
 23 24  1  0
 24 25  2  0
 25 26  1  0
 26 27  2  0
 27 28  1  0
 28 29  1  0
 29 30  2  0
 30 31  1  0
 31 32  2  0
 32 33  1  0
 33 34  2  0
 15 35  1  0
 35 36  1  0
 11  6  1  0
 36 12  1  0
 28 20  1  0
 34 29  1  0
 27 22  1  0
  1 37  1  0
  1 38  1  0
  1 39  1  0
  2 40  1  0
  2 41  1  0
  7 42  1  0
  8 43  1  0
  9 44  1  0
 10 45  1  0
 11 46  1  0
 12 47  1  0
 13 48  1  0
 13 49  1  0
 14 50  1  0
 14 51  1  0
 18 52  1  1
 19 53  1  0
 19 54  1  0
 20 55  1  6
 21 56  1  0
 21 57  1  0
 23 58  1  0
 24 59  1  0
 25 60  1  0
 26 61  1  0
 28 62  1  1
 30 63  1  0
 31 64  1  0
 32 65  1  0
 34 66  1  0
 35 67  1  0
 35 68  1  0
 36 69  1  0
 36 70  1  0
M  END
>  <smiles>  (112) 
CCC(=O)N(c1ccccc1)C1CCN(C(=O)[C@H](N)C2Cc3ccccc3C2c2cccnc2)CC1

>  <score_type>  (112) 
oracle

>  <origin>  (112) 
autodockgpu

>  <m_score__min__energy>  (112) 
-9.0999999999999996

>  <m_primary>  (112) 
energy

>  <rmsd>  (112) 
8.126925469653731

>  <m_score__min__rmsd>  (112) 
8.126925469653731

>  <meeko>  (112) 
{"free_energy": -8.56, "intermolecular_energy": -10.94, "internal_energy": -2.81, "cluster_size": 12, "cluster_id": 1, "rank_in_cluster": 10}

>  <energy>  (112) 
-8.37

>  <cluster_rmsd>  (112) 
0.71

>  <cluster>  (112) 
1

$$$$

     RDKit          3D

 70 74  0  0  0  0  0  0  0  0999 V2000
  138.8340   67.5220  222.0470 C   0  0  0  0  0  0  0  0  0  0  0  0
  139.3190   68.9280  222.2810 C   0  0  0  0  0  0  0  0  0  0  0  0
  138.9660   69.3720  223.6550 C   0  0  0  0  0  0  0  0  0  0  0  0
  138.3200   68.5390  224.3590 O   0  0  0  0  0  0  0  0  0  0  0  0
  139.3350   70.6640  224.1520 N   0  0  0  0  0  0  0  0  0  0  0  0
  139.9070   70.7160  225.4530 C   0  0  0  0  0  0  0  0  0  0  0  0
  139.6640   69.7700  226.4270 C   0  0  0  0  0  0  0  0  0  0  0  0
  140.2580   69.8770  227.6720 C   0  0  0  0  0  0  0  0  0  0  0  0
  141.1050   70.9450  227.9470 C   0  0  0  0  0  0  0  0  0  0  0  0
  141.3450   71.8880  226.9690 C   0  0  0  0  0  0  0  0  0  0  0  0
  140.7570   71.7930  225.7170 C   0  0  0  0  0  0  0  0  0  0  0  0
  139.1170   71.8310  223.3360 C   0  0  0  0  0  0  0  0  0  0  0  0
  137.9060   71.6950  222.4200 C   0  0  0  0  0  0  0  0  0  0  0  0
  138.0590   72.6500  221.2420 C   0  0  0  0  0  0  0  0  0  0  0  0
  138.8590   73.7990  221.6490 N   0  0  0  0  0  0  0  0  0  0  0  0
  138.2200   75.0570  221.6900 C   0  0  0  0  0  0  0  0  0  0  0  0
  136.9930   75.0680  221.3640 O   0  0  0  0  0  0  0  0  0  0  0  0
  138.8200   76.3360  222.0660 C   0  0  2  0  0  0  0  0  0  0  0  0
  137.9700   77.4630  221.6370 N   0  0  0  0  0  0  0  0  0  0  0  0
  140.2130   76.5730  221.5230 C   0  0  2  0  0  0  0  0  0  0  0  0
  141.1110   76.7360  222.7260 C   0  0  0  0  0  0  0  0  0  0  0  0
  141.2740   78.1930  222.8830 C   0  0  0  0  0  0  0  0  0  0  0  0
  141.8030   78.9500  223.9110 C   0  0  0  0  0  0  0  0  0  0  0  0
  141.8370   80.3240  223.8020 C   0  0  0  0  0  0  0  0  0  0  0  0
  141.3500   80.9640  222.6810 C   0  0  0  0  0  0  0  0  0  0  0  0
  140.8220   80.2150  221.6540 C   0  0  0  0  0  0  0  0  0  0  0  0
  140.7870   78.8210  221.7640 C   0  0  0  0  0  0  0  0  0  0  0  0
  140.2610   77.8580  220.7720 C   0  0  1  0  0  0  0  0  0  0  0  0
  141.1990   77.8500  219.6130 C   0  0  0  0  0  0  0  0  0  0  0  0
  141.2540   78.8640  218.6820 C   0  0  0  0  0  0  0  0  0  0  0  0
  142.1480   78.7940  217.6330 C   0  0  0  0  0  0  0  0  0  0  0  0
  143.0130   77.7250  217.4730 C   0  0  0  0  0  0  0  0  0  0  0  0
  142.9450   76.7430  218.3940 N   0  0  0  0  0  0  0  0  0  0  0  0
  142.0690   76.7940  219.4350 C   0  0  0  0  0  0  0  0  0  0  0  0
  140.2370   73.5490  221.9850 C   0  0  0  0  0  0  0  0  0  0  0  0
  140.3580   72.1520  222.5370 C   0  0  0  0  0  0  0  0  0  0  0  0
  138.6633   67.0272  223.0145 H   0  0  0  0  0  0  0  0  0  0  0  0
  137.8931   67.5487  221.4778 H   0  0  0  0  0  0  0  0  0  0  0  0
  139.5912   66.9629  221.4778 H   0  0  0  0  0  0  0  0  0  0  0  0
  140.4117   68.9604  222.1584 H   0  0  0  0  0  0  0  0  0  0  0  0
  138.8388   69.5986  221.5532 H   0  0  0  0  0  0  0  0  0  0  0  0
  138.9934   68.9248  226.2125 H   0  0  0  0  0  0  0  0  0  0  0  0
  140.0605   69.1181  228.4434 H   0  0  0  0  0  0  0  0  0  0  0  0
  141.5793   71.0371  228.9352 H   0  0  0  0  0  0  0  0  0  0  0  0
  142.0161   72.7319  227.1868 H   0  0  0  0  0  0  0  0  0  0  0  0
  140.9560   72.5516  224.9457 H   0  0  0  0  0  0  0  0  0  0  0  0
  138.9002   72.6648  224.0200 H   0  0  0  0  0  0  0  0  0  0  0  0
  137.8392   70.6614  222.0495 H   0  0  0  0  0  0  0  0  0  0  0  0
  136.9907   71.9406  222.9785 H   0  0  0  0  0  0  0  0  0  0  0  0
  138.5592   72.1306  220.4114 H   0  0  0  0  0  0  0  0  0  0  0  0
  137.0657   72.9918  220.9155 H   0  0  0  0  0  0  0  0  0  0  0  0
  138.9002   76.2809  223.1617 H   0  0  0  0  0  0  0  0  0  0  0  0
  137.3810   77.8170  222.4240 H   0  0  0  0  0  0  0  0  0  0  0  0
  137.3090   77.1620  220.8990 H   0  0  0  0  0  0  0  0  0  0  0  0
  140.5109   75.7460  220.8617 H   0  0  0  0  0  0  0  0  0  0  0  0
  140.6423   76.3004  223.6207 H   0  0  0  0  0  0  0  0  0  0  0  0
  142.0753   76.2231  222.5955 H   0  0  0  0  0  0  0  0  0  0  0  0
  142.1956   78.4580  224.8131 H   0  0  0  0  0  0  0  0  0  0  0  0
  142.2600   80.9207  224.6236 H   0  0  0  0  0  0  0  0  0  0  0  0
  141.3833   82.0611  222.6087 H   0  0  0  0  0  0  0  0  0  0  0  0
  140.4302   80.7093  220.7528 H   0  0  0  0  0  0  0  0  0  0  0  0
  139.2677   78.0846  220.3573 H   0  0  0  0  0  0  0  0  0  0  0  0
  140.5839   79.7313  218.7750 H   0  0  0  0  0  0  0  0  0  0  0  0
  142.1741   79.6141  216.9003 H   0  0  0  0  0  0  0  0  0  0  0  0
  143.7225   77.6791  216.6337 H   0  0  0  0  0  0  0  0  0  0  0  0
  142.0544   75.9655  220.1584 H   0  0  0  0  0  0  0  0  0  0  0  0
  140.8604   73.6454  221.0838 H   0  0  0  0  0  0  0  0  0  0  0  0
  140.5761   74.2777  222.7361 H   0  0  0  0  0  0  0  0  0  0  0  0
  140.4592   71.4354  221.7086 H   0  0  0  0  0  0  0  0  0  0  0  0
  141.2451   72.0830  223.1837 H   0  0  0  0  0  0  0  0  0  0  0  0
  1  2  1  0
  2  3  1  0
  3  4  2  0
  3  5  1  0
  5  6  1  0
  6  7  2  0
  7  8  1  0
  8  9  2  0
  9 10  1  0
 10 11  2  0
  5 12  1  0
 12 13  1  0
 13 14  1  0
 14 15  1  0
 15 16  1  0
 16 17  2  0
 16 18  1  0
 18 19  1  0
 18 20  1  0
 20 21  1  0
 21 22  1  0
 22 23  2  0
 23 24  1  0
 24 25  2  0
 25 26  1  0
 26 27  2  0
 27 28  1  0
 28 29  1  0
 29 30  2  0
 30 31  1  0
 31 32  2  0
 32 33  1  0
 33 34  2  0
 15 35  1  0
 35 36  1  0
 11  6  1  0
 36 12  1  0
 28 20  1  0
 34 29  1  0
 27 22  1  0
  1 37  1  0
  1 38  1  0
  1 39  1  0
  2 40  1  0
  2 41  1  0
  7 42  1  0
  8 43  1  0
  9 44  1  0
 10 45  1  0
 11 46  1  0
 12 47  1  0
 13 48  1  0
 13 49  1  0
 14 50  1  0
 14 51  1  0
 18 52  1  1
 19 53  1  0
 19 54  1  0
 20 55  1  6
 21 56  1  0
 21 57  1  0
 23 58  1  0
 24 59  1  0
 25 60  1  0
 26 61  1  0
 28 62  1  6
 30 63  1  0
 31 64  1  0
 32 65  1  0
 34 66  1  0
 35 67  1  0
 35 68  1  0
 36 69  1  0
 36 70  1  0
M  END
>  <smiles>  (113) 
CCC(=O)N(c1ccccc1)C1CCN(C(=O)[C@H](N)C2Cc3ccccc3C2c2cccnc2)CC1

>  <score_type>  (113) 
oracle

>  <origin>  (113) 
autodockgpu

>  <m_score__min__energy>  (113) 
-9.0999999999999996

>  <m_primary>  (113) 
energy

>  <rmsd>  (113) 
5.8118389465981

>  <m_score__min__rmsd>  (113) 
5.8118389465981

>  <meeko>  (113) 
{"free_energy": -8.39, "intermolecular_energy": -10.78, "internal_energy": -2.68, "cluster_size": 6, "cluster_id": 4, "rank_in_cluster": 1}

>  <energy>  (113) 
-9.08

>  <cluster_rmsd>  (113) 
0.0

>  <cluster>  (113) 
2

$$$$

     RDKit          3D

 70 74  0  0  0  0  0  0  0  0999 V2000
  138.6400   67.5350  221.9930 C   0  0  0  0  0  0  0  0  0  0  0  0
  139.2900   68.8620  222.2830 C   0  0  0  0  0  0  0  0  0  0  0  0
  138.8870   69.3490  223.6290 C   0  0  0  0  0  0  0  0  0  0  0  0
  138.1710   68.5590  224.3130 O   0  0  0  0  0  0  0  0  0  0  0  0
  139.2860   70.6340  224.1200 N   0  0  0  0  0  0  0  0  0  0  0  0
  139.8720   70.6760  225.4150 C   0  0  0  0  0  0  0  0  0  0  0  0
  139.6730   69.7010  226.3700 C   0  0  0  0  0  0  0  0  0  0  0  0
  140.2790   69.8010  227.6100 C   0  0  0  0  0  0  0  0  0  0  0  0
  141.0930   70.8900  227.8990 C   0  0  0  0  0  0  0  0  0  0  0  0
  141.2880   71.8630  226.9410 C   0  0  0  0  0  0  0  0  0  0  0  0
  140.6880   71.7760  225.6940 C   0  0  0  0  0  0  0  0  0  0  0  0
  139.0830   71.8040  223.3040 C   0  0  0  0  0  0  0  0  0  0  0  0
  137.8830   71.6740  222.3730 C   0  0  0  0  0  0  0  0  0  0  0  0
  138.0550   72.6330  221.1990 C   0  0  0  0  0  0  0  0  0  0  0  0
  138.8540   73.7770  221.6200 N   0  0  0  0  0  0  0  0  0  0  0  0
  138.2180   75.0380  221.6560 C   0  0  0  0  0  0  0  0  0  0  0  0
  136.9960   75.0540  221.3140 O   0  0  0  0  0  0  0  0  0  0  0  0
  138.8180   76.3130  222.0440 C   0  0  2  0  0  0  0  0  0  0  0  0
  137.9670   77.4440  221.6250 N   0  0  0  0  0  0  0  0  0  0  0  0
  140.2120   76.5560  221.5040 C   0  0  2  0  0  0  0  0  0  0  0  0
  141.1080   76.7090  222.7090 C   0  0  0  0  0  0  0  0  0  0  0  0
  141.2710   78.1660  222.8780 C   0  0  0  0  0  0  0  0  0  0  0  0
  141.7980   78.9140  223.9120 C   0  0  0  0  0  0  0  0  0  0  0  0
  141.8310   80.2890  223.8140 C   0  0  0  0  0  0  0  0  0  0  0  0
  141.3450   80.9380  222.6980 C   0  0  0  0  0  0  0  0  0  0  0  0
  140.8180   80.1970  221.6650 C   0  0  0  0  0  0  0  0  0  0  0  0
  140.7830   78.8020  221.7630 C   0  0  0  0  0  0  0  0  0  0  0  0
  140.2580   77.8470  220.7630 C   0  0  1  0  0  0  0  0  0  0  0  0
  141.1980   77.8490  219.6040 C   0  0  0  0  0  0  0  0  0  0  0  0
  141.2550   78.8730  218.6850 C   0  0  0  0  0  0  0  0  0  0  0  0
  142.1500   78.8120  217.6360 C   0  0  0  0  0  0  0  0  0  0  0  0
  143.0120   77.7430  217.4640 C   0  0  0  0  0  0  0  0  0  0  0  0
  142.9410   76.7510  218.3750 N   0  0  0  0  0  0  0  0  0  0  0  0
  142.0650   76.7930  219.4160 C   0  0  0  0  0  0  0  0  0  0  0  0
  140.2260   73.5220  221.9740 C   0  0  0  0  0  0  0  0  0  0  0  0
  140.3350   72.1230  222.5230 C   0  0  0  0  0  0  0  0  0  0  0  0
  138.3939   67.0325  222.9401 H   0  0  0  0  0  0  0  0  0  0  0  0
  137.7191   67.6966  221.4135 H   0  0  0  0  0  0  0  0  0  0  0  0
  139.3322   66.9065  221.4135 H   0  0  0  0  0  0  0  0  0  0  0  0
  140.3833   68.7455  222.2513 H   0  0  0  0  0  0  0  0  0  0  0  0
  138.9675   69.5922  221.5262 H   0  0  0  0  0  0  0  0  0  0  0  0
  139.0286   68.8385  226.1445 H   0  0  0  0  0  0  0  0  0  0  0  0
  140.1166   69.0192  228.3665 H   0  0  0  0  0  0  0  0  0  0  0  0
  141.5774   70.9751  228.8830 H   0  0  0  0  0  0  0  0  0  0  0  0
  141.9320   72.7247  227.1707 H   0  0  0  0  0  0  0  0  0  0  0  0
  140.8512   72.5583  224.9381 H   0  0  0  0  0  0  0  0  0  0  0  0
  138.8607   72.6375  223.9865 H   0  0  0  0  0  0  0  0  0  0  0  0
  137.8175   70.6417  221.9987 H   0  0  0  0  0  0  0  0  0  0  0  0
  136.9612   71.9203  222.9204 H   0  0  0  0  0  0  0  0  0  0  0  0
  138.5638   72.1143  220.3732 H   0  0  0  0  0  0  0  0  0  0  0  0
  137.0674   72.9798  220.8607 H   0  0  0  0  0  0  0  0  0  0  0  0
  138.8985   76.2474  223.1391 H   0  0  0  0  0  0  0  0  0  0  0  0
  137.5840   77.9580  222.4490 H   0  0  0  0  0  0  0  0  0  0  0  0
  137.1460   77.1050  221.0920 H   0  0  0  0  0  0  0  0  0  0  0  0
  140.5126   75.7353  220.8362 H   0  0  0  0  0  0  0  0  0  0  0  0
  140.6380   76.2662  223.5995 H   0  0  0  0  0  0  0  0  0  0  0  0
  142.0724   76.1970  222.5758 H   0  0  0  0  0  0  0  0  0  0  0  0
  142.1900   78.4150  224.8105 H   0  0  0  0  0  0  0  0  0  0  0  0
  142.2526   80.8792  224.6410 H   0  0  0  0  0  0  0  0  0  0  0  0
  141.3783   82.0357  222.6345 H   0  0  0  0  0  0  0  0  0  0  0  0
  140.4266   80.6986  220.7677 H   0  0  0  0  0  0  0  0  0  0  0  0
  139.2647   78.0759  220.3496 H   0  0  0  0  0  0  0  0  0  0  0  0
  140.5865   79.7406  218.7870 H   0  0  0  0  0  0  0  0  0  0  0  0
  142.1791   79.6404  216.9128 H   0  0  0  0  0  0  0  0  0  0  0  0
  143.7213   77.7043  216.6242 H   0  0  0  0  0  0  0  0  0  0  0  0
  142.0480   75.9571  220.1309 H   0  0  0  0  0  0  0  0  0  0  0  0
  140.8620   73.6194  221.0818 H   0  0  0  0  0  0  0  0  0  0  0  0
  140.5569   74.2473  222.7319 H   0  0  0  0  0  0  0  0  0  0  0  0
  140.4447   71.4087  221.6937 H   0  0  0  0  0  0  0  0  0  0  0  0
  141.2133   72.0488  223.1811 H   0  0  0  0  0  0  0  0  0  0  0  0
  1  2  1  0
  2  3  1  0
  3  4  2  0
  3  5  1  0
  5  6  1  0
  6  7  2  0
  7  8  1  0
  8  9  2  0
  9 10  1  0
 10 11  2  0
  5 12  1  0
 12 13  1  0
 13 14  1  0
 14 15  1  0
 15 16  1  0
 16 17  2  0
 16 18  1  0
 18 19  1  0
 18 20  1  0
 20 21  1  0
 21 22  1  0
 22 23  2  0
 23 24  1  0
 24 25  2  0
 25 26  1  0
 26 27  2  0
 27 28  1  0
 28 29  1  0
 29 30  2  0
 30 31  1  0
 31 32  2  0
 32 33  1  0
 33 34  2  0
 15 35  1  0
 35 36  1  0
 11  6  1  0
 36 12  1  0
 28 20  1  0
 34 29  1  0
 27 22  1  0
  1 37  1  0
  1 38  1  0
  1 39  1  0
  2 40  1  0
  2 41  1  0
  7 42  1  0
  8 43  1  0
  9 44  1  0
 10 45  1  0
 11 46  1  0
 12 47  1  0
 13 48  1  0
 13 49  1  0
 14 50  1  0
 14 51  1  0
 18 52  1  1
 19 53  1  0
 19 54  1  0
 20 55  1  6
 21 56  1  0
 21 57  1  0
 23 58  1  0
 24 59  1  0
 25 60  1  0
 26 61  1  0
 28 62  1  6
 30 63  1  0
 31 64  1  0
 32 65  1  0
 34 66  1  0
 35 67  1  0
 35 68  1  0
 36 69  1  0
 36 70  1  0
M  END
>  <smiles>  (114) 
CCC(=O)N(c1ccccc1)C1CCN(C(=O)[C@H](N)C2Cc3ccccc3C2c2cccnc2)CC1

>  <score_type>  (114) 
oracle

>  <origin>  (114) 
autodockgpu

>  <m_score__min__energy>  (114) 
-9.0999999999999996

>  <m_primary>  (114) 
energy

>  <rmsd>  (114) 
5.822738389324838

>  <m_score__min__rmsd>  (114) 
5.822738389324838

>  <meeko>  (114) 
{"free_energy": -8.34, "intermolecular_energy": -10.73, "internal_energy": -2.7, "cluster_size": 6, "cluster_id": 4, "rank_in_cluster": 3}

>  <energy>  (114) 
-8.98

>  <cluster_rmsd>  (114) 
0.67

>  <cluster>  (114) 
2

$$$$

     RDKit          3D

 70 74  0  0  0  0  0  0  0  0999 V2000
  134.6600   68.8340  225.0070 C   0  0  0  0  0  0  0  0  0  0  0  0
  135.8940   69.6350  225.3260 C   0  0  0  0  0  0  0  0  0  0  0  0
  136.9790   69.3140  224.3630 C   0  0  0  0  0  0  0  0  0  0  0  0
  136.6950   68.4600  223.4710 O   0  0  0  0  0  0  0  0  0  0  0  0
  138.2670   69.9360  224.4390 N   0  0  0  0  0  0  0  0  0  0  0  0
  139.1570   69.4550  225.4390 C   0  0  0  0  0  0  0  0  0  0  0  0
  139.2130   68.1350  225.8340 C   0  0  0  0  0  0  0  0  0  0  0  0
  140.1070   67.7330  226.8100 C   0  0  0  0  0  0  0  0  0  0  0  0
  140.9550   68.6630  227.4000 C   0  0  0  0  0  0  0  0  0  0  0  0
  140.8940   69.9820  227.0020 C   0  0  0  0  0  0  0  0  0  0  0  0
  140.0040   70.3990  226.0250 C   0  0  0  0  0  0  0  0  0  0  0  0
  138.6020   70.9970  223.5240 C   0  0  0  0  0  0  0  0  0  0  0  0
  137.3910   71.8210  223.1040 C   0  0  0  0  0  0  0  0  0  0  0  0
  137.6880   72.5070  221.7740 C   0  0  0  0  0  0  0  0  0  0  0  0
  139.1230   72.7380  221.6590 N   0  0  0  0  0  0  0  0  0  0  0  0
  139.5680   74.0780  221.6550 C   0  0  0  0  0  0  0  0  0  0  0  0
  138.6650   74.9640  221.7540 O   0  0  0  0  0  0  0  0  0  0  0  0
  140.9500   74.5450  221.5500 C   0  0  2  0  0  0  0  0  0  0  0  0
  141.0860   75.9130  222.0850 N   0  0  0  0  0  0  0  0  0  0  0  0
  141.5240   74.5350  220.1490 C   0  0  2  0  0  0  0  0  0  0  0  0
  141.9790   73.1190  219.8910 C   0  0  0  0  0  0  0  0  0  0  0  0
  143.4340   73.1370  220.1380 C   0  0  0  0  0  0  0  0  0  0  0  0
  144.3530   72.1140  220.2660 C   0  0  0  0  0  0  0  0  0  0  0  0
  145.6790   72.4120  220.4990 C   0  0  0  0  0  0  0  0  0  0  0  0
  146.1110   73.7170  220.6090 C   0  0  0  0  0  0  0  0  0  0  0  0
  145.1990   74.7400  220.4830 C   0  0  0  0  0  0  0  0  0  0  0  0
  143.8520   74.4400  220.2460 C   0  0  0  0  0  0  0  0  0  0  0  0
  142.7370   75.3970  220.0850 C   0  0  1  0  0  0  0  0  0  0  0  0
  142.9240   76.0870  218.7760 C   0  0  0  0  0  0  0  0  0  0  0  0
  143.4400   75.4620  217.6630 C   0  0  0  0  0  0  0  0  0  0  0  0
  143.5850   76.1600  216.4810 C   0  0  0  0  0  0  0  0  0  0  0  0
  143.2250   77.4910  216.3620 C   0  0  0  0  0  0  0  0  0  0  0  0
  142.7210   78.0860  217.4630 N   0  0  0  0  0  0  0  0  0  0  0  0
  142.5710   77.4140  218.6370 C   0  0  0  0  0  0  0  0  0  0  0  0
  139.9680   71.5750  221.5670 C   0  0  0  0  0  0  0  0  0  0  0  0
  139.3170   70.4410  222.3150 C   0  0  0  0  0  0  0  0  0  0  0  0
  134.1751   68.5192  225.9428 H   0  0  0  0  0  0  0  0  0  0  0  0
  133.9626   69.4521  224.4225 H   0  0  0  0  0  0  0  0  0  0  0  0
  134.9406   67.9454  224.4225 H   0  0  0  0  0  0  0  0  0  0  0  0
  135.6574   70.7073  225.2621 H   0  0  0  0  0  0  0  0  0  0  0  0
  136.2313   69.3840  226.3425 H   0  0  0  0  0  0  0  0  0  0  0  0
  138.5423   67.3969  225.3699 H   0  0  0  0  0  0  0  0  0  0  0  0
  140.1468   66.6781  227.1190 H   0  0  0  0  0  0  0  0  0  0  0  0
  141.6680   68.3499  228.1769 H   0  0  0  0  0  0  0  0  0  0  0  0
  141.5651   70.7177  227.4693 H   0  0  0  0  0  0  0  0  0  0  0  0
  139.9651   71.4541  225.7165 H   0  0  0  0  0  0  0  0  0  0  0  0
  139.2753   71.6823  224.0597 H   0  0  0  0  0  0  0  0  0  0  0  0
  136.5183   71.1611  222.9908 H   0  0  0  0  0  0  0  0  0  0  0  0
  137.1759   72.5794  223.8712 H   0  0  0  0  0  0  0  0  0  0  0  0
  137.3520   71.8648  220.9466 H   0  0  0  0  0  0  0  0  0  0  0  0
  137.1559   73.4687  221.7293 H   0  0  0  0  0  0  0  0  0  0  0  0
  141.5229   73.8175  222.1438 H   0  0  0  0  0  0  0  0  0  0  0  0
  141.8990   75.9890  222.7360 H   0  0  0  0  0  0  0  0  0  0  0  0
  140.2510   76.1720  222.6410 H   0  0  0  0  0  0  0  0  0  0  0  0
  140.7759   74.8932  219.4265 H   0  0  0  0  0  0  0  0  0  0  0  0
  141.4785   72.4204  220.5776 H   0  0  0  0  0  0  0  0  0  0  0  0
  141.7360   72.7851  218.8714 H   0  0  0  0  0  0  0  0  0  0  0  0
  144.0286   71.0662  220.1825 H   0  0  0  0  0  0  0  0  0  0  0  0
  146.4063   71.5929  220.5991 H   0  0  0  0  0  0  0  0  0  0  0  0
  147.1724   73.9378  220.7953 H   0  0  0  0  0  0  0  0  0  0  0  0
  145.5262   75.7868  220.5680 H   0  0  0  0  0  0  0  0  0  0  0  0
  142.6689   76.1928  220.8414 H   0  0  0  0  0  0  0  0  0  0  0  0
  143.7373   74.4043  217.7158 H   0  0  0  0  0  0  0  0  0  0  0  0
  144.0005   75.6411  215.6046 H   0  0  0  0  0  0  0  0  0  0  0  0
  143.3441   78.0377  215.4149 H   0  0  0  0  0  0  0  0  0  0  0  0
  142.1543   77.9466  219.5046 H   0  0  0  0  0  0  0  0  0  0  0  0
  140.0978   71.2950  220.5112 H   0  0  0  0  0  0  0  0  0  0  0  0
  140.9535   71.7938  222.0040 H   0  0  0  0  0  0  0  0  0  0  0  0
  138.5938   69.9337  221.6596 H   0  0  0  0  0  0  0  0  0  0  0  0
  140.0822   69.7185  222.6349 H   0  0  0  0  0  0  0  0  0  0  0  0
  1  2  1  0
  2  3  1  0
  3  4  2  0
  3  5  1  0
  5  6  1  0
  6  7  2  0
  7  8  1  0
  8  9  2  0
  9 10  1  0
 10 11  2  0
  5 12  1  0
 12 13  1  0
 13 14  1  0
 14 15  1  0
 15 16  1  0
 16 17  2  0
 16 18  1  0
 18 19  1  0
 18 20  1  0
 20 21  1  0
 21 22  1  0
 22 23  2  0
 23 24  1  0
 24 25  2  0
 25 26  1  0
 26 27  2  0
 27 28  1  0
 28 29  1  0
 29 30  2  0
 30 31  1  0
 31 32  2  0
 32 33  1  0
 33 34  2  0
 15 35  1  0
 35 36  1  0
 11  6  1  0
 36 12  1  0
 28 20  1  0
 34 29  1  0
 27 22  1  0
  1 37  1  0
  1 38  1  0
  1 39  1  0
  2 40  1  0
  2 41  1  0
  7 42  1  0
  8 43  1  0
  9 44  1  0
 10 45  1  0
 11 46  1  0
 12 47  1  0
 13 48  1  0
 13 49  1  0
 14 50  1  0
 14 51  1  0
 18 52  1  1
 19 53  1  0
 19 54  1  0
 20 55  1  6
 21 56  1  0
 21 57  1  0
 23 58  1  0
 24 59  1  0
 25 60  1  0
 26 61  1  0
 28 62  1  1
 30 63  1  0
 31 64  1  0
 32 65  1  0
 34 66  1  0
 35 67  1  0
 35 68  1  0
 36 69  1  0
 36 70  1  0
M  END
>  <smiles>  (115) 
CCC(=O)N(c1ccccc1)C1CCN(C(=O)[C@H](N)C2Cc3ccccc3C2c2cccnc2)CC1

>  <score_type>  (115) 
oracle

>  <origin>  (115) 
autodockgpu

>  <m_score__min__energy>  (115) 
-9.0999999999999996

>  <m_primary>  (115) 
energy

>  <rmsd>  (115) 
8.157253287557534

>  <m_score__min__rmsd>  (115) 
8.157253287557534

>  <meeko>  (115) 
{"free_energy": -8.55, "intermolecular_energy": -10.94, "internal_energy": -2.83, "cluster_size": 12, "cluster_id": 1, "rank_in_cluster": 11}

>  <energy>  (115) 
-8.79

>  <cluster_rmsd>  (115) 
0.0

>  <cluster>  (115) 
3

$$$$

     RDKit          3D

 70 74  0  0  0  0  0  0  0  0999 V2000
  142.1890   79.3060  223.4450 C   0  0  0  0  0  0  0  0  0  0  0  0
  141.9160   80.7290  223.0390 C   0  0  0  0  0  0  0  0  0  0  0  0
  140.7370   80.7900  222.1360 C   0  0  0  0  0  0  0  0  0  0  0  0
  140.8980   81.4300  221.0550 O   0  0  0  0  0  0  0  0  0  0  0  0
  139.4940   80.1590  222.4700 N   0  0  0  0  0  0  0  0  0  0  0  0
  138.5840   80.9090  223.2650 C   0  0  0  0  0  0  0  0  0  0  0  0
  138.4100   80.7020  224.6180 C   0  0  0  0  0  0  0  0  0  0  0  0
  137.5100   81.4720  225.3340 C   0  0  0  0  0  0  0  0  0  0  0  0
  136.7740   82.4590  224.6890 C   0  0  0  0  0  0  0  0  0  0  0  0
  136.9520   82.6610  223.3360 C   0  0  0  0  0  0  0  0  0  0  0  0
  137.8500   81.8980  222.6060 C   0  0  0  0  0  0  0  0  0  0  0  0
  139.2230   78.8250  222.0000 C   0  0  0  0  0  0  0  0  0  0  0  0
  138.4720   78.8050  220.6740 C   0  0  0  0  0  0  0  0  0  0  0  0
  137.7450   77.4720  220.5300 C   0  0  0  0  0  0  0  0  0  0  0  0
  138.4690   76.4430  221.2650 N   0  0  0  0  0  0  0  0  0  0  0  0
  139.0660   75.4050  220.5160 C   0  0  0  0  0  0  0  0  0  0  0  0
  138.9130   75.4690  219.2580 O   0  0  0  0  0  0  0  0  0  0  0  0
  139.8340   74.2760  221.0370 C   0  0  2  0  0  0  0  0  0  0  0  0
  139.2850   73.8140  222.3260 N   0  0  0  0  0  0  0  0  0  0  0  0
  141.3120   74.5430  221.2310 C   0  0  2  0  0  0  0  0  0  0  0  0
  141.4270   75.9930  221.6340 C   0  0  0  0  0  0  0  0  0  0  0  0
  141.7930   76.7040  220.3950 C   0  0  0  0  0  0  0  0  0  0  0  0
  141.8330   78.0500  220.0900 C   0  0  0  0  0  0  0  0  0  0  0  0
  142.2180   78.4550  218.8290 C   0  0  0  0  0  0  0  0  0  0  0  0
  142.5670   77.5390  217.8590 C   0  0  0  0  0  0  0  0  0  0  0  0
  142.5290   76.1950  218.1580 C   0  0  0  0  0  0  0  0  0  0  0  0
  142.1380   75.7830  219.4370 C   0  0  0  0  0  0  0  0  0  0  0  0
  142.0360   74.3960  219.9380 C   0  0  1  0  0  0  0  0  0  0  0  0
  143.4230   73.8650  220.0750 C   0  0  0  0  0  0  0  0  0  0  0  0
  144.4940   74.6460  220.4470 C   0  0  0  0  0  0  0  0  0  0  0  0
  145.7530   74.0910  220.5560 C   0  0  0  0  0  0  0  0  0  0  0  0
  145.9910   72.7510  220.3020 C   0  0  0  0  0  0  0  0  0  0  0  0
  144.9290   72.0020  219.9390 N   0  0  0  0  0  0  0  0  0  0  0  0
  143.6810   72.5330  219.8260 C   0  0  0  0  0  0  0  0  0  0  0  0
  138.5210   76.5770  222.6980 C   0  0  0  0  0  0  0  0  0  0  0  0
  138.4730   78.0410  223.0520 C   0  0  0  0  0  0  0  0  0  0  0  0
  142.2028   79.2341  224.5426 H   0  0  0  0  0  0  0  0  0  0  0  0
  141.3998   78.6526  223.0446 H   0  0  0  0  0  0  0  0  0  0  0  0
  143.1639   78.9911  223.0446 H   0  0  0  0  0  0  0  0  0  0  0  0
  141.7164   81.3310  223.9378 H   0  0  0  0  0  0  0  0  0  0  0  0
  142.7944   81.1247  222.5082 H   0  0  0  0  0  0  0  0  0  0  0  0
  138.9900   79.9204  225.1306 H   0  0  0  0  0  0  0  0  0  0  0  0
  137.3773   81.3030  226.4128 H   0  0  0  0  0  0  0  0  0  0  0  0
  136.0562   83.0734  225.2522 H   0  0  0  0  0  0  0  0  0  0  0  0
  136.3699   83.4429  222.8264 H   0  0  0  0  0  0  0  0  0  0  0  0
  137.9822   82.0683  221.5273 H   0  0  0  0  0  0  0  0  0  0  0  0
  140.1957   78.3459  221.8149 H   0  0  0  0  0  0  0  0  0  0  0  0
  137.7412   79.6269  220.6525 H   0  0  0  0  0  0  0  0  0  0  0  0
  139.1833   78.9298  219.8443 H   0  0  0  0  0  0  0  0  0  0  0  0
  136.7264   77.5641  220.9350 H   0  0  0  0  0  0  0  0  0  0  0  0
  137.6927   77.1954  219.4666 H   0  0  0  0  0  0  0  0  0  0  0  0
  139.7392   73.5070  220.2562 H   0  0  0  0  0  0  0  0  0  0  0  0
  138.2400   73.8290  222.3220 H   0  0  0  0  0  0  0  0  0  0  0  0
  139.5760   74.4450  223.0940 H   0  0  0  0  0  0  0  0  0  0  0  0
  141.7320   73.8467  221.9717 H   0  0  0  0  0  0  0  0  0  0  0  0
  140.4674   76.3635  222.0236 H   0  0  0  0  0  0  0  0  0  0  0  0
  142.1692   76.1431  222.4319 H   0  0  0  0  0  0  0  0  0  0  0  0
  141.5588   78.7966  220.8499 H   0  0  0  0  0  0  0  0  0  0  0  0
  142.2472   79.5289  218.5926 H   0  0  0  0  0  0  0  0  0  0  0  0
  142.8722   77.8778  216.8580 H   0  0  0  0  0  0  0  0  0  0  0  0
  142.8042   75.4504  217.3965 H   0  0  0  0  0  0  0  0  0  0  0  0
  141.5012   73.6858  219.2902 H   0  0  0  0  0  0  0  0  0  0  0  0
  144.3459   75.7154  220.6580 H   0  0  0  0  0  0  0  0  0  0  0  0
  146.5943   74.7339  220.8542 H   0  0  0  0  0  0  0  0  0  0  0  0
  146.9980   72.3175  220.3919 H   0  0  0  0  0  0  0  0  0  0  0  0
  142.8499   71.8778  219.5260 H   0  0  0  0  0  0  0  0  0  0  0  0
  137.6615   76.0594  223.1489 H   0  0  0  0  0  0  0  0  0  0  0  0
  139.4505   76.1306  223.0812 H   0  0  0  0  0  0  0  0  0  0  0  0
  137.4265   78.3780  223.0873 H   0  0  0  0  0  0  0  0  0  0  0  0
  138.9366   78.2012  224.0366 H   0  0  0  0  0  0  0  0  0  0  0  0
  1  2  1  0
  2  3  1  0
  3  4  2  0
  3  5  1  0
  5  6  1  0
  6  7  2  0
  7  8  1  0
  8  9  2  0
  9 10  1  0
 10 11  2  0
  5 12  1  0
 12 13  1  0
 13 14  1  0
 14 15  1  0
 15 16  1  0
 16 17  2  0
 16 18  1  0
 18 19  1  0
 18 20  1  0
 20 21  1  0
 21 22  1  0
 22 23  2  0
 23 24  1  0
 24 25  2  0
 25 26  1  0
 26 27  2  0
 27 28  1  0
 28 29  1  0
 29 30  2  0
 30 31  1  0
 31 32  2  0
 32 33  1  0
 33 34  2  0
 15 35  1  0
 35 36  1  0
 11  6  1  0
 36 12  1  0
 28 20  1  0
 34 29  1  0
 27 22  1  0
  1 37  1  0
  1 38  1  0
  1 39  1  0
  2 40  1  0
  2 41  1  0
  7 42  1  0
  8 43  1  0
  9 44  1  0
 10 45  1  0
 11 46  1  0
 12 47  1  0
 13 48  1  0
 13 49  1  0
 14 50  1  0
 14 51  1  0
 18 52  1  6
 19 53  1  0
 19 54  1  0
 20 55  1  1
 21 56  1  0
 21 57  1  0
 23 58  1  0
 24 59  1  0
 25 60  1  0
 26 61  1  0
 28 62  1  6
 30 63  1  0
 31 64  1  0
 32 65  1  0
 34 66  1  0
 35 67  1  0
 35 68  1  0
 36 69  1  0
 36 70  1  0
M  END
>  <smiles>  (116) 
CCC(=O)N(c1ccccc1)C1CCN(C(=O)[C@H](N)C2Cc3ccccc3C2c2cccnc2)CC1

>  <score_type>  (116) 
oracle

>  <origin>  (116) 
autodockgpu

>  <m_score__min__energy>  (116) 
-9.0999999999999996

>  <m_primary>  (116) 
energy

>  <rmsd>  (116) 
5.554287047387919

>  <m_score__min__rmsd>  (116) 
5.554287047387919

>  <meeko>  (116) 
{"free_energy": -7.85, "intermolecular_energy": -10.23, "internal_energy": -3.29, "cluster_size": 28, "cluster_id": 5, "rank_in_cluster": 21}

>  <energy>  (116) 
-8.39

>  <cluster_rmsd>  (116) 
0.0

>  <cluster>  (116) 
4

$$$$

     RDKit          3D

 70 74  0  0  0  0  0  0  0  0999 V2000
  141.8420   79.0220  223.8290 C   0  0  0  0  0  0  0  0  0  0  0  0
  141.9120   80.4260  223.2900 C   0  0  0  0  0  0  0  0  0  0  0  0
  140.7920   80.6700  222.3440 C   0  0  0  0  0  0  0  0  0  0  0  0
  141.0520   81.4200  221.3570 O   0  0  0  0  0  0  0  0  0  0  0  0
  139.4960   80.0900  222.5390 N   0  0  0  0  0  0  0  0  0  0  0  0
  138.5320   80.8810  223.2240 C   0  0  0  0  0  0  0  0  0  0  0  0
  137.7250   81.8060  222.5960 C   0  0  0  0  0  0  0  0  0  0  0  0
  136.8030   82.5390  223.3220 C   0  0  0  0  0  0  0  0  0  0  0  0
  136.6880   82.3460  224.6940 C   0  0  0  0  0  0  0  0  0  0  0  0
  137.4990   81.4200  225.3170 C   0  0  0  0  0  0  0  0  0  0  0  0
  138.4260   80.6780  224.6020 C   0  0  0  0  0  0  0  0  0  0  0  0
  139.2270   78.7630  222.0480 C   0  0  0  0  0  0  0  0  0  0  0  0
  138.5070   78.7640  220.7050 C   0  0  0  0  0  0  0  0  0  0  0  0
  137.7750   77.4380  220.5280 C   0  0  0  0  0  0  0  0  0  0  0  0
  138.4750   76.3950  221.2680 N   0  0  0  0  0  0  0  0  0  0  0  0
  139.0830   75.3620  220.5210 C   0  0  0  0  0  0  0  0  0  0  0  0
  138.9590   75.4420  219.2610 O   0  0  0  0  0  0  0  0  0  0  0  0
  139.8320   74.2220  221.0460 C   0  0  2  0  0  0  0  0  0  0  0  0
  139.2630   73.7630  222.3280 N   0  0  0  0  0  0  0  0  0  0  0  0
  141.3110   74.4700  221.2570 C   0  0  2  0  0  0  0  0  0  0  0  0
  141.4380   75.9160  221.6740 C   0  0  0  0  0  0  0  0  0  0  0  0
  141.8240   76.6330  220.4440 C   0  0  0  0  0  0  0  0  0  0  0  0
  141.8820   77.9810  220.1510 C   0  0  0  0  0  0  0  0  0  0  0  0
  142.2850   78.3920  218.8970 C   0  0  0  0  0  0  0  0  0  0  0  0
  142.6330   77.4790  217.9230 C   0  0  0  0  0  0  0  0  0  0  0  0
  142.5760   76.1340  218.2100 C   0  0  0  0  0  0  0  0  0  0  0  0
  142.1680   75.7160  219.4820 C   0  0  0  0  0  0  0  0  0  0  0  0
  142.0450   74.3260  219.9700 C   0  0  1  0  0  0  0  0  0  0  0  0
  143.4250   73.7780  220.1160 C   0  0  0  0  0  0  0  0  0  0  0  0
  144.5090   74.5520  220.4660 C   0  0  0  0  0  0  0  0  0  0  0  0
  145.7600   73.9810  220.5850 C   0  0  0  0  0  0  0  0  0  0  0  0
  145.9770   72.6320  220.3630 C   0  0  0  0  0  0  0  0  0  0  0  0
  144.9030   71.8900  220.0210 N   0  0  0  0  0  0  0  0  0  0  0  0
  143.6630   72.4360  219.8990 C   0  0  0  0  0  0  0  0  0  0  0  0
  138.4950   76.5130  222.7040 C   0  0  0  0  0  0  0  0  0  0  0  0
  138.4480   77.9730  223.0730 C   0  0  0  0  0  0  0  0  0  0  0  0
  141.8434   79.0509  224.9286 H   0  0  0  0  0  0  0  0  0  0  0  0
  140.9187   78.5394  223.4761 H   0  0  0  0  0  0  0  0  0  0  0  0
  142.7127   78.4499  223.4761 H   0  0  0  0  0  0  0  0  0  0  0  0
  141.8443   81.1393  224.1247 H   0  0  0  0  0  0  0  0  0  0  0  0
  142.8658   80.5588  222.7583 H   0  0  0  0  0  0  0  0  0  0  0  0
  137.8148   81.9622  221.5108 H   0  0  0  0  0  0  0  0  0  0  0  0
  136.1614   83.2740  222.8140 H   0  0  0  0  0  0  0  0  0  0  0  0
  135.9575   82.9260  225.2771 H   0  0  0  0  0  0  0  0  0  0  0  0
  137.4081   81.2675  226.4026 H   0  0  0  0  0  0  0  0  0  0  0  0
  139.0667   79.9425  225.1105 H   0  0  0  0  0  0  0  0  0  0  0  0
  140.2002   78.2785  221.8802 H   0  0  0  0  0  0  0  0  0  0  0  0
  137.7823   79.5910  220.6766 H   0  0  0  0  0  0  0  0  0  0  0  0
  139.2382   78.8939  219.8936 H   0  0  0  0  0  0  0  0  0  0  0  0
  136.7477   77.5322  220.9099 H   0  0  0  0  0  0  0  0  0  0  0  0
  137.7461   77.1743  219.4605 H   0  0  0  0  0  0  0  0  0  0  0  0
  139.7370   73.4569  220.2614 H   0  0  0  0  0  0  0  0  0  0  0  0
  138.2200   73.8230  222.3250 H   0  0  0  0  0  0  0  0  0  0  0  0
  139.5820   74.3670  223.1060 H   0  0  0  0  0  0  0  0  0  0  0  0
  141.7164   73.7628  221.9956 H   0  0  0  0  0  0  0  0  0  0  0  0
  140.4788   76.2939  222.0575 H   0  0  0  0  0  0  0  0  0  0  0  0
  142.1737   76.0514  222.4805 H   0  0  0  0  0  0  0  0  0  0  0  0
  141.6080   78.7243  220.9142 H   0  0  0  0  0  0  0  0  0  0  0  0
  142.3296   79.4673  218.6697 H   0  0  0  0  0  0  0  0  0  0  0  0
  142.9525   77.8221  216.9279 H   0  0  0  0  0  0  0  0  0  0  0  0
  142.8493   75.3925  217.4448 H   0  0  0  0  0  0  0  0  0  0  0  0
  141.5081   73.6279  219.3109 H   0  0  0  0  0  0  0  0  0  0  0  0
  144.3775   75.6283  220.6512 H   0  0  0  0  0  0  0  0  0  0  0  0
  146.6117   74.6183  220.8652 H   0  0  0  0  0  0  0  0  0  0  0  0
  146.9777   72.1859  220.4608 H   0  0  0  0  0  0  0  0  0  0  0  0
  142.8214   71.7858  219.6179 H   0  0  0  0  0  0  0  0  0  0  0  0
  137.6222   75.9961  223.1294 H   0  0  0  0  0  0  0  0  0  0  0  0
  139.4126   76.0564  223.1033 H   0  0  0  0  0  0  0  0  0  0  0  0
  137.4031   78.3166  223.0876 H   0  0  0  0  0  0  0  0  0  0  0  0
  138.8893   78.1194  224.0699 H   0  0  0  0  0  0  0  0  0  0  0  0
  1  2  1  0
  2  3  1  0
  3  4  2  0
  3  5  1  0
  5  6  1  0
  6  7  2  0
  7  8  1  0
  8  9  2  0
  9 10  1  0
 10 11  2  0
  5 12  1  0
 12 13  1  0
 13 14  1  0
 14 15  1  0
 15 16  1  0
 16 17  2  0
 16 18  1  0
 18 19  1  0
 18 20  1  0
 20 21  1  0
 21 22  1  0
 22 23  2  0
 23 24  1  0
 24 25  2  0
 25 26  1  0
 26 27  2  0
 27 28  1  0
 28 29  1  0
 29 30  2  0
 30 31  1  0
 31 32  2  0
 32 33  1  0
 33 34  2  0
 15 35  1  0
 35 36  1  0
 11  6  1  0
 36 12  1  0
 28 20  1  0
 34 29  1  0
 27 22  1  0
  1 37  1  0
  1 38  1  0
  1 39  1  0
  2 40  1  0
  2 41  1  0
  7 42  1  0
  8 43  1  0
  9 44  1  0
 10 45  1  0
 11 46  1  0
 12 47  1  0
 13 48  1  0
 13 49  1  0
 14 50  1  0
 14 51  1  0
 18 52  1  6
 19 53  1  0
 19 54  1  0
 20 55  1  1
 21 56  1  0
 21 57  1  0
 23 58  1  0
 24 59  1  0
 25 60  1  0
 26 61  1  0
 28 62  1  6
 30 63  1  0
 31 64  1  0
 32 65  1  0
 34 66  1  0
 35 67  1  0
 35 68  1  0
 36 69  1  0
 36 70  1  0
M  END
>  <smiles>  (117) 
CCC(=O)N(c1ccccc1)C1CCN(C(=O)[C@H](N)C2Cc3ccccc3C2c2cccnc2)CC1

>  <score_type>  (117) 
oracle

>  <origin>  (117) 
autodockgpu

>  <m_score__min__energy>  (117) 
-9.0999999999999996

>  <m_primary>  (117) 
energy

>  <rmsd>  (117) 
5.585941875123858

>  <m_score__min__rmsd>  (117) 
5.585941875123858

>  <meeko>  (117) 
{"free_energy": -7.89, "intermolecular_energy": -10.28, "internal_energy": -3.27, "cluster_size": 28, "cluster_id": 5, "rank_in_cluster": 19}

>  <energy>  (117) 
-8.35

>  <cluster_rmsd>  (117) 
0.24

>  <cluster>  (117) 
4

$$$$

     RDKit          3D

 70 74  0  0  0  0  0  0  0  0999 V2000
  142.7610   80.6810  223.8240 C   0  0  0  0  0  0  0  0  0  0  0  0
  142.0460   79.9760  222.7030 C   0  0  0  0  0  0  0  0  0  0  0  0
  140.8050   80.7100  222.3420 C   0  0  0  0  0  0  0  0  0  0  0  0
  140.9670   81.8700  221.8590 O   0  0  0  0  0  0  0  0  0  0  0  0
  139.5050   80.1380  222.5300 N   0  0  0  0  0  0  0  0  0  0  0  0
  138.5410   80.9370  223.2050 C   0  0  0  0  0  0  0  0  0  0  0  0
  137.7420   81.8630  222.5680 C   0  0  0  0  0  0  0  0  0  0  0  0
  136.8190   82.6040  223.2850 C   0  0  0  0  0  0  0  0  0  0  0  0
  136.6940   82.4180  224.6570 C   0  0  0  0  0  0  0  0  0  0  0  0
  137.4960   81.4900  225.2890 C   0  0  0  0  0  0  0  0  0  0  0  0
  138.4240   80.7400  224.5830 C   0  0  0  0  0  0  0  0  0  0  0  0
  139.2320   78.8110  222.0420 C   0  0  0  0  0  0  0  0  0  0  0  0
  138.5020   78.8110  220.7040 C   0  0  0  0  0  0  0  0  0  0  0  0
  137.7680   77.4850  220.5340 C   0  0  0  0  0  0  0  0  0  0  0  0
  138.4740   76.4420  221.2690 N   0  0  0  0  0  0  0  0  0  0  0  0
  139.0750   75.4090  220.5180 C   0  0  0  0  0  0  0  0  0  0  0  0
  138.9430   75.4880  219.2590 O   0  0  0  0  0  0  0  0  0  0  0  0
  139.8280   74.2690  221.0380 C   0  0  2  0  0  0  0  0  0  0  0  0
  139.2600   73.8020  222.3180 N   0  0  0  0  0  0  0  0  0  0  0  0
  141.3060   74.5210  221.2520 C   0  0  2  0  0  0  0  0  0  0  0  0
  141.4320   75.9740  221.6430 C   0  0  0  0  0  0  0  0  0  0  0  0
  141.8230   76.6690  220.4030 C   0  0  0  0  0  0  0  0  0  0  0  0
  141.8820   78.0120  220.0860 C   0  0  0  0  0  0  0  0  0  0  0  0
  142.2900   78.4010  218.8270 C   0  0  0  0  0  0  0  0  0  0  0  0
  142.6430   77.4710  217.8710 C   0  0  0  0  0  0  0  0  0  0  0  0
  142.5850   76.1320  218.1820 C   0  0  0  0  0  0  0  0  0  0  0  0
  142.1710   75.7350  219.4580 C   0  0  0  0  0  0  0  0  0  0  0  0
  142.0460   74.3540  219.9710 C   0  0  1  0  0  0  0  0  0  0  0  0
  143.4260   73.8100  220.1320 C   0  0  0  0  0  0  0  0  0  0  0  0
  144.5080   74.5910  220.4690 C   0  0  0  0  0  0  0  0  0  0  0  0
  145.7590   74.0220  220.6040 C   0  0  0  0  0  0  0  0  0  0  0  0
  145.9760   72.6690  220.4120 C   0  0  0  0  0  0  0  0  0  0  0  0
  144.9040   71.9200  220.0830 N   0  0  0  0  0  0  0  0  0  0  0  0
  143.6640   72.4630  219.9450 C   0  0  0  0  0  0  0  0  0  0  0  0
  138.5050   76.5610  222.7040 C   0  0  0  0  0  0  0  0  0  0  0  0
  138.4610   78.0210  223.0720 C   0  0  0  0  0  0  0  0  0  0  0  0
  142.3851   80.3104  224.7891 H   0  0  0  0  0  0  0  0  0  0  0  0
  143.8408   80.4844  223.7512 H   0  0  0  0  0  0  0  0  0  0  0  0
  142.5796   81.7635  223.7512 H   0  0  0  0  0  0  0  0  0  0  0  0
  142.7070   79.9265  221.8251 H   0  0  0  0  0  0  0  0  0  0  0  0
  141.7792   78.9605  223.0308 H   0  0  0  0  0  0  0  0  0  0  0  0
  137.8390   82.0137  221.4827 H   0  0  0  0  0  0  0  0  0  0  0  0
  136.1845   83.3399  222.7695 H   0  0  0  0  0  0  0  0  0  0  0  0
  135.9632   83.0047  225.2329 H   0  0  0  0  0  0  0  0  0  0  0  0
  137.3971   81.3423  226.3745 H   0  0  0  0  0  0  0  0  0  0  0  0
  139.0569   80.0029  225.0988 H   0  0  0  0  0  0  0  0  0  0  0  0
  140.2043   78.3269  221.8679 H   0  0  0  0  0  0  0  0  0  0  0  0
  137.7775   79.6384  220.6800 H   0  0  0  0  0  0  0  0  0  0  0  0
  139.2272   78.9397  219.8870 H   0  0  0  0  0  0  0  0  0  0  0  0
  136.7440   77.5799  220.9244 H   0  0  0  0  0  0  0  0  0  0  0  0
  137.7301   77.2206  219.4669 H   0  0  0  0  0  0  0  0  0  0  0  0
  139.7362   73.5078  220.2492 H   0  0  0  0  0  0  0  0  0  0  0  0
  138.2160   73.8500  222.3110 H   0  0  0  0  0  0  0  0  0  0  0  0
  139.5690   74.4090  223.0980 H   0  0  0  0  0  0  0  0  0  0  0  0
  141.7071   73.8273  222.0056 H   0  0  0  0  0  0  0  0  0  0  0  0
  140.4714   76.3590  222.0158 H   0  0  0  0  0  0  0  0  0  0  0  0
  142.1649   76.1233  222.4496 H   0  0  0  0  0  0  0  0  0  0  0  0
  141.6047   78.7686  220.8347 H   0  0  0  0  0  0  0  0  0  0  0  0
  142.3347   79.4722  218.5808 H   0  0  0  0  0  0  0  0  0  0  0  0
  142.9672   77.7963  216.8715 H   0  0  0  0  0  0  0  0  0  0  0  0
  142.8627   75.3775  217.4312 H   0  0  0  0  0  0  0  0  0  0  0  0
  141.5118   73.6434  219.3232 H   0  0  0  0  0  0  0  0  0  0  0  0
  144.3760   75.6709  220.6312 H   0  0  0  0  0  0  0  0  0  0  0  0
  146.6102   74.6649  220.8728 H   0  0  0  0  0  0  0  0  0  0  0  0
  146.9763   72.2251  220.5226 H   0  0  0  0  0  0  0  0  0  0  0  0
  142.8232   71.8069  219.6755 H   0  0  0  0  0  0  0  0  0  0  0  0
  137.6354   76.0445  223.1365 H   0  0  0  0  0  0  0  0  0  0  0  0
  139.4256   76.1046  223.0967 H   0  0  0  0  0  0  0  0  0  0  0  0
  137.4162   78.3645  223.0940 H   0  0  0  0  0  0  0  0  0  0  0  0
  138.9102   78.1676  224.0654 H   0  0  0  0  0  0  0  0  0  0  0  0
  1  2  1  0
  2  3  1  0
  3  4  2  0
  3  5  1  0
  5  6  1  0
  6  7  2  0
  7  8  1  0
  8  9  2  0
  9 10  1  0
 10 11  2  0
  5 12  1  0
 12 13  1  0
 13 14  1  0
 14 15  1  0
 15 16  1  0
 16 17  2  0
 16 18  1  0
 18 19  1  0
 18 20  1  0
 20 21  1  0
 21 22  1  0
 22 23  2  0
 23 24  1  0
 24 25  2  0
 25 26  1  0
 26 27  2  0
 27 28  1  0
 28 29  1  0
 29 30  2  0
 30 31  1  0
 31 32  2  0
 32 33  1  0
 33 34  2  0
 15 35  1  0
 35 36  1  0
 11  6  1  0
 36 12  1  0
 28 20  1  0
 34 29  1  0
 27 22  1  0
  1 37  1  0
  1 38  1  0
  1 39  1  0
  2 40  1  0
  2 41  1  0
  7 42  1  0
  8 43  1  0
  9 44  1  0
 10 45  1  0
 11 46  1  0
 12 47  1  0
 13 48  1  0
 13 49  1  0
 14 50  1  0
 14 51  1  0
 18 52  1  6
 19 53  1  0
 19 54  1  0
 20 55  1  1
 21 56  1  0
 21 57  1  0
 23 58  1  0
 24 59  1  0
 25 60  1  0
 26 61  1  0
 28 62  1  6
 30 63  1  0
 31 64  1  0
 32 65  1  0
 34 66  1  0
 35 67  1  0
 35 68  1  0
 36 69  1  0
 36 70  1  0
M  END
>  <smiles>  (118) 
CCC(=O)N(c1ccccc1)C1CCN(C(=O)[C@H](N)C2Cc3ccccc3C2c2cccnc2)CC1

>  <score_type>  (118) 
oracle

>  <origin>  (118) 
autodockgpu

>  <m_score__min__energy>  (118) 
-9.0999999999999996

>  <m_primary>  (118) 
energy

>  <rmsd>  (118) 
5.571716593745312

>  <m_score__min__rmsd>  (118) 
5.571716593745312

>  <meeko>  (118) 
{"free_energy": -7.98, "intermolecular_energy": -10.37, "internal_energy": -3.16, "cluster_size": 28, "cluster_id": 5, "rank_in_cluster": 11}

>  <energy>  (118) 
-8.34

>  <cluster_rmsd>  (118) 
0.09

>  <cluster>  (118) 
4

$$$$

     RDKit          3D

 70 74  0  0  0  0  0  0  0  0999 V2000
  137.7740   80.9180  224.8350 C   0  0  0  0  0  0  0  0  0  0  0  0
  137.0450   80.1990  223.7320 C   0  0  0  0  0  0  0  0  0  0  0  0
  137.8570   80.2080  222.4870 C   0  0  0  0  0  0  0  0  0  0  0  0
  137.4440   80.9680  221.5610 O   0  0  0  0  0  0  0  0  0  0  0  0
  139.0350   79.4050  222.3450 N   0  0  0  0  0  0  0  0  0  0  0  0
  140.2630   79.9820  222.7700 C   0  0  0  0  0  0  0  0  0  0  0  0
  140.6120   81.2940  222.5210 C   0  0  0  0  0  0  0  0  0  0  0  0
  141.8220   81.7940  222.9690 C   0  0  0  0  0  0  0  0  0  0  0  0
  142.6960   80.9720  223.6720 C   0  0  0  0  0  0  0  0  0  0  0  0
  142.3420   79.6610  223.9170 C   0  0  0  0  0  0  0  0  0  0  0  0
  141.1330   79.1470  223.4750 C   0  0  0  0  0  0  0  0  0  0  0  0
  138.9320   78.0800  221.7910 C   0  0  0  0  0  0  0  0  0  0  0  0
  138.3150   78.0670  220.3980 C   0  0  0  0  0  0  0  0  0  0  0  0
  137.7290   76.6860  220.1220 C   0  0  0  0  0  0  0  0  0  0  0  0
  138.4720   75.6850  220.8780 N   0  0  0  0  0  0  0  0  0  0  0  0
  139.2290   74.7440  220.1450 C   0  0  0  0  0  0  0  0  0  0  0  0
  139.1900   74.8630  218.8820 O   0  0  0  0  0  0  0  0  0  0  0  0
  140.0450   73.6600  220.6870 C   0  0  2  0  0  0  0  0  0  0  0  0
  139.4620   73.1360  221.9380 N   0  0  0  0  0  0  0  0  0  0  0  0
  141.4890   74.0220  220.9650 C   0  0  2  0  0  0  0  0  0  0  0  0
  141.4650   75.3990  221.5840 C   0  0  0  0  0  0  0  0  0  0  0  0
  141.7850   76.3190  220.4770 C   0  0  0  0  0  0  0  0  0  0  0  0
  141.7070   77.6950  220.3790 C   0  0  0  0  0  0  0  0  0  0  0  0
  142.0750   78.3190  219.2050 C   0  0  0  0  0  0  0  0  0  0  0  0
  142.5230   77.5940  218.1200 C   0  0  0  0  0  0  0  0  0  0  0  0
  142.6020   76.2230  218.2130 C   0  0  0  0  0  0  0  0  0  0  0  0
  142.2280   75.5880  219.4030 C   0  0  0  0  0  0  0  0  0  0  0  0
  142.2450   74.1370  219.6870 C   0  0  1  0  0  0  0  0  0  0  0  0
  143.6720   73.7160  219.7850 C   0  0  0  0  0  0  0  0  0  0  0  0
  144.4850   74.0520  220.8440 C   0  0  0  0  0  0  0  0  0  0  0  0
  145.7980   73.6270  220.8730 C   0  0  0  0  0  0  0  0  0  0  0  0
  146.3450   72.8590  219.8600 C   0  0  0  0  0  0  0  0  0  0  0  0
  145.5340   72.5390  218.8310 N   0  0  0  0  0  0  0  0  0  0  0  0
  144.2370   72.9500  218.7860 C   0  0  0  0  0  0  0  0  0  0  0  0
  138.3760   75.7460  222.3140 C   0  0  0  0  0  0  0  0  0  0  0  0
  138.1610   77.1790  222.7270 C   0  0  0  0  0  0  0  0  0  0  0  0
  137.4105   80.5594  225.8093 H   0  0  0  0  0  0  0  0  0  0  0  0
  138.8529   80.7206  224.7509 H   0  0  0  0  0  0  0  0  0  0  0  0
  137.5915   81.9995  224.7509 H   0  0  0  0  0  0  0  0  0  0  0  0
  136.8599   79.1585  224.0372 H   0  0  0  0  0  0  0  0  0  0  0  0
  136.0902   80.7106  223.5407 H   0  0  0  0  0  0  0  0  0  0  0  0
  139.9240   81.9461  221.9630 H   0  0  0  0  0  0  0  0  0  0  0  0
  142.0924   82.8413  222.7691 H   0  0  0  0  0  0  0  0  0  0  0  0
  143.6601   81.3630  224.0293 H   0  0  0  0  0  0  0  0  0  0  0  0
  143.0328   79.0110  224.4740 H   0  0  0  0  0  0  0  0  0  0  0  0
  140.8633   78.0997  223.6759 H   0  0  0  0  0  0  0  0  0  0  0  0
  139.9573   77.6969  221.6816 H   0  0  0  0  0  0  0  0  0  0  0  0
  137.5179   78.8229  220.3416 H   0  0  0  0  0  0  0  0  0  0  0  0
  139.0875   78.2971  219.6494 H   0  0  0  0  0  0  0  0  0  0  0  0
  136.6726   76.6677  220.4281 H   0  0  0  0  0  0  0  0  0  0  0  0
  137.8022   76.4638  219.0472 H   0  0  0  0  0  0  0  0  0  0  0  0
  140.0449   72.9030  219.8889 H   0  0  0  0  0  0  0  0  0  0  0  0
  139.3970   73.8790  222.6680 H   0  0  0  0  0  0  0  0  0  0  0  0
  140.0640   72.3940  222.3380 H   0  0  0  0  0  0  0  0  0  0  0  0
  141.9576   73.2608  221.6061 H   0  0  0  0  0  0  0  0  0  0  0  0
  140.4694   75.6208  221.9958 H   0  0  0  0  0  0  0  0  0  0  0  0
  142.1773   75.4906  222.4172 H   0  0  0  0  0  0  0  0  0  0  0  0
  141.3530   78.2904  221.2335 H   0  0  0  0  0  0  0  0  0  0  0  0
  142.0101   79.4147  219.1326 H   0  0  0  0  0  0  0  0  0  0  0  0
  142.8138   78.1060  217.1909 H   0  0  0  0  0  0  0  0  0  0  0  0
  142.9569   75.6299  217.3573 H   0  0  0  0  0  0  0  0  0  0  0  0
  141.7885   73.4890  218.9243 H   0  0  0  0  0  0  0  0  0  0  0  0
  144.0872   74.6608  221.6693 H   0  0  0  0  0  0  0  0  0  0  0  0
  146.4297   73.9077  221.7286 H   0  0  0  0  0  0  0  0  0  0  0  0
  147.3926   72.5251  219.8926 H   0  0  0  0  0  0  0  0  0  0  0  0
  143.6181   72.6615  217.9236 H   0  0  0  0  0  0  0  0  0  0  0  0
  137.5288   75.1324  222.6541 H   0  0  0  0  0  0  0  0  0  0  0  0
  139.3021   75.3620  222.7666 H   0  0  0  0  0  0  0  0  0  0  0  0
  137.0894   77.4217  222.6736 H   0  0  0  0  0  0  0  0  0  0  0  0
  138.5127   77.3258  223.7589 H   0  0  0  0  0  0  0  0  0  0  0  0
  1  2  1  0
  2  3  1  0
  3  4  2  0
  3  5  1  0
  5  6  1  0
  6  7  2  0
  7  8  1  0
  8  9  2  0
  9 10  1  0
 10 11  2  0
  5 12  1  0
 12 13  1  0
 13 14  1  0
 14 15  1  0
 15 16  1  0
 16 17  2  0
 16 18  1  0
 18 19  1  0
 18 20  1  0
 20 21  1  0
 21 22  1  0
 22 23  2  0
 23 24  1  0
 24 25  2  0
 25 26  1  0
 26 27  2  0
 27 28  1  0
 28 29  1  0
 29 30  2  0
 30 31  1  0
 31 32  2  0
 32 33  1  0
 33 34  2  0
 15 35  1  0
 35 36  1  0
 11  6  1  0
 36 12  1  0
 28 20  1  0
 34 29  1  0
 27 22  1  0
  1 37  1  0
  1 38  1  0
  1 39  1  0
  2 40  1  0
  2 41  1  0
  7 42  1  0
  8 43  1  0
  9 44  1  0
 10 45  1  0
 11 46  1  0
 12 47  1  0
 13 48  1  0
 13 49  1  0
 14 50  1  0
 14 51  1  0
 18 52  1  6
 19 53  1  0
 19 54  1  0
 20 55  1  1
 21 56  1  0
 21 57  1  0
 23 58  1  0
 24 59  1  0
 25 60  1  0
 26 61  1  0
 28 62  1  6
 30 63  1  0
 31 64  1  0
 32 65  1  0
 34 66  1  0
 35 67  1  0
 35 68  1  0
 36 69  1  0
 36 70  1  0
M  END
>  <smiles>  (119) 
CCC(=O)N(c1ccccc1)C1CCN(C(=O)[C@H](N)C2Cc3ccccc3C2c2cccnc2)CC1

>  <score_type>  (119) 
oracle

>  <origin>  (119) 
autodockgpu

>  <m_score__min__energy>  (119) 
-9.0999999999999996

>  <m_primary>  (119) 
energy

>  <rmsd>  (119) 
5.641953903540179

>  <m_score__min__rmsd>  (119) 
5.641953903540179

>  <meeko>  (119) 
{"free_energy": -7.95, "intermolecular_energy": -10.34, "internal_energy": -3.34, "cluster_size": 28, "cluster_id": 5, "rank_in_cluster": 17}

>  <energy>  (119) 
-8.15

>  <cluster_rmsd>  (119) 
1.03

>  <cluster>  (119) 
4

$$$$

     RDKit          3D

 70 74  0  0  0  0  0  0  0  0999 V2000
  136.1560   69.5320  224.9670 C   0  0  0  0  0  0  0  0  0  0  0  0
  136.8750   68.8700  223.8220 C   0  0  0  0  0  0  0  0  0  0  0  0
  138.3260   68.7540  224.1240 C   0  0  0  0  0  0  0  0  0  0  0  0
  138.8270   67.5970  224.0050 O   0  0  0  0  0  0  0  0  0  0  0  0
  139.1080   69.8850  224.5260 N   0  0  0  0  0  0  0  0  0  0  0  0
  139.6920   69.8380  225.8210 C   0  0  0  0  0  0  0  0  0  0  0  0
  140.3000   70.9220  226.4200 C   0  0  0  0  0  0  0  0  0  0  0  0
  140.8450   70.8090  227.6870 C   0  0  0  0  0  0  0  0  0  0  0  0
  140.7820   69.5960  228.3630 C   0  0  0  0  0  0  0  0  0  0  0  0
  140.1750   68.5150  227.7600 C   0  0  0  0  0  0  0  0  0  0  0  0
  139.6240   68.6140  226.4910 C   0  0  0  0  0  0  0  0  0  0  0  0
  139.2670   70.9980  223.6250 C   0  0  0  0  0  0  0  0  0  0  0  0
  137.9480   71.6880  223.2990 C   0  0  0  0  0  0  0  0  0  0  0  0
  138.0870   72.4340  221.9760 C   0  0  0  0  0  0  0  0  0  0  0  0
  139.4770   72.8290  221.7850 N   0  0  0  0  0  0  0  0  0  0  0  0
  139.7690   74.2110  221.7950 C   0  0  0  0  0  0  0  0  0  0  0  0
  138.7800   74.9860  221.9720 O   0  0  0  0  0  0  0  0  0  0  0  0
  141.0810   74.8330  221.6250 C   0  0  2  0  0  0  0  0  0  0  0  0
  141.0610   76.2360  222.0810 N   0  0  0  0  0  0  0  0  0  0  0  0
  141.6210   74.8110  220.2110 C   0  0  2  0  0  0  0  0  0  0  0  0
  142.0170   73.3810  219.9340 C   0  0  0  0  0  0  0  0  0  0  0  0
  143.4760   73.3430  220.1470 C   0  0  0  0  0  0  0  0  0  0  0  0
  144.3600   72.2860  220.2470 C   0  0  0  0  0  0  0  0  0  0  0  0
  145.7010   72.5320  220.4500 C   0  0  0  0  0  0  0  0  0  0  0  0
  146.1840   73.8200  220.5570 C   0  0  0  0  0  0  0  0  0  0  0  0
  145.3080   74.8770  220.4590 C   0  0  0  0  0  0  0  0  0  0  0  0
  143.9460   74.6290  220.2530 C   0  0  0  0  0  0  0  0  0  0  0  0
  142.8640   75.6280  220.1230 C   0  0  1  0  0  0  0  0  0  0  0  0
  143.0450   76.3190  218.8140 C   0  0  0  0  0  0  0  0  0  0  0  0
  143.6140   75.7130  217.7160 C   0  0  0  0  0  0  0  0  0  0  0  0
  143.7510   76.4110  216.5330 C   0  0  0  0  0  0  0  0  0  0  0  0
  143.3310   77.7230  216.3990 C   0  0  0  0  0  0  0  0  0  0  0  0
  142.7770   78.2990  217.4850 N   0  0  0  0  0  0  0  0  0  0  0  0
  142.6340   77.6270  218.6600 C   0  0  0  0  0  0  0  0  0  0  0  0
  140.4390   71.7720  221.6110 C   0  0  0  0  0  0  0  0  0  0  0  0
  139.9660   70.5540  222.3620 C   0  0  0  0  0  0  0  0  0  0  0  0
  136.5612   69.1589  225.9192 H   0  0  0  0  0  0  0  0  0  0  0  0
  136.2991   70.6211  224.9092 H   0  0  0  0  0  0  0  0  0  0  0  0
  135.0824   69.2997  224.9092 H   0  0  0  0  0  0  0  0  0  0  0  0
  136.4559   67.8656  223.6620 H   0  0  0  0  0  0  0  0  0  0  0  0
  136.7450   69.4803  222.9161 H   0  0  0  0  0  0  0  0  0  0  0  0
  140.3519   71.8827  225.8868 H   0  0  0  0  0  0  0  0  0  0  0  0
  141.3274   71.6779  228.1585 H   0  0  0  0  0  0  0  0  0  0  0  0
  141.2128   69.4995  229.3705 H   0  0  0  0  0  0  0  0  0  0  0  0
  140.1267   67.5554  228.2956 H   0  0  0  0  0  0  0  0  0  0  0  0
  139.1421   67.7443  226.0205 H   0  0  0  0  0  0  0  0  0  0  0  0
  139.8901   71.7433  224.1410 H   0  0  0  0  0  0  0  0  0  0  0  0
  137.1499   70.9357  223.2153 H   0  0  0  0  0  0  0  0  0  0  0  0
  137.6944   72.3985  224.0995 H   0  0  0  0  0  0  0  0  0  0  0  0
  137.7756   71.7774  221.1503 H   0  0  0  0  0  0  0  0  0  0  0  0
  137.4498   73.3305  221.9917 H   0  0  0  0  0  0  0  0  0  0  0  0
  141.7514   74.2150  222.2403 H   0  0  0  0  0  0  0  0  0  0  0  0
  140.1750   76.7150  221.8030 H   0  0  0  0  0  0  0  0  0  0  0  0
  141.8280   76.7740  221.6380 H   0  0  0  0  0  0  0  0  0  0  0  0
  140.8697   75.2015  219.5088 H   0  0  0  0  0  0  0  0  0  0  0  0
  141.5067   72.6968  220.6279 H   0  0  0  0  0  0  0  0  0  0  0  0
  141.7385   73.0636  218.9183 H   0  0  0  0  0  0  0  0  0  0  0  0
  143.9949   71.2516  220.1649 H   0  0  0  0  0  0  0  0  0  0  0  0
  146.3992   71.6856  220.5282 H   0  0  0  0  0  0  0  0  0  0  0  0
  147.2570   74.0000  220.7188 H   0  0  0  0  0  0  0  0  0  0  0  0
  145.6760   75.9103  220.5420 H   0  0  0  0  0  0  0  0  0  0  0  0
  142.8441   76.4211  220.8850 H   0  0  0  0  0  0  0  0  0  0  0  0
  143.9599   74.6709  217.7818 H   0  0  0  0  0  0  0  0  0  0  0  0
  144.2090   75.9081  215.6685 H   0  0  0  0  0  0  0  0  0  0  0  0
  143.4438   78.2700  215.4513 H   0  0  0  0  0  0  0  0  0  0  0  0
  142.1753   78.1442  219.5156 H   0  0  0  0  0  0  0  0  0  0  0  0
  140.5352   71.5324  220.5417 H   0  0  0  0  0  0  0  0  0  0  0  0
  141.4182   72.0915  221.9972 H   0  0  0  0  0  0  0  0  0  0  0  0
  139.2666   69.9820  221.7346 H   0  0  0  0  0  0  0  0  0  0  0  0
  140.8255   69.9164  222.6165 H   0  0  0  0  0  0  0  0  0  0  0  0
  1  2  1  0
  2  3  1  0
  3  4  2  0
  3  5  1  0
  5  6  1  0
  6  7  2  0
  7  8  1  0
  8  9  2  0
  9 10  1  0
 10 11  2  0
  5 12  1  0
 12 13  1  0
 13 14  1  0
 14 15  1  0
 15 16  1  0
 16 17  2  0
 16 18  1  0
 18 19  1  0
 18 20  1  0
 20 21  1  0
 21 22  1  0
 22 23  2  0
 23 24  1  0
 24 25  2  0
 25 26  1  0
 26 27  2  0
 27 28  1  0
 28 29  1  0
 29 30  2  0
 30 31  1  0
 31 32  2  0
 32 33  1  0
 33 34  2  0
 15 35  1  0
 35 36  1  0
 11  6  1  0
 36 12  1  0
 28 20  1  0
 34 29  1  0
 27 22  1  0
  1 37  1  0
  1 38  1  0
  1 39  1  0
  2 40  1  0
  2 41  1  0
  7 42  1  0
  8 43  1  0
  9 44  1  0
 10 45  1  0
 11 46  1  0
 12 47  1  0
 13 48  1  0
 13 49  1  0
 14 50  1  0
 14 51  1  0
 18 52  1  1
 19 53  1  0
 19 54  1  0
 20 55  1  6
 21 56  1  0
 21 57  1  0
 23 58  1  0
 24 59  1  0
 25 60  1  0
 26 61  1  0
 28 62  1  1
 30 63  1  0
 31 64  1  0
 32 65  1  0
 34 66  1  0
 35 67  1  0
 35 68  1  0
 36 69  1  0
 36 70  1  0
M  END
>  <smiles>  (120) 
CCC(=O)N(c1ccccc1)C1CCN(C(=O)[C@H](N)C2Cc3ccccc3C2c2cccnc2)CC1

>  <score_type>  (120) 
oracle

>  <origin>  (120) 
autodockgpu

>  <m_score__min__energy>  (120) 
-9.0999999999999996

>  <m_primary>  (120) 
energy

>  <rmsd>  (120) 
8.018290298193465

>  <m_score__min__rmsd>  (120) 
8.018290298193465

>  <meeko>  (120) 
{"free_energy": -8.94, "intermolecular_energy": -11.32, "internal_energy": -2.36, "cluster_size": 12, "cluster_id": 1, "rank_in_cluster": 2}

>  <energy>  (120) 
-8.12

>  <cluster_rmsd>  (120) 
0.4

>  <cluster>  (120) 
4

$$$$

     RDKit          3D

 70 74  0  0  0  0  0  0  0  0999 V2000
  139.1590   81.8600  220.8830 C   0  0  0  0  0  0  0  0  0  0  0  0
  137.9620   81.5850  221.7540 C   0  0  0  0  0  0  0  0  0  0  0  0
  138.3150   80.6080  222.8180 C   0  0  0  0  0  0  0  0  0  0  0  0
  137.5950   80.6390  223.8610 O   0  0  0  0  0  0  0  0  0  0  0  0
  139.4020   79.6870  222.6710 N   0  0  0  0  0  0  0  0  0  0  0  0
  140.6860   80.1330  223.0910 C   0  0  0  0  0  0  0  0  0  0  0  0
  140.8840   81.2670  223.8500 C   0  0  0  0  0  0  0  0  0  0  0  0
  142.1610   81.6410  224.2310 C   0  0  0  0  0  0  0  0  0  0  0  0
  143.2530   80.8720  223.8460 C   0  0  0  0  0  0  0  0  0  0  0  0
  143.0490   79.7390  223.0870 C   0  0  0  0  0  0  0  0  0  0  0  0
  141.7760   79.3520  222.6990 C   0  0  0  0  0  0  0  0  0  0  0  0
  139.1600   78.3810  222.1150 C   0  0  0  0  0  0  0  0  0  0  0  0
  138.4730   78.4340  220.7560 C   0  0  0  0  0  0  0  0  0  0  0  0
  137.7590   77.1090  220.5030 C   0  0  0  0  0  0  0  0  0  0  0  0
  138.4540   76.0420  221.2130 N   0  0  0  0  0  0  0  0  0  0  0  0
  139.0900   75.0490  220.4360 C   0  0  0  0  0  0  0  0  0  0  0  0
  138.9960   75.1830  219.1780 O   0  0  0  0  0  0  0  0  0  0  0  0
  139.8390   73.8950  220.9290 C   0  0  2  0  0  0  0  0  0  0  0  0
  139.2710   73.4000  222.1980 N   0  0  0  0  0  0  0  0  0  0  0  0
  141.3180   74.1360  221.1450 C   0  0  2  0  0  0  0  0  0  0  0  0
  141.4460   75.5650  221.6160 C   0  0  0  0  0  0  0  0  0  0  0  0
  141.8280   76.3280  220.4130 C   0  0  0  0  0  0  0  0  0  0  0  0
  141.8840   77.6860  220.1700 C   0  0  0  0  0  0  0  0  0  0  0  0
  142.2830   78.1440  218.9320 C   0  0  0  0  0  0  0  0  0  0  0  0
  142.6290   77.2690  217.9230 C   0  0  0  0  0  0  0  0  0  0  0  0
  142.5750   75.9140  218.1600 C   0  0  0  0  0  0  0  0  0  0  0  0
  142.1700   75.4480  219.4150 C   0  0  0  0  0  0  0  0  0  0  0  0
  142.0490   74.0400  219.8510 C   0  0  1  0  0  0  0  0  0  0  0  0
  143.4300   73.4890  219.9730 C   0  0  0  0  0  0  0  0  0  0  0  0
  144.3790   74.0170  220.8190 C   0  0  0  0  0  0  0  0  0  0  0  0
  145.6390   73.4560  220.8840 C   0  0  0  0  0  0  0  0  0  0  0  0
  145.9970   72.3600  220.1180 C   0  0  0  0  0  0  0  0  0  0  0  0
  145.0540   71.8570  219.2950 N   0  0  0  0  0  0  0  0  0  0  0  0
  143.8070   72.3970  219.2180 C   0  0  0  0  0  0  0  0  0  0  0  0
  138.4380   76.0960  222.6520 C   0  0  0  0  0  0  0  0  0  0  0  0
  138.3660   77.5380  223.0840 C   0  0  0  0  0  0  0  0  0  0  0  0
  140.0352   82.0613  221.5168 H   0  0  0  0  0  0  0  0  0  0  0  0
  139.3592   80.9845  220.2479 H   0  0  0  0  0  0  0  0  0  0  0  0
  138.9570   82.7351  220.2479 H   0  0  0  0  0  0  0  0  0  0  0  0
  137.6277   82.5240  222.2193 H   0  0  0  0  0  0  0  0  0  0  0  0
  137.1559   81.1653  221.1343 H   0  0  0  0  0  0  0  0  0  0  0  0
  140.0217   81.8782  224.1546 H   0  0  0  0  0  0  0  0  0  0  0  0
  142.3115   82.5460  224.8379 H   0  0  0  0  0  0  0  0  0  0  0  0
  144.2706   81.1646  224.1441 H   0  0  0  0  0  0  0  0  0  0  0  0
  143.9136   79.1304  222.7835 H   0  0  0  0  0  0  0  0  0  0  0  0
  141.6266   78.4461  222.0932 H   0  0  0  0  0  0  0  0  0  0  0  0
  140.1426   77.9150  221.9498 H   0  0  0  0  0  0  0  0  0  0  0  0
  137.7405   79.2546  220.7457 H   0  0  0  0  0  0  0  0  0  0  0  0
  139.2224   78.6062  219.9694 H   0  0  0  0  0  0  0  0  0  0  0  0
  136.7222   77.1758  220.8644 H   0  0  0  0  0  0  0  0  0  0  0  0
  137.7568   76.8925  219.4245 H   0  0  0  0  0  0  0  0  0  0  0  0
  139.7427   73.1522  220.1234 H   0  0  0  0  0  0  0  0  0  0  0  0
  138.2280   73.4670  222.2000 H   0  0  0  0  0  0  0  0  0  0  0  0
  139.5960   73.9790  222.9930 H   0  0  0  0  0  0  0  0  0  0  0  0
  141.7256   73.4019  221.8557 H   0  0  0  0  0  0  0  0  0  0  0  0
  140.4879   75.9279  222.0164 H   0  0  0  0  0  0  0  0  0  0  0  0
  142.1841   75.6700  222.4248 H   0  0  0  0  0  0  0  0  0  0  0  0
  141.6113   78.4000  220.9611 H   0  0  0  0  0  0  0  0  0  0  0  0
  142.3262   79.2272  218.7455 H   0  0  0  0  0  0  0  0  0  0  0  0
  142.9444   77.6497  216.9404 H   0  0  0  0  0  0  0  0  0  0  0  0
  142.8487   75.2022  217.3673 H   0  0  0  0  0  0  0  0  0  0  0  0
  141.5110   73.3661  219.1681 H   0  0  0  0  0  0  0  0  0  0  0  0
  144.1330   74.8877  221.4446 H   0  0  0  0  0  0  0  0  0  0  0  0
  146.3822   73.8941  221.5664 H   0  0  0  0  0  0  0  0  0  0  0  0
  147.0033   71.9198  220.1776 H   0  0  0  0  0  0  0  0  0  0  0  0
  143.0749   71.9478  218.5307 H   0  0  0  0  0  0  0  0  0  0  0  0
  137.5609   75.5520  223.0325 H   0  0  0  0  0  0  0  0  0  0  0  0
  139.3507   75.6312  223.0532 H   0  0  0  0  0  0  0  0  0  0  0  0
  137.3173   77.8699  223.0883 H   0  0  0  0  0  0  0  0  0  0  0  0
  138.7820   77.6441  224.0968 H   0  0  0  0  0  0  0  0  0  0  0  0
  1  2  1  0
  2  3  1  0
  3  4  2  0
  3  5  1  0
  5  6  1  0
  6  7  2  0
  7  8  1  0
  8  9  2  0
  9 10  1  0
 10 11  2  0
  5 12  1  0
 12 13  1  0
 13 14  1  0
 14 15  1  0
 15 16  1  0
 16 17  2  0
 16 18  1  0
 18 19  1  0
 18 20  1  0
 20 21  1  0
 21 22  1  0
 22 23  2  0
 23 24  1  0
 24 25  2  0
 25 26  1  0
 26 27  2  0
 27 28  1  0
 28 29  1  0
 29 30  2  0
 30 31  1  0
 31 32  2  0
 32 33  1  0
 33 34  2  0
 15 35  1  0
 35 36  1  0
 11  6  1  0
 36 12  1  0
 28 20  1  0
 34 29  1  0
 27 22  1  0
  1 37  1  0
  1 38  1  0
  1 39  1  0
  2 40  1  0
  2 41  1  0
  7 42  1  0
  8 43  1  0
  9 44  1  0
 10 45  1  0
 11 46  1  0
 12 47  1  0
 13 48  1  0
 13 49  1  0
 14 50  1  0
 14 51  1  0
 18 52  1  6
 19 53  1  0
 19 54  1  0
 20 55  1  1
 21 56  1  0
 21 57  1  0
 23 58  1  0
 24 59  1  0
 25 60  1  0
 26 61  1  0
 28 62  1  6
 30 63  1  0
 31 64  1  0
 32 65  1  0
 34 66  1  0
 35 67  1  0
 35 68  1  0
 36 69  1  0
 36 70  1  0
M  END
>  <smiles>  (121) 
CCC(=O)N(c1ccccc1)C1CCN(C(=O)[C@H](N)C2Cc3ccccc3C2c2cccnc2)CC1

>  <score_type>  (121) 
oracle

>  <origin>  (121) 
autodockgpu

>  <m_score__min__energy>  (121) 
-9.0999999999999996

>  <m_primary>  (121) 
energy

>  <rmsd>  (121) 
5.701308572525703

>  <m_score__min__rmsd>  (121) 
5.701308572525703

>  <meeko>  (121) 
{"free_energy": -7.81, "intermolecular_energy": -10.2, "internal_energy": -3.28, "cluster_size": 28, "cluster_id": 5, "rank_in_cluster": 24}

>  <energy>  (121) 
-8.0

>  <cluster_rmsd>  (121) 
0.67

>  <cluster>  (121) 
4

$$$$

     RDKit          3D

 70 74  0  0  0  0  0  0  0  0999 V2000
  138.1300   80.5150  224.1880 C   0  0  0  0  0  0  0  0  0  0  0  0
  137.9680   79.9730  222.7930 C   0  0  0  0  0  0  0  0  0  0  0  0
  138.2100   78.5070  222.7800 C   0  0  0  0  0  0  0  0  0  0  0  0
  137.2060   77.7760  223.0320 O   0  0  0  0  0  0  0  0  0  0  0  0
  139.5010   77.9550  222.4970 N   0  0  0  0  0  0  0  0  0  0  0  0
  140.6090   78.8450  222.5500 C   0  0  0  0  0  0  0  0  0  0  0  0
  141.0940   79.5190  221.4490 C   0  0  0  0  0  0  0  0  0  0  0  0
  142.1740   80.3770  221.5720 C   0  0  0  0  0  0  0  0  0  0  0  0
  142.7760   80.5610  222.8110 C   0  0  0  0  0  0  0  0  0  0  0  0
  142.2870   79.8840  223.9090 C   0  0  0  0  0  0  0  0  0  0  0  0
  141.2060   79.0230  223.8010 C   0  0  0  0  0  0  0  0  0  0  0  0
  139.6250   76.5560  222.1770 C   0  0  0  0  0  0  0  0  0  0  0  0
  141.0740   76.0920  222.0990 C   0  0  0  0  0  0  0  0  0  0  0  0
  141.1530   74.8350  221.2390 C   0  0  0  0  0  0  0  0  0  0  0  0
  139.8910   74.1090  221.3260 N   0  0  0  0  0  0  0  0  0  0  0  0
  139.9100   72.8420  221.9500 C   0  0  0  0  0  0  0  0  0  0  0  0
  141.0370   72.4520  222.3820 O   0  0  0  0  0  0  0  0  0  0  0  0
  138.7740   71.9440  222.1480 C   0  0  2  0  0  0  0  0  0  0  0  0
  137.6840   72.6250  222.8730 N   0  0  0  0  0  0  0  0  0  0  0  0
  139.0930   70.6620  222.8880 C   0  0  2  0  0  0  0  0  0  0  0  0
  138.3790   69.5590  222.1450 C   0  0  0  0  0  0  0  0  0  0  0  0
  137.1460   69.3170  222.9170 C   0  0  0  0  0  0  0  0  0  0  0  0
  136.0110   68.5860  222.6250 C   0  0  0  0  0  0  0  0  0  0  0  0
  134.9830   68.5220  223.5420 C   0  0  0  0  0  0  0  0  0  0  0  0
  135.0640   69.1770  224.7530 C   0  0  0  0  0  0  0  0  0  0  0  0
  136.1920   69.9080  225.0490 C   0  0  0  0  0  0  0  0  0  0  0  0
  137.2360   69.9740  224.1200 C   0  0  0  0  0  0  0  0  0  0  0  0
  138.5150   70.7030  224.2600 C   0  0  1  0  0  0  0  0  0  0  0  0
  139.3300   69.9880  225.2840 C   0  0  0  0  0  0  0  0  0  0  0  0
  139.2080   68.6390  225.5350 C   0  0  0  0  0  0  0  0  0  0  0  0
  139.9950   68.0390  226.4980 C   0  0  0  0  0  0  0  0  0  0  0  0
  140.9230   68.7510  227.2380 C   0  0  0  0  0  0  0  0  0  0  0  0
  141.0280   70.0700  226.9780 N   0  0  0  0  0  0  0  0  0  0  0  0
  140.2600   70.6780  226.0330 C   0  0  0  0  0  0  0  0  0  0  0  0
  138.7270   74.7520  220.7730 C   0  0  0  0  0  0  0  0  0  0  0  0
  138.8940   76.2450  220.8930 C   0  0  0  0  0  0  0  0  0  0  0  0
  137.8942   79.7262  224.9175 H   0  0  0  0  0  0  0  0  0  0  0  0
  139.1676   80.8502  224.3329 H   0  0  0  0  0  0  0  0  0  0  0  0
  137.4466   81.3646  224.3329 H   0  0  0  0  0  0  0  0  0  0  0  0
  136.9457   80.1755  222.4411 H   0  0  0  0  0  0  0  0  0  0  0  0
  138.6973   80.4628  222.1310 H   0  0  0  0  0  0  0  0  0  0  0  0
  140.6200   79.3742  220.4670 H   0  0  0  0  0  0  0  0  0  0  0  0
  142.5550   80.9124  220.6899 H   0  0  0  0  0  0  0  0  0  0  0  0
  143.6348   81.2404  222.9152 H   0  0  0  0  0  0  0  0  0  0  0  0
  142.7642   80.0302  224.8893 H   0  0  0  0  0  0  0  0  0  0  0  0
  140.8249   78.4894  224.6842 H   0  0  0  0  0  0  0  0  0  0  0  0
  139.1620   75.9960  223.0029 H   0  0  0  0  0  0  0  0  0  0  0  0
  141.6903   76.8845  221.6495 H   0  0  0  0  0  0  0  0  0  0  0  0
  141.4462   75.8715  223.1104 H   0  0  0  0  0  0  0  0  0  0  0  0
  141.3428   75.1173  220.1929 H   0  0  0  0  0  0  0  0  0  0  0  0
  141.9714   74.1941  221.5989 H   0  0  0  0  0  0  0  0  0  0  0  0
  138.4727   71.6668  221.1270 H   0  0  0  0  0  0  0  0  0  0  0  0
  137.6930   73.6540  222.6950 H   0  0  0  0  0  0  0  0  0  0  0  0
  137.7990   72.5110  223.8960 H   0  0  0  0  0  0  0  0  0  0  0  0
  140.1816   70.5163  222.9487 H   0  0  0  0  0  0  0  0  0  0  0  0
  138.1376   69.8764  221.1198 H   0  0  0  0  0  0  0  0  0  0  0  0
  138.9963   68.6528  222.0563 H   0  0  0  0  0  0  0  0  0  0  0  0
  135.9274   68.0567  221.6643 H   0  0  0  0  0  0  0  0  0  0  0  0
  134.0820   67.9379  223.3032 H   0  0  0  0  0  0  0  0  0  0  0  0
  134.2360   69.1159  225.4746 H   0  0  0  0  0  0  0  0  0  0  0  0
  136.2722   70.4371  226.0101 H   0  0  0  0  0  0  0  0  0  0  0  0
  138.4423   71.7455  224.6033 H   0  0  0  0  0  0  0  0  0  0  0  0
  138.4821   68.0385  224.9671 H   0  0  0  0  0  0  0  0  0  0  0  0
  139.8808   66.9607  226.6829 H   0  0  0  0  0  0  0  0  0  0  0  0
  141.5458   68.2636  228.0026 H   0  0  0  0  0  0  0  0  0  0  0  0
  140.3854   71.7572  225.8607 H   0  0  0  0  0  0  0  0  0  0  0  0
  138.6203   74.4759  219.7136 H   0  0  0  0  0  0  0  0  0  0  0  0
  137.8278   74.4313  221.3194 H   0  0  0  0  0  0  0  0  0  0  0  0
  139.4745   76.6211  220.0377 H   0  0  0  0  0  0  0  0  0  0  0  0
  137.9068   76.7301  220.9004 H   0  0  0  0  0  0  0  0  0  0  0  0
  1  2  1  0
  2  3  1  0
  3  4  2  0
  3  5  1  0
  5  6  1  0
  6  7  2  0
  7  8  1  0
  8  9  2  0
  9 10  1  0
 10 11  2  0
  5 12  1  0
 12 13  1  0
 13 14  1  0
 14 15  1  0
 15 16  1  0
 16 17  2  0
 16 18  1  0
 18 19  1  0
 18 20  1  0
 20 21  1  0
 21 22  1  0
 22 23  2  0
 23 24  1  0
 24 25  2  0
 25 26  1  0
 26 27  2  0
 27 28  1  0
 28 29  1  0
 29 30  2  0
 30 31  1  0
 31 32  2  0
 32 33  1  0
 33 34  2  0
 15 35  1  0
 35 36  1  0
 11  6  1  0
 36 12  1  0
 28 20  1  0
 34 29  1  0
 27 22  1  0
  1 37  1  0
  1 38  1  0
  1 39  1  0
  2 40  1  0
  2 41  1  0
  7 42  1  0
  8 43  1  0
  9 44  1  0
 10 45  1  0
 11 46  1  0
 12 47  1  0
 13 48  1  0
 13 49  1  0
 14 50  1  0
 14 51  1  0
 18 52  1  6
 19 53  1  0
 19 54  1  0
 20 55  1  1
 21 56  1  0
 21 57  1  0
 23 58  1  0
 24 59  1  0
 25 60  1  0
 26 61  1  0
 28 62  1  1
 30 63  1  0
 31 64  1  0
 32 65  1  0
 34 66  1  0
 35 67  1  0
 35 68  1  0
 36 69  1  0
 36 70  1  0
M  END
>  <smiles>  (122) 
CCC(=O)N(c1ccccc1)C1CCN(C(=O)[C@H](N)C2Cc3ccccc3C2c2cccnc2)CC1

>  <score_type>  (122) 
oracle

>  <origin>  (122) 
autodockgpu

>  <m_score__min__energy>  (122) 
-9.0999999999999996

>  <m_primary>  (122) 
energy

>  <rmsd>  (122) 
8.749839079589668

>  <m_score__min__rmsd>  (122) 
8.749839079589668

>  <meeko>  (122) 
{"free_energy": -8.98, "intermolecular_energy": -11.37, "internal_energy": -2.05, "cluster_size": 2, "cluster_id": 2, "rank_in_cluster": 2}

>  <energy>  (122) 
-8.23

>  <cluster_rmsd>  (122) 
0.0

>  <cluster>  (122) 
5

$$$$

     RDKit          3D

 70 74  0  0  0  0  0  0  0  0999 V2000
  139.9460   82.7650  220.9200 C   0  0  0  0  0  0  0  0  0  0  0  0
  138.7180   81.8940  220.9320 C   0  0  0  0  0  0  0  0  0  0  0  0
  138.7240   81.0130  222.1290 C   0  0  0  0  0  0  0  0  0  0  0  0
  137.8270   81.2440  222.9930 O   0  0  0  0  0  0  0  0  0  0  0  0
  139.6880   79.9660  222.2940 N   0  0  0  0  0  0  0  0  0  0  0  0
  140.9420   80.3270  222.8600 C   0  0  0  0  0  0  0  0  0  0  0  0
  141.0930   81.3350  223.7890 C   0  0  0  0  0  0  0  0  0  0  0  0
  142.3440   81.6320  224.3040 C   0  0  0  0  0  0  0  0  0  0  0  0
  143.4560   80.9120  223.8820 C   0  0  0  0  0  0  0  0  0  0  0  0
  143.2990   79.9060  222.9520 C   0  0  0  0  0  0  0  0  0  0  0  0
  142.0530   79.5970  222.4280 C   0  0  0  0  0  0  0  0  0  0  0  0
  139.3580   78.6230  221.8910 C   0  0  0  0  0  0  0  0  0  0  0  0
  138.5240   78.5770  220.6160 C   0  0  0  0  0  0  0  0  0  0  0  0
  137.7600   77.2580  220.5650 C   0  0  0  0  0  0  0  0  0  0  0  0
  138.5070   76.2370  221.2900 N   0  0  0  0  0  0  0  0  0  0  0  0
  139.0320   75.1600  220.5420 C   0  0  0  0  0  0  0  0  0  0  0  0
  138.8010   75.1850  219.2940 O   0  0  0  0  0  0  0  0  0  0  0  0
  139.8080   74.0310  221.0520 C   0  0  2  0  0  0  0  0  0  0  0  0
  139.2650   73.5590  222.3410 N   0  0  0  0  0  0  0  0  0  0  0  0
  141.2850   74.3040  221.2440 C   0  0  2  0  0  0  0  0  0  0  0  0
  141.4000   75.7680  221.5920 C   0  0  0  0  0  0  0  0  0  0  0  0
  141.7720   76.4310  220.3280 C   0  0  0  0  0  0  0  0  0  0  0  0
  141.8150   77.7650  219.9720 C   0  0  0  0  0  0  0  0  0  0  0  0
  142.2070   78.1210  218.6990 C   0  0  0  0  0  0  0  0  0  0  0  0
  142.5590   77.1680  217.7660 C   0  0  0  0  0  0  0  0  0  0  0  0
  142.5180   75.8370  218.1160 C   0  0  0  0  0  0  0  0  0  0  0  0
  142.1200   75.4740  219.4070 C   0  0  0  0  0  0  0  0  0  0  0  0
  142.0140   74.1070  219.9600 C   0  0  1  0  0  0  0  0  0  0  0  0
  143.4000   73.5800  220.1240 C   0  0  0  0  0  0  0  0  0  0  0  0
  144.4530   74.3540  220.5580 C   0  0  0  0  0  0  0  0  0  0  0  0
  145.7120   73.8030  220.6890 C   0  0  0  0  0  0  0  0  0  0  0  0
  145.9670   72.4740  220.3950 C   0  0  0  0  0  0  0  0  0  0  0  0
  144.9240   71.7320  219.9710 N   0  0  0  0  0  0  0  0  0  0  0  0
  143.6760   72.2590  219.8370 C   0  0  0  0  0  0  0  0  0  0  0  0
  138.6540   76.4180  222.7110 C   0  0  0  0  0  0  0  0  0  0  0  0
  138.6600   77.8940  223.0140 C   0  0  0  0  0  0  0  0  0  0  0  0
  140.2518   82.9819  221.9541 H   0  0  0  0  0  0  0  0  0  0  0  0
  140.7613   82.2422  220.3985 H   0  0  0  0  0  0  0  0  0  0  0  0
  139.7221   83.7073  220.3985 H   0  0  0  0  0  0  0  0  0  0  0  0
  137.8213   82.5308  220.9543 H   0  0  0  0  0  0  0  0  0  0  0  0
  138.7130   81.2689  220.0269 H   0  0  0  0  0  0  0  0  0  0  0  0
  140.2146   81.9066  224.1230 H   0  0  0  0  0  0  0  0  0  0  0  0
  142.4576   82.4363  225.0458 H   0  0  0  0  0  0  0  0  0  0  0  0
  144.4525   81.1429  224.2865 H   0  0  0  0  0  0  0  0  0  0  0  0
  144.1798   79.3373  222.6192 H   0  0  0  0  0  0  0  0  0  0  0  0
  141.9409   78.7925  221.6862 H   0  0  0  0  0  0  0  0  0  0  0  0
  140.3061   78.1135  221.6638 H   0  0  0  0  0  0  0  0  0  0  0  0
  137.8118   79.4153  220.6116 H   0  0  0  0  0  0  0  0  0  0  0  0
  139.1836   78.6566  219.7393 H   0  0  0  0  0  0  0  0  0  0  0  0
  136.7714   77.3884  221.0293 H   0  0  0  0  0  0  0  0  0  0  0  0
  137.6341   76.9467  219.5175 H   0  0  0  0  0  0  0  0  0  0  0  0
  139.7154   73.2670  220.2660 H   0  0  0  0  0  0  0  0  0  0  0  0
  138.4650   74.1510  222.6570 H   0  0  0  0  0  0  0  0  0  0  0  0
  139.9820   73.6250  223.0850 H   0  0  0  0  0  0  0  0  0  0  0  0
  141.7009   73.6368  222.0134 H   0  0  0  0  0  0  0  0  0  0  0  0
  140.4392   76.1541  221.9632 H   0  0  0  0  0  0  0  0  0  0  0  0
  142.1390   75.9477  222.3867 H   0  0  0  0  0  0  0  0  0  0  0  0
  141.5376   78.5403  220.7013 H   0  0  0  0  0  0  0  0  0  0  0  0
  142.2396   79.1851  218.4222 H   0  0  0  0  0  0  0  0  0  0  0  0
  142.8689   77.4679  216.7541 H   0  0  0  0  0  0  0  0  0  0  0  0
  142.7965   75.0638  217.3849 H   0  0  0  0  0  0  0  0  0  0  0  0
  141.4811   73.3737  219.3369 H   0  0  0  0  0  0  0  0  0  0  0  0
  144.2905   75.4144  220.8010 H   0  0  0  0  0  0  0  0  0  0  0  0
  146.5385   74.4396  221.0378 H   0  0  0  0  0  0  0  0  0  0  0  0
  146.9736   72.0436  220.5024 H   0  0  0  0  0  0  0  0  0  0  0  0
  142.8597   71.6095  219.4880 H   0  0  0  0  0  0  0  0  0  0  0  0
  137.8145   75.9366  223.2339 H   0  0  0  0  0  0  0  0  0  0  0  0
  139.5961   75.9628  223.0505 H   0  0  0  0  0  0  0  0  0  0  0  0
  137.6253   78.2567  223.1023 H   0  0  0  0  0  0  0  0  0  0  0  0
  139.1885   78.0770  223.9612 H   0  0  0  0  0  0  0  0  0  0  0  0
  1  2  1  0
  2  3  1  0
  3  4  2  0
  3  5  1  0
  5  6  1  0
  6  7  2  0
  7  8  1  0
  8  9  2  0
  9 10  1  0
 10 11  2  0
  5 12  1  0
 12 13  1  0
 13 14  1  0
 14 15  1  0
 15 16  1  0
 16 17  2  0
 16 18  1  0
 18 19  1  0
 18 20  1  0
 20 21  1  0
 21 22  1  0
 22 23  2  0
 23 24  1  0
 24 25  2  0
 25 26  1  0
 26 27  2  0
 27 28  1  0
 28 29  1  0
 29 30  2  0
 30 31  1  0
 31 32  2  0
 32 33  1  0
 33 34  2  0
 15 35  1  0
 35 36  1  0
 11  6  1  0
 36 12  1  0
 28 20  1  0
 34 29  1  0
 27 22  1  0
  1 37  1  0
  1 38  1  0
  1 39  1  0
  2 40  1  0
  2 41  1  0
  7 42  1  0
  8 43  1  0
  9 44  1  0
 10 45  1  0
 11 46  1  0
 12 47  1  0
 13 48  1  0
 13 49  1  0
 14 50  1  0
 14 51  1  0
 18 52  1  6
 19 53  1  0
 19 54  1  0
 20 55  1  1
 21 56  1  0
 21 57  1  0
 23 58  1  0
 24 59  1  0
 25 60  1  0
 26 61  1  0
 28 62  1  6
 30 63  1  0
 31 64  1  0
 32 65  1  0
 34 66  1  0
 35 67  1  0
 35 68  1  0
 36 69  1  0
 36 70  1  0
M  END
>  <smiles>  (123) 
CCC(=O)N(c1ccccc1)C1CCN(C(=O)[C@H](N)C2Cc3ccccc3C2c2cccnc2)CC1

>  <score_type>  (123) 
oracle

>  <origin>  (123) 
autodockgpu

>  <m_score__min__energy>  (123) 
-9.0999999999999996

>  <m_primary>  (123) 
energy

>  <rmsd>  (123) 
5.631466087195514

>  <m_score__min__rmsd>  (123) 
5.631466087195514

>  <meeko>  (123) 
{"free_energy": -7.92, "intermolecular_energy": -10.3, "internal_energy": -3.21, "cluster_size": 28, "cluster_id": 5, "rank_in_cluster": 18}

>  <energy>  (123) 
-8.22

>  <cluster_rmsd>  (123) 
0.27

>  <cluster>  (123) 
5

$$$$

     RDKit          3D

 70 74  0  0  0  0  0  0  0  0999 V2000
  142.7400   80.8470  223.8500 C   0  0  0  0  0  0  0  0  0  0  0  0
  142.0500   80.0020  222.8130 C   0  0  0  0  0  0  0  0  0  0  0  0
  140.8120   80.6770  222.3410 C   0  0  0  0  0  0  0  0  0  0  0  0
  140.9740   81.7870  221.7530 O   0  0  0  0  0  0  0  0  0  0  0  0
  139.5140   80.1030  222.5410 N   0  0  0  0  0  0  0  0  0  0  0  0
  138.5550   80.9010  223.2240 C   0  0  0  0  0  0  0  0  0  0  0  0
  137.7550   81.8310  222.5940 C   0  0  0  0  0  0  0  0  0  0  0  0
  136.8370   82.5710  223.3190 C   0  0  0  0  0  0  0  0  0  0  0  0
  136.7180   82.3790  224.6900 C   0  0  0  0  0  0  0  0  0  0  0  0
  137.5200   81.4470  225.3150 C   0  0  0  0  0  0  0  0  0  0  0  0
  138.4440   80.6980  224.6020 C   0  0  0  0  0  0  0  0  0  0  0  0
  139.2390   78.7750  222.0560 C   0  0  0  0  0  0  0  0  0  0  0  0
  138.5010   78.7730  220.7230 C   0  0  0  0  0  0  0  0  0  0  0  0
  137.7670   77.4460  220.5590 C   0  0  0  0  0  0  0  0  0  0  0  0
  138.4780   76.4050  221.2910 N   0  0  0  0  0  0  0  0  0  0  0  0
  139.0750   75.3700  220.5380 C   0  0  0  0  0  0  0  0  0  0  0  0
  138.9350   75.4480  219.2790 O   0  0  0  0  0  0  0  0  0  0  0  0
  139.8310   74.2320  221.0550 C   0  0  2  0  0  0  0  0  0  0  0  0
  139.2710   73.7670  222.3390 N   0  0  0  0  0  0  0  0  0  0  0  0
  141.3100   74.4850  221.2580 C   0  0  2  0  0  0  0  0  0  0  0  0
  141.4370   75.9340  221.6610 C   0  0  0  0  0  0  0  0  0  0  0  0
  141.8170   76.6410  220.4230 C   0  0  0  0  0  0  0  0  0  0  0  0
  141.8710   77.9860  220.1170 C   0  0  0  0  0  0  0  0  0  0  0  0
  142.2680   78.3860  218.8590 C   0  0  0  0  0  0  0  0  0  0  0  0
  142.6140   77.4650  217.8920 C   0  0  0  0  0  0  0  0  0  0  0  0
  142.5620   76.1230  218.1920 C   0  0  0  0  0  0  0  0  0  0  0  0
  142.1590   75.7160  219.4680 C   0  0  0  0  0  0  0  0  0  0  0  0
  142.0400   74.3300  219.9700 C   0  0  1  0  0  0  0  0  0  0  0  0
  143.4220   73.7860  220.1160 C   0  0  0  0  0  0  0  0  0  0  0  0
  144.5040   74.5640  220.4640 C   0  0  0  0  0  0  0  0  0  0  0  0
  145.7560   73.9960  220.5830 C   0  0  0  0  0  0  0  0  0  0  0  0
  145.9770   72.6470  220.3630 C   0  0  0  0  0  0  0  0  0  0  0  0
  144.9050   71.9020  220.0230 N   0  0  0  0  0  0  0  0  0  0  0  0
  143.6630   72.4450  219.9010 C   0  0  0  0  0  0  0  0  0  0  0  0
  138.5170   76.5250  222.7260 C   0  0  0  0  0  0  0  0  0  0  0  0
  138.4740   77.9860  223.0920 C   0  0  0  0  0  0  0  0  0  0  0  0
  142.4562   80.4994  224.8543 H   0  0  0  0  0  0  0  0  0  0  0  0
  143.8297   80.7615  223.7268 H   0  0  0  0  0  0  0  0  0  0  0  0
  142.4384   81.8976  223.7268 H   0  0  0  0  0  0  0  0  0  0  0  0
  142.7276   79.8481  221.9602 H   0  0  0  0  0  0  0  0  0  0  0  0
  141.7824   79.0331  223.2598 H   0  0  0  0  0  0  0  0  0  0  0  0
  137.8470   81.9857  221.5088 H   0  0  0  0  0  0  0  0  0  0  0  0
  136.2019   83.3109  222.8099 H   0  0  0  0  0  0  0  0  0  0  0  0
  135.9909   82.9648  225.2715 H   0  0  0  0  0  0  0  0  0  0  0  0
  137.4248   81.2949  226.4003 H   0  0  0  0  0  0  0  0  0  0  0  0
  139.0779   79.9576  225.1119 H   0  0  0  0  0  0  0  0  0  0  0  0
  140.2105   78.2913  221.8765 H   0  0  0  0  0  0  0  0  0  0  0  0
  137.7757   79.5998  220.7026 H   0  0  0  0  0  0  0  0  0  0  0  0
  139.2210   78.9015  219.9014 H   0  0  0  0  0  0  0  0  0  0  0  0
  136.7452   77.5405  220.9553 H   0  0  0  0  0  0  0  0  0  0  0  0
  137.7230   77.1801  219.4925 H   0  0  0  0  0  0  0  0  0  0  0  0
  139.7344   73.4688  220.2688 H   0  0  0  0  0  0  0  0  0  0  0  0
  138.2280   73.8160  222.3400 H   0  0  0  0  0  0  0  0  0  0  0  0
  139.5870   74.3740  223.1160 H   0  0  0  0  0  0  0  0  0  0  0  0
  141.7186   73.7853  222.0019 H   0  0  0  0  0  0  0  0  0  0  0  0
  140.4789   76.3142  222.0451 H   0  0  0  0  0  0  0  0  0  0  0  0
  142.1761   76.0773  222.4630 H   0  0  0  0  0  0  0  0  0  0  0  0
  141.5982   78.7358  220.8742 H   0  0  0  0  0  0  0  0  0  0  0  0
  142.3097   79.4593  218.6218 H   0  0  0  0  0  0  0  0  0  0  0  0
  142.9280   77.7996  216.8923 H   0  0  0  0  0  0  0  0  0  0  0  0
  142.8356   75.3752  217.4331 H   0  0  0  0  0  0  0  0  0  0  0  0
  141.5019   73.6244  219.3198 H   0  0  0  0  0  0  0  0  0  0  0  0
  144.3698   75.6403  220.6475 H   0  0  0  0  0  0  0  0  0  0  0  0
  146.6062   74.6359  220.8617 H   0  0  0  0  0  0  0  0  0  0  0  0
  146.9790   72.2038  220.4608 H   0  0  0  0  0  0  0  0  0  0  0  0
  142.8229   71.7923  219.6215 H   0  0  0  0  0  0  0  0  0  0  0  0
  137.6502   76.0084  223.1640 H   0  0  0  0  0  0  0  0  0  0  0  0
  139.4397   76.0692  223.1144 H   0  0  0  0  0  0  0  0  0  0  0  0
  137.4291   78.3288  223.1192 H   0  0  0  0  0  0  0  0  0  0  0  0
  138.9285   78.1346  224.0826 H   0  0  0  0  0  0  0  0  0  0  0  0
  1  2  1  0
  2  3  1  0
  3  4  2  0
  3  5  1  0
  5  6  1  0
  6  7  2  0
  7  8  1  0
  8  9  2  0
  9 10  1  0
 10 11  2  0
  5 12  1  0
 12 13  1  0
 13 14  1  0
 14 15  1  0
 15 16  1  0
 16 17  2  0
 16 18  1  0
 18 19  1  0
 18 20  1  0
 20 21  1  0
 21 22  1  0
 22 23  2  0
 23 24  1  0
 24 25  2  0
 25 26  1  0
 26 27  2  0
 27 28  1  0
 28 29  1  0
 29 30  2  0
 30 31  1  0
 31 32  2  0
 32 33  1  0
 33 34  2  0
 15 35  1  0
 35 36  1  0
 11  6  1  0
 36 12  1  0
 28 20  1  0
 34 29  1  0
 27 22  1  0
  1 37  1  0
  1 38  1  0
  1 39  1  0
  2 40  1  0
  2 41  1  0
  7 42  1  0
  8 43  1  0
  9 44  1  0
 10 45  1  0
 11 46  1  0
 12 47  1  0
 13 48  1  0
 13 49  1  0
 14 50  1  0
 14 51  1  0
 18 52  1  6
 19 53  1  0
 19 54  1  0
 20 55  1  1
 21 56  1  0
 21 57  1  0
 23 58  1  0
 24 59  1  0
 25 60  1  0
 26 61  1  0
 28 62  1  6
 30 63  1  0
 31 64  1  0
 32 65  1  0
 34 66  1  0
 35 67  1  0
 35 68  1  0
 36 69  1  0
 36 70  1  0
M  END
>  <smiles>  (124) 
CCC(=O)N(c1ccccc1)C1CCN(C(=O)[C@H](N)C2Cc3ccccc3C2c2cccnc2)CC1

>  <score_type>  (124) 
oracle

>  <origin>  (124) 
autodockgpu

>  <m_score__min__energy>  (124) 
-9.0999999999999996

>  <m_primary>  (124) 
energy

>  <rmsd>  (124) 
5.586071701904412

>  <m_score__min__rmsd>  (124) 
5.586071701904412

>  <meeko>  (124) 
{"free_energy": -7.98, "intermolecular_energy": -10.36, "internal_energy": -3.15, "cluster_size": 28, "cluster_id": 5, "rank_in_cluster": 13}

>  <energy>  (124) 
-8.17

>  <cluster_rmsd>  (124) 
0.27

>  <cluster>  (124) 
5

$$$$

     RDKit          3D

 70 74  0  0  0  0  0  0  0  0999 V2000
  138.5520   67.3430  222.7240 C   0  0  0  0  0  0  0  0  0  0  0  0
  137.3110   68.1800  222.8890 C   0  0  0  0  0  0  0  0  0  0  0  0
  137.4050   69.0000  224.1250 C   0  0  0  0  0  0  0  0  0  0  0  0
  136.4390   68.8940  224.9370 O   0  0  0  0  0  0  0  0  0  0  0  0
  138.5230   69.8590  224.3800 N   0  0  0  0  0  0  0  0  0  0  0  0
  139.3070   69.5720  225.5320 C   0  0  0  0  0  0  0  0  0  0  0  0
  139.3910   68.3180  226.0990 C   0  0  0  0  0  0  0  0  0  0  0  0
  140.1770   68.1060  227.2190 C   0  0  0  0  0  0  0  0  0  0  0  0
  140.8870   69.1630  227.7780 C   0  0  0  0  0  0  0  0  0  0  0  0
  140.7980   70.4150  227.2070 C   0  0  0  0  0  0  0  0  0  0  0  0
  140.0150   70.6420  226.0860 C   0  0  0  0  0  0  0  0  0  0  0  0
  138.8030   70.9520  223.4850 C   0  0  0  0  0  0  0  0  0  0  0  0
  137.5550   71.7390  223.1040 C   0  0  0  0  0  0  0  0  0  0  0  0
  137.8020   72.4650  221.7860 C   0  0  0  0  0  0  0  0  0  0  0  0
  139.2250   72.7520  221.6510 N   0  0  0  0  0  0  0  0  0  0  0  0
  139.6210   74.1070  221.6700 C   0  0  0  0  0  0  0  0  0  0  0  0
  138.6880   74.9570  221.8050 O   0  0  0  0  0  0  0  0  0  0  0  0
  140.9820   74.6260  221.5510 C   0  0  2  0  0  0  0  0  0  0  0  0
  141.0660   76.0080  222.0640 N   0  0  0  0  0  0  0  0  0  0  0  0
  141.5520   74.6170  220.1480 C   0  0  2  0  0  0  0  0  0  0  0  0
  141.9850   73.1960  219.8810 C   0  0  0  0  0  0  0  0  0  0  0  0
  143.4400   73.1900  220.1230 C   0  0  0  0  0  0  0  0  0  0  0  0
  144.3440   72.1530  220.2410 C   0  0  0  0  0  0  0  0  0  0  0  0
  145.6760   72.4280  220.4710 C   0  0  0  0  0  0  0  0  0  0  0  0
  146.1270   73.7260  220.5870 C   0  0  0  0  0  0  0  0  0  0  0  0
  145.2300   74.7640  220.4700 C   0  0  0  0  0  0  0  0  0  0  0  0
  143.8790   74.4860  220.2370 C   0  0  0  0  0  0  0  0  0  0  0  0
  142.7770   75.4610  220.0850 C   0  0  1  0  0  0  0  0  0  0  0  0
  142.9700   76.1550  218.7790 C   0  0  0  0  0  0  0  0  0  0  0  0
  143.5040   75.5380  217.6700 C   0  0  0  0  0  0  0  0  0  0  0  0
  143.6540   76.2400  216.4910 C   0  0  0  0  0  0  0  0  0  0  0  0
  143.2810   77.5670  216.3720 C   0  0  0  0  0  0  0  0  0  0  0  0
  142.7600   78.1540  217.4690 N   0  0  0  0  0  0  0  0  0  0  0  0
  142.6050   77.4790  218.6390 C   0  0  0  0  0  0  0  0  0  0  0  0
  140.1100   71.6230  221.5170 C   0  0  0  0  0  0  0  0  0  0  0  0
  139.5150   70.4490  222.2510 C   0  0  0  0  0  0  0  0  0  0  0  0
  138.9484   67.0757  223.7147 H   0  0  0  0  0  0  0  0  0  0  0  0
  138.3048   66.4264  222.1684 H   0  0  0  0  0  0  0  0  0  0  0  0
  139.3093   67.9156  222.1684 H   0  0  0  0  0  0  0  0  0  0  0  0
  137.2030   68.8448  222.0193 H   0  0  0  0  0  0  0  0  0  0  0  0
  136.4376   67.5156  222.9649 H   0  0  0  0  0  0  0  0  0  0  0  0
  138.8299   67.4805  225.6587 H   0  0  0  0  0  0  0  0  0  0  0  0
  140.2397   67.1029  227.6660 H   0  0  0  0  0  0  0  0  0  0  0  0
  141.5138   69.0019  228.6675 H   0  0  0  0  0  0  0  0  0  0  0  0
  141.3598   71.2505  227.6501 H   0  0  0  0  0  0  0  0  0  0  0  0
  139.9520   71.6458  225.6406 H   0  0  0  0  0  0  0  0  0  0  0  0
  139.4602   71.6496  224.0249 H   0  0  0  0  0  0  0  0  0  0  0  0
  136.7057   71.0493  222.9904 H   0  0  0  0  0  0  0  0  0  0  0  0
  137.3257   72.4717  223.8918 H   0  0  0  0  0  0  0  0  0  0  0  0
  137.4748   71.8295  220.9499 H   0  0  0  0  0  0  0  0  0  0  0  0
  137.2342   73.4070  221.7732 H   0  0  0  0  0  0  0  0  0  0  0  0
  141.5847   73.9302  222.1532 H   0  0  0  0  0  0  0  0  0  0  0  0
  141.8890   76.1320  222.6940 H   0  0  0  0  0  0  0  0  0  0  0  0
  140.2320   76.2360  222.6340 H   0  0  0  0  0  0  0  0  0  0  0  0
  140.8075   74.9913  219.4299 H   0  0  0  0  0  0  0  0  0  0  0  0
  141.4761   72.5014  220.5655 H   0  0  0  0  0  0  0  0  0  0  0  0
  141.7340   72.8718  218.8603 H   0  0  0  0  0  0  0  0  0  0  0  0
  144.0031   71.1110  220.1519 H   0  0  0  0  0  0  0  0  0  0  0  0
  146.3911   71.5973  220.5635 H   0  0  0  0  0  0  0  0  0  0  0  0
  147.1921   73.9299  220.7711 H   0  0  0  0  0  0  0  0  0  0  0  0
  145.5735   75.8052  220.5592 H   0  0  0  0  0  0  0  0  0  0  0  0
  142.7232   76.2534  220.8461 H   0  0  0  0  0  0  0  0  0  0  0  0
  143.8118   74.4833  217.7237 H   0  0  0  0  0  0  0  0  0  0  0  0
  144.0841   75.7277  215.6177 H   0  0  0  0  0  0  0  0  0  0  0  0
  143.4035   78.1173  215.4275 H   0  0  0  0  0  0  0  0  0  0  0  0
  142.1742   78.0057  219.5033 H   0  0  0  0  0  0  0  0  0  0  0  0
  140.2297   71.3715  220.4529 H   0  0  0  0  0  0  0  0  0  0  0  0
  141.0950   71.8682  221.9408 H   0  0  0  0  0  0  0  0  0  0  0  0
  138.7986   69.9297  221.5975 H   0  0  0  0  0  0  0  0  0  0  0  0
  140.3119   69.7483  222.5406 H   0  0  0  0  0  0  0  0  0  0  0  0
  1  2  1  0
  2  3  1  0
  3  4  2  0
  3  5  1  0
  5  6  1  0
  6  7  2  0
  7  8  1  0
  8  9  2  0
  9 10  1  0
 10 11  2  0
  5 12  1  0
 12 13  1  0
 13 14  1  0
 14 15  1  0
 15 16  1  0
 16 17  2  0
 16 18  1  0
 18 19  1  0
 18 20  1  0
 20 21  1  0
 21 22  1  0
 22 23  2  0
 23 24  1  0
 24 25  2  0
 25 26  1  0
 26 27  2  0
 27 28  1  0
 28 29  1  0
 29 30  2  0
 30 31  1  0
 31 32  2  0
 32 33  1  0
 33 34  2  0
 15 35  1  0
 35 36  1  0
 11  6  1  0
 36 12  1  0
 28 20  1  0
 34 29  1  0
 27 22  1  0
  1 37  1  0
  1 38  1  0
  1 39  1  0
  2 40  1  0
  2 41  1  0
  7 42  1  0
  8 43  1  0
  9 44  1  0
 10 45  1  0
 11 46  1  0
 12 47  1  0
 13 48  1  0
 13 49  1  0
 14 50  1  0
 14 51  1  0
 18 52  1  1
 19 53  1  0
 19 54  1  0
 20 55  1  6
 21 56  1  0
 21 57  1  0
 23 58  1  0
 24 59  1  0
 25 60  1  0
 26 61  1  0
 28 62  1  1
 30 63  1  0
 31 64  1  0
 32 65  1  0
 34 66  1  0
 35 67  1  0
 35 68  1  0
 36 69  1  0
 36 70  1  0
M  END
>  <smiles>  (125) 
CCC(=O)N(c1ccccc1)C1CCN(C(=O)[C@H](N)C2Cc3ccccc3C2c2cccnc2)CC1

>  <score_type>  (125) 
oracle

>  <origin>  (125) 
autodockgpu

>  <m_score__min__energy>  (125) 
-9.0999999999999996

>  <m_primary>  (125) 
energy

>  <rmsd>  (125) 
8.110415874423829

>  <m_score__min__rmsd>  (125) 
8.110415874423829

>  <meeko>  (125) 
{"free_energy": -8.7, "intermolecular_energy": -11.09, "internal_energy": -2.8, "cluster_size": 12, "cluster_id": 1, "rank_in_cluster": 6}

>  <energy>  (125) 
-8.14

>  <cluster_rmsd>  (125) 
0.31

>  <cluster>  (125) 
5

$$$$

     RDKit          3D

 70 74  0  0  0  0  0  0  0  0999 V2000
  137.6840   80.9390  224.6900 C   0  0  0  0  0  0  0  0  0  0  0  0
  136.9030   80.4180  223.5130 C   0  0  0  0  0  0  0  0  0  0  0  0
  137.7620   80.3870  222.3000 C   0  0  0  0  0  0  0  0  0  0  0  0
  137.3840   81.1140  221.3340 O   0  0  0  0  0  0  0  0  0  0  0  0
  138.9450   79.5820  222.2310 N   0  0  0  0  0  0  0  0  0  0  0  0
  140.1620   80.1870  222.6510 C   0  0  0  0  0  0  0  0  0  0  0  0
  140.5150   81.4820  222.3320 C   0  0  0  0  0  0  0  0  0  0  0  0
  141.7130   82.0110  222.7780 C   0  0  0  0  0  0  0  0  0  0  0  0
  142.5690   81.2360  223.5520 C   0  0  0  0  0  0  0  0  0  0  0  0
  142.2110   79.9420  223.8680 C   0  0  0  0  0  0  0  0  0  0  0  0
  141.0140   79.3990  223.4280 C   0  0  0  0  0  0  0  0  0  0  0  0
  138.8590   78.2270  221.7490 C   0  0  0  0  0  0  0  0  0  0  0  0
  138.2250   78.1300  220.3670 C   0  0  0  0  0  0  0  0  0  0  0  0
  137.6610   76.7260  220.1720 C   0  0  0  0  0  0  0  0  0  0  0  0
  138.4310   75.7800  220.9700 N   0  0  0  0  0  0  0  0  0  0  0  0
  139.1950   74.8150  220.2780 C   0  0  0  0  0  0  0  0  0  0  0  0
  139.1390   74.8660  219.0110 O   0  0  0  0  0  0  0  0  0  0  0  0
  140.0370   73.7750  220.8660 C   0  0  2  0  0  0  0  0  0  0  0  0
  139.5000   73.3360  222.1690 N   0  0  0  0  0  0  0  0  0  0  0  0
  141.4860   74.1640  221.0690 C   0  0  2  0  0  0  0  0  0  0  0  0
  141.4720   75.5720  221.6120 C   0  0  0  0  0  0  0  0  0  0  0  0
  141.7420   76.4320  220.4450 C   0  0  0  0  0  0  0  0  0  0  0  0
  141.6470   77.7990  220.2740 C   0  0  0  0  0  0  0  0  0  0  0  0
  141.9660   78.3600  219.0550 C   0  0  0  0  0  0  0  0  0  0  0  0
  142.3800   77.5800  217.9960 C   0  0  0  0  0  0  0  0  0  0  0  0
  142.4760   76.2170  218.1610 C   0  0  0  0  0  0  0  0  0  0  0  0
  142.1520   75.6460  219.3970 C   0  0  0  0  0  0  0  0  0  0  0  0
  142.1940   74.2130  219.7590 C   0  0  1  0  0  0  0  0  0  0  0  0
  143.6280   73.8090  219.8270 C   0  0  0  0  0  0  0  0  0  0  0  0
  144.4600   74.1580  220.8680 C   0  0  0  0  0  0  0  0  0  0  0  0
  145.7780   73.7480  220.8680 C   0  0  0  0  0  0  0  0  0  0  0  0
  146.3120   72.9840  219.8450 C   0  0  0  0  0  0  0  0  0  0  0  0
  145.4820   72.6530  218.8350 N   0  0  0  0  0  0  0  0  0  0  0  0
  144.1800   73.0470  218.8170 C   0  0  0  0  0  0  0  0  0  0  0  0
  138.3520   75.9150  222.4020 C   0  0  0  0  0  0  0  0  0  0  0  0
  138.1160   77.3640  222.7410 C   0  0  0  0  0  0  0  0  0  0  0  0
  137.1997   80.6160  225.6234 H   0  0  0  0  0  0  0  0  0  0  0  0
  138.7099   80.5437  224.6533 H   0  0  0  0  0  0  0  0  0  0  0  0
  137.7130   82.0380  224.6533 H   0  0  0  0  0  0  0  0  0  0  0  0
  136.5490   79.4002  223.7337 H   0  0  0  0  0  0  0  0  0  0  0  0
  136.0457   81.0821  223.3288 H   0  0  0  0  0  0  0  0  0  0  0  0
  139.8399   82.0976  221.7194 H   0  0  0  0  0  0  0  0  0  0  0  0
  141.9881   83.0444  222.5203 H   0  0  0  0  0  0  0  0  0  0  0  0
  143.5231   81.6509  223.9092 H   0  0  0  0  0  0  0  0  0  0  0  0
  142.8884   79.3292  224.4809 H   0  0  0  0  0  0  0  0  0  0  0  0
  140.7399   78.3655  223.6863 H   0  0  0  0  0  0  0  0  0  0  0  0
  139.8895   77.8561  221.6466 H   0  0  0  0  0  0  0  0  0  0  0  0
  137.4135   78.8677  220.2818 H   0  0  0  0  0  0  0  0  0  0  0  0
  138.9836   78.3341  219.5970 H   0  0  0  0  0  0  0  0  0  0  0  0
  136.6089   76.7054  220.4923 H   0  0  0  0  0  0  0  0  0  0  0  0
  137.7253   76.4484  219.1095 H   0  0  0  0  0  0  0  0  0  0  0  0
  140.0162   72.9639  220.1233 H   0  0  0  0  0  0  0  0  0  0  0  0
  138.4740   73.1490  222.1140 H   0  0  0  0  0  0  0  0  0  0  0  0
  139.6180   74.0790  222.8810 H   0  0  0  0  0  0  0  0  0  0  0  0
  141.9853   73.4433  221.7334 H   0  0  0  0  0  0  0  0  0  0  0  0
  140.4903   75.8087  222.0482 H   0  0  0  0  0  0  0  0  0  0  0  0
  142.2138   75.7146  222.4116 H   0  0  0  0  0  0  0  0  0  0  0  0
  141.3182   78.4381  221.1068 H   0  0  0  0  0  0  0  0  0  0  0  0
  141.8887   79.4496  218.9253 H   0  0  0  0  0  0  0  0  0  0  0  0
  142.6308   78.0421  217.0298 H   0  0  0  0  0  0  0  0  0  0  0  0
  142.8053   75.5804  217.3266 H   0  0  0  0  0  0  0  0  0  0  0  0
  141.7169   73.5198  219.0505 H   0  0  0  0  0  0  0  0  0  0  0  0
  144.0735   74.7643  221.7004 H   0  0  0  0  0  0  0  0  0  0  0  0
  146.4252   74.0381  221.7088 H   0  0  0  0  0  0  0  0  0  0  0  0
  147.3638   72.6620  219.8553 H   0  0  0  0  0  0  0  0  0  0  0  0
  143.5459   72.7483  217.9692 H   0  0  0  0  0  0  0  0  0  0  0  0
  137.5205   75.3055  222.7855 H   0  0  0  0  0  0  0  0  0  0  0  0
  139.2904   75.5717  222.8620 H   0  0  0  0  0  0  0  0  0  0  0  0
  137.0396   77.5847  222.6886 H   0  0  0  0  0  0  0  0  0  0  0  0
  138.4773   77.5717  223.7590 H   0  0  0  0  0  0  0  0  0  0  0  0
  1  2  1  0
  2  3  1  0
  3  4  2  0
  3  5  1  0
  5  6  1  0
  6  7  2  0
  7  8  1  0
  8  9  2  0
  9 10  1  0
 10 11  2  0
  5 12  1  0
 12 13  1  0
 13 14  1  0
 14 15  1  0
 15 16  1  0
 16 17  2  0
 16 18  1  0
 18 19  1  0
 18 20  1  0
 20 21  1  0
 21 22  1  0
 22 23  2  0
 23 24  1  0
 24 25  2  0
 25 26  1  0
 26 27  2  0
 27 28  1  0
 28 29  1  0
 29 30  2  0
 30 31  1  0
 31 32  2  0
 32 33  1  0
 33 34  2  0
 15 35  1  0
 35 36  1  0
 11  6  1  0
 36 12  1  0
 28 20  1  0
 34 29  1  0
 27 22  1  0
  1 37  1  0
  1 38  1  0
  1 39  1  0
  2 40  1  0
  2 41  1  0
  7 42  1  0
  8 43  1  0
  9 44  1  0
 10 45  1  0
 11 46  1  0
 12 47  1  0
 13 48  1  0
 13 49  1  0
 14 50  1  0
 14 51  1  0
 18 52  1  6
 19 53  1  0
 19 54  1  0
 20 55  1  1
 21 56  1  0
 21 57  1  0
 23 58  1  0
 24 59  1  0
 25 60  1  0
 26 61  1  0
 28 62  1  6
 30 63  1  0
 31 64  1  0
 32 65  1  0
 34 66  1  0
 35 67  1  0
 35 68  1  0
 36 69  1  0
 36 70  1  0
M  END
>  <smiles>  (126) 
CCC(=O)N(c1ccccc1)C1CCN(C(=O)[C@H](N)C2Cc3ccccc3C2c2cccnc2)CC1

>  <score_type>  (126) 
oracle

>  <origin>  (126) 
autodockgpu

>  <m_score__min__energy>  (126) 
-9.0999999999999996

>  <m_primary>  (126) 
energy

>  <rmsd>  (126) 
5.604943527393884

>  <m_score__min__rmsd>  (126) 
5.604943527393884

>  <meeko>  (126) 
{"free_energy": -7.97, "intermolecular_energy": -10.36, "internal_energy": -3.4, "cluster_size": 28, "cluster_id": 5, "rank_in_cluster": 15}

>  <energy>  (126) 
-8.13

>  <cluster_rmsd>  (126) 
0.37

>  <cluster>  (126) 
5

$$$$

     RDKit          3D

 70 74  0  0  0  0  0  0  0  0999 V2000
  137.2850   82.4440  222.5970 C   0  0  0  0  0  0  0  0  0  0  0  0
  137.2330   81.0690  221.9870 C   0  0  0  0  0  0  0  0  0  0  0  0
  137.8030   80.0680  222.9260 C   0  0  0  0  0  0  0  0  0  0  0  0
  137.1670   79.8980  224.0090 O   0  0  0  0  0  0  0  0  0  0  0  0
  138.9980   79.3390  222.6220 N   0  0  0  0  0  0  0  0  0  0  0  0
  140.2320   79.9430  222.9900 C   0  0  0  0  0  0  0  0  0  0  0  0
  141.1610   79.3340  223.8080 C   0  0  0  0  0  0  0  0  0  0  0  0
  142.3460   79.9770  224.1220 C   0  0  0  0  0  0  0  0  0  0  0  0
  142.6040   81.2440  223.6120 C   0  0  0  0  0  0  0  0  0  0  0  0
  141.6720   81.8480  222.7940 C   0  0  0  0  0  0  0  0  0  0  0  0
  140.4810   81.2160  222.4710 C   0  0  0  0  0  0  0  0  0  0  0  0
  138.9060   78.0560  221.9730 C   0  0  0  0  0  0  0  0  0  0  0  0
  138.3210   78.1460  220.5680 C   0  0  0  0  0  0  0  0  0  0  0  0
  137.7390   76.7900  220.1810 C   0  0  0  0  0  0  0  0  0  0  0  0
  138.4630   75.7350  220.8800 N   0  0  0  0  0  0  0  0  0  0  0  0
  139.2350   74.8460  220.0990 C   0  0  0  0  0  0  0  0  0  0  0  0
  139.2260   75.0550  218.8480 O   0  0  0  0  0  0  0  0  0  0  0  0
  140.0360   73.7230  220.5810 C   0  0  2  0  0  0  0  0  0  0  0  0
  139.4290   73.1200  221.7830 N   0  0  0  0  0  0  0  0  0  0  0  0
  141.4760   74.0570  220.9070 C   0  0  2  0  0  0  0  0  0  0  0  0
  141.4500   75.3950  221.6060 C   0  0  0  0  0  0  0  0  0  0  0  0
  141.7970   76.3770  220.5620 C   0  0  0  0  0  0  0  0  0  0  0  0
  141.7300   77.7560  220.5430 C   0  0  0  0  0  0  0  0  0  0  0  0
  142.1250   78.4450  219.4160 C   0  0  0  0  0  0  0  0  0  0  0  0
  142.5890   77.7830  218.2990 C   0  0  0  0  0  0  0  0  0  0  0  0
  142.6570   76.4080  218.3110 C   0  0  0  0  0  0  0  0  0  0  0  0
  142.2560   75.7070  219.4540 C   0  0  0  0  0  0  0  0  0  0  0  0
  142.2580   74.2420  219.6520 C   0  0  1  0  0  0  0  0  0  0  0  0
  143.6800   73.8040  219.7520 C   0  0  0  0  0  0  0  0  0  0  0  0
  144.4790   74.0840  220.8380 C   0  0  0  0  0  0  0  0  0  0  0  0
  145.7880   73.6470  220.8670 C   0  0  0  0  0  0  0  0  0  0  0  0
  146.3450   72.9220  219.8270 C   0  0  0  0  0  0  0  0  0  0  0  0
  145.5470   72.6580  218.7720 N   0  0  0  0  0  0  0  0  0  0  0  0
  144.2540   73.0810  218.7270 C   0  0  0  0  0  0  0  0  0  0  0  0
  138.3340   75.6930  222.3140 C   0  0  0  0  0  0  0  0  0  0  0  0
  138.1120   77.0940  222.8230 C   0  0  0  0  0  0  0  0  0  0  0  0
  137.2818   82.3589  223.6937 H   0  0  0  0  0  0  0  0  0  0  0  0
  138.2031   82.9550  222.2716 H   0  0  0  0  0  0  0  0  0  0  0  0
  136.4081   83.0229  222.2716 H   0  0  0  0  0  0  0  0  0  0  0  0
  136.1870   80.8078  221.7688 H   0  0  0  0  0  0  0  0  0  0  0  0
  137.8229   81.0662  221.0585 H   0  0  0  0  0  0  0  0  0  0  0  0
  140.9589   78.3315  224.2132 H   0  0  0  0  0  0  0  0  0  0  0  0
  143.0828   79.4857  224.7745 H   0  0  0  0  0  0  0  0  0  0  0  0
  143.5433   81.7606  223.8586 H   0  0  0  0  0  0  0  0  0  0  0  0
  141.8776   82.8503  222.3902 H   0  0  0  0  0  0  0  0  0  0  0  0
  139.7453   81.7080  221.8178 H   0  0  0  0  0  0  0  0  0  0  0  0
  139.9326   77.6771  221.8613 H   0  0  0  0  0  0  0  0  0  0  0  0
  137.5268   78.9069  220.5478 H   0  0  0  0  0  0  0  0  0  0  0  0
  139.1105   78.4271  219.8555 H   0  0  0  0  0  0  0  0  0  0  0  0
  136.6759   76.7534  220.4613 H   0  0  0  0  0  0  0  0  0  0  0  0
  137.8361   76.6449  219.0949 H   0  0  0  0  0  0  0  0  0  0  0  0
  140.0460   73.0210  219.7342 H   0  0  0  0  0  0  0  0  0  0  0  0
  138.4090   72.9400  221.6460 H   0  0  0  0  0  0  0  0  0  0  0  0
  139.4990   73.7660  222.5900 H   0  0  0  0  0  0  0  0  0  0  0  0
  141.9265   73.2553  221.5106 H   0  0  0  0  0  0  0  0  0  0  0  0
  140.4484   75.5998  222.0120 H   0  0  0  0  0  0  0  0  0  0  0  0
  142.1474   75.4311  222.4559 H   0  0  0  0  0  0  0  0  0  0  0  0
  141.3628   78.3029  221.4239 H   0  0  0  0  0  0  0  0  0  0  0  0
  142.0689   79.5435  219.4078 H   0  0  0  0  0  0  0  0  0  0  0  0
  142.9014   78.3474  217.4080 H   0  0  0  0  0  0  0  0  0  0  0  0
  143.0240   75.8640  217.4282 H   0  0  0  0  0  0  0  0  0  0  0  0
  141.8122   73.6442  218.8434 H   0  0  0  0  0  0  0  0  0  0  0  0
  144.0731   74.6573  221.6845 H   0  0  0  0  0  0  0  0  0  0  0  0
  146.4085   73.8822  221.7443 H   0  0  0  0  0  0  0  0  0  0  0  0
  147.3892   72.5775  219.8596 H   0  0  0  0  0  0  0  0  0  0  0  0
  143.6460   72.8380  217.8431 H   0  0  0  0  0  0  0  0  0  0  0  0
  137.4781   75.0595  222.5898 H   0  0  0  0  0  0  0  0  0  0  0  0
  139.2484   75.2741  222.7594 H   0  0  0  0  0  0  0  0  0  0  0  0
  137.0425   77.3437  222.7618 H   0  0  0  0  0  0  0  0  0  0  0  0
  138.4395   77.1655  223.8707 H   0  0  0  0  0  0  0  0  0  0  0  0
  1  2  1  0
  2  3  1  0
  3  4  2  0
  3  5  1  0
  5  6  1  0
  6  7  2  0
  7  8  1  0
  8  9  2  0
  9 10  1  0
 10 11  2  0
  5 12  1  0
 12 13  1  0
 13 14  1  0
 14 15  1  0
 15 16  1  0
 16 17  2  0
 16 18  1  0
 18 19  1  0
 18 20  1  0
 20 21  1  0
 21 22  1  0
 22 23  2  0
 23 24  1  0
 24 25  2  0
 25 26  1  0
 26 27  2  0
 27 28  1  0
 28 29  1  0
 29 30  2  0
 30 31  1  0
 31 32  2  0
 32 33  1  0
 33 34  2  0
 15 35  1  0
 35 36  1  0
 11  6  1  0
 36 12  1  0
 28 20  1  0
 34 29  1  0
 27 22  1  0
  1 37  1  0
  1 38  1  0
  1 39  1  0
  2 40  1  0
  2 41  1  0
  7 42  1  0
  8 43  1  0
  9 44  1  0
 10 45  1  0
 11 46  1  0
 12 47  1  0
 13 48  1  0
 13 49  1  0
 14 50  1  0
 14 51  1  0
 18 52  1  6
 19 53  1  0
 19 54  1  0
 20 55  1  1
 21 56  1  0
 21 57  1  0
 23 58  1  0
 24 59  1  0
 25 60  1  0
 26 61  1  0
 28 62  1  6
 30 63  1  0
 31 64  1  0
 32 65  1  0
 34 66  1  0
 35 67  1  0
 35 68  1  0
 36 69  1  0
 36 70  1  0
M  END
>  <smiles>  (127) 
CCC(=O)N(c1ccccc1)C1CCN(C(=O)[C@H](N)C2Cc3ccccc3C2c2cccnc2)CC1

>  <score_type>  (127) 
oracle

>  <origin>  (127) 
autodockgpu

>  <m_score__min__energy>  (127) 
-9.0999999999999996

>  <m_primary>  (127) 
energy

>  <rmsd>  (127) 
5.638457978606108

>  <m_score__min__rmsd>  (127) 
5.638457978606108

>  <meeko>  (127) 
{"free_energy": -7.6, "intermolecular_energy": -9.99, "internal_energy": -3.34, "cluster_size": 28, "cluster_id": 5, "rank_in_cluster": 27}

>  <energy>  (127) 
-8.11

>  <cluster_rmsd>  (127) 
0.41

>  <cluster>  (127) 
5

$$$$

     RDKit          3D

 70 74  0  0  0  0  0  0  0  0999 V2000
  136.0920   69.2780  224.6600 C   0  0  0  0  0  0  0  0  0  0  0  0
  136.9700   68.7140  223.5750 C   0  0  0  0  0  0  0  0  0  0  0  0
  138.3750   68.6160  224.0500 C   0  0  0  0  0  0  0  0  0  0  0  0
  138.8770   67.4530  224.0590 O   0  0  0  0  0  0  0  0  0  0  0  0
  139.1140   69.7680  224.4710 N   0  0  0  0  0  0  0  0  0  0  0  0
  139.6690   69.7350  225.7800 C   0  0  0  0  0  0  0  0  0  0  0  0
  140.3040   70.8120  226.3630 C   0  0  0  0  0  0  0  0  0  0  0  0
  140.8180   70.7130  227.6440 C   0  0  0  0  0  0  0  0  0  0  0  0
  140.6970   69.5230  228.3510 C   0  0  0  0  0  0  0  0  0  0  0  0
  140.0610   68.4490  227.7630 C   0  0  0  0  0  0  0  0  0  0  0  0
  139.5410   68.5330  226.4810 C   0  0  0  0  0  0  0  0  0  0  0  0
  139.2610   70.8870  223.5760 C   0  0  0  0  0  0  0  0  0  0  0  0
  137.9360   71.5660  223.2540 C   0  0  0  0  0  0  0  0  0  0  0  0
  138.0660   72.3200  221.9350 C   0  0  0  0  0  0  0  0  0  0  0  0
  139.4520   72.7300  221.7460 N   0  0  0  0  0  0  0  0  0  0  0  0
  139.7300   74.1140  221.7630 C   0  0  0  0  0  0  0  0  0  0  0  0
  138.7340   74.8790  221.9450 O   0  0  0  0  0  0  0  0  0  0  0  0
  141.0350   74.7500  221.5960 C   0  0  2  0  0  0  0  0  0  0  0  0
  140.9950   76.1590  222.0360 N   0  0  0  0  0  0  0  0  0  0  0  0
  141.5870   74.7200  220.1870 C   0  0  2  0  0  0  0  0  0  0  0  0
  142.0010   73.2910  219.9280 C   0  0  0  0  0  0  0  0  0  0  0  0
  143.4590   73.2720  220.1520 C   0  0  0  0  0  0  0  0  0  0  0  0
  144.3530   72.2260  220.2710 C   0  0  0  0  0  0  0  0  0  0  0  0
  145.6900   72.4890  220.4810 C   0  0  0  0  0  0  0  0  0  0  0  0
  146.1570   73.7840  220.5780 C   0  0  0  0  0  0  0  0  0  0  0  0
  145.2700   74.8300  220.4610 C   0  0  0  0  0  0  0  0  0  0  0  0
  143.9130   74.5640  220.2480 C   0  0  0  0  0  0  0  0  0  0  0  0
  142.8210   75.5500  220.0990 C   0  0  1  0  0  0  0  0  0  0  0  0
  143.0050   76.2290  218.7840 C   0  0  0  0  0  0  0  0  0  0  0  0
  143.5650   75.6090  217.6890 C   0  0  0  0  0  0  0  0  0  0  0  0
  143.7050   76.2960  216.5000 C   0  0  0  0  0  0  0  0  0  0  0  0
  143.2960   77.6100  216.3570 C   0  0  0  0  0  0  0  0  0  0  0  0
  142.7490   78.2000  217.4400 N   0  0  0  0  0  0  0  0  0  0  0  0
  142.6030   77.5390  218.6200 C   0  0  0  0  0  0  0  0  0  0  0  0
  140.4250   71.6830  221.5660 C   0  0  0  0  0  0  0  0  0  0  0  0
  139.9640   70.4570  222.3110 C   0  0  0  0  0  0  0  0  0  0  0  0
  136.5070   69.0114  225.6432 H   0  0  0  0  0  0  0  0  0  0  0  0
  136.0491   70.3730  224.5648 H   0  0  0  0  0  0  0  0  0  0  0  0
  135.0783   68.8617  224.5648 H   0  0  0  0  0  0  0  0  0  0  0  0
  136.6089   67.7121  223.2996 H   0  0  0  0  0  0  0  0  0  0  0  0
  136.9326   69.3804  222.7006 H   0  0  0  0  0  0  0  0  0  0  0  0
  140.4024   71.7555  225.8061 H   0  0  0  0  0  0  0  0  0  0  0  0
  141.3223   71.5764  228.1025 H   0  0  0  0  0  0  0  0  0  0  0  0
  141.1042   69.4380  229.3693 H   0  0  0  0  0  0  0  0  0  0  0  0
  139.9647   67.5071  228.3230 H   0  0  0  0  0  0  0  0  0  0  0  0
  139.0366   67.6690  226.0236 H   0  0  0  0  0  0  0  0  0  0  0  0
  139.8764   71.6358  224.0962 H   0  0  0  0  0  0  0  0  0  0  0  0
  137.1450   70.8065  223.1671 H   0  0  0  0  0  0  0  0  0  0  0  0
  137.6769   72.2704  224.0582 H   0  0  0  0  0  0  0  0  0  0  0  0
  137.7609   71.6645  221.1060 H   0  0  0  0  0  0  0  0  0  0  0  0
  137.4193   73.2096  221.9551 H   0  0  0  0  0  0  0  0  0  0  0  0
  141.7070   74.1461  222.2235 H   0  0  0  0  0  0  0  0  0  0  0  0
  141.8490   76.4120  222.5820 H   0  0  0  0  0  0  0  0  0  0  0  0
  140.1920   76.3200  222.6700 H   0  0  0  0  0  0  0  0  0  0  0  0
  140.8371   75.0954  219.4751 H   0  0  0  0  0  0  0  0  0  0  0  0
  141.4933   72.6085  220.6254 H   0  0  0  0  0  0  0  0  0  0  0  0
  141.7334   72.9595  218.9138 H   0  0  0  0  0  0  0  0  0  0  0  0
  143.9996   71.1868  220.1985 H   0  0  0  0  0  0  0  0  0  0  0  0
  146.3972   71.6515  220.5729 H   0  0  0  0  0  0  0  0  0  0  0  0
  147.2265   73.9782  220.7470 H   0  0  0  0  0  0  0  0  0  0  0  0
  145.6257   75.8683  220.5345 H   0  0  0  0  0  0  0  0  0  0  0  0
  142.7861   76.3514  220.8517 H   0  0  0  0  0  0  0  0  0  0  0  0
  143.9014   74.5642  217.7622 H   0  0  0  0  0  0  0  0  0  0  0  0
  144.1563   75.7822  215.6384 H   0  0  0  0  0  0  0  0  0  0  0  0
  143.4114   78.1485  215.4048 H   0  0  0  0  0  0  0  0  0  0  0  0
  142.1493   78.0664  219.4721 H   0  0  0  0  0  0  0  0  0  0  0  0
  140.5231   71.4498  220.4955 H   0  0  0  0  0  0  0  0  0  0  0  0
  141.4013   72.0100  221.9532 H   0  0  0  0  0  0  0  0  0  0  0  0
  139.2701   69.8814  221.6807 H   0  0  0  0  0  0  0  0  0  0  0  0
  140.8299   69.8269  222.5624 H   0  0  0  0  0  0  0  0  0  0  0  0
  1  2  1  0
  2  3  1  0
  3  4  2  0
  3  5  1  0
  5  6  1  0
  6  7  2  0
  7  8  1  0
  8  9  2  0
  9 10  1  0
 10 11  2  0
  5 12  1  0
 12 13  1  0
 13 14  1  0
 14 15  1  0
 15 16  1  0
 16 17  2  0
 16 18  1  0
 18 19  1  0
 18 20  1  0
 20 21  1  0
 21 22  1  0
 22 23  2  0
 23 24  1  0
 24 25  2  0
 25 26  1  0
 26 27  2  0
 27 28  1  0
 28 29  1  0
 29 30  2  0
 30 31  1  0
 31 32  2  0
 32 33  1  0
 33 34  2  0
 15 35  1  0
 35 36  1  0
 11  6  1  0
 36 12  1  0
 28 20  1  0
 34 29  1  0
 27 22  1  0
  1 37  1  0
  1 38  1  0
  1 39  1  0
  2 40  1  0
  2 41  1  0
  7 42  1  0
  8 43  1  0
  9 44  1  0
 10 45  1  0
 11 46  1  0
 12 47  1  0
 13 48  1  0
 13 49  1  0
 14 50  1  0
 14 51  1  0
 18 52  1  1
 19 53  1  0
 19 54  1  0
 20 55  1  6
 21 56  1  0
 21 57  1  0
 23 58  1  0
 24 59  1  0
 25 60  1  0
 26 61  1  0
 28 62  1  1
 30 63  1  0
 31 64  1  0
 32 65  1  0
 34 66  1  0
 35 67  1  0
 35 68  1  0
 36 69  1  0
 36 70  1  0
M  END
>  <smiles>  (128) 
CCC(=O)N(c1ccccc1)C1CCN(C(=O)[C@H](N)C2Cc3ccccc3C2c2cccnc2)CC1

>  <score_type>  (128) 
oracle

>  <origin>  (128) 
autodockgpu

>  <m_score__min__energy>  (128) 
-9.0999999999999996

>  <m_primary>  (128) 
energy

>  <rmsd>  (128) 
8.077238351778435

>  <m_score__min__rmsd>  (128) 
8.077238351778435

>  <meeko>  (128) 
{"free_energy": -9.1, "intermolecular_energy": -11.48, "internal_energy": -2.33, "cluster_size": 12, "cluster_id": 1, "rank_in_cluster": 1}

>  <energy>  (128) 
-8.07

>  <cluster_rmsd>  (128) 
0.4

>  <cluster>  (128) 
5

$$$$

     RDKit          3D

 70 74  0  0  0  0  0  0  0  0999 V2000
  134.5540   68.9510  225.0140 C   0  0  0  0  0  0  0  0  0  0  0  0
  135.8130   69.6960  225.3690 C   0  0  0  0  0  0  0  0  0  0  0  0
  136.8940   69.3680  224.4030 C   0  0  0  0  0  0  0  0  0  0  0  0
  136.6000   68.5200  223.5080 O   0  0  0  0  0  0  0  0  0  0  0  0
  138.1890   69.9760  224.4800 N   0  0  0  0  0  0  0  0  0  0  0  0
  139.0680   69.4940  225.4890 C   0  0  0  0  0  0  0  0  0  0  0  0
  139.1210   68.1730  225.8810 C   0  0  0  0  0  0  0  0  0  0  0  0
  140.0050   67.7690  226.8670 C   0  0  0  0  0  0  0  0  0  0  0  0
  140.8460   68.6990  227.4670 C   0  0  0  0  0  0  0  0  0  0  0  0
  140.7890   70.0190  227.0710 C   0  0  0  0  0  0  0  0  0  0  0  0
  139.9080   70.4370  226.0850 C   0  0  0  0  0  0  0  0  0  0  0  0
  138.5400   71.0260  223.5590 C   0  0  0  0  0  0  0  0  0  0  0  0
  137.3380   71.8510  223.1160 C   0  0  0  0  0  0  0  0  0  0  0  0
  137.6540   72.5220  221.7830 C   0  0  0  0  0  0  0  0  0  0  0  0
  139.0910   72.7450  221.6820 N   0  0  0  0  0  0  0  0  0  0  0  0
  139.5440   74.0830  221.6690 C   0  0  0  0  0  0  0  0  0  0  0  0
  138.6440   74.9740  221.7490 O   0  0  0  0  0  0  0  0  0  0  0  0
  140.9280   74.5410  221.5760 C   0  0  2  0  0  0  0  0  0  0  0  0
  141.0780   75.8890  222.1580 N   0  0  0  0  0  0  0  0  0  0  0  0
  141.4980   74.5760  220.1730 C   0  0  2  0  0  0  0  0  0  0  0  0
  141.9100   73.1590  219.8520 C   0  0  0  0  0  0  0  0  0  0  0  0
  143.3640   73.1220  220.0930 C   0  0  0  0  0  0  0  0  0  0  0  0
  144.2530   72.0680  220.1720 C   0  0  0  0  0  0  0  0  0  0  0  0
  145.5880   72.3140  220.4120 C   0  0  0  0  0  0  0  0  0  0  0  0
  146.0590   73.6000  220.5770 C   0  0  0  0  0  0  0  0  0  0  0  0
  145.1780   74.6550  220.5000 C   0  0  0  0  0  0  0  0  0  0  0  0
  143.8230   74.4060  220.2560 C   0  0  0  0  0  0  0  0  0  0  0  0
  142.7360   75.4030  220.1420 C   0  0  1  0  0  0  0  0  0  0  0  0
  142.9400   76.1430  218.8630 C   0  0  0  0  0  0  0  0  0  0  0  0
  143.4880   75.5670  217.7390 C   0  0  0  0  0  0  0  0  0  0  0  0
  143.6470   76.3100  216.5860 C   0  0  0  0  0  0  0  0  0  0  0  0
  143.2710   77.6400  216.5100 C   0  0  0  0  0  0  0  0  0  0  0  0
  142.7360   78.1860  217.6210 N   0  0  0  0  0  0  0  0  0  0  0  0
  142.5710   77.4690  218.7660 C   0  0  0  0  0  0  0  0  0  0  0  0
  139.9310   71.5770  221.6120 C   0  0  0  0  0  0  0  0  0  0  0  0
  139.2660   70.4540  222.3640 C   0  0  0  0  0  0  0  0  0  0  0  0
  134.0369   68.6450  225.9354 H   0  0  0  0  0  0  0  0  0  0  0  0
  133.8952   69.6048  224.4236 H   0  0  0  0  0  0  0  0  0  0  0  0
  134.8100   68.0589  224.4236 H   0  0  0  0  0  0  0  0  0  0  0  0
  135.6155   70.7777  225.3396 H   0  0  0  0  0  0  0  0  0  0  0  0
  136.1325   69.3996  226.3790 H   0  0  0  0  0  0  0  0  0  0  0  0
  138.4566   67.4354  225.4072 H   0  0  0  0  0  0  0  0  0  0  0  0
  140.0418   66.7137  227.1751 H   0  0  0  0  0  0  0  0  0  0  0  0
  141.5509   68.3849  228.2509 H   0  0  0  0  0  0  0  0  0  0  0  0
  141.4551   70.7541  227.5463 H   0  0  0  0  0  0  0  0  0  0  0  0
  139.8715   71.4926  225.7778 H   0  0  0  0  0  0  0  0  0  0  0  0
  139.2102   71.7135  224.0959 H   0  0  0  0  0  0  0  0  0  0  0  0
  136.4637   71.1938  222.9989 H   0  0  0  0  0  0  0  0  0  0  0  0
  137.1172   72.6182  223.8727 H   0  0  0  0  0  0  0  0  0  0  0  0
  137.3244   71.8731  220.9582 H   0  0  0  0  0  0  0  0  0  0  0  0
  137.1274   73.4859  221.7228 H   0  0  0  0  0  0  0  0  0  0  0  0
  141.4957   73.7878  222.1421 H   0  0  0  0  0  0  0  0  0  0  0  0
  140.2320   76.4760  221.9820 H   0  0  0  0  0  0  0  0  0  0  0  0
  141.8700   76.3910  221.7180 H   0  0  0  0  0  0  0  0  0  0  0  0
  140.7593   74.9881  219.4698 H   0  0  0  0  0  0  0  0  0  0  0  0
  141.3906   72.4466  220.5098 H   0  0  0  0  0  0  0  0  0  0  0  0
  141.6544   72.8775  218.8198 H   0  0  0  0  0  0  0  0  0  0  0  0
  143.8968   71.0352  220.0438 H   0  0  0  0  0  0  0  0  0  0  0  0
  146.2903   71.4696  220.4730 H   0  0  0  0  0  0  0  0  0  0  0  0
  147.1271   73.7806  220.7680 H   0  0  0  0  0  0  0  0  0  0  0  0
  145.5369   75.6867  220.6294 H   0  0  0  0  0  0  0  0  0  0  0  0
  142.6942   76.1664  220.9329 H   0  0  0  0  0  0  0  0  0  0  0  0
  143.7999   74.5124  217.7595 H   0  0  0  0  0  0  0  0  0  0  0  0
  144.0866   75.8295  215.6995 H   0  0  0  0  0  0  0  0  0  0  0  0
  143.4024   78.2239  215.5871 H   0  0  0  0  0  0  0  0  0  0  0  0
  142.1286   77.9632  219.6435 H   0  0  0  0  0  0  0  0  0  0  0  0
  140.0716   71.2854  220.5607 H   0  0  0  0  0  0  0  0  0  0  0  0
  140.9123   71.7956  222.0583 H   0  0  0  0  0  0  0  0  0  0  0  0
  138.5478   69.9434  221.7056 H   0  0  0  0  0  0  0  0  0  0  0  0
  140.0239   69.7311  222.7001 H   0  0  0  0  0  0  0  0  0  0  0  0
  1  2  1  0
  2  3  1  0
  3  4  2  0
  3  5  1  0
  5  6  1  0
  6  7  2  0
  7  8  1  0
  8  9  2  0
  9 10  1  0
 10 11  2  0
  5 12  1  0
 12 13  1  0
 13 14  1  0
 14 15  1  0
 15 16  1  0
 16 17  2  0
 16 18  1  0
 18 19  1  0
 18 20  1  0
 20 21  1  0
 21 22  1  0
 22 23  2  0
 23 24  1  0
 24 25  2  0
 25 26  1  0
 26 27  2  0
 27 28  1  0
 28 29  1  0
 29 30  2  0
 30 31  1  0
 31 32  2  0
 32 33  1  0
 33 34  2  0
 15 35  1  0
 35 36  1  0
 11  6  1  0
 36 12  1  0
 28 20  1  0
 34 29  1  0
 27 22  1  0
  1 37  1  0
  1 38  1  0
  1 39  1  0
  2 40  1  0
  2 41  1  0
  7 42  1  0
  8 43  1  0
  9 44  1  0
 10 45  1  0
 11 46  1  0
 12 47  1  0
 13 48  1  0
 13 49  1  0
 14 50  1  0
 14 51  1  0
 18 52  1  1
 19 53  1  0
 19 54  1  0
 20 55  1  6
 21 56  1  0
 21 57  1  0
 23 58  1  0
 24 59  1  0
 25 60  1  0
 26 61  1  0
 28 62  1  1
 30 63  1  0
 31 64  1  0
 32 65  1  0
 34 66  1  0
 35 67  1  0
 35 68  1  0
 36 69  1  0
 36 70  1  0
M  END
>  <smiles>  (129) 
CCC(=O)N(c1ccccc1)C1CCN(C(=O)[C@H](N)C2Cc3ccccc3C2c2cccnc2)CC1

>  <score_type>  (129) 
oracle

>  <origin>  (129) 
autodockgpu

>  <m_score__min__energy>  (129) 
-9.0999999999999996

>  <m_primary>  (129) 
energy

>  <rmsd>  (129) 
8.154841631564729

>  <m_score__min__rmsd>  (129) 
8.154841631564729

>  <meeko>  (129) 
{"free_energy": -8.57, "intermolecular_energy": -10.95, "internal_energy": -2.7, "cluster_size": 12, "cluster_id": 1, "rank_in_cluster": 9}

>  <energy>  (129) 
-8.01

>  <cluster_rmsd>  (129) 
0.47

>  <cluster>  (129) 
5

$$$$

     RDKit          3D

 70 74  0  0  0  0  0  0  0  0999 V2000
  140.4370   82.3130  220.2250 C   0  0  0  0  0  0  0  0  0  0  0  0
  139.1070   81.6070  220.2260 C   0  0  0  0  0  0  0  0  0  0  0  0
  138.9230   80.8610  221.4980 C   0  0  0  0  0  0  0  0  0  0  0  0
  137.9180   81.1910  222.1950 O   0  0  0  0  0  0  0  0  0  0  0  0
  139.8290   79.8290  221.9090 N   0  0  0  0  0  0  0  0  0  0  0  0
  140.9900   80.2370  222.6210 C   0  0  0  0  0  0  0  0  0  0  0  0
  140.9970   81.2720  223.5320 C   0  0  0  0  0  0  0  0  0  0  0  0
  142.1630   81.6140  224.1950 C   0  0  0  0  0  0  0  0  0  0  0  0
  143.3360   80.9120  223.9430 C   0  0  0  0  0  0  0  0  0  0  0  0
  143.3230   79.8780  223.0300 C   0  0  0  0  0  0  0  0  0  0  0  0
  142.1630   79.5240  222.3590 C   0  0  0  0  0  0  0  0  0  0  0  0
  139.5360   78.4550  221.5910 C   0  0  0  0  0  0  0  0  0  0  0  0
  138.6590   78.3080  220.3530 C   0  0  0  0  0  0  0  0  0  0  0  0
  137.9440   76.9620  220.4030 C   0  0  0  0  0  0  0  0  0  0  0  0
  138.7540   76.0100  221.1530 N   0  0  0  0  0  0  0  0  0  0  0  0
  139.2920   74.9120  220.4450 C   0  0  0  0  0  0  0  0  0  0  0  0
  139.0160   74.8600  219.2080 O   0  0  0  0  0  0  0  0  0  0  0  0
  140.1280   73.8420  220.9870 C   0  0  2  0  0  0  0  0  0  0  0  0
  139.6550   73.4290  222.3220 N   0  0  0  0  0  0  0  0  0  0  0  0
  141.6010   74.1750  221.0980 C   0  0  2  0  0  0  0  0  0  0  0  0
  141.6770   75.6540  221.3890 C   0  0  0  0  0  0  0  0  0  0  0  0
  141.9660   76.2820  220.0860 C   0  0  0  0  0  0  0  0  0  0  0  0
  141.9430   77.6020  219.6810 C   0  0  0  0  0  0  0  0  0  0  0  0
  142.2630   77.9250  218.3790 C   0  0  0  0  0  0  0  0  0  0  0  0
  142.6070   76.9500  217.4650 C   0  0  0  0  0  0  0  0  0  0  0  0
  142.6320   75.6330  217.8630 C   0  0  0  0  0  0  0  0  0  0  0  0
  142.3070   75.3040  219.1840 C   0  0  0  0  0  0  0  0  0  0  0  0
  142.2780   73.9560  219.7900 C   0  0  1  0  0  0  0  0  0  0  0  0
  143.6890   73.4860  219.9070 C   0  0  0  0  0  0  0  0  0  0  0  0
  144.4810   73.7490  221.0020 C   0  0  0  0  0  0  0  0  0  0  0  0
  145.7790   73.2820  221.0460 C   0  0  0  0  0  0  0  0  0  0  0  0
  146.3320   72.5430  220.0140 C   0  0  0  0  0  0  0  0  0  0  0  0
  145.5400   72.2960  218.9500 N   0  0  0  0  0  0  0  0  0  0  0  0
  144.2580   72.7480  218.8890 C   0  0  0  0  0  0  0  0  0  0  0  0
  138.9450   76.2760  222.5550 C   0  0  0  0  0  0  0  0  0  0  0  0
  138.9060   77.7650  222.7780 C   0  0  0  0  0  0  0  0  0  0  0  0
  140.7615   82.4852  221.2619 H   0  0  0  0  0  0  0  0  0  0  0  0
  141.1817   81.6915  219.7062 H   0  0  0  0  0  0  0  0  0  0  0  0
  140.3395   83.2781  219.7062 H   0  0  0  0  0  0  0  0  0  0  0  0
  138.3017   82.3489  220.1201 H   0  0  0  0  0  0  0  0  0  0  0  0
  139.0767   80.8974  219.3861 H   0  0  0  0  0  0  0  0  0  0  0  0
  140.0702   81.8294  223.7331 H   0  0  0  0  0  0  0  0  0  0  0  0
  142.1613   82.4406  224.9207 H   0  0  0  0  0  0  0  0  0  0  0  0
  144.2659   81.1785  224.4667 H   0  0  0  0  0  0  0  0  0  0  0  0
  144.2517   79.3233  222.8305 H   0  0  0  0  0  0  0  0  0  0  0  0
  142.1657   78.6971  221.6336 H   0  0  0  0  0  0  0  0  0  0  0  0
  140.4939   77.9685  221.3550 H   0  0  0  0  0  0  0  0  0  0  0  0
  137.9160   79.1188  220.3299 H   0  0  0  0  0  0  0  0  0  0  0  0
  139.2833   78.3619  219.4489 H   0  0  0  0  0  0  0  0  0  0  0  0
  136.9686   77.0829  220.8969 H   0  0  0  0  0  0  0  0  0  0  0  0
  137.7925   76.5887  219.3794 H   0  0  0  0  0  0  0  0  0  0  0  0
  140.0308   73.0293  220.2521 H   0  0  0  0  0  0  0  0  0  0  0  0
  139.1380   72.5230  222.2800 H   0  0  0  0  0  0  0  0  0  0  0  0
  138.9850   74.1220  222.7020 H   0  0  0  0  0  0  0  0  0  0  0  0
  142.0766   73.5518  221.8697 H   0  0  0  0  0  0  0  0  0  0  0  0
  140.7204   76.0191  221.7911 H   0  0  0  0  0  0  0  0  0  0  0  0
  142.4439   75.8894  222.1417 H   0  0  0  0  0  0  0  0  0  0  0  0
  141.6703   78.3934  220.3947 H   0  0  0  0  0  0  0  0  0  0  0  0
  142.2437   78.9786  218.0634 H   0  0  0  0  0  0  0  0  0  0  0  0
  142.8585   77.2227  216.4294 H   0  0  0  0  0  0  0  0  0  0  0  0
  142.9057   74.8437  217.1474 H   0  0  0  0  0  0  0  0  0  0  0  0
  141.7455   73.1805  219.2198 H   0  0  0  0  0  0  0  0  0  0  0  0
  144.0786   74.3324  221.8433 H   0  0  0  0  0  0  0  0  0  0  0  0
  146.3945   73.5043  221.9302 H   0  0  0  0  0  0  0  0  0  0  0  0
  147.3676   72.1748  220.0594 H   0  0  0  0  0  0  0  0  0  0  0  0
  143.6549   72.5174  217.9984 H   0  0  0  0  0  0  0  0  0  0  0  0
  138.1438   75.7945  223.1348 H   0  0  0  0  0  0  0  0  0  0  0  0
  139.9158   75.8752  222.8818 H   0  0  0  0  0  0  0  0  0  0  0  0
  137.8622   78.0949  222.8855 H   0  0  0  0  0  0  0  0  0  0  0  0
  139.4601   78.0190  223.6936 H   0  0  0  0  0  0  0  0  0  0  0  0
  1  2  1  0
  2  3  1  0
  3  4  2  0
  3  5  1  0
  5  6  1  0
  6  7  2  0
  7  8  1  0
  8  9  2  0
  9 10  1  0
 10 11  2  0
  5 12  1  0
 12 13  1  0
 13 14  1  0
 14 15  1  0
 15 16  1  0
 16 17  2  0
 16 18  1  0
 18 19  1  0
 18 20  1  0
 20 21  1  0
 21 22  1  0
 22 23  2  0
 23 24  1  0
 24 25  2  0
 25 26  1  0
 26 27  2  0
 27 28  1  0
 28 29  1  0
 29 30  2  0
 30 31  1  0
 31 32  2  0
 32 33  1  0
 33 34  2  0
 15 35  1  0
 35 36  1  0
 11  6  1  0
 36 12  1  0
 28 20  1  0
 34 29  1  0
 27 22  1  0
  1 37  1  0
  1 38  1  0
  1 39  1  0
  2 40  1  0
  2 41  1  0
  7 42  1  0
  8 43  1  0
  9 44  1  0
 10 45  1  0
 11 46  1  0
 12 47  1  0
 13 48  1  0
 13 49  1  0
 14 50  1  0
 14 51  1  0
 18 52  1  6
 19 53  1  0
 19 54  1  0
 20 55  1  1
 21 56  1  0
 21 57  1  0
 23 58  1  0
 24 59  1  0
 25 60  1  0
 26 61  1  0
 28 62  1  6
 30 63  1  0
 31 64  1  0
 32 65  1  0
 34 66  1  0
 35 67  1  0
 35 68  1  0
 36 69  1  0
 36 70  1  0
M  END
>  <smiles>  (130) 
CCC(=O)N(c1ccccc1)C1CCN(C(=O)[C@H](N)C2Cc3ccccc3C2c2cccnc2)CC1

>  <score_type>  (130) 
oracle

>  <origin>  (130) 
autodockgpu

>  <m_score__min__energy>  (130) 
-9.0999999999999996

>  <m_primary>  (130) 
energy

>  <rmsd>  (130) 
5.6278229750451905

>  <m_score__min__rmsd>  (130) 
5.6278229750451905

>  <meeko>  (130) 
{"free_energy": -7.98, "intermolecular_energy": -10.37, "internal_energy": -3.23, "cluster_size": 28, "cluster_id": 5, "rank_in_cluster": 12}

>  <energy>  (130) 
-7.99

>  <cluster_rmsd>  (130) 
0.68

>  <cluster>  (130) 
5

$$$$

     RDKit          3D

 70 74  0  0  0  0  0  0  0  0999 V2000
  142.1720   79.0980  223.4680 C   0  0  0  0  0  0  0  0  0  0  0  0
  141.8860   80.5710  223.3420 C   0  0  0  0  0  0  0  0  0  0  0  0
  140.7780   80.7990  222.3780 C   0  0  0  0  0  0  0  0  0  0  0  0
  141.0520   81.5310  221.3810 O   0  0  0  0  0  0  0  0  0  0  0  0
  139.4800   80.2230  222.5660 N   0  0  0  0  0  0  0  0  0  0  0  0
  138.5150   81.0160  223.2470 C   0  0  0  0  0  0  0  0  0  0  0  0
  137.7090   81.9390  222.6140 C   0  0  0  0  0  0  0  0  0  0  0  0
  136.7860   82.6750  223.3370 C   0  0  0  0  0  0  0  0  0  0  0  0
  136.6690   82.4870  224.7090 C   0  0  0  0  0  0  0  0  0  0  0  0
  137.4790   81.5630  225.3370 C   0  0  0  0  0  0  0  0  0  0  0  0
  138.4080   80.8180  224.6250 C   0  0  0  0  0  0  0  0  0  0  0  0
  139.2090   78.8970  222.0720 C   0  0  0  0  0  0  0  0  0  0  0  0
  138.4870   78.9020  220.7300 C   0  0  0  0  0  0  0  0  0  0  0  0
  137.7530   77.5770  220.5520 C   0  0  0  0  0  0  0  0  0  0  0  0
  138.4540   76.5320  221.2880 N   0  0  0  0  0  0  0  0  0  0  0  0
  139.0590   75.5000  220.5380 C   0  0  0  0  0  0  0  0  0  0  0  0
  138.9340   75.5820  219.2780 O   0  0  0  0  0  0  0  0  0  0  0  0
  139.8090   74.3580  221.0590 C   0  0  2  0  0  0  0  0  0  0  0  0
  139.2390   73.8940  222.3390 N   0  0  0  0  0  0  0  0  0  0  0  0
  141.2870   74.6060  221.2720 C   0  0  2  0  0  0  0  0  0  0  0  0
  141.4160   76.0530  221.6810 C   0  0  0  0  0  0  0  0  0  0  0  0
  141.8050   76.7630  220.4480 C   0  0  0  0  0  0  0  0  0  0  0  0
  141.8650   78.1100  220.1480 C   0  0  0  0  0  0  0  0  0  0  0  0
  142.2700   78.5140  218.8930 C   0  0  0  0  0  0  0  0  0  0  0  0
  142.6190   77.5960  217.9250 C   0  0  0  0  0  0  0  0  0  0  0  0
  142.5600   76.2530  218.2190 C   0  0  0  0  0  0  0  0  0  0  0  0
  142.1490   75.8410  219.4910 C   0  0  0  0  0  0  0  0  0  0  0  0
  142.0240   74.4530  219.9860 C   0  0  1  0  0  0  0  0  0  0  0  0
  143.4030   73.9050  220.1380 C   0  0  0  0  0  0  0  0  0  0  0  0
  144.4950   74.6880  220.4400 C   0  0  0  0  0  0  0  0  0  0  0  0
  145.7440   74.1150  220.5670 C   0  0  0  0  0  0  0  0  0  0  0  0
  145.9520   72.7560  220.4010 C   0  0  0  0  0  0  0  0  0  0  0  0
  144.8700   72.0060  220.1050 N   0  0  0  0  0  0  0  0  0  0  0  0
  143.6310   72.5540  219.9760 C   0  0  0  0  0  0  0  0  0  0  0  0
  138.4760   76.6460  222.7240 C   0  0  0  0  0  0  0  0  0  0  0  0
  138.4310   78.1050  223.0960 C   0  0  0  0  0  0  0  0  0  0  0  0
  142.2251   78.8245  224.5321 H   0  0  0  0  0  0  0  0  0  0  0  0
  141.3682   78.5255  222.9820 H   0  0  0  0  0  0  0  0  0  0  0  0
  143.1316   78.8679  222.9820 H   0  0  0  0  0  0  0  0  0  0  0  0
  141.5994   80.9708  224.3259 H   0  0  0  0  0  0  0  0  0  0  0  0
  142.7894   81.0817  222.9772 H   0  0  0  0  0  0  0  0  0  0  0  0
  137.8001   82.0912  221.5284 H   0  0  0  0  0  0  0  0  0  0  0  0
  136.1453   83.4085  222.8257 H   0  0  0  0  0  0  0  0  0  0  0  0
  135.9377   83.0692  225.2888 H   0  0  0  0  0  0  0  0  0  0  0  0
  137.3864   81.4143  226.4230 H   0  0  0  0  0  0  0  0  0  0  0  0
  139.0486   80.0847  225.1368 H   0  0  0  0  0  0  0  0  0  0  0  0
  140.1816   78.4121  221.9017 H   0  0  0  0  0  0  0  0  0  0  0  0
  137.7634   79.7301  220.7043 H   0  0  0  0  0  0  0  0  0  0  0  0
  139.2169   79.0328  219.9175 H   0  0  0  0  0  0  0  0  0  0  0  0
  136.7268   77.6714  220.9367 H   0  0  0  0  0  0  0  0  0  0  0  0
  137.7209   77.3156  219.4840 H   0  0  0  0  0  0  0  0  0  0  0  0
  139.7156   73.5959  220.2713 H   0  0  0  0  0  0  0  0  0  0  0  0
  138.1980   73.9800  222.3460 H   0  0  0  0  0  0  0  0  0  0  0  0
  139.5790   74.4800  223.1230 H   0  0  0  0  0  0  0  0  0  0  0  0
  141.6895   73.9030  222.0161 H   0  0  0  0  0  0  0  0  0  0  0  0
  140.4569   76.4347  222.0611 H   0  0  0  0  0  0  0  0  0  0  0  0
  142.1509   76.1912  222.4877 H   0  0  0  0  0  0  0  0  0  0  0  0
  141.5909   78.8575  220.9070 H   0  0  0  0  0  0  0  0  0  0  0  0
  142.3154   79.5881  218.6600 H   0  0  0  0  0  0  0  0  0  0  0  0
  142.9410   77.9336  216.9288 H   0  0  0  0  0  0  0  0  0  0  0  0
  142.8345   75.5076  217.4580 H   0  0  0  0  0  0  0  0  0  0  0  0
  141.4883   73.7513  219.3297 H   0  0  0  0  0  0  0  0  0  0  0  0
  144.3714   75.7720  220.5802 H   0  0  0  0  0  0  0  0  0  0  0  0
  146.6026   74.7590  220.8080 H   0  0  0  0  0  0  0  0  0  0  0  0
  146.9517   72.3091  220.5055 H   0  0  0  0  0  0  0  0  0  0  0  0
  142.7823   71.8973  219.7343 H   0  0  0  0  0  0  0  0  0  0  0  0
  137.6032   76.1290  223.1493 H   0  0  0  0  0  0  0  0  0  0  0  0
  139.3934   76.1872  223.1213 H   0  0  0  0  0  0  0  0  0  0  0  0
  137.3864   78.4494  223.1129 H   0  0  0  0  0  0  0  0  0  0  0  0
  138.8742   78.2486  224.0924 H   0  0  0  0  0  0  0  0  0  0  0  0
  1  2  1  0
  2  3  1  0
  3  4  2  0
  3  5  1  0
  5  6  1  0
  6  7  2  0
  7  8  1  0
  8  9  2  0
  9 10  1  0
 10 11  2  0
  5 12  1  0
 12 13  1  0
 13 14  1  0
 14 15  1  0
 15 16  1  0
 16 17  2  0
 16 18  1  0
 18 19  1  0
 18 20  1  0
 20 21  1  0
 21 22  1  0
 22 23  2  0
 23 24  1  0
 24 25  2  0
 25 26  1  0
 26 27  2  0
 27 28  1  0
 28 29  1  0
 29 30  2  0
 30 31  1  0
 31 32  2  0
 32 33  1  0
 33 34  2  0
 15 35  1  0
 35 36  1  0
 11  6  1  0
 36 12  1  0
 28 20  1  0
 34 29  1  0
 27 22  1  0
  1 37  1  0
  1 38  1  0
  1 39  1  0
  2 40  1  0
  2 41  1  0
  7 42  1  0
  8 43  1  0
  9 44  1  0
 10 45  1  0
 11 46  1  0
 12 47  1  0
 13 48  1  0
 13 49  1  0
 14 50  1  0
 14 51  1  0
 18 52  1  6
 19 53  1  0
 19 54  1  0
 20 55  1  1
 21 56  1  0
 21 57  1  0
 23 58  1  0
 24 59  1  0
 25 60  1  0
 26 61  1  0
 28 62  1  6
 30 63  1  0
 31 64  1  0
 32 65  1  0
 34 66  1  0
 35 67  1  0
 35 68  1  0
 36 69  1  0
 36 70  1  0
M  END
>  <smiles>  (131) 
CCC(=O)N(c1ccccc1)C1CCN(C(=O)[C@H](N)C2Cc3ccccc3C2c2cccnc2)CC1

>  <score_type>  (131) 
oracle

>  <origin>  (131) 
autodockgpu

>  <m_score__min__energy>  (131) 
-9.0999999999999996

>  <m_primary>  (131) 
energy

>  <rmsd>  (131) 
5.549720662061628

>  <m_score__min__rmsd>  (131) 
5.549720662061628

>  <meeko>  (131) 
{"free_energy": -7.86, "intermolecular_energy": -10.25, "internal_energy": -3.3, "cluster_size": 28, "cluster_id": 5, "rank_in_cluster": 20}

>  <energy>  (131) 
-7.99

>  <cluster_rmsd>  (131) 
0.72

>  <cluster>  (131) 
5

$$$$

     RDKit          3D

 70 74  0  0  0  0  0  0  0  0999 V2000
  136.0620   68.9430  223.3750 C   0  0  0  0  0  0  0  0  0  0  0  0
  136.7460   69.0260  224.7140 C   0  0  0  0  0  0  0  0  0  0  0  0
  138.2180   68.9000  224.5470 C   0  0  0  0  0  0  0  0  0  0  0  0
  138.6370   67.7720  224.1530 O   0  0  0  0  0  0  0  0  0  0  0  0
  139.1060   69.9920  224.8160 N   0  0  0  0  0  0  0  0  0  0  0  0
  139.8080   69.9620  226.0530 C   0  0  0  0  0  0  0  0  0  0  0  0
  140.3470   71.0840  226.6460 C   0  0  0  0  0  0  0  0  0  0  0  0
  141.0150   70.9860  227.8550 C   0  0  0  0  0  0  0  0  0  0  0  0
  141.1450   69.7490  228.4760 C   0  0  0  0  0  0  0  0  0  0  0  0
  140.6050   68.6300  227.8780 C   0  0  0  0  0  0  0  0  0  0  0  0
  139.9330   68.7140  226.6680 C   0  0  0  0  0  0  0  0  0  0  0  0
  139.2500   71.0490  223.8490 C   0  0  0  0  0  0  0  0  0  0  0  0
  137.9200   71.6950  223.4760 C   0  0  0  0  0  0  0  0  0  0  0  0
  138.0510   72.3600  222.1100 C   0  0  0  0  0  0  0  0  0  0  0  0
  139.4350   72.7670  221.9000 N   0  0  0  0  0  0  0  0  0  0  0  0
  139.7030   74.1520  221.8260 C   0  0  0  0  0  0  0  0  0  0  0  0
  138.6990   74.9190  221.9510 O   0  0  0  0  0  0  0  0  0  0  0  0
  141.0040   74.7860  221.6220 C   0  0  2  0  0  0  0  0  0  0  0  0
  140.9870   76.1850  222.0910 N   0  0  0  0  0  0  0  0  0  0  0  0
  141.5020   74.7810  220.1930 C   0  0  2  0  0  0  0  0  0  0  0  0
  141.7720   73.3370  219.8470 C   0  0  0  0  0  0  0  0  0  0  0  0
  143.2290   73.1730  220.0120 C   0  0  0  0  0  0  0  0  0  0  0  0
  144.0250   72.0450  220.0430 C   0  0  0  0  0  0  0  0  0  0  0  0
  145.3880   72.1740  220.2140 C   0  0  0  0  0  0  0  0  0  0  0  0
  145.9760   73.4130  220.3570 C   0  0  0  0  0  0  0  0  0  0  0  0
  145.1870   74.5400  220.3290 C   0  0  0  0  0  0  0  0  0  0  0  0
  143.8040   74.4110  220.1550 C   0  0  0  0  0  0  0  0  0  0  0  0
  142.8030   75.4990  220.0990 C   0  0  1  0  0  0  0  0  0  0  0  0
  143.0040   76.2280  218.8140 C   0  0  0  0  0  0  0  0  0  0  0  0
  142.7210   77.5660  218.6550 C   0  0  0  0  0  0  0  0  0  0  0  0
  142.9320   78.1800  217.4370 C   0  0  0  0  0  0  0  0  0  0  0  0
  143.4290   77.4930  216.3430 C   0  0  0  0  0  0  0  0  0  0  0  0
  143.7010   76.1840  216.5180 N   0  0  0  0  0  0  0  0  0  0  0  0
  143.4990   75.5620  217.7110 C   0  0  0  0  0  0  0  0  0  0  0  0
  140.4170   71.7180  221.7950 C   0  0  0  0  0  0  0  0  0  0  0  0
  139.9610   70.5410  222.6180 C   0  0  0  0  0  0  0  0  0  0  0  0
  134.9800   68.8117  223.5235 H   0  0  0  0  0  0  0  0  0  0  0  0
  136.2450   69.8699  222.8117 H   0  0  0  0  0  0  0  0  0  0  0  0
  136.4614   68.0867  222.8117 H   0  0  0  0  0  0  0  0  0  0  0  0
  136.5148   69.9949  225.1807 H   0  0  0  0  0  0  0  0  0  0  0  0
  136.3856   68.2061  225.3527 H   0  0  0  0  0  0  0  0  0  0  0  0
  140.2457   72.0634  226.1555 H   0  0  0  0  0  0  0  0  0  0  0  0
  141.4420   71.8852  228.3231 H   0  0  0  0  0  0  0  0  0  0  0  0
  141.6743   69.6636  229.4365 H   0  0  0  0  0  0  0  0  0  0  0  0
  140.7093   67.6519  228.3703 H   0  0  0  0  0  0  0  0  0  0  0  0
  139.5061   67.8142  226.2009 H   0  0  0  0  0  0  0  0  0  0  0  0
  139.8586   71.8346  224.3206 H   0  0  0  0  0  0  0  0  0  0  0  0
  137.1353   70.9251  223.4366 H   0  0  0  0  0  0  0  0  0  0  0  0
  137.6514   72.4495  224.2300 H   0  0  0  0  0  0  0  0  0  0  0  0
  137.7548   71.6482  221.3254 H   0  0  0  0  0  0  0  0  0  0  0  0
  137.3977   73.2440  222.0677 H   0  0  0  0  0  0  0  0  0  0  0  0
  141.6970   74.1675  222.2113 H   0  0  0  0  0  0  0  0  0  0  0  0
  141.8300   76.4040  222.6670 H   0  0  0  0  0  0  0  0  0  0  0  0
  140.1700   76.3550  222.7050 H   0  0  0  0  0  0  0  0  0  0  0  0
  140.7663   75.2601  219.5302 H   0  0  0  0  0  0  0  0  0  0  0  0
  141.2275   72.6673  220.5289 H   0  0  0  0  0  0  0  0  0  0  0  0
  141.4398   73.0861  218.8288 H   0  0  0  0  0  0  0  0  0  0  0  0
  143.5743   71.0478  219.9318 H   0  0  0  0  0  0  0  0  0  0  0  0
  146.0171   71.2719  220.2367 H   0  0  0  0  0  0  0  0  0  0  0  0
  147.0642   73.4996  220.4920 H   0  0  0  0  0  0  0  0  0  0  0  0
  145.6401   75.5359  220.4426 H   0  0  0  0  0  0  0  0  0  0  0  0
  142.8680   76.2585  220.8920 H   0  0  0  0  0  0  0  0  0  0  0  0
  142.3256   78.1473  219.5010 H   0  0  0  0  0  0  0  0  0  0  0  0
  142.6977   79.2496  217.3324 H   0  0  0  0  0  0  0  0  0  0  0  0
  143.5943   77.9914  215.3764 H   0  0  0  0  0  0  0  0  0  0  0  0
  143.7383   74.4920  217.7996 H   0  0  0  0  0  0  0  0  0  0  0  0
  140.5227   71.4146  220.7430 H   0  0  0  0  0  0  0  0  0  0  0  0
  141.3888   72.0778  222.1641 H   0  0  0  0  0  0  0  0  0  0  0  0
  139.2736   69.9202  222.0247 H   0  0  0  0  0  0  0  0  0  0  0  0
  140.8300   69.9350  222.9139 H   0  0  0  0  0  0  0  0  0  0  0  0
  1  2  1  0
  2  3  1  0
  3  4  2  0
  3  5  1  0
  5  6  1  0
  6  7  2  0
  7  8  1  0
  8  9  2  0
  9 10  1  0
 10 11  2  0
  5 12  1  0
 12 13  1  0
 13 14  1  0
 14 15  1  0
 15 16  1  0
 16 17  2  0
 16 18  1  0
 18 19  1  0
 18 20  1  0
 20 21  1  0
 21 22  1  0
 22 23  2  0
 23 24  1  0
 24 25  2  0
 25 26  1  0
 26 27  2  0
 27 28  1  0
 28 29  1  0
 29 30  2  0
 30 31  1  0
 31 32  2  0
 32 33  1  0
 33 34  2  0
 15 35  1  0
 35 36  1  0
 11  6  1  0
 36 12  1  0
 28 20  1  0
 34 29  1  0
 27 22  1  0
  1 37  1  0
  1 38  1  0
  1 39  1  0
  2 40  1  0
  2 41  1  0
  7 42  1  0
  8 43  1  0
  9 44  1  0
 10 45  1  0
 11 46  1  0
 12 47  1  0
 13 48  1  0
 13 49  1  0
 14 50  1  0
 14 51  1  0
 18 52  1  1
 19 53  1  0
 19 54  1  0
 20 55  1  6
 21 56  1  0
 21 57  1  0
 23 58  1  0
 24 59  1  0
 25 60  1  0
 26 61  1  0
 28 62  1  1
 30 63  1  0
 31 64  1  0
 32 65  1  0
 34 66  1  0
 35 67  1  0
 35 68  1  0
 36 69  1  0
 36 70  1  0
M  END
>  <smiles>  (132) 
CCC(=O)N(c1ccccc1)C1CCN(C(=O)[C@H](N)C2Cc3ccccc3C2c2cccnc2)CC1

>  <score_type>  (132) 
oracle

>  <origin>  (132) 
autodockgpu

>  <m_score__min__energy>  (132) 
-9.0999999999999996

>  <m_primary>  (132) 
energy

>  <rmsd>  (132) 
8.09500542817931

>  <m_score__min__rmsd>  (132) 
8.09500542817931

>  <meeko>  (132) 
{"free_energy": -8.87, "intermolecular_energy": -11.26, "internal_energy": -2.63, "cluster_size": 12, "cluster_id": 1, "rank_in_cluster": 3}

>  <energy>  (132) 
-7.98

>  <cluster_rmsd>  (132) 
1.87

>  <cluster>  (132) 
5

$$$$

     RDKit          3D

 70 74  0  0  0  0  0  0  0  0999 V2000
  137.7150   81.0270  224.8870 C   0  0  0  0  0  0  0  0  0  0  0  0
  137.0250   80.2630  223.7880 C   0  0  0  0  0  0  0  0  0  0  0  0
  137.8450   80.2920  222.5490 C   0  0  0  0  0  0  0  0  0  0  0  0
  137.4420   81.0710  221.6350 O   0  0  0  0  0  0  0  0  0  0  0  0
  139.0210   79.4860  222.4000 N   0  0  0  0  0  0  0  0  0  0  0  0
  140.2520   80.0570  222.8260 C   0  0  0  0  0  0  0  0  0  0  0  0
  140.6000   81.3710  222.5920 C   0  0  0  0  0  0  0  0  0  0  0  0
  141.8130   81.8650  223.0390 C   0  0  0  0  0  0  0  0  0  0  0  0
  142.6890   81.0330  223.7270 C   0  0  0  0  0  0  0  0  0  0  0  0
  142.3360   79.7200  223.9580 C   0  0  0  0  0  0  0  0  0  0  0  0
  141.1240   79.2120  223.5160 C   0  0  0  0  0  0  0  0  0  0  0  0
  138.9130   78.1640  221.8380 C   0  0  0  0  0  0  0  0  0  0  0  0
  138.2820   78.1600  220.4510 C   0  0  0  0  0  0  0  0  0  0  0  0
  137.6940   76.7810  220.1720 C   0  0  0  0  0  0  0  0  0  0  0  0
  138.4440   75.7750  220.9140 N   0  0  0  0  0  0  0  0  0  0  0  0
  139.1940   74.8400  220.1680 C   0  0  0  0  0  0  0  0  0  0  0  0
  139.1430   74.9670  218.9060 O   0  0  0  0  0  0  0  0  0  0  0  0
  140.0150   73.7520  220.6950 C   0  0  2  0  0  0  0  0  0  0  0  0
  139.4390   73.2140  221.9430 N   0  0  0  0  0  0  0  0  0  0  0  0
  141.4590   74.1150  220.9700 C   0  0  2  0  0  0  0  0  0  0  0  0
  141.4360   75.4910  221.5890 C   0  0  0  0  0  0  0  0  0  0  0  0
  141.7530   76.4120  220.4820 C   0  0  0  0  0  0  0  0  0  0  0  0
  141.6740   77.7880  220.3830 C   0  0  0  0  0  0  0  0  0  0  0  0
  142.0400   78.4120  219.2100 C   0  0  0  0  0  0  0  0  0  0  0  0
  142.4850   77.6880  218.1240 C   0  0  0  0  0  0  0  0  0  0  0  0
  142.5660   76.3170  218.2160 C   0  0  0  0  0  0  0  0  0  0  0  0
  142.1950   75.6820  219.4060 C   0  0  0  0  0  0  0  0  0  0  0  0
  142.2130   74.2310  219.6900 C   0  0  1  0  0  0  0  0  0  0  0  0
  143.6410   73.8100  219.7850 C   0  0  0  0  0  0  0  0  0  0  0  0
  144.4500   74.1320  220.8510 C   0  0  0  0  0  0  0  0  0  0  0  0
  145.7640   73.7090  220.8770 C   0  0  0  0  0  0  0  0  0  0  0  0
  146.3150   72.9570  219.8540 C   0  0  0  0  0  0  0  0  0  0  0  0
  145.5060   72.6510  218.8180 N   0  0  0  0  0  0  0  0  0  0  0  0
  144.2090   73.0600  218.7760 C   0  0  0  0  0  0  0  0  0  0  0  0
  138.3620   75.8270  222.3510 C   0  0  0  0  0  0  0  0  0  0  0  0
  138.1510   77.2570  222.7750 C   0  0  0  0  0  0  0  0  0  0  0  0
  137.3757   80.6513  225.8636 H   0  0  0  0  0  0  0  0  0  0  0  0
  138.8032   80.8919  224.8001 H   0  0  0  0  0  0  0  0  0  0  0  0
  137.4701   82.0959  224.8001 H   0  0  0  0  0  0  0  0  0  0  0  0
  136.8828   79.2193  224.1051 H   0  0  0  0  0  0  0  0  0  0  0  0
  136.0502   80.7300  223.5839 H   0  0  0  0  0  0  0  0  0  0  0  0
  139.9090   82.0305  222.0466 H   0  0  0  0  0  0  0  0  0  0  0  0
  142.0837   82.9143  222.8502 H   0  0  0  0  0  0  0  0  0  0  0  0
  143.6553   81.4187  224.0840 H   0  0  0  0  0  0  0  0  0  0  0  0
  143.0294   79.0630  224.5035 H   0  0  0  0  0  0  0  0  0  0  0  0
  140.8542   78.1626  223.7054 H   0  0  0  0  0  0  0  0  0  0  0  0
  139.9373   77.7820  221.7162 H   0  0  0  0  0  0  0  0  0  0  0  0
  137.4841   78.9159  220.4076 H   0  0  0  0  0  0  0  0  0  0  0  0
  139.0468   78.3954  219.6962 H   0  0  0  0  0  0  0  0  0  0  0  0
  136.6406   76.7605  220.4882 H   0  0  0  0  0  0  0  0  0  0  0  0
  137.7573   76.5659  219.0951 H   0  0  0  0  0  0  0  0  0  0  0  0
  140.0130   73.0029  219.8895 H   0  0  0  0  0  0  0  0  0  0  0  0
  139.3940   73.9440  222.6880 H   0  0  0  0  0  0  0  0  0  0  0  0
  140.0350   72.4560  222.3220 H   0  0  0  0  0  0  0  0  0  0  0  0
  141.9289   73.3537  221.6100 H   0  0  0  0  0  0  0  0  0  0  0  0
  140.4413   75.7121  222.0033 H   0  0  0  0  0  0  0  0  0  0  0  0
  142.1505   75.5824  222.4204 H   0  0  0  0  0  0  0  0  0  0  0  0
  141.3201   78.3833  221.2376 H   0  0  0  0  0  0  0  0  0  0  0  0
  141.9760   79.5078  219.1387 H   0  0  0  0  0  0  0  0  0  0  0  0
  142.7722   78.2006  217.1941 H   0  0  0  0  0  0  0  0  0  0  0  0
  142.9201   75.7246  217.3595 H   0  0  0  0  0  0  0  0  0  0  0  0
  141.7551   73.5831  218.9280 H   0  0  0  0  0  0  0  0  0  0  0  0
  144.0487   74.7277  221.6841 H   0  0  0  0  0  0  0  0  0  0  0  0
  146.3931   73.9782  221.7383 H   0  0  0  0  0  0  0  0  0  0  0  0
  147.3631   72.6244  219.8840 H   0  0  0  0  0  0  0  0  0  0  0  0
  143.5924   72.7833  217.9081 H   0  0  0  0  0  0  0  0  0  0  0  0
  137.5182   75.2111  222.6955 H   0  0  0  0  0  0  0  0  0  0  0  0
  139.2925   75.4403  222.7922 H   0  0  0  0  0  0  0  0  0  0  0  0
  137.0790   77.4999  222.7332 H   0  0  0  0  0  0  0  0  0  0  0  0
  138.5124   77.3971  223.8044 H   0  0  0  0  0  0  0  0  0  0  0  0
  1  2  1  0
  2  3  1  0
  3  4  2  0
  3  5  1  0
  5  6  1  0
  6  7  2  0
  7  8  1  0
  8  9  2  0
  9 10  1  0
 10 11  2  0
  5 12  1  0
 12 13  1  0
 13 14  1  0
 14 15  1  0
 15 16  1  0
 16 17  2  0
 16 18  1  0
 18 19  1  0
 18 20  1  0
 20 21  1  0
 21 22  1  0
 22 23  2  0
 23 24  1  0
 24 25  2  0
 25 26  1  0
 26 27  2  0
 27 28  1  0
 28 29  1  0
 29 30  2  0
 30 31  1  0
 31 32  2  0
 32 33  1  0
 33 34  2  0
 15 35  1  0
 35 36  1  0
 11  6  1  0
 36 12  1  0
 28 20  1  0
 34 29  1  0
 27 22  1  0
  1 37  1  0
  1 38  1  0
  1 39  1  0
  2 40  1  0
  2 41  1  0
  7 42  1  0
  8 43  1  0
  9 44  1  0
 10 45  1  0
 11 46  1  0
 12 47  1  0
 13 48  1  0
 13 49  1  0
 14 50  1  0
 14 51  1  0
 18 52  1  6
 19 53  1  0
 19 54  1  0
 20 55  1  1
 21 56  1  0
 21 57  1  0
 23 58  1  0
 24 59  1  0
 25 60  1  0
 26 61  1  0
 28 62  1  6
 30 63  1  0
 31 64  1  0
 32 65  1  0
 34 66  1  0
 35 67  1  0
 35 68  1  0
 36 69  1  0
 36 70  1  0
M  END
>  <smiles>  (133) 
CCC(=O)N(c1ccccc1)C1CCN(C(=O)[C@H](N)C2Cc3ccccc3C2c2cccnc2)CC1

>  <score_type>  (133) 
oracle

>  <origin>  (133) 
autodockgpu

>  <m_score__min__energy>  (133) 
-9.0999999999999996

>  <m_primary>  (133) 
energy

>  <rmsd>  (133) 
5.612542916736615

>  <m_score__min__rmsd>  (133) 
5.612542916736615

>  <meeko>  (133) 
{"free_energy": -7.99, "intermolecular_energy": -10.38, "internal_energy": -3.34, "cluster_size": 28, "cluster_id": 5, "rank_in_cluster": 9}

>  <energy>  (133) 
-7.98

>  <cluster_rmsd>  (133) 
0.73

>  <cluster>  (133) 
5

$$$$

     RDKit          3D

 70 74  0  0  0  0  0  0  0  0999 V2000
  138.8090   67.5530  222.4620 C   0  0  0  0  0  0  0  0  0  0  0  0
  138.2930   68.9520  222.2570 C   0  0  0  0  0  0  0  0  0  0  0  0
  139.4210   69.9200  222.2460 C   0  0  0  0  0  0  0  0  0  0  0  0
  140.3120   69.7240  221.3660 O   0  0  0  0  0  0  0  0  0  0  0  0
  139.4940   71.0080  223.1750 N   0  0  0  0  0  0  0  0  0  0  0  0
  139.8360   70.6870  224.5180 C   0  0  0  0  0  0  0  0  0  0  0  0
  139.3550   69.5760  225.1780 C   0  0  0  0  0  0  0  0  0  0  0  0
  139.7330   69.3200  226.4850 C   0  0  0  0  0  0  0  0  0  0  0  0
  140.6000   70.1870  227.1390 C   0  0  0  0  0  0  0  0  0  0  0  0
  141.0770   71.2980  226.4740 C   0  0  0  0  0  0  0  0  0  0  0  0
  140.7080   71.5660  225.1650 C   0  0  0  0  0  0  0  0  0  0  0  0
  139.2250   72.3490  222.7240 C   0  0  0  0  0  0  0  0  0  0  0  0
  137.8370   72.5000  222.1110 C   0  0  0  0  0  0  0  0  0  0  0  0
  137.8290   73.7100  221.1830 C   0  0  0  0  0  0  0  0  0  0  0  0
  138.8100   74.6830  221.6460 N   0  0  0  0  0  0  0  0  0  0  0  0
  138.3260   75.9210  222.1250 C   0  0  0  0  0  0  0  0  0  0  0  0
  137.0660   76.0680  222.1060 O   0  0  0  0  0  0  0  0  0  0  0  0
  139.1190   77.0370  222.6350 C   0  0  2  0  0  0  0  0  0  0  0  0
  138.3860   78.3100  222.4990 N   0  0  0  0  0  0  0  0  0  0  0  0
  140.4750   77.2100  221.9830 C   0  0  2  0  0  0  0  0  0  0  0  0
  141.4400   77.5290  223.0980 C   0  0  0  0  0  0  0  0  0  0  0  0
  141.5950   78.9950  223.0590 C   0  0  0  0  0  0  0  0  0  0  0  0
  142.1750   79.8790  223.9480 C   0  0  0  0  0  0  0  0  0  0  0  0
  142.1850   81.2280  223.6640 C   0  0  0  0  0  0  0  0  0  0  0  0
  141.6240   81.7180  222.5030 C   0  0  0  0  0  0  0  0  0  0  0  0
  141.0450   80.8420  221.6130 C   0  0  0  0  0  0  0  0  0  0  0  0
  141.0330   79.4720  221.9010 C   0  0  0  0  0  0  0  0  0  0  0  0
  140.4610   78.3890  221.0730 C   0  0  1  0  0  0  0  0  0  0  0  0
  141.3290   78.2380  219.8690 C   0  0  0  0  0  0  0  0  0  0  0  0
  141.4080   79.1880  218.8750 C   0  0  0  0  0  0  0  0  0  0  0  0
  142.2330   78.9850  217.7870 C   0  0  0  0  0  0  0  0  0  0  0  0
  143.0020   77.8430  217.6490 C   0  0  0  0  0  0  0  0  0  0  0  0
  142.9120   76.9250  218.6330 N   0  0  0  0  0  0  0  0  0  0  0  0
  142.1040   77.1070  219.7130 C   0  0  0  0  0  0  0  0  0  0  0  0
  140.1960   74.2950  221.5840 C   0  0  0  0  0  0  0  0  0  0  0  0
  140.2900   72.8010  221.7540 C   0  0  0  0  0  0  0  0  0  0  0  0
  138.8858   67.3447  223.5394 H   0  0  0  0  0  0  0  0  0  0  0  0
  138.1165   66.8351  221.9982 H   0  0  0  0  0  0  0  0  0  0  0  0
  139.8018   67.4567  221.9982 H   0  0  0  0  0  0  0  0  0  0  0  0
  137.7595   69.0052  221.2965 H   0  0  0  0  0  0  0  0  0  0  0  0
  137.6103   69.2066  223.0811 H   0  0  0  0  0  0  0  0  0  0  0  0
  138.6671   68.8892  224.6631 H   0  0  0  0  0  0  0  0  0  0  0  0
  139.3473   68.4309  227.0054 H   0  0  0  0  0  0  0  0  0  0  0  0
  140.9034   69.9894  228.1777 H   0  0  0  0  0  0  0  0  0  0  0  0
  141.7630   71.9840  226.9924 H   0  0  0  0  0  0  0  0  0  0  0  0
  141.0948   72.4548  224.6450 H   0  0  0  0  0  0  0  0  0  0  0  0
  139.2470   72.9965  223.6129 H   0  0  0  0  0  0  0  0  0  0  0  0
  137.5872   71.5949  221.5379 H   0  0  0  0  0  0  0  0  0  0  0  0
  137.0933   72.6408  222.9091 H   0  0  0  0  0  0  0  0  0  0  0  0
  138.0831   73.3905  220.1616 H   0  0  0  0  0  0  0  0  0  0  0  0
  136.8288   74.1677  221.1855 H   0  0  0  0  0  0  0  0  0  0  0  0
  139.2937   76.7789  223.6899 H   0  0  0  0  0  0  0  0  0  0  0  0
  138.0790   78.6750  223.4280 H   0  0  0  0  0  0  0  0  0  0  0  0
  137.5210   78.1760  221.9450 H   0  0  0  0  0  0  0  0  0  0  0  0
  140.7444   76.3070  221.4155 H   0  0  0  0  0  0  0  0  0  0  0  0
  141.0305   77.2089  224.0675 H   0  0  0  0  0  0  0  0  0  0  0  0
  142.4010   77.0079  222.9753 H   0  0  0  0  0  0  0  0  0  0  0  0
  142.6274   79.5078  224.8794 H   0  0  0  0  0  0  0  0  0  0  0  0
  142.6488   81.9263  224.3762 H   0  0  0  0  0  0  0  0  0  0  0  0
  141.6392   82.7972  222.2907 H   0  0  0  0  0  0  0  0  0  0  0  0
  140.5947   81.2159  220.6817 H   0  0  0  0  0  0  0  0  0  0  0  0
  139.4420   78.5559  220.6938 H   0  0  0  0  0  0  0  0  0  0  0  0
  140.8127   80.1101  218.9482 H   0  0  0  0  0  0  0  0  0  0  0  0
  142.2806   79.7563  217.0042 H   0  0  0  0  0  0  0  0  0  0  0  0
  143.6560   77.6910  216.7777 H   0  0  0  0  0  0  0  0  0  0  0  0
  142.0676   76.3265  220.4873 H   0  0  0  0  0  0  0  0  0  0  0  0
  140.6174   74.5835  220.6097 H   0  0  0  0  0  0  0  0  0  0  0  0
  140.7611   74.7983  222.3824 H   0  0  0  0  0  0  0  0  0  0  0  0
  140.1367   72.3088  220.7823 H   0  0  0  0  0  0  0  0  0  0  0  0
  141.2839   72.5327  222.1416 H   0  0  0  0  0  0  0  0  0  0  0  0
  1  2  1  0
  2  3  1  0
  3  4  2  0
  3  5  1  0
  5  6  1  0
  6  7  2  0
  7  8  1  0
  8  9  2  0
  9 10  1  0
 10 11  2  0
  5 12  1  0
 12 13  1  0
 13 14  1  0
 14 15  1  0
 15 16  1  0
 16 17  2  0
 16 18  1  0
 18 19  1  0
 18 20  1  0
 20 21  1  0
 21 22  1  0
 22 23  2  0
 23 24  1  0
 24 25  2  0
 25 26  1  0
 26 27  2  0
 27 28  1  0
 28 29  1  0
 29 30  2  0
 30 31  1  0
 31 32  2  0
 32 33  1  0
 33 34  2  0
 15 35  1  0
 35 36  1  0
 11  6  1  0
 36 12  1  0
 28 20  1  0
 34 29  1  0
 27 22  1  0
  1 37  1  0
  1 38  1  0
  1 39  1  0
  2 40  1  0
  2 41  1  0
  7 42  1  0
  8 43  1  0
  9 44  1  0
 10 45  1  0
 11 46  1  0
 12 47  1  0
 13 48  1  0
 13 49  1  0
 14 50  1  0
 14 51  1  0
 18 52  1  1
 19 53  1  0
 19 54  1  0
 20 55  1  6
 21 56  1  0
 21 57  1  0
 23 58  1  0
 24 59  1  0
 25 60  1  0
 26 61  1  0
 28 62  1  6
 30 63  1  0
 31 64  1  0
 32 65  1  0
 34 66  1  0
 35 67  1  0
 35 68  1  0
 36 69  1  0
 36 70  1  0
M  END
>  <smiles>  (134) 
CCC(=O)N(c1ccccc1)C1CCN(C(=O)[C@H](N)C2Cc3ccccc3C2c2cccnc2)CC1

>  <score_type>  (134) 
oracle

>  <origin>  (134) 
autodockgpu

>  <m_score__min__energy>  (134) 
-9.0999999999999996

>  <m_primary>  (134) 
energy

>  <rmsd>  (134) 
5.237406894302056

>  <m_score__min__rmsd>  (134) 
5.237406894302056

>  <meeko>  (134) 
{"free_energy": -8.15, "intermolecular_energy": -10.53, "internal_energy": -2.79, "cluster_size": 6, "cluster_id": 4, "rank_in_cluster": 4}

>  <energy>  (134) 
-7.98

>  <cluster_rmsd>  (134) 
1.86

>  <cluster>  (134) 
5

$$$$

     RDKit          3D

 70 74  0  0  0  0  0  0  0  0999 V2000
  137.6950   80.9620  224.6780 C   0  0  0  0  0  0  0  0  0  0  0  0
  136.8980   80.4830  223.4940 C   0  0  0  0  0  0  0  0  0  0  0  0
  137.7650   80.4000  222.2900 C   0  0  0  0  0  0  0  0  0  0  0  0
  137.4020   81.0950  221.2950 O   0  0  0  0  0  0  0  0  0  0  0  0
  138.9420   79.5820  222.2590 N   0  0  0  0  0  0  0  0  0  0  0  0
  140.1600   80.1890  222.6730 C   0  0  0  0  0  0  0  0  0  0  0  0
  140.5190   81.4770  222.3360 C   0  0  0  0  0  0  0  0  0  0  0  0
  141.7180   82.0090  222.7770 C   0  0  0  0  0  0  0  0  0  0  0  0
  142.5690   81.2420  223.5650 C   0  0  0  0  0  0  0  0  0  0  0  0
  142.2050   79.9540  223.8990 C   0  0  0  0  0  0  0  0  0  0  0  0
  141.0060   79.4090  223.4640 C   0  0  0  0  0  0  0  0  0  0  0  0
  138.8480   78.2140  221.8190 C   0  0  0  0  0  0  0  0  0  0  0  0
  138.1620   78.0730  220.4660 C   0  0  0  0  0  0  0  0  0  0  0  0
  137.6010   76.6610  220.3330 C   0  0  0  0  0  0  0  0  0  0  0  0
  138.4080   75.7420  221.1270 N   0  0  0  0  0  0  0  0  0  0  0  0
  139.1530   74.7630  220.4340 C   0  0  0  0  0  0  0  0  0  0  0  0
  139.0470   74.7770  219.1690 O   0  0  0  0  0  0  0  0  0  0  0  0
  140.0240   73.7460  221.0180 C   0  0  2  0  0  0  0  0  0  0  0  0
  139.5310   73.3290  222.3450 N   0  0  0  0  0  0  0  0  0  0  0  0
  141.4740   74.1550  221.1690 C   0  0  2  0  0  0  0  0  0  0  0  0
  141.4590   75.5780  221.6720 C   0  0  0  0  0  0  0  0  0  0  0  0
  141.6870   76.4070  220.4740 C   0  0  0  0  0  0  0  0  0  0  0  0
  141.5720   77.7680  220.2660 C   0  0  0  0  0  0  0  0  0  0  0  0
  141.8500   78.2970  219.0230 C   0  0  0  0  0  0  0  0  0  0  0  0
  142.2430   77.4910  217.9750 C   0  0  0  0  0  0  0  0  0  0  0  0
  142.3590   76.1340  218.1770 C   0  0  0  0  0  0  0  0  0  0  0  0
  142.0770   75.5960  219.4370 C   0  0  0  0  0  0  0  0  0  0  0  0
  142.1440   74.1740  219.8390 C   0  0  1  0  0  0  0  0  0  0  0  0
  143.5840   73.7870  219.8780 C   0  0  0  0  0  0  0  0  0  0  0  0
  144.4370   74.1620  220.8920 C   0  0  0  0  0  0  0  0  0  0  0  0
  145.7590   73.7670  220.8670 C   0  0  0  0  0  0  0  0  0  0  0  0
  146.2770   72.9920  219.8440 C   0  0  0  0  0  0  0  0  0  0  0  0
  145.4260   72.6350  218.8600 N   0  0  0  0  0  0  0  0  0  0  0  0
  144.1200   73.0150  218.8680 C   0  0  0  0  0  0  0  0  0  0  0  0
  138.3830   75.9180  222.5560 C   0  0  0  0  0  0  0  0  0  0  0  0
  138.1500   77.3750  222.8630 C   0  0  0  0  0  0  0  0  0  0  0  0
  137.1900   80.6585  225.6069 H   0  0  0  0  0  0  0  0  0  0  0  0
  138.7013   80.5189  224.6461 H   0  0  0  0  0  0  0  0  0  0  0  0
  137.7760   82.0585  224.6461 H   0  0  0  0  0  0  0  0  0  0  0  0
  136.4847   79.4874  223.7132 H   0  0  0  0  0  0  0  0  0  0  0  0
  136.0819   81.1946  223.2997 H   0  0  0  0  0  0  0  0  0  0  0  0
  139.8478   82.0857  221.7124 H   0  0  0  0  0  0  0  0  0  0  0  0
  141.9975   83.0374  222.5045 H   0  0  0  0  0  0  0  0  0  0  0  0
  143.5237   81.6584  223.9188 H   0  0  0  0  0  0  0  0  0  0  0  0
  142.8786   79.3475  224.5223 H   0  0  0  0  0  0  0  0  0  0  0  0
  140.7266   78.3808  223.7372 H   0  0  0  0  0  0  0  0  0  0  0  0
  139.8767   77.8474  221.6870 H   0  0  0  0  0  0  0  0  0  0  0  0
  137.3426   78.8030  220.3911 H   0  0  0  0  0  0  0  0  0  0  0  0
  138.8891   78.2591  219.6618 H   0  0  0  0  0  0  0  0  0  0  0  0
  136.5622   76.6433  220.6945 H   0  0  0  0  0  0  0  0  0  0  0  0
  137.6264   76.3537  219.2771 H   0  0  0  0  0  0  0  0  0  0  0  0
  139.9909   72.9191  220.2934 H   0  0  0  0  0  0  0  0  0  0  0  0
  138.4930   73.4220  222.4130 H   0  0  0  0  0  0  0  0  0  0  0  0
  139.9220   73.9380  223.0870 H   0  0  0  0  0  0  0  0  0  0  0  0
  141.9999   73.4588  221.8389 H   0  0  0  0  0  0  0  0  0  0  0  0
  140.4871   75.8168  222.1285 H   0  0  0  0  0  0  0  0  0  0  0  0
  142.2209   75.7513  222.4463 H   0  0  0  0  0  0  0  0  0  0  0  0
  141.2597   78.4275  221.0891 H   0  0  0  0  0  0  0  0  0  0  0  0
  141.7566   79.3815  218.8645 H   0  0  0  0  0  0  0  0  0  0  0  0
  142.4612   77.9273  216.9891 H   0  0  0  0  0  0  0  0  0  0  0  0
  142.6716   75.4767  217.3522 H   0  0  0  0  0  0  0  0  0  0  0  0
  141.6541   73.4562  219.1646 H   0  0  0  0  0  0  0  0  0  0  0  0
  144.0638   74.7777  221.7236 H   0  0  0  0  0  0  0  0  0  0  0  0
  146.4228   74.0783  221.6870 H   0  0  0  0  0  0  0  0  0  0  0  0
  147.3323   72.6819  219.8338 H   0  0  0  0  0  0  0  0  0  0  0  0
  143.4689   72.6959  218.0408 H   0  0  0  0  0  0  0  0  0  0  0  0
  137.5711   75.3148  222.9884 H   0  0  0  0  0  0  0  0  0  0  0  0
  139.3409   75.5939  222.9888 H   0  0  0  0  0  0  0  0  0  0  0  0
  137.0709   77.5877  222.8463 H   0  0  0  0  0  0  0  0  0  0  0  0
  138.5490   77.6137  223.8599 H   0  0  0  0  0  0  0  0  0  0  0  0
  1  2  1  0
  2  3  1  0
  3  4  2  0
  3  5  1  0
  5  6  1  0
  6  7  2  0
  7  8  1  0
  8  9  2  0
  9 10  1  0
 10 11  2  0
  5 12  1  0
 12 13  1  0
 13 14  1  0
 14 15  1  0
 15 16  1  0
 16 17  2  0
 16 18  1  0
 18 19  1  0
 18 20  1  0
 20 21  1  0
 21 22  1  0
 22 23  2  0
 23 24  1  0
 24 25  2  0
 25 26  1  0
 26 27  2  0
 27 28  1  0
 28 29  1  0
 29 30  2  0
 30 31  1  0
 31 32  2  0
 32 33  1  0
 33 34  2  0
 15 35  1  0
 35 36  1  0
 11  6  1  0
 36 12  1  0
 28 20  1  0
 34 29  1  0
 27 22  1  0
  1 37  1  0
  1 38  1  0
  1 39  1  0
  2 40  1  0
  2 41  1  0
  7 42  1  0
  8 43  1  0
  9 44  1  0
 10 45  1  0
 11 46  1  0
 12 47  1  0
 13 48  1  0
 13 49  1  0
 14 50  1  0
 14 51  1  0
 18 52  1  6
 19 53  1  0
 19 54  1  0
 20 55  1  1
 21 56  1  0
 21 57  1  0
 23 58  1  0
 24 59  1  0
 25 60  1  0
 26 61  1  0
 28 62  1  6
 30 63  1  0
 31 64  1  0
 32 65  1  0
 34 66  1  0
 35 67  1  0
 35 68  1  0
 36 69  1  0
 36 70  1  0
M  END
>  <smiles>  (135) 
CCC(=O)N(c1ccccc1)C1CCN(C(=O)[C@H](N)C2Cc3ccccc3C2c2cccnc2)CC1

>  <score_type>  (135) 
oracle

>  <origin>  (135) 
autodockgpu

>  <m_score__min__energy>  (135) 
-9.0999999999999996

>  <m_primary>  (135) 
energy

>  <rmsd>  (135) 
5.644200058236262

>  <m_score__min__rmsd>  (135) 
5.644200058236262

>  <meeko>  (135) 
{"free_energy": -7.97, "intermolecular_energy": -10.36, "internal_energy": -3.41, "cluster_size": 28, "cluster_id": 5, "rank_in_cluster": 14}

>  <energy>  (135) 
-7.97

>  <cluster_rmsd>  (135) 
0.65

>  <cluster>  (135) 
5

$$$$

     RDKit          3D

 70 74  0  0  0  0  0  0  0  0999 V2000
  137.6910   81.0810  224.8900 C   0  0  0  0  0  0  0  0  0  0  0  0
  137.2870   80.5950  223.5240 C   0  0  0  0  0  0  0  0  0  0  0  0
  138.4260   80.7150  222.5770 C   0  0  0  0  0  0  0  0  0  0  0  0
  138.4020   81.7190  221.8050 O   0  0  0  0  0  0  0  0  0  0  0  0
  139.4870   79.7530  222.5430 N   0  0  0  0  0  0  0  0  0  0  0  0
  140.7610   80.1800  223.0100 C   0  0  0  0  0  0  0  0  0  0  0  0
  140.9450   81.3000  223.7940 C   0  0  0  0  0  0  0  0  0  0  0  0
  142.2130   81.6570  224.2190 C   0  0  0  0  0  0  0  0  0  0  0  0
  143.3100   80.8850  223.8530 C   0  0  0  0  0  0  0  0  0  0  0  0
  143.1200   79.7670  223.0690 C   0  0  0  0  0  0  0  0  0  0  0  0
  141.8560   79.3970  222.6360 C   0  0  0  0  0  0  0  0  0  0  0  0
  139.2290   78.4240  222.0490 C   0  0  0  0  0  0  0  0  0  0  0  0
  138.4920   78.4220  220.7160 C   0  0  0  0  0  0  0  0  0  0  0  0
  137.7750   77.0870  220.5420 C   0  0  0  0  0  0  0  0  0  0  0  0
  138.4990   76.0500  221.2680 N   0  0  0  0  0  0  0  0  0  0  0  0
  139.1090   75.0290  220.5080 C   0  0  0  0  0  0  0  0  0  0  0  0
  138.9690   75.1130  219.2490 O   0  0  0  0  0  0  0  0  0  0  0  0
  139.8810   73.8960  221.0170 C   0  0  2  0  0  0  0  0  0  0  0  0
  139.3380   73.4280  222.3070 N   0  0  0  0  0  0  0  0  0  0  0  0
  141.3590   74.1620  221.2040 C   0  0  2  0  0  0  0  0  0  0  0  0
  141.4780   75.6090  221.6140 C   0  0  0  0  0  0  0  0  0  0  0  0
  141.8370   76.3260  220.3760 C   0  0  0  0  0  0  0  0  0  0  0  0
  141.8760   77.6740  220.0770 C   0  0  0  0  0  0  0  0  0  0  0  0
  142.2550   78.0850  218.8170 C   0  0  0  0  0  0  0  0  0  0  0  0
  142.5970   77.1730  217.8400 C   0  0  0  0  0  0  0  0  0  0  0  0
  142.5600   75.8280  218.1330 C   0  0  0  0  0  0  0  0  0  0  0  0
  142.1760   75.4100  219.4120 C   0  0  0  0  0  0  0  0  0  0  0  0
  142.0760   74.0200  219.9060 C   0  0  1  0  0  0  0  0  0  0  0  0
  143.4630   73.4880  220.0320 C   0  0  0  0  0  0  0  0  0  0  0  0
  144.4210   74.0670  220.8350 C   0  0  0  0  0  0  0  0  0  0  0  0
  145.6870   73.5210  220.9070 C   0  0  0  0  0  0  0  0  0  0  0  0
  146.0440   72.3920  220.1910 C   0  0  0  0  0  0  0  0  0  0  0  0
  145.0920   71.8390  219.4110 N   0  0  0  0  0  0  0  0  0  0  0  0
  143.8390   72.3630  219.3270 C   0  0  0  0  0  0  0  0  0  0  0  0
  138.5360   76.1610  222.7030 C   0  0  0  0  0  0  0  0  0  0  0  0
  138.4740   77.6190  223.0800 C   0  0  0  0  0  0  0  0  0  0  0  0
  137.1877   80.4756  225.6582 H   0  0  0  0  0  0  0  0  0  0  0  0
  138.7809   80.9872  225.0050 H   0  0  0  0  0  0  0  0  0  0  0  0
  137.3996   82.1354  225.0050 H   0  0  0  0  0  0  0  0  0  0  0  0
  136.9793   79.5410  223.5900 H   0  0  0  0  0  0  0  0  0  0  0  0
  136.4509   81.2091  223.1582 H   0  0  0  0  0  0  0  0  0  0  0  0
  140.0787   81.9131  224.0832 H   0  0  0  0  0  0  0  0  0  0  0  0
  142.3527   82.5503  224.8455 H   0  0  0  0  0  0  0  0  0  0  0  0
  144.3206   81.1639  224.1861 H   0  0  0  0  0  0  0  0  0  0  0  0
  143.9886   79.1564  222.7813 H   0  0  0  0  0  0  0  0  0  0  0  0
  141.7178   78.5034  222.0095 H   0  0  0  0  0  0  0  0  0  0  0  0
  140.2062   77.9530  221.8665 H   0  0  0  0  0  0  0  0  0  0  0  0
  137.7563   79.2396  220.7010 H   0  0  0  0  0  0  0  0  0  0  0  0
  139.2108   78.5654  219.8958 H   0  0  0  0  0  0  0  0  0  0  0  0
  136.7517   77.1657  220.9378 H   0  0  0  0  0  0  0  0  0  0  0  0
  137.7351   76.8279  219.4737 H   0  0  0  0  0  0  0  0  0  0  0  0
  139.7834   73.1311  220.2325 H   0  0  0  0  0  0  0  0  0  0  0  0
  138.2940   73.4060  222.2960 H   0  0  0  0  0  0  0  0  0  0  0  0
  139.6020   74.0760  223.0710 H   0  0  0  0  0  0  0  0  0  0  0  0
  141.7825   73.4622  221.9395 H   0  0  0  0  0  0  0  0  0  0  0  0
  140.5213   75.9785  222.0116 H   0  0  0  0  0  0  0  0  0  0  0  0
  142.2252   75.7543  222.4081 H   0  0  0  0  0  0  0  0  0  0  0  0
  141.6055   78.4170  220.8417 H   0  0  0  0  0  0  0  0  0  0  0  0
  142.2853   79.1601  218.5863 H   0  0  0  0  0  0  0  0  0  0  0  0
  142.8958   77.5162  216.8385 H   0  0  0  0  0  0  0  0  0  0  0  0
  142.8306   75.0869  217.3665 H   0  0  0  0  0  0  0  0  0  0  0  0
  141.5376   73.3128  219.2580 H   0  0  0  0  0  0  0  0  0  0  0  0
  144.1768   74.9660  221.4199 H   0  0  0  0  0  0  0  0  0  0  0  0
  146.4365   73.9992  221.5548 H   0  0  0  0  0  0  0  0  0  0  0  0
  147.0560   71.9656  220.2547 H   0  0  0  0  0  0  0  0  0  0  0  0
  143.1008   71.8732  218.6750 H   0  0  0  0  0  0  0  0  0  0  0  0
  137.6758   75.6302  223.1370 H   0  0  0  0  0  0  0  0  0  0  0  0
  139.4648   75.7149  223.0882 H   0  0  0  0  0  0  0  0  0  0  0  0
  137.4249   77.9483  223.1096 H   0  0  0  0  0  0  0  0  0  0  0  0
  138.9259   77.7668  224.0719 H   0  0  0  0  0  0  0  0  0  0  0  0
  1  2  1  0
  2  3  1  0
  3  4  2  0
  3  5  1  0
  5  6  1  0
  6  7  2  0
  7  8  1  0
  8  9  2  0
  9 10  1  0
 10 11  2  0
  5 12  1  0
 12 13  1  0
 13 14  1  0
 14 15  1  0
 15 16  1  0
 16 17  2  0
 16 18  1  0
 18 19  1  0
 18 20  1  0
 20 21  1  0
 21 22  1  0
 22 23  2  0
 23 24  1  0
 24 25  2  0
 25 26  1  0
 26 27  2  0
 27 28  1  0
 28 29  1  0
 29 30  2  0
 30 31  1  0
 31 32  2  0
 32 33  1  0
 33 34  2  0
 15 35  1  0
 35 36  1  0
 11  6  1  0
 36 12  1  0
 28 20  1  0
 34 29  1  0
 27 22  1  0
  1 37  1  0
  1 38  1  0
  1 39  1  0
  2 40  1  0
  2 41  1  0
  7 42  1  0
  8 43  1  0
  9 44  1  0
 10 45  1  0
 11 46  1  0
 12 47  1  0
 13 48  1  0
 13 49  1  0
 14 50  1  0
 14 51  1  0
 18 52  1  6
 19 53  1  0
 19 54  1  0
 20 55  1  1
 21 56  1  0
 21 57  1  0
 23 58  1  0
 24 59  1  0
 25 60  1  0
 26 61  1  0
 28 62  1  6
 30 63  1  0
 31 64  1  0
 32 65  1  0
 34 66  1  0
 35 67  1  0
 35 68  1  0
 36 69  1  0
 36 70  1  0
M  END
>  <smiles>  (136) 
CCC(=O)N(c1ccccc1)C1CCN(C(=O)[C@H](N)C2Cc3ccccc3C2c2cccnc2)CC1

>  <score_type>  (136) 
oracle

>  <origin>  (136) 
autodockgpu

>  <m_score__min__energy>  (136) 
-9.0999999999999996

>  <m_primary>  (136) 
energy

>  <rmsd>  (136) 
5.696032261957301

>  <m_score__min__rmsd>  (136) 
5.696032261957301

>  <meeko>  (136) 
{"free_energy": -8.13, "intermolecular_energy": -10.52, "internal_energy": -3.23, "cluster_size": 28, "cluster_id": 5, "rank_in_cluster": 5}

>  <energy>  (136) 
-7.97

>  <cluster_rmsd>  (136) 
0.68

>  <cluster>  (136) 
5

$$$$

     RDKit          3D

 70 74  0  0  0  0  0  0  0  0999 V2000
  137.7120   81.0300  224.9510 C   0  0  0  0  0  0  0  0  0  0  0  0
  137.3350   80.3730  223.6500 C   0  0  0  0  0  0  0  0  0  0  0  0
  138.4060   80.5800  222.6400 C   0  0  0  0  0  0  0  0  0  0  0  0
  138.2840   81.6030  221.9030 O   0  0  0  0  0  0  0  0  0  0  0  0
  139.5080   79.6740  222.5100 N   0  0  0  0  0  0  0  0  0  0  0  0
  140.7710   80.1240  222.9840 C   0  0  0  0  0  0  0  0  0  0  0  0
  140.9320   81.2490  223.7650 C   0  0  0  0  0  0  0  0  0  0  0  0
  142.1910   81.6280  224.1970 C   0  0  0  0  0  0  0  0  0  0  0  0
  143.3030   80.8730  223.8430 C   0  0  0  0  0  0  0  0  0  0  0  0
  143.1360   79.7490  223.0620 C   0  0  0  0  0  0  0  0  0  0  0  0
  141.8810   79.3570  222.6210 C   0  0  0  0  0  0  0  0  0  0  0  0
  139.3000   78.3780  221.9170 C   0  0  0  0  0  0  0  0  0  0  0  0
  138.6290   78.4520  220.5510 C   0  0  0  0  0  0  0  0  0  0  0  0
  137.9460   77.1200  220.2550 C   0  0  0  0  0  0  0  0  0  0  0  0
  138.6540   76.0490  220.9470 N   0  0  0  0  0  0  0  0  0  0  0  0
  139.3200   75.0900  220.1530 C   0  0  0  0  0  0  0  0  0  0  0  0
  139.2390   75.2550  218.8970 O   0  0  0  0  0  0  0  0  0  0  0  0
  140.0870   73.9390  220.6250 C   0  0  2  0  0  0  0  0  0  0  0  0
  139.4950   73.3800  221.8560 N   0  0  0  0  0  0  0  0  0  0  0  0
  141.5510   74.2130  220.8970 C   0  0  2  0  0  0  0  0  0  0  0  0
  141.6350   75.6560  221.3330 C   0  0  0  0  0  0  0  0  0  0  0  0
  142.0550   76.3930  220.1260 C   0  0  0  0  0  0  0  0  0  0  0  0
  142.0980   77.7450  219.8480 C   0  0  0  0  0  0  0  0  0  0  0  0
  142.5420   78.1770  218.6160 C   0  0  0  0  0  0  0  0  0  0  0  0
  142.9460   77.2810  217.6480 C   0  0  0  0  0  0  0  0  0  0  0  0
  142.9040   75.9320  217.9190 C   0  0  0  0  0  0  0  0  0  0  0  0
  142.4540   75.4930  219.1690 C   0  0  0  0  0  0  0  0  0  0  0  0
  142.3390   74.0950  219.6390 C   0  0  1  0  0  0  0  0  0  0  0  0
  143.7220   73.5730  219.8340 C   0  0  0  0  0  0  0  0  0  0  0  0
  144.4590   73.8020  220.9740 C   0  0  0  0  0  0  0  0  0  0  0  0
  145.7350   73.2870  221.0910 C   0  0  0  0  0  0  0  0  0  0  0  0
  146.3180   72.5320  220.0880 C   0  0  0  0  0  0  0  0  0  0  0  0
  145.5800   72.3180  218.9790 N   0  0  0  0  0  0  0  0  0  0  0  0
  144.3220   72.8180  218.8470 C   0  0  0  0  0  0  0  0  0  0  0  0
  138.6190   76.0650  222.3870 C   0  0  0  0  0  0  0  0  0  0  0  0
  138.5120   77.4940  222.8540 C   0  0  0  0  0  0  0  0  0  0  0  0
  137.3578   80.4127  225.7897 H   0  0  0  0  0  0  0  0  0  0  0  0
  138.8059   81.1317  225.0070 H   0  0  0  0  0  0  0  0  0  0  0  0
  137.2479   82.0257  225.0070 H   0  0  0  0  0  0  0  0  0  0  0  0
  137.1949   79.2945  223.8150 H   0  0  0  0  0  0  0  0  0  0  0  0
  136.4013   80.8211  223.2794 H   0  0  0  0  0  0  0  0  0  0  0  0
  140.0541   81.8491  224.0465 H   0  0  0  0  0  0  0  0  0  0  0  0
  142.3116   82.5263  224.8203 H   0  0  0  0  0  0  0  0  0  0  0  0
  144.3064   81.1693  224.1826 H   0  0  0  0  0  0  0  0  0  0  0  0
  144.0162   79.1511  222.7831 H   0  0  0  0  0  0  0  0  0  0  0  0
  141.7616   78.4590  221.9971 H   0  0  0  0  0  0  0  0  0  0  0  0
  140.2941   77.9368  221.7521 H   0  0  0  0  0  0  0  0  0  0  0  0
  137.8798   79.2574  220.5522 H   0  0  0  0  0  0  0  0  0  0  0  0
  139.3844   78.6598  219.7788 H   0  0  0  0  0  0  0  0  0  0  0  0
  136.9035   77.1564  220.6042 H   0  0  0  0  0  0  0  0  0  0  0  0
  137.9621   76.9313  219.1714 H   0  0  0  0  0  0  0  0  0  0  0  0
  140.0374   73.2255  219.7893 H   0  0  0  0  0  0  0  0  0  0  0  0
  138.4660   73.2360  221.7520 H   0  0  0  0  0  0  0  0  0  0  0  0
  139.6130   74.0370  222.6480 H   0  0  0  0  0  0  0  0  0  0  0  0
  141.9394   73.5060  221.6448 H   0  0  0  0  0  0  0  0  0  0  0  0
  140.6548   76.0124  221.6827 H   0  0  0  0  0  0  0  0  0  0  0  0
  142.3362   75.7960  222.1688 H   0  0  0  0  0  0  0  0  0  0  0  0
  141.7792   78.4749  220.6067 H   0  0  0  0  0  0  0  0  0  0  0  0
  142.5746   79.2553  218.4013 H   0  0  0  0  0  0  0  0  0  0  0  0
  143.2980   77.6407  216.6699 H   0  0  0  0  0  0  0  0  0  0  0  0
  143.2221   75.2041  217.1580 H   0  0  0  0  0  0  0  0  0  0  0  0
  141.8428   73.3924  218.9534 H   0  0  0  0  0  0  0  0  0  0  0  0
  144.0303   74.3969  221.7940 H   0  0  0  0  0  0  0  0  0  0  0  0
  146.3062   73.4830  222.0104 H   0  0  0  0  0  0  0  0  0  0  0  0
  147.3350   72.1256  220.1903 H   0  0  0  0  0  0  0  0  0  0  0  0
  143.7637   72.6135  217.9216 H   0  0  0  0  0  0  0  0  0  0  0  0
  137.7486   75.4938  222.7421 H   0  0  0  0  0  0  0  0  0  0  0  0
  139.5356   75.6081  222.7884 H   0  0  0  0  0  0  0  0  0  0  0  0
  137.4566   77.8041  222.8533 H   0  0  0  0  0  0  0  0  0  0  0  0
  138.9137   77.5826  223.8742 H   0  0  0  0  0  0  0  0  0  0  0  0
  1  2  1  0
  2  3  1  0
  3  4  2  0
  3  5  1  0
  5  6  1  0
  6  7  2  0
  7  8  1  0
  8  9  2  0
  9 10  1  0
 10 11  2  0
  5 12  1  0
 12 13  1  0
 13 14  1  0
 14 15  1  0
 15 16  1  0
 16 17  2  0
 16 18  1  0
 18 19  1  0
 18 20  1  0
 20 21  1  0
 21 22  1  0
 22 23  2  0
 23 24  1  0
 24 25  2  0
 25 26  1  0
 26 27  2  0
 27 28  1  0
 28 29  1  0
 29 30  2  0
 30 31  1  0
 31 32  2  0
 32 33  1  0
 33 34  2  0
 15 35  1  0
 35 36  1  0
 11  6  1  0
 36 12  1  0
 28 20  1  0
 34 29  1  0
 27 22  1  0
  1 37  1  0
  1 38  1  0
  1 39  1  0
  2 40  1  0
  2 41  1  0
  7 42  1  0
  8 43  1  0
  9 44  1  0
 10 45  1  0
 11 46  1  0
 12 47  1  0
 13 48  1  0
 13 49  1  0
 14 50  1  0
 14 51  1  0
 18 52  1  6
 19 53  1  0
 19 54  1  0
 20 55  1  1
 21 56  1  0
 21 57  1  0
 23 58  1  0
 24 59  1  0
 25 60  1  0
 26 61  1  0
 28 62  1  6
 30 63  1  0
 31 64  1  0
 32 65  1  0
 34 66  1  0
 35 67  1  0
 35 68  1  0
 36 69  1  0
 36 70  1  0
M  END
>  <smiles>  (137) 
CCC(=O)N(c1ccccc1)C1CCN(C(=O)[C@H](N)C2Cc3ccccc3C2c2cccnc2)CC1

>  <score_type>  (137) 
oracle

>  <origin>  (137) 
autodockgpu

>  <m_score__min__energy>  (137) 
-9.0999999999999996

>  <m_primary>  (137) 
energy

>  <rmsd>  (137) 
5.608066123138366

>  <m_score__min__rmsd>  (137) 
5.608066123138366

>  <meeko>  (137) 
{"free_energy": -8.11, "intermolecular_energy": -10.5, "internal_energy": -3.2, "cluster_size": 28, "cluster_id": 5, "rank_in_cluster": 6}

>  <energy>  (137) 
-7.96

>  <cluster_rmsd>  (137) 
0.72

>  <cluster>  (137) 
5

$$$$

     RDKit          3D

 70 74  0  0  0  0  0  0  0  0999 V2000
  137.8220   80.8840  224.4460 C   0  0  0  0  0  0  0  0  0  0  0  0
  137.4240   80.7540  223.0000 C   0  0  0  0  0  0  0  0  0  0  0  0
  138.6310   80.7420  222.1330 C   0  0  0  0  0  0  0  0  0  0  0  0
  138.6980   81.6600  221.2630 O   0  0  0  0  0  0  0  0  0  0  0  0
  139.6570   79.7530  222.2770 N   0  0  0  0  0  0  0  0  0  0  0  0
  140.8970   80.1840  222.8240 C   0  0  0  0  0  0  0  0  0  0  0  0
  141.0160   81.2610  223.6770 C   0  0  0  0  0  0  0  0  0  0  0  0
  142.2540   81.6240  224.1790 C   0  0  0  0  0  0  0  0  0  0  0  0
  143.3870   80.9020  223.8210 C   0  0  0  0  0  0  0  0  0  0  0  0
  143.2620   79.8260  222.9680 C   0  0  0  0  0  0  0  0  0  0  0  0
  142.0280   79.4500  222.4580 C   0  0  0  0  0  0  0  0  0  0  0  0
  139.4000   78.3950  221.8700 C   0  0  0  0  0  0  0  0  0  0  0  0
  138.5590   78.3060  220.6030 C   0  0  0  0  0  0  0  0  0  0  0  0
  137.8700   76.9460  220.5530 C   0  0  0  0  0  0  0  0  0  0  0  0
  138.6790   75.9660  221.2670 N   0  0  0  0  0  0  0  0  0  0  0  0
  139.2570   74.9230  220.5110 C   0  0  0  0  0  0  0  0  0  0  0  0
  139.0150   74.9400  219.2650 O   0  0  0  0  0  0  0  0  0  0  0  0
  140.0990   73.8380  221.0110 C   0  0  2  0  0  0  0  0  0  0  0  0
  139.6210   73.3620  222.3230 N   0  0  0  0  0  0  0  0  0  0  0  0
  141.5680   74.1790  221.1480 C   0  0  2  0  0  0  0  0  0  0  0  0
  141.6290   75.6500  221.4820 C   0  0  0  0  0  0  0  0  0  0  0  0
  141.9270   76.3180  220.2010 C   0  0  0  0  0  0  0  0  0  0  0  0
  141.8960   77.6490  219.8340 C   0  0  0  0  0  0  0  0  0  0  0  0
  142.2280   78.0110  218.5450 C   0  0  0  0  0  0  0  0  0  0  0  0
  142.5910   77.0660  217.6080 C   0  0  0  0  0  0  0  0  0  0  0  0
  142.6220   75.7380  217.9680 C   0  0  0  0  0  0  0  0  0  0  0  0
  142.2860   75.3690  219.2760 C   0  0  0  0  0  0  0  0  0  0  0  0
  142.2610   74.0040  219.8420 C   0  0  1  0  0  0  0  0  0  0  0  0
  143.6750   73.5420  219.9610 C   0  0  0  0  0  0  0  0  0  0  0  0
  144.4420   73.7500  221.0850 C   0  0  0  0  0  0  0  0  0  0  0  0
  145.7450   73.2950  221.1300 C   0  0  0  0  0  0  0  0  0  0  0  0
  146.3260   72.6220  220.0690 C   0  0  0  0  0  0  0  0  0  0  0  0
  145.5580   72.4270  218.9770 N   0  0  0  0  0  0  0  0  0  0  0  0
  144.2730   72.8690  218.9150 C   0  0  0  0  0  0  0  0  0  0  0  0
  138.8270   76.1510  222.6880 C   0  0  0  0  0  0  0  0  0  0  0  0
  138.7530   77.6240  222.9970 C   0  0  0  0  0  0  0  0  0  0  0  0
  136.9720   80.6064  225.0866 H   0  0  0  0  0  0  0  0  0  0  0  0
  138.6713   80.2166  224.6540 H   0  0  0  0  0  0  0  0  0  0  0  0
  138.1135   81.9241  224.6540 H   0  0  0  0  0  0  0  0  0  0  0  0
  136.8668   79.8160  222.8597 H   0  0  0  0  0  0  0  0  0  0  0  0
  136.7929   81.6115  222.7236 H   0  0  0  0  0  0  0  0  0  0  0  0
  140.1216   81.8353  223.9603 H   0  0  0  0  0  0  0  0  0  0  0  0
  142.3413   82.4830  224.8606 H   0  0  0  0  0  0  0  0  0  0  0  0
  144.3739   81.1866  224.2146 H   0  0  0  0  0  0  0  0  0  0  0  0
  144.1586   79.2544  222.6863 H   0  0  0  0  0  0  0  0  0  0  0  0
  141.9415   78.5898  221.7779 H   0  0  0  0  0  0  0  0  0  0  0  0
  140.3732   77.9412  221.6314 H   0  0  0  0  0  0  0  0  0  0  0  0
  137.8006   79.1027  220.6081 H   0  0  0  0  0  0  0  0  0  0  0  0
  139.2055   78.4255  219.7211 H   0  0  0  0  0  0  0  0  0  0  0  0
  136.8797   77.0189  221.0262 H   0  0  0  0  0  0  0  0  0  0  0  0
  137.7530   76.6321  219.5053 H   0  0  0  0  0  0  0  0  0  0  0  0
  140.0143   73.0582  220.2399 H   0  0  0  0  0  0  0  0  0  0  0  0
  139.1570   72.4290  222.2440 H   0  0  0  0  0  0  0  0  0  0  0  0
  138.9050   74.0060  222.7060 H   0  0  0  0  0  0  0  0  0  0  0  0
  142.0397   73.5371  221.9066 H   0  0  0  0  0  0  0  0  0  0  0  0
  140.6652   75.9959  221.8838 H   0  0  0  0  0  0  0  0  0  0  0  0
  142.3860   75.8694  222.2494 H   0  0  0  0  0  0  0  0  0  0  0  0
  141.6077   78.4173  220.5665 H   0  0  0  0  0  0  0  0  0  0  0  0
  142.2028   79.0729  218.2590 H   0  0  0  0  0  0  0  0  0  0  0  0
  142.8529   77.3706  216.5840 H   0  0  0  0  0  0  0  0  0  0  0  0
  142.9089   74.9716  217.2329 H   0  0  0  0  0  0  0  0  0  0  0  0
  141.7409   73.2414  219.2437 H   0  0  0  0  0  0  0  0  0  0  0  0
  144.0159   74.2800  221.9496 H   0  0  0  0  0  0  0  0  0  0  0  0
  146.3402   73.4730  222.0378 H   0  0  0  0  0  0  0  0  0  0  0  0
  147.3648   72.2631  220.1141 H   0  0  0  0  0  0  0  0  0  0  0  0
  143.6909   72.6838  218.0002 H   0  0  0  0  0  0  0  0  0  0  0  0
  138.0199   75.6217  223.2156 H   0  0  0  0  0  0  0  0  0  0  0  0
  139.7960   75.7484  223.0181 H   0  0  0  0  0  0  0  0  0  0  0  0
  137.7004   77.9280  223.0954 H   0  0  0  0  0  0  0  0  0  0  0  0
  139.2783   77.8331  223.9406 H   0  0  0  0  0  0  0  0  0  0  0  0
  1  2  1  0
  2  3  1  0
  3  4  2  0
  3  5  1  0
  5  6  1  0
  6  7  2  0
  7  8  1  0
  8  9  2  0
  9 10  1  0
 10 11  2  0
  5 12  1  0
 12 13  1  0
 13 14  1  0
 14 15  1  0
 15 16  1  0
 16 17  2  0
 16 18  1  0
 18 19  1  0
 18 20  1  0
 20 21  1  0
 21 22  1  0
 22 23  2  0
 23 24  1  0
 24 25  2  0
 25 26  1  0
 26 27  2  0
 27 28  1  0
 28 29  1  0
 29 30  2  0
 30 31  1  0
 31 32  2  0
 32 33  1  0
 33 34  2  0
 15 35  1  0
 35 36  1  0
 11  6  1  0
 36 12  1  0
 28 20  1  0
 34 29  1  0
 27 22  1  0
  1 37  1  0
  1 38  1  0
  1 39  1  0
  2 40  1  0
  2 41  1  0
  7 42  1  0
  8 43  1  0
  9 44  1  0
 10 45  1  0
 11 46  1  0
 12 47  1  0
 13 48  1  0
 13 49  1  0
 14 50  1  0
 14 51  1  0
 18 52  1  6
 19 53  1  0
 19 54  1  0
 20 55  1  1
 21 56  1  0
 21 57  1  0
 23 58  1  0
 24 59  1  0
 25 60  1  0
 26 61  1  0
 28 62  1  6
 30 63  1  0
 31 64  1  0
 32 65  1  0
 34 66  1  0
 35 67  1  0
 35 68  1  0
 36 69  1  0
 36 70  1  0
M  END
>  <smiles>  (138) 
CCC(=O)N(c1ccccc1)C1CCN(C(=O)[C@H](N)C2Cc3ccccc3C2c2cccnc2)CC1

>  <score_type>  (138) 
oracle

>  <origin>  (138) 
autodockgpu

>  <m_score__min__energy>  (138) 
-9.0999999999999996

>  <m_primary>  (138) 
energy

>  <rmsd>  (138) 
5.665433710723188

>  <m_score__min__rmsd>  (138) 
5.665433710723188

>  <meeko>  (138) 
{"free_energy": -8.17, "intermolecular_energy": -10.56, "internal_energy": -3.2, "cluster_size": 28, "cluster_id": 5, "rank_in_cluster": 3}

>  <energy>  (138) 
-7.95

>  <cluster_rmsd>  (138) 
0.69

>  <cluster>  (138) 
5

$$$$

     RDKit          3D

 70 74  0  0  0  0  0  0  0  0999 V2000
  138.4630   67.3440  222.5420 C   0  0  0  0  0  0  0  0  0  0  0  0
  137.2150   68.1700  222.7060 C   0  0  0  0  0  0  0  0  0  0  0  0
  137.2950   68.9820  223.9490 C   0  0  0  0  0  0  0  0  0  0  0  0
  136.3050   68.8920  224.7340 O   0  0  0  0  0  0  0  0  0  0  0  0
  138.4250   69.8130  224.2390 N   0  0  0  0  0  0  0  0  0  0  0  0
  139.2080   69.4640  225.3740 C   0  0  0  0  0  0  0  0  0  0  0  0
  139.9370   70.3800  226.1030 C   0  0  0  0  0  0  0  0  0  0  0  0
  140.6740   69.9730  227.2020 C   0  0  0  0  0  0  0  0  0  0  0  0
  140.6830   68.6340  227.5750 C   0  0  0  0  0  0  0  0  0  0  0  0
  139.9520   67.7230  226.8410 C   0  0  0  0  0  0  0  0  0  0  0  0
  139.2090   68.1160  225.7390 C   0  0  0  0  0  0  0  0  0  0  0  0
  138.7160   70.9420  223.3920 C   0  0  0  0  0  0  0  0  0  0  0  0
  137.4820   71.7790  223.0770 C   0  0  0  0  0  0  0  0  0  0  0  0
  137.7240   72.5630  221.7920 C   0  0  0  0  0  0  0  0  0  0  0  0
  139.1510   72.8200  221.6410 N   0  0  0  0  0  0  0  0  0  0  0  0
  139.5830   74.1620  221.7190 C   0  0  0  0  0  0  0  0  0  0  0  0
  138.6760   75.0270  221.9150 O   0  0  0  0  0  0  0  0  0  0  0  0
  140.9550   74.6510  221.5980 C   0  0  2  0  0  0  0  0  0  0  0  0
  141.0740   76.0230  222.1310 N   0  0  0  0  0  0  0  0  0  0  0  0
  141.5140   74.6500  220.1910 C   0  0  2  0  0  0  0  0  0  0  0  0
  141.9380   73.2290  219.9090 C   0  0  0  0  0  0  0  0  0  0  0  0
  143.3950   73.2140  220.1400 C   0  0  0  0  0  0  0  0  0  0  0  0
  144.2950   72.1720  220.2440 C   0  0  0  0  0  0  0  0  0  0  0  0
  145.6290   72.4390  220.4660 C   0  0  0  0  0  0  0  0  0  0  0  0
  146.0880   73.7340  220.5890 C   0  0  0  0  0  0  0  0  0  0  0  0
  145.1950   74.7770  220.4870 C   0  0  0  0  0  0  0  0  0  0  0  0
  143.8410   74.5070  220.2610 C   0  0  0  0  0  0  0  0  0  0  0  0
  142.7430   75.4880  220.1260 C   0  0  1  0  0  0  0  0  0  0  0  0
  142.9300   76.1930  218.8240 C   0  0  0  0  0  0  0  0  0  0  0  0
  143.4740   75.5880  217.7120 C   0  0  0  0  0  0  0  0  0  0  0  0
  143.6170   76.2980  216.5370 C   0  0  0  0  0  0  0  0  0  0  0  0
  143.2280   77.6220  216.4250 C   0  0  0  0  0  0  0  0  0  0  0  0
  142.6970   78.1960  217.5240 N   0  0  0  0  0  0  0  0  0  0  0  0
  142.5480   77.5120  218.6910 C   0  0  0  0  0  0  0  0  0  0  0  0
  140.0030   71.6770  221.4340 C   0  0  0  0  0  0  0  0  0  0  0  0
  139.3910   70.4840  222.1210 C   0  0  0  0  0  0  0  0  0  0  0  0
  138.8611   67.0805  223.5330 H   0  0  0  0  0  0  0  0  0  0  0  0
  138.2241   66.4250  221.9866 H   0  0  0  0  0  0  0  0  0  0  0  0
  139.2155   67.9230  221.9866 H   0  0  0  0  0  0  0  0  0  0  0  0
  137.1069   68.8404  221.8406 H   0  0  0  0  0  0  0  0  0  0  0  0
  136.3466   67.4981  222.7720 H   0  0  0  0  0  0  0  0  0  0  0  0
  139.9328   71.4401  225.8095 H   0  0  0  0  0  0  0  0  0  0  0  0
  141.2523   70.7090  227.7798 H   0  0  0  0  0  0  0  0  0  0  0  0
  141.2672   68.3041  228.4467 H   0  0  0  0  0  0  0  0  0  0  0  0
  139.9589   66.6634  227.1363 H   0  0  0  0  0  0  0  0  0  0  0  0
  138.6305   67.3794  225.1622 H   0  0  0  0  0  0  0  0  0  0  0  0
  139.4020   71.5950  223.9515 H   0  0  0  0  0  0  0  0  0  0  0  0
  136.6124   71.1181  222.9467 H   0  0  0  0  0  0  0  0  0  0  0  0
  137.2868   72.4765  223.9048 H   0  0  0  0  0  0  0  0  0  0  0  0
  137.3637   71.9786  220.9326 H   0  0  0  0  0  0  0  0  0  0  0  0
  137.1821   73.5192  221.8383 H   0  0  0  0  0  0  0  0  0  0  0  0
  141.5462   73.9329  222.1852 H   0  0  0  0  0  0  0  0  0  0  0  0
  140.2130   76.5820  221.9380 H   0  0  0  0  0  0  0  0  0  0  0  0
  141.8520   76.5270  221.6690 H   0  0  0  0  0  0  0  0  0  0  0  0
  140.7659   75.0336  219.4816 H   0  0  0  0  0  0  0  0  0  0  0  0
  141.4308   72.5312  220.5916 H   0  0  0  0  0  0  0  0  0  0  0  0
  141.6777   72.9144  218.8876 H   0  0  0  0  0  0  0  0  0  0  0  0
  143.9486   71.1322  220.1500 H   0  0  0  0  0  0  0  0  0  0  0  0
  146.3406   71.6040  220.5466 H   0  0  0  0  0  0  0  0  0  0  0  0
  147.1555   73.9312  220.7666 H   0  0  0  0  0  0  0  0  0  0  0  0
  145.5439   75.8158  220.5826 H   0  0  0  0  0  0  0  0  0  0  0  0
  142.6987   76.2737  220.8946 H   0  0  0  0  0  0  0  0  0  0  0  0
  143.7950   74.5370  217.7608 H   0  0  0  0  0  0  0  0  0  0  0  0
  144.0541   75.7957  215.6614 H   0  0  0  0  0  0  0  0  0  0  0  0
  143.3464   78.1795  215.4842 H   0  0  0  0  0  0  0  0  0  0  0  0
  142.1083   78.0280  219.5572 H   0  0  0  0  0  0  0  0  0  0  0  0
  140.0961   71.4756  220.3566 H   0  0  0  0  0  0  0  0  0  0  0  0
  141.0020   71.8756  221.8495 H   0  0  0  0  0  0  0  0  0  0  0  0
  138.6490   70.0165  221.4571 H   0  0  0  0  0  0  0  0  0  0  0  0
  140.1746   69.7499  222.3598 H   0  0  0  0  0  0  0  0  0  0  0  0
  1  2  1  0
  2  3  1  0
  3  4  2  0
  3  5  1  0
  5  6  1  0
  6  7  2  0
  7  8  1  0
  8  9  2  0
  9 10  1  0
 10 11  2  0
  5 12  1  0
 12 13  1  0
 13 14  1  0
 14 15  1  0
 15 16  1  0
 16 17  2  0
 16 18  1  0
 18 19  1  0
 18 20  1  0
 20 21  1  0
 21 22  1  0
 22 23  2  0
 23 24  1  0
 24 25  2  0
 25 26  1  0
 26 27  2  0
 27 28  1  0
 28 29  1  0
 29 30  2  0
 30 31  1  0
 31 32  2  0
 32 33  1  0
 33 34  2  0
 15 35  1  0
 35 36  1  0
 11  6  1  0
 36 12  1  0
 28 20  1  0
 34 29  1  0
 27 22  1  0
  1 37  1  0
  1 38  1  0
  1 39  1  0
  2 40  1  0
  2 41  1  0
  7 42  1  0
  8 43  1  0
  9 44  1  0
 10 45  1  0
 11 46  1  0
 12 47  1  0
 13 48  1  0
 13 49  1  0
 14 50  1  0
 14 51  1  0
 18 52  1  1
 19 53  1  0
 19 54  1  0
 20 55  1  6
 21 56  1  0
 21 57  1  0
 23 58  1  0
 24 59  1  0
 25 60  1  0
 26 61  1  0
 28 62  1  1
 30 63  1  0
 31 64  1  0
 32 65  1  0
 34 66  1  0
 35 67  1  0
 35 68  1  0
 36 69  1  0
 36 70  1  0
M  END
>  <smiles>  (139) 
CCC(=O)N(c1ccccc1)C1CCN(C(=O)[C@H](N)C2Cc3ccccc3C2c2cccnc2)CC1

>  <score_type>  (139) 
oracle

>  <origin>  (139) 
autodockgpu

>  <m_score__min__energy>  (139) 
-9.0999999999999996

>  <m_primary>  (139) 
energy

>  <rmsd>  (139) 
8.065177732510385

>  <m_score__min__rmsd>  (139) 
8.065177732510385

>  <meeko>  (139) 
{"free_energy": -8.73, "intermolecular_energy": -11.12, "internal_energy": -2.6, "cluster_size": 12, "cluster_id": 1, "rank_in_cluster": 5}

>  <energy>  (139) 
-7.92

>  <cluster_rmsd>  (139) 
0.74

>  <cluster>  (139) 
5

$$$$

     RDKit          3D

 70 74  0  0  0  0  0  0  0  0999 V2000
  138.8300   67.4930  221.9210 C   0  0  0  0  0  0  0  0  0  0  0  0
  139.2860   68.9060  222.1720 C   0  0  0  0  0  0  0  0  0  0  0  0
  138.8800   69.3430  223.5330 C   0  0  0  0  0  0  0  0  0  0  0  0
  138.1900   68.5150  224.2000 O   0  0  0  0  0  0  0  0  0  0  0  0
  139.2490   70.6240  224.0590 N   0  0  0  0  0  0  0  0  0  0  0  0
  139.8260   70.6450  225.3590 C   0  0  0  0  0  0  0  0  0  0  0  0
  139.6120   69.6610  226.3000 C   0  0  0  0  0  0  0  0  0  0  0  0
  140.2100   69.7410  227.5460 C   0  0  0  0  0  0  0  0  0  0  0  0
  141.0300   70.8210  227.8540 C   0  0  0  0  0  0  0  0  0  0  0  0
  141.2390   71.8030  226.9090 C   0  0  0  0  0  0  0  0  0  0  0  0
  140.6480   71.7350  225.6570 C   0  0  0  0  0  0  0  0  0  0  0  0
  139.0260   71.8090  223.2710 C   0  0  0  0  0  0  0  0  0  0  0  0
  137.7830   71.7110  222.3950 C   0  0  0  0  0  0  0  0  0  0  0  0
  137.9140   72.6850  221.2290 C   0  0  0  0  0  0  0  0  0  0  0  0
  138.7500   73.8110  221.6290 N   0  0  0  0  0  0  0  0  0  0  0  0
  138.1360   75.0800  221.7130 C   0  0  0  0  0  0  0  0  0  0  0  0
  136.9000   75.1200  221.4290 O   0  0  0  0  0  0  0  0  0  0  0  0
  138.7730   76.3400  222.0910 C   0  0  2  0  0  0  0  0  0  0  0  0
  137.9430   77.4920  221.6870 N   0  0  0  0  0  0  0  0  0  0  0  0
  140.1630   76.5500  221.5280 C   0  0  2  0  0  0  0  0  0  0  0  0
  141.0750   76.7280  222.7170 C   0  0  0  0  0  0  0  0  0  0  0  0
  141.2580   78.1870  222.8410 C   0  0  0  0  0  0  0  0  0  0  0  0
  141.8060   78.9590  223.8460 C   0  0  0  0  0  0  0  0  0  0  0  0
  141.8550   80.3300  223.7060 C   0  0  0  0  0  0  0  0  0  0  0  0
  141.3630   80.9520  222.5770 C   0  0  0  0  0  0  0  0  0  0  0  0
  140.8140   80.1870  221.5730 C   0  0  0  0  0  0  0  0  0  0  0  0
  140.7640   78.7950  221.7130 C   0  0  0  0  0  0  0  0  0  0  0  0
  140.2160   77.8180  220.7490 C   0  0  1  0  0  0  0  0  0  0  0  0
  141.1410   77.7740  219.5790 C   0  0  0  0  0  0  0  0  0  0  0  0
  141.1920   78.7630  218.6230 C   0  0  0  0  0  0  0  0  0  0  0  0
  142.0740   78.6610  217.5660 C   0  0  0  0  0  0  0  0  0  0  0  0
  142.9290   77.5820  217.4230 C   0  0  0  0  0  0  0  0  0  0  0  0
  142.8650   76.6230  218.3700 N   0  0  0  0  0  0  0  0  0  0  0  0
  142.0020   76.7070  219.4180 C   0  0  0  0  0  0  0  0  0  0  0  0
  140.1330   73.5300  221.9140 C   0  0  0  0  0  0  0  0  0  0  0  0
  140.2450   72.1210  222.4370 C   0  0  0  0  0  0  0  0  0  0  0  0
  138.6659   66.9844  222.8825 H   0  0  0  0  0  0  0  0  0  0  0  0
  137.8908   67.5070  221.3486 H   0  0  0  0  0  0  0  0  0  0  0  0
  139.6003   66.9553  221.3486 H   0  0  0  0  0  0  0  0  0  0  0  0
  140.3816   68.9547  222.0866 H   0  0  0  0  0  0  0  0  0  0  0  0
  138.8211   69.5702  221.4286 H   0  0  0  0  0  0  0  0  0  0  0  0
  138.9620   68.8068  226.0595 H   0  0  0  0  0  0  0  0  0  0  0  0
  140.0367   68.9511  228.2916 H   0  0  0  0  0  0  0  0  0  0  0  0
  141.5075   70.8912  228.8425 H   0  0  0  0  0  0  0  0  0  0  0  0
  141.8875   72.6572  227.1534 H   0  0  0  0  0  0  0  0  0  0  0  0
  140.8229   72.5248  224.9116 H   0  0  0  0  0  0  0  0  0  0  0  0
  138.8480   72.6349  223.9755 H   0  0  0  0  0  0  0  0  0  0  0  0
  137.6848   70.6857  222.0088 H   0  0  0  0  0  0  0  0  0  0  0  0
  136.8916   71.9623  222.9885 H   0  0  0  0  0  0  0  0  0  0  0  0
  138.3752   72.1718  220.3723 H   0  0  0  0  0  0  0  0  0  0  0  0
  136.9170   73.0514  220.9430 H   0  0  0  0  0  0  0  0  0  0  0  0
  138.8700   76.2711  223.1846 H   0  0  0  0  0  0  0  0  0  0  0  0
  136.9280   77.3030  221.8420 H   0  0  0  0  0  0  0  0  0  0  0  0
  138.0470   77.6790  220.6740 H   0  0  0  0  0  0  0  0  0  0  0  0
  140.4453   75.7061  220.8814 H   0  0  0  0  0  0  0  0  0  0  0  0
  140.6104   76.3177  223.6258 H   0  0  0  0  0  0  0  0  0  0  0  0
  142.0315   76.2005  222.5874 H   0  0  0  0  0  0  0  0  0  0  0  0
  142.2020   78.4823  224.7548 H   0  0  0  0  0  0  0  0  0  0  0  0
  142.2946   80.9392  224.5095 H   0  0  0  0  0  0  0  0  0  0  0  0
  141.4090   82.0468  222.4803 H   0  0  0  0  0  0  0  0  0  0  0  0
  140.4169   80.6665  220.6661 H   0  0  0  0  0  0  0  0  0  0  0  0
  139.2205   78.0472  220.3411 H   0  0  0  0  0  0  0  0  0  0  0  0
  140.5283   79.6367  218.7015 H   0  0  0  0  0  0  0  0  0  0  0  0
  142.0981   79.4628  216.8133 H   0  0  0  0  0  0  0  0  0  0  0  0
  143.6281   77.5097  216.5768 H   0  0  0  0  0  0  0  0  0  0  0  0
  141.9897   75.8973  220.1625 H   0  0  0  0  0  0  0  0  0  0  0  0
  140.7279   73.6313  220.9943 H   0  0  0  0  0  0  0  0  0  0  0  0
  140.5110   74.2386  222.6657 H   0  0  0  0  0  0  0  0  0  0  0  0
  140.3046   71.4179  221.5932 H   0  0  0  0  0  0  0  0  0  0  0  0
  141.1516   72.0235  223.0522 H   0  0  0  0  0  0  0  0  0  0  0  0
  1  2  1  0
  2  3  1  0
  3  4  2  0
  3  5  1  0
  5  6  1  0
  6  7  2  0
  7  8  1  0
  8  9  2  0
  9 10  1  0
 10 11  2  0
  5 12  1  0
 12 13  1  0
 13 14  1  0
 14 15  1  0
 15 16  1  0
 16 17  2  0
 16 18  1  0
 18 19  1  0
 18 20  1  0
 20 21  1  0
 21 22  1  0
 22 23  2  0
 23 24  1  0
 24 25  2  0
 25 26  1  0
 26 27  2  0
 27 28  1  0
 28 29  1  0
 29 30  2  0
 30 31  1  0
 31 32  2  0
 32 33  1  0
 33 34  2  0
 15 35  1  0
 35 36  1  0
 11  6  1  0
 36 12  1  0
 28 20  1  0
 34 29  1  0
 27 22  1  0
  1 37  1  0
  1 38  1  0
  1 39  1  0
  2 40  1  0
  2 41  1  0
  7 42  1  0
  8 43  1  0
  9 44  1  0
 10 45  1  0
 11 46  1  0
 12 47  1  0
 13 48  1  0
 13 49  1  0
 14 50  1  0
 14 51  1  0
 18 52  1  1
 19 53  1  0
 19 54  1  0
 20 55  1  6
 21 56  1  0
 21 57  1  0
 23 58  1  0
 24 59  1  0
 25 60  1  0
 26 61  1  0
 28 62  1  6
 30 63  1  0
 31 64  1  0
 32 65  1  0
 34 66  1  0
 35 67  1  0
 35 68  1  0
 36 69  1  0
 36 70  1  0
M  END
>  <smiles>  (140) 
CCC(=O)N(c1ccccc1)C1CCN(C(=O)[C@H](N)C2Cc3ccccc3C2c2cccnc2)CC1

>  <score_type>  (140) 
oracle

>  <origin>  (140) 
autodockgpu

>  <m_score__min__energy>  (140) 
-9.0999999999999996

>  <m_primary>  (140) 
energy

>  <rmsd>  (140) 
5.802471141411681

>  <m_score__min__rmsd>  (140) 
5.802471141411681

>  <meeko>  (140) 
{"free_energy": -8.35, "intermolecular_energy": -10.73, "internal_energy": -2.65, "cluster_size": 6, "cluster_id": 4, "rank_in_cluster": 2}

>  <energy>  (140) 
-7.89

>  <cluster_rmsd>  (140) 
1.81

>  <cluster>  (140) 
5

$$$$

     RDKit          3D

 70 74  0  0  0  0  0  0  0  0999 V2000
  142.7630   80.7840  223.8730 C   0  0  0  0  0  0  0  0  0  0  0  0
  142.0600   80.0070  222.7920 C   0  0  0  0  0  0  0  0  0  0  0  0
  140.8270   80.7190  222.3660 C   0  0  0  0  0  0  0  0  0  0  0  0
  140.9980   81.8530  221.8290 O   0  0  0  0  0  0  0  0  0  0  0  0
  139.5240   80.1540  222.5530 N   0  0  0  0  0  0  0  0  0  0  0  0
  138.5640   80.9550  223.2320 C   0  0  0  0  0  0  0  0  0  0  0  0
  138.2930   80.8350  224.5790 C   0  0  0  0  0  0  0  0  0  0  0  0
  137.3500   81.6520  225.1790 C   0  0  0  0  0  0  0  0  0  0  0  0
  136.6690   82.5980  224.4220 C   0  0  0  0  0  0  0  0  0  0  0  0
  136.9440   82.7120  223.0750 C   0  0  0  0  0  0  0  0  0  0  0  0
  137.8860   81.9020  222.4610 C   0  0  0  0  0  0  0  0  0  0  0  0
  139.2430   78.8300  222.0590 C   0  0  0  0  0  0  0  0  0  0  0  0
  138.5330   78.8390  220.7110 C   0  0  0  0  0  0  0  0  0  0  0  0
  137.7870   77.5210  220.5290 C   0  0  0  0  0  0  0  0  0  0  0  0
  138.4690   76.4710  221.2730 N   0  0  0  0  0  0  0  0  0  0  0  0
  139.0700   75.4300  220.5310 C   0  0  0  0  0  0  0  0  0  0  0  0
  138.9570   75.5120  219.2690 O   0  0  0  0  0  0  0  0  0  0  0  0
  139.8020   74.2820  221.0610 C   0  0  2  0  0  0  0  0  0  0  0  0
  139.2260   73.8370  222.3450 N   0  0  0  0  0  0  0  0  0  0  0  0
  141.2840   74.5090  221.2710 C   0  0  2  0  0  0  0  0  0  0  0  0
  141.4350   75.9560  221.6730 C   0  0  0  0  0  0  0  0  0  0  0  0
  141.8330   76.6540  220.4360 C   0  0  0  0  0  0  0  0  0  0  0  0
  141.9130   77.9990  220.1290 C   0  0  0  0  0  0  0  0  0  0  0  0
  142.3230   78.3900  218.8720 C   0  0  0  0  0  0  0  0  0  0  0  0
  142.6570   77.4620  217.9080 C   0  0  0  0  0  0  0  0  0  0  0  0
  142.5790   76.1210  218.2080 C   0  0  0  0  0  0  0  0  0  0  0  0
  142.1630   75.7220  219.4830 C   0  0  0  0  0  0  0  0  0  0  0  0
  142.0170   74.3390  219.9860 C   0  0  1  0  0  0  0  0  0  0  0  0
  143.3880   73.7710  220.1380 C   0  0  0  0  0  0  0  0  0  0  0  0
  143.6740   72.4360  219.9580 C   0  0  0  0  0  0  0  0  0  0  0  0
  144.9670   71.9770  220.1130 C   0  0  0  0  0  0  0  0  0  0  0  0
  146.0120   72.8200  220.4500 C   0  0  0  0  0  0  0  0  0  0  0  0
  145.7120   74.1240  220.6230 N   0  0  0  0  0  0  0  0  0  0  0  0
  144.4440   74.5940  220.4740 C   0  0  0  0  0  0  0  0  0  0  0  0
  138.4800   76.5880  222.7090 C   0  0  0  0  0  0  0  0  0  0  0  0
  138.4470   78.0480  223.0780 C   0  0  0  0  0  0  0  0  0  0  0  0
  142.4346   80.4210  224.8581 H   0  0  0  0  0  0  0  0  0  0  0  0
  143.8500   80.6468  223.7754 H   0  0  0  0  0  0  0  0  0  0  0  0
  142.5180   81.8519  223.7754 H   0  0  0  0  0  0  0  0  0  0  0  0
  142.7323   79.8965  221.9284 H   0  0  0  0  0  0  0  0  0  0  0  0
  141.7849   79.0165  223.1835 H   0  0  0  0  0  0  0  0  0  0  0  0
  138.8292   80.0858  225.1800 H   0  0  0  0  0  0  0  0  0  0  0  0
  137.1399   81.5525  226.2541 H   0  0  0  0  0  0  0  0  0  0  0  0
  135.9179   83.2496  224.8925 H   0  0  0  0  0  0  0  0  0  0  0  0
  136.4048   83.4608  222.4763 H   0  0  0  0  0  0  0  0  0  0  0  0
  138.0960   82.0030  221.3860 H   0  0  0  0  0  0  0  0  0  0  0  0
  140.2121   78.3351  221.8981 H   0  0  0  0  0  0  0  0  0  0  0  0
  137.8181   79.6743  220.6772 H   0  0  0  0  0  0  0  0  0  0  0  0
  139.2715   78.9604  219.9048 H   0  0  0  0  0  0  0  0  0  0  0  0
  136.7583   77.6271  220.9037 H   0  0  0  0  0  0  0  0  0  0  0  0
  137.7627   77.2576  219.4613 H   0  0  0  0  0  0  0  0  0  0  0  0
  139.6960   73.5149  220.2798 H   0  0  0  0  0  0  0  0  0  0  0  0
  138.1850   73.9200  222.3440 H   0  0  0  0  0  0  0  0  0  0  0  0
  139.5600   74.4360  223.1210 H   0  0  0  0  0  0  0  0  0  0  0  0
  141.6767   73.8034  222.0179 H   0  0  0  0  0  0  0  0  0  0  0  0
  140.4822   76.3537  222.0524 H   0  0  0  0  0  0  0  0  0  0  0  0
  142.1728   76.0873  222.4782 H   0  0  0  0  0  0  0  0  0  0  0  0
  141.6507   78.7545  220.8843 H   0  0  0  0  0  0  0  0  0  0  0  0
  142.3849   79.4621  218.6336 H   0  0  0  0  0  0  0  0  0  0  0  0
  142.9823   77.7901  216.9098 H   0  0  0  0  0  0  0  0  0  0  0  0
  142.8419   75.3680  217.4505 H   0  0  0  0  0  0  0  0  0  0  0  0
  141.4692   73.6420  219.3348 H   0  0  0  0  0  0  0  0  0  0  0  0
  142.8707   71.7338  219.6902 H   0  0  0  0  0  0  0  0  0  0  0  0
  145.1733   70.9069  219.9639 H   0  0  0  0  0  0  0  0  0  0  0  0
  147.0388   72.4444  220.5710 H   0  0  0  0  0  0  0  0  0  0  0  0
  144.2538   75.6666  220.6265 H   0  0  0  0  0  0  0  0  0  0  0  0
  137.5983   76.0809  223.1279 H   0  0  0  0  0  0  0  0  0  0  0  0
  139.3894   76.1207  223.1148 H   0  0  0  0  0  0  0  0  0  0  0  0
  137.4060   78.4034  223.0848 H   0  0  0  0  0  0  0  0  0  0  0  0
  138.8826   78.1889  224.0782 H   0  0  0  0  0  0  0  0  0  0  0  0
  1  2  1  0
  2  3  1  0
  3  4  2  0
  3  5  1  0
  5  6  1  0
  6  7  2  0
  7  8  1  0
  8  9  2  0
  9 10  1  0
 10 11  2  0
  5 12  1  0
 12 13  1  0
 13 14  1  0
 14 15  1  0
 15 16  1  0
 16 17  2  0
 16 18  1  0
 18 19  1  0
 18 20  1  0
 20 21  1  0
 21 22  1  0
 22 23  2  0
 23 24  1  0
 24 25  2  0
 25 26  1  0
 26 27  2  0
 27 28  1  0
 28 29  1  0
 29 30  2  0
 30 31  1  0
 31 32  2  0
 32 33  1  0
 33 34  2  0
 15 35  1  0
 35 36  1  0
 11  6  1  0
 36 12  1  0
 28 20  1  0
 34 29  1  0
 27 22  1  0
  1 37  1  0
  1 38  1  0
  1 39  1  0
  2 40  1  0
  2 41  1  0
  7 42  1  0
  8 43  1  0
  9 44  1  0
 10 45  1  0
 11 46  1  0
 12 47  1  0
 13 48  1  0
 13 49  1  0
 14 50  1  0
 14 51  1  0
 18 52  1  6
 19 53  1  0
 19 54  1  0
 20 55  1  1
 21 56  1  0
 21 57  1  0
 23 58  1  0
 24 59  1  0
 25 60  1  0
 26 61  1  0
 28 62  1  6
 30 63  1  0
 31 64  1  0
 32 65  1  0
 34 66  1  0
 35 67  1  0
 35 68  1  0
 36 69  1  0
 36 70  1  0
M  END
>  <smiles>  (141) 
CCC(=O)N(c1ccccc1)C1CCN(C(=O)[C@H](N)C2Cc3ccccc3C2c2cccnc2)CC1

>  <score_type>  (141) 
oracle

>  <origin>  (141) 
autodockgpu

>  <m_score__min__energy>  (141) 
-9.0999999999999996

>  <m_primary>  (141) 
energy

>  <rmsd>  (141) 
5.5823861374813175

>  <m_score__min__rmsd>  (141) 
5.5823861374813175

>  <meeko>  (141) 
{"free_energy": -7.84, "intermolecular_energy": -10.23, "internal_energy": -3.15, "cluster_size": 28, "cluster_id": 5, "rank_in_cluster": 22}

>  <energy>  (141) 
-7.86

>  <cluster_rmsd>  (141) 
1.85

>  <cluster>  (141) 
5

$$$$

     RDKit          3D

 70 74  0  0  0  0  0  0  0  0999 V2000
  137.7080   81.1670  224.8530 C   0  0  0  0  0  0  0  0  0  0  0  0
  137.0690   80.2260  223.8670 C   0  0  0  0  0  0  0  0  0  0  0  0
  137.8280   80.2270  222.5890 C   0  0  0  0  0  0  0  0  0  0  0  0
  137.3670   80.9660  221.6690 O   0  0  0  0  0  0  0  0  0  0  0  0
  139.0110   79.4390  222.4110 N   0  0  0  0  0  0  0  0  0  0  0  0
  140.2400   80.0150  222.8370 C   0  0  0  0  0  0  0  0  0  0  0  0
  140.6120   81.3100  222.5450 C   0  0  0  0  0  0  0  0  0  0  0  0
  141.8220   81.8110  222.9960 C   0  0  0  0  0  0  0  0  0  0  0  0
  142.6690   81.0050  223.7470 C   0  0  0  0  0  0  0  0  0  0  0  0
  142.2920   79.7100  224.0360 C   0  0  0  0  0  0  0  0  0  0  0  0
  141.0840   79.1960  223.5910 C   0  0  0  0  0  0  0  0  0  0  0  0
  138.9130   78.1280  221.8220 C   0  0  0  0  0  0  0  0  0  0  0  0
  138.3260   78.1540  220.4160 C   0  0  0  0  0  0  0  0  0  0  0  0
  137.7390   76.7840  220.0930 C   0  0  0  0  0  0  0  0  0  0  0  0
  138.4590   75.7600  220.8390 N   0  0  0  0  0  0  0  0  0  0  0  0
  139.2270   74.8330  220.0990 C   0  0  0  0  0  0  0  0  0  0  0  0
  139.2160   74.9840  218.8400 O   0  0  0  0  0  0  0  0  0  0  0  0
  140.0250   73.7310  220.6310 C   0  0  2  0  0  0  0  0  0  0  0  0
  139.4190   73.1880  221.8630 N   0  0  0  0  0  0  0  0  0  0  0  0
  141.4680   74.0740  220.9360 C   0  0  2  0  0  0  0  0  0  0  0  0
  141.4490   75.4400  221.5760 C   0  0  0  0  0  0  0  0  0  0  0  0
  141.7950   76.3740  220.4880 C   0  0  0  0  0  0  0  0  0  0  0  0
  141.7330   77.7520  220.4090 C   0  0  0  0  0  0  0  0  0  0  0  0
  142.1250   78.3900  219.2510 C   0  0  0  0  0  0  0  0  0  0  0  0
  142.5820   77.6770  218.1620 C   0  0  0  0  0  0  0  0  0  0  0  0
  142.6450   76.3040  218.2350 C   0  0  0  0  0  0  0  0  0  0  0  0
  142.2470   75.6550  219.4090 C   0  0  0  0  0  0  0  0  0  0  0  0
  142.2440   74.2000  219.6710 C   0  0  1  0  0  0  0  0  0  0  0  0
  143.6660   73.7620  219.7840 C   0  0  0  0  0  0  0  0  0  0  0  0
  144.4600   74.0570  220.8690 C   0  0  0  0  0  0  0  0  0  0  0  0
  145.7680   73.6190  220.9100 C   0  0  0  0  0  0  0  0  0  0  0  0
  146.3290   72.8770  219.8840 C   0  0  0  0  0  0  0  0  0  0  0  0
  145.5350   72.5980  218.8300 N   0  0  0  0  0  0  0  0  0  0  0  0
  144.2430   73.0220  218.7720 C   0  0  0  0  0  0  0  0  0  0  0  0
  138.3330   75.7850  222.2740 C   0  0  0  0  0  0  0  0  0  0  0  0
  138.1170   77.2090  222.7180 C   0  0  0  0  0  0  0  0  0  0  0  0
  137.4820   80.8342  225.8768 H   0  0  0  0  0  0  0  0  0  0  0  0
  138.7975   81.1726  224.7013 H   0  0  0  0  0  0  0  0  0  0  0  0
  137.3114   82.1818  224.7013 H   0  0  0  0  0  0  0  0  0  0  0  0
  137.0647   79.2089  224.2860 H   0  0  0  0  0  0  0  0  0  0  0  0
  136.0382   80.5568  223.6720 H   0  0  0  0  0  0  0  0  0  0  0  0
  139.9435   81.9496  221.9500 H   0  0  0  0  0  0  0  0  0  0  0  0
  142.1121   82.8455  222.7600 H   0  0  0  0  0  0  0  0  0  0  0  0
  143.6317   81.3963  224.1078 H   0  0  0  0  0  0  0  0  0  0  0  0
  142.9629   79.0729  224.6310 H   0  0  0  0  0  0  0  0  0  0  0  0
  140.7950   78.1613  223.8274 H   0  0  0  0  0  0  0  0  0  0  0  0
  139.9382   77.7411  221.7255 H   0  0  0  0  0  0  0  0  0  0  0  0
  137.5343   78.9157  220.3617 H   0  0  0  0  0  0  0  0  0  0  0  0
  139.1154   78.3986  219.6901 H   0  0  0  0  0  0  0  0  0  0  0  0
  136.6761   76.7645  220.3755 H   0  0  0  0  0  0  0  0  0  0  0  0
  137.8350   76.5884  219.0148 H   0  0  0  0  0  0  0  0  0  0  0  0
  140.0295   72.9895  219.8185 H   0  0  0  0  0  0  0  0  0  0  0  0
  139.4120   73.8990  222.6290 H   0  0  0  0  0  0  0  0  0  0  0  0
  139.9730   72.3890  222.2210 H   0  0  0  0  0  0  0  0  0  0  0  0
  141.9195   73.2986  221.5723 H   0  0  0  0  0  0  0  0  0  0  0  0
  140.4498   75.6658  221.9767 H   0  0  0  0  0  0  0  0  0  0  0  0
  142.1496   75.5110  222.4211 H   0  0  0  0  0  0  0  0  0  0  0  0
  141.3721   78.3382  221.2670 H   0  0  0  0  0  0  0  0  0  0  0  0
  142.0723   79.4873  219.1946 H   0  0  0  0  0  0  0  0  0  0  0  0
  142.8926   78.2000  217.2455 H   0  0  0  0  0  0  0  0  0  0  0  0
  143.0061   75.7203  217.3754 H   0  0  0  0  0  0  0  0  0  0  0  0
  141.7919   73.5686  218.8919 H   0  0  0  0  0  0  0  0  0  0  0  0
  144.0510   74.6431  221.7052 H   0  0  0  0  0  0  0  0  0  0  0  0
  146.3851   73.8673  221.7861 H   0  0  0  0  0  0  0  0  0  0  0  0
  147.3725   72.5316  219.9266 H   0  0  0  0  0  0  0  0  0  0  0  0
  143.6386   72.7664  217.8892 H   0  0  0  0  0  0  0  0  0  0  0  0
  137.4754   75.1681  222.5806 H   0  0  0  0  0  0  0  0  0  0  0  0
  139.2469   75.3839  222.7364 H   0  0  0  0  0  0  0  0  0  0  0  0
  137.0482   77.4595  222.6475 H   0  0  0  0  0  0  0  0  0  0  0  0
  138.4470   77.3280  223.7606 H   0  0  0  0  0  0  0  0  0  0  0  0
  1  2  1  0
  2  3  1  0
  3  4  2  0
  3  5  1  0
  5  6  1  0
  6  7  2  0
  7  8  1  0
  8  9  2  0
  9 10  1  0
 10 11  2  0
  5 12  1  0
 12 13  1  0
 13 14  1  0
 14 15  1  0
 15 16  1  0
 16 17  2  0
 16 18  1  0
 18 19  1  0
 18 20  1  0
 20 21  1  0
 21 22  1  0
 22 23  2  0
 23 24  1  0
 24 25  2  0
 25 26  1  0
 26 27  2  0
 27 28  1  0
 28 29  1  0
 29 30  2  0
 30 31  1  0
 31 32  2  0
 32 33  1  0
 33 34  2  0
 15 35  1  0
 35 36  1  0
 11  6  1  0
 36 12  1  0
 28 20  1  0
 34 29  1  0
 27 22  1  0
  1 37  1  0
  1 38  1  0
  1 39  1  0
  2 40  1  0
  2 41  1  0
  7 42  1  0
  8 43  1  0
  9 44  1  0
 10 45  1  0
 11 46  1  0
 12 47  1  0
 13 48  1  0
 13 49  1  0
 14 50  1  0
 14 51  1  0
 18 52  1  6
 19 53  1  0
 19 54  1  0
 20 55  1  1
 21 56  1  0
 21 57  1  0
 23 58  1  0
 24 59  1  0
 25 60  1  0
 26 61  1  0
 28 62  1  6
 30 63  1  0
 31 64  1  0
 32 65  1  0
 34 66  1  0
 35 67  1  0
 35 68  1  0
 36 69  1  0
 36 70  1  0
M  END
>  <smiles>  (142) 
CCC(=O)N(c1ccccc1)C1CCN(C(=O)[C@H](N)C2Cc3ccccc3C2c2cccnc2)CC1

>  <score_type>  (142) 
oracle

>  <origin>  (142) 
autodockgpu

>  <m_score__min__energy>  (142) 
-9.0999999999999996

>  <m_primary>  (142) 
energy

>  <rmsd>  (142) 
5.616843924640225

>  <m_score__min__rmsd>  (142) 
5.616843924640225

>  <meeko>  (142) 
{"free_energy": -7.96, "intermolecular_energy": -10.34, "internal_energy": -3.36, "cluster_size": 28, "cluster_id": 5, "rank_in_cluster": 16}

>  <energy>  (142) 
-7.85

>  <cluster_rmsd>  (142) 
1.79

>  <cluster>  (142) 
5

$$$$

     RDKit          3D

 70 74  0  0  0  0  0  0  0  0999 V2000
  136.4600   80.2260  223.8520 C   0  0  0  0  0  0  0  0  0  0  0  0
  137.6980   81.0760  223.7480 C   0  0  0  0  0  0  0  0  0  0  0  0
  138.4510   80.7370  222.5120 C   0  0  0  0  0  0  0  0  0  0  0  0
  138.1090   81.3610  221.4640 O   0  0  0  0  0  0  0  0  0  0  0  0
  139.5020   79.7640  222.5090 N   0  0  0  0  0  0  0  0  0  0  0  0
  140.7740   80.1860  222.9840 C   0  0  0  0  0  0  0  0  0  0  0  0
  140.9540   81.2880  223.7940 C   0  0  0  0  0  0  0  0  0  0  0  0
  142.2210   81.6410  224.2270 C   0  0  0  0  0  0  0  0  0  0  0  0
  143.3210   80.8840  223.8420 C   0  0  0  0  0  0  0  0  0  0  0  0
  143.1360   79.7830  223.0320 C   0  0  0  0  0  0  0  0  0  0  0  0
  141.8730   79.4170  222.5920 C   0  0  0  0  0  0  0  0  0  0  0  0
  139.2370   78.4290  222.0350 C   0  0  0  0  0  0  0  0  0  0  0  0
  138.4630   78.4110  220.7220 C   0  0  0  0  0  0  0  0  0  0  0  0
  137.7470   77.0710  220.5820 C   0  0  0  0  0  0  0  0  0  0  0  0
  138.4960   76.0450  221.2970 N   0  0  0  0  0  0  0  0  0  0  0  0
  139.0900   75.0180  220.5310 C   0  0  0  0  0  0  0  0  0  0  0  0
  138.9140   75.0890  219.2760 O   0  0  0  0  0  0  0  0  0  0  0  0
  139.8800   73.8940  221.0300 C   0  0  2  0  0  0  0  0  0  0  0  0
  139.3550   73.4140  222.3230 N   0  0  0  0  0  0  0  0  0  0  0  0
  141.3570   74.1770  221.2050 C   0  0  2  0  0  0  0  0  0  0  0  0
  141.4610   75.6300  221.6030 C   0  0  0  0  0  0  0  0  0  0  0  0
  141.8040   76.3410  220.3570 C   0  0  0  0  0  0  0  0  0  0  0  0
  141.8250   77.6870  220.0480 C   0  0  0  0  0  0  0  0  0  0  0  0
  142.1910   78.0930  218.7810 C   0  0  0  0  0  0  0  0  0  0  0  0
  142.5370   77.1770  217.8100 C   0  0  0  0  0  0  0  0  0  0  0  0
  142.5170   75.8340  218.1120 C   0  0  0  0  0  0  0  0  0  0  0  0
  142.1460   75.4210  219.3970 C   0  0  0  0  0  0  0  0  0  0  0  0
  142.0650   74.0340  219.9030 C   0  0  1  0  0  0  0  0  0  0  0  0
  143.4600   73.5190  220.0240 C   0  0  0  0  0  0  0  0  0  0  0  0
  144.4240   74.1290  220.7960 C   0  0  0  0  0  0  0  0  0  0  0  0
  145.6960   73.5980  220.8640 C   0  0  0  0  0  0  0  0  0  0  0  0
  146.0530   72.4520  220.1750 C   0  0  0  0  0  0  0  0  0  0  0  0
  145.0960   71.8680  219.4250 N   0  0  0  0  0  0  0  0  0  0  0  0
  143.8370   72.3780  219.3450 C   0  0  0  0  0  0  0  0  0  0  0  0
  138.5720   76.1700  222.7300 C   0  0  0  0  0  0  0  0  0  0  0  0
  138.5140   77.6310  223.0940 C   0  0  0  0  0  0  0  0  0  0  0  0
  136.2175   80.0595  224.9120 H   0  0  0  0  0  0  0  0  0  0  0  0
  135.6205   80.7391  223.3600 H   0  0  0  0  0  0  0  0  0  0  0  0
  136.6373   79.2583  223.3600 H   0  0  0  0  0  0  0  0  0  0  0  0
  137.4089   82.1369  223.7179 H   0  0  0  0  0  0  0  0  0  0  0  0
  138.3384   80.8860  224.6220 H   0  0  0  0  0  0  0  0  0  0  0  0
  140.0852   81.8904  224.0980 H   0  0  0  0  0  0  0  0  0  0  0  0
  142.3566   82.5195  224.8749 H   0  0  0  0  0  0  0  0  0  0  0  0
  144.3305   81.1605  224.1803 H   0  0  0  0  0  0  0  0  0  0  0  0
  144.0073   79.1837  222.7292 H   0  0  0  0  0  0  0  0  0  0  0  0
  141.7385   78.5370  221.9459 H   0  0  0  0  0  0  0  0  0  0  0  0
  140.2110   77.9605  221.8303 H   0  0  0  0  0  0  0  0  0  0  0  0
  137.7237   79.2256  220.7192 H   0  0  0  0  0  0  0  0  0  0  0  0
  139.1579   78.5492  219.8806 H   0  0  0  0  0  0  0  0  0  0  0  0
  136.7351   77.1494  221.0063 H   0  0  0  0  0  0  0  0  0  0  0  0
  137.6775   76.8009  219.5180 H   0  0  0  0  0  0  0  0  0  0  0  0
  139.7841   73.1312  220.2433 H   0  0  0  0  0  0  0  0  0  0  0  0
  138.3860   73.7660  222.4950 H   0  0  0  0  0  0  0  0  0  0  0  0
  139.9310   73.7710  223.1060 H   0  0  0  0  0  0  0  0  0  0  0  0
  141.7945   73.4878  221.9422 H   0  0  0  0  0  0  0  0  0  0  0  0
  140.5022   75.9912  222.0034 H   0  0  0  0  0  0  0  0  0  0  0  0
  142.2110   75.7908  222.3915 H   0  0  0  0  0  0  0  0  0  0  0  0
  141.5510   78.4325  220.8090 H   0  0  0  0  0  0  0  0  0  0  0  0
  142.2070   79.1664  218.5413 H   0  0  0  0  0  0  0  0  0  0  0  0
  142.8261   77.5160  216.8043 H   0  0  0  0  0  0  0  0  0  0  0  0
  142.7907   75.0906  217.3488 H   0  0  0  0  0  0  0  0  0  0  0  0
  141.5293   73.3164  219.2641 H   0  0  0  0  0  0  0  0  0  0  0  0
  144.1794   75.0414  221.3596 H   0  0  0  0  0  0  0  0  0  0  0  0
  146.4505   74.1019  221.4859 H   0  0  0  0  0  0  0  0  0  0  0  0
  147.0698   72.0368  220.2362 H   0  0  0  0  0  0  0  0  0  0  0  0
  143.0943   71.8633  218.7177 H   0  0  0  0  0  0  0  0  0  0  0  0
  137.7264   75.6399  223.1927 H   0  0  0  0  0  0  0  0  0  0  0  0
  139.5128   75.7313  223.0939 H   0  0  0  0  0  0  0  0  0  0  0  0
  137.4646   77.9563  223.1491 H   0  0  0  0  0  0  0  0  0  0  0  0
  138.9923   77.7904  224.0716 H   0  0  0  0  0  0  0  0  0  0  0  0
  1  2  1  0
  2  3  1  0
  3  4  2  0
  3  5  1  0
  5  6  1  0
  6  7  2  0
  7  8  1  0
  8  9  2  0
  9 10  1  0
 10 11  2  0
  5 12  1  0
 12 13  1  0
 13 14  1  0
 14 15  1  0
 15 16  1  0
 16 17  2  0
 16 18  1  0
 18 19  1  0
 18 20  1  0
 20 21  1  0
 21 22  1  0
 22 23  2  0
 23 24  1  0
 24 25  2  0
 25 26  1  0
 26 27  2  0
 27 28  1  0
 28 29  1  0
 29 30  2  0
 30 31  1  0
 31 32  2  0
 32 33  1  0
 33 34  2  0
 15 35  1  0
 35 36  1  0
 11  6  1  0
 36 12  1  0
 28 20  1  0
 34 29  1  0
 27 22  1  0
  1 37  1  0
  1 38  1  0
  1 39  1  0
  2 40  1  0
  2 41  1  0
  7 42  1  0
  8 43  1  0
  9 44  1  0
 10 45  1  0
 11 46  1  0
 12 47  1  0
 13 48  1  0
 13 49  1  0
 14 50  1  0
 14 51  1  0
 18 52  1  6
 19 53  1  0
 19 54  1  0
 20 55  1  1
 21 56  1  0
 21 57  1  0
 23 58  1  0
 24 59  1  0
 25 60  1  0
 26 61  1  0
 28 62  1  6
 30 63  1  0
 31 64  1  0
 32 65  1  0
 34 66  1  0
 35 67  1  0
 35 68  1  0
 36 69  1  0
 36 70  1  0
M  END
>  <smiles>  (143) 
CCC(=O)N(c1ccccc1)C1CCN(C(=O)[C@H](N)C2Cc3ccccc3C2c2cccnc2)CC1

>  <score_type>  (143) 
oracle

>  <origin>  (143) 
autodockgpu

>  <m_score__min__energy>  (143) 
-9.0999999999999996

>  <m_primary>  (143) 
energy

>  <rmsd>  (143) 
5.691064663185094

>  <m_score__min__rmsd>  (143) 
5.691064663185094

>  <meeko>  (143) 
{"free_energy": -8.07, "intermolecular_energy": -10.45, "internal_energy": -3.23, "cluster_size": 28, "cluster_id": 5, "rank_in_cluster": 7}

>  <energy>  (143) 
-7.84

>  <cluster_rmsd>  (143) 
1.92

>  <cluster>  (143) 
5

$$$$

     RDKit          3D

 70 74  0  0  0  0  0  0  0  0999 V2000
  142.6190   80.6940  217.8180 C   0  0  0  0  0  0  0  0  0  0  0  0
  142.4760   79.2610  218.2540 C   0  0  0  0  0  0  0  0  0  0  0  0
  141.3120   79.1150  219.1660 C   0  0  0  0  0  0  0  0  0  0  0  0
  140.2410   79.6820  218.7940 O   0  0  0  0  0  0  0  0  0  0  0  0
  141.3970   78.3760  220.3900 N   0  0  0  0  0  0  0  0  0  0  0  0
  141.6280   79.1220  221.5790 C   0  0  0  0  0  0  0  0  0  0  0  0
  141.5840   78.5700  222.8420 C   0  0  0  0  0  0  0  0  0  0  0  0
  141.8240   79.3530  223.9580 C   0  0  0  0  0  0  0  0  0  0  0  0
  142.1110   80.7050  223.8080 C   0  0  0  0  0  0  0  0  0  0  0  0
  142.1530   81.2520  222.5430 C   0  0  0  0  0  0  0  0  0  0  0  0
  141.9150   80.4790  221.4160 C   0  0  0  0  0  0  0  0  0  0  0  0
  141.2500   76.9430  220.3700 C   0  0  0  0  0  0  0  0  0  0  0  0
  142.5530   76.2190  220.0540 C   0  0  0  0  0  0  0  0  0  0  0  0
  142.2350   74.8330  219.5030 C   0  0  0  0  0  0  0  0  0  0  0  0
  140.9620   74.3750  220.0470 N   0  0  0  0  0  0  0  0  0  0  0  0
  140.9880   73.2610  220.9150 C   0  0  0  0  0  0  0  0  0  0  0  0
  142.1310   72.7590  221.1410 O   0  0  0  0  0  0  0  0  0  0  0  0
  139.8440   72.6340  221.5740 C   0  0  2  0  0  0  0  0  0  0  0  0
  139.0630   73.6290  222.3340 N   0  0  0  0  0  0  0  0  0  0  0  0
  140.1890   71.4990  222.5140 C   0  0  2  0  0  0  0  0  0  0  0  0
  139.9590   70.2250  221.7380 C   0  0  0  0  0  0  0  0  0  0  0  0
  138.6310   69.7500  222.1730 C   0  0  0  0  0  0  0  0  0  0  0  0
  137.8020   68.7670  221.6720 C   0  0  0  0  0  0  0  0  0  0  0  0
  136.5890   68.5200  222.2800 C   0  0  0  0  0  0  0  0  0  0  0  0
  136.1830   69.2390  223.3840 C   0  0  0  0  0  0  0  0  0  0  0  0
  137.0060   70.2210  223.8870 C   0  0  0  0  0  0  0  0  0  0  0  0
  138.2370   70.4730  223.2720 C   0  0  0  0  0  0  0  0  0  0  0  0
  139.2450   71.4800  223.6660 C   0  0  1  0  0  0  0  0  0  0  0  0
  139.8580   71.0230  224.9470 C   0  0  0  0  0  0  0  0  0  0  0  0
  139.6380   69.7740  225.4830 C   0  0  0  0  0  0  0  0  0  0  0  0
  140.2380   69.4150  226.6730 C   0  0  0  0  0  0  0  0  0  0  0  0
  141.0720   70.2760  227.3660 C   0  0  0  0  0  0  0  0  0  0  0  0
  141.2760   71.4950  226.8250 N   0  0  0  0  0  0  0  0  0  0  0  0
  140.6920   71.8660  225.6530 C   0  0  0  0  0  0  0  0  0  0  0  0
  139.7840   75.1060  219.6590 C   0  0  0  0  0  0  0  0  0  0  0  0
  140.1650   76.5410  219.4000 C   0  0  0  0  0  0  0  0  0  0  0  0
  142.6837   81.3422  218.7043 H   0  0  0  0  0  0  0  0  0  0  0  0
  143.5326   80.8045  217.2154 H   0  0  0  0  0  0  0  0  0  0  0  0
  141.7452   80.9829  217.2154 H   0  0  0  0  0  0  0  0  0  0  0  0
  142.3259   78.6253  217.3689 H   0  0  0  0  0  0  0  0  0  0  0  0
  143.3889   78.9553  218.7860 H   0  0  0  0  0  0  0  0  0  0  0  0
  141.3567   77.5006  222.9634 H   0  0  0  0  0  0  0  0  0  0  0  0
  141.7877   78.9060  224.9624 H   0  0  0  0  0  0  0  0  0  0  0  0
  142.3028   81.3328  224.6907 H   0  0  0  0  0  0  0  0  0  0  0  0
  142.3796   82.3219  222.4252 H   0  0  0  0  0  0  0  0  0  0  0  0
  141.9517   80.9268  220.4120 H   0  0  0  0  0  0  0  0  0  0  0  0
  140.9602   76.6353  221.3855 H   0  0  0  0  0  0  0  0  0  0  0  0
  143.1199   76.7916  219.3051 H   0  0  0  0  0  0  0  0  0  0  0  0
  143.1546   76.1237  220.9699 H   0  0  0  0  0  0  0  0  0  0  0  0
  142.1693   74.8805  218.4060 H   0  0  0  0  0  0  0  0  0  0  0  0
  143.0314   74.1315  219.7921 H   0  0  0  0  0  0  0  0  0  0  0  0
  139.2614   72.2063  220.7448 H   0  0  0  0  0  0  0  0  0  0  0  0
  139.5670   73.9290  223.1980 H   0  0  0  0  0  0  0  0  0  0  0  0
  138.1650   73.2230  222.6530 H   0  0  0  0  0  0  0  0  0  0  0  0
  141.2200   71.6077  222.8818 H   0  0  0  0  0  0  0  0  0  0  0  0
  139.9634   70.4246  220.6563 H   0  0  0  0  0  0  0  0  0  0  0  0
  140.7465   69.4796  221.9229 H   0  0  0  0  0  0  0  0  0  0  0  0
  138.1075   68.1829  220.7914 H   0  0  0  0  0  0  0  0  0  0  0  0
  135.9331   67.7345  221.8765 H   0  0  0  0  0  0  0  0  0  0  0  0
  135.2123   69.0303  223.8576 H   0  0  0  0  0  0  0  0  0  0  0  0
  136.6976   70.8041  224.7673 H   0  0  0  0  0  0  0  0  0  0  0  0
  138.8670   72.4956  223.8549 H   0  0  0  0  0  0  0  0  0  0  0  0
  138.9826   69.0607  224.9617 H   0  0  0  0  0  0  0  0  0  0  0  0
  140.0475   68.4126  227.0841 H   0  0  0  0  0  0  0  0  0  0  0  0
  141.5461   69.9800  228.3134 H   0  0  0  0  0  0  0  0  0  0  0  0
  140.8915   72.8719  225.2550 H   0  0  0  0  0  0  0  0  0  0  0  0
  139.3602   74.6654  218.7445 H   0  0  0  0  0  0  0  0  0  0  0  0
  139.0336   75.0581  220.4618 H   0  0  0  0  0  0  0  0  0  0  0  0
  140.5347   76.6443  218.3692 H   0  0  0  0  0  0  0  0  0  0  0  0
  139.2866   77.1894  219.5345 H   0  0  0  0  0  0  0  0  0  0  0  0
  1  2  1  0
  2  3  1  0
  3  4  2  0
  3  5  1  0
  5  6  1  0
  6  7  2  0
  7  8  1  0
  8  9  2  0
  9 10  1  0
 10 11  2  0
  5 12  1  0
 12 13  1  0
 13 14  1  0
 14 15  1  0
 15 16  1  0
 16 17  2  0
 16 18  1  0
 18 19  1  0
 18 20  1  0
 20 21  1  0
 21 22  1  0
 22 23  2  0
 23 24  1  0
 24 25  2  0
 25 26  1  0
 26 27  2  0
 27 28  1  0
 28 29  1  0
 29 30  2  0
 30 31  1  0
 31 32  2  0
 32 33  1  0
 33 34  2  0
 15 35  1  0
 35 36  1  0
 11  6  1  0
 36 12  1  0
 28 20  1  0
 34 29  1  0
 27 22  1  0
  1 37  1  0
  1 38  1  0
  1 39  1  0
  2 40  1  0
  2 41  1  0
  7 42  1  0
  8 43  1  0
  9 44  1  0
 10 45  1  0
 11 46  1  0
 12 47  1  0
 13 48  1  0
 13 49  1  0
 14 50  1  0
 14 51  1  0
 18 52  1  6
 19 53  1  0
 19 54  1  0
 20 55  1  1
 21 56  1  0
 21 57  1  0
 23 58  1  0
 24 59  1  0
 25 60  1  0
 26 61  1  0
 28 62  1  1
 30 63  1  0
 31 64  1  0
 32 65  1  0
 34 66  1  0
 35 67  1  0
 35 68  1  0
 36 69  1  0
 36 70  1  0
M  END
>  <smiles>  (144) 
CCC(=O)N(c1ccccc1)C1CCN(C(=O)[C@H](N)C2Cc3ccccc3C2c2cccnc2)CC1

>  <score_type>  (144) 
oracle

>  <origin>  (144) 
autodockgpu

>  <m_score__min__energy>  (144) 
-9.0999999999999996

>  <m_primary>  (144) 
energy

>  <rmsd>  (144) 
8.166993925449354

>  <m_score__min__rmsd>  (144) 
8.166993925449354

>  <meeko>  (144) 
{"free_energy": -8.79, "intermolecular_energy": -11.18, "internal_energy": -2.11, "cluster_size": 1, "cluster_id": 3, "rank_in_cluster": 1}

>  <energy>  (144) 
-7.82

>  <cluster_rmsd>  (144) 
0.7

>  <cluster>  (144) 
5

$$$$

     RDKit          3D

 70 74  0  0  0  0  0  0  0  0999 V2000
  138.2080   67.4780  222.4780 C   0  0  0  0  0  0  0  0  0  0  0  0
  137.0220   68.3520  222.7880 C   0  0  0  0  0  0  0  0  0  0  0  0
  137.2310   69.0660  224.0740 C   0  0  0  0  0  0  0  0  0  0  0  0
  136.3200   68.9240  224.9430 O   0  0  0  0  0  0  0  0  0  0  0  0
  138.3950   69.8660  224.3150 N   0  0  0  0  0  0  0  0  0  0  0  0
  139.2010   69.5100  225.4320 C   0  0  0  0  0  0  0  0  0  0  0  0
  139.9180   70.4270  226.1720 C   0  0  0  0  0  0  0  0  0  0  0  0
  140.6800   70.0130  227.2520 C   0  0  0  0  0  0  0  0  0  0  0  0
  140.7260   68.6670  227.5930 C   0  0  0  0  0  0  0  0  0  0  0  0
  140.0080   67.7550  226.8480 C   0  0  0  0  0  0  0  0  0  0  0  0
  139.2400   68.1540  225.7650 C   0  0  0  0  0  0  0  0  0  0  0  0
  138.6950   70.9710  223.4410 C   0  0  0  0  0  0  0  0  0  0  0  0
  137.4610   71.7870  223.0750 C   0  0  0  0  0  0  0  0  0  0  0  0
  137.7230   72.5350  221.7720 C   0  0  0  0  0  0  0  0  0  0  0  0
  139.1510   72.7990  221.6440 N   0  0  0  0  0  0  0  0  0  0  0  0
  139.5710   74.1470  221.6900 C   0  0  0  0  0  0  0  0  0  0  0  0
  138.6530   75.0100  221.8410 O   0  0  0  0  0  0  0  0  0  0  0  0
  140.9410   74.6440  221.5830 C   0  0  2  0  0  0  0  0  0  0  0  0
  141.0530   76.0040  222.1470 N   0  0  0  0  0  0  0  0  0  0  0  0
  141.5030   74.6770  220.1780 C   0  0  2  0  0  0  0  0  0  0  0  0
  141.9370   73.2650  219.8660 C   0  0  0  0  0  0  0  0  0  0  0  0
  143.3930   73.2550  220.1000 C   0  0  0  0  0  0  0  0  0  0  0  0
  144.3000   72.2170  220.1840 C   0  0  0  0  0  0  0  0  0  0  0  0
  145.6320   72.4880  220.4150 C   0  0  0  0  0  0  0  0  0  0  0  0
  146.0820   73.7840  220.5660 C   0  0  0  0  0  0  0  0  0  0  0  0
  145.1820   74.8220  220.4840 C   0  0  0  0  0  0  0  0  0  0  0  0
  143.8300   74.5480  220.2500 C   0  0  0  0  0  0  0  0  0  0  0  0
  142.7260   75.5250  220.1330 C   0  0  1  0  0  0  0  0  0  0  0  0
  142.9110   76.2580  218.8470 C   0  0  0  0  0  0  0  0  0  0  0  0
  142.6210   77.5950  218.6950 C   0  0  0  0  0  0  0  0  0  0  0  0
  142.8170   78.2130  217.4760 C   0  0  0  0  0  0  0  0  0  0  0  0
  143.3030   77.5300  216.3740 C   0  0  0  0  0  0  0  0  0  0  0  0
  143.5820   76.2210  216.5430 N   0  0  0  0  0  0  0  0  0  0  0  0
  143.3950   75.5960  217.7370 C   0  0  0  0  0  0  0  0  0  0  0  0
  140.0160   71.6580  221.4890 C   0  0  0  0  0  0  0  0  0  0  0  0
  139.4000   70.4810  222.1990 C   0  0  0  0  0  0  0  0  0  0  0  0
  138.6687   67.1384  223.4174 H   0  0  0  0  0  0  0  0  0  0  0  0
  137.8781   66.6055  221.8951 H   0  0  0  0  0  0  0  0  0  0  0  0
  138.9437   68.0515  221.8951 H   0  0  0  0  0  0  0  0  0  0  0  0
  136.8926   69.0881  221.9809 H   0  0  0  0  0  0  0  0  0  0  0  0
  136.1242   67.7217  222.8700 H   0  0  0  0  0  0  0  0  0  0  0  0
  139.8844   71.4931  225.9029 H   0  0  0  0  0  0  0  0  0  0  0  0
  141.2483   70.7493  227.8392 H   0  0  0  0  0  0  0  0  0  0  0  0
  141.3295   68.3317  228.4493 H   0  0  0  0  0  0  0  0  0  0  0  0
  140.0455   66.6895  227.1186 H   0  0  0  0  0  0  0  0  0  0  0  0
  138.6720   67.4166  225.1789 H   0  0  0  0  0  0  0  0  0  0  0  0
  139.3640   71.6463  223.9946 H   0  0  0  0  0  0  0  0  0  0  0  0
  136.6000   71.1145  222.9465 H   0  0  0  0  0  0  0  0  0  0  0  0
  137.2428   72.5073  223.8773 H   0  0  0  0  0  0  0  0  0  0  0  0
  137.3855   71.9225  220.9229 H   0  0  0  0  0  0  0  0  0  0  0  0
  137.1724   73.4872  221.7778 H   0  0  0  0  0  0  0  0  0  0  0  0
  141.5339   73.9152  222.1550 H   0  0  0  0  0  0  0  0  0  0  0  0
  140.1970   76.5700  221.9490 H   0  0  0  0  0  0  0  0  0  0  0  0
  141.8410   76.5160  221.7100 H   0  0  0  0  0  0  0  0  0  0  0  0
  140.7536   75.0707  219.4755 H   0  0  0  0  0  0  0  0  0  0  0  0
  141.4331   72.5491  220.5320 H   0  0  0  0  0  0  0  0  0  0  0  0
  141.6809   72.9708  218.8375 H   0  0  0  0  0  0  0  0  0  0  0  0
  143.9608   71.1772  220.0670 H   0  0  0  0  0  0  0  0  0  0  0  0
  146.3490   71.6563  220.4801 H   0  0  0  0  0  0  0  0  0  0  0  0
  147.1478   73.9850  220.7498 H   0  0  0  0  0  0  0  0  0  0  0  0
  145.5236   75.8610  220.6017 H   0  0  0  0  0  0  0  0  0  0  0  0
  142.6748   76.2947  220.9172 H   0  0  0  0  0  0  0  0  0  0  0  0
  142.2322   78.1724  219.5467 H   0  0  0  0  0  0  0  0  0  0  0  0
  142.5794   79.2825  217.3771 H   0  0  0  0  0  0  0  0  0  0  0  0
  143.4544   78.0310  215.4065 H   0  0  0  0  0  0  0  0  0  0  0  0
  143.6379   74.5264  217.8204 H   0  0  0  0  0  0  0  0  0  0  0  0
  140.1327   71.4252  220.4203 H   0  0  0  0  0  0  0  0  0  0  0  0
  141.0046   71.8777  221.9186 H   0  0  0  0  0  0  0  0  0  0  0  0
  138.6759   69.9869  221.5344 H   0  0  0  0  0  0  0  0  0  0  0  0
  140.1846   69.7615  222.4761 H   0  0  0  0  0  0  0  0  0  0  0  0
  1  2  1  0
  2  3  1  0
  3  4  2  0
  3  5  1  0
  5  6  1  0
  6  7  2  0
  7  8  1  0
  8  9  2  0
  9 10  1  0
 10 11  2  0
  5 12  1  0
 12 13  1  0
 13 14  1  0
 14 15  1  0
 15 16  1  0
 16 17  2  0
 16 18  1  0
 18 19  1  0
 18 20  1  0
 20 21  1  0
 21 22  1  0
 22 23  2  0
 23 24  1  0
 24 25  2  0
 25 26  1  0
 26 27  2  0
 27 28  1  0
 28 29  1  0
 29 30  2  0
 30 31  1  0
 31 32  2  0
 32 33  1  0
 33 34  2  0
 15 35  1  0
 35 36  1  0
 11  6  1  0
 36 12  1  0
 28 20  1  0
 34 29  1  0
 27 22  1  0
  1 37  1  0
  1 38  1  0
  1 39  1  0
  2 40  1  0
  2 41  1  0
  7 42  1  0
  8 43  1  0
  9 44  1  0
 10 45  1  0
 11 46  1  0
 12 47  1  0
 13 48  1  0
 13 49  1  0
 14 50  1  0
 14 51  1  0
 18 52  1  1
 19 53  1  0
 19 54  1  0
 20 55  1  6
 21 56  1  0
 21 57  1  0
 23 58  1  0
 24 59  1  0
 25 60  1  0
 26 61  1  0
 28 62  1  1
 30 63  1  0
 31 64  1  0
 32 65  1  0
 34 66  1  0
 35 67  1  0
 35 68  1  0
 36 69  1  0
 36 70  1  0
M  END
>  <smiles>  (145) 
CCC(=O)N(c1ccccc1)C1CCN(C(=O)[C@H](N)C2Cc3ccccc3C2c2cccnc2)CC1

>  <score_type>  (145) 
oracle

>  <origin>  (145) 
autodockgpu

>  <m_score__min__energy>  (145) 
-9.0999999999999996

>  <m_primary>  (145) 
energy

>  <rmsd>  (145) 
8.064697151116594

>  <m_score__min__rmsd>  (145) 
8.064697151116594

>  <meeko>  (145) 
{"free_energy": -8.75, "intermolecular_energy": -11.13, "internal_energy": -2.64, "cluster_size": 12, "cluster_id": 1, "rank_in_cluster": 4}

>  <energy>  (145) 
-7.81

>  <cluster_rmsd>  (145) 
0.7

>  <cluster>  (145) 
5

$$$$

     RDKit          3D

 70 74  0  0  0  0  0  0  0  0999 V2000
  137.7860   80.7440  224.1010 C   0  0  0  0  0  0  0  0  0  0  0  0
  137.5010   80.9270  222.6340 C   0  0  0  0  0  0  0  0  0  0  0  0
  138.7560   80.8090  221.8470 C   0  0  0  0  0  0  0  0  0  0  0  0
  138.9140   81.6610  220.9220 O   0  0  0  0  0  0  0  0  0  0  0  0
  139.7290   79.7930  222.1210 N   0  0  0  0  0  0  0  0  0  0  0  0
  140.9370   80.2090  222.7450 C   0  0  0  0  0  0  0  0  0  0  0  0
  141.0080   81.2560  223.6400 C   0  0  0  0  0  0  0  0  0  0  0  0
  142.2170   81.6050  224.2160 C   0  0  0  0  0  0  0  0  0  0  0  0
  143.3700   80.8990  223.8920 C   0  0  0  0  0  0  0  0  0  0  0  0
  143.2930   79.8530  222.9960 C   0  0  0  0  0  0  0  0  0  0  0  0
  142.0890   79.4920  222.4120 C   0  0  0  0  0  0  0  0  0  0  0  0
  139.4530   78.4260  221.7610 C   0  0  0  0  0  0  0  0  0  0  0  0
  138.5730   78.3060  220.5230 C   0  0  0  0  0  0  0  0  0  0  0  0
  137.8760   76.9500  220.5330 C   0  0  0  0  0  0  0  0  0  0  0  0
  138.7010   75.9860  221.2500 N   0  0  0  0  0  0  0  0  0  0  0  0
  139.2510   74.9180  220.5060 C   0  0  0  0  0  0  0  0  0  0  0  0
  138.9700   74.9010  219.2690 O   0  0  0  0  0  0  0  0  0  0  0  0
  140.1020   73.8430  221.0110 C   0  0  2  0  0  0  0  0  0  0  0  0
  139.6370   73.3800  222.3330 N   0  0  0  0  0  0  0  0  0  0  0  0
  141.5700   74.1920  221.1310 C   0  0  2  0  0  0  0  0  0  0  0  0
  141.6280   75.6680  221.4390 C   0  0  0  0  0  0  0  0  0  0  0  0
  141.9130   76.3160  220.1450 C   0  0  0  0  0  0  0  0  0  0  0  0
  141.8740   77.6400  219.7560 C   0  0  0  0  0  0  0  0  0  0  0  0
  142.1940   77.9820  218.4580 C   0  0  0  0  0  0  0  0  0  0  0  0
  142.5540   77.0230  217.5350 C   0  0  0  0  0  0  0  0  0  0  0  0
  142.5930   75.7010  217.9170 C   0  0  0  0  0  0  0  0  0  0  0  0
  142.2690   75.3530  219.2330 C   0  0  0  0  0  0  0  0  0  0  0  0
  142.2540   73.9970  219.8230 C   0  0  1  0  0  0  0  0  0  0  0  0
  143.6700   73.5430  219.9380 C   0  0  0  0  0  0  0  0  0  0  0  0
  144.4460   73.7750  221.0520 C   0  0  0  0  0  0  0  0  0  0  0  0
  145.7510   73.3250  221.0940 C   0  0  0  0  0  0  0  0  0  0  0  0
  146.3260   72.6350  220.0410 C   0  0  0  0  0  0  0  0  0  0  0  0
  145.5500   72.4170  218.9590 N   0  0  0  0  0  0  0  0  0  0  0  0
  144.2620   72.8530  218.9000 C   0  0  0  0  0  0  0  0  0  0  0  0
  138.8940   76.2100  222.6590 C   0  0  0  0  0  0  0  0  0  0  0  0
  138.8370   77.6910  222.9280 C   0  0  0  0  0  0  0  0  0  0  0  0
  137.0051   81.2454  224.6916 H   0  0  0  0  0  0  0  0  0  0  0  0
  137.7953   79.6707  224.3416 H   0  0  0  0  0  0  0  0  0  0  0  0
  138.7658   81.1822  224.3416 H   0  0  0  0  0  0  0  0  0  0  0  0
  136.7910   80.1548  222.3030 H   0  0  0  0  0  0  0  0  0  0  0  0
  137.0710   81.9269  222.4747 H   0  0  0  0  0  0  0  0  0  0  0  0
  140.0977   81.8173  223.8977 H   0  0  0  0  0  0  0  0  0  0  0  0
  142.2657   82.4405  224.9298 H   0  0  0  0  0  0  0  0  0  0  0  0
  144.3342   81.1718  224.3457 H   0  0  0  0  0  0  0  0  0  0  0  0
  144.2053   79.2943  222.7399 H   0  0  0  0  0  0  0  0  0  0  0  0
  142.0413   78.6558  221.6989 H   0  0  0  0  0  0  0  0  0  0  0  0
  140.4164   77.9603  221.5061 H   0  0  0  0  0  0  0  0  0  0  0  0
  137.8193   79.1072  220.5283 H   0  0  0  0  0  0  0  0  0  0  0  0
  139.1928   78.3963  219.6188 H   0  0  0  0  0  0  0  0  0  0  0  0
  136.9009   77.0424  221.0336 H   0  0  0  0  0  0  0  0  0  0  0  0
  137.7256   76.6070  219.4987 H   0  0  0  0  0  0  0  0  0  0  0  0
  140.0145   73.0537  220.2498 H   0  0  0  0  0  0  0  0  0  0  0  0
  139.1700   72.4480  222.2670 H   0  0  0  0  0  0  0  0  0  0  0  0
  138.9280   74.0290  222.7180 H   0  0  0  0  0  0  0  0  0  0  0  0
  142.0498   73.5652  221.8971 H   0  0  0  0  0  0  0  0  0  0  0  0
  140.6662   76.0170  221.8428 H   0  0  0  0  0  0  0  0  0  0  0  0
  142.3907   75.9029  222.1961 H   0  0  0  0  0  0  0  0  0  0  0  0
  141.5889   78.4194  220.4780 H   0  0  0  0  0  0  0  0  0  0  0  0
  142.1613   79.0387  218.1542 H   0  0  0  0  0  0  0  0  0  0  0  0
  142.8074   77.3113  216.5041 H   0  0  0  0  0  0  0  0  0  0  0  0
  142.8770   74.9235  217.1926 H   0  0  0  0  0  0  0  0  0  0  0  0
  141.7325   73.2217  219.2425 H   0  0  0  0  0  0  0  0  0  0  0  0
  144.0254   74.3199  221.9101 H   0  0  0  0  0  0  0  0  0  0  0  0
  146.3529   73.5213  221.9935 H   0  0  0  0  0  0  0  0  0  0  0  0
  147.3666   72.2810  220.0842 H   0  0  0  0  0  0  0  0  0  0  0  0
  143.6729   72.6483  217.9939 H   0  0  0  0  0  0  0  0  0  0  0  0
  138.1011   75.7006  223.2262 H   0  0  0  0  0  0  0  0  0  0  0  0
  139.8708   75.8112  222.9702 H   0  0  0  0  0  0  0  0  0  0  0  0
  137.7895   78.0038  223.0496 H   0  0  0  0  0  0  0  0  0  0  0  0
  139.3920   77.9234  223.8488 H   0  0  0  0  0  0  0  0  0  0  0  0
  1  2  1  0
  2  3  1  0
  3  4  2  0
  3  5  1  0
  5  6  1  0
  6  7  2  0
  7  8  1  0
  8  9  2  0
  9 10  1  0
 10 11  2  0
  5 12  1  0
 12 13  1  0
 13 14  1  0
 14 15  1  0
 15 16  1  0
 16 17  2  0
 16 18  1  0
 18 19  1  0
 18 20  1  0
 20 21  1  0
 21 22  1  0
 22 23  2  0
 23 24  1  0
 24 25  2  0
 25 26  1  0
 26 27  2  0
 27 28  1  0
 28 29  1  0
 29 30  2  0
 30 31  1  0
 31 32  2  0
 32 33  1  0
 33 34  2  0
 15 35  1  0
 35 36  1  0
 11  6  1  0
 36 12  1  0
 28 20  1  0
 34 29  1  0
 27 22  1  0
  1 37  1  0
  1 38  1  0
  1 39  1  0
  2 40  1  0
  2 41  1  0
  7 42  1  0
  8 43  1  0
  9 44  1  0
 10 45  1  0
 11 46  1  0
 12 47  1  0
 13 48  1  0
 13 49  1  0
 14 50  1  0
 14 51  1  0
 18 52  1  6
 19 53  1  0
 19 54  1  0
 20 55  1  1
 21 56  1  0
 21 57  1  0
 23 58  1  0
 24 59  1  0
 25 60  1  0
 26 61  1  0
 28 62  1  6
 30 63  1  0
 31 64  1  0
 32 65  1  0
 34 66  1  0
 35 67  1  0
 35 68  1  0
 36 69  1  0
 36 70  1  0
M  END
>  <smiles>  (146) 
CCC(=O)N(c1ccccc1)C1CCN(C(=O)[C@H](N)C2Cc3ccccc3C2c2cccnc2)CC1

>  <score_type>  (146) 
oracle

>  <origin>  (146) 
autodockgpu

>  <m_score__min__energy>  (146) 
-9.0999999999999996

>  <m_primary>  (146) 
energy

>  <rmsd>  (146) 
5.6474021677168

>  <m_score__min__rmsd>  (146) 
5.6474021677168

>  <meeko>  (146) 
{"free_energy": -8.14, "intermolecular_energy": -10.53, "internal_energy": -3.2, "cluster_size": 28, "cluster_id": 5, "rank_in_cluster": 4}

>  <energy>  (146) 
-7.81

>  <cluster_rmsd>  (146) 
1.94

>  <cluster>  (146) 
5

$$$$

     RDKit          3D

 70 74  0  0  0  0  0  0  0  0999 V2000
  134.6400   70.0130  224.6250 C   0  0  0  0  0  0  0  0  0  0  0  0
  135.9070   69.6460  225.3490 C   0  0  0  0  0  0  0  0  0  0  0  0
  136.9920   69.3600  224.3740 C   0  0  0  0  0  0  0  0  0  0  0  0
  136.7140   68.5230  223.4650 O   0  0  0  0  0  0  0  0  0  0  0  0
  138.2740   69.9940  224.4600 N   0  0  0  0  0  0  0  0  0  0  0  0
  139.1570   69.5280  225.4720 C   0  0  0  0  0  0  0  0  0  0  0  0
  139.2230   68.2100  225.8750 C   0  0  0  0  0  0  0  0  0  0  0  0
  140.1110   67.8230  226.8630 C   0  0  0  0  0  0  0  0  0  0  0  0
  140.9420   68.7650  227.4570 C   0  0  0  0  0  0  0  0  0  0  0  0
  140.8730   70.0810  227.0510 C   0  0  0  0  0  0  0  0  0  0  0  0
  139.9880   70.4840  226.0620 C   0  0  0  0  0  0  0  0  0  0  0  0
  138.6080   71.0530  223.5420 C   0  0  0  0  0  0  0  0  0  0  0  0
  137.3960   71.8710  223.1150 C   0  0  0  0  0  0  0  0  0  0  0  0
  137.6950   72.5530  221.7840 C   0  0  0  0  0  0  0  0  0  0  0  0
  139.1290   72.7880  221.6720 N   0  0  0  0  0  0  0  0  0  0  0  0
  139.5710   74.1300  221.6640 C   0  0  0  0  0  0  0  0  0  0  0  0
  138.6650   75.0130  221.7580 O   0  0  0  0  0  0  0  0  0  0  0  0
  140.9510   74.5990  221.5610 C   0  0  2  0  0  0  0  0  0  0  0  0
  141.0860   75.9620  222.1130 N   0  0  0  0  0  0  0  0  0  0  0  0
  141.5210   74.6090  220.1590 C   0  0  2  0  0  0  0  0  0  0  0  0
  141.9670   73.1940  219.8770 C   0  0  0  0  0  0  0  0  0  0  0  0
  143.4220   73.1990  220.1210 C   0  0  0  0  0  0  0  0  0  0  0  0
  144.3360   72.1690  220.2300 C   0  0  0  0  0  0  0  0  0  0  0  0
  145.6650   72.4550  220.4640 C   0  0  0  0  0  0  0  0  0  0  0  0
  146.1040   73.7560  220.5920 C   0  0  0  0  0  0  0  0  0  0  0  0
  145.1980   74.7860  220.4850 C   0  0  0  0  0  0  0  0  0  0  0  0
  143.8490   74.4980  220.2480 C   0  0  0  0  0  0  0  0  0  0  0  0
  142.7390   75.4640  220.1050 C   0  0  1  0  0  0  0  0  0  0  0  0
  142.9260   76.1730  218.8060 C   0  0  0  0  0  0  0  0  0  0  0  0
  142.6660   77.5150  218.6360 C   0  0  0  0  0  0  0  0  0  0  0  0
  142.8620   78.1090  217.4060 C   0  0  0  0  0  0  0  0  0  0  0  0
  143.3210   77.3990  216.3100 C   0  0  0  0  0  0  0  0  0  0  0  0
  143.5710   76.0860  216.4960 N   0  0  0  0  0  0  0  0  0  0  0  0
  143.3830   75.4840  217.7010 C   0  0  0  0  0  0  0  0  0  0  0  0
  139.9770   71.6270  221.5860 C   0  0  0  0  0  0  0  0  0  0  0  0
  139.3280   70.4940  222.3380 C   0  0  0  0  0  0  0  0  0  0  0  0
  133.8520   70.2413  225.3577 H   0  0  0  0  0  0  0  0  0  0  0  0
  134.8208   70.8957  223.9940 H   0  0  0  0  0  0  0  0  0  0  0  0
  134.3210   69.1703  223.9940 H   0  0  0  0  0  0  0  0  0  0  0  0
  136.2110   70.4823  225.9957 H   0  0  0  0  0  0  0  0  0  0  0  0
  135.7252   68.7474  225.9569 H   0  0  0  0  0  0  0  0  0  0  0  0
  138.5654   67.4621  225.4078 H   0  0  0  0  0  0  0  0  0  0  0  0
  140.1591   66.7702  227.1781 H   0  0  0  0  0  0  0  0  0  0  0  0
  141.6487   68.4636  228.2442 H   0  0  0  0  0  0  0  0  0  0  0  0
  141.5326   70.8256  227.5206 H   0  0  0  0  0  0  0  0  0  0  0  0
  139.9411   71.5371  225.7478 H   0  0  0  0  0  0  0  0  0  0  0  0
  139.2769   71.7432  224.0770 H   0  0  0  0  0  0  0  0  0  0  0  0
  136.5259   71.2076  223.0012 H   0  0  0  0  0  0  0  0  0  0  0  0
  137.1757   72.6315  223.8787 H   0  0  0  0  0  0  0  0  0  0  0  0
  137.3634   71.9069  220.9579 H   0  0  0  0  0  0  0  0  0  0  0  0
  137.1603   73.5131  221.7347 H   0  0  0  0  0  0  0  0  0  0  0  0
  141.5263   73.8641  222.1431 H   0  0  0  0  0  0  0  0  0  0  0  0
  141.9000   76.0300  222.7640 H   0  0  0  0  0  0  0  0  0  0  0  0
  140.2510   76.2130  222.6720 H   0  0  0  0  0  0  0  0  0  0  0  0
  140.7731   74.9841  219.4449 H   0  0  0  0  0  0  0  0  0  0  0  0
  141.4636   72.4875  220.5533 H   0  0  0  0  0  0  0  0  0  0  0  0
  141.7199   72.8782  218.8527 H   0  0  0  0  0  0  0  0  0  0  0  0
  144.0053   71.1246  220.1306 H   0  0  0  0  0  0  0  0  0  0  0  0
  146.3878   71.6303  220.5501 H   0  0  0  0  0  0  0  0  0  0  0  0
  147.1673   73.9681  220.7777 H   0  0  0  0  0  0  0  0  0  0  0  0
  145.5318   75.8293  220.5851 H   0  0  0  0  0  0  0  0  0  0  0  0
  142.6783   76.2481  220.8741 H   0  0  0  0  0  0  0  0  0  0  0  0
  142.3012   78.1147  219.4829 H   0  0  0  0  0  0  0  0  0  0  0  0
  142.6465   79.1817  217.2928 H   0  0  0  0  0  0  0  0  0  0  0  0
  143.4747   77.8821  215.3338 H   0  0  0  0  0  0  0  0  0  0  0  0
  143.6029   74.4106  217.7982 H   0  0  0  0  0  0  0  0  0  0  0  0
  140.1090   71.3430  220.5315 H   0  0  0  0  0  0  0  0  0  0  0  0
  140.9613   71.8502  222.0235 H   0  0  0  0  0  0  0  0  0  0  0  0
  138.6084   69.9809  221.6831 H   0  0  0  0  0  0  0  0  0  0  0  0
  140.0950   69.7759  222.6635 H   0  0  0  0  0  0  0  0  0  0  0  0
  1  2  1  0
  2  3  1  0
  3  4  2  0
  3  5  1  0
  5  6  1  0
  6  7  2  0
  7  8  1  0
  8  9  2  0
  9 10  1  0
 10 11  2  0
  5 12  1  0
 12 13  1  0
 13 14  1  0
 14 15  1  0
 15 16  1  0
 16 17  2  0
 16 18  1  0
 18 19  1  0
 18 20  1  0
 20 21  1  0
 21 22  1  0
 22 23  2  0
 23 24  1  0
 24 25  2  0
 25 26  1  0
 26 27  2  0
 27 28  1  0
 28 29  1  0
 29 30  2  0
 30 31  1  0
 31 32  2  0
 32 33  1  0
 33 34  2  0
 15 35  1  0
 35 36  1  0
 11  6  1  0
 36 12  1  0
 28 20  1  0
 34 29  1  0
 27 22  1  0
  1 37  1  0
  1 38  1  0
  1 39  1  0
  2 40  1  0
  2 41  1  0
  7 42  1  0
  8 43  1  0
  9 44  1  0
 10 45  1  0
 11 46  1  0
 12 47  1  0
 13 48  1  0
 13 49  1  0
 14 50  1  0
 14 51  1  0
 18 52  1  1
 19 53  1  0
 19 54  1  0
 20 55  1  6
 21 56  1  0
 21 57  1  0
 23 58  1  0
 24 59  1  0
 25 60  1  0
 26 61  1  0
 28 62  1  1
 30 63  1  0
 31 64  1  0
 32 65  1  0
 34 66  1  0
 35 67  1  0
 35 68  1  0
 36 69  1  0
 36 70  1  0
M  END
>  <smiles>  (147) 
CCC(=O)N(c1ccccc1)C1CCN(C(=O)[C@H](N)C2Cc3ccccc3C2c2cccnc2)CC1

>  <score_type>  (147) 
oracle

>  <origin>  (147) 
autodockgpu

>  <m_score__min__energy>  (147) 
-9.0999999999999996

>  <m_primary>  (147) 
energy

>  <rmsd>  (147) 
8.112361854207615

>  <m_score__min__rmsd>  (147) 
8.112361854207615

>  <meeko>  (147) 
{"free_energy": -8.61, "intermolecular_energy": -11.0, "internal_energy": -2.84, "cluster_size": 12, "cluster_id": 1, "rank_in_cluster": 8}

>  <energy>  (147) 
-7.65

>  <cluster_rmsd>  (147) 
0.72

>  <cluster>  (147) 
5

$$$$

     RDKit          3D

 70 74  0  0  0  0  0  0  0  0999 V2000
  135.2940   79.5880  223.0760 C   0  0  0  0  0  0  0  0  0  0  0  0
  136.4690   80.3620  222.5420 C   0  0  0  0  0  0  0  0  0  0  0  0
  137.6740   80.1070  223.3750 C   0  0  0  0  0  0  0  0  0  0  0  0
  137.6140   80.5060  224.5760 O   0  0  0  0  0  0  0  0  0  0  0  0
  138.8320   79.4490  222.8480 N   0  0  0  0  0  0  0  0  0  0  0  0
  140.0830   80.1020  223.0280 C   0  0  0  0  0  0  0  0  0  0  0  0
  140.3620   81.3560  222.5270 C   0  0  0  0  0  0  0  0  0  0  0  0
  141.6000   81.9370  222.7440 C   0  0  0  0  0  0  0  0  0  0  0  0
  142.5700   81.2540  223.4680 C   0  0  0  0  0  0  0  0  0  0  0  0
  142.2850   80.0000  223.9660 C   0  0  0  0  0  0  0  0  0  0  0  0
  141.0500   79.4060  223.7580 C   0  0  0  0  0  0  0  0  0  0  0  0
  138.6890   78.1840  222.1740 C   0  0  0  0  0  0  0  0  0  0  0  0
  138.1220   78.3250  220.7670 C   0  0  0  0  0  0  0  0  0  0  0  0
  137.4840   77.0040  220.3490 C   0  0  0  0  0  0  0  0  0  0  0  0
  138.1520   75.9050  221.0350 N   0  0  0  0  0  0  0  0  0  0  0  0
  138.8910   74.9970  220.2440 C   0  0  0  0  0  0  0  0  0  0  0  0
  138.9030   75.2280  218.9970 O   0  0  0  0  0  0  0  0  0  0  0  0
  139.6360   73.8300  220.7120 C   0  0  2  0  0  0  0  0  0  0  0  0
  138.9590   73.1980  221.8620 N   0  0  0  0  0  0  0  0  0  0  0  0
  141.0710   74.1050  221.1120 C   0  0  2  0  0  0  0  0  0  0  0  0
  141.0650   75.4490  221.7990 C   0  0  0  0  0  0  0  0  0  0  0  0
  141.5100   76.4040  220.7680 C   0  0  0  0  0  0  0  0  0  0  0  0
  141.5050   77.7850  220.7360 C   0  0  0  0  0  0  0  0  0  0  0  0
  141.9890   78.4460  219.6270 C   0  0  0  0  0  0  0  0  0  0  0  0
  142.4820   77.7530  218.5410 C   0  0  0  0  0  0  0  0  0  0  0  0
  142.4900   76.3770  218.5670 C   0  0  0  0  0  0  0  0  0  0  0  0
  141.9980   75.7050  219.6920 C   0  0  0  0  0  0  0  0  0  0  0  0
  141.9250   74.2430  219.9000 C   0  0  1  0  0  0  0  0  0  0  0  0
  143.3200   73.7450  220.0800 C   0  0  0  0  0  0  0  0  0  0  0  0
  144.3660   74.5570  220.4570 C   0  0  0  0  0  0  0  0  0  0  0  0
  145.6330   74.0300  220.6060 C   0  0  0  0  0  0  0  0  0  0  0  0
  145.9040   72.6910  220.3890 C   0  0  0  0  0  0  0  0  0  0  0  0
  144.8660   71.9110  220.0210 N   0  0  0  0  0  0  0  0  0  0  0  0
  143.6100   72.4130  219.8680 C   0  0  0  0  0  0  0  0  0  0  0  0
  138.0080   75.8430  222.4660 C   0  0  0  0  0  0  0  0  0  0  0  0
  137.8440   77.2430  223.0000 C   0  0  0  0  0  0  0  0  0  0  0  0
  135.3150   79.6019  224.1757 H   0  0  0  0  0  0  0  0  0  0  0  0
  134.3600   80.0482  222.7213 H   0  0  0  0  0  0  0  0  0  0  0  0
  135.3481   78.5482  222.7213 H   0  0  0  0  0  0  0  0  0  0  0  0
  136.6701   80.0489  221.5069 H   0  0  0  0  0  0  0  0  0  0  0  0
  136.2338   81.4362  222.5708 H   0  0  0  0  0  0  0  0  0  0  0  0
  139.5968   81.8978  221.9517 H   0  0  0  0  0  0  0  0  0  0  0  0
  141.8156   82.9386  222.3436 H   0  0  0  0  0  0  0  0  0  0  0  0
  143.5560   81.7095  223.6422 H   0  0  0  0  0  0  0  0  0  0  0  0
  143.0530   79.4604  224.5397 H   0  0  0  0  0  0  0  0  0  0  0  0
  140.8351   78.4050  224.1603 H   0  0  0  0  0  0  0  0  0  0  0  0
  139.6988   77.7620  222.0634 H   0  0  0  0  0  0  0  0  0  0  0  0
  137.3626   79.1207  220.7543 H   0  0  0  0  0  0  0  0  0  0  0  0
  138.9302   78.5831  220.0669 H   0  0  0  0  0  0  0  0  0  0  0  0
  136.4174   77.0103  220.6180 H   0  0  0  0  0  0  0  0  0  0  0  0
  137.5863   76.8745  219.2614 H   0  0  0  0  0  0  0  0  0  0  0  0
  139.6614   73.1624  219.8381 H   0  0  0  0  0  0  0  0  0  0  0  0
  139.0460   73.7820  222.7230 H   0  0  0  0  0  0  0  0  0  0  0  0
  139.3980   72.2880  222.0880 H   0  0  0  0  0  0  0  0  0  0  0  0
  141.4546   73.2909  221.7446 H   0  0  0  0  0  0  0  0  0  0  0  0
  140.0528   75.7005  222.1484 H   0  0  0  0  0  0  0  0  0  0  0  0
  141.7159   75.4637  222.6856 H   0  0  0  0  0  0  0  0  0  0  0  0
  141.1162   78.3554  221.5924 H   0  0  0  0  0  0  0  0  0  0  0  0
  141.9819   79.5458  219.6079 H   0  0  0  0  0  0  0  0  0  0  0  0
  142.8647   78.2945  217.6633 H   0  0  0  0  0  0  0  0  0  0  0  0
  142.8804   75.8092  217.7096 H   0  0  0  0  0  0  0  0  0  0  0  0
  141.4972   73.6572  219.0731 H   0  0  0  0  0  0  0  0  0  0  0  0
  144.1917   75.6276  220.6398 H   0  0  0  0  0  0  0  0  0  0  0  0
  146.4543   74.6968  220.9073 H   0  0  0  0  0  0  0  0  0  0  0  0
  146.9176   72.2814  220.5107 H   0  0  0  0  0  0  0  0  0  0  0  0
  142.7993   71.7340  219.5652 H   0  0  0  0  0  0  0  0  0  0  0  0
  137.1221   75.2435  222.7226 H   0  0  0  0  0  0  0  0  0  0  0  0
  138.8990   75.3758  222.9109 H   0  0  0  0  0  0  0  0  0  0  0  0
  136.7874   77.5417  222.9346 H   0  0  0  0  0  0  0  0  0  0  0  0
  138.1641   77.2805  224.0517 H   0  0  0  0  0  0  0  0  0  0  0  0
  1  2  1  0
  2  3  1  0
  3  4  2  0
  3  5  1  0
  5  6  1  0
  6  7  2  0
  7  8  1  0
  8  9  2  0
  9 10  1  0
 10 11  2  0
  5 12  1  0
 12 13  1  0
 13 14  1  0
 14 15  1  0
 15 16  1  0
 16 17  2  0
 16 18  1  0
 18 19  1  0
 18 20  1  0
 20 21  1  0
 21 22  1  0
 22 23  2  0
 23 24  1  0
 24 25  2  0
 25 26  1  0
 26 27  2  0
 27 28  1  0
 28 29  1  0
 29 30  2  0
 30 31  1  0
 31 32  2  0
 32 33  1  0
 33 34  2  0
 15 35  1  0
 35 36  1  0
 11  6  1  0
 36 12  1  0
 28 20  1  0
 34 29  1  0
 27 22  1  0
  1 37  1  0
  1 38  1  0
  1 39  1  0
  2 40  1  0
  2 41  1  0
  7 42  1  0
  8 43  1  0
  9 44  1  0
 10 45  1  0
 11 46  1  0
 12 47  1  0
 13 48  1  0
 13 49  1  0
 14 50  1  0
 14 51  1  0
 18 52  1  6
 19 53  1  0
 19 54  1  0
 20 55  1  1
 21 56  1  0
 21 57  1  0
 23 58  1  0
 24 59  1  0
 25 60  1  0
 26 61  1  0
 28 62  1  6
 30 63  1  0
 31 64  1  0
 32 65  1  0
 34 66  1  0
 35 67  1  0
 35 68  1  0
 36 69  1  0
 36 70  1  0
M  END
>  <smiles>  (148) 
CCC(=O)N(c1ccccc1)C1CCN(C(=O)[C@H](N)C2Cc3ccccc3C2c2cccnc2)CC1

>  <score_type>  (148) 
oracle

>  <origin>  (148) 
autodockgpu

>  <m_score__min__energy>  (148) 
-9.0999999999999996

>  <m_primary>  (148) 
energy

>  <rmsd>  (148) 
5.691711070714865

>  <m_score__min__rmsd>  (148) 
5.691711070714865

>  <meeko>  (148) 
{"free_energy": -7.47, "intermolecular_energy": -9.86, "internal_energy": -3.31, "cluster_size": 28, "cluster_id": 5, "rank_in_cluster": 28}

>  <energy>  (148) 
-7.6

>  <cluster_rmsd>  (148) 
0.96

>  <cluster>  (148) 
5

$$$$

     RDKit          3D

 70 74  0  0  0  0  0  0  0  0999 V2000
  137.6710   81.1610  224.8920 C   0  0  0  0  0  0  0  0  0  0  0  0
  137.2730   80.2110  223.7940 C   0  0  0  0  0  0  0  0  0  0  0  0
  138.1970   80.3450  222.6380 C   0  0  0  0  0  0  0  0  0  0  0  0
  137.9270   81.2690  221.8150 O   0  0  0  0  0  0  0  0  0  0  0  0
  139.3260   79.4790  222.4670 N   0  0  0  0  0  0  0  0  0  0  0  0
  140.5880   79.9720  222.9000 C   0  0  0  0  0  0  0  0  0  0  0  0
  140.7620   81.2160  223.4710 C   0  0  0  0  0  0  0  0  0  0  0  0
  142.0180   81.6320  223.8760 C   0  0  0  0  0  0  0  0  0  0  0  0
  143.1150   80.7940  223.7060 C   0  0  0  0  0  0  0  0  0  0  0  0
  142.9350   79.5520  223.1340 C   0  0  0  0  0  0  0  0  0  0  0  0
  141.6820   79.1220  222.7250 C   0  0  0  0  0  0  0  0  0  0  0  0
  139.1440   78.1770  221.8780 C   0  0  0  0  0  0  0  0  0  0  0  0
  138.4570   78.2340  220.5190 C   0  0  0  0  0  0  0  0  0  0  0  0
  137.8050   76.8860  220.2310 C   0  0  0  0  0  0  0  0  0  0  0  0
  138.5460   75.8330  220.9150 N   0  0  0  0  0  0  0  0  0  0  0  0
  139.2270   74.8900  220.1150 C   0  0  0  0  0  0  0  0  0  0  0  0
  139.1300   75.0520  218.8600 O   0  0  0  0  0  0  0  0  0  0  0  0
  140.0270   73.7580  220.5800 C   0  0  2  0  0  0  0  0  0  0  0  0
  139.4420   73.1650  221.7980 N   0  0  0  0  0  0  0  0  0  0  0  0
  141.4790   74.0770  220.8710 C   0  0  2  0  0  0  0  0  0  0  0  0
  141.5040   75.4990  221.3750 C   0  0  0  0  0  0  0  0  0  0  0  0
  141.8970   76.3090  220.2070 C   0  0  0  0  0  0  0  0  0  0  0  0
  141.8870   77.6740  219.9950 C   0  0  0  0  0  0  0  0  0  0  0  0
  142.3160   78.1820  218.7860 C   0  0  0  0  0  0  0  0  0  0  0  0
  142.7570   77.3500  217.7780 C   0  0  0  0  0  0  0  0  0  0  0  0
  142.7680   75.9890  217.9840 C   0  0  0  0  0  0  0  0  0  0  0  0
  142.3330   75.4730  219.2100 C   0  0  0  0  0  0  0  0  0  0  0  0
  142.2730   74.0510  219.6110 C   0  0  1  0  0  0  0  0  0  0  0  0
  143.6750   73.5740  219.7870 C   0  0  0  0  0  0  0  0  0  0  0  0
  144.4230   73.8340  220.9140 C   0  0  0  0  0  0  0  0  0  0  0  0
  145.7160   73.3610  221.0120 C   0  0  0  0  0  0  0  0  0  0  0  0
  146.3070   72.6200  220.0040 C   0  0  0  0  0  0  0  0  0  0  0  0
  145.5590   72.3760  218.9080 N   0  0  0  0  0  0  0  0  0  0  0  0
  144.2830   72.8340  218.7940 C   0  0  0  0  0  0  0  0  0  0  0  0
  138.5250   75.8500  222.3550 C   0  0  0  0  0  0  0  0  0  0  0  0
  138.3870   77.2750  222.8230 C   0  0  0  0  0  0  0  0  0  0  0  0
  137.4757   80.6948  225.8690 H   0  0  0  0  0  0  0  0  0  0  0  0
  138.7425   81.3941  224.8046 H   0  0  0  0  0  0  0  0  0  0  0  0
  137.0857   82.0882  224.8046 H   0  0  0  0  0  0  0  0  0  0  0  0
  137.3138   79.1795  224.1738 H   0  0  0  0  0  0  0  0  0  0  0  0
  136.2509   80.4507  223.4656 H   0  0  0  0  0  0  0  0  0  0  0  0
  139.8965   81.8815  223.6051 H   0  0  0  0  0  0  0  0  0  0  0  0
  142.1488   82.6245  224.3320 H   0  0  0  0  0  0  0  0  0  0  0  0
  144.1165   81.1187  224.0247 H   0  0  0  0  0  0  0  0  0  0  0  0
  143.8027   78.8895  222.9996 H   0  0  0  0  0  0  0  0  0  0  0  0
  141.5519   78.1287  222.2706 H   0  0  0  0  0  0  0  0  0  0  0  0
  140.1468   77.7595  221.7045 H   0  0  0  0  0  0  0  0  0  0  0  0
  137.6880   79.0204  220.5280 H   0  0  0  0  0  0  0  0  0  0  0  0
  139.1986   78.4605  219.7388 H   0  0  0  0  0  0  0  0  0  0  0  0
  136.7657   76.8967  220.5913 H   0  0  0  0  0  0  0  0  0  0  0  0
  137.8148   76.6974  219.1473 H   0  0  0  0  0  0  0  0  0  0  0  0
  140.0090   73.0539  219.7351 H   0  0  0  0  0  0  0  0  0  0  0  0
  139.4390   73.8450  222.5900 H   0  0  0  0  0  0  0  0  0  0  0  0
  140.0050   72.3560  222.1170 H   0  0  0  0  0  0  0  0  0  0  0  0
  141.8943   73.3515  221.5860 H   0  0  0  0  0  0  0  0  0  0  0  0
  140.5094   75.7988  221.7369 H   0  0  0  0  0  0  0  0  0  0  0  0
  142.1972   75.6268  222.2195 H   0  0  0  0  0  0  0  0  0  0  0  0
  141.5384   78.3533  220.7869 H   0  0  0  0  0  0  0  0  0  0  0  0
  142.3062   79.2698  218.6231 H   0  0  0  0  0  0  0  0  0  0  0  0
  143.0964   77.7697  216.8195 H   0  0  0  0  0  0  0  0  0  0  0  0
  143.1163   75.3116  217.1904 H   0  0  0  0  0  0  0  0  0  0  0  0
  141.8067   73.3642  218.8893 H   0  0  0  0  0  0  0  0  0  0  0  0
  143.9890   74.4198  221.7377 H   0  0  0  0  0  0  0  0  0  0  0  0
  146.2954   73.5803  221.9210 H   0  0  0  0  0  0  0  0  0  0  0  0
  147.3382   72.2474  220.0921 H   0  0  0  0  0  0  0  0  0  0  0  0
  143.7167   72.6065  217.8788 H   0  0  0  0  0  0  0  0  0  0  0  0
  137.6728   75.2574  222.7191 H   0  0  0  0  0  0  0  0  0  0  0  0
  139.4572   75.4171  222.7469 H   0  0  0  0  0  0  0  0  0  0  0  0
  137.3243   77.5590  222.8324 H   0  0  0  0  0  0  0  0  0  0  0  0
  138.7956   77.3741  223.8395 H   0  0  0  0  0  0  0  0  0  0  0  0
  1  2  1  0
  2  3  1  0
  3  4  2  0
  3  5  1  0
  5  6  1  0
  6  7  2  0
  7  8  1  0
  8  9  2  0
  9 10  1  0
 10 11  2  0
  5 12  1  0
 12 13  1  0
 13 14  1  0
 14 15  1  0
 15 16  1  0
 16 17  2  0
 16 18  1  0
 18 19  1  0
 18 20  1  0
 20 21  1  0
 21 22  1  0
 22 23  2  0
 23 24  1  0
 24 25  2  0
 25 26  1  0
 26 27  2  0
 27 28  1  0
 28 29  1  0
 29 30  2  0
 30 31  1  0
 31 32  2  0
 32 33  1  0
 33 34  2  0
 15 35  1  0
 35 36  1  0
 11  6  1  0
 36 12  1  0
 28 20  1  0
 34 29  1  0
 27 22  1  0
  1 37  1  0
  1 38  1  0
  1 39  1  0
  2 40  1  0
  2 41  1  0
  7 42  1  0
  8 43  1  0
  9 44  1  0
 10 45  1  0
 11 46  1  0
 12 47  1  0
 13 48  1  0
 13 49  1  0
 14 50  1  0
 14 51  1  0
 18 52  1  6
 19 53  1  0
 19 54  1  0
 20 55  1  1
 21 56  1  0
 21 57  1  0
 23 58  1  0
 24 59  1  0
 25 60  1  0
 26 61  1  0
 28 62  1  6
 30 63  1  0
 31 64  1  0
 32 65  1  0
 34 66  1  0
 35 67  1  0
 35 68  1  0
 36 69  1  0
 36 70  1  0
M  END
>  <smiles>  (149) 
CCC(=O)N(c1ccccc1)C1CCN(C(=O)[C@H](N)C2Cc3ccccc3C2c2cccnc2)CC1

>  <score_type>  (149) 
oracle

>  <origin>  (149) 
autodockgpu

>  <m_score__min__energy>  (149) 
-9.0999999999999996

>  <m_primary>  (149) 
energy

>  <rmsd>  (149) 
5.641350409043388

>  <m_score__min__rmsd>  (149) 
5.641350409043388

>  <meeko>  (149) 
{"free_energy": -8.01, "intermolecular_energy": -10.4, "internal_energy": -3.18, "cluster_size": 28, "cluster_id": 5, "rank_in_cluster": 8}

>  <energy>  (149) 
-7.47

>  <cluster_rmsd>  (149) 
1.1

>  <cluster>  (149) 
5

$$$$

     RDKit          3D

 70 74  0  0  0  0  0  0  0  0999 V2000
  138.4160   67.3260  222.6000 C   0  0  0  0  0  0  0  0  0  0  0  0
  137.1740   68.1550  222.7930 C   0  0  0  0  0  0  0  0  0  0  0  0
  137.2890   68.9730  224.0290 C   0  0  0  0  0  0  0  0  0  0  0  0
  136.3170   68.8970  224.8380 O   0  0  0  0  0  0  0  0  0  0  0  0
  138.4320   69.7980  224.2870 N   0  0  0  0  0  0  0  0  0  0  0  0
  139.2200   69.4700  225.4240 C   0  0  0  0  0  0  0  0  0  0  0  0
  139.2780   68.2030  225.9670 C   0  0  0  0  0  0  0  0  0  0  0  0
  140.0710   67.9510  227.0730 C   0  0  0  0  0  0  0  0  0  0  0  0
  140.8130   68.9780  227.6440 C   0  0  0  0  0  0  0  0  0  0  0  0
  140.7510   70.2430  227.0970 C   0  0  0  0  0  0  0  0  0  0  0  0
  139.9610   70.5100  225.9890 C   0  0  0  0  0  0  0  0  0  0  0  0
  138.7290   70.9000  223.4080 C   0  0  0  0  0  0  0  0  0  0  0  0
  137.4930   71.7100  223.0360 C   0  0  0  0  0  0  0  0  0  0  0  0
  137.7560   72.4520  221.7290 C   0  0  0  0  0  0  0  0  0  0  0  0
  139.1830   72.7210  221.6030 N   0  0  0  0  0  0  0  0  0  0  0  0
  139.5980   74.0700  221.6420 C   0  0  0  0  0  0  0  0  0  0  0  0
  138.6770   74.9310  221.7880 O   0  0  0  0  0  0  0  0  0  0  0  0
  140.9670   74.5710  221.5360 C   0  0  2  0  0  0  0  0  0  0  0  0
  141.0670   75.9450  222.0660 N   0  0  0  0  0  0  0  0  0  0  0  0
  141.5410   74.5720  220.1350 C   0  0  2  0  0  0  0  0  0  0  0  0
  141.9910   73.1560  219.8650 C   0  0  0  0  0  0  0  0  0  0  0  0
  143.4450   73.1660  220.1120 C   0  0  0  0  0  0  0  0  0  0  0  0
  144.3600   72.1390  220.2310 C   0  0  0  0  0  0  0  0  0  0  0  0
  145.6880   72.4280  220.4670 C   0  0  0  0  0  0  0  0  0  0  0  0
  146.1240   73.7310  220.5870 C   0  0  0  0  0  0  0  0  0  0  0  0
  145.2160   74.7590  220.4700 C   0  0  0  0  0  0  0  0  0  0  0  0
  143.8690   74.4660  220.2310 C   0  0  0  0  0  0  0  0  0  0  0  0
  142.7570   75.4290  220.0780 C   0  0  1  0  0  0  0  0  0  0  0  0
  142.9470   76.1300  218.7750 C   0  0  0  0  0  0  0  0  0  0  0  0
  143.4780   75.5170  217.6620 C   0  0  0  0  0  0  0  0  0  0  0  0
  143.6250   76.2240  216.4850 C   0  0  0  0  0  0  0  0  0  0  0  0
  143.2520   77.5520  216.3730 C   0  0  0  0  0  0  0  0  0  0  0  0
  142.7340   78.1350  217.4740 N   0  0  0  0  0  0  0  0  0  0  0  0
  142.5820   77.4540  218.6420 C   0  0  0  0  0  0  0  0  0  0  0  0
  140.0520   71.5820  221.4550 C   0  0  0  0  0  0  0  0  0  0  0  0
  139.4380   70.4060  222.1690 C   0  0  0  0  0  0  0  0  0  0  0  0
  138.8290   67.0503  223.5815 H   0  0  0  0  0  0  0  0  0  0  0  0
  138.1646   66.4140  222.0387 H   0  0  0  0  0  0  0  0  0  0  0  0
  139.1618   67.9080  222.0387 H   0  0  0  0  0  0  0  0  0  0  0  0
  137.0437   68.8211  221.9274 H   0  0  0  0  0  0  0  0  0  0  0  0
  136.3064   67.4851  222.8856 H   0  0  0  0  0  0  0  0  0  0  0  0
  138.6906   67.3884  225.5183 H   0  0  0  0  0  0  0  0  0  0  0  0
  140.1139   66.9381  227.4999 H   0  0  0  0  0  0  0  0  0  0  0  0
  141.4439   68.7841  228.5240 H   0  0  0  0  0  0  0  0  0  0  0  0
  141.3395   71.0554  227.5484 H   0  0  0  0  0  0  0  0  0  0  0  0
  139.9188   71.5232  225.5627 H   0  0  0  0  0  0  0  0  0  0  0  0
  139.3943   71.5806  223.9595 H   0  0  0  0  0  0  0  0  0  0  0  0
  136.6343   71.0342  222.9094 H   0  0  0  0  0  0  0  0  0  0  0  0
  137.2705   72.4335  223.8341 H   0  0  0  0  0  0  0  0  0  0  0  0
  137.4231   71.8334  220.8825 H   0  0  0  0  0  0  0  0  0  0  0  0
  137.2018   73.4022  221.7283 H   0  0  0  0  0  0  0  0  0  0  0  0
  141.5582   73.8603  222.1321 H   0  0  0  0  0  0  0  0  0  0  0  0
  141.8900   76.0490  222.7010 H   0  0  0  0  0  0  0  0  0  0  0  0
  140.2350   76.1770  222.6370 H   0  0  0  0  0  0  0  0  0  0  0  0
  140.7943   74.9401  219.4161 H   0  0  0  0  0  0  0  0  0  0  0  0
  141.4877   72.4536  220.5457 H   0  0  0  0  0  0  0  0  0  0  0  0
  141.7470   72.8319  218.8425 H   0  0  0  0  0  0  0  0  0  0  0  0
  144.0310   71.0935  220.1379 H   0  0  0  0  0  0  0  0  0  0  0  0
  146.4118   71.6050  220.5611 H   0  0  0  0  0  0  0  0  0  0  0  0
  147.1863   73.9465  220.7743 H   0  0  0  0  0  0  0  0  0  0  0  0
  145.5473   75.8037  220.5638 H   0  0  0  0  0  0  0  0  0  0  0  0
  142.6919   76.2184  220.8412 H   0  0  0  0  0  0  0  0  0  0  0  0
  143.7857   74.4620  217.7107 H   0  0  0  0  0  0  0  0  0  0  0  0
  144.0523   75.7153  215.6083 H   0  0  0  0  0  0  0  0  0  0  0  0
  143.3722   78.1063  215.4305 H   0  0  0  0  0  0  0  0  0  0  0  0
  142.1535   77.9767  219.5099 H   0  0  0  0  0  0  0  0  0  0  0  0
  140.1719   71.3448  220.3876 H   0  0  0  0  0  0  0  0  0  0  0  0
  141.0389   71.8067  221.8858 H   0  0  0  0  0  0  0  0  0  0  0  0
  138.7166   69.9069  221.5053 H   0  0  0  0  0  0  0  0  0  0  0  0
  140.2240   69.6898  222.4506 H   0  0  0  0  0  0  0  0  0  0  0  0
  1  2  1  0
  2  3  1  0
  3  4  2  0
  3  5  1  0
  5  6  1  0
  6  7  2  0
  7  8  1  0
  8  9  2  0
  9 10  1  0
 10 11  2  0
  5 12  1  0
 12 13  1  0
 13 14  1  0
 14 15  1  0
 15 16  1  0
 16 17  2  0
 16 18  1  0
 18 19  1  0
 18 20  1  0
 20 21  1  0
 21 22  1  0
 22 23  2  0
 23 24  1  0
 24 25  2  0
 25 26  1  0
 26 27  2  0
 27 28  1  0
 28 29  1  0
 29 30  2  0
 30 31  1  0
 31 32  2  0
 32 33  1  0
 33 34  2  0
 15 35  1  0
 35 36  1  0
 11  6  1  0
 36 12  1  0
 28 20  1  0
 34 29  1  0
 27 22  1  0
  1 37  1  0
  1 38  1  0
  1 39  1  0
  2 40  1  0
  2 41  1  0
  7 42  1  0
  8 43  1  0
  9 44  1  0
 10 45  1  0
 11 46  1  0
 12 47  1  0
 13 48  1  0
 13 49  1  0
 14 50  1  0
 14 51  1  0
 18 52  1  1
 19 53  1  0
 19 54  1  0
 20 55  1  6
 21 56  1  0
 21 57  1  0
 23 58  1  0
 24 59  1  0
 25 60  1  0
 26 61  1  0
 28 62  1  1
 30 63  1  0
 31 64  1  0
 32 65  1  0
 34 66  1  0
 35 67  1  0
 35 68  1  0
 36 69  1  0
 36 70  1  0
M  END
>  <smiles>  (150) 
CCC(=O)N(c1ccccc1)C1CCN(C(=O)[C@H](N)C2Cc3ccccc3C2c2cccnc2)CC1

>  <score_type>  (150) 
oracle

>  <origin>  (150) 
autodockgpu

>  <m_score__min__energy>  (150) 
-9.0999999999999996

>  <m_primary>  (150) 
energy

>  <rmsd>  (150) 
8.129979349829371

>  <m_score__min__rmsd>  (150) 
8.129979349829371

>  <meeko>  (150) 
{"free_energy": -8.66, "intermolecular_energy": -11.05, "internal_energy": -2.81, "cluster_size": 12, "cluster_id": 1, "rank_in_cluster": 7}

>  <energy>  (150) 
-7.45

>  <cluster_rmsd>  (150) 
0.0

>  <cluster>  (150) 
6

$$$$

     RDKit          3D

 70 74  0  0  0  0  0  0  0  0999 V2000
  136.1530   69.6320  224.9030 C   0  0  0  0  0  0  0  0  0  0  0  0
  136.8430   69.2140  223.6510 C   0  0  0  0  0  0  0  0  0  0  0  0
  138.2880   68.9110  223.8130 C   0  0  0  0  0  0  0  0  0  0  0  0
  138.6720   67.7930  223.3630 O   0  0  0  0  0  0  0  0  0  0  0  0
  139.1360   69.8460  224.4390 N   0  0  0  0  0  0  0  0  0  0  0  0
  139.6500   69.7040  225.7580 C   0  0  0  0  0  0  0  0  0  0  0  0
  139.6260   68.4960  226.4500 C   0  0  0  0  0  0  0  0  0  0  0  0
  140.1610   68.5000  227.7280 C   0  0  0  0  0  0  0  0  0  0  0  0
  140.6980   69.6350  228.3120 C   0  0  0  0  0  0  0  0  0  0  0  0
  140.7070   70.8100  227.6060 C   0  0  0  0  0  0  0  0  0  0  0  0
  140.1880   70.8570  226.3290 C   0  0  0  0  0  0  0  0  0  0  0  0
  139.5440   71.0330  223.7070 C   0  0  0  0  0  0  0  0  0  0  0  0
  138.3950   71.8810  223.2410 C   0  0  0  0  0  0  0  0  0  0  0  0
  138.4760   72.2620  221.7750 C   0  0  0  0  0  0  0  0  0  0  0  0
  139.8480   72.7720  221.5910 N   0  0  0  0  0  0  0  0  0  0  0  0
  139.9770   74.1370  221.3120 C   0  0  0  0  0  0  0  0  0  0  0  0
  138.8780   74.7960  221.2200 O   0  0  0  0  0  0  0  0  0  0  0  0
  141.2230   74.9050  221.1120 C   0  0  2  0  0  0  0  0  0  0  0  0
  141.1300   76.0970  221.9650 N   0  0  0  0  0  0  0  0  0  0  0  0
  141.4620   75.2380  219.6730 C   0  0  1  0  0  0  0  0  0  0  0  0
  142.8720   75.9080  219.6680 C   0  0  0  0  0  0  0  0  0  0  0  0
  143.6920   74.6830  220.0140 C   0  0  0  0  0  0  0  0  0  0  0  0
  144.8780   74.5480  220.7150 C   0  0  0  0  0  0  0  0  0  0  0  0
  145.4750   73.3210  220.9580 C   0  0  0  0  0  0  0  0  0  0  0  0
  144.7990   72.2160  220.4430 C   0  0  0  0  0  0  0  0  0  0  0  0
  143.6180   72.3500  219.7440 C   0  0  0  0  0  0  0  0  0  0  0  0
  143.0260   73.5580  219.5010 C   0  0  0  0  0  0  0  0  0  0  0  0
  141.8300   74.0740  218.7920 C   0  0  1  0  0  0  0  0  0  0  0  0
  140.8110   73.1300  218.4380 C   0  0  0  0  0  0  0  0  0  0  0  0
  139.5890   73.6360  217.9460 C   0  0  0  0  0  0  0  0  0  0  0  0
  138.5490   72.8050  217.6020 C   0  0  0  0  0  0  0  0  0  0  0  0
  138.6530   71.4370  217.7210 C   0  0  0  0  0  0  0  0  0  0  0  0
  139.8190   70.9580  218.1910 N   0  0  0  0  0  0  0  0  0  0  0  0
  140.8510   71.7560  218.5330 C   0  0  0  0  0  0  0  0  0  0  0  0
  140.9000   71.7990  221.7170 C   0  0  0  0  0  0  0  0  0  0  0  0
  140.3110   70.5880  222.4550 C   0  0  0  0  0  0  0  0  0  0  0  0
  136.7288   69.2832  225.7730 H   0  0  0  0  0  0  0  0  0  0  0  0
  136.0757   70.7289  224.9304 H   0  0  0  0  0  0  0  0  0  0  0  0
  135.1450   69.1926  224.9304 H   0  0  0  0  0  0  0  0  0  0  0  0
  136.3438   68.3112  223.2692 H   0  0  0  0  0  0  0  0  0  0  0  0
  136.7790   70.0674  222.9599 H   0  0  0  0  0  0  0  0  0  0  0  0
  139.2032   67.5836  226.0041 H   0  0  0  0  0  0  0  0  0  0  0  0
  140.1591   67.5622  228.3029 H   0  0  0  0  0  0  0  0  0  0  0  0
  141.1123   69.5942  229.3302 H   0  0  0  0  0  0  0  0  0  0  0  0
  141.1297   71.7186  228.0596 H   0  0  0  0  0  0  0  0  0  0  0  0
  140.1984   71.8002  225.7631 H   0  0  0  0  0  0  0  0  0  0  0  0
  140.1506   71.6359  224.3988 H   0  0  0  0  0  0  0  0  0  0  0  0
  137.4618   71.3218  223.4038 H   0  0  0  0  0  0  0  0  0  0  0  0
  138.4292   72.8161  223.8194 H   0  0  0  0  0  0  0  0  0  0  0  0
  138.3007   71.3836  221.1365 H   0  0  0  0  0  0  0  0  0  0  0  0
  137.7162   73.0078  221.4982 H   0  0  0  0  0  0  0  0  0  0  0  0
  142.0976   74.3029  221.3995 H   0  0  0  0  0  0  0  0  0  0  0  0
  140.1630   76.1910  222.3900 H   0  0  0  0  0  0  0  0  0  0  0  0
  141.8480   76.0980  222.7290 H   0  0  0  0  0  0  0  0  0  0  0  0
  140.5553   75.7580  219.3303 H   0  0  0  0  0  0  0  0  0  0  0  0
  143.1339   76.3192  218.6819 H   0  0  0  0  0  0  0  0  0  0  0  0
  142.9959   76.7744  220.3343 H   0  0  0  0  0  0  0  0  0  0  0  0
  145.3688   75.4555  221.0964 H   0  0  0  0  0  0  0  0  0  0  0  0
  146.4168   73.2258  221.5183 H   0  0  0  0  0  0  0  0  0  0  0  0
  145.2186   71.2111  220.5983 H   0  0  0  0  0  0  0  0  0  0  0  0
  143.1287   71.4412  219.3636 H   0  0  0  0  0  0  0  0  0  0  0  0
  142.0199   74.3717  217.7502 H   0  0  0  0  0  0  0  0  0  0  0  0
  139.4653   74.7234  217.8348 H   0  0  0  0  0  0  0  0  0  0  0  0
  137.6134   73.2425  217.2235 H   0  0  0  0  0  0  0  0  0  0  0  0
  137.8237   70.7689  217.4454 H   0  0  0  0  0  0  0  0  0  0  0  0
  141.7723   71.2856  218.9071 H   0  0  0  0  0  0  0  0  0  0  0  0
  141.2556   71.4971  220.7208 H   0  0  0  0  0  0  0  0  0  0  0  0
  141.7543   72.2163  222.2702 H   0  0  0  0  0  0  0  0  0  0  0  0
  139.6238   70.0546  221.7817 H   0  0  0  0  0  0  0  0  0  0  0  0
  141.1352   69.9276  222.7626 H   0  0  0  0  0  0  0  0  0  0  0  0
  1  2  1  0
  2  3  1  0
  3  4  2  0
  3  5  1  0
  5  6  1  0
  6  7  2  0
  7  8  1  0
  8  9  2  0
  9 10  1  0
 10 11  2  0
  5 12  1  0
 12 13  1  0
 13 14  1  0
 14 15  1  0
 15 16  1  0
 16 17  2  0
 16 18  1  0
 18 19  1  0
 18 20  1  0
 20 21  1  0
 21 22  1  0
 22 23  2  0
 23 24  1  0
 24 25  2  0
 25 26  1  0
 26 27  2  0
 27 28  1  0
 28 29  1  0
 29 30  2  0
 30 31  1  0
 31 32  2  0
 32 33  1  0
 33 34  2  0
 15 35  1  0
 35 36  1  0
 11  6  1  0
 36 12  1  0
 28 20  1  0
 34 29  1  0
 27 22  1  0
  1 37  1  0
  1 38  1  0
  1 39  1  0
  2 40  1  0
  2 41  1  0
  7 42  1  0
  8 43  1  0
  9 44  1  0
 10 45  1  0
 11 46  1  0
 12 47  1  0
 13 48  1  0
 13 49  1  0
 14 50  1  0
 14 51  1  0
 18 52  1  1
 19 53  1  0
 19 54  1  0
 20 55  1  6
 21 56  1  0
 21 57  1  0
 23 58  1  0
 24 59  1  0
 25 60  1  0
 26 61  1  0
 28 62  1  6
 30 63  1  0
 31 64  1  0
 32 65  1  0
 34 66  1  0
 35 67  1  0
 35 68  1  0
 36 69  1  0
 36 70  1  0
M  END
>  <smiles>  (151) 
CCC(=O)N(c1ccccc1)C1CCN(C(=O)[C@H](N)C2Cc3ccccc3C2c2cccnc2)CC1

>  <score_type>  (151) 
oracle

>  <origin>  (151) 
autodockgpu

>  <m_score__min__energy>  (151) 
-8.5700000000000003

>  <m_primary>  (151) 
energy

>  <rmsd>  (151) 
7.286939711183838

>  <m_score__min__rmsd>  (151) 
7.286939711183838

>  <meeko>  (151) 
{"free_energy": -7.07, "intermolecular_energy": -9.46, "internal_energy": -3.6, "cluster_size": 37, "cluster_id": 2, "rank_in_cluster": 20}

>  <energy>  (151) 
-8.57

>  <cluster_rmsd>  (151) 
0.0

>  <cluster>  (151) 
1

$$$$

     RDKit          3D

 70 74  0  0  0  0  0  0  0  0999 V2000
  136.2040   69.2270  224.2370 C   0  0  0  0  0  0  0  0  0  0  0  0
  137.1310   68.7190  223.1870 C   0  0  0  0  0  0  0  0  0  0  0  0
  138.4750   68.3310  223.6850 C   0  0  0  0  0  0  0  0  0  0  0  0
  138.8330   67.1420  223.4430 O   0  0  0  0  0  0  0  0  0  0  0  0
  139.2650   69.2690  224.3790 N   0  0  0  0  0  0  0  0  0  0  0  0
  139.7680   69.0740  225.6960 C   0  0  0  0  0  0  0  0  0  0  0  0
  140.0710   67.8150  226.2070 C   0  0  0  0  0  0  0  0  0  0  0  0
  140.5540   67.7710  227.5060 C   0  0  0  0  0  0  0  0  0  0  0  0
  140.7330   68.9060  228.2770 C   0  0  0  0  0  0  0  0  0  0  0  0
  140.4240   70.1310  227.7460 C   0  0  0  0  0  0  0  0  0  0  0  0
  139.9420   70.2290  226.4580 C   0  0  0  0  0  0  0  0  0  0  0  0
  139.6190   70.5180  223.7260 C   0  0  0  0  0  0  0  0  0  0  0  0
  138.4930   71.5090  223.6630 C   0  0  0  0  0  0  0  0  0  0  0  0
  138.2770   72.0960  222.2800 C   0  0  0  0  0  0  0  0  0  0  0  0
  139.6170   72.5240  221.8370 N   0  0  0  0  0  0  0  0  0  0  0  0
  139.8240   73.9010  221.7100 C   0  0  0  0  0  0  0  0  0  0  0  0
  138.8100   74.6460  221.9710 O   0  0  0  0  0  0  0  0  0  0  0  0
  141.0670   74.5960  221.3150 C   0  0  2  0  0  0  0  0  0  0  0  0
  141.1810   75.7840  222.1710 N   0  0  0  0  0  0  0  0  0  0  0  0
  141.0950   74.9270  219.8560 C   0  0  1  0  0  0  0  0  0  0  0  0
  142.4250   75.7230  219.6730 C   0  0  0  0  0  0  0  0  0  0  0  0
  143.3920   74.5830  219.9190 C   0  0  0  0  0  0  0  0  0  0  0  0
  144.6620   74.5690  220.4680 C   0  0  0  0  0  0  0  0  0  0  0  0
  145.3960   73.4050  220.6400 C   0  0  0  0  0  0  0  0  0  0  0  0
  144.7660   72.2350  220.2180 C   0  0  0  0  0  0  0  0  0  0  0  0
  143.5010   72.2490  219.6700 C   0  0  0  0  0  0  0  0  0  0  0  0
  142.7740   73.3950  219.4980 C   0  0  0  0  0  0  0  0  0  0  0  0
  141.4570   73.7880  218.9400 C   0  0  1  0  0  0  0  0  0  0  0  0
  140.4940   72.7490  218.7200 C   0  0  0  0  0  0  0  0  0  0  0  0
  140.9730   71.4790  218.3360 C   0  0  0  0  0  0  0  0  0  0  0  0
  140.1200   70.4310  218.0830 C   0  0  0  0  0  0  0  0  0  0  0  0
  138.7550   70.5730  218.1950 C   0  0  0  0  0  0  0  0  0  0  0  0
  138.3010   71.7850  218.5600 N   0  0  0  0  0  0  0  0  0  0  0  0
  139.1210   72.8260  218.8130 C   0  0  0  0  0  0  0  0  0  0  0  0
  140.5600   71.4680  221.5820 C   0  0  0  0  0  0  0  0  0  0  0  0
  140.0280   70.2070  222.2810 C   0  0  0  0  0  0  0  0  0  0  0  0
  136.6168   69.0008  225.2312 H   0  0  0  0  0  0  0  0  0  0  0  0
  136.0870   70.3153  224.1275 H   0  0  0  0  0  0  0  0  0  0  0  0
  135.2238   68.7400  224.1275 H   0  0  0  0  0  0  0  0  0  0  0  0
  136.6700   67.8362  222.7201 H   0  0  0  0  0  0  0  0  0  0  0  0
  137.2872   69.5480  222.4810 H   0  0  0  0  0  0  0  0  0  0  0  0
  139.9341   66.9011  225.6103 H   0  0  0  0  0  0  0  0  0  0  0  0
  140.8054   66.7928  227.9419 H   0  0  0  0  0  0  0  0  0  0  0  0
  141.1188   68.8259  229.3040 H   0  0  0  0  0  0  0  0  0  0  0  0
  140.5611   71.0400  228.3500 H   0  0  0  0  0  0  0  0  0  0  0  0
  139.6959   71.2135  226.0334 H   0  0  0  0  0  0  0  0  0  0  0  0
  140.4283   70.9658  224.3214 H   0  0  0  0  0  0  0  0  0  0  0  0
  137.5671   71.0036  223.9748 H   0  0  0  0  0  0  0  0  0  0  0  0
  138.7593   72.3427  224.3294 H   0  0  0  0  0  0  0  0  0  0  0  0
  137.8674   71.3372  221.5970 H   0  0  0  0  0  0  0  0  0  0  0  0
  137.5584   72.9287  222.2908 H   0  0  0  0  0  0  0  0  0  0  0  0
  141.9385   73.9409  221.4612 H   0  0  0  0  0  0  0  0  0  0  0  0
  141.8360   76.5020  221.7470 H   0  0  0  0  0  0  0  0  0  0  0  0
  140.2510   76.2290  222.3620 H   0  0  0  0  0  0  0  0  0  0  0  0
  140.1086   75.3565  219.6268 H   0  0  0  0  0  0  0  0  0  0  0  0
  142.5237   76.1413  218.6605 H   0  0  0  0  0  0  0  0  0  0  0  0
  142.5494   76.6072  220.3154 H   0  0  0  0  0  0  0  0  0  0  0  0
  145.1094   75.5236  220.7820 H   0  0  0  0  0  0  0  0  0  0  0  0
  146.4047   73.4048  221.0787 H   0  0  0  0  0  0  0  0  0  0  0  0
  145.2923   71.2751  220.3252 H   0  0  0  0  0  0  0  0  0  0  0  0
  143.0552   71.2936  219.3562 H   0  0  0  0  0  0  0  0  0  0  0  0
  141.4879   74.0852  217.8814 H   0  0  0  0  0  0  0  0  0  0  0  0
  142.0573   71.3231  218.2364 H   0  0  0  0  0  0  0  0  0  0  0  0
  140.5370   69.4578  217.7846 H   0  0  0  0  0  0  0  0  0  0  0  0
  138.0696   69.7361  217.9957 H   0  0  0  0  0  0  0  0  0  0  0  0
  138.6709   73.7852  219.1086 H   0  0  0  0  0  0  0  0  0  0  0  0
  140.6451   71.2917  220.4996 H   0  0  0  0  0  0  0  0  0  0  0  0
  141.5574   71.7343  221.9618 H   0  0  0  0  0  0  0  0  0  0  0  0
  139.1524   69.8318  221.7310 H   0  0  0  0  0  0  0  0  0  0  0  0
  140.8246   69.4485  222.2951 H   0  0  0  0  0  0  0  0  0  0  0  0
  1  2  1  0
  2  3  1  0
  3  4  2  0
  3  5  1  0
  5  6  1  0
  6  7  2  0
  7  8  1  0
  8  9  2  0
  9 10  1  0
 10 11  2  0
  5 12  1  0
 12 13  1  0
 13 14  1  0
 14 15  1  0
 15 16  1  0
 16 17  2  0
 16 18  1  0
 18 19  1  0
 18 20  1  0
 20 21  1  0
 21 22  1  0
 22 23  2  0
 23 24  1  0
 24 25  2  0
 25 26  1  0
 26 27  2  0
 27 28  1  0
 28 29  1  0
 29 30  2  0
 30 31  1  0
 31 32  2  0
 32 33  1  0
 33 34  2  0
 15 35  1  0
 35 36  1  0
 11  6  1  0
 36 12  1  0
 28 20  1  0
 34 29  1  0
 27 22  1  0
  1 37  1  0
  1 38  1  0
  1 39  1  0
  2 40  1  0
  2 41  1  0
  7 42  1  0
  8 43  1  0
  9 44  1  0
 10 45  1  0
 11 46  1  0
 12 47  1  0
 13 48  1  0
 13 49  1  0
 14 50  1  0
 14 51  1  0
 18 52  1  6
 19 53  1  0
 19 54  1  0
 20 55  1  6
 21 56  1  0
 21 57  1  0
 23 58  1  0
 24 59  1  0
 25 60  1  0
 26 61  1  0
 28 62  1  6
 30 63  1  0
 31 64  1  0
 32 65  1  0
 34 66  1  0
 35 67  1  0
 35 68  1  0
 36 69  1  0
 36 70  1  0
M  END
>  <smiles>  (152) 
CCC(=O)N(c1ccccc1)C1CCN(C(=O)[C@H](N)C2Cc3ccccc3C2c2cccnc2)CC1

>  <score_type>  (152) 
oracle

>  <origin>  (152) 
autodockgpu

>  <m_score__min__energy>  (152) 
-8.5700000000000003

>  <m_primary>  (152) 
energy

>  <rmsd>  (152) 
7.425620143388621

>  <m_score__min__rmsd>  (152) 
7.425620143388621

>  <meeko>  (152) 
{"free_energy": -7.27, "intermolecular_energy": -9.65, "internal_energy": -3.39, "cluster_size": 37, "cluster_id": 2, "rank_in_cluster": 1}

>  <energy>  (152) 
-8.38

>  <cluster_rmsd>  (152) 
0.34

>  <cluster>  (152) 
1

$$$$

     RDKit          3D

 70 74  0  0  0  0  0  0  0  0999 V2000
  138.7980   67.1600  222.4260 C   0  0  0  0  0  0  0  0  0  0  0  0
  137.7990   68.2640  222.3810 C   0  0  0  0  0  0  0  0  0  0  0  0
  137.6620   69.0250  223.6490 C   0  0  0  0  0  0  0  0  0  0  0  0
  136.5140   69.0140  224.1800 O   0  0  0  0  0  0  0  0  0  0  0  0
  138.7750   69.7030  224.1860 N   0  0  0  0  0  0  0  0  0  0  0  0
  139.4800   69.2880  225.3500 C   0  0  0  0  0  0  0  0  0  0  0  0
  140.2220   70.1670  226.1350 C   0  0  0  0  0  0  0  0  0  0  0  0
  140.8580   69.6280  227.2410 C   0  0  0  0  0  0  0  0  0  0  0  0
  140.7780   68.2860  227.5710 C   0  0  0  0  0  0  0  0  0  0  0  0
  140.0410   67.4450  226.7790 C   0  0  0  0  0  0  0  0  0  0  0  0
  139.3870   67.9330  225.6680 C   0  0  0  0  0  0  0  0  0  0  0  0
  139.2690   70.8950  223.5170 C   0  0  0  0  0  0  0  0  0  0  0  0
  138.1870   71.8610  223.1260 C   0  0  0  0  0  0  0  0  0  0  0  0
  138.2770   72.3230  221.6830 C   0  0  0  0  0  0  0  0  0  0  0  0
  139.6840   72.7290  221.5030 N   0  0  0  0  0  0  0  0  0  0  0  0
  139.9210   74.0930  221.3030 C   0  0  0  0  0  0  0  0  0  0  0  0
  138.8790   74.8440  221.2730 O   0  0  0  0  0  0  0  0  0  0  0  0
  141.2230   74.7680  221.1240 C   0  0  2  0  0  0  0  0  0  0  0  0
  141.2280   75.9280  222.0240 N   0  0  0  0  0  0  0  0  0  0  0  0
  141.4820   75.1380  219.6980 C   0  0  1  0  0  0  0  0  0  0  0  0
  142.8730   75.8450  219.7360 C   0  0  0  0  0  0  0  0  0  0  0  0
  143.7190   74.6340  220.0720 C   0  0  0  0  0  0  0  0  0  0  0  0
  144.8940   74.5160  220.7950 C   0  0  0  0  0  0  0  0  0  0  0  0
  145.5180   73.3000  221.0240 C   0  0  0  0  0  0  0  0  0  0  0  0
  144.8820   72.1890  220.4730 C   0  0  0  0  0  0  0  0  0  0  0  0
  143.7120   72.3060  219.7520 C   0  0  0  0  0  0  0  0  0  0  0  0
  143.0930   73.5040  219.5230 C   0  0  0  0  0  0  0  0  0  0  0  0
  141.8990   74.0030  218.8000 C   0  0  1  0  0  0  0  0  0  0  0  0
  140.9120   73.0400  218.4050 C   0  0  0  0  0  0  0  0  0  0  0  0
  139.6100   73.5080  218.1290 C   0  0  0  0  0  0  0  0  0  0  0  0
  138.5970   72.6530  217.7650 C   0  0  0  0  0  0  0  0  0  0  0  0
  138.8070   71.2970  217.6510 C   0  0  0  0  0  0  0  0  0  0  0  0
  140.0490   70.8540  217.9160 N   0  0  0  0  0  0  0  0  0  0  0  0
  141.0570   71.6750  218.2750 C   0  0  0  0  0  0  0  0  0  0  0  0
  140.6530   71.6680  221.5500 C   0  0  0  0  0  0  0  0  0  0  0  0
  139.9780   70.4650  222.2270 C   0  0  0  0  0  0  0  0  0  0  0  0
  139.0229   66.9115  223.4737 H   0  0  0  0  0  0  0  0  0  0  0  0
  138.3885   66.2740  221.9188 H   0  0  0  0  0  0  0  0  0  0  0  0
  139.7204   67.4793  221.9188 H   0  0  0  0  0  0  0  0  0  0  0  0
  138.0993   68.9666  221.5897 H   0  0  0  0  0  0  0  0  0  0  0  0
  136.8226   67.7938  222.1922 H   0  0  0  0  0  0  0  0  0  0  0  0
  140.2991   71.2363  225.8888 H   0  0  0  0  0  0  0  0  0  0  0  0
  141.4516   70.2943  227.8842 H   0  0  0  0  0  0  0  0  0  0  0  0
  141.3000   67.8992  228.4587 H   0  0  0  0  0  0  0  0  0  0  0  0
  139.9710   66.3765  227.0307 H   0  0  0  0  0  0  0  0  0  0  0  0
  138.7941   67.2566  225.0347 H   0  0  0  0  0  0  0  0  0  0  0  0
  139.9340   71.4039  224.2303 H   0  0  0  0  0  0  0  0  0  0  0  0
  137.2133   71.3711  223.2742 H   0  0  0  0  0  0  0  0  0  0  0  0
  138.3072   72.7530  223.7583 H   0  0  0  0  0  0  0  0  0  0  0  0
  138.0199   71.5025  220.9969 H   0  0  0  0  0  0  0  0  0  0  0  0
  137.5775   73.1437  221.4659 H   0  0  0  0  0  0  0  0  0  0  0  0
  142.0485   74.0879  221.3808 H   0  0  0  0  0  0  0  0  0  0  0  0
  141.8810   76.6850  221.6710 H   0  0  0  0  0  0  0  0  0  0  0  0
  140.2690   76.3300  222.1620 H   0  0  0  0  0  0  0  0  0  0  0  0
  140.5686   75.6411  219.3478 H   0  0  0  0  0  0  0  0  0  0  0  0
  143.1430   76.2848  218.7646 H   0  0  0  0  0  0  0  0  0  0  0  0
  142.9605   76.6994  220.4232 H   0  0  0  0  0  0  0  0  0  0  0  0
  145.3524   75.4277  221.2057 H   0  0  0  0  0  0  0  0  0  0  0  0
  146.4510   73.2174  221.6009 H   0  0  0  0  0  0  0  0  0  0  0  0
  145.3249   71.1924  220.6170 H   0  0  0  0  0  0  0  0  0  0  0  0
  143.2554   71.3931  219.3420 H   0  0  0  0  0  0  0  0  0  0  0  0
  142.1024   74.3274  217.7688 H   0  0  0  0  0  0  0  0  0  0  0  0
  139.4000   74.5849  218.2071 H   0  0  0  0  0  0  0  0  0  0  0  0
  137.5963   73.0612  217.5602 H   0  0  0  0  0  0  0  0  0  0  0  0
  137.9993   70.6102  217.3578 H   0  0  0  0  0  0  0  0  0  0  0  0
  142.0446   71.2334  218.4741 H   0  0  0  0  0  0  0  0  0  0  0  0
  140.9672   71.3993  220.5307 H   0  0  0  0  0  0  0  0  0  0  0  0
  141.5467   71.9802  222.1102 H   0  0  0  0  0  0  0  0  0  0  0  0
  139.2397   70.0301  221.5372 H   0  0  0  0  0  0  0  0  0  0  0  0
  140.7496   69.7226  222.4787 H   0  0  0  0  0  0  0  0  0  0  0  0
  1  2  1  0
  2  3  1  0
  3  4  2  0
  3  5  1  0
  5  6  1  0
  6  7  2  0
  7  8  1  0
  8  9  2  0
  9 10  1  0
 10 11  2  0
  5 12  1  0
 12 13  1  0
 13 14  1  0
 14 15  1  0
 15 16  1  0
 16 17  2  0
 16 18  1  0
 18 19  1  0
 18 20  1  0
 20 21  1  0
 21 22  1  0
 22 23  2  0
 23 24  1  0
 24 25  2  0
 25 26  1  0
 26 27  2  0
 27 28  1  0
 28 29  1  0
 29 30  2  0
 30 31  1  0
 31 32  2  0
 32 33  1  0
 33 34  2  0
 15 35  1  0
 35 36  1  0
 11  6  1  0
 36 12  1  0
 28 20  1  0
 34 29  1  0
 27 22  1  0
  1 37  1  0
  1 38  1  0
  1 39  1  0
  2 40  1  0
  2 41  1  0
  7 42  1  0
  8 43  1  0
  9 44  1  0
 10 45  1  0
 11 46  1  0
 12 47  1  0
 13 48  1  0
 13 49  1  0
 14 50  1  0
 14 51  1  0
 18 52  1  1
 19 53  1  0
 19 54  1  0
 20 55  1  6
 21 56  1  0
 21 57  1  0
 23 58  1  0
 24 59  1  0
 25 60  1  0
 26 61  1  0
 28 62  1  6
 30 63  1  0
 31 64  1  0
 32 65  1  0
 34 66  1  0
 35 67  1  0
 35 68  1  0
 36 69  1  0
 36 70  1  0
M  END
>  <smiles>  (153) 
CCC(=O)N(c1ccccc1)C1CCN(C(=O)[C@H](N)C2Cc3ccccc3C2c2cccnc2)CC1

>  <score_type>  (153) 
oracle

>  <origin>  (153) 
autodockgpu

>  <m_score__min__energy>  (153) 
-8.5700000000000003

>  <m_primary>  (153) 
energy

>  <rmsd>  (153) 
7.305790787191821

>  <m_score__min__rmsd>  (153) 
7.305790787191821

>  <meeko>  (153) 
{"free_energy": -7.06, "intermolecular_energy": -9.45, "internal_energy": -3.6, "cluster_size": 37, "cluster_id": 2, "rank_in_cluster": 23}

>  <energy>  (153) 
-8.37

>  <cluster_rmsd>  (153) 
0.25

>  <cluster>  (153) 
1

$$$$

     RDKit          3D

 70 74  0  0  0  0  0  0  0  0999 V2000
  138.3980   67.9250  221.2540 C   0  0  0  0  0  0  0  0  0  0  0  0
  138.5720   67.7690  222.7250 C   0  0  0  0  0  0  0  0  0  0  0  0
  138.1180   68.9340  223.5270 C   0  0  0  0  0  0  0  0  0  0  0  0
  136.8670   69.1150  223.5800 O   0  0  0  0  0  0  0  0  0  0  0  0
  139.0640   69.7560  224.1700 N   0  0  0  0  0  0  0  0  0  0  0  0
  139.6310   69.4790  225.4450 C   0  0  0  0  0  0  0  0  0  0  0  0
  140.2410   70.4560  226.2270 C   0  0  0  0  0  0  0  0  0  0  0  0
  140.7510   70.0460  227.4490 C   0  0  0  0  0  0  0  0  0  0  0  0
  140.6720   68.7370  227.8930 C   0  0  0  0  0  0  0  0  0  0  0  0
  140.0670   67.7980  227.1000 C   0  0  0  0  0  0  0  0  0  0  0  0
  139.5410   68.1550  225.8760 C   0  0  0  0  0  0  0  0  0  0  0  0
  139.5240   70.9630  223.5030 C   0  0  0  0  0  0  0  0  0  0  0  0
  138.4150   71.8910  223.1000 C   0  0  0  0  0  0  0  0  0  0  0  0
  138.5020   72.3520  221.6570 C   0  0  0  0  0  0  0  0  0  0  0  0
  139.8960   72.8050  221.4880 N   0  0  0  0  0  0  0  0  0  0  0  0
  140.0900   74.1750  221.2860 C   0  0  0  0  0  0  0  0  0  0  0  0
  139.0240   74.8910  221.2450 O   0  0  0  0  0  0  0  0  0  0  0  0
  141.3710   74.8930  221.1180 C   0  0  2  0  0  0  0  0  0  0  0  0
  141.3220   76.0640  222.0020 N   0  0  0  0  0  0  0  0  0  0  0  0
  141.6380   75.2530  219.6910 C   0  0  1  0  0  0  0  0  0  0  0  0
  143.0580   75.9000  219.7220 C   0  0  0  0  0  0  0  0  0  0  0  0
  143.8530   74.6540  220.0530 C   0  0  0  0  0  0  0  0  0  0  0  0
  145.0250   74.4850  220.7700 C   0  0  0  0  0  0  0  0  0  0  0  0
  145.5990   73.2430  220.9950 C   0  0  0  0  0  0  0  0  0  0  0  0
  144.9130   72.1610  220.4460 C   0  0  0  0  0  0  0  0  0  0  0  0
  143.7450   72.3290  219.7310 C   0  0  0  0  0  0  0  0  0  0  0  0
  143.1770   73.5520  219.5060 C   0  0  0  0  0  0  0  0  0  0  0  0
  142.0010   74.1020  218.7890 C   0  0  1  0  0  0  0  0  0  0  0  0
  140.9730   73.1830  218.3990 C   0  0  0  0  0  0  0  0  0  0  0  0
  139.6910   73.7070  218.1270 C   0  0  0  0  0  0  0  0  0  0  0  0
  138.6410   72.8970  217.7670 C   0  0  0  0  0  0  0  0  0  0  0  0
  138.7910   71.5330  217.6530 C   0  0  0  0  0  0  0  0  0  0  0  0
  140.0140   71.0360  217.9140 N   0  0  0  0  0  0  0  0  0  0  0  0
  141.0570   71.8130  218.2690 C   0  0  0  0  0  0  0  0  0  0  0  0
  140.9000   71.7760  221.5460 C   0  0  0  0  0  0  0  0  0  0  0  0
  140.2580   70.5540  222.2200 C   0  0  0  0  0  0  0  0  0  0  0  0
  137.5925   68.6471  221.0546 H   0  0  0  0  0  0  0  0  0  0  0  0
  139.3360   68.2903  220.8105 H   0  0  0  0  0  0  0  0  0  0  0  0
  138.1369   66.9528  220.8105 H   0  0  0  0  0  0  0  0  0  0  0  0
  137.9995   66.8865  223.0468 H   0  0  0  0  0  0  0  0  0  0  0  0
  139.6530   67.6695  222.9029 H   0  0  0  0  0  0  0  0  0  0  0  0
  140.3146   71.5011  225.8919 H   0  0  0  0  0  0  0  0  0  0  0  0
  141.2391   70.7922  228.0932 H   0  0  0  0  0  0  0  0  0  0  0  0
  141.0899   68.4545  228.8705 H   0  0  0  0  0  0  0  0  0  0  0  0
  140.0004   66.7543  227.4410 H   0  0  0  0  0  0  0  0  0  0  0  0
  139.0529   67.3996  225.2427 H   0  0  0  0  0  0  0  0  0  0  0  0
  140.1649   71.4952  224.2213 H   0  0  0  0  0  0  0  0  0  0  0  0
  137.4568   71.3695  223.2412 H   0  0  0  0  0  0  0  0  0  0  0  0
  138.5003   72.7882  223.7307 H   0  0  0  0  0  0  0  0  0  0  0  0
  138.2788   71.5215  220.9710 H   0  0  0  0  0  0  0  0  0  0  0  0
  137.7771   73.1481  221.4316 H   0  0  0  0  0  0  0  0  0  0  0  0
  142.2158   74.2460  221.3969 H   0  0  0  0  0  0  0  0  0  0  0  0
  141.9710   76.8300  221.6610 H   0  0  0  0  0  0  0  0  0  0  0  0
  140.3510   76.4490  222.1020 H   0  0  0  0  0  0  0  0  0  0  0  0
  140.7450   75.7950  219.3463 H   0  0  0  0  0  0  0  0  0  0  0  0
  143.3415   76.3285  218.7494 H   0  0  0  0  0  0  0  0  0  0  0  0
  143.1855   76.7495  220.4091 H   0  0  0  0  0  0  0  0  0  0  0  0
  145.5233   75.3760  221.1797 H   0  0  0  0  0  0  0  0  0  0  0  0
  146.5306   73.1202  221.5668 H   0  0  0  0  0  0  0  0  0  0  0  0
  145.3134   71.1462  220.5865 H   0  0  0  0  0  0  0  0  0  0  0  0
  143.2474   71.4369  219.3228 H   0  0  0  0  0  0  0  0  0  0  0  0
  142.2118   74.4184  217.7568 H   0  0  0  0  0  0  0  0  0  0  0  0
  139.5281   74.7921  218.2052 H   0  0  0  0  0  0  0  0  0  0  0  0
  137.6584   73.3485  217.5653 H   0  0  0  0  0  0  0  0  0  0  0  0
  137.9530   70.8821  217.3631 H   0  0  0  0  0  0  0  0  0  0  0  0
  142.0251   71.3289  218.4651 H   0  0  0  0  0  0  0  0  0  0  0  0
  141.2319   71.5153  220.5302 H   0  0  0  0  0  0  0  0  0  0  0  0
  141.7785   72.1184  222.1126 H   0  0  0  0  0  0  0  0  0  0  0  0
  139.5402   70.0943  221.5248 H   0  0  0  0  0  0  0  0  0  0  0  0
  141.0511   69.8376  222.4805 H   0  0  0  0  0  0  0  0  0  0  0  0
  1  2  1  0
  2  3  1  0
  3  4  2  0
  3  5  1  0
  5  6  1  0
  6  7  2  0
  7  8  1  0
  8  9  2  0
  9 10  1  0
 10 11  2  0
  5 12  1  0
 12 13  1  0
 13 14  1  0
 14 15  1  0
 15 16  1  0
 16 17  2  0
 16 18  1  0
 18 19  1  0
 18 20  1  0
 20 21  1  0
 21 22  1  0
 22 23  2  0
 23 24  1  0
 24 25  2  0
 25 26  1  0
 26 27  2  0
 27 28  1  0
 28 29  1  0
 29 30  2  0
 30 31  1  0
 31 32  2  0
 32 33  1  0
 33 34  2  0
 15 35  1  0
 35 36  1  0
 11  6  1  0
 36 12  1  0
 28 20  1  0
 34 29  1  0
 27 22  1  0
  1 37  1  0
  1 38  1  0
  1 39  1  0
  2 40  1  0
  2 41  1  0
  7 42  1  0
  8 43  1  0
  9 44  1  0
 10 45  1  0
 11 46  1  0
 12 47  1  0
 13 48  1  0
 13 49  1  0
 14 50  1  0
 14 51  1  0
 18 52  1  1
 19 53  1  0
 19 54  1  0
 20 55  1  6
 21 56  1  0
 21 57  1  0
 23 58  1  0
 24 59  1  0
 25 60  1  0
 26 61  1  0
 28 62  1  6
 30 63  1  0
 31 64  1  0
 32 65  1  0
 34 66  1  0
 35 67  1  0
 35 68  1  0
 36 69  1  0
 36 70  1  0
M  END
>  <smiles>  (154) 
CCC(=O)N(c1ccccc1)C1CCN(C(=O)[C@H](N)C2Cc3ccccc3C2c2cccnc2)CC1

>  <score_type>  (154) 
oracle

>  <origin>  (154) 
autodockgpu

>  <m_score__min__energy>  (154) 
-8.5700000000000003

>  <m_primary>  (154) 
energy

>  <rmsd>  (154) 
7.282655244534372

>  <m_score__min__rmsd>  (154) 
7.282655244534372

>  <meeko>  (154) 
{"free_energy": -6.92, "intermolecular_energy": -9.3, "internal_energy": -3.68, "cluster_size": 37, "cluster_id": 2, "rank_in_cluster": 37}

>  <energy>  (154) 
-7.63

>  <cluster_rmsd>  (154) 
0.53

>  <cluster>  (154) 
1

$$$$

     RDKit          3D

 70 74  0  0  0  0  0  0  0  0999 V2000
  138.7590   66.9880  222.5450 C   0  0  0  0  0  0  0  0  0  0  0  0
  137.9000   68.1920  222.3700 C   0  0  0  0  0  0  0  0  0  0  0  0
  137.6980   68.9920  223.6050 C   0  0  0  0  0  0  0  0  0  0  0  0
  136.5300   68.9760  224.0900 O   0  0  0  0  0  0  0  0  0  0  0  0
  138.7760   69.7070  224.1640 N   0  0  0  0  0  0  0  0  0  0  0  0
  139.4640   69.3240  225.3490 C   0  0  0  0  0  0  0  0  0  0  0  0
  139.5700   67.9980  225.7630 C   0  0  0  0  0  0  0  0  0  0  0  0
  140.2680   67.7680  226.9370 C   0  0  0  0  0  0  0  0  0  0  0  0
  140.8400   68.7850  227.6810 C   0  0  0  0  0  0  0  0  0  0  0  0
  140.7180   70.0800  227.2480 C   0  0  0  0  0  0  0  0  0  0  0  0
  140.0340   70.3620  226.0840 C   0  0  0  0  0  0  0  0  0  0  0  0
  139.2500   70.9090  223.4970 C   0  0  0  0  0  0  0  0  0  0  0  0
  138.1530   71.8570  223.1070 C   0  0  0  0  0  0  0  0  0  0  0  0
  138.2350   72.3220  221.6650 C   0  0  0  0  0  0  0  0  0  0  0  0
  139.6350   72.7520  221.4860 N   0  0  0  0  0  0  0  0  0  0  0  0
  139.8490   74.1200  221.2880 C   0  0  0  0  0  0  0  0  0  0  0  0
  138.7950   74.8540  221.2590 O   0  0  0  0  0  0  0  0  0  0  0  0
  141.1400   74.8180  221.1110 C   0  0  2  0  0  0  0  0  0  0  0  0
  141.1110   75.9960  221.9870 N   0  0  0  0  0  0  0  0  0  0  0  0
  141.4090   75.1640  219.6810 C   0  0  1  0  0  0  0  0  0  0  0  0
  142.8100   75.8500  219.7130 C   0  0  0  0  0  0  0  0  0  0  0  0
  143.6370   74.6310  220.0690 C   0  0  0  0  0  0  0  0  0  0  0  0
  144.8070   74.5060  220.7980 C   0  0  0  0  0  0  0  0  0  0  0  0
  145.4130   73.2830  221.0450 C   0  0  0  0  0  0  0  0  0  0  0  0
  144.7610   72.1740  220.5070 C   0  0  0  0  0  0  0  0  0  0  0  0
  143.5950   72.3000  219.7810 C   0  0  0  0  0  0  0  0  0  0  0  0
  142.9950   73.5030  219.5340 C   0  0  0  0  0  0  0  0  0  0  0  0
  141.8110   74.0110  218.8000 C   0  0  1  0  0  0  0  0  0  0  0  0
  140.8110   73.0580  218.4150 C   0  0  0  0  0  0  0  0  0  0  0  0
  139.5140   73.5400  218.1420 C   0  0  0  0  0  0  0  0  0  0  0  0
  138.4890   72.6960  217.7870 C   0  0  0  0  0  0  0  0  0  0  0  0
  138.6810   71.3370  217.6810 C   0  0  0  0  0  0  0  0  0  0  0  0
  139.9190   70.8800  217.9430 N   0  0  0  0  0  0  0  0  0  0  0  0
  140.9380   71.6910  218.2920 C   0  0  0  0  0  0  0  0  0  0  0  0
  140.6230   71.7080  221.5320 C   0  0  0  0  0  0  0  0  0  0  0  0
  139.9670   70.4930  222.2060 C   0  0  0  0  0  0  0  0  0  0  0  0
  138.8997   66.7908  223.6180 H   0  0  0  0  0  0  0  0  0  0  0  0
  138.2747   66.1203  222.0731 H   0  0  0  0  0  0  0  0  0  0  0  0
  139.7370   67.1636  222.0731 H   0  0  0  0  0  0  0  0  0  0  0  0
  138.3674   68.8401  221.6140 H   0  0  0  0  0  0  0  0  0  0  0  0
  136.9071   67.8257  222.0698 H   0  0  0  0  0  0  0  0  0  0  0  0
  139.1220   67.1752  225.1866 H   0  0  0  0  0  0  0  0  0  0  0  0
  140.3721   66.7325  227.2933 H   0  0  0  0  0  0  0  0  0  0  0  0
  141.3858   68.5571  228.6084 H   0  0  0  0  0  0  0  0  0  0  0  0
  141.1674   70.8973  227.8311 H   0  0  0  0  0  0  0  0  0  0  0  0
  139.9387   71.4016  225.7373 H   0  0  0  0  0  0  0  0  0  0  0  0
  139.9056   71.4279  224.2118 H   0  0  0  0  0  0  0  0  0  0  0  0
  137.1875   71.3510  223.2547 H   0  0  0  0  0  0  0  0  0  0  0  0
  138.2589   72.7503  223.7401 H   0  0  0  0  0  0  0  0  0  0  0  0
  137.9919   71.4981  220.9779 H   0  0  0  0  0  0  0  0  0  0  0  0
  137.5216   73.1308  221.4486 H   0  0  0  0  0  0  0  0  0  0  0  0
  141.9757   74.1602  221.3919 H   0  0  0  0  0  0  0  0  0  0  0  0
  140.1640   76.1070  222.4510 H   0  0  0  0  0  0  0  0  0  0  0  0
  141.8580   75.9640  222.7230 H   0  0  0  0  0  0  0  0  0  0  0  0
  140.5042   75.6760  219.3214 H   0  0  0  0  0  0  0  0  0  0  0  0
  143.0893   76.2716  218.7362 H   0  0  0  0  0  0  0  0  0  0  0  0
  142.9085   76.7128  220.3882 H   0  0  0  0  0  0  0  0  0  0  0  0
  145.2767   75.4163  221.1990 H   0  0  0  0  0  0  0  0  0  0  0  0
  146.3434   73.1941  221.6251 H   0  0  0  0  0  0  0  0  0  0  0  0
  145.1877   71.1726  220.6657 H   0  0  0  0  0  0  0  0  0  0  0  0
  143.1256   71.3888  219.3817 H   0  0  0  0  0  0  0  0  0  0  0  0
  142.0224   74.3188  217.7653 H   0  0  0  0  0  0  0  0  0  0  0  0
  139.3176   74.6199  218.2151 H   0  0  0  0  0  0  0  0  0  0  0  0
  137.4929   73.1158  217.5830 H   0  0  0  0  0  0  0  0  0  0  0  0
  137.8632   70.6587  217.3963 H   0  0  0  0  0  0  0  0  0  0  0  0
  141.9211   71.2385  218.4887 H   0  0  0  0  0  0  0  0  0  0  0  0
  140.9432   71.4466  220.5126 H   0  0  0  0  0  0  0  0  0  0  0  0
  141.5110   72.0344  222.0932 H   0  0  0  0  0  0  0  0  0  0  0  0
  139.2363   70.0477  221.5148 H   0  0  0  0  0  0  0  0  0  0  0  0
  140.7503   69.7626  222.4567 H   0  0  0  0  0  0  0  0  0  0  0  0
  1  2  1  0
  2  3  1  0
  3  4  2  0
  3  5  1  0
  5  6  1  0
  6  7  2  0
  7  8  1  0
  8  9  2  0
  9 10  1  0
 10 11  2  0
  5 12  1  0
 12 13  1  0
 13 14  1  0
 14 15  1  0
 15 16  1  0
 16 17  2  0
 16 18  1  0
 18 19  1  0
 18 20  1  0
 20 21  1  0
 21 22  1  0
 22 23  2  0
 23 24  1  0
 24 25  2  0
 25 26  1  0
 26 27  2  0
 27 28  1  0
 28 29  1  0
 29 30  2  0
 30 31  1  0
 31 32  2  0
 32 33  1  0
 33 34  2  0
 15 35  1  0
 35 36  1  0
 11  6  1  0
 36 12  1  0
 28 20  1  0
 34 29  1  0
 27 22  1  0
  1 37  1  0
  1 38  1  0
  1 39  1  0
  2 40  1  0
  2 41  1  0
  7 42  1  0
  8 43  1  0
  9 44  1  0
 10 45  1  0
 11 46  1  0
 12 47  1  0
 13 48  1  0
 13 49  1  0
 14 50  1  0
 14 51  1  0
 18 52  1  1
 19 53  1  0
 19 54  1  0
 20 55  1  6
 21 56  1  0
 21 57  1  0
 23 58  1  0
 24 59  1  0
 25 60  1  0
 26 61  1  0
 28 62  1  6
 30 63  1  0
 31 64  1  0
 32 65  1  0
 34 66  1  0
 35 67  1  0
 35 68  1  0
 36 69  1  0
 36 70  1  0
M  END
>  <smiles>  (155) 
CCC(=O)N(c1ccccc1)C1CCN(C(=O)[C@H](N)C2Cc3ccccc3C2c2cccnc2)CC1

>  <score_type>  (155) 
oracle

>  <origin>  (155) 
autodockgpu

>  <m_score__min__energy>  (155) 
-8.5700000000000003

>  <m_primary>  (155) 
energy

>  <rmsd>  (155) 
7.278556588712516

>  <m_score__min__rmsd>  (155) 
7.278556588712516

>  <meeko>  (155) 
{"free_energy": -7.06, "intermolecular_energy": -9.45, "internal_energy": -3.65, "cluster_size": 37, "cluster_id": 2, "rank_in_cluster": 22}

>  <energy>  (155) 
-7.56

>  <cluster_rmsd>  (155) 
1.42

>  <cluster>  (155) 
1

$$$$

     RDKit          3D

 70 74  0  0  0  0  0  0  0  0999 V2000
  136.2180   69.3620  224.5740 C   0  0  0  0  0  0  0  0  0  0  0  0
  137.0650   68.9710  223.4130 C   0  0  0  0  0  0  0  0  0  0  0  0
  138.4660   68.6220  223.7600 C   0  0  0  0  0  0  0  0  0  0  0  0
  138.8450   67.4620  223.4290 O   0  0  0  0  0  0  0  0  0  0  0  0
  139.2820   69.5630  224.4180 N   0  0  0  0  0  0  0  0  0  0  0  0
  139.7900   69.3990  225.7370 C   0  0  0  0  0  0  0  0  0  0  0  0
  139.8970   68.1560  226.3540 C   0  0  0  0  0  0  0  0  0  0  0  0
  140.4090   68.1420  227.6420 C   0  0  0  0  0  0  0  0  0  0  0  0
  140.8000   69.2930  228.3050 C   0  0  0  0  0  0  0  0  0  0  0  0
  140.6810   70.5020  227.6710 C   0  0  0  0  0  0  0  0  0  0  0  0
  140.1800   70.5690  226.3890 C   0  0  0  0  0  0  0  0  0  0  0  0
  139.6610   70.7820  223.7220 C   0  0  0  0  0  0  0  0  0  0  0  0
  138.5130   71.7160  223.4690 C   0  0  0  0  0  0  0  0  0  0  0  0
  138.4300   72.2020  222.0330 C   0  0  0  0  0  0  0  0  0  0  0  0
  139.7950   72.6580  221.7090 N   0  0  0  0  0  0  0  0  0  0  0  0
  139.9650   74.0320  221.5100 C   0  0  0  0  0  0  0  0  0  0  0  0
  138.9020   74.7480  221.6070 O   0  0  0  0  0  0  0  0  0  0  0  0
  141.2170   74.7540  221.2040 C   0  0  2  0  0  0  0  0  0  0  0  0
  141.2390   75.9500  222.0570 N   0  0  0  0  0  0  0  0  0  0  0  0
  141.3480   75.0770  219.7490 C   0  0  1  0  0  0  0  0  0  0  0  0
  142.7250   75.8030  219.6440 C   0  0  0  0  0  0  0  0  0  0  0  0
  143.6170   74.6170  219.9490 C   0  0  0  0  0  0  0  0  0  0  0  0
  144.8510   74.5420  220.5720 C   0  0  0  0  0  0  0  0  0  0  0  0
  145.5130   73.3430  220.7890 C   0  0  0  0  0  0  0  0  0  0  0  0
  144.8510   72.2040  220.3330 C   0  0  0  0  0  0  0  0  0  0  0  0
  143.6220   72.2800  219.7110 C   0  0  0  0  0  0  0  0  0  0  0  0
  142.9660   73.4600  219.4940 C   0  0  0  0  0  0  0  0  0  0  0  0
  141.7060   73.9160  218.8590 C   0  0  1  0  0  0  0  0  0  0  0  0
  140.7060   72.9260  218.5830 C   0  0  0  0  0  0  0  0  0  0  0  0
  139.3680   73.3580  218.4660 C   0  0  0  0  0  0  0  0  0  0  0  0
  138.3420   72.4760  218.2240 C   0  0  0  0  0  0  0  0  0  0  0  0
  138.5740   71.1260  218.0830 C   0  0  0  0  0  0  0  0  0  0  0  0
  139.8500   70.7170  218.1960 N   0  0  0  0  0  0  0  0  0  0  0  0
  140.8710   71.5660  218.4330 C   0  0  0  0  0  0  0  0  0  0  0  0
  140.7980   71.6300  221.6320 C   0  0  0  0  0  0  0  0  0  0  0  0
  140.2390   70.3960  222.3550 C   0  0  0  0  0  0  0  0  0  0  0  0
  136.7435   69.1194  225.5094 H   0  0  0  0  0  0  0  0  0  0  0  0
  136.0189   70.4431  224.5350 H   0  0  0  0  0  0  0  0  0  0  0  0
  135.2660   68.8122  224.5350 H   0  0  0  0  0  0  0  0  0  0  0  0
  136.6032   68.0972  222.9302 H   0  0  0  0  0  0  0  0  0  0  0  0
  137.1167   69.8505  222.7544 H   0  0  0  0  0  0  0  0  0  0  0  0
  139.5904   67.2305  225.8447 H   0  0  0  0  0  0  0  0  0  0  0  0
  140.5089   67.1762  228.1590 H   0  0  0  0  0  0  0  0  0  0  0  0
  141.2011   69.2376  229.3278 H   0  0  0  0  0  0  0  0  0  0  0  0
  140.9869   71.4235  228.1879 H   0  0  0  0  0  0  0  0  0  0  0  0
  140.0880   71.5408  225.8820 H   0  0  0  0  0  0  0  0  0  0  0  0
  140.3825   71.3028  224.3687 H   0  0  0  0  0  0  0  0  0  0  0  0
  137.5775   71.1914  223.7132 H   0  0  0  0  0  0  0  0  0  0  0  0
  138.6729   72.6022  224.1008 H   0  0  0  0  0  0  0  0  0  0  0  0
  138.1261   71.3834  221.3640 H   0  0  0  0  0  0  0  0  0  0  0  0
  137.6849   73.0016  221.9081 H   0  0  0  0  0  0  0  0  0  0  0  0
  142.0895   74.1201  221.4204 H   0  0  0  0  0  0  0  0  0  0  0  0
  141.8580   76.7050  221.6440 H   0  0  0  0  0  0  0  0  0  0  0  0
  140.2790   76.3380  222.2240 H   0  0  0  0  0  0  0  0  0  0  0  0
  140.4004   75.5555  219.4607 H   0  0  0  0  0  0  0  0  0  0  0  0
  142.9046   76.2109  218.6383 H   0  0  0  0  0  0  0  0  0  0  0  0
  142.8559   76.6827  220.2913 H   0  0  0  0  0  0  0  0  0  0  0  0
  145.3272   75.4743  220.9097 H   0  0  0  0  0  0  0  0  0  0  0  0
  146.4928   73.2940  221.2866 H   0  0  0  0  0  0  0  0  0  0  0  0
  145.3208   71.2192  220.4728 H   0  0  0  0  0  0  0  0  0  0  0  0
  143.1471   71.3469  219.3735 H   0  0  0  0  0  0  0  0  0  0  0  0
  141.8149   74.2058  217.8035 H   0  0  0  0  0  0  0  0  0  0  0  0
  139.1399   74.4289  218.5712 H   0  0  0  0  0  0  0  0  0  0  0  0
  137.3133   72.8568  218.1412 H   0  0  0  0  0  0  0  0  0  0  0  0
  137.7559   70.4171  217.8876 H   0  0  0  0  0  0  0  0  0  0  0  0
  141.8871   71.1518  218.5105 H   0  0  0  0  0  0  0  0  0  0  0  0
  141.0090   71.3872  220.5801 H   0  0  0  0  0  0  0  0  0  0  0  0
  141.7366   71.9642  222.0982 H   0  0  0  0  0  0  0  0  0  0  0  0
  139.4443   69.9473  221.7409 H   0  0  0  0  0  0  0  0  0  0  0  0
  141.0566   69.6762  222.5081 H   0  0  0  0  0  0  0  0  0  0  0  0
  1  2  1  0
  2  3  1  0
  3  4  2  0
  3  5  1  0
  5  6  1  0
  6  7  2  0
  7  8  1  0
  8  9  2  0
  9 10  1  0
 10 11  2  0
  5 12  1  0
 12 13  1  0
 13 14  1  0
 14 15  1  0
 15 16  1  0
 16 17  2  0
 16 18  1  0
 18 19  1  0
 18 20  1  0
 20 21  1  0
 21 22  1  0
 22 23  2  0
 23 24  1  0
 24 25  2  0
 25 26  1  0
 26 27  2  0
 27 28  1  0
 28 29  1  0
 29 30  2  0
 30 31  1  0
 31 32  2  0
 32 33  1  0
 33 34  2  0
 15 35  1  0
 35 36  1  0
 11  6  1  0
 36 12  1  0
 28 20  1  0
 34 29  1  0
 27 22  1  0
  1 37  1  0
  1 38  1  0
  1 39  1  0
  2 40  1  0
  2 41  1  0
  7 42  1  0
  8 43  1  0
  9 44  1  0
 10 45  1  0
 11 46  1  0
 12 47  1  0
 13 48  1  0
 13 49  1  0
 14 50  1  0
 14 51  1  0
 18 52  1  1
 19 53  1  0
 19 54  1  0
 20 55  1  6
 21 56  1  0
 21 57  1  0
 23 58  1  0
 24 59  1  0
 25 60  1  0
 26 61  1  0
 28 62  1  6
 30 63  1  0
 31 64  1  0
 32 65  1  0
 34 66  1  0
 35 67  1  0
 35 68  1  0
 36 69  1  0
 36 70  1  0
M  END
>  <smiles>  (156) 
CCC(=O)N(c1ccccc1)C1CCN(C(=O)[C@H](N)C2Cc3ccccc3C2c2cccnc2)CC1

>  <score_type>  (156) 
oracle

>  <origin>  (156) 
autodockgpu

>  <m_score__min__energy>  (156) 
-8.5700000000000003

>  <m_primary>  (156) 
energy

>  <rmsd>  (156) 
7.3667428483392

>  <m_score__min__rmsd>  (156) 
7.3667428483392

>  <meeko>  (156) 
{"free_energy": -7.16, "intermolecular_energy": -9.55, "internal_energy": -3.6, "cluster_size": 37, "cluster_id": 2, "rank_in_cluster": 9}

>  <energy>  (156) 
-7.27

>  <cluster_rmsd>  (156) 
0.0

>  <cluster>  (156) 
2

$$$$

     RDKit          3D

 70 74  0  0  0  0  0  0  0  0999 V2000
  137.0410   68.5540  221.8190 C   0  0  0  0  0  0  0  0  0  0  0  0
  137.1420   68.6520  223.3010 C   0  0  0  0  0  0  0  0  0  0  0  0
  138.4770   68.3100  223.8540 C   0  0  0  0  0  0  0  0  0  0  0  0
  138.8580   67.1160  223.6820 O   0  0  0  0  0  0  0  0  0  0  0  0
  139.2350   69.2930  224.5200 N   0  0  0  0  0  0  0  0  0  0  0  0
  139.7340   69.1580  225.8460 C   0  0  0  0  0  0  0  0  0  0  0  0
  139.6110   70.1620  226.8030 C   0  0  0  0  0  0  0  0  0  0  0  0
  140.1420   69.8950  228.0550 C   0  0  0  0  0  0  0  0  0  0  0  0
  140.7700   68.7010  228.3650 C   0  0  0  0  0  0  0  0  0  0  0  0
  140.8760   67.7320  227.4000 C   0  0  0  0  0  0  0  0  0  0  0  0
  140.3610   67.9470  226.1390 C   0  0  0  0  0  0  0  0  0  0  0  0
  139.5600   70.5290  223.8270 C   0  0  0  0  0  0  0  0  0  0  0  0
  138.4190   71.5020  223.7580 C   0  0  0  0  0  0  0  0  0  0  0  0
  138.1680   72.0480  222.3650 C   0  0  0  0  0  0  0  0  0  0  0  0
  139.4940   72.4810  221.8840 N   0  0  0  0  0  0  0  0  0  0  0  0
  139.6790   73.8570  221.7160 C   0  0  0  0  0  0  0  0  0  0  0  0
  138.6600   74.5960  221.9750 O   0  0  0  0  0  0  0  0  0  0  0  0
  140.9040   74.5580  221.2770 C   0  0  2  0  0  0  0  0  0  0  0  0
  141.0110   75.7770  222.0890 N   0  0  0  0  0  0  0  0  0  0  0  0
  140.9060   74.8370  219.8070 C   0  0  1  0  0  0  0  0  0  0  0  0
  142.1630   75.7360  219.5930 C   0  0  0  0  0  0  0  0  0  0  0  0
  143.2240   74.6930  219.8790 C   0  0  0  0  0  0  0  0  0  0  0  0
  144.4900   74.8080  220.4260 C   0  0  0  0  0  0  0  0  0  0  0  0
  145.3200   73.7180  220.6380 C   0  0  0  0  0  0  0  0  0  0  0  0
  144.7940   72.4840  220.2600 C   0  0  0  0  0  0  0  0  0  0  0  0
  143.5320   72.3700  219.7140 C   0  0  0  0  0  0  0  0  0  0  0  0
  142.7100   73.4420  219.5020 C   0  0  0  0  0  0  0  0  0  0  0  0
  141.3660   73.7000  218.9330 C   0  0  1  0  0  0  0  0  0  0  0  0
  140.4950   72.5760  218.7520 C   0  0  0  0  0  0  0  0  0  0  0  0
  139.1040   72.8090  218.7840 C   0  0  0  0  0  0  0  0  0  0  0  0
  138.1960   71.7870  218.6410 C   0  0  0  0  0  0  0  0  0  0  0  0
  138.6030   70.4850  218.4570 C   0  0  0  0  0  0  0  0  0  0  0  0
  139.9300   70.2650  218.4270 N   0  0  0  0  0  0  0  0  0  0  0  0
  140.8370   71.2530  218.5660 C   0  0  0  0  0  0  0  0  0  0  0  0
  140.4460   71.4310  221.6390 C   0  0  0  0  0  0  0  0  0  0  0  0
  139.9460   70.1830  222.3830 C   0  0  0  0  0  0  0  0  0  0  0  0
  136.2752   67.8109  221.5520 H   0  0  0  0  0  0  0  0  0  0  0  0
  136.7612   69.5339  221.4050 H   0  0  0  0  0  0  0  0  0  0  0  0
  138.0121   68.2448  221.4050 H   0  0  0  0  0  0  0  0  0  0  0  0
  136.9041   69.6854  223.5934 H   0  0  0  0  0  0  0  0  0  0  0  0
  136.4367   67.9141  223.7108 H   0  0  0  0  0  0  0  0  0  0  0  0
  139.1174   71.1186  226.5767 H   0  0  0  0  0  0  0  0  0  0  0  0
  140.0609   70.6652  228.8361 H   0  0  0  0  0  0  0  0  0  0  0  0
  141.1787   68.5315  229.3721 H   0  0  0  0  0  0  0  0  0  0  0  0
  141.3740   66.7793  227.6330 H   0  0  0  0  0  0  0  0  0  0  0  0
  140.4443   67.1671  225.3678 H   0  0  0  0  0  0  0  0  0  0  0  0
  140.3737   71.0042  224.3944 H   0  0  0  0  0  0  0  0  0  0  0  0
  137.5065   70.9924  224.1011 H   0  0  0  0  0  0  0  0  0  0  0  0
  138.6864   72.3574  224.3958 H   0  0  0  0  0  0  0  0  0  0  0  0
  137.7552   71.2658  221.7110 H   0  0  0  0  0  0  0  0  0  0  0  0
  137.4385   72.8713  222.3675 H   0  0  0  0  0  0  0  0  0  0  0  0
  141.7883   73.9225  221.4323 H   0  0  0  0  0  0  0  0  0  0  0  0
  140.2370   75.8270  222.8110 H   0  0  0  0  0  0  0  0  0  0  0  0
  141.9410   75.8570  222.5680 H   0  0  0  0  0  0  0  0  0  0  0  0
  139.8870   75.1723  219.5637 H   0  0  0  0  0  0  0  0  0  0  0  0
  142.2271   76.1239  218.5656 H   0  0  0  0  0  0  0  0  0  0  0  0
  142.2102   76.6504  220.2026 H   0  0  0  0  0  0  0  0  0  0  0  0
  144.8536   75.8080  220.7048 H   0  0  0  0  0  0  0  0  0  0  0  0
  146.3245   73.8201  221.0745 H   0  0  0  0  0  0  0  0  0  0  0  0
  145.4008   71.5773  220.4006 H   0  0  0  0  0  0  0  0  0  0  0  0
  143.1699   71.3692  219.4361 H   0  0  0  0  0  0  0  0  0  0  0  0
  141.3740   73.9593  217.8640 H   0  0  0  0  0  0  0  0  0  0  0  0
  138.7363   73.8358  218.9272 H   0  0  0  0  0  0  0  0  0  0  0  0
  137.1203   72.0146  218.6744 H   0  0  0  0  0  0  0  0  0  0  0  0
  137.8792   69.6650  218.3403 H   0  0  0  0  0  0  0  0  0  0  0  0
  141.9045   70.9903  218.5291 H   0  0  0  0  0  0  0  0  0  0  0  0
  140.5118   71.2258  220.5603 H   0  0  0  0  0  0  0  0  0  0  0  0
  141.4470   71.7210  221.9910 H   0  0  0  0  0  0  0  0  0  0  0  0
  139.0656   69.7802  221.8608 H   0  0  0  0  0  0  0  0  0  0  0  0
  140.7537   69.4365  222.4027 H   0  0  0  0  0  0  0  0  0  0  0  0
  1  2  1  0
  2  3  1  0
  3  4  2  0
  3  5  1  0
  5  6  1  0
  6  7  2  0
  7  8  1  0
  8  9  2  0
  9 10  1  0
 10 11  2  0
  5 12  1  0
 12 13  1  0
 13 14  1  0
 14 15  1  0
 15 16  1  0
 16 17  2  0
 16 18  1  0
 18 19  1  0
 18 20  1  0
 20 21  1  0
 21 22  1  0
 22 23  2  0
 23 24  1  0
 24 25  2  0
 25 26  1  0
 26 27  2  0
 27 28  1  0
 28 29  1  0
 29 30  2  0
 30 31  1  0
 31 32  2  0
 32 33  1  0
 33 34  2  0
 15 35  1  0
 35 36  1  0
 11  6  1  0
 36 12  1  0
 28 20  1  0
 34 29  1  0
 27 22  1  0
  1 37  1  0
  1 38  1  0
  1 39  1  0
  2 40  1  0
  2 41  1  0
  7 42  1  0
  8 43  1  0
  9 44  1  0
 10 45  1  0
 11 46  1  0
 12 47  1  0
 13 48  1  0
 13 49  1  0
 14 50  1  0
 14 51  1  0
 18 52  1  6
 19 53  1  0
 19 54  1  0
 20 55  1  6
 21 56  1  0
 21 57  1  0
 23 58  1  0
 24 59  1  0
 25 60  1  0
 26 61  1  0
 28 62  1  6
 30 63  1  0
 31 64  1  0
 32 65  1  0
 34 66  1  0
 35 67  1  0
 35 68  1  0
 36 69  1  0
 36 70  1  0
M  END
>  <smiles>  (157) 
CCC(=O)N(c1ccccc1)C1CCN(C(=O)[C@H](N)C2Cc3ccccc3C2c2cccnc2)CC1

>  <score_type>  (157) 
oracle

>  <origin>  (157) 
autodockgpu

>  <m_score__min__energy>  (157) 
-8.5700000000000003

>  <m_primary>  (157) 
energy

>  <rmsd>  (157) 
7.398136352107277

>  <m_score__min__rmsd>  (157) 
7.398136352107277

>  <meeko>  (157) 
{"free_energy": -7.14, "intermolecular_energy": -9.53, "internal_energy": -3.54, "cluster_size": 37, "cluster_id": 2, "rank_in_cluster": 13}

>  <energy>  (157) 
-7.24

>  <cluster_rmsd>  (157) 
0.57

>  <cluster>  (157) 
2

$$$$

     RDKit          3D

 70 74  0  0  0  0  0  0  0  0999 V2000
  138.8180   67.3950  221.6720 C   0  0  0  0  0  0  0  0  0  0  0  0
  139.1990   68.6720  222.3370 C   0  0  0  0  0  0  0  0  0  0  0  0
  139.1820   68.6260  223.8210 C   0  0  0  0  0  0  0  0  0  0  0  0
  138.8830   67.5100  224.3360 O   0  0  0  0  0  0  0  0  0  0  0  0
  139.4870   69.7840  224.5640 N   0  0  0  0  0  0  0  0  0  0  0  0
  140.0870   69.7720  225.8540 C   0  0  0  0  0  0  0  0  0  0  0  0
  140.3370   68.5970  226.5580 C   0  0  0  0  0  0  0  0  0  0  0  0
  140.9270   68.7320  227.8050 C   0  0  0  0  0  0  0  0  0  0  0  0
  141.2590   69.9620  228.3470 C   0  0  0  0  0  0  0  0  0  0  0  0
  140.9990   71.1010  227.6300 C   0  0  0  0  0  0  0  0  0  0  0  0
  140.4160   71.0200  226.3830 C   0  0  0  0  0  0  0  0  0  0  0  0
  139.1990   71.0880  223.9930 C   0  0  0  0  0  0  0  0  0  0  0  0
  137.9170   71.1370  223.2120 C   0  0  0  0  0  0  0  0  0  0  0  0
  138.0650   71.7640  221.8380 C   0  0  0  0  0  0  0  0  0  0  0  0
  138.7960   73.0240  222.0730 N   0  0  0  0  0  0  0  0  0  0  0  0
  138.0860   74.2090  221.8530 C   0  0  0  0  0  0  0  0  0  0  0  0
  136.8760   74.0690  221.4430 O   0  0  0  0  0  0  0  0  0  0  0  0
  138.5620   75.5960  222.0370 C   0  0  2  0  0  0  0  0  0  0  0  0
  137.5600   76.2840  222.8610 N   0  0  0  0  0  0  0  0  0  0  0  0
  138.8190   76.2870  220.7360 C   0  0  1  0  0  0  0  0  0  0  0  0
  138.2000   77.7070  220.9320 C   0  0  0  0  0  0  0  0  0  0  0  0
  139.1900   78.2320  221.9510 C   0  0  0  0  0  0  0  0  0  0  0  0
  139.0360   79.1330  222.9910 C   0  0  0  0  0  0  0  0  0  0  0  0
  140.0680   79.4770  223.8490 C   0  0  0  0  0  0  0  0  0  0  0  0
  141.2880   78.8520  223.5960 C   0  0  0  0  0  0  0  0  0  0  0  0
  141.4430   77.9550  222.5590 C   0  0  0  0  0  0  0  0  0  0  0  0
  140.4270   77.6140  221.7100 C   0  0  0  0  0  0  0  0  0  0  0  0
  140.2340   76.7530  220.5180 C   0  0  1  0  0  0  0  0  0  0  0  0
  141.2440   75.7760  220.2350 C   0  0  0  0  0  0  0  0  0  0  0  0
  142.5740   76.2260  220.0970 C   0  0  0  0  0  0  0  0  0  0  0  0
  143.6030   75.3620  219.8060 C   0  0  0  0  0  0  0  0  0  0  0  0
  143.3820   74.0140  219.6340 C   0  0  0  0  0  0  0  0  0  0  0  0
  142.1130   73.5880  219.7650 N   0  0  0  0  0  0  0  0  0  0  0  0
  141.0900   74.4190  220.0510 C   0  0  0  0  0  0  0  0  0  0  0  0
  140.1620   72.8860  222.5010 C   0  0  0  0  0  0  0  0  0  0  0  0
  140.3310   71.4510  223.0240 C   0  0  0  0  0  0  0  0  0  0  0  0
  138.5918   66.6369  222.4362 H   0  0  0  0  0  0  0  0  0  0  0  0
  137.9297   67.5593  221.0443 H   0  0  0  0  0  0  0  0  0  0  0  0
  139.6510   67.0457  221.0443 H   0  0  0  0  0  0  0  0  0  0  0  0
  140.2166   68.9367  222.0137 H   0  0  0  0  0  0  0  0  0  0  0  0
  138.4444   69.4151  222.0398 H   0  0  0  0  0  0  0  0  0  0  0  0
  140.0791   67.6106  226.1451 H   0  0  0  0  0  0  0  0  0  0  0  0
  141.1403   67.8241  228.3883 H   0  0  0  0  0  0  0  0  0  0  0  0
  141.7258   70.0245  229.3411 H   0  0  0  0  0  0  0  0  0  0  0  0
  141.2565   72.0840  228.0513 H   0  0  0  0  0  0  0  0  0  0  0  0
  140.2114   71.9352  225.8081 H   0  0  0  0  0  0  0  0  0  0  0  0
  139.1068   71.7873  224.8371 H   0  0  0  0  0  0  0  0  0  0  0  0
  137.5468   70.1088  223.0868 H   0  0  0  0  0  0  0  0  0  0  0  0
  137.2176   71.7678  223.7803 H   0  0  0  0  0  0  0  0  0  0  0  0
  138.6374   71.1031  221.1705 H   0  0  0  0  0  0  0  0  0  0  0  0
  137.0924   71.9336  221.3530 H   0  0  0  0  0  0  0  0  0  0  0  0
  139.5377   75.6052  222.5449 H   0  0  0  0  0  0  0  0  0  0  0  0
  136.5830   75.9310  222.6520 H   0  0  0  0  0  0  0  0  0  0  0  0
  137.7530   76.1880  223.8870 H   0  0  0  0  0  0  0  0  0  0  0  0
  138.4778   75.5919  219.9547 H   0  0  0  0  0  0  0  0  0  0  0  0
  138.2069   78.2960  220.0030 H   0  0  0  0  0  0  0  0  0  0  0  0
  137.1415   77.7344  221.2299 H   0  0  0  0  0  0  0  0  0  0  0  0
  138.0500   79.5965  223.1428 H   0  0  0  0  0  0  0  0  0  0  0  0
  139.9339   80.1936  224.6727 H   0  0  0  0  0  0  0  0  0  0  0  0
  142.1501   79.0799  224.2401 H   0  0  0  0  0  0  0  0  0  0  0  0
  142.4298   77.4928  222.4084 H   0  0  0  0  0  0  0  0  0  0  0  0
  140.3680   77.2766  219.5600 H   0  0  0  0  0  0  0  0  0  0  0  0
  142.7934   77.2962  220.2256 H   0  0  0  0  0  0  0  0  0  0  0  0
  144.6252   75.7563  219.7084 H   0  0  0  0  0  0  0  0  0  0  0  0
  144.2028   73.3197  219.4010 H   0  0  0  0  0  0  0  0  0  0  0  0
  140.0806   73.9915  220.1421 H   0  0  0  0  0  0  0  0  0  0  0  0
  140.8419   73.0611  221.6542 H   0  0  0  0  0  0  0  0  0  0  0  0
  140.4014   73.6186  223.2859 H   0  0  0  0  0  0  0  0  0  0  0  0
  140.3157   70.7531  222.1739 H   0  0  0  0  0  0  0  0  0  0  0  0
  141.2894   71.3812  223.5593 H   0  0  0  0  0  0  0  0  0  0  0  0
  1  2  1  0
  2  3  1  0
  3  4  2  0
  3  5  1  0
  5  6  1  0
  6  7  2  0
  7  8  1  0
  8  9  2  0
  9 10  1  0
 10 11  2  0
  5 12  1  0
 12 13  1  0
 13 14  1  0
 14 15  1  0
 15 16  1  0
 16 17  2  0
 16 18  1  0
 18 19  1  0
 18 20  1  0
 20 21  1  0
 21 22  1  0
 22 23  2  0
 23 24  1  0
 24 25  2  0
 25 26  1  0
 26 27  2  0
 27 28  1  0
 28 29  1  0
 29 30  2  0
 30 31  1  0
 31 32  2  0
 32 33  1  0
 33 34  2  0
 15 35  1  0
 35 36  1  0
 11  6  1  0
 36 12  1  0
 28 20  1  0
 34 29  1  0
 27 22  1  0
  1 37  1  0
  1 38  1  0
  1 39  1  0
  2 40  1  0
  2 41  1  0
  7 42  1  0
  8 43  1  0
  9 44  1  0
 10 45  1  0
 11 46  1  0
 12 47  1  0
 13 48  1  0
 13 49  1  0
 14 50  1  0
 14 51  1  0
 18 52  1  1
 19 53  1  0
 19 54  1  0
 20 55  1  6
 21 56  1  0
 21 57  1  0
 23 58  1  0
 24 59  1  0
 25 60  1  0
 26 61  1  0
 28 62  1  6
 30 63  1  0
 31 64  1  0
 32 65  1  0
 34 66  1  0
 35 67  1  0
 35 68  1  0
 36 69  1  0
 36 70  1  0
M  END
>  <smiles>  (158) 
CCC(=O)N(c1ccccc1)C1CCN(C(=O)[C@H](N)C2Cc3ccccc3C2c2cccnc2)CC1

>  <score_type>  (158) 
oracle

>  <origin>  (158) 
autodockgpu

>  <m_score__min__energy>  (158) 
-8.5700000000000003

>  <m_primary>  (158) 
energy

>  <rmsd>  (158) 
5.956289754662575

>  <m_score__min__rmsd>  (158) 
5.956289754662575

>  <meeko>  (158) 
{"free_energy": -8.37, "intermolecular_energy": -10.75, "internal_energy": -2.4, "cluster_size": 5, "cluster_id": 1, "rank_in_cluster": 3}

>  <energy>  (158) 
-7.21

>  <cluster_rmsd>  (158) 
0.5

>  <cluster>  (158) 
2

$$$$

     RDKit          3D

 70 74  0  0  0  0  0  0  0  0999 V2000
  138.8250   67.2020  221.9770 C   0  0  0  0  0  0  0  0  0  0  0  0
  139.1940   68.5040  222.6000 C   0  0  0  0  0  0  0  0  0  0  0  0
  139.1870   68.5020  224.0850 C   0  0  0  0  0  0  0  0  0  0  0  0
  138.8760   67.4080  224.6360 O   0  0  0  0  0  0  0  0  0  0  0  0
  139.5140   69.6780  224.7900 N   0  0  0  0  0  0  0  0  0  0  0  0
  140.1260   69.6970  226.0740 C   0  0  0  0  0  0  0  0  0  0  0  0
  140.4110   70.8780  226.7550 C   0  0  0  0  0  0  0  0  0  0  0  0
  141.0090   70.7490  227.9990 C   0  0  0  0  0  0  0  0  0  0  0  0
  141.3180   69.5210  228.5590 C   0  0  0  0  0  0  0  0  0  0  0  0
  141.0250   68.3770  227.8630 C   0  0  0  0  0  0  0  0  0  0  0  0
  140.4290   68.4510  226.6230 C   0  0  0  0  0  0  0  0  0  0  0  0
  139.2370   70.9690  224.1820 C   0  0  0  0  0  0  0  0  0  0  0  0
  137.9550   71.0080  223.4010 C   0  0  0  0  0  0  0  0  0  0  0  0
  138.1080   71.5930  222.0100 C   0  0  0  0  0  0  0  0  0  0  0  0
  138.8500   72.8530  222.2090 N   0  0  0  0  0  0  0  0  0  0  0  0
  138.1520   74.0380  221.9560 C   0  0  0  0  0  0  0  0  0  0  0  0
  136.9410   73.8980  221.5510 O   0  0  0  0  0  0  0  0  0  0  0  0
  138.6410   75.4250  222.1010 C   0  0  2  0  0  0  0  0  0  0  0  0
  137.6560   76.1400  222.9230 N   0  0  0  0  0  0  0  0  0  0  0  0
  138.8830   76.0840  220.7800 C   0  0  1  0  0  0  0  0  0  0  0  0
  138.2210   77.4890  220.9300 C   0  0  0  0  0  0  0  0  0  0  0  0
  139.1900   78.0750  221.9370 C   0  0  0  0  0  0  0  0  0  0  0  0
  139.0030   79.0020  222.9480 C   0  0  0  0  0  0  0  0  0  0  0  0
  140.0210   79.4030  223.8000 C   0  0  0  0  0  0  0  0  0  0  0  0
  141.2600   78.8070  223.5710 C   0  0  0  0  0  0  0  0  0  0  0  0
  141.4470   77.8850  222.5630 C   0  0  0  0  0  0  0  0  0  0  0  0
  140.4460   77.4870  221.7200 C   0  0  0  0  0  0  0  0  0  0  0  0
  140.2850   76.5850  220.5530 C   0  0  1  0  0  0  0  0  0  0  0  0
  141.3250   75.6310  220.3050 C   0  0  0  0  0  0  0  0  0  0  0  0
  142.6300   76.1220  220.0890 C   0  0  0  0  0  0  0  0  0  0  0  0
  143.6840   75.2810  219.8220 C   0  0  0  0  0  0  0  0  0  0  0  0
  143.5150   73.9160  219.7550 C   0  0  0  0  0  0  0  0  0  0  0  0
  142.2690   73.4510  219.9600 N   0  0  0  0  0  0  0  0  0  0  0  0
  141.2220   74.2590  220.2230 C   0  0  0  0  0  0  0  0  0  0  0  0
  140.2160   72.7140  222.6400 C   0  0  0  0  0  0  0  0  0  0  0  0
  140.3720   71.2930  223.2030 C   0  0  0  0  0  0  0  0  0  0  0  0
  138.6159   66.4643  222.7657 H   0  0  0  0  0  0  0  0  0  0  0  0
  137.9292   67.3351  221.3526 H   0  0  0  0  0  0  0  0  0  0  0  0
  139.6574   66.8453  221.3526 H   0  0  0  0  0  0  0  0  0  0  0  0
  140.2059   68.7717  222.2619 H   0  0  0  0  0  0  0  0  0  0  0  0
  138.4285   69.2286  222.2853 H   0  0  0  0  0  0  0  0  0  0  0  0
  140.1736   71.8633  226.3274 H   0  0  0  0  0  0  0  0  0  0  0  0
  141.2482   71.6612  228.5653 H   0  0  0  0  0  0  0  0  0  0  0  0
  141.7925   69.4642  229.5498 H   0  0  0  0  0  0  0  0  0  0  0  0
  141.2668   67.3954  228.2965 H   0  0  0  0  0  0  0  0  0  0  0  0
  140.1930   67.5310  226.0681 H   0  0  0  0  0  0  0  0  0  0  0  0
  139.1514   71.6931  225.0056 H   0  0  0  0  0  0  0  0  0  0  0  0
  137.5745   69.9803  223.3060 H   0  0  0  0  0  0  0  0  0  0  0  0
  137.2623   71.6619  223.9511 H   0  0  0  0  0  0  0  0  0  0  0  0
  138.6746   70.9081  221.3620 H   0  0  0  0  0  0  0  0  0  0  0  0
  137.1369   71.7566  221.5198 H   0  0  0  0  0  0  0  0  0  0  0  0
  139.6241   75.4381  222.5944 H   0  0  0  0  0  0  0  0  0  0  0  0
  136.6730   75.7910  222.7350 H   0  0  0  0  0  0  0  0  0  0  0  0
  137.8640   76.0650  223.9480 H   0  0  0  0  0  0  0  0  0  0  0  0
  138.5661   75.3558  220.0189 H   0  0  0  0  0  0  0  0  0  0  0  0
  138.2147   78.0494  219.9835 H   0  0  0  0  0  0  0  0  0  0  0  0
  137.1607   77.4933  221.2227 H   0  0  0  0  0  0  0  0  0  0  0  0
  138.0028   79.4398  223.0814 H   0  0  0  0  0  0  0  0  0  0  0  0
  139.8618   80.1401  224.6008 H   0  0  0  0  0  0  0  0  0  0  0  0
  142.1116   79.0796  224.2117 H   0  0  0  0  0  0  0  0  0  0  0  0
  142.4482   77.4490  222.4305 H   0  0  0  0  0  0  0  0  0  0  0  0
  140.4081   77.0824  219.5796 H   0  0  0  0  0  0  0  0  0  0  0  0
  142.8087   77.2064  220.1355 H   0  0  0  0  0  0  0  0  0  0  0  0
  144.6845   75.7078  219.6583 H   0  0  0  0  0  0  0  0  0  0  0  0
  144.3565   73.2396  219.5444 H   0  0  0  0  0  0  0  0  0  0  0  0
  140.2350   73.7996  220.3802 H   0  0  0  0  0  0  0  0  0  0  0  0
  140.8966   72.8587  221.7881 H   0  0  0  0  0  0  0  0  0  0  0  0
  140.4631   73.4661  223.4038 H   0  0  0  0  0  0  0  0  0  0  0  0
  140.3496   70.5715  222.3730 H   0  0  0  0  0  0  0  0  0  0  0  0
  141.3302   71.2289  223.7394 H   0  0  0  0  0  0  0  0  0  0  0  0
  1  2  1  0
  2  3  1  0
  3  4  2  0
  3  5  1  0
  5  6  1  0
  6  7  2  0
  7  8  1  0
  8  9  2  0
  9 10  1  0
 10 11  2  0
  5 12  1  0
 12 13  1  0
 13 14  1  0
 14 15  1  0
 15 16  1  0
 16 17  2  0
 16 18  1  0
 18 19  1  0
 18 20  1  0
 20 21  1  0
 21 22  1  0
 22 23  2  0
 23 24  1  0
 24 25  2  0
 25 26  1  0
 26 27  2  0
 27 28  1  0
 28 29  1  0
 29 30  2  0
 30 31  1  0
 31 32  2  0
 32 33  1  0
 33 34  2  0
 15 35  1  0
 35 36  1  0
 11  6  1  0
 36 12  1  0
 28 20  1  0
 34 29  1  0
 27 22  1  0
  1 37  1  0
  1 38  1  0
  1 39  1  0
  2 40  1  0
  2 41  1  0
  7 42  1  0
  8 43  1  0
  9 44  1  0
 10 45  1  0
 11 46  1  0
 12 47  1  0
 13 48  1  0
 13 49  1  0
 14 50  1  0
 14 51  1  0
 18 52  1  1
 19 53  1  0
 19 54  1  0
 20 55  1  6
 21 56  1  0
 21 57  1  0
 23 58  1  0
 24 59  1  0
 25 60  1  0
 26 61  1  0
 28 62  1  6
 30 63  1  0
 31 64  1  0
 32 65  1  0
 34 66  1  0
 35 67  1  0
 35 68  1  0
 36 69  1  0
 36 70  1  0
M  END
>  <smiles>  (159) 
CCC(=O)N(c1ccccc1)C1CCN(C(=O)[C@H](N)C2Cc3ccccc3C2c2cccnc2)CC1

>  <score_type>  (159) 
oracle

>  <origin>  (159) 
autodockgpu

>  <m_score__min__energy>  (159) 
-8.5700000000000003

>  <m_primary>  (159) 
energy

>  <rmsd>  (159) 
6.124050041318741

>  <m_score__min__rmsd>  (159) 
6.124050041318741

>  <meeko>  (159) 
{"free_energy": -8.57, "intermolecular_energy": -10.96, "internal_energy": -2.24, "cluster_size": 5, "cluster_id": 1, "rank_in_cluster": 1}

>  <energy>  (159) 
-7.21

>  <cluster_rmsd>  (159) 
0.5

>  <cluster>  (159) 
2

$$$$

     RDKit          3D

 70 74  0  0  0  0  0  0  0  0999 V2000
  137.0370   69.1710  223.8680 C   0  0  0  0  0  0  0  0  0  0  0  0
  138.1200   68.5300  223.0720 C   0  0  0  0  0  0  0  0  0  0  0  0
  139.2700   69.4180  222.7660 C   0  0  0  0  0  0  0  0  0  0  0  0
  139.9150   69.1460  221.7130 O   0  0  0  0  0  0  0  0  0  0  0  0
  139.5840   70.4850  223.6320 N   0  0  0  0  0  0  0  0  0  0  0  0
  140.0760   70.3220  224.9570 C   0  0  0  0  0  0  0  0  0  0  0  0
  140.0700   69.0970  225.6180 C   0  0  0  0  0  0  0  0  0  0  0  0
  140.5810   69.0830  226.9070 C   0  0  0  0  0  0  0  0  0  0  0  0
  141.0760   70.2160  227.5290 C   0  0  0  0  0  0  0  0  0  0  0  0
  141.0670   71.4080  226.8530 C   0  0  0  0  0  0  0  0  0  0  0  0
  140.5720   71.4740  225.5670 C   0  0  0  0  0  0  0  0  0  0  0  0
  139.4210   71.8500  223.1620 C   0  0  0  0  0  0  0  0  0  0  0  0
  138.2240   72.0470  222.2780 C   0  0  0  0  0  0  0  0  0  0  0  0
  138.5350   72.7810  220.9870 C   0  0  0  0  0  0  0  0  0  0  0  0
  139.3060   73.9680  221.4030 N   0  0  0  0  0  0  0  0  0  0  0  0
  138.6850   75.2100  221.2320 C   0  0  0  0  0  0  0  0  0  0  0  0
  137.5140   75.1820  220.7040 O   0  0  0  0  0  0  0  0  0  0  0  0
  139.2150   76.5430  221.5860 C   0  0  2  0  0  0  0  0  0  0  0  0
  138.3060   77.1090  222.5900 N   0  0  0  0  0  0  0  0  0  0  0  0
  139.3830   77.4250  220.3900 C   0  0  1  0  0  0  0  0  0  0  0  0
  138.8210   78.8050  220.8550 C   0  0  0  0  0  0  0  0  0  0  0  0
  139.9040   79.1510  221.8550 C   0  0  0  0  0  0  0  0  0  0  0  0
  139.8590   79.8810  223.0310 C   0  0  0  0  0  0  0  0  0  0  0  0
  140.9670   80.0720  223.8420 C   0  0  0  0  0  0  0  0  0  0  0  0
  142.1450   79.4780  223.3930 C   0  0  0  0  0  0  0  0  0  0  0  0
  142.1910   78.7520  222.2200 C   0  0  0  0  0  0  0  0  0  0  0  0
  141.1000   78.5610  221.4180 C   0  0  0  0  0  0  0  0  0  0  0  0
  140.7880   77.9000  220.1270 C   0  0  1  0  0  0  0  0  0  0  0  0
  141.7450   76.9660  219.6130 C   0  0  0  0  0  0  0  0  0  0  0  0
  142.1830   75.9340  220.4690 C   0  0  0  0  0  0  0  0  0  0  0  0
  143.1140   75.0060  220.0670 C   0  0  0  0  0  0  0  0  0  0  0  0
  143.6630   75.0410  218.8040 C   0  0  0  0  0  0  0  0  0  0  0  0
  143.2440   76.0260  217.9900 N   0  0  0  0  0  0  0  0  0  0  0  0
  142.3320   76.9450  218.3650 C   0  0  0  0  0  0  0  0  0  0  0  0
  140.6160   73.7090  221.9360 C   0  0  0  0  0  0  0  0  0  0  0  0
  140.6580   72.2260  222.3360 C   0  0  0  0  0  0  0  0  0  0  0  0
  137.2474   69.0465  224.9405 H   0  0  0  0  0  0  0  0  0  0  0  0
  136.9893   70.2429  223.6258 H   0  0  0  0  0  0  0  0  0  0  0  0
  136.0743   68.6971  223.6258 H   0  0  0  0  0  0  0  0  0  0  0  0
  138.4956   67.6647  223.6379 H   0  0  0  0  0  0  0  0  0  0  0  0
  137.6742   68.2526  222.1054 H   0  0  0  0  0  0  0  0  0  0  0  0
  139.6795   68.1856  225.1416 H   0  0  0  0  0  0  0  0  0  0  0  0
  140.5935   68.1313  227.4584 H   0  0  0  0  0  0  0  0  0  0  0  0
  141.4719   70.1603  228.5538 H   0  0  0  0  0  0  0  0  0  0  0  0
  141.4560   72.3157  227.3376 H   0  0  0  0  0  0  0  0  0  0  0  0
  140.5685   72.4312  225.0250 H   0  0  0  0  0  0  0  0  0  0  0  0
  139.2864   72.4765  224.0561 H   0  0  0  0  0  0  0  0  0  0  0  0
  137.8121   71.0588  222.0254 H   0  0  0  0  0  0  0  0  0  0  0  0
  137.5092   72.6683  222.8375 H   0  0  0  0  0  0  0  0  0  0  0  0
  139.1325   72.1470  220.3154 H   0  0  0  0  0  0  0  0  0  0  0  0
  137.6235   73.0516  220.4339 H   0  0  0  0  0  0  0  0  0  0  0  0
  140.2295   76.4572  222.0024 H   0  0  0  0  0  0  0  0  0  0  0  0
  137.3190   76.7420  222.4650 H   0  0  0  0  0  0  0  0  0  0  0  0
  138.6270   76.9210  223.5710 H   0  0  0  0  0  0  0  0  0  0  0  0
  138.9603   76.8653  219.5426 H   0  0  0  0  0  0  0  0  0  0  0  0
  138.7679   79.5317  220.0310 H   0  0  0  0  0  0  0  0  0  0  0  0
  137.7915   78.7999  221.2425 H   0  0  0  0  0  0  0  0  0  0  0  0
  138.9016   80.3292  223.3351 H   0  0  0  0  0  0  0  0  0  0  0  0
  140.9196   80.6523  224.7753 H   0  0  0  0  0  0  0  0  0  0  0  0
  143.0625   79.5907  223.9892 H   0  0  0  0  0  0  0  0  0  0  0  0
  143.1497   78.3064  221.9162 H   0  0  0  0  0  0  0  0  0  0  0  0
  140.8574   78.5646  219.2532 H   0  0  0  0  0  0  0  0  0  0  0  0
  141.7683   75.8701  221.4858 H   0  0  0  0  0  0  0  0  0  0  0  0
  143.4273   74.2188  220.7686 H   0  0  0  0  0  0  0  0  0  0  0  0
  144.4073   74.2998  218.4775 H   0  0  0  0  0  0  0  0  0  0  0  0
  142.0409   77.7179  217.6384 H   0  0  0  0  0  0  0  0  0  0  0  0
  141.3810   73.9155  221.1731 H   0  0  0  0  0  0  0  0  0  0  0  0
  140.8192   74.3537  222.8038 H   0  0  0  0  0  0  0  0  0  0  0  0
  140.6861   71.6077  221.4266 H   0  0  0  0  0  0  0  0  0  0  0  0
  141.5564   72.0503  222.9460 H   0  0  0  0  0  0  0  0  0  0  0  0
  1  2  1  0
  2  3  1  0
  3  4  2  0
  3  5  1  0
  5  6  1  0
  6  7  2  0
  7  8  1  0
  8  9  2  0
  9 10  1  0
 10 11  2  0
  5 12  1  0
 12 13  1  0
 13 14  1  0
 14 15  1  0
 15 16  1  0
 16 17  2  0
 16 18  1  0
 18 19  1  0
 18 20  1  0
 20 21  1  0
 21 22  1  0
 22 23  2  0
 23 24  1  0
 24 25  2  0
 25 26  1  0
 26 27  2  0
 27 28  1  0
 28 29  1  0
 29 30  2  0
 30 31  1  0
 31 32  2  0
 32 33  1  0
 33 34  2  0
 15 35  1  0
 35 36  1  0
 11  6  1  0
 36 12  1  0
 28 20  1  0
 34 29  1  0
 27 22  1  0
  1 37  1  0
  1 38  1  0
  1 39  1  0
  2 40  1  0
  2 41  1  0
  7 42  1  0
  8 43  1  0
  9 44  1  0
 10 45  1  0
 11 46  1  0
 12 47  1  0
 13 48  1  0
 13 49  1  0
 14 50  1  0
 14 51  1  0
 18 52  1  1
 19 53  1  0
 19 54  1  0
 20 55  1  6
 21 56  1  0
 21 57  1  0
 23 58  1  0
 24 59  1  0
 25 60  1  0
 26 61  1  0
 28 62  1  6
 30 63  1  0
 31 64  1  0
 32 65  1  0
 34 66  1  0
 35 67  1  0
 35 68  1  0
 36 69  1  0
 36 70  1  0
M  END
>  <smiles>  (160) 
CCC(=O)N(c1ccccc1)C1CCN(C(=O)[C@H](N)C2Cc3ccccc3C2c2cccnc2)CC1

>  <score_type>  (160) 
oracle

>  <origin>  (160) 
autodockgpu

>  <m_score__min__energy>  (160) 
-8.5700000000000003

>  <m_primary>  (160) 
energy

>  <rmsd>  (160) 
5.005512597787974

>  <m_score__min__rmsd>  (160) 
5.005512597787974

>  <meeko>  (160) 
{"free_energy": -7.56, "intermolecular_energy": -9.95, "internal_energy": -2.69, "cluster_size": 5, "cluster_id": 1, "rank_in_cluster": 5}

>  <energy>  (160) 
-7.2

>  <cluster_rmsd>  (160) 
0.5

>  <cluster>  (160) 
2

$$$$

     RDKit          3D

 70 74  0  0  0  0  0  0  0  0999 V2000
  138.7670   66.9780  222.4260 C   0  0  0  0  0  0  0  0  0  0  0  0
  137.8130   68.1190  222.3530 C   0  0  0  0  0  0  0  0  0  0  0  0
  137.6700   68.8860  223.6170 C   0  0  0  0  0  0  0  0  0  0  0  0
  136.5170   68.8870  224.1360 O   0  0  0  0  0  0  0  0  0  0  0  0
  138.7830   69.5560  224.1630 N   0  0  0  0  0  0  0  0  0  0  0  0
  139.4870   69.1260  225.3220 C   0  0  0  0  0  0  0  0  0  0  0  0
  139.6150   67.7840  225.6710 C   0  0  0  0  0  0  0  0  0  0  0  0
  140.3280   67.5080  226.8270 C   0  0  0  0  0  0  0  0  0  0  0  0
  140.8920   68.4970  227.6140 C   0  0  0  0  0  0  0  0  0  0  0  0
  140.7470   69.8090  227.2450 C   0  0  0  0  0  0  0  0  0  0  0  0
  140.0490   70.1360  226.1020 C   0  0  0  0  0  0  0  0  0  0  0  0
  139.2780   70.7560  223.5090 C   0  0  0  0  0  0  0  0  0  0  0  0
  138.2020   71.7450  223.1660 C   0  0  0  0  0  0  0  0  0  0  0  0
  138.2650   72.2380  221.7320 C   0  0  0  0  0  0  0  0  0  0  0  0
  139.6730   72.6290  221.5270 N   0  0  0  0  0  0  0  0  0  0  0  0
  139.9250   73.9940  221.3520 C   0  0  0  0  0  0  0  0  0  0  0  0
  138.8930   74.7590  221.3630 O   0  0  0  0  0  0  0  0  0  0  0  0
  141.2320   74.6540  221.1580 C   0  0  2  0  0  0  0  0  0  0  0  0
  141.2710   75.7990  222.0770 N   0  0  0  0  0  0  0  0  0  0  0  0
  141.4670   75.0450  219.7330 C   0  0  1  0  0  0  0  0  0  0  0  0
  142.8420   75.7820  219.7630 C   0  0  0  0  0  0  0  0  0  0  0  0
  143.7180   74.5870  220.0770 C   0  0  0  0  0  0  0  0  0  0  0  0
  144.9030   74.4870  220.7860 C   0  0  0  0  0  0  0  0  0  0  0  0
  145.5570   73.2820  220.9940 C   0  0  0  0  0  0  0  0  0  0  0  0
  144.9390   72.1630  220.4390 C   0  0  0  0  0  0  0  0  0  0  0  0
  143.7590   72.2630  219.7320 C   0  0  0  0  0  0  0  0  0  0  0  0
  143.1110   73.4490  219.5230 C   0  0  0  0  0  0  0  0  0  0  0  0
  141.8980   73.9290  218.8180 C   0  0  1  0  0  0  0  0  0  0  0  0
  140.9290   72.9490  218.4240 C   0  0  0  0  0  0  0  0  0  0  0  0
  139.6120   73.3900  218.1750 C   0  0  0  0  0  0  0  0  0  0  0  0
  138.6130   72.5170  217.8130 C   0  0  0  0  0  0  0  0  0  0  0  0
  138.8540   71.1680  217.6760 C   0  0  0  0  0  0  0  0  0  0  0  0
  140.1090   70.7510  217.9150 N   0  0  0  0  0  0  0  0  0  0  0  0
  141.1030   71.5900  218.2710 C   0  0  0  0  0  0  0  0  0  0  0  0
  140.6280   71.5540  221.5280 C   0  0  0  0  0  0  0  0  0  0  0  0
  139.9510   70.3460  222.1930 C   0  0  0  0  0  0  0  0  0  0  0  0
  138.9693   66.7360  223.4798 H   0  0  0  0  0  0  0  0  0  0  0  0
  138.3292   66.1014  221.9260 H   0  0  0  0  0  0  0  0  0  0  0  0
  139.7073   67.2536  221.9260 H   0  0  0  0  0  0  0  0  0  0  0  0
  138.1621   68.8088  221.5705 H   0  0  0  0  0  0  0  0  0  0  0  0
  136.8250   67.6865  222.1368 H   0  0  0  0  0  0  0  0  0  0  0  0
  139.1726   66.9834  225.0600 H   0  0  0  0  0  0  0  0  0  0  0  0
  140.4509   66.4583  227.1320 H   0  0  0  0  0  0  0  0  0  0  0  0
  141.4499   68.2333  228.5246 H   0  0  0  0  0  0  0  0  0  0  0  0
  141.1893   70.6041  227.8632 H   0  0  0  0  0  0  0  0  0  0  0  0
  139.9359   71.1895  225.8065 H   0  0  0  0  0  0  0  0  0  0  0  0
  139.9667   71.2393  224.2176 H   0  0  0  0  0  0  0  0  0  0  0  0
  137.2250   71.2656  223.3264 H   0  0  0  0  0  0  0  0  0  0  0  0
  138.3498   72.6207  223.8151 H   0  0  0  0  0  0  0  0  0  0  0  0
  137.9803   71.4367  221.0343 H   0  0  0  0  0  0  0  0  0  0  0  0
  137.5724   73.0730  221.5502 H   0  0  0  0  0  0  0  0  0  0  0  0
  142.0530   73.9585  221.3867 H   0  0  0  0  0  0  0  0  0  0  0  0
  141.8990   76.5690  221.7060 H   0  0  0  0  0  0  0  0  0  0  0  0
  140.3170   76.1900  222.2680 H   0  0  0  0  0  0  0  0  0  0  0  0
  140.5390   75.5318  219.3986 H   0  0  0  0  0  0  0  0  0  0  0  0
  143.0913   76.2375  218.7933 H   0  0  0  0  0  0  0  0  0  0  0  0
  142.9183   76.6312  220.4581 H   0  0  0  0  0  0  0  0  0  0  0  0
  145.3452   75.4039  221.2027 H   0  0  0  0  0  0  0  0  0  0  0  0
  146.4988   73.2141  221.5583 H   0  0  0  0  0  0  0  0  0  0  0  0
  145.4042   71.1746  220.5681 H   0  0  0  0  0  0  0  0  0  0  0  0
  143.3181   71.3449  219.3164 H   0  0  0  0  0  0  0  0  0  0  0  0
  142.0817   74.2686  217.7880 H   0  0  0  0  0  0  0  0  0  0  0  0
  139.3782   74.4604  218.2730 H   0  0  0  0  0  0  0  0  0  0  0  0
  137.6000   72.9044  217.6290 H   0  0  0  0  0  0  0  0  0  0  0  0
  138.0583   70.4663  217.3852 H   0  0  0  0  0  0  0  0  0  0  0  0
  142.1035   71.1686  218.4483 H   0  0  0  0  0  0  0  0  0  0  0  0
  140.9154   71.3042  220.4960 H   0  0  0  0  0  0  0  0  0  0  0  0
  141.5387   71.8410  222.0742 H   0  0  0  0  0  0  0  0  0  0  0  0
  139.1907   69.9378  221.5108 H   0  0  0  0  0  0  0  0  0  0  0  0
  140.7172   69.5872  222.4099 H   0  0  0  0  0  0  0  0  0  0  0  0
  1  2  1  0
  2  3  1  0
  3  4  2  0
  3  5  1  0
  5  6  1  0
  6  7  2  0
  7  8  1  0
  8  9  2  0
  9 10  1  0
 10 11  2  0
  5 12  1  0
 12 13  1  0
 13 14  1  0
 14 15  1  0
 15 16  1  0
 16 17  2  0
 16 18  1  0
 18 19  1  0
 18 20  1  0
 20 21  1  0
 21 22  1  0
 22 23  2  0
 23 24  1  0
 24 25  2  0
 25 26  1  0
 26 27  2  0
 27 28  1  0
 28 29  1  0
 29 30  2  0
 30 31  1  0
 31 32  2  0
 32 33  1  0
 33 34  2  0
 15 35  1  0
 35 36  1  0
 11  6  1  0
 36 12  1  0
 28 20  1  0
 34 29  1  0
 27 22  1  0
  1 37  1  0
  1 38  1  0
  1 39  1  0
  2 40  1  0
  2 41  1  0
  7 42  1  0
  8 43  1  0
  9 44  1  0
 10 45  1  0
 11 46  1  0
 12 47  1  0
 13 48  1  0
 13 49  1  0
 14 50  1  0
 14 51  1  0
 18 52  1  1
 19 53  1  0
 19 54  1  0
 20 55  1  6
 21 56  1  0
 21 57  1  0
 23 58  1  0
 24 59  1  0
 25 60  1  0
 26 61  1  0
 28 62  1  6
 30 63  1  0
 31 64  1  0
 32 65  1  0
 34 66  1  0
 35 67  1  0
 35 68  1  0
 36 69  1  0
 36 70  1  0
M  END
>  <smiles>  (161) 
CCC(=O)N(c1ccccc1)C1CCN(C(=O)[C@H](N)C2Cc3ccccc3C2c2cccnc2)CC1

>  <score_type>  (161) 
oracle

>  <origin>  (161) 
autodockgpu

>  <m_score__min__energy>  (161) 
-8.5700000000000003

>  <m_primary>  (161) 
energy

>  <rmsd>  (161) 
7.369327640330656

>  <m_score__min__rmsd>  (161) 
7.369327640330656

>  <meeko>  (161) 
{"free_energy": -7.12, "intermolecular_energy": -9.51, "internal_energy": -3.6, "cluster_size": 37, "cluster_id": 2, "rank_in_cluster": 14}

>  <energy>  (161) 
-7.18

>  <cluster_rmsd>  (161) 
0.27

>  <cluster>  (161) 
2

$$$$

     RDKit          3D

 70 74  0  0  0  0  0  0  0  0999 V2000
  138.6790   67.5700  221.5710 C   0  0  0  0  0  0  0  0  0  0  0  0
  139.2800   68.7380  222.2730 C   0  0  0  0  0  0  0  0  0  0  0  0
  139.1650   68.6950  223.7530 C   0  0  0  0  0  0  0  0  0  0  0  0
  138.7980   67.5910  224.2480 O   0  0  0  0  0  0  0  0  0  0  0  0
  139.4590   69.8440  224.5140 N   0  0  0  0  0  0  0  0  0  0  0  0
  140.0240   69.8170  225.8200 C   0  0  0  0  0  0  0  0  0  0  0  0
  140.2160   68.6370  226.5330 C   0  0  0  0  0  0  0  0  0  0  0  0
  140.7760   68.7570  227.7950 C   0  0  0  0  0  0  0  0  0  0  0  0
  141.1350   69.9760  228.3420 C   0  0  0  0  0  0  0  0  0  0  0  0
  140.9320   71.1210  227.6160 C   0  0  0  0  0  0  0  0  0  0  0  0
  140.3800   71.0550  226.3550 C   0  0  0  0  0  0  0  0  0  0  0  0
  139.1950   71.1560  223.9470 C   0  0  0  0  0  0  0  0  0  0  0  0
  137.9300   71.2240  223.1410 C   0  0  0  0  0  0  0  0  0  0  0  0
  138.1130   71.8580  221.7750 C   0  0  0  0  0  0  0  0  0  0  0  0
  138.8510   73.1090  222.0340 N   0  0  0  0  0  0  0  0  0  0  0  0
  138.1580   74.3030  221.8090 C   0  0  0  0  0  0  0  0  0  0  0  0
  136.9560   74.1790  221.3730 O   0  0  0  0  0  0  0  0  0  0  0  0
  138.6440   75.6840  222.0130 C   0  0  2  0  0  0  0  0  0  0  0  0
  137.6490   76.3660  222.8500 N   0  0  0  0  0  0  0  0  0  0  0  0
  138.9010   76.3940  220.7210 C   0  0  1  0  0  0  0  0  0  0  0  0
  138.2460   77.7960  220.9220 C   0  0  0  0  0  0  0  0  0  0  0  0
  139.2080   78.3350  221.9600 C   0  0  0  0  0  0  0  0  0  0  0  0
  139.0180   79.2220  223.0060 C   0  0  0  0  0  0  0  0  0  0  0  0
  140.0300   79.5830  223.8810 C   0  0  0  0  0  0  0  0  0  0  0  0
  141.2680   78.9900  223.6400 C   0  0  0  0  0  0  0  0  0  0  0  0
  141.4590   78.1070  222.5970 C   0  0  0  0  0  0  0  0  0  0  0  0
  140.4630   77.7490  221.7300 C   0  0  0  0  0  0  0  0  0  0  0  0
  140.3080   76.8960  220.5270 C   0  0  1  0  0  0  0  0  0  0  0  0
  141.3450   75.9460  220.2500 C   0  0  0  0  0  0  0  0  0  0  0  0
  142.6500   76.4400  220.0410 C   0  0  0  0  0  0  0  0  0  0  0  0
  143.7020   75.6040  219.7490 C   0  0  0  0  0  0  0  0  0  0  0  0
  143.5290   74.2420  219.6470 C   0  0  0  0  0  0  0  0  0  0  0  0
  142.2840   73.7740  219.8450 N   0  0  0  0  0  0  0  0  0  0  0  0
  141.2390   74.5770  220.1330 C   0  0  0  0  0  0  0  0  0  0  0  0
  140.2070   72.9540  222.4890 C   0  0  0  0  0  0  0  0  0  0  0  0
  140.3510   71.5140  223.0040 C   0  0  0  0  0  0  0  0  0  0  0  0
  138.3074   66.8478  222.3128 H   0  0  0  0  0  0  0  0  0  0  0  0
  137.8442   67.9107  220.9408 H   0  0  0  0  0  0  0  0  0  0  0  0
  139.4415   67.0888  220.9408 H   0  0  0  0  0  0  0  0  0  0  0  0
  140.3479   68.7826  222.0128 H   0  0  0  0  0  0  0  0  0  0  0  0
  138.7183   69.6240  221.9419 H   0  0  0  0  0  0  0  0  0  0  0  0
  139.9372   67.6582  226.1156 H   0  0  0  0  0  0  0  0  0  0  0  0
  140.9420   67.8447  228.3867 H   0  0  0  0  0  0  0  0  0  0  0  0
  141.5781   70.0259  229.3476 H   0  0  0  0  0  0  0  0  0  0  0  0
  141.2108   72.0962  228.0416 H   0  0  0  0  0  0  0  0  0  0  0  0
  140.2208   71.9747  225.7729 H   0  0  0  0  0  0  0  0  0  0  0  0
  139.0920   71.8502  224.7940 H   0  0  0  0  0  0  0  0  0  0  0  0
  137.5512   70.2007  223.0014 H   0  0  0  0  0  0  0  0  0  0  0  0
  137.2258   71.8585  223.6992 H   0  0  0  0  0  0  0  0  0  0  0  0
  138.6930   71.1958  221.1154 H   0  0  0  0  0  0  0  0  0  0  0  0
  137.1526   72.0402  221.2705 H   0  0  0  0  0  0  0  0  0  0  0  0
  139.6212   75.6785  222.5179 H   0  0  0  0  0  0  0  0  0  0  0  0
  136.6660   76.0470  222.6150 H   0  0  0  0  0  0  0  0  0  0  0  0
  137.8260   76.2250  223.8740 H   0  0  0  0  0  0  0  0  0  0  0  0
  138.5866   75.6989  219.9285 H   0  0  0  0  0  0  0  0  0  0  0  0
  138.2518   78.3942  219.9989 H   0  0  0  0  0  0  0  0  0  0  0  0
  137.1831   77.7947  221.2053 H   0  0  0  0  0  0  0  0  0  0  0  0
  138.0190   79.6597  223.1488 H   0  0  0  0  0  0  0  0  0  0  0  0
  139.8674   80.2890  224.7088 H   0  0  0  0  0  0  0  0  0  0  0  0
  142.1151   79.2322  224.2986 H   0  0  0  0  0  0  0  0  0  0  0  0
  142.4588   77.6705  222.4560 H   0  0  0  0  0  0  0  0  0  0  0  0
  140.4430   77.4319  219.5759 H   0  0  0  0  0  0  0  0  0  0  0  0
  142.8307   77.5226  220.1136 H   0  0  0  0  0  0  0  0  0  0  0  0
  144.7031   76.0326  219.5936 H   0  0  0  0  0  0  0  0  0  0  0  0
  144.3681   73.5696  219.4149 H   0  0  0  0  0  0  0  0  0  0  0  0
  140.2517   74.1154  220.2821 H   0  0  0  0  0  0  0  0  0  0  0  0
  140.9059   73.1287  221.6577 H   0  0  0  0  0  0  0  0  0  0  0  0
  140.4374   73.6782  223.2843 H   0  0  0  0  0  0  0  0  0  0  0  0
  140.3462   70.8226  222.1485 H   0  0  0  0  0  0  0  0  0  0  0  0
  141.2976   71.4300  223.5580 H   0  0  0  0  0  0  0  0  0  0  0  0
  1  2  1  0
  2  3  1  0
  3  4  2  0
  3  5  1  0
  5  6  1  0
  6  7  2  0
  7  8  1  0
  8  9  2  0
  9 10  1  0
 10 11  2  0
  5 12  1  0
 12 13  1  0
 13 14  1  0
 14 15  1  0
 15 16  1  0
 16 17  2  0
 16 18  1  0
 18 19  1  0
 18 20  1  0
 20 21  1  0
 21 22  1  0
 22 23  2  0
 23 24  1  0
 24 25  2  0
 25 26  1  0
 26 27  2  0
 27 28  1  0
 28 29  1  0
 29 30  2  0
 30 31  1  0
 31 32  2  0
 32 33  1  0
 33 34  2  0
 15 35  1  0
 35 36  1  0
 11  6  1  0
 36 12  1  0
 28 20  1  0
 34 29  1  0
 27 22  1  0
  1 37  1  0
  1 38  1  0
  1 39  1  0
  2 40  1  0
  2 41  1  0
  7 42  1  0
  8 43  1  0
  9 44  1  0
 10 45  1  0
 11 46  1  0
 12 47  1  0
 13 48  1  0
 13 49  1  0
 14 50  1  0
 14 51  1  0
 18 52  1  1
 19 53  1  0
 19 54  1  0
 20 55  1  6
 21 56  1  0
 21 57  1  0
 23 58  1  0
 24 59  1  0
 25 60  1  0
 26 61  1  0
 28 62  1  6
 30 63  1  0
 31 64  1  0
 32 65  1  0
 34 66  1  0
 35 67  1  0
 35 68  1  0
 36 69  1  0
 36 70  1  0
M  END
>  <smiles>  (162) 
CCC(=O)N(c1ccccc1)C1CCN(C(=O)[C@H](N)C2Cc3ccccc3C2c2cccnc2)CC1

>  <score_type>  (162) 
oracle

>  <origin>  (162) 
autodockgpu

>  <m_score__min__energy>  (162) 
-8.5700000000000003

>  <m_primary>  (162) 
energy

>  <rmsd>  (162) 
5.8742463287809175

>  <m_score__min__rmsd>  (162) 
5.8742463287809175

>  <meeko>  (162) 
{"free_energy": -8.38, "intermolecular_energy": -10.77, "internal_energy": -2.37, "cluster_size": 5, "cluster_id": 1, "rank_in_cluster": 2}

>  <energy>  (162) 
-7.18

>  <cluster_rmsd>  (162) 
0.46

>  <cluster>  (162) 
2

$$$$

     RDKit          3D

 70 74  0  0  0  0  0  0  0  0999 V2000
  138.6600   67.8050  221.3360 C   0  0  0  0  0  0  0  0  0  0  0  0
  138.7830   67.7200  222.8170 C   0  0  0  0  0  0  0  0  0  0  0  0
  138.2580   68.9010  223.5490 C   0  0  0  0  0  0  0  0  0  0  0  0
  137.0020   69.0460  223.5370 O   0  0  0  0  0  0  0  0  0  0  0  0
  139.1490   69.7770  224.2020 N   0  0  0  0  0  0  0  0  0  0  0  0
  139.6960   69.5460  225.4950 C   0  0  0  0  0  0  0  0  0  0  0  0
  139.7670   68.2780  226.0670 C   0  0  0  0  0  0  0  0  0  0  0  0
  140.3240   68.1980  227.3340 C   0  0  0  0  0  0  0  0  0  0  0  0
  140.7920   69.3070  228.0180 C   0  0  0  0  0  0  0  0  0  0  0  0
  140.7070   70.5410  227.4280 C   0  0  0  0  0  0  0  0  0  0  0  0
  140.1640   70.6740  226.1680 C   0  0  0  0  0  0  0  0  0  0  0  0
  139.5690   70.9930  223.5260 C   0  0  0  0  0  0  0  0  0  0  0  0
  138.4300   71.8860  223.1260 C   0  0  0  0  0  0  0  0  0  0  0  0
  138.4950   72.3430  221.6810 C   0  0  0  0  0  0  0  0  0  0  0  0
  139.8740   72.8360  221.5010 N   0  0  0  0  0  0  0  0  0  0  0  0
  140.0260   74.2100  221.2920 C   0  0  0  0  0  0  0  0  0  0  0  0
  138.9390   74.8940  221.2540 O   0  0  0  0  0  0  0  0  0  0  0  0
  141.2840   74.9650  221.1110 C   0  0  2  0  0  0  0  0  0  0  0  0
  141.1910   76.1570  221.9640 N   0  0  0  0  0  0  0  0  0  0  0  0
  141.5490   75.2950  219.6770 C   0  0  1  0  0  0  0  0  0  0  0  0
  142.9700   75.9400  219.6920 C   0  0  0  0  0  0  0  0  0  0  0  0
  143.7640   74.7010  220.0480 C   0  0  0  0  0  0  0  0  0  0  0  0
  144.9370   74.5450  220.7660 C   0  0  0  0  0  0  0  0  0  0  0  0
  145.5090   73.3070  221.0150 C   0  0  0  0  0  0  0  0  0  0  0  0
  144.8210   72.2150  220.4900 C   0  0  0  0  0  0  0  0  0  0  0  0
  143.6530   72.3700  219.7740 C   0  0  0  0  0  0  0  0  0  0  0  0
  143.0850   73.5890  219.5250 C   0  0  0  0  0  0  0  0  0  0  0  0
  141.9090   74.1260  218.7990 C   0  0  1  0  0  0  0  0  0  0  0  0
  140.8790   73.2000  218.4290 C   0  0  0  0  0  0  0  0  0  0  0  0
  139.5930   73.7170  218.1680 C   0  0  0  0  0  0  0  0  0  0  0  0
  138.5400   72.9010  217.8280 C   0  0  0  0  0  0  0  0  0  0  0  0
  138.6940   71.5360  217.7250 C   0  0  0  0  0  0  0  0  0  0  0  0
  139.9210   71.0460  217.9750 N   0  0  0  0  0  0  0  0  0  0  0  0
  140.9660   71.8290  218.3100 C   0  0  0  0  0  0  0  0  0  0  0  0
  140.9080   71.8380  221.5570 C   0  0  0  0  0  0  0  0  0  0  0  0
  140.3070   70.6000  222.2400 C   0  0  0  0  0  0  0  0  0  0  0  0
  137.7808   68.4125  221.0754 H   0  0  0  0  0  0  0  0  0  0  0  0
  139.5647   68.2715  220.9191 H   0  0  0  0  0  0  0  0  0  0  0  0
  138.5435   66.7937  220.9191 H   0  0  0  0  0  0  0  0  0  0  0  0
  138.2302   66.8318  223.1569 H   0  0  0  0  0  0  0  0  0  0  0  0
  139.8593   67.6687  223.0384 H   0  0  0  0  0  0  0  0  0  0  0  0
  139.3996   67.3851  225.5400 H   0  0  0  0  0  0  0  0  0  0  0  0
  140.3972   67.2120  227.8161 H   0  0  0  0  0  0  0  0  0  0  0  0
  141.2267   69.1990  229.0227 H   0  0  0  0  0  0  0  0  0  0  0  0
  141.0739   71.4297  227.9625 H   0  0  0  0  0  0  0  0  0  0  0  0
  140.1002   71.6654  225.6956 H   0  0  0  0  0  0  0  0  0  0  0  0
  140.1990   71.5471  224.2374 H   0  0  0  0  0  0  0  0  0  0  0  0
  137.4886   71.3368  223.2750 H   0  0  0  0  0  0  0  0  0  0  0  0
  138.4919   72.7880  223.7526 H   0  0  0  0  0  0  0  0  0  0  0  0
  138.2921   71.5034  220.9999 H   0  0  0  0  0  0  0  0  0  0  0  0
  137.7458   73.1167  221.4570 H   0  0  0  0  0  0  0  0  0  0  0  0
  142.1479   74.3537  221.4109 H   0  0  0  0  0  0  0  0  0  0  0  0
  140.2190   76.2620  222.3740 H   0  0  0  0  0  0  0  0  0  0  0  0
  141.8970   76.1490  222.7380 H   0  0  0  0  0  0  0  0  0  0  0  0
  140.6561   75.8311  219.3229 H   0  0  0  0  0  0  0  0  0  0  0  0
  143.2525   76.3473  218.7100 H   0  0  0  0  0  0  0  0  0  0  0  0
  143.0997   76.8036  220.3609 H   0  0  0  0  0  0  0  0  0  0  0  0
  145.4376   75.4433  221.1564 H   0  0  0  0  0  0  0  0  0  0  0  0
  146.4416   73.1945  221.5875 H   0  0  0  0  0  0  0  0  0  0  0  0
  145.2202   71.2027  220.6510 H   0  0  0  0  0  0  0  0  0  0  0  0
  143.1542   71.4703  219.3844 H   0  0  0  0  0  0  0  0  0  0  0  0
  142.1186   74.4214  217.7603 H   0  0  0  0  0  0  0  0  0  0  0  0
  139.4281   74.8023  218.2384 H   0  0  0  0  0  0  0  0  0  0  0  0
  137.5536   73.3476  217.6341 H   0  0  0  0  0  0  0  0  0  0  0  0
  137.8548   70.8794  217.4518 H   0  0  0  0  0  0  0  0  0  0  0  0
  141.9380   71.3496  218.4981 H   0  0  0  0  0  0  0  0  0  0  0  0
  141.2414   71.5831  220.5402 H   0  0  0  0  0  0  0  0  0  0  0  0
  141.7792   72.2089  222.1169 H   0  0  0  0  0  0  0  0  0  0  0  0
  139.5990   70.1160  221.5512 H   0  0  0  0  0  0  0  0  0  0  0  0
  141.1226   69.9085  222.4983 H   0  0  0  0  0  0  0  0  0  0  0  0
  1  2  1  0
  2  3  1  0
  3  4  2  0
  3  5  1  0
  5  6  1  0
  6  7  2  0
  7  8  1  0
  8  9  2  0
  9 10  1  0
 10 11  2  0
  5 12  1  0
 12 13  1  0
 13 14  1  0
 14 15  1  0
 15 16  1  0
 16 17  2  0
 16 18  1  0
 18 19  1  0
 18 20  1  0
 20 21  1  0
 21 22  1  0
 22 23  2  0
 23 24  1  0
 24 25  2  0
 25 26  1  0
 26 27  2  0
 27 28  1  0
 28 29  1  0
 29 30  2  0
 30 31  1  0
 31 32  2  0
 32 33  1  0
 33 34  2  0
 15 35  1  0
 35 36  1  0
 11  6  1  0
 36 12  1  0
 28 20  1  0
 34 29  1  0
 27 22  1  0
  1 37  1  0
  1 38  1  0
  1 39  1  0
  2 40  1  0
  2 41  1  0
  7 42  1  0
  8 43  1  0
  9 44  1  0
 10 45  1  0
 11 46  1  0
 12 47  1  0
 13 48  1  0
 13 49  1  0
 14 50  1  0
 14 51  1  0
 18 52  1  1
 19 53  1  0
 19 54  1  0
 20 55  1  6
 21 56  1  0
 21 57  1  0
 23 58  1  0
 24 59  1  0
 25 60  1  0
 26 61  1  0
 28 62  1  6
 30 63  1  0
 31 64  1  0
 32 65  1  0
 34 66  1  0
 35 67  1  0
 35 68  1  0
 36 69  1  0
 36 70  1  0
M  END
>  <smiles>  (163) 
CCC(=O)N(c1ccccc1)C1CCN(C(=O)[C@H](N)C2Cc3ccccc3C2c2cccnc2)CC1

>  <score_type>  (163) 
oracle

>  <origin>  (163) 
autodockgpu

>  <m_score__min__energy>  (163) 
-8.5700000000000003

>  <m_primary>  (163) 
energy

>  <rmsd>  (163) 
7.238058979005851

>  <m_score__min__rmsd>  (163) 
7.238058979005851

>  <meeko>  (163) 
{"free_energy": -6.95, "intermolecular_energy": -9.33, "internal_energy": -3.74, "cluster_size": 37, "cluster_id": 2, "rank_in_cluster": 32}

>  <energy>  (163) 
-7.17

>  <cluster_rmsd>  (163) 
0.46

>  <cluster>  (163) 
2

$$$$

     RDKit          3D

 70 74  0  0  0  0  0  0  0  0999 V2000
  136.2660   69.6080  224.7970 C   0  0  0  0  0  0  0  0  0  0  0  0
  137.0620   69.1650  223.6190 C   0  0  0  0  0  0  0  0  0  0  0  0
  138.4750   68.8230  223.9210 C   0  0  0  0  0  0  0  0  0  0  0  0
  138.8390   67.6530  223.6090 O   0  0  0  0  0  0  0  0  0  0  0  0
  139.3170   69.7810  224.5200 N   0  0  0  0  0  0  0  0  0  0  0  0
  139.8660   69.6590  225.8270 C   0  0  0  0  0  0  0  0  0  0  0  0
  140.3390   70.7510  226.5500 C   0  0  0  0  0  0  0  0  0  0  0  0
  140.8480   70.4870  227.8120 C   0  0  0  0  0  0  0  0  0  0  0  0
  140.8960   69.2130  228.3490 C   0  0  0  0  0  0  0  0  0  0  0  0
  140.4250   68.1580  227.6120 C   0  0  0  0  0  0  0  0  0  0  0  0
  139.9060   68.3670  226.3520 C   0  0  0  0  0  0  0  0  0  0  0  0
  139.6810   70.9710  223.7700 C   0  0  0  0  0  0  0  0  0  0  0  0
  138.5170   71.8650  223.4510 C   0  0  0  0  0  0  0  0  0  0  0  0
  138.4490   72.2770  221.9920 C   0  0  0  0  0  0  0  0  0  0  0  0
  139.8090   72.7480  221.6680 N   0  0  0  0  0  0  0  0  0  0  0  0
  139.9510   74.1150  221.4040 C   0  0  0  0  0  0  0  0  0  0  0  0
  138.8710   74.8090  221.4470 O   0  0  0  0  0  0  0  0  0  0  0  0
  141.1920   74.8490  221.0830 C   0  0  2  0  0  0  0  0  0  0  0  0
  141.1790   76.0790  221.8850 N   0  0  0  0  0  0  0  0  0  0  0  0
  141.3350   75.1130  219.6170 C   0  0  1  0  0  0  0  0  0  0  0  0
  142.7130   75.8350  219.4940 C   0  0  0  0  0  0  0  0  0  0  0  0
  143.6020   74.6630  219.8530 C   0  0  0  0  0  0  0  0  0  0  0  0
  144.8310   74.6120  220.4900 C   0  0  0  0  0  0  0  0  0  0  0  0
  145.4910   73.4240  220.7590 C   0  0  0  0  0  0  0  0  0  0  0  0
  144.8330   72.2670  220.3440 C   0  0  0  0  0  0  0  0  0  0  0  0
  143.6090   72.3170  219.7090 C   0  0  0  0  0  0  0  0  0  0  0  0
  142.9550   73.4880  219.4400 C   0  0  0  0  0  0  0  0  0  0  0  0
  141.7000   73.9180  218.7760 C   0  0  1  0  0  0  0  0  0  0  0  0
  140.7030   72.9180  218.5330 C   0  0  0  0  0  0  0  0  0  0  0  0
  139.3670   73.3450  218.3810 C   0  0  0  0  0  0  0  0  0  0  0  0
  138.3430   72.4530  218.1650 C   0  0  0  0  0  0  0  0  0  0  0  0
  138.5750   71.0980  218.0860 C   0  0  0  0  0  0  0  0  0  0  0  0
  139.8490   70.6940  218.2320 N   0  0  0  0  0  0  0  0  0  0  0  0
  140.8680   71.5520  218.4440 C   0  0  0  0  0  0  0  0  0  0  0  0
  140.8360   71.7410  221.6590 C   0  0  0  0  0  0  0  0  0  0  0  0
  140.2920   70.5320  222.4340 C   0  0  0  0  0  0  0  0  0  0  0  0
  136.7869   69.3181  225.7215 H   0  0  0  0  0  0  0  0  0  0  0  0
  136.1483   70.7014  224.7698 H   0  0  0  0  0  0  0  0  0  0  0  0
  135.2748   69.1318  224.7698 H   0  0  0  0  0  0  0  0  0  0  0  0
  136.5771   68.2745  223.1925 H   0  0  0  0  0  0  0  0  0  0  0  0
  137.0892   70.0165  222.9231 H   0  0  0  0  0  0  0  0  0  0  0  0
  140.3102   71.7715  226.1404 H   0  0  0  0  0  0  0  0  0  0  0  0
  141.2300   71.3261  228.4119 H   0  0  0  0  0  0  0  0  0  0  0  0
  141.3074   69.0487  229.3558 H   0  0  0  0  0  0  0  0  0  0  0  0
  140.4612   67.1401  228.0275 H   0  0  0  0  0  0  0  0  0  0  0  0
  139.5253   67.5192  225.7635 H   0  0  0  0  0  0  0  0  0  0  0  0
  140.3793   71.5391  224.4021 H   0  0  0  0  0  0  0  0  0  0  0  0
  137.5891   71.3318  223.7053 H   0  0  0  0  0  0  0  0  0  0  0  0
  138.6460   72.7849  224.0402 H   0  0  0  0  0  0  0  0  0  0  0  0
  138.1754   71.4194  221.3598 H   0  0  0  0  0  0  0  0  0  0  0  0
  137.6887   73.0520  221.8151 H   0  0  0  0  0  0  0  0  0  0  0  0
  142.0746   74.2432  221.3362 H   0  0  0  0  0  0  0  0  0  0  0  0
  140.2450   76.2110  222.3700 H   0  0  0  0  0  0  0  0  0  0  0  0
  141.9480   76.1000  222.5970 H   0  0  0  0  0  0  0  0  0  0  0  0
  140.3894   75.5787  219.3025 H   0  0  0  0  0  0  0  0  0  0  0  0
  142.9006   76.2025  218.4743 H   0  0  0  0  0  0  0  0  0  0  0  0
  142.8387   76.7399  220.1067 H   0  0  0  0  0  0  0  0  0  0  0  0
  145.3040   75.5568  220.7959 H   0  0  0  0  0  0  0  0  0  0  0  0
  146.4672   73.3955  221.2653 H   0  0  0  0  0  0  0  0  0  0  0  0
  145.3018   71.2890  220.5275 H   0  0  0  0  0  0  0  0  0  0  0  0
  143.1371   71.3711  219.4049 H   0  0  0  0  0  0  0  0  0  0  0  0
  141.8174   74.1656  217.7107 H   0  0  0  0  0  0  0  0  0  0  0  0
  139.1385   74.4196  218.4367 H   0  0  0  0  0  0  0  0  0  0  0  0
  137.3158   72.8302  218.0528 H   0  0  0  0  0  0  0  0  0  0  0  0
  137.7585   70.3817  217.9121 H   0  0  0  0  0  0  0  0  0  0  0  0
  141.8826   71.1408  218.5514 H   0  0  0  0  0  0  0  0  0  0  0  0
  141.0706   71.4510  220.6242 H   0  0  0  0  0  0  0  0  0  0  0  0
  141.7587   72.1196  222.1229 H   0  0  0  0  0  0  0  0  0  0  0  0
  139.5187   70.0348  221.8300 H   0  0  0  0  0  0  0  0  0  0  0  0
  141.1231   69.8406  222.6370 H   0  0  0  0  0  0  0  0  0  0  0  0
  1  2  1  0
  2  3  1  0
  3  4  2  0
  3  5  1  0
  5  6  1  0
  6  7  2  0
  7  8  1  0
  8  9  2  0
  9 10  1  0
 10 11  2  0
  5 12  1  0
 12 13  1  0
 13 14  1  0
 14 15  1  0
 15 16  1  0
 16 17  2  0
 16 18  1  0
 18 19  1  0
 18 20  1  0
 20 21  1  0
 21 22  1  0
 22 23  2  0
 23 24  1  0
 24 25  2  0
 25 26  1  0
 26 27  2  0
 27 28  1  0
 28 29  1  0
 29 30  2  0
 30 31  1  0
 31 32  2  0
 32 33  1  0
 33 34  2  0
 15 35  1  0
 35 36  1  0
 11  6  1  0
 36 12  1  0
 28 20  1  0
 34 29  1  0
 27 22  1  0
  1 37  1  0
  1 38  1  0
  1 39  1  0
  2 40  1  0
  2 41  1  0
  7 42  1  0
  8 43  1  0
  9 44  1  0
 10 45  1  0
 11 46  1  0
 12 47  1  0
 13 48  1  0
 13 49  1  0
 14 50  1  0
 14 51  1  0
 18 52  1  1
 19 53  1  0
 19 54  1  0
 20 55  1  6
 21 56  1  0
 21 57  1  0
 23 58  1  0
 24 59  1  0
 25 60  1  0
 26 61  1  0
 28 62  1  6
 30 63  1  0
 31 64  1  0
 32 65  1  0
 34 66  1  0
 35 67  1  0
 35 68  1  0
 36 69  1  0
 36 70  1  0
M  END
>  <smiles>  (164) 
CCC(=O)N(c1ccccc1)C1CCN(C(=O)[C@H](N)C2Cc3ccccc3C2c2cccnc2)CC1

>  <score_type>  (164) 
oracle

>  <origin>  (164) 
autodockgpu

>  <m_score__min__energy>  (164) 
-8.5700000000000003

>  <m_primary>  (164) 
energy

>  <rmsd>  (164) 
7.307799967017909

>  <m_score__min__rmsd>  (164) 
7.307799967017909

>  <meeko>  (164) 
{"free_energy": -7.15, "intermolecular_energy": -9.53, "internal_energy": -3.6, "cluster_size": 37, "cluster_id": 2, "rank_in_cluster": 12}

>  <energy>  (164) 
-7.16

>  <cluster_rmsd>  (164) 
0.48

>  <cluster>  (164) 
2

$$$$

     RDKit          3D

 70 74  0  0  0  0  0  0  0  0999 V2000
  138.0870   67.7460  221.3830 C   0  0  0  0  0  0  0  0  0  0  0  0
  138.4550   67.5820  222.8170 C   0  0  0  0  0  0  0  0  0  0  0  0
  138.0210   68.6970  223.6970 C   0  0  0  0  0  0  0  0  0  0  0  0
  136.7720   68.8350  223.8400 O   0  0  0  0  0  0  0  0  0  0  0  0
  138.9840   69.5210  224.3140 N   0  0  0  0  0  0  0  0  0  0  0  0
  139.6120   69.2280  225.5560 C   0  0  0  0  0  0  0  0  0  0  0  0
  139.8360   67.9270  225.9990 C   0  0  0  0  0  0  0  0  0  0  0  0
  140.4580   67.7860  227.2290 C   0  0  0  0  0  0  0  0  0  0  0  0
  140.8460   68.8680  228.0000 C   0  0  0  0  0  0  0  0  0  0  0  0
  140.6110   70.1370  227.5380 C   0  0  0  0  0  0  0  0  0  0  0  0
  139.9980   70.3300  226.3180 C   0  0  0  0  0  0  0  0  0  0  0  0
  139.3950   70.7470  223.6510 C   0  0  0  0  0  0  0  0  0  0  0  0
  138.2720   71.7170  223.4230 C   0  0  0  0  0  0  0  0  0  0  0  0
  138.2020   72.2440  222.0010 C   0  0  0  0  0  0  0  0  0  0  0  0
  139.5790   72.6740  221.6890 N   0  0  0  0  0  0  0  0  0  0  0  0
  139.7840   74.0480  221.5270 C   0  0  0  0  0  0  0  0  0  0  0  0
  138.7400   74.7870  221.6440 O   0  0  0  0  0  0  0  0  0  0  0  0
  141.0550   74.7450  221.2410 C   0  0  2  0  0  0  0  0  0  0  0  0
  141.0820   75.9460  222.0850 N   0  0  0  0  0  0  0  0  0  0  0  0
  141.2200   75.0540  219.7860 C   0  0  1  0  0  0  0  0  0  0  0  0
  142.6010   75.7760  219.7060 C   0  0  0  0  0  0  0  0  0  0  0  0
  143.4820   74.5900  220.0410 C   0  0  0  0  0  0  0  0  0  0  0  0
  144.7010   74.5160  220.6930 C   0  0  0  0  0  0  0  0  0  0  0  0
  145.3540   73.3170  220.9350 C   0  0  0  0  0  0  0  0  0  0  0  0
  144.6990   72.1770  220.4750 C   0  0  0  0  0  0  0  0  0  0  0  0
  143.4850   72.2500  219.8240 C   0  0  0  0  0  0  0  0  0  0  0  0
  142.8380   73.4300  219.5820 C   0  0  0  0  0  0  0  0  0  0  0  0
  141.5940   73.8840  218.9140 C   0  0  1  0  0  0  0  0  0  0  0  0
  140.5980   72.8950  218.6250 C   0  0  0  0  0  0  0  0  0  0  0  0
  141.0370   71.5930  218.3060 C   0  0  0  0  0  0  0  0  0  0  0  0
  140.1530   70.5880  217.9950 C   0  0  0  0  0  0  0  0  0  0  0  0
  138.7930   70.8060  217.9810 C   0  0  0  0  0  0  0  0  0  0  0  0
  138.3780   72.0480  218.2840 N   0  0  0  0  0  0  0  0  0  0  0  0
  139.2280   73.0480  218.5920 C   0  0  0  0  0  0  0  0  0  0  0  0
  140.5550   71.6220  221.5840 C   0  0  0  0  0  0  0  0  0  0  0  0
  139.9640   70.3840  222.2740 C   0  0  0  0  0  0  0  0  0  0  0  0
  137.0845   68.1928  221.3105 H   0  0  0  0  0  0  0  0  0  0  0  0
  138.8180   68.4035  220.8897 H   0  0  0  0  0  0  0  0  0  0  0  0
  138.0868   66.7628  220.8897 H   0  0  0  0  0  0  0  0  0  0  0  0
  137.9937   66.6540  223.1859 H   0  0  0  0  0  0  0  0  0  0  0  0
  139.5541   67.5623  222.8570 H   0  0  0  0  0  0  0  0  0  0  0  0
  139.5340   67.0541  225.4017 H   0  0  0  0  0  0  0  0  0  0  0  0
  140.6515   66.7719  227.6086 H   0  0  0  0  0  0  0  0  0  0  0  0
  141.3370   68.7115  228.9718 H   0  0  0  0  0  0  0  0  0  0  0  0
  140.9126   71.0048  228.1429 H   0  0  0  0  0  0  0  0  0  0  0  0
  139.8143   71.3493  225.9474 H   0  0  0  0  0  0  0  0  0  0  0  0
  140.1296   71.2305  224.3118 H   0  0  0  0  0  0  0  0  0  0  0  0
  137.3231   71.2104  223.6530 H   0  0  0  0  0  0  0  0  0  0  0  0
  138.4550   72.5814  224.0782 H   0  0  0  0  0  0  0  0  0  0  0  0
  137.8776   71.4520  221.3100 H   0  0  0  0  0  0  0  0  0  0  0  0
  137.4776   73.0654  221.8982 H   0  0  0  0  0  0  0  0  0  0  0  0
  141.9117   74.0977  221.4796 H   0  0  0  0  0  0  0  0  0  0  0  0
  140.1960   76.0300  222.6620 H   0  0  0  0  0  0  0  0  0  0  0  0
  141.9150   75.9680  222.7210 H   0  0  0  0  0  0  0  0  0  0  0  0
  140.2804   75.5320  219.4718 H   0  0  0  0  0  0  0  0  0  0  0  0
  142.8045   76.1750  218.7013 H   0  0  0  0  0  0  0  0  0  0  0  0
  142.7198   76.6610  220.3484 H   0  0  0  0  0  0  0  0  0  0  0  0
  145.1723   75.4495  221.0341 H   0  0  0  0  0  0  0  0  0  0  0  0
  146.3225   73.2694  221.4544 H   0  0  0  0  0  0  0  0  0  0  0  0
  145.1622   71.1922  220.6351 H   0  0  0  0  0  0  0  0  0  0  0  0
  143.0155   71.3152  219.4837 H   0  0  0  0  0  0  0  0  0  0  0  0
  141.7273   74.1640  217.8586 H   0  0  0  0  0  0  0  0  0  0  0  0
  142.1155   71.3765  218.3062 H   0  0  0  0  0  0  0  0  0  0  0  0
  140.5399   69.5874  217.7519 H   0  0  0  0  0  0  0  0  0  0  0  0
  138.0821   70.0037  217.7342 H   0  0  0  0  0  0  0  0  0  0  0  0
  138.8073   74.0363  218.8290 H   0  0  0  0  0  0  0  0  0  0  0  0
  140.7597   71.4020  220.5258 H   0  0  0  0  0  0  0  0  0  0  0  0
  141.5019   71.9189  222.0586 H   0  0  0  0  0  0  0  0  0  0  0  0
  139.1585   69.9725  221.6481 H   0  0  0  0  0  0  0  0  0  0  0  0
  140.7632   69.6401  222.4079 H   0  0  0  0  0  0  0  0  0  0  0  0
  1  2  1  0
  2  3  1  0
  3  4  2  0
  3  5  1  0
  5  6  1  0
  6  7  2  0
  7  8  1  0
  8  9  2  0
  9 10  1  0
 10 11  2  0
  5 12  1  0
 12 13  1  0
 13 14  1  0
 14 15  1  0
 15 16  1  0
 16 17  2  0
 16 18  1  0
 18 19  1  0
 18 20  1  0
 20 21  1  0
 21 22  1  0
 22 23  2  0
 23 24  1  0
 24 25  2  0
 25 26  1  0
 26 27  2  0
 27 28  1  0
 28 29  1  0
 29 30  2  0
 30 31  1  0
 31 32  2  0
 32 33  1  0
 33 34  2  0
 15 35  1  0
 35 36  1  0
 11  6  1  0
 36 12  1  0
 28 20  1  0
 34 29  1  0
 27 22  1  0
  1 37  1  0
  1 38  1  0
  1 39  1  0
  2 40  1  0
  2 41  1  0
  7 42  1  0
  8 43  1  0
  9 44  1  0
 10 45  1  0
 11 46  1  0
 12 47  1  0
 13 48  1  0
 13 49  1  0
 14 50  1  0
 14 51  1  0
 18 52  1  1
 19 53  1  0
 19 54  1  0
 20 55  1  6
 21 56  1  0
 21 57  1  0
 23 58  1  0
 24 59  1  0
 25 60  1  0
 26 61  1  0
 28 62  1  6
 30 63  1  0
 31 64  1  0
 32 65  1  0
 34 66  1  0
 35 67  1  0
 35 68  1  0
 36 69  1  0
 36 70  1  0
M  END
>  <smiles>  (165) 
CCC(=O)N(c1ccccc1)C1CCN(C(=O)[C@H](N)C2Cc3ccccc3C2c2cccnc2)CC1

>  <score_type>  (165) 
oracle

>  <origin>  (165) 
autodockgpu

>  <m_score__min__energy>  (165) 
-8.5700000000000003

>  <m_primary>  (165) 
energy

>  <rmsd>  (165) 
7.342623251563309

>  <m_score__min__rmsd>  (165) 
7.342623251563309

>  <meeko>  (165) 
{"free_energy": -7.0, "intermolecular_energy": -9.39, "internal_energy": -3.58, "cluster_size": 37, "cluster_id": 2, "rank_in_cluster": 27}

>  <energy>  (165) 
-7.16

>  <cluster_rmsd>  (165) 
0.56

>  <cluster>  (165) 
2

$$$$

     RDKit          3D

 70 74  0  0  0  0  0  0  0  0999 V2000
  146.3750   73.0580  222.0590 C   0  0  0  0  0  0  0  0  0  0  0  0
  146.4020   73.9470  220.8640 C   0  0  0  0  0  0  0  0  0  0  0  0
  145.8690   73.3290  219.6220 C   0  0  0  0  0  0  0  0  0  0  0  0
  146.6170   73.3980  218.6050 O   0  0  0  0  0  0  0  0  0  0  0  0
  144.6000   72.7170  219.6310 N   0  0  0  0  0  0  0  0  0  0  0  0
  144.3570   71.3730  219.2330 C   0  0  0  0  0  0  0  0  0  0  0  0
  143.9710   70.3800  220.1300 C   0  0  0  0  0  0  0  0  0  0  0  0
  143.7680   69.1130  219.6050 C   0  0  0  0  0  0  0  0  0  0  0  0
  143.9350   68.8230  218.2620 C   0  0  0  0  0  0  0  0  0  0  0  0
  144.3170   69.8210  217.4040 C   0  0  0  0  0  0  0  0  0  0  0  0
  144.5290   71.0990  217.8760 C   0  0  0  0  0  0  0  0  0  0  0  0
  143.4490   73.4780  220.0890 C   0  0  0  0  0  0  0  0  0  0  0  0
  142.1350   72.9340  219.6080 C   0  0  0  0  0  0  0  0  0  0  0  0
  141.2300   73.9860  218.9930 C   0  0  0  0  0  0  0  0  0  0  0  0
  141.2210   75.0940  219.9680 N   0  0  0  0  0  0  0  0  0  0  0  0
  140.0120   75.3350  220.6290 C   0  0  0  0  0  0  0  0  0  0  0  0
  139.0300   74.5770  220.2950 O   0  0  0  0  0  0  0  0  0  0  0  0
  139.7350   76.3530  221.6640 C   0  0  2  0  0  0  0  0  0  0  0  0
  138.9450   75.6930  222.7110 N   0  0  0  0  0  0  0  0  0  0  0  0
  139.0590   77.5650  221.1030 C   0  0  1  0  0  0  0  0  0  0  0  0
  138.7100   78.4200  222.3610 C   0  0  0  0  0  0  0  0  0  0  0  0
  140.1200   78.8050  222.7570 C   0  0  0  0  0  0  0  0  0  0  0  0
  140.6820   79.0560  223.9970 C   0  0  0  0  0  0  0  0  0  0  0  0
  142.0210   79.3740  224.1670 C   0  0  0  0  0  0  0  0  0  0  0  0
  142.7750   79.4260  222.9970 C   0  0  0  0  0  0  0  0  0  0  0  0
  142.2160   79.1770  221.7610 C   0  0  0  0  0  0  0  0  0  0  0  0
  140.8960   78.8640  221.5880 C   0  0  0  0  0  0  0  0  0  0  0  0
  139.9720   78.5780  220.4640 C   0  0  1  0  0  0  0  0  0  0  0  0
  140.5540   78.2720  219.1900 C   0  0  0  0  0  0  0  0  0  0  0  0
  141.7850   78.8800  218.8660 C   0  0  0  0  0  0  0  0  0  0  0  0
  142.4040   78.6610  217.6590 C   0  0  0  0  0  0  0  0  0  0  0  0
  141.8500   77.8350  216.7070 C   0  0  0  0  0  0  0  0  0  0  0  0
  140.6760   77.2580  217.0170 N   0  0  0  0  0  0  0  0  0  0  0  0
  140.0520   77.4590  218.1960 C   0  0  0  0  0  0  0  0  0  0  0  0
  142.4620   75.8030  220.1220 C   0  0  0  0  0  0  0  0  0  0  0  0
  143.5710   74.9080  219.5480 C   0  0  0  0  0  0  0  0  0  0  0  0
  146.3936   73.6708  222.9723 H   0  0  0  0  0  0  0  0  0  0  0  0
  145.4580   72.4507  222.0435 H   0  0  0  0  0  0  0  0  0  0  0  0
  147.2535   72.3961  222.0435 H   0  0  0  0  0  0  0  0  0  0  0  0
  145.8014   74.8410  221.0876 H   0  0  0  0  0  0  0  0  0  0  0  0
  147.4601   74.1762  220.6693 H   0  0  0  0  0  0  0  0  0  0  0  0
  143.8341   70.5903  221.2010 H   0  0  0  0  0  0  0  0  0  0  0  0
  143.4613   68.3041  220.2844 H   0  0  0  0  0  0  0  0  0  0  0  0
  143.7631   67.8031  217.8876 H   0  0  0  0  0  0  0  0  0  0  0  0
  144.4550   69.6017  216.3350 H   0  0  0  0  0  0  0  0  0  0  0  0
  144.8326   71.8994  217.1853 H   0  0  0  0  0  0  0  0  0  0  0  0
  143.4535   73.4262  221.1878 H   0  0  0  0  0  0  0  0  0  0  0  0
  142.3347   72.1615  218.8508 H   0  0  0  0  0  0  0  0  0  0  0  0
  141.6109   72.5322  220.4877 H   0  0  0  0  0  0  0  0  0  0  0  0
  141.6307   74.3243  218.0261 H   0  0  0  0  0  0  0  0  0  0  0  0
  140.2193   73.5994  218.7953 H   0  0  0  0  0  0  0  0  0  0  0  0
  140.6743   76.7378  222.0879 H   0  0  0  0  0  0  0  0  0  0  0  0
  138.3040   74.9550  222.3000 H   0  0  0  0  0  0  0  0  0  0  0  0
  139.5480   75.2590  223.4510 H   0  0  0  0  0  0  0  0  0  0  0  0
  138.2936   77.1880  220.4088 H   0  0  0  0  0  0  0  0  0  0  0  0
  138.0943   79.2964  222.1106 H   0  0  0  0  0  0  0  0  0  0  0  0
  138.1134   77.9155  223.1353 H   0  0  0  0  0  0  0  0  0  0  0  0
  140.0378   79.0007  224.8869 H   0  0  0  0  0  0  0  0  0  0  0  0
  142.4574   79.5715  225.1572 H   0  0  0  0  0  0  0  0  0  0  0  0
  143.8452   79.6723  223.0605 H   0  0  0  0  0  0  0  0  0  0  0  0
  142.8623   79.2328  220.8726 H   0  0  0  0  0  0  0  0  0  0  0  0
  139.4333   79.4611  220.0899 H   0  0  0  0  0  0  0  0  0  0  0  0
  142.2620   79.5471  219.5991 H   0  0  0  0  0  0  0  0  0  0  0  0
  143.3633   79.1565  217.4487 H   0  0  0  0  0  0  0  0  0  0  0  0
  142.3436   77.6560  215.7404 H   0  0  0  0  0  0  0  0  0  0  0  0
  139.0940   76.9483  218.3734 H   0  0  0  0  0  0  0  0  0  0  0  0
  142.4231   76.7546  219.5717 H   0  0  0  0  0  0  0  0  0  0  0  0
  142.6529   76.0304  221.1812 H   0  0  0  0  0  0  0  0  0  0  0  0
  143.4869   74.8875  218.4514 H   0  0  0  0  0  0  0  0  0  0  0  0
  144.5466   75.3175  219.8487 H   0  0  0  0  0  0  0  0  0  0  0  0
  1  2  1  0
  2  3  1  0
  3  4  2  0
  3  5  1  0
  5  6  1  0
  6  7  2  0
  7  8  1  0
  8  9  2  0
  9 10  1  0
 10 11  2  0
  5 12  1  0
 12 13  1  0
 13 14  1  0
 14 15  1  0
 15 16  1  0
 16 17  2  0
 16 18  1  0
 18 19  1  0
 18 20  1  0
 20 21  1  0
 21 22  1  0
 22 23  2  0
 23 24  1  0
 24 25  2  0
 25 26  1  0
 26 27  2  0
 27 28  1  0
 28 29  1  0
 29 30  2  0
 30 31  1  0
 31 32  2  0
 32 33  1  0
 33 34  2  0
 15 35  1  0
 35 36  1  0
 11  6  1  0
 36 12  1  0
 28 20  1  0
 34 29  1  0
 27 22  1  0
  1 37  1  0
  1 38  1  0
  1 39  1  0
  2 40  1  0
  2 41  1  0
  7 42  1  0
  8 43  1  0
  9 44  1  0
 10 45  1  0
 11 46  1  0
 12 47  1  0
 13 48  1  0
 13 49  1  0
 14 50  1  0
 14 51  1  0
 18 52  1  1
 19 53  1  0
 19 54  1  0
 20 55  1  6
 21 56  1  0
 21 57  1  0
 23 58  1  0
 24 59  1  0
 25 60  1  0
 26 61  1  0
 28 62  1  6
 30 63  1  0
 31 64  1  0
 32 65  1  0
 34 66  1  0
 35 67  1  0
 35 68  1  0
 36 69  1  0
 36 70  1  0
M  END
>  <smiles>  (166) 
CCC(=O)N(c1ccccc1)C1CCN(C(=O)[C@H](N)C2Cc3ccccc3C2c2cccnc2)CC1

>  <score_type>  (166) 
oracle

>  <origin>  (166) 
autodockgpu

>  <m_score__min__energy>  (166) 
-8.5700000000000003

>  <m_primary>  (166) 
energy

>  <rmsd>  (166) 
4.5321158738903895

>  <m_score__min__rmsd>  (166) 
4.5321158738903895

>  <meeko>  (166) 
{"free_energy": -7.22, "intermolecular_energy": -9.61, "internal_energy": -3.52, "cluster_size": 5, "cluster_id": 3, "rank_in_cluster": 1}

>  <energy>  (166) 
-7.15

>  <cluster_rmsd>  (166) 
0.39

>  <cluster>  (166) 
2

$$$$

     RDKit          3D

 70 74  0  0  0  0  0  0  0  0999 V2000
  136.0270   70.6480  224.2500 C   0  0  0  0  0  0  0  0  0  0  0  0
  136.8880   69.4340  224.3020 C   0  0  0  0  0  0  0  0  0  0  0  0
  138.2120   69.5870  223.6450 C   0  0  0  0  0  0  0  0  0  0  0  0
  138.3750   68.9390  222.5720 O   0  0  0  0  0  0  0  0  0  0  0  0
  139.1920   70.4170  224.2250 N   0  0  0  0  0  0  0  0  0  0  0  0
  139.7700   70.1980  225.5070 C   0  0  0  0  0  0  0  0  0  0  0  0
  139.7310   68.9640  226.1500 C   0  0  0  0  0  0  0  0  0  0  0  0
  140.3340   68.8920  227.3960 C   0  0  0  0  0  0  0  0  0  0  0  0
  140.9480   69.9790  227.9940 C   0  0  0  0  0  0  0  0  0  0  0  0
  140.9690   71.1820  227.3370 C   0  0  0  0  0  0  0  0  0  0  0  0
  140.3850   71.3040  226.0940 C   0  0  0  0  0  0  0  0  0  0  0  0
  139.6770   71.5670  223.4810 C   0  0  0  0  0  0  0  0  0  0  0  0
  138.6030   72.2980  222.7290 C   0  0  0  0  0  0  0  0  0  0  0  0
  138.9530   72.5670  221.2770 C   0  0  0  0  0  0  0  0  0  0  0  0
  140.3070   73.1500  221.3150 N   0  0  0  0  0  0  0  0  0  0  0  0
  140.4210   74.4940  220.9440 C   0  0  0  0  0  0  0  0  0  0  0  0
  139.3310   75.0690  220.5840 O   0  0  0  0  0  0  0  0  0  0  0  0
  141.6430   75.3250  220.9200 C   0  0  2  0  0  0  0  0  0  0  0  0
  141.3720   76.5040  221.7520 N   0  0  0  0  0  0  0  0  0  0  0  0
  142.0620   75.6800  219.5280 C   0  0  1  0  0  0  0  0  0  0  0  0
  143.5380   76.1620  219.6880 C   0  0  0  0  0  0  0  0  0  0  0  0
  144.1610   74.8280  220.0440 C   0  0  0  0  0  0  0  0  0  0  0  0
  145.2460   74.5140  220.8450 C   0  0  0  0  0  0  0  0  0  0  0  0
  145.6580   73.2110  221.0780 C   0  0  0  0  0  0  0  0  0  0  0  0
  144.9030   72.2240  220.4470 C   0  0  0  0  0  0  0  0  0  0  0  0
  143.8220   72.5370  219.6490 C   0  0  0  0  0  0  0  0  0  0  0  0
  143.4120   73.8200  219.4160 C   0  0  0  0  0  0  0  0  0  0  0  0
  142.3660   74.5140  218.6260 C   0  0  1  0  0  0  0  0  0  0  0  0
  141.2770   73.7240  218.1310 C   0  0  0  0  0  0  0  0  0  0  0  0
  140.2160   74.3970  217.4890 C   0  0  0  0  0  0  0  0  0  0  0  0
  139.1210   73.7220  217.0030 C   0  0  0  0  0  0  0  0  0  0  0  0
  139.0100   72.3550  217.1190 C   0  0  0  0  0  0  0  0  0  0  0  0
  140.0230   71.7160  217.7320 N   0  0  0  0  0  0  0  0  0  0  0  0
  141.1050   72.3590  218.2160 C   0  0  0  0  0  0  0  0  0  0  0  0
  141.3600   72.2620  221.7290 C   0  0  0  0  0  0  0  0  0  0  0  0
  140.6980   71.0760  222.4460 C   0  0  0  0  0  0  0  0  0  0  0  0
  135.7941   70.9764  225.2737 H   0  0  0  0  0  0  0  0  0  0  0  0
  136.5581   71.4517  223.7190 H   0  0  0  0  0  0  0  0  0  0  0  0
  135.0929   70.4126  223.7190 H   0  0  0  0  0  0  0  0  0  0  0  0
  137.0566   69.1777  225.3584 H   0  0  0  0  0  0  0  0  0  0  0  0
  136.3535   68.6483  223.7479 H   0  0  0  0  0  0  0  0  0  0  0  0
  139.2458   68.0895  225.6920 H   0  0  0  0  0  0  0  0  0  0  0  0
  140.3242   67.9313  227.9318 H   0  0  0  0  0  0  0  0  0  0  0  0
  141.4139   69.8786  228.9854 H   0  0  0  0  0  0  0  0  0  0  0  0
  141.4533   72.0528  227.8030 H   0  0  0  0  0  0  0  0  0  0  0  0
  140.4039   72.2695  225.5673 H   0  0  0  0  0  0  0  0  0  0  0  0
  140.1041   72.2618  224.2191 H   0  0  0  0  0  0  0  0  0  0  0  0
  137.6846   71.6934  222.7590 H   0  0  0  0  0  0  0  0  0  0  0  0
  138.4765   73.2759  223.2166 H   0  0  0  0  0  0  0  0  0  0  0  0
  138.9506   71.6314  220.6985 H   0  0  0  0  0  0  0  0  0  0  0  0
  138.2270   73.2370  220.7932 H   0  0  0  0  0  0  0  0  0  0  0  0
  142.4987   74.7658  221.3263 H   0  0  0  0  0  0  0  0  0  0  0  0
  142.1060   77.2550  221.6050 H   0  0  0  0  0  0  0  0  0  0  0  0
  140.4200   76.9070  221.5760 H   0  0  0  0  0  0  0  0  0  0  0  0
  141.2653   76.3257  219.1299 H   0  0  0  0  0  0  0  0  0  0  0  0
  143.9446   76.5750  218.7531 H   0  0  0  0  0  0  0  0  0  0  0  0
  143.7030   76.9779  220.4071 H   0  0  0  0  0  0  0  0  0  0  0  0
  145.8058   75.3347  221.3173 H   0  0  0  0  0  0  0  0  0  0  0  0
  146.5212   72.9726  221.7168 H   0  0  0  0  0  0  0  0  0  0  0  0
  145.1761   71.1679  220.5889 H   0  0  0  0  0  0  0  0  0  0  0  0
  143.2634   71.7149  219.1778 H   0  0  0  0  0  0  0  0  0  0  0  0
  142.6929   74.8256  217.6230 H   0  0  0  0  0  0  0  0  0  0  0  0
  140.2661   75.4899  217.3743 H   0  0  0  0  0  0  0  0  0  0  0  0
  138.3159   74.2871  216.5106 H   0  0  0  0  0  0  0  0  0  0  0  0
  138.1363   71.8118  216.7298 H   0  0  0  0  0  0  0  0  0  0  0  0
  141.8908   71.7636  218.7038 H   0  0  0  0  0  0  0  0  0  0  0  0
  141.9203   71.9069  220.8516 H   0  0  0  0  0  0  0  0  0  0  0  0
  142.0657   72.7776  222.3969 H   0  0  0  0  0  0  0  0  0  0  0  0
  140.1852   70.4464  221.7039 H   0  0  0  0  0  0  0  0  0  0  0  0
  141.4768   70.4981  222.9651 H   0  0  0  0  0  0  0  0  0  0  0  0
  1  2  1  0
  2  3  1  0
  3  4  2  0
  3  5  1  0
  5  6  1  0
  6  7  2  0
  7  8  1  0
  8  9  2  0
  9 10  1  0
 10 11  2  0
  5 12  1  0
 12 13  1  0
 13 14  1  0
 14 15  1  0
 15 16  1  0
 16 17  2  0
 16 18  1  0
 18 19  1  0
 18 20  1  0
 20 21  1  0
 21 22  1  0
 22 23  2  0
 23 24  1  0
 24 25  2  0
 25 26  1  0
 26 27  2  0
 27 28  1  0
 28 29  1  0
 29 30  2  0
 30 31  1  0
 31 32  2  0
 32 33  1  0
 33 34  2  0
 15 35  1  0
 35 36  1  0
 11  6  1  0
 36 12  1  0
 28 20  1  0
 34 29  1  0
 27 22  1  0
  1 37  1  0
  1 38  1  0
  1 39  1  0
  2 40  1  0
  2 41  1  0
  7 42  1  0
  8 43  1  0
  9 44  1  0
 10 45  1  0
 11 46  1  0
 12 47  1  0
 13 48  1  0
 13 49  1  0
 14 50  1  0
 14 51  1  0
 18 52  1  1
 19 53  1  0
 19 54  1  0
 20 55  1  6
 21 56  1  0
 21 57  1  0
 23 58  1  0
 24 59  1  0
 25 60  1  0
 26 61  1  0
 28 62  1  6
 30 63  1  0
 31 64  1  0
 32 65  1  0
 34 66  1  0
 35 67  1  0
 35 68  1  0
 36 69  1  0
 36 70  1  0
M  END
>  <smiles>  (167) 
CCC(=O)N(c1ccccc1)C1CCN(C(=O)[C@H](N)C2Cc3ccccc3C2c2cccnc2)CC1

>  <score_type>  (167) 
oracle

>  <origin>  (167) 
autodockgpu

>  <m_score__min__energy>  (167) 
-8.5700000000000003

>  <m_primary>  (167) 
energy

>  <rmsd>  (167) 
7.118132116509215

>  <m_score__min__rmsd>  (167) 
7.118132116509215

>  <meeko>  (167) 
{"free_energy": -6.95, "intermolecular_energy": -9.34, "internal_energy": -3.49, "cluster_size": 37, "cluster_id": 2, "rank_in_cluster": 30}

>  <energy>  (167) 
-7.15

>  <cluster_rmsd>  (167) 
0.57

>  <cluster>  (167) 
2

$$$$

     RDKit          3D

 70 74  0  0  0  0  0  0  0  0999 V2000
  138.7020   67.7830  221.3820 C   0  0  0  0  0  0  0  0  0  0  0  0
  138.8070   67.7170  222.8660 C   0  0  0  0  0  0  0  0  0  0  0  0
  138.2740   68.9060  223.5770 C   0  0  0  0  0  0  0  0  0  0  0  0
  137.0180   69.0510  223.5490 O   0  0  0  0  0  0  0  0  0  0  0  0
  139.1570   69.7900  224.2290 N   0  0  0  0  0  0  0  0  0  0  0  0
  139.6970   69.5700  225.5270 C   0  0  0  0  0  0  0  0  0  0  0  0
  139.6840   68.3230  226.1470 C   0  0  0  0  0  0  0  0  0  0  0  0
  140.2440   68.2520  227.4130 C   0  0  0  0  0  0  0  0  0  0  0  0
  140.7940   69.3500  228.0510 C   0  0  0  0  0  0  0  0  0  0  0  0
  140.7910   70.5640  227.4160 C   0  0  0  0  0  0  0  0  0  0  0  0
  140.2480   70.6870  226.1550 C   0  0  0  0  0  0  0  0  0  0  0  0
  139.5760   71.0030  223.5480 C   0  0  0  0  0  0  0  0  0  0  0  0
  138.4370   71.8920  223.1410 C   0  0  0  0  0  0  0  0  0  0  0  0
  138.5040   72.3420  221.6930 C   0  0  0  0  0  0  0  0  0  0  0  0
  139.8820   72.8350  221.5130 N   0  0  0  0  0  0  0  0  0  0  0  0
  140.0320   74.2090  221.2970 C   0  0  0  0  0  0  0  0  0  0  0  0
  138.9440   74.8910  221.2540 O   0  0  0  0  0  0  0  0  0  0  0  0
  141.2890   74.9640  221.1150 C   0  0  2  0  0  0  0  0  0  0  0  0
  141.1970   76.1560  221.9680 N   0  0  0  0  0  0  0  0  0  0  0  0
  141.5520   75.2960  219.6800 C   0  0  1  0  0  0  0  0  0  0  0  0
  142.9690   75.9510  219.6950 C   0  0  0  0  0  0  0  0  0  0  0  0
  143.7710   74.7160  220.0510 C   0  0  0  0  0  0  0  0  0  0  0  0
  144.9460   74.5690  220.7690 C   0  0  0  0  0  0  0  0  0  0  0  0
  145.5260   73.3350  221.0180 C   0  0  0  0  0  0  0  0  0  0  0  0
  144.8450   72.2370  220.4930 C   0  0  0  0  0  0  0  0  0  0  0  0
  143.6750   72.3840  219.7770 C   0  0  0  0  0  0  0  0  0  0  0  0
  143.1000   73.5990  219.5280 C   0  0  0  0  0  0  0  0  0  0  0  0
  141.9200   74.1290  218.8030 C   0  0  1  0  0  0  0  0  0  0  0  0
  140.8950   73.1960  218.4340 C   0  0  0  0  0  0  0  0  0  0  0  0
  139.6090   73.7070  218.1580 C   0  0  0  0  0  0  0  0  0  0  0  0
  138.5620   72.8840  217.8180 C   0  0  0  0  0  0  0  0  0  0  0  0
  138.7210   71.5190  217.7280 C   0  0  0  0  0  0  0  0  0  0  0  0
  139.9480   71.0350  217.9920 N   0  0  0  0  0  0  0  0  0  0  0  0
  140.9880   71.8250  218.3270 C   0  0  0  0  0  0  0  0  0  0  0  0
  140.9180   71.8390  221.5770 C   0  0  0  0  0  0  0  0  0  0  0  0
  140.3180   70.6040  222.2660 C   0  0  0  0  0  0  0  0  0  0  0  0
  137.8011   68.3492  221.1030 H   0  0  0  0  0  0  0  0  0  0  0  0
  139.5916   68.2847  220.9734 H   0  0  0  0  0  0  0  0  0  0  0  0
  138.6358   66.7638  220.9734 H   0  0  0  0  0  0  0  0  0  0  0  0
  138.2500   66.8332  223.2103 H   0  0  0  0  0  0  0  0  0  0  0  0
  139.8806   67.6690  223.1006 H   0  0  0  0  0  0  0  0  0  0  0  0
  139.2510   67.4387  225.6566 H   0  0  0  0  0  0  0  0  0  0  0  0
  140.2515   67.2823  227.9323 H   0  0  0  0  0  0  0  0  0  0  0  0
  141.2286   69.2492  229.0565 H   0  0  0  0  0  0  0  0  0  0  0  0
  141.2236   71.4440  227.9144 H   0  0  0  0  0  0  0  0  0  0  0  0
  140.2492   71.6621  225.6460 H   0  0  0  0  0  0  0  0  0  0  0  0
  140.2030   71.5624  224.2579 H   0  0  0  0  0  0  0  0  0  0  0  0
  137.4961   71.3422  223.2910 H   0  0  0  0  0  0  0  0  0  0  0  0
  138.4966   72.7973  223.7629 H   0  0  0  0  0  0  0  0  0  0  0  0
  138.3030   71.4988  221.0158 H   0  0  0  0  0  0  0  0  0  0  0  0
  137.7545   73.1139  221.4638 H   0  0  0  0  0  0  0  0  0  0  0  0
  142.1528   74.3520  221.4138 H   0  0  0  0  0  0  0  0  0  0  0  0
  140.2180   76.2760  222.3560 H   0  0  0  0  0  0  0  0  0  0  0  0
  141.8850   76.1350  222.7590 H   0  0  0  0  0  0  0  0  0  0  0  0
  140.6557   75.8261  219.3255 H   0  0  0  0  0  0  0  0  0  0  0  0
  143.2488   76.3603  218.7131 H   0  0  0  0  0  0  0  0  0  0  0  0
  143.0932   76.8155  220.3637 H   0  0  0  0  0  0  0  0  0  0  0  0
  145.4406   75.4709  221.1587 H   0  0  0  0  0  0  0  0  0  0  0  0
  146.4593   73.2290  221.5904 H   0  0  0  0  0  0  0  0  0  0  0  0
  145.2513   71.2276  220.6540 H   0  0  0  0  0  0  0  0  0  0  0  0
  143.1815   71.4811  219.3881 H   0  0  0  0  0  0  0  0  0  0  0  0
  142.1283   74.4258  217.7645 H   0  0  0  0  0  0  0  0  0  0  0  0
  139.4400   74.7924  218.2165 H   0  0  0  0  0  0  0  0  0  0  0  0
  137.5754   73.3253  217.6133 H   0  0  0  0  0  0  0  0  0  0  0  0
  137.8861   70.8574  217.4538 H   0  0  0  0  0  0  0  0  0  0  0  0
  141.9607   71.3510  218.5251 H   0  0  0  0  0  0  0  0  0  0  0  0
  141.2539   71.5787  220.5624 H   0  0  0  0  0  0  0  0  0  0  0  0
  141.7873   72.2148  222.1365 H   0  0  0  0  0  0  0  0  0  0  0  0
  139.6126   70.1144  221.5785 H   0  0  0  0  0  0  0  0  0  0  0  0
  141.1345   69.9159  222.5304 H   0  0  0  0  0  0  0  0  0  0  0  0
  1  2  1  0
  2  3  1  0
  3  4  2  0
  3  5  1  0
  5  6  1  0
  6  7  2  0
  7  8  1  0
  8  9  2  0
  9 10  1  0
 10 11  2  0
  5 12  1  0
 12 13  1  0
 13 14  1  0
 14 15  1  0
 15 16  1  0
 16 17  2  0
 16 18  1  0
 18 19  1  0
 18 20  1  0
 20 21  1  0
 21 22  1  0
 22 23  2  0
 23 24  1  0
 24 25  2  0
 25 26  1  0
 26 27  2  0
 27 28  1  0
 28 29  1  0
 29 30  2  0
 30 31  1  0
 31 32  2  0
 32 33  1  0
 33 34  2  0
 15 35  1  0
 35 36  1  0
 11  6  1  0
 36 12  1  0
 28 20  1  0
 34 29  1  0
 27 22  1  0
  1 37  1  0
  1 38  1  0
  1 39  1  0
  2 40  1  0
  2 41  1  0
  7 42  1  0
  8 43  1  0
  9 44  1  0
 10 45  1  0
 11 46  1  0
 12 47  1  0
 13 48  1  0
 13 49  1  0
 14 50  1  0
 14 51  1  0
 18 52  1  1
 19 53  1  0
 19 54  1  0
 20 55  1  6
 21 56  1  0
 21 57  1  0
 23 58  1  0
 24 59  1  0
 25 60  1  0
 26 61  1  0
 28 62  1  6
 30 63  1  0
 31 64  1  0
 32 65  1  0
 34 66  1  0
 35 67  1  0
 35 68  1  0
 36 69  1  0
 36 70  1  0
M  END
>  <smiles>  (168) 
CCC(=O)N(c1ccccc1)C1CCN(C(=O)[C@H](N)C2Cc3ccccc3C2c2cccnc2)CC1

>  <score_type>  (168) 
oracle

>  <origin>  (168) 
autodockgpu

>  <m_score__min__energy>  (168) 
-8.5700000000000003

>  <m_primary>  (168) 
energy

>  <rmsd>  (168) 
7.237219051317051

>  <m_score__min__rmsd>  (168) 
7.237219051317051

>  <meeko>  (168) 
{"free_energy": -6.94, "intermolecular_energy": -9.32, "internal_energy": -3.74, "cluster_size": 37, "cluster_id": 2, "rank_in_cluster": 35}

>  <energy>  (168) 
-7.14

>  <cluster_rmsd>  (168) 
0.57

>  <cluster>  (168) 
2

$$$$

     RDKit          3D

 70 74  0  0  0  0  0  0  0  0999 V2000
  138.8180   67.1640  222.5100 C   0  0  0  0  0  0  0  0  0  0  0  0
  137.7940   68.2440  222.4490 C   0  0  0  0  0  0  0  0  0  0  0  0
  137.6570   69.0370  223.6960 C   0  0  0  0  0  0  0  0  0  0  0  0
  136.5090   69.0410  224.2270 O   0  0  0  0  0  0  0  0  0  0  0  0
  138.7710   69.7280  224.2160 N   0  0  0  0  0  0  0  0  0  0  0  0
  139.4910   69.3270  225.3760 C   0  0  0  0  0  0  0  0  0  0  0  0
  139.6350   67.9940  225.7500 C   0  0  0  0  0  0  0  0  0  0  0  0
  140.3620   67.7470  226.9040 C   0  0  0  0  0  0  0  0  0  0  0  0
  140.9270   68.7570  227.6640 C   0  0  0  0  0  0  0  0  0  0  0  0
  140.7670   70.0600  227.2700 C   0  0  0  0  0  0  0  0  0  0  0  0
  140.0540   70.3580  226.1280 C   0  0  0  0  0  0  0  0  0  0  0  0
  139.2480   70.9180  223.5330 C   0  0  0  0  0  0  0  0  0  0  0  0
  138.1520   71.8530  223.1100 C   0  0  0  0  0  0  0  0  0  0  0  0
  138.2520   72.2910  221.6600 C   0  0  0  0  0  0  0  0  0  0  0  0
  139.6520   72.7240  221.4920 N   0  0  0  0  0  0  0  0  0  0  0  0
  139.8630   74.0890  221.2700 C   0  0  0  0  0  0  0  0  0  0  0  0
  138.8050   74.8170  221.2120 O   0  0  0  0  0  0  0  0  0  0  0  0
  141.1530   74.7890  221.0970 C   0  0  2  0  0  0  0  0  0  0  0  0
  141.1180   75.9680  221.9730 N   0  0  0  0  0  0  0  0  0  0  0  0
  141.4260   75.1350  219.6680 C   0  0  1  0  0  0  0  0  0  0  0  0
  142.8170   75.8410  219.7070 C   0  0  0  0  0  0  0  0  0  0  0  0
  143.6580   74.6350  220.0720 C   0  0  0  0  0  0  0  0  0  0  0  0
  144.8260   74.5280  220.8080 C   0  0  0  0  0  0  0  0  0  0  0  0
  145.4470   73.3150  221.0630 C   0  0  0  0  0  0  0  0  0  0  0  0
  144.8140   72.1950  220.5240 C   0  0  0  0  0  0  0  0  0  0  0  0
  143.6510   72.3020  219.7900 C   0  0  0  0  0  0  0  0  0  0  0  0
  143.0360   73.4970  219.5360 C   0  0  0  0  0  0  0  0  0  0  0  0
  141.8490   73.9850  218.7930 C   0  0  1  0  0  0  0  0  0  0  0  0
  140.8650   73.0170  218.4050 C   0  0  0  0  0  0  0  0  0  0  0  0
  139.5720   73.4840  218.0900 C   0  0  0  0  0  0  0  0  0  0  0  0
  138.5610   72.6260  217.7290 C   0  0  0  0  0  0  0  0  0  0  0  0
  138.7650   71.2660  217.6560 C   0  0  0  0  0  0  0  0  0  0  0  0
  139.9990   70.8230  217.9580 N   0  0  0  0  0  0  0  0  0  0  0  0
  141.0040   71.6490  218.3140 C   0  0  0  0  0  0  0  0  0  0  0  0
  140.6440   71.6850  221.5710 C   0  0  0  0  0  0  0  0  0  0  0  0
  139.9840   70.4810  222.2600 C   0  0  0  0  0  0  0  0  0  0  0  0
  139.0408   66.9290  223.5612 H   0  0  0  0  0  0  0  0  0  0  0  0
  138.4329   66.2648  222.0069 H   0  0  0  0  0  0  0  0  0  0  0  0
  139.7364   67.5007  222.0069 H   0  0  0  0  0  0  0  0  0  0  0  0
  138.0676   68.9305  221.6342 H   0  0  0  0  0  0  0  0  0  0  0  0
  136.8260   67.7469  222.2879 H   0  0  0  0  0  0  0  0  0  0  0  0
  139.1940   67.1775  225.1594 H   0  0  0  0  0  0  0  0  0  0  0  0
  140.4957   66.7048  227.2297 H   0  0  0  0  0  0  0  0  0  0  0  0
  141.4975   68.5166  228.5732 H   0  0  0  0  0  0  0  0  0  0  0  0
  141.2091   70.8711  227.8672 H   0  0  0  0  0  0  0  0  0  0  0  0
  139.9298   71.4041  225.8115 H   0  0  0  0  0  0  0  0  0  0  0  0
  139.8916   71.4535  224.2465 H   0  0  0  0  0  0  0  0  0  0  0  0
  137.1869   71.3452  223.2540 H   0  0  0  0  0  0  0  0  0  0  0  0
  138.2447   72.7586  223.7274 H   0  0  0  0  0  0  0  0  0  0  0  0
  138.0221   71.4530  220.9855 H   0  0  0  0  0  0  0  0  0  0  0  0
  137.5381   73.0923  221.4185 H   0  0  0  0  0  0  0  0  0  0  0  0
  141.9892   74.1331  221.3807 H   0  0  0  0  0  0  0  0  0  0  0  0
  140.1620   76.0910  222.4140 H   0  0  0  0  0  0  0  0  0  0  0  0
  141.8470   75.9270  222.7250 H   0  0  0  0  0  0  0  0  0  0  0  0
  140.5167   75.6335  219.3011 H   0  0  0  0  0  0  0  0  0  0  0  0
  143.0969   76.2636  218.7307 H   0  0  0  0  0  0  0  0  0  0  0  0
  142.8990   76.7072  220.3800 H   0  0  0  0  0  0  0  0  0  0  0  0
  145.2813   75.4460  221.2080 H   0  0  0  0  0  0  0  0  0  0  0  0
  146.3745   73.2410  221.6497 H   0  0  0  0  0  0  0  0  0  0  0  0
  145.2538   71.2003  220.6886 H   0  0  0  0  0  0  0  0  0  0  0  0
  143.1969   71.3833  219.3902 H   0  0  0  0  0  0  0  0  0  0  0  0
  142.0617   74.2916  217.7582 H   0  0  0  0  0  0  0  0  0  0  0  0
  139.3673   74.5639  218.1345 H   0  0  0  0  0  0  0  0  0  0  0  0
  137.5672   73.0344  217.4932 H   0  0  0  0  0  0  0  0  0  0  0  0
  137.9591   70.5761  217.3652 H   0  0  0  0  0  0  0  0  0  0  0  0
  141.9852   71.2080  218.5435 H   0  0  0  0  0  0  0  0  0  0  0  0
  140.9783   71.4051  220.5611 H   0  0  0  0  0  0  0  0  0  0  0  0
  141.5235   72.0259  222.1369 H   0  0  0  0  0  0  0  0  0  0  0  0
  139.2644   70.0192  221.5679 H   0  0  0  0  0  0  0  0  0  0  0  0
  140.7672   69.7595  222.5356 H   0  0  0  0  0  0  0  0  0  0  0  0
  1  2  1  0
  2  3  1  0
  3  4  2  0
  3  5  1  0
  5  6  1  0
  6  7  2  0
  7  8  1  0
  8  9  2  0
  9 10  1  0
 10 11  2  0
  5 12  1  0
 12 13  1  0
 13 14  1  0
 14 15  1  0
 15 16  1  0
 16 17  2  0
 16 18  1  0
 18 19  1  0
 18 20  1  0
 20 21  1  0
 21 22  1  0
 22 23  2  0
 23 24  1  0
 24 25  2  0
 25 26  1  0
 26 27  2  0
 27 28  1  0
 28 29  1  0
 29 30  2  0
 30 31  1  0
 31 32  2  0
 32 33  1  0
 33 34  2  0
 15 35  1  0
 35 36  1  0
 11  6  1  0
 36 12  1  0
 28 20  1  0
 34 29  1  0
 27 22  1  0
  1 37  1  0
  1 38  1  0
  1 39  1  0
  2 40  1  0
  2 41  1  0
  7 42  1  0
  8 43  1  0
  9 44  1  0
 10 45  1  0
 11 46  1  0
 12 47  1  0
 13 48  1  0
 13 49  1  0
 14 50  1  0
 14 51  1  0
 18 52  1  1
 19 53  1  0
 19 54  1  0
 20 55  1  6
 21 56  1  0
 21 57  1  0
 23 58  1  0
 24 59  1  0
 25 60  1  0
 26 61  1  0
 28 62  1  6
 30 63  1  0
 31 64  1  0
 32 65  1  0
 34 66  1  0
 35 67  1  0
 35 68  1  0
 36 69  1  0
 36 70  1  0
M  END
>  <smiles>  (169) 
CCC(=O)N(c1ccccc1)C1CCN(C(=O)[C@H](N)C2Cc3ccccc3C2c2cccnc2)CC1

>  <score_type>  (169) 
oracle

>  <origin>  (169) 
autodockgpu

>  <m_score__min__energy>  (169) 
-8.5700000000000003

>  <m_primary>  (169) 
energy

>  <rmsd>  (169) 
7.29549477073575

>  <m_score__min__rmsd>  (169) 
7.29549477073575

>  <meeko>  (169) 
{"free_energy": -7.04, "intermolecular_energy": -9.43, "internal_energy": -3.66, "cluster_size": 37, "cluster_id": 2, "rank_in_cluster": 24}

>  <energy>  (169) 
-7.12

>  <cluster_rmsd>  (169) 
0.86

>  <cluster>  (169) 
2

$$$$

     RDKit          3D

 70 74  0  0  0  0  0  0  0  0999 V2000
  136.2380   69.5960  224.7920 C   0  0  0  0  0  0  0  0  0  0  0  0
  136.8000   69.1670  223.4820 C   0  0  0  0  0  0  0  0  0  0  0  0
  138.2590   68.8880  223.4970 C   0  0  0  0  0  0  0  0  0  0  0  0
  138.6300   67.8480  222.8810 O   0  0  0  0  0  0  0  0  0  0  0  0
  139.1340   69.7620  224.1720 N   0  0  0  0  0  0  0  0  0  0  0  0
  139.6470   69.5300  225.4790 C   0  0  0  0  0  0  0  0  0  0  0  0
  139.6550   68.2710  226.0720 C   0  0  0  0  0  0  0  0  0  0  0  0
  140.1850   68.1880  227.3500 C   0  0  0  0  0  0  0  0  0  0  0  0
  140.6860   69.2880  228.0260 C   0  0  0  0  0  0  0  0  0  0  0  0
  140.6640   70.5150  227.4150 C   0  0  0  0  0  0  0  0  0  0  0  0
  140.1490   70.6490  226.1430 C   0  0  0  0  0  0  0  0  0  0  0  0
  139.5730   70.9780  223.5080 C   0  0  0  0  0  0  0  0  0  0  0  0
  138.4490   71.8900  223.1110 C   0  0  0  0  0  0  0  0  0  0  0  0
  138.5250   72.3570  221.6690 C   0  0  0  0  0  0  0  0  0  0  0  0
  139.9110   72.8320  221.4980 N   0  0  0  0  0  0  0  0  0  0  0  0
  140.0830   74.2060  221.3010 C   0  0  0  0  0  0  0  0  0  0  0  0
  139.0050   74.9050  221.2640 O   0  0  0  0  0  0  0  0  0  0  0  0
  141.3510   74.9440  221.1310 C   0  0  2  0  0  0  0  0  0  0  0  0
  141.2820   76.1180  222.0110 N   0  0  0  0  0  0  0  0  0  0  0  0
  141.6140   75.3050  219.7030 C   0  0  1  0  0  0  0  0  0  0  0  0
  143.0340   75.9510  219.7300 C   0  0  0  0  0  0  0  0  0  0  0  0
  143.8300   74.7050  220.0590 C   0  0  0  0  0  0  0  0  0  0  0  0
  145.0050   74.5360  220.7720 C   0  0  0  0  0  0  0  0  0  0  0  0
  145.5790   73.2940  220.9940 C   0  0  0  0  0  0  0  0  0  0  0  0
  144.8910   72.2120  220.4480 C   0  0  0  0  0  0  0  0  0  0  0  0
  143.7210   72.3800  219.7370 C   0  0  0  0  0  0  0  0  0  0  0  0
  143.1520   73.6030  219.5140 C   0  0  0  0  0  0  0  0  0  0  0  0
  141.9740   74.1540  218.8010 C   0  0  1  0  0  0  0  0  0  0  0  0
  140.9450   73.2350  218.4130 C   0  0  0  0  0  0  0  0  0  0  0  0
  139.6620   73.7580  218.1470 C   0  0  0  0  0  0  0  0  0  0  0  0
  138.6100   72.9480  217.7900 C   0  0  0  0  0  0  0  0  0  0  0  0
  138.7610   71.5850  217.6750 C   0  0  0  0  0  0  0  0  0  0  0  0
  139.9840   71.0880  217.9300 N   0  0  0  0  0  0  0  0  0  0  0  0
  141.0290   71.8650  218.2810 C   0  0  0  0  0  0  0  0  0  0  0  0
  140.9310   71.8190  221.5500 C   0  0  0  0  0  0  0  0  0  0  0  0
  140.3110   70.5850  222.2220 C   0  0  0  0  0  0  0  0  0  0  0  0
  136.8250   69.1479  225.6072 H   0  0  0  0  0  0  0  0  0  0  0  0
  136.2818   70.6925  224.8684 H   0  0  0  0  0  0  0  0  0  0  0  0
  135.1919   69.2646  224.8684 H   0  0  0  0  0  0  0  0  0  0  0  0
  136.2786   68.2506  223.1684 H   0  0  0  0  0  0  0  0  0  0  0  0
  136.6502   70.0073  222.7881 H   0  0  0  0  0  0  0  0  0  0  0  0
  139.2602   67.3856  225.5522 H   0  0  0  0  0  0  0  0  0  0  0  0
  140.2087   67.2075  227.8481 H   0  0  0  0  0  0  0  0  0  0  0  0
  141.0965   69.1785  229.0406 H   0  0  0  0  0  0  0  0  0  0  0  0
  141.0588   71.3963  227.9417 H   0  0  0  0  0  0  0  0  0  0  0  0
  140.1341   71.6342  225.6541 H   0  0  0  0  0  0  0  0  0  0  0  0
  140.2070   71.5179  224.2268 H   0  0  0  0  0  0  0  0  0  0  0  0
  137.4993   71.3535  223.2530 H   0  0  0  0  0  0  0  0  0  0  0  0
  138.5223   72.7864  223.7443 H   0  0  0  0  0  0  0  0  0  0  0  0
  138.3129   71.5254  220.9809 H   0  0  0  0  0  0  0  0  0  0  0  0
  137.7872   73.1424  221.4480 H   0  0  0  0  0  0  0  0  0  0  0  0
  142.2054   74.3108  221.4122 H   0  0  0  0  0  0  0  0  0  0  0  0
  141.9150   76.8950  221.6660 H   0  0  0  0  0  0  0  0  0  0  0  0
  140.3050   76.4830  222.1130 H   0  0  0  0  0  0  0  0  0  0  0  0
  140.7206   75.8479  219.3609 H   0  0  0  0  0  0  0  0  0  0  0  0
  143.3149   76.3792  218.7565 H   0  0  0  0  0  0  0  0  0  0  0  0
  143.1635   76.8004  220.4168 H   0  0  0  0  0  0  0  0  0  0  0  0
  145.5050   75.4267  221.1802 H   0  0  0  0  0  0  0  0  0  0  0  0
  146.5130   73.1709  221.5619 H   0  0  0  0  0  0  0  0  0  0  0  0
  145.2916   71.1971  220.5877 H   0  0  0  0  0  0  0  0  0  0  0  0
  143.2222   71.4879  219.3302 H   0  0  0  0  0  0  0  0  0  0  0  0
  142.1818   74.4712  217.7684 H   0  0  0  0  0  0  0  0  0  0  0  0
  139.4990   74.8429  218.2274 H   0  0  0  0  0  0  0  0  0  0  0  0
  137.6265   73.3991  217.5920 H   0  0  0  0  0  0  0  0  0  0  0  0
  137.9220   70.9339  217.3884 H   0  0  0  0  0  0  0  0  0  0  0  0
  141.9982   71.3809  218.4718 H   0  0  0  0  0  0  0  0  0  0  0  0
  141.2640   71.5667  220.5324 H   0  0  0  0  0  0  0  0  0  0  0  0
  141.8054   72.1737  222.1153 H   0  0  0  0  0  0  0  0  0  0  0  0
  139.5994   70.1153  221.5270 H   0  0  0  0  0  0  0  0  0  0  0  0
  141.1166   69.8814  222.4789 H   0  0  0  0  0  0  0  0  0  0  0  0
  1  2  1  0
  2  3  1  0
  3  4  2  0
  3  5  1  0
  5  6  1  0
  6  7  2  0
  7  8  1  0
  8  9  2  0
  9 10  1  0
 10 11  2  0
  5 12  1  0
 12 13  1  0
 13 14  1  0
 14 15  1  0
 15 16  1  0
 16 17  2  0
 16 18  1  0
 18 19  1  0
 18 20  1  0
 20 21  1  0
 21 22  1  0
 22 23  2  0
 23 24  1  0
 24 25  2  0
 25 26  1  0
 26 27  2  0
 27 28  1  0
 28 29  1  0
 29 30  2  0
 30 31  1  0
 31 32  2  0
 32 33  1  0
 33 34  2  0
 15 35  1  0
 35 36  1  0
 11  6  1  0
 36 12  1  0
 28 20  1  0
 34 29  1  0
 27 22  1  0
  1 37  1  0
  1 38  1  0
  1 39  1  0
  2 40  1  0
  2 41  1  0
  7 42  1  0
  8 43  1  0
  9 44  1  0
 10 45  1  0
 11 46  1  0
 12 47  1  0
 13 48  1  0
 13 49  1  0
 14 50  1  0
 14 51  1  0
 18 52  1  1
 19 53  1  0
 19 54  1  0
 20 55  1  6
 21 56  1  0
 21 57  1  0
 23 58  1  0
 24 59  1  0
 25 60  1  0
 26 61  1  0
 28 62  1  6
 30 63  1  0
 31 64  1  0
 32 65  1  0
 34 66  1  0
 35 67  1  0
 35 68  1  0
 36 69  1  0
 36 70  1  0
M  END
>  <smiles>  (170) 
CCC(=O)N(c1ccccc1)C1CCN(C(=O)[C@H](N)C2Cc3ccccc3C2c2cccnc2)CC1

>  <score_type>  (170) 
oracle

>  <origin>  (170) 
autodockgpu

>  <m_score__min__energy>  (170) 
-8.5700000000000003

>  <m_primary>  (170) 
energy

>  <rmsd>  (170) 
7.249680157851747

>  <m_score__min__rmsd>  (170) 
7.249680157851747

>  <meeko>  (170) 
{"free_energy": -7.03, "intermolecular_energy": -9.42, "internal_energy": -3.66, "cluster_size": 37, "cluster_id": 2, "rank_in_cluster": 25}

>  <energy>  (170) 
-7.1

>  <cluster_rmsd>  (170) 
0.88

>  <cluster>  (170) 
2

$$$$

     RDKit          3D

 70 74  0  0  0  0  0  0  0  0999 V2000
  146.6860   73.3330  221.9780 C   0  0  0  0  0  0  0  0  0  0  0  0
  145.8870   74.0790  220.9670 C   0  0  0  0  0  0  0  0  0  0  0  0
  145.4490   73.2670  219.8030 C   0  0  0  0  0  0  0  0  0  0  0  0
  146.3220   73.0610  218.9120 O   0  0  0  0  0  0  0  0  0  0  0  0
  144.1280   72.7800  219.7440 N   0  0  0  0  0  0  0  0  0  0  0  0
  143.7680   71.5040  219.2270 C   0  0  0  0  0  0  0  0  0  0  0  0
  143.3640   71.3120  217.9080 C   0  0  0  0  0  0  0  0  0  0  0  0
  143.0420   70.0160  217.5380 C   0  0  0  0  0  0  0  0  0  0  0  0
  143.1080   68.9480  218.4160 C   0  0  0  0  0  0  0  0  0  0  0  0
  143.5080   69.1690  219.7090 C   0  0  0  0  0  0  0  0  0  0  0  0
  143.8410   70.4400  220.1250 C   0  0  0  0  0  0  0  0  0  0  0  0
  143.0450   73.6040  220.2540 C   0  0  0  0  0  0  0  0  0  0  0  0
  141.6780   73.0890  219.9050 C   0  0  0  0  0  0  0  0  0  0  0  0
  140.7630   74.1450  219.3130 C   0  0  0  0  0  0  0  0  0  0  0  0
  140.8700   75.2960  220.2300 N   0  0  0  0  0  0  0  0  0  0  0  0
  139.7280   75.6140  220.9730 C   0  0  0  0  0  0  0  0  0  0  0  0
  138.6970   74.8790  220.7550 O   0  0  0  0  0  0  0  0  0  0  0  0
  139.5710   76.6890  221.9740 C   0  0  2  0  0  0  0  0  0  0  0  0
  138.7920   76.1250  223.0850 N   0  0  0  0  0  0  0  0  0  0  0  0
  138.9490   77.9200  221.3960 C   0  0  1  0  0  0  0  0  0  0  0  0
  138.7150   78.8440  222.6310 C   0  0  0  0  0  0  0  0  0  0  0  0
  140.1650   79.1490  222.9470 C   0  0  0  0  0  0  0  0  0  0  0  0
  140.8000   79.4090  224.1500 C   0  0  0  0  0  0  0  0  0  0  0  0
  142.1630   79.6440  224.2460 C   0  0  0  0  0  0  0  0  0  0  0  0
  142.8630   79.6010  223.0420 C   0  0  0  0  0  0  0  0  0  0  0  0
  142.2300   79.3430  221.8440 C   0  0  0  0  0  0  0  0  0  0  0  0
  140.8860   79.1120  221.7440 C   0  0  0  0  0  0  0  0  0  0  0  0
  139.8940   78.8450  220.6740 C   0  0  1  0  0  0  0  0  0  0  0  0
  140.3930   78.4530  219.3890 C   0  0  0  0  0  0  0  0  0  0  0  0
  141.6400   78.9730  218.9820 C   0  0  0  0  0  0  0  0  0  0  0  0
  142.1850   78.6670  217.7570 C   0  0  0  0  0  0  0  0  0  0  0  0
  141.5390   77.8370  216.8700 C   0  0  0  0  0  0  0  0  0  0  0  0
  140.3500   77.3430  217.2610 N   0  0  0  0  0  0  0  0  0  0  0  0
  139.7980   77.6300  218.4570 C   0  0  0  0  0  0  0  0  0  0  0  0
  142.1440   75.9650  220.2500 C   0  0  0  0  0  0  0  0  0  0  0  0
  143.1710   75.0020  219.6350 C   0  0  0  0  0  0  0  0  0  0  0  0
  146.3681   73.6299  222.9883 H   0  0  0  0  0  0  0  0  0  0  0  0
  146.5272   72.2525  221.8463 H   0  0  0  0  0  0  0  0  0  0  0  0
  147.7531   73.5655  221.8463 H   0  0  0  0  0  0  0  0  0  0  0  0
  144.9903   74.4773  221.4643 H   0  0  0  0  0  0  0  0  0  0  0  0
  146.5448   74.8655  220.5685 H   0  0  0  0  0  0  0  0  0  0  0  0
  143.3035   72.1477  217.1953 H   0  0  0  0  0  0  0  0  0  0  0  0
  142.7204   69.8281  216.5030 H   0  0  0  0  0  0  0  0  0  0  0  0
  142.8429   67.9344  218.0808 H   0  0  0  0  0  0  0  0  0  0  0  0
  143.5632   68.3287  220.4167 H   0  0  0  0  0  0  0  0  0  0  0  0
  144.1633   70.6144  221.1622 H   0  0  0  0  0  0  0  0  0  0  0  0
  143.1370   73.6025  221.3501 H   0  0  0  0  0  0  0  0  0  0  0  0
  141.7894   72.2756  219.1729 H   0  0  0  0  0  0  0  0  0  0  0  0
  141.2131   72.7484  220.8419 H   0  0  0  0  0  0  0  0  0  0  0  0
  141.0958   74.4231  218.3021 H   0  0  0  0  0  0  0  0  0  0  0  0
  139.7271   73.7881  219.2149 H   0  0  0  0  0  0  0  0  0  0  0  0
  140.5539   77.0265  222.3345 H   0  0  0  0  0  0  0  0  0  0  0  0
  137.8730   76.6380  223.2090 H   0  0  0  0  0  0  0  0  0  0  0  0
  138.6070   75.1000  222.9620 H   0  0  0  0  0  0  0  0  0  0  0  0
  138.1283   77.5680  220.7537 H   0  0  0  0  0  0  0  0  0  0  0  0
  138.1462   79.7491  222.3718 H   0  0  0  0  0  0  0  0  0  0  0  0
  138.1238   78.4112  223.4514 H   0  0  0  0  0  0  0  0  0  0  0  0
  140.1966   79.4300  225.0695 H   0  0  0  0  0  0  0  0  0  0  0  0
  142.6577   79.8502  225.2066 H   0  0  0  0  0  0  0  0  0  0  0  0
  143.9488   79.7774  223.0471 H   0  0  0  0  0  0  0  0  0  0  0  0
  142.8350   79.3221  220.9256 H   0  0  0  0  0  0  0  0  0  0  0  0
  139.3972   79.7468  220.2866 H   0  0  0  0  0  0  0  0  0  0  0  0
  142.1902   79.6401  219.6619 H   0  0  0  0  0  0  0  0  0  0  0  0
  143.1595   79.0955  217.4801 H   0  0  0  0  0  0  0  0  0  0  0  0
  141.9729   77.5896  215.8900 H   0  0  0  0  0  0  0  0  0  0  0  0
  138.8225   77.1844  218.7017 H   0  0  0  0  0  0  0  0  0  0  0  0
  142.0932   76.8906  219.6579 H   0  0  0  0  0  0  0  0  0  0  0  0
  142.4278   76.2350  221.2779 H   0  0  0  0  0  0  0  0  0  0  0  0
  142.9973   74.9335  218.5510 H   0  0  0  0  0  0  0  0  0  0  0  0
  144.1812   75.3875  219.8370 H   0  0  0  0  0  0  0  0  0  0  0  0
  1  2  1  0
  2  3  1  0
  3  4  2  0
  3  5  1  0
  5  6  1  0
  6  7  2  0
  7  8  1  0
  8  9  2  0
  9 10  1  0
 10 11  2  0
  5 12  1  0
 12 13  1  0
 13 14  1  0
 14 15  1  0
 15 16  1  0
 16 17  2  0
 16 18  1  0
 18 19  1  0
 18 20  1  0
 20 21  1  0
 21 22  1  0
 22 23  2  0
 23 24  1  0
 24 25  2  0
 25 26  1  0
 26 27  2  0
 27 28  1  0
 28 29  1  0
 29 30  2  0
 30 31  1  0
 31 32  2  0
 32 33  1  0
 33 34  2  0
 15 35  1  0
 35 36  1  0
 11  6  1  0
 36 12  1  0
 28 20  1  0
 34 29  1  0
 27 22  1  0
  1 37  1  0
  1 38  1  0
  1 39  1  0
  2 40  1  0
  2 41  1  0
  7 42  1  0
  8 43  1  0
  9 44  1  0
 10 45  1  0
 11 46  1  0
 12 47  1  0
 13 48  1  0
 13 49  1  0
 14 50  1  0
 14 51  1  0
 18 52  1  1
 19 53  1  0
 19 54  1  0
 20 55  1  6
 21 56  1  0
 21 57  1  0
 23 58  1  0
 24 59  1  0
 25 60  1  0
 26 61  1  0
 28 62  1  6
 30 63  1  0
 31 64  1  0
 32 65  1  0
 34 66  1  0
 35 67  1  0
 35 68  1  0
 36 69  1  0
 36 70  1  0
M  END
>  <smiles>  (171) 
CCC(=O)N(c1ccccc1)C1CCN(C(=O)[C@H](N)C2Cc3ccccc3C2c2cccnc2)CC1

>  <score_type>  (171) 
oracle

>  <origin>  (171) 
autodockgpu

>  <m_score__min__energy>  (171) 
-8.5700000000000003

>  <m_primary>  (171) 
energy

>  <rmsd>  (171) 
4.336946466493831

>  <m_score__min__rmsd>  (171) 
4.336946466493831

>  <meeko>  (171) 
{"free_energy": -7.18, "intermolecular_energy": -9.57, "internal_energy": -3.39, "cluster_size": 5, "cluster_id": 3, "rank_in_cluster": 2}

>  <energy>  (171) 
-7.1

>  <cluster_rmsd>  (171) 
0.86

>  <cluster>  (171) 
2

$$$$

     RDKit          3D

 70 74  0  0  0  0  0  0  0  0999 V2000
  143.5930   73.9090  218.1170 C   0  0  0  0  0  0  0  0  0  0  0  0
  143.9020   72.5530  217.5840 C   0  0  0  0  0  0  0  0  0  0  0  0
  144.7370   71.7130  218.4780 C   0  0  0  0  0  0  0  0  0  0  0  0
  145.7430   72.2820  218.9920 O   0  0  0  0  0  0  0  0  0  0  0  0
  144.3870   70.3670  218.7070 N   0  0  0  0  0  0  0  0  0  0  0  0
  145.1640   69.2540  218.2800 C   0  0  0  0  0  0  0  0  0  0  0  0
  145.5980   69.0980  216.9660 C   0  0  0  0  0  0  0  0  0  0  0  0
  146.3470   67.9650  216.6890 C   0  0  0  0  0  0  0  0  0  0  0  0
  146.6610   67.0200  217.6500 C   0  0  0  0  0  0  0  0  0  0  0  0
  146.2170   67.2010  218.9350 C   0  0  0  0  0  0  0  0  0  0  0  0
  145.4700   68.3130  219.2620 C   0  0  0  0  0  0  0  0  0  0  0  0
  143.1690   70.0670  219.4410 C   0  0  0  0  0  0  0  0  0  0  0  0
  142.0400   69.5960  218.5710 C   0  0  0  0  0  0  0  0  0  0  0  0
  140.7330   70.3250  218.8240 C   0  0  0  0  0  0  0  0  0  0  0  0
  140.5570   70.2880  220.2890 N   0  0  0  0  0  0  0  0  0  0  0  0
  139.4990   69.5110  220.7730 C   0  0  0  0  0  0  0  0  0  0  0  0
  138.7770   68.9320  219.8820 O   0  0  0  0  0  0  0  0  0  0  0  0
  139.1180   69.2790  222.1820 C   0  0  2  0  0  0  0  0  0  0  0  0
  138.7950   67.8520  222.3060 N   0  0  0  0  0  0  0  0  0  0  0  0
  137.9990   70.1690  222.6230 C   0  0  1  0  0  0  0  0  0  0  0  0
  137.5530   69.5670  223.9920 C   0  0  0  0  0  0  0  0  0  0  0  0
  138.7870   69.9230  224.7950 C   0  0  0  0  0  0  0  0  0  0  0  0
  139.3930   69.2880  225.8650 C   0  0  0  0  0  0  0  0  0  0  0  0
  140.5520   69.7580  226.4630 C   0  0  0  0  0  0  0  0  0  0  0  0
  141.0760   70.9260  225.9120 C   0  0  0  0  0  0  0  0  0  0  0  0
  140.4720   71.5600  224.8460 C   0  0  0  0  0  0  0  0  0  0  0  0
  139.3290   71.1000  224.2540 C   0  0  0  0  0  0  0  0  0  0  0  0
  138.4150   71.5120  223.1620 C   0  0  1  0  0  0  0  0  0  0  0  0
  138.8860   72.5060  222.2430 C   0  0  0  0  0  0  0  0  0  0  0  0
  138.2060   72.6410  221.0140 C   0  0  0  0  0  0  0  0  0  0  0  0
  138.6010   73.5530  220.0650 C   0  0  0  0  0  0  0  0  0  0  0  0
  139.6820   74.3810  220.2700 C   0  0  0  0  0  0  0  0  0  0  0  0
  140.3300   74.2490  221.4420 N   0  0  0  0  0  0  0  0  0  0  0  0
  139.9580   73.3610  222.3860 C   0  0  0  0  0  0  0  0  0  0  0  0
  141.4980   71.0630  221.0530 C   0  0  0  0  0  0  0  0  0  0  0  0
  142.6980   71.3490  220.1370 C   0  0  0  0  0  0  0  0  0  0  0  0
  143.5994   73.8810  219.2166 H   0  0  0  0  0  0  0  0  0  0  0  0
  144.3514   74.6233  217.7640 H   0  0  0  0  0  0  0  0  0  0  0  0
  142.6000   74.2242  217.7640 H   0  0  0  0  0  0  0  0  0  0  0  0
  142.9512   72.0281  217.4095 H   0  0  0  0  0  0  0  0  0  0  0  0
  144.4860   72.7053  216.6644 H   0  0  0  0  0  0  0  0  0  0  0  0
  145.3585   69.8368  216.1870 H   0  0  0  0  0  0  0  0  0  0  0  0
  146.7072   67.8104  215.6612 H   0  0  0  0  0  0  0  0  0  0  0  0
  147.2590   66.1351  217.3867 H   0  0  0  0  0  0  0  0  0  0  0  0
  146.4577   66.4561  219.7078 H   0  0  0  0  0  0  0  0  0  0  0  0
  145.1169   68.4570  220.2938 H   0  0  0  0  0  0  0  0  0  0  0  0
  143.4152   69.2562  220.1424 H   0  0  0  0  0  0  0  0  0  0  0  0
  142.3248   69.7475  217.5194 H   0  0  0  0  0  0  0  0  0  0  0  0
  141.8695   68.5358  218.8097 H   0  0  0  0  0  0  0  0  0  0  0  0
  140.7936   71.3638  218.4673 H   0  0  0  0  0  0  0  0  0  0  0  0
  139.8892   69.8602  218.2930 H   0  0  0  0  0  0  0  0  0  0  0  0
  139.9495   69.5367  222.8544 H   0  0  0  0  0  0  0  0  0  0  0  0
  138.3520   67.4800  221.4170 H   0  0  0  0  0  0  0  0  0  0  0  0
  139.6350   67.2720  222.5460 H   0  0  0  0  0  0  0  0  0  0  0  0
  137.3216   70.2503  221.7602 H   0  0  0  0  0  0  0  0  0  0  0  0
  136.6470   70.0520  224.3844 H   0  0  0  0  0  0  0  0  0  0  0  0
  137.2754   68.5026  223.9823 H   0  0  0  0  0  0  0  0  0  0  0  0
  138.9344   68.3690  226.2587 H   0  0  0  0  0  0  0  0  0  0  0  0
  141.0251   69.2448  227.3132 H   0  0  0  0  0  0  0  0  0  0  0  0
  141.9954   71.3536  226.3384 H   0  0  0  0  0  0  0  0  0  0  0  0
  140.9319   72.4791  224.4539 H   0  0  0  0  0  0  0  0  0  0  0  0
  137.5615   72.1198  223.4969 H   0  0  0  0  0  0  0  0  0  0  0  0
  137.3364   71.9990  220.8101 H   0  0  0  0  0  0  0  0  0  0  0  0
  138.0413   73.6232  219.1207 H   0  0  0  0  0  0  0  0  0  0  0  0
  139.9999   75.1136  219.5136 H   0  0  0  0  0  0  0  0  0  0  0  0
  140.5399   73.3165  223.3184 H   0  0  0  0  0  0  0  0  0  0  0  0
  141.0354   72.0077  221.3747 H   0  0  0  0  0  0  0  0  0  0  0  0
  141.8148   70.5167  221.9537 H   0  0  0  0  0  0  0  0  0  0  0  0
  142.4027   72.0854  219.3751 H   0  0  0  0  0  0  0  0  0  0  0  0
  143.5233   71.7415  220.7492 H   0  0  0  0  0  0  0  0  0  0  0  0
  1  2  1  0
  2  3  1  0
  3  4  2  0
  3  5  1  0
  5  6  1  0
  6  7  2  0
  7  8  1  0
  8  9  2  0
  9 10  1  0
 10 11  2  0
  5 12  1  0
 12 13  1  0
 13 14  1  0
 14 15  1  0
 15 16  1  0
 16 17  2  0
 16 18  1  0
 18 19  1  0
 18 20  1  0
 20 21  1  0
 21 22  1  0
 22 23  2  0
 23 24  1  0
 24 25  2  0
 25 26  1  0
 26 27  2  0
 27 28  1  0
 28 29  1  0
 29 30  2  0
 30 31  1  0
 31 32  2  0
 32 33  1  0
 33 34  2  0
 15 35  1  0
 35 36  1  0
 11  6  1  0
 36 12  1  0
 28 20  1  0
 34 29  1  0
 27 22  1  0
  1 37  1  0
  1 38  1  0
  1 39  1  0
  2 40  1  0
  2 41  1  0
  7 42  1  0
  8 43  1  0
  9 44  1  0
 10 45  1  0
 11 46  1  0
 12 47  1  0
 13 48  1  0
 13 49  1  0
 14 50  1  0
 14 51  1  0
 18 52  1  1
 19 53  1  0
 19 54  1  0
 20 55  1  6
 21 56  1  0
 21 57  1  0
 23 58  1  0
 24 59  1  0
 25 60  1  0
 26 61  1  0
 28 62  1  1
 30 63  1  0
 31 64  1  0
 32 65  1  0
 34 66  1  0
 35 67  1  0
 35 68  1  0
 36 69  1  0
 36 70  1  0
M  END
>  <smiles>  (172) 
CCC(=O)N(c1ccccc1)C1CCN(C(=O)[C@H](N)C2Cc3ccccc3C2c2cccnc2)CC1

>  <score_type>  (172) 
oracle

>  <origin>  (172) 
autodockgpu

>  <m_score__min__energy>  (172) 
-8.5700000000000003

>  <m_primary>  (172) 
energy

>  <rmsd>  (172) 
10.125597607191775

>  <m_score__min__rmsd>  (172) 
10.125597607191775

>  <meeko>  (172) 
{"free_energy": -6.1, "intermolecular_energy": -8.48, "internal_energy": -3.53, "cluster_size": 1, "cluster_id": 6, "rank_in_cluster": 1}

>  <energy>  (172) 
-7.1

>  <cluster_rmsd>  (172) 
0.55

>  <cluster>  (172) 
2

$$$$

     RDKit          3D

 70 74  0  0  0  0  0  0  0  0999 V2000
  138.6160   67.1710  222.3710 C   0  0  0  0  0  0  0  0  0  0  0  0
  137.7320   68.3690  222.3790 C   0  0  0  0  0  0  0  0  0  0  0  0
  137.6310   69.0550  223.6930 C   0  0  0  0  0  0  0  0  0  0  0  0
  136.5070   68.9860  224.2680 O   0  0  0  0  0  0  0  0  0  0  0  0
  138.7500   69.7270  224.2220 N   0  0  0  0  0  0  0  0  0  0  0  0
  139.4570   69.3130  225.3850 C   0  0  0  0  0  0  0  0  0  0  0  0
  139.5490   67.9790  225.7760 C   0  0  0  0  0  0  0  0  0  0  0  0
  140.2690   67.7180  226.9310 C   0  0  0  0  0  0  0  0  0  0  0  0
  140.8750   68.7130  227.6780 C   0  0  0  0  0  0  0  0  0  0  0  0
  140.7660   70.0170  227.2680 C   0  0  0  0  0  0  0  0  0  0  0  0
  140.0620   70.3290  226.1240 C   0  0  0  0  0  0  0  0  0  0  0  0
  139.2490   70.9140  223.5470 C   0  0  0  0  0  0  0  0  0  0  0  0
  138.1690   71.8690  223.1260 C   0  0  0  0  0  0  0  0  0  0  0  0
  138.2800   72.3130  221.6790 C   0  0  0  0  0  0  0  0  0  0  0  0
  139.6880   72.7240  221.5170 N   0  0  0  0  0  0  0  0  0  0  0  0
  139.9210   74.0870  221.3030 C   0  0  0  0  0  0  0  0  0  0  0  0
  138.8760   74.8320  221.2470 O   0  0  0  0  0  0  0  0  0  0  0  0
  141.2230   74.7660  221.1370 C   0  0  2  0  0  0  0  0  0  0  0  0
  141.2240   75.9140  222.0540 N   0  0  0  0  0  0  0  0  0  0  0  0
  141.4850   75.1570  219.7170 C   0  0  1  0  0  0  0  0  0  0  0  0
  142.8770   75.8600  219.7670 C   0  0  0  0  0  0  0  0  0  0  0  0
  143.7200   74.6430  220.0880 C   0  0  0  0  0  0  0  0  0  0  0  0
  144.8940   74.5120  220.8110 C   0  0  0  0  0  0  0  0  0  0  0  0
  145.5150   73.2910  221.0230 C   0  0  0  0  0  0  0  0  0  0  0  0
  144.8780   72.1890  220.4550 C   0  0  0  0  0  0  0  0  0  0  0  0
  143.7090   72.3200  219.7340 C   0  0  0  0  0  0  0  0  0  0  0  0
  143.0930   73.5220  219.5210 C   0  0  0  0  0  0  0  0  0  0  0  0
  141.9010   74.0340  218.8030 C   0  0  1  0  0  0  0  0  0  0  0  0
  140.9130   73.0790  218.3940 C   0  0  0  0  0  0  0  0  0  0  0  0
  139.6210   73.5580  218.0920 C   0  0  0  0  0  0  0  0  0  0  0  0
  138.6060   72.7120  217.7110 C   0  0  0  0  0  0  0  0  0  0  0  0
  138.8060   71.3540  217.6050 C   0  0  0  0  0  0  0  0  0  0  0  0
  140.0380   70.9000  217.8950 N   0  0  0  0  0  0  0  0  0  0  0  0
  141.0470   71.7130  218.2700 C   0  0  0  0  0  0  0  0  0  0  0  0
  140.6620   71.6690  221.5930 C   0  0  0  0  0  0  0  0  0  0  0  0
  139.9810   70.4720  222.2740 C   0  0  0  0  0  0  0  0  0  0  0  0
  138.8370   66.8715  223.4061 H   0  0  0  0  0  0  0  0  0  0  0  0
  138.1094   66.3449  221.8505 H   0  0  0  0  0  0  0  0  0  0  0  0
  139.5547   67.4115  221.8505 H   0  0  0  0  0  0  0  0  0  0  0  0
  138.1235   69.0891  221.6453 H   0  0  0  0  0  0  0  0  0  0  0  0
  136.7206   68.0115  222.1357 H   0  0  0  0  0  0  0  0  0  0  0  0
  139.0740   67.1733  225.1970 H   0  0  0  0  0  0  0  0  0  0  0  0
  140.3628   66.6753  227.2685 H   0  0  0  0  0  0  0  0  0  0  0  0
  141.4371   68.4610  228.5893 H   0  0  0  0  0  0  0  0  0  0  0  0
  141.2419   70.8172  227.8539 H   0  0  0  0  0  0  0  0  0  0  0  0
  139.9780   71.3755  225.7956 H   0  0  0  0  0  0  0  0  0  0  0  0
  139.8992   71.4351  224.2651 H   0  0  0  0  0  0  0  0  0  0  0  0
  137.1955   71.3760  223.2647 H   0  0  0  0  0  0  0  0  0  0  0  0
  138.2746   72.7697  223.7485 H   0  0  0  0  0  0  0  0  0  0  0  0
  138.0382   71.4826  220.9994 H   0  0  0  0  0  0  0  0  0  0  0  0
  137.5800   73.1271  221.4399 H   0  0  0  0  0  0  0  0  0  0  0  0
  142.0487   74.0832  221.3861 H   0  0  0  0  0  0  0  0  0  0  0  0
  141.8840   76.6730  221.7190 H   0  0  0  0  0  0  0  0  0  0  0  0
  140.2660   76.3200  222.1860 H   0  0  0  0  0  0  0  0  0  0  0  0
  140.5734   75.6676  219.3732 H   0  0  0  0  0  0  0  0  0  0  0  0
  143.1497   76.3123  218.8021 H   0  0  0  0  0  0  0  0  0  0  0  0
  142.9650   76.7048  220.4660 H   0  0  0  0  0  0  0  0  0  0  0  0
  145.3538   75.4166  221.2356 H   0  0  0  0  0  0  0  0  0  0  0  0
  146.4469   73.1981  221.6001 H   0  0  0  0  0  0  0  0  0  0  0  0
  145.3185   71.1895  220.5849 H   0  0  0  0  0  0  0  0  0  0  0  0
  143.2507   71.4142  219.3103 H   0  0  0  0  0  0  0  0  0  0  0  0
  142.1065   74.3728  217.7768 H   0  0  0  0  0  0  0  0  0  0  0  0
  139.4200   74.6371  218.1632 H   0  0  0  0  0  0  0  0  0  0  0  0
  137.6133   73.1291  217.4862 H   0  0  0  0  0  0  0  0  0  0  0  0
  137.9977   70.6739  217.2982 H   0  0  0  0  0  0  0  0  0  0  0  0
  142.0267   71.2627  218.4879 H   0  0  0  0  0  0  0  0  0  0  0  0
  140.9943   71.3890  220.5825 H   0  0  0  0  0  0  0  0  0  0  0  0
  141.5453   71.9927  222.1631 H   0  0  0  0  0  0  0  0  0  0  0  0
  139.2560   70.0254  221.5777 H   0  0  0  0  0  0  0  0  0  0  0  0
  140.7518   69.7366  222.5478 H   0  0  0  0  0  0  0  0  0  0  0  0
  1  2  1  0
  2  3  1  0
  3  4  2  0
  3  5  1  0
  5  6  1  0
  6  7  2  0
  7  8  1  0
  8  9  2  0
  9 10  1  0
 10 11  2  0
  5 12  1  0
 12 13  1  0
 13 14  1  0
 14 15  1  0
 15 16  1  0
 16 17  2  0
 16 18  1  0
 18 19  1  0
 18 20  1  0
 20 21  1  0
 21 22  1  0
 22 23  2  0
 23 24  1  0
 24 25  2  0
 25 26  1  0
 26 27  2  0
 27 28  1  0
 28 29  1  0
 29 30  2  0
 30 31  1  0
 31 32  2  0
 32 33  1  0
 33 34  2  0
 15 35  1  0
 35 36  1  0
 11  6  1  0
 36 12  1  0
 28 20  1  0
 34 29  1  0
 27 22  1  0
  1 37  1  0
  1 38  1  0
  1 39  1  0
  2 40  1  0
  2 41  1  0
  7 42  1  0
  8 43  1  0
  9 44  1  0
 10 45  1  0
 11 46  1  0
 12 47  1  0
 13 48  1  0
 13 49  1  0
 14 50  1  0
 14 51  1  0
 18 52  1  1
 19 53  1  0
 19 54  1  0
 20 55  1  6
 21 56  1  0
 21 57  1  0
 23 58  1  0
 24 59  1  0
 25 60  1  0
 26 61  1  0
 28 62  1  6
 30 63  1  0
 31 64  1  0
 32 65  1  0
 34 66  1  0
 35 67  1  0
 35 68  1  0
 36 69  1  0
 36 70  1  0
M  END
>  <smiles>  (173) 
CCC(=O)N(c1ccccc1)C1CCN(C(=O)[C@H](N)C2Cc3ccccc3C2c2cccnc2)CC1

>  <score_type>  (173) 
oracle

>  <origin>  (173) 
autodockgpu

>  <m_score__min__energy>  (173) 
-8.5700000000000003

>  <m_primary>  (173) 
energy

>  <rmsd>  (173) 
7.3095438428104815

>  <m_score__min__rmsd>  (173) 
7.3095438428104815

>  <meeko>  (173) 
{"free_energy": -7.09, "intermolecular_energy": -9.48, "internal_energy": -3.58, "cluster_size": 37, "cluster_id": 2, "rank_in_cluster": 18}

>  <energy>  (173) 
-7.09

>  <cluster_rmsd>  (173) 
0.88

>  <cluster>  (173) 
2

$$$$

     RDKit          3D

 70 74  0  0  0  0  0  0  0  0999 V2000
  138.8350   67.3770  222.6940 C   0  0  0  0  0  0  0  0  0  0  0  0
  137.9970   68.5660  222.3800 C   0  0  0  0  0  0  0  0  0  0  0  0
  137.8060   69.5060  223.5140 C   0  0  0  0  0  0  0  0  0  0  0  0
  136.6210   69.6280  223.9380 O   0  0  0  0  0  0  0  0  0  0  0  0
  138.9130   70.1940  224.0490 N   0  0  0  0  0  0  0  0  0  0  0  0
  139.5780   69.8280  225.2530 C   0  0  0  0  0  0  0  0  0  0  0  0
  139.4690   68.5610  225.8180 C   0  0  0  0  0  0  0  0  0  0  0  0
  140.1710   68.3410  226.9930 C   0  0  0  0  0  0  0  0  0  0  0  0
  140.9470   69.3160  227.5950 C   0  0  0  0  0  0  0  0  0  0  0  0
  141.0330   70.5550  227.0160 C   0  0  0  0  0  0  0  0  0  0  0  0
  140.3550   70.8230  225.8450 C   0  0  0  0  0  0  0  0  0  0  0  0
  139.4420   71.3460  223.3390 C   0  0  0  0  0  0  0  0  0  0  0  0
  138.3840   72.2120  222.7180 C   0  0  0  0  0  0  0  0  0  0  0  0
  138.6490   72.5450  221.2610 C   0  0  0  0  0  0  0  0  0  0  0  0
  140.0490   73.0090  221.2270 N   0  0  0  0  0  0  0  0  0  0  0  0
  140.2540   74.3600  220.9280 C   0  0  0  0  0  0  0  0  0  0  0  0
  139.1960   75.0470  220.6890 O   0  0  0  0  0  0  0  0  0  0  0  0
  141.5400   75.0850  220.8560 C   0  0  2  0  0  0  0  0  0  0  0  0
  141.4070   76.2720  221.7110 N   0  0  0  0  0  0  0  0  0  0  0  0
  141.9260   75.4230  219.4510 C   0  0  1  0  0  0  0  0  0  0  0  0
  143.3630   76.0150  219.5840 C   0  0  0  0  0  0  0  0  0  0  0  0
  144.0830   74.7430  219.9810 C   0  0  0  0  0  0  0  0  0  0  0  0
  145.1920   74.5370  220.7840 C   0  0  0  0  0  0  0  0  0  0  0  0
  145.6990   73.2760  221.0580 C   0  0  0  0  0  0  0  0  0  0  0  0
  145.0150   72.2150  220.4660 C   0  0  0  0  0  0  0  0  0  0  0  0
  143.9110   72.4210  219.6650 C   0  0  0  0  0  0  0  0  0  0  0  0
  143.4080   73.6630  219.3920 C   0  0  0  0  0  0  0  0  0  0  0  0
  142.3100   74.2510  218.5860 C   0  0  1  0  0  0  0  0  0  0  0  0
  141.2790   73.3680  218.1260 C   0  0  0  0  0  0  0  0  0  0  0  0
  140.0900   73.9460  217.6330 C   0  0  0  0  0  0  0  0  0  0  0  0
  139.0410   73.1750  217.1910 C   0  0  0  0  0  0  0  0  0  0  0  0
  139.1030   71.8000  217.2070 C   0  0  0  0  0  0  0  0  0  0  0  0
  140.2380   71.2520  217.6780 N   0  0  0  0  0  0  0  0  0  0  0  0
  141.2780   71.9890  218.1160 C   0  0  0  0  0  0  0  0  0  0  0  0
  141.0470   72.0100  221.5030 C   0  0  0  0  0  0  0  0  0  0  0  0
  140.3360   70.8400  222.2000 C   0  0  0  0  0  0  0  0  0  0  0  0
  138.9154   67.2629  223.7851 H   0  0  0  0  0  0  0  0  0  0  0  0
  138.3704   66.4772  222.2645 H   0  0  0  0  0  0  0  0  0  0  0  0
  139.8386   67.5120  222.2645 H   0  0  0  0  0  0  0  0  0  0  0  0
  138.4762   69.1154  221.5562 H   0  0  0  0  0  0  0  0  0  0  0  0
  136.9986   68.1836  222.1211 H   0  0  0  0  0  0  0  0  0  0  0  0
  138.8563   67.7732  225.3553 H   0  0  0  0  0  0  0  0  0  0  0  0
  140.1086   67.3501  227.4666 H   0  0  0  0  0  0  0  0  0  0  0  0
  141.4885   69.0989  228.5275 H   0  0  0  0  0  0  0  0  0  0  0  0
  141.6449   71.3386  227.4867 H   0  0  0  0  0  0  0  0  0  0  0  0
  140.4270   71.8174  225.3802 H   0  0  0  0  0  0  0  0  0  0  0  0
  139.9819   71.9529  224.0808 H   0  0  0  0  0  0  0  0  0  0  0  0
  137.4205   71.6856  222.7847 H   0  0  0  0  0  0  0  0  0  0  0  0
  138.3804   73.1631  223.2707 H   0  0  0  0  0  0  0  0  0  0  0  0
  138.5215   71.6527  220.6305 H   0  0  0  0  0  0  0  0  0  0  0  0
  137.9516   73.3034  220.8758 H   0  0  0  0  0  0  0  0  0  0  0  0
  142.3618   74.4492  221.2170 H   0  0  0  0  0  0  0  0  0  0  0  0
  140.3890   76.4870  221.9150 H   0  0  0  0  0  0  0  0  0  0  0  0
  141.9300   76.1730  222.6150 H   0  0  0  0  0  0  0  0  0  0  0  0
  141.0831   75.9963  219.0375 H   0  0  0  0  0  0  0  0  0  0  0  0
  143.7343   76.4237  218.6326 H   0  0  0  0  0  0  0  0  0  0  0  0
  143.4716   76.8650  220.2738 H   0  0  0  0  0  0  0  0  0  0  0  0
  145.6927   75.4121  221.2238 H   0  0  0  0  0  0  0  0  0  0  0  0
  146.5802   73.1231  221.6984 H   0  0  0  0  0  0  0  0  0  0  0  0
  145.3648   71.1871  220.6423 H   0  0  0  0  0  0  0  0  0  0  0  0
  143.4118   71.5450  219.2252 H   0  0  0  0  0  0  0  0  0  0  0  0
  142.6085   74.5499  217.5703 H   0  0  0  0  0  0  0  0  0  0  0  0
  140.0000   75.0419  217.6015 H   0  0  0  0  0  0  0  0  0  0  0  0
  138.1319   73.6680  216.8162 H   0  0  0  0  0  0  0  0  0  0  0  0
  138.2663   71.1801  216.8524 H   0  0  0  0  0  0  0  0  0  0  0  0
  142.1716   71.4637  218.4843 H   0  0  0  0  0  0  0  0  0  0  0  0
  141.5066   71.6667  220.5644 H   0  0  0  0  0  0  0  0  0  0  0  0
  141.8440   72.4193  222.1412 H   0  0  0  0  0  0  0  0  0  0  0  0
  139.7159   70.3056  221.4652 H   0  0  0  0  0  0  0  0  0  0  0  0
  141.0965   70.1663  222.6217 H   0  0  0  0  0  0  0  0  0  0  0  0
  1  2  1  0
  2  3  1  0
  3  4  2  0
  3  5  1  0
  5  6  1  0
  6  7  2  0
  7  8  1  0
  8  9  2  0
  9 10  1  0
 10 11  2  0
  5 12  1  0
 12 13  1  0
 13 14  1  0
 14 15  1  0
 15 16  1  0
 16 17  2  0
 16 18  1  0
 18 19  1  0
 18 20  1  0
 20 21  1  0
 21 22  1  0
 22 23  2  0
 23 24  1  0
 24 25  2  0
 25 26  1  0
 26 27  2  0
 27 28  1  0
 28 29  1  0
 29 30  2  0
 30 31  1  0
 31 32  2  0
 32 33  1  0
 33 34  2  0
 15 35  1  0
 35 36  1  0
 11  6  1  0
 36 12  1  0
 28 20  1  0
 34 29  1  0
 27 22  1  0
  1 37  1  0
  1 38  1  0
  1 39  1  0
  2 40  1  0
  2 41  1  0
  7 42  1  0
  8 43  1  0
  9 44  1  0
 10 45  1  0
 11 46  1  0
 12 47  1  0
 13 48  1  0
 13 49  1  0
 14 50  1  0
 14 51  1  0
 18 52  1  1
 19 53  1  0
 19 54  1  0
 20 55  1  6
 21 56  1  0
 21 57  1  0
 23 58  1  0
 24 59  1  0
 25 60  1  0
 26 61  1  0
 28 62  1  6
 30 63  1  0
 31 64  1  0
 32 65  1  0
 34 66  1  0
 35 67  1  0
 35 68  1  0
 36 69  1  0
 36 70  1  0
M  END
>  <smiles>  (174) 
CCC(=O)N(c1ccccc1)C1CCN(C(=O)[C@H](N)C2Cc3ccccc3C2c2cccnc2)CC1

>  <score_type>  (174) 
oracle

>  <origin>  (174) 
autodockgpu

>  <m_score__min__energy>  (174) 
-8.5700000000000003

>  <m_primary>  (174) 
energy

>  <rmsd>  (174) 
7.162499199168375

>  <m_score__min__rmsd>  (174) 
7.162499199168375

>  <meeko>  (174) 
{"free_energy": -6.94, "intermolecular_energy": -9.32, "internal_energy": -3.68, "cluster_size": 37, "cluster_id": 2, "rank_in_cluster": 34}

>  <energy>  (174) 
-7.08

>  <cluster_rmsd>  (174) 
0.57

>  <cluster>  (174) 
2

$$$$

     RDKit          3D

 70 74  0  0  0  0  0  0  0  0999 V2000
  137.0620   68.9810  221.7110 C   0  0  0  0  0  0  0  0  0  0  0  0
  137.1600   69.0090  223.1960 C   0  0  0  0  0  0  0  0  0  0  0  0
  138.4900   68.6260  223.7350 C   0  0  0  0  0  0  0  0  0  0  0  0
  138.8410   67.4270  223.5430 O   0  0  0  0  0  0  0  0  0  0  0  0
  139.2740   69.5810  224.4130 N   0  0  0  0  0  0  0  0  0  0  0  0
  139.7530   69.4250  225.7440 C   0  0  0  0  0  0  0  0  0  0  0  0
  139.7910   68.1930  226.3910 C   0  0  0  0  0  0  0  0  0  0  0  0
  140.2810   68.1860  227.6880 C   0  0  0  0  0  0  0  0  0  0  0  0
  140.7150   69.3330  228.3300 C   0  0  0  0  0  0  0  0  0  0  0  0
  140.6640   70.5310  227.6670 C   0  0  0  0  0  0  0  0  0  0  0  0
  140.1870   70.5910  226.3750 C   0  0  0  0  0  0  0  0  0  0  0  0
  139.6500   70.8050  223.7260 C   0  0  0  0  0  0  0  0  0  0  0  0
  138.5000   71.7400  223.4830 C   0  0  0  0  0  0  0  0  0  0  0  0
  138.4140   72.2370  222.0520 C   0  0  0  0  0  0  0  0  0  0  0  0
  139.7770   72.6980  221.7280 N   0  0  0  0  0  0  0  0  0  0  0  0
  139.9450   74.0740  221.5400 C   0  0  0  0  0  0  0  0  0  0  0  0
  138.8810   74.7870  221.6450 O   0  0  0  0  0  0  0  0  0  0  0  0
  141.1960   74.8000  221.2370 C   0  0  2  0  0  0  0  0  0  0  0  0
  141.2100   75.9970  222.0880 N   0  0  0  0  0  0  0  0  0  0  0  0
  141.3300   75.1200  219.7820 C   0  0  1  0  0  0  0  0  0  0  0  0
  142.7140   75.8340  219.6770 C   0  0  0  0  0  0  0  0  0  0  0  0
  143.5950   74.6400  219.9830 C   0  0  0  0  0  0  0  0  0  0  0  0
  144.8270   74.5530  220.6080 C   0  0  0  0  0  0  0  0  0  0  0  0
  145.4780   73.3480  220.8250 C   0  0  0  0  0  0  0  0  0  0  0  0
  144.8050   72.2150  220.3700 C   0  0  0  0  0  0  0  0  0  0  0  0
  143.5780   72.3020  219.7470 C   0  0  0  0  0  0  0  0  0  0  0  0
  142.9330   73.4880  219.5290 C   0  0  0  0  0  0  0  0  0  0  0  0
  141.6780   73.9560  218.8920 C   0  0  1  0  0  0  0  0  0  0  0  0
  140.6690   72.9760  218.6170 C   0  0  0  0  0  0  0  0  0  0  0  0
  139.3340   73.4190  218.5060 C   0  0  0  0  0  0  0  0  0  0  0  0
  138.3000   72.5460  218.2640 C   0  0  0  0  0  0  0  0  0  0  0  0
  138.5200   71.1950  218.1180 C   0  0  0  0  0  0  0  0  0  0  0  0
  139.7930   70.7750  218.2250 N   0  0  0  0  0  0  0  0  0  0  0  0
  140.8220   71.6140  218.4620 C   0  0  0  0  0  0  0  0  0  0  0  0
  140.7820   71.6720  221.6400 C   0  0  0  0  0  0  0  0  0  0  0  0
  140.2260   70.4310  222.3550 C   0  0  0  0  0  0  0  0  0  0  0  0
  136.0430   68.6899  221.4162 H   0  0  0  0  0  0  0  0  0  0  0  0
  137.2886   69.9798  221.3097 H   0  0  0  0  0  0  0  0  0  0  0  0
  137.7820   68.2526  221.3097 H   0  0  0  0  0  0  0  0  0  0  0  0
  136.9333   70.0304  223.5357 H   0  0  0  0  0  0  0  0  0  0  0  0
  136.4449   68.2614  223.5699 H   0  0  0  0  0  0  0  0  0  0  0  0
  139.4493   67.2710  225.8979 H   0  0  0  0  0  0  0  0  0  0  0  0
  140.3268   67.2294  228.2292 H   0  0  0  0  0  0  0  0  0  0  0  0
  141.0964   69.2833  229.3606 H   0  0  0  0  0  0  0  0  0  0  0  0
  141.0052   71.4490  228.1679 H   0  0  0  0  0  0  0  0  0  0  0  0
  140.1488   71.5537  225.8442 H   0  0  0  0  0  0  0  0  0  0  0  0
  140.3724   71.3213  224.3753 H   0  0  0  0  0  0  0  0  0  0  0  0
  137.5656   71.2124  223.7248 H   0  0  0  0  0  0  0  0  0  0  0  0
  138.6598   72.6212  224.1218 H   0  0  0  0  0  0  0  0  0  0  0  0
  138.1100   71.4232  221.3772 H   0  0  0  0  0  0  0  0  0  0  0  0
  137.6677   73.0366  221.9354 H   0  0  0  0  0  0  0  0  0  0  0  0
  142.0709   74.1707  221.4574 H   0  0  0  0  0  0  0  0  0  0  0  0
  141.8280   76.7540  221.6770 H   0  0  0  0  0  0  0  0  0  0  0  0
  140.2480   76.3830  222.2500 H   0  0  0  0  0  0  0  0  0  0  0  0
  140.3863   75.6059  219.4933 H   0  0  0  0  0  0  0  0  0  0  0  0
  142.8977   76.2397  218.6712 H   0  0  0  0  0  0  0  0  0  0  0  0
  142.8526   76.7129  220.3238 H   0  0  0  0  0  0  0  0  0  0  0  0
  145.3110   75.4806  220.9475 H   0  0  0  0  0  0  0  0  0  0  0  0
  146.4577   73.2901  221.3218 H   0  0  0  0  0  0  0  0  0  0  0  0
  145.2648   71.2258  220.5117 H   0  0  0  0  0  0  0  0  0  0  0  0
  143.0950   71.3732  219.4093 H   0  0  0  0  0  0  0  0  0  0  0  0
  141.7913   74.2444  217.8365 H   0  0  0  0  0  0  0  0  0  0  0  0
  139.1148   74.4913  218.6160 H   0  0  0  0  0  0  0  0  0  0  0  0
  137.2743   72.9356  218.1853 H   0  0  0  0  0  0  0  0  0  0  0  0
  137.6953   70.4936  217.9234 H   0  0  0  0  0  0  0  0  0  0  0  0
  141.8346   71.1906  218.5354 H   0  0  0  0  0  0  0  0  0  0  0  0
  140.9907   71.4379  220.5856 H   0  0  0  0  0  0  0  0  0  0  0  0
  141.7215   72.0038  222.1061 H   0  0  0  0  0  0  0  0  0  0  0  0
  139.4308   69.9859  221.7390 H   0  0  0  0  0  0  0  0  0  0  0  0
  141.0452   69.7115  222.5010 H   0  0  0  0  0  0  0  0  0  0  0  0
  1  2  1  0
  2  3  1  0
  3  4  2  0
  3  5  1  0
  5  6  1  0
  6  7  2  0
  7  8  1  0
  8  9  2  0
  9 10  1  0
 10 11  2  0
  5 12  1  0
 12 13  1  0
 13 14  1  0
 14 15  1  0
 15 16  1  0
 16 17  2  0
 16 18  1  0
 18 19  1  0
 18 20  1  0
 20 21  1  0
 21 22  1  0
 22 23  2  0
 23 24  1  0
 24 25  2  0
 25 26  1  0
 26 27  2  0
 27 28  1  0
 28 29  1  0
 29 30  2  0
 30 31  1  0
 31 32  2  0
 32 33  1  0
 33 34  2  0
 15 35  1  0
 35 36  1  0
 11  6  1  0
 36 12  1  0
 28 20  1  0
 34 29  1  0
 27 22  1  0
  1 37  1  0
  1 38  1  0
  1 39  1  0
  2 40  1  0
  2 41  1  0
  7 42  1  0
  8 43  1  0
  9 44  1  0
 10 45  1  0
 11 46  1  0
 12 47  1  0
 13 48  1  0
 13 49  1  0
 14 50  1  0
 14 51  1  0
 18 52  1  1
 19 53  1  0
 19 54  1  0
 20 55  1  6
 21 56  1  0
 21 57  1  0
 23 58  1  0
 24 59  1  0
 25 60  1  0
 26 61  1  0
 28 62  1  6
 30 63  1  0
 31 64  1  0
 32 65  1  0
 34 66  1  0
 35 67  1  0
 35 68  1  0
 36 69  1  0
 36 70  1  0
M  END
>  <smiles>  (175) 
CCC(=O)N(c1ccccc1)C1CCN(C(=O)[C@H](N)C2Cc3ccccc3C2c2cccnc2)CC1

>  <score_type>  (175) 
oracle

>  <origin>  (175) 
autodockgpu

>  <m_score__min__energy>  (175) 
-8.5700000000000003

>  <m_primary>  (175) 
energy

>  <rmsd>  (175) 
7.340192558374431

>  <m_score__min__rmsd>  (175) 
7.340192558374431

>  <meeko>  (175) 
{"free_energy": -7.06, "intermolecular_energy": -9.45, "internal_energy": -3.62, "cluster_size": 37, "cluster_id": 2, "rank_in_cluster": 21}

>  <energy>  (175) 
-7.07

>  <cluster_rmsd>  (175) 
0.7

>  <cluster>  (175) 
2

$$$$

     RDKit          3D

 70 74  0  0  0  0  0  0  0  0999 V2000
  138.7470   67.7570  221.3340 C   0  0  0  0  0  0  0  0  0  0  0  0
  138.8160   67.6950  222.8210 C   0  0  0  0  0  0  0  0  0  0  0  0
  138.2860   68.8960  223.5150 C   0  0  0  0  0  0  0  0  0  0  0  0
  137.0320   69.0550  223.4660 O   0  0  0  0  0  0  0  0  0  0  0  0
  139.1690   69.7740  224.1740 N   0  0  0  0  0  0  0  0  0  0  0  0
  139.7050   69.5450  225.4720 C   0  0  0  0  0  0  0  0  0  0  0  0
  139.7280   68.2860  226.0670 C   0  0  0  0  0  0  0  0  0  0  0  0
  140.2800   68.2080  227.3360 C   0  0  0  0  0  0  0  0  0  0  0  0
  140.7880   69.3100  228.0010 C   0  0  0  0  0  0  0  0  0  0  0  0
  140.7490   70.5370  227.3900 C   0  0  0  0  0  0  0  0  0  0  0  0
  140.2130   70.6670  226.1270 C   0  0  0  0  0  0  0  0  0  0  0  0
  139.5920   70.9900  223.5010 C   0  0  0  0  0  0  0  0  0  0  0  0
  138.4560   71.8900  223.1080 C   0  0  0  0  0  0  0  0  0  0  0  0
  138.5180   72.3510  221.6630 C   0  0  0  0  0  0  0  0  0  0  0  0
  139.8980   72.8380  221.4800 N   0  0  0  0  0  0  0  0  0  0  0  0
  140.0560   74.2130  221.2750 C   0  0  0  0  0  0  0  0  0  0  0  0
  138.9720   74.9020  221.2440 O   0  0  0  0  0  0  0  0  0  0  0  0
  141.3170   74.9620  221.0930 C   0  0  2  0  0  0  0  0  0  0  0  0
  141.2320   76.1520  221.9490 N   0  0  0  0  0  0  0  0  0  0  0  0
  141.5790   75.2950  219.6590 C   0  0  1  0  0  0  0  0  0  0  0  0
  142.9970   75.9470  219.6730 C   0  0  0  0  0  0  0  0  0  0  0  0
  143.7970   74.7100  220.0260 C   0  0  0  0  0  0  0  0  0  0  0  0
  144.9720   74.5580  220.7430 C   0  0  0  0  0  0  0  0  0  0  0  0
  145.5490   73.3220  220.9890 C   0  0  0  0  0  0  0  0  0  0  0  0
  144.8650   72.2280  220.4630 C   0  0  0  0  0  0  0  0  0  0  0  0
  143.6950   72.3790  219.7490 C   0  0  0  0  0  0  0  0  0  0  0  0
  143.1220   73.5960  219.5020 C   0  0  0  0  0  0  0  0  0  0  0  0
  141.9430   74.1290  218.7780 C   0  0  1  0  0  0  0  0  0  0  0  0
  140.9160   73.1990  218.4090 C   0  0  0  0  0  0  0  0  0  0  0  0
  139.6260   73.7110  218.1530 C   0  0  0  0  0  0  0  0  0  0  0  0
  138.5770   72.8910  217.8130 C   0  0  0  0  0  0  0  0  0  0  0  0
  138.7370   71.5270  217.7050 C   0  0  0  0  0  0  0  0  0  0  0  0
  139.9670   71.0420  217.9510 N   0  0  0  0  0  0  0  0  0  0  0  0
  141.0090   71.8290  218.2850 C   0  0  0  0  0  0  0  0  0  0  0  0
  140.9280   71.8350  221.5300 C   0  0  0  0  0  0  0  0  0  0  0  0
  140.3240   70.5980  222.2110 C   0  0  0  0  0  0  0  0  0  0  0  0
  137.9601   68.4641  221.0326 H   0  0  0  0  0  0  0  0  0  0  0  0
  139.7153   68.0944  220.9358 H   0  0  0  0  0  0  0  0  0  0  0  0
  138.5147   66.7583  220.9358 H   0  0  0  0  0  0  0  0  0  0  0  0
  138.2364   66.8219  223.1553 H   0  0  0  0  0  0  0  0  0  0  0  0
  139.8828   67.6300  223.0812 H   0  0  0  0  0  0  0  0  0  0  0  0
  139.3281   67.3980  225.5555 H   0  0  0  0  0  0  0  0  0  0  0  0
  140.3158   67.2286  227.8356 H   0  0  0  0  0  0  0  0  0  0  0  0
  141.2180   69.2030  229.0078 H   0  0  0  0  0  0  0  0  0  0  0  0
  141.1470   71.4209  227.9099 H   0  0  0  0  0  0  0  0  0  0  0  0
  140.1859   71.6516  225.6373 H   0  0  0  0  0  0  0  0  0  0  0  0
  140.2268   71.5387  224.2123 H   0  0  0  0  0  0  0  0  0  0  0  0
  137.5124   71.3452  223.2591 H   0  0  0  0  0  0  0  0  0  0  0  0
  138.5248   72.7898  223.7370 H   0  0  0  0  0  0  0  0  0  0  0  0
  138.3090   71.5142  220.9803 H   0  0  0  0  0  0  0  0  0  0  0  0
  137.7715   73.1286  221.4436 H   0  0  0  0  0  0  0  0  0  0  0  0
  142.1787   74.3457  221.3891 H   0  0  0  0  0  0  0  0  0  0  0  0
  140.2560   76.2720  222.3460 H   0  0  0  0  0  0  0  0  0  0  0  0
  141.9270   76.1290  222.7340 H   0  0  0  0  0  0  0  0  0  0  0  0
  140.6830   75.8272  219.3070 H   0  0  0  0  0  0  0  0  0  0  0  0
  143.2762   76.3572  218.6913 H   0  0  0  0  0  0  0  0  0  0  0  0
  143.1238   76.8103  220.3429 H   0  0  0  0  0  0  0  0  0  0  0  0
  145.4692   75.4577  221.1345 H   0  0  0  0  0  0  0  0  0  0  0  0
  146.4827   73.2123  221.5602 H   0  0  0  0  0  0  0  0  0  0  0  0
  145.2690   71.2172  220.6215 H   0  0  0  0  0  0  0  0  0  0  0  0
  143.1990   71.4777  219.3596 H   0  0  0  0  0  0  0  0  0  0  0  0
  142.1502   74.4267  217.7395 H   0  0  0  0  0  0  0  0  0  0  0  0
  139.4557   74.7952  218.2276 H   0  0  0  0  0  0  0  0  0  0  0  0
  137.5880   73.3334  217.6229 H   0  0  0  0  0  0  0  0  0  0  0  0
  137.9004   70.8674  217.4312 H   0  0  0  0  0  0  0  0  0  0  0  0
  141.9840   71.3537  218.4681 H   0  0  0  0  0  0  0  0  0  0  0  0
  141.2571   71.5816  220.5114 H   0  0  0  0  0  0  0  0  0  0  0  0
  141.8024   72.2005  222.0884 H   0  0  0  0  0  0  0  0  0  0  0  0
  139.6115   70.1193  221.5231 H   0  0  0  0  0  0  0  0  0  0  0  0
  141.1375   69.9022  222.4644 H   0  0  0  0  0  0  0  0  0  0  0  0
  1  2  1  0
  2  3  1  0
  3  4  2  0
  3  5  1  0
  5  6  1  0
  6  7  2  0
  7  8  1  0
  8  9  2  0
  9 10  1  0
 10 11  2  0
  5 12  1  0
 12 13  1  0
 13 14  1  0
 14 15  1  0
 15 16  1  0
 16 17  2  0
 16 18  1  0
 18 19  1  0
 18 20  1  0
 20 21  1  0
 21 22  1  0
 22 23  2  0
 23 24  1  0
 24 25  2  0
 25 26  1  0
 26 27  2  0
 27 28  1  0
 28 29  1  0
 29 30  2  0
 30 31  1  0
 31 32  2  0
 32 33  1  0
 33 34  2  0
 15 35  1  0
 35 36  1  0
 11  6  1  0
 36 12  1  0
 28 20  1  0
 34 29  1  0
 27 22  1  0
  1 37  1  0
  1 38  1  0
  1 39  1  0
  2 40  1  0
  2 41  1  0
  7 42  1  0
  8 43  1  0
  9 44  1  0
 10 45  1  0
 11 46  1  0
 12 47  1  0
 13 48  1  0
 13 49  1  0
 14 50  1  0
 14 51  1  0
 18 52  1  1
 19 53  1  0
 19 54  1  0
 20 55  1  6
 21 56  1  0
 21 57  1  0
 23 58  1  0
 24 59  1  0
 25 60  1  0
 26 61  1  0
 28 62  1  6
 30 63  1  0
 31 64  1  0
 32 65  1  0
 34 66  1  0
 35 67  1  0
 35 68  1  0
 36 69  1  0
 36 70  1  0
M  END
>  <smiles>  (176) 
CCC(=O)N(c1ccccc1)C1CCN(C(=O)[C@H](N)C2Cc3ccccc3C2c2cccnc2)CC1

>  <score_type>  (176) 
oracle

>  <origin>  (176) 
autodockgpu

>  <m_score__min__energy>  (176) 
-8.5700000000000003

>  <m_primary>  (176) 
energy

>  <rmsd>  (176) 
7.235625534871935

>  <m_score__min__rmsd>  (176) 
7.235625534871935

>  <meeko>  (176) 
{"free_energy": -6.95, "intermolecular_energy": -9.34, "internal_energy": -3.74, "cluster_size": 37, "cluster_id": 2, "rank_in_cluster": 31}

>  <energy>  (176) 
-7.06

>  <cluster_rmsd>  (176) 
0.53

>  <cluster>  (176) 
2

$$$$

     RDKit          3D

 70 74  0  0  0  0  0  0  0  0999 V2000
  136.9610   68.8350  221.7330 C   0  0  0  0  0  0  0  0  0  0  0  0
  137.1010   68.9220  223.2130 C   0  0  0  0  0  0  0  0  0  0  0  0
  138.4490   68.5690  223.7280 C   0  0  0  0  0  0  0  0  0  0  0  0
  138.8240   67.3780  223.5270 O   0  0  0  0  0  0  0  0  0  0  0  0
  139.2240   69.5410  224.3920 N   0  0  0  0  0  0  0  0  0  0  0  0
  139.7070   69.4060  225.7240 C   0  0  0  0  0  0  0  0  0  0  0  0
  139.7250   68.1880  226.3990 C   0  0  0  0  0  0  0  0  0  0  0  0
  140.2230   68.2010  227.6920 C   0  0  0  0  0  0  0  0  0  0  0  0
  140.6850   69.3530  228.3060 C   0  0  0  0  0  0  0  0  0  0  0  0
  140.6530   70.5370  227.6160 C   0  0  0  0  0  0  0  0  0  0  0  0
  140.1690   70.5760  226.3250 C   0  0  0  0  0  0  0  0  0  0  0  0
  139.5830   70.7620  223.6910 C   0  0  0  0  0  0  0  0  0  0  0  0
  138.4260   71.6920  223.4640 C   0  0  0  0  0  0  0  0  0  0  0  0
  138.3100   72.1800  222.0320 C   0  0  0  0  0  0  0  0  0  0  0  0
  139.6650   72.6430  221.6800 N   0  0  0  0  0  0  0  0  0  0  0  0
  139.8250   74.0180  221.4800 C   0  0  0  0  0  0  0  0  0  0  0  0
  138.7620   74.7290  221.6010 O   0  0  0  0  0  0  0  0  0  0  0  0
  141.0680   74.7460  221.1480 C   0  0  2  0  0  0  0  0  0  0  0  0
  141.0920   75.9520  221.9860 N   0  0  0  0  0  0  0  0  0  0  0  0
  141.1770   75.0510  219.6880 C   0  0  1  0  0  0  0  0  0  0  0  0
  142.5320   75.8140  219.5590 C   0  0  0  0  0  0  0  0  0  0  0  0
  143.4590   74.6570  219.8730 C   0  0  0  0  0  0  0  0  0  0  0  0
  144.7000   74.6250  220.4860 C   0  0  0  0  0  0  0  0  0  0  0  0
  145.3970   73.4480  220.7130 C   0  0  0  0  0  0  0  0  0  0  0  0
  144.7630   72.2850  220.2790 C   0  0  0  0  0  0  0  0  0  0  0  0
  143.5270   72.3180  219.6670 C   0  0  0  0  0  0  0  0  0  0  0  0
  142.8370   73.4760  219.4400 C   0  0  0  0  0  0  0  0  0  0  0  0
  141.5590   73.8880  218.8100 C   0  0  1  0  0  0  0  0  0  0  0  0
  140.5850   72.8670  218.5580 C   0  0  0  0  0  0  0  0  0  0  0  0
  139.2320   73.2570  218.4720 C   0  0  0  0  0  0  0  0  0  0  0  0
  138.2280   72.3420  218.2540 C   0  0  0  0  0  0  0  0  0  0  0  0
  138.4990   71.0000  218.1070 C   0  0  0  0  0  0  0  0  0  0  0  0
  139.7900   70.6320  218.1900 N   0  0  0  0  0  0  0  0  0  0  0  0
  140.7890   71.5130  218.4030 C   0  0  0  0  0  0  0  0  0  0  0  0
  140.6710   71.6190  221.5780 C   0  0  0  0  0  0  0  0  0  0  0  0
  140.1320   70.3810  222.3110 C   0  0  0  0  0  0  0  0  0  0  0  0
  136.0511   68.2696  221.4834 H   0  0  0  0  0  0  0  0  0  0  0  0
  136.8902   69.8484  221.3112 H   0  0  0  0  0  0  0  0  0  0  0  0
  137.8383   68.3227  221.3112 H   0  0  0  0  0  0  0  0  0  0  0  0
  136.8763   69.9544  223.5189 H   0  0  0  0  0  0  0  0  0  0  0  0
  136.4025   68.1851  223.6363 H   0  0  0  0  0  0  0  0  0  0  0  0
  139.3620   67.2620  225.9292 H   0  0  0  0  0  0  0  0  0  0  0  0
  140.2526   67.2562  228.2545 H   0  0  0  0  0  0  0  0  0  0  0  0
  141.0729   69.3184  229.3348 H   0  0  0  0  0  0  0  0  0  0  0  0
  141.0147   71.4595  228.0937 H   0  0  0  0  0  0  0  0  0  0  0  0
  140.1476   71.5265  225.7718 H   0  0  0  0  0  0  0  0  0  0  0  0
  140.3162   71.2840  224.3233 H   0  0  0  0  0  0  0  0  0  0  0  0
  137.4981   71.1632  223.7273 H   0  0  0  0  0  0  0  0  0  0  0  0
  138.5962   72.5778  224.0936 H   0  0  0  0  0  0  0  0  0  0  0  0
  137.9958   71.3612  221.3680 H   0  0  0  0  0  0  0  0  0  0  0  0
  137.5586   72.9762  221.9246 H   0  0  0  0  0  0  0  0  0  0  0  0
  141.9487   74.1220  221.3602 H   0  0  0  0  0  0  0  0  0  0  0  0
  140.2050   76.0380  222.5600 H   0  0  0  0  0  0  0  0  0  0  0  0
  141.9240   75.9780  222.6230 H   0  0  0  0  0  0  0  0  0  0  0  0
  140.2134   75.4983  219.4026 H   0  0  0  0  0  0  0  0  0  0  0  0
  142.6910   76.2117  218.5458 H   0  0  0  0  0  0  0  0  0  0  0  0
  142.6444   76.7069  220.1916 H   0  0  0  0  0  0  0  0  0  0  0  0
  145.1528   75.5747  220.8069 H   0  0  0  0  0  0  0  0  0  0  0  0
  146.3823   73.4331  221.2018 H   0  0  0  0  0  0  0  0  0  0  0  0
  145.2611   71.3157  220.4284 H   0  0  0  0  0  0  0  0  0  0  0  0
  143.0754   71.3675  219.3466 H   0  0  0  0  0  0  0  0  0  0  0  0
  141.6501   74.1660  217.7496 H   0  0  0  0  0  0  0  0  0  0  0  0
  138.9730   74.3204  218.5821 H   0  0  0  0  0  0  0  0  0  0  0  0
  137.1861   72.6901  218.1959 H   0  0  0  0  0  0  0  0  0  0  0  0
  137.6994   70.2655  217.9305 H   0  0  0  0  0  0  0  0  0  0  0  0
  141.8192   71.1311  218.4557 H   0  0  0  0  0  0  0  0  0  0  0  0
  140.8595   71.3793  220.5211 H   0  0  0  0  0  0  0  0  0  0  0  0
  141.6188   71.9558  222.0234 H   0  0  0  0  0  0  0  0  0  0  0  0
  139.3255   69.9308  221.7136 H   0  0  0  0  0  0  0  0  0  0  0  0
  140.9553   69.6638  222.4446 H   0  0  0  0  0  0  0  0  0  0  0  0
  1  2  1  0
  2  3  1  0
  3  4  2  0
  3  5  1  0
  5  6  1  0
  6  7  2  0
  7  8  1  0
  8  9  2  0
  9 10  1  0
 10 11  2  0
  5 12  1  0
 12 13  1  0
 13 14  1  0
 14 15  1  0
 15 16  1  0
 16 17  2  0
 16 18  1  0
 18 19  1  0
 18 20  1  0
 20 21  1  0
 21 22  1  0
 22 23  2  0
 23 24  1  0
 24 25  2  0
 25 26  1  0
 26 27  2  0
 27 28  1  0
 28 29  1  0
 29 30  2  0
 30 31  1  0
 31 32  2  0
 32 33  1  0
 33 34  2  0
 15 35  1  0
 35 36  1  0
 11  6  1  0
 36 12  1  0
 28 20  1  0
 34 29  1  0
 27 22  1  0
  1 37  1  0
  1 38  1  0
  1 39  1  0
  2 40  1  0
  2 41  1  0
  7 42  1  0
  8 43  1  0
  9 44  1  0
 10 45  1  0
 11 46  1  0
 12 47  1  0
 13 48  1  0
 13 49  1  0
 14 50  1  0
 14 51  1  0
 18 52  1  1
 19 53  1  0
 19 54  1  0
 20 55  1  6
 21 56  1  0
 21 57  1  0
 23 58  1  0
 24 59  1  0
 25 60  1  0
 26 61  1  0
 28 62  1  6
 30 63  1  0
 31 64  1  0
 32 65  1  0
 34 66  1  0
 35 67  1  0
 35 68  1  0
 36 69  1  0
 36 70  1  0
M  END
>  <smiles>  (177) 
CCC(=O)N(c1ccccc1)C1CCN(C(=O)[C@H](N)C2Cc3ccccc3C2c2cccnc2)CC1

>  <score_type>  (177) 
oracle

>  <origin>  (177) 
autodockgpu

>  <m_score__min__energy>  (177) 
-8.5700000000000003

>  <m_primary>  (177) 
energy

>  <rmsd>  (177) 
7.329673730127865

>  <m_score__min__rmsd>  (177) 
7.329673730127865

>  <meeko>  (177) 
{"free_energy": -7.1, "intermolecular_energy": -9.49, "internal_energy": -3.65, "cluster_size": 37, "cluster_id": 2, "rank_in_cluster": 17}

>  <energy>  (177) 
-7.06

>  <cluster_rmsd>  (177) 
0.88

>  <cluster>  (177) 
2

$$$$

     RDKit          3D

 70 74  0  0  0  0  0  0  0  0999 V2000
  138.3750   67.9310  221.2760 C   0  0  0  0  0  0  0  0  0  0  0  0
  138.6560   67.7990  222.7320 C   0  0  0  0  0  0  0  0  0  0  0  0
  138.1870   68.9400  223.5580 C   0  0  0  0  0  0  0  0  0  0  0  0
  136.9330   69.0830  223.6430 O   0  0  0  0  0  0  0  0  0  0  0  0
  139.1240   69.7830  224.1890 N   0  0  0  0  0  0  0  0  0  0  0  0
  139.7000   69.5270  225.4650 C   0  0  0  0  0  0  0  0  0  0  0  0
  139.7490   68.2540  226.0270 C   0  0  0  0  0  0  0  0  0  0  0  0
  140.3390   68.1490  227.2770 C   0  0  0  0  0  0  0  0  0  0  0  0
  140.8590   69.2380  227.9540 C   0  0  0  0  0  0  0  0  0  0  0  0
  140.7930   70.4790  227.3750 C   0  0  0  0  0  0  0  0  0  0  0  0
  140.2190   70.6360  226.1320 C   0  0  0  0  0  0  0  0  0  0  0  0
  139.5620   70.9890  223.5080 C   0  0  0  0  0  0  0  0  0  0  0  0
  138.4370   71.8930  223.0920 C   0  0  0  0  0  0  0  0  0  0  0  0
  138.5180   72.3380  221.6440 C   0  0  0  0  0  0  0  0  0  0  0  0
  139.9040   72.8130  221.4710 N   0  0  0  0  0  0  0  0  0  0  0  0
  140.0730   74.1850  221.2540 C   0  0  0  0  0  0  0  0  0  0  0  0
  138.9940   74.8800  221.2020 O   0  0  0  0  0  0  0  0  0  0  0  0
  141.3410   74.9240  221.0780 C   0  0  2  0  0  0  0  0  0  0  0  0
  141.2650   76.1100  221.9400 N   0  0  0  0  0  0  0  0  0  0  0  0
  141.6090   75.2620  219.6460 C   0  0  1  0  0  0  0  0  0  0  0  0
  143.0270   75.9120  219.6690 C   0  0  0  0  0  0  0  0  0  0  0  0
  143.8250   74.6730  220.0200 C   0  0  0  0  0  0  0  0  0  0  0  0
  144.9970   74.5180  220.7410 C   0  0  0  0  0  0  0  0  0  0  0  0
  145.5720   73.2810  220.9850 C   0  0  0  0  0  0  0  0  0  0  0  0
  144.8890   72.1890  220.4530 C   0  0  0  0  0  0  0  0  0  0  0  0
  143.7220   72.3440  219.7340 C   0  0  0  0  0  0  0  0  0  0  0  0
  143.1510   73.5620  219.4900 C   0  0  0  0  0  0  0  0  0  0  0  0
  141.9750   74.0990  218.7630 C   0  0  1  0  0  0  0  0  0  0  0  0
  140.9490   73.1710  218.3860 C   0  0  0  0  0  0  0  0  0  0  0  0
  139.6660   73.6870  218.1110 C   0  0  0  0  0  0  0  0  0  0  0  0
  138.6170   72.8690  217.7620 C   0  0  0  0  0  0  0  0  0  0  0  0
  138.7720   71.5050  217.6640 C   0  0  0  0  0  0  0  0  0  0  0  0
  139.9970   71.0150  217.9280 N   0  0  0  0  0  0  0  0  0  0  0  0
  141.0390   71.8000  218.2710 C   0  0  0  0  0  0  0  0  0  0  0  0
  140.9270   71.8040  221.5440 C   0  0  0  0  0  0  0  0  0  0  0  0
  140.3060   70.5790  222.2310 C   0  0  0  0  0  0  0  0  0  0  0  0
  137.3877   68.3947  221.1337 H   0  0  0  0  0  0  0  0  0  0  0  0
  139.1467   68.5608  220.8093 H   0  0  0  0  0  0  0  0  0  0  0  0
  138.3830   66.9350  220.8093 H   0  0  0  0  0  0  0  0  0  0  0  0
  138.1614   66.8862  223.0955 H   0  0  0  0  0  0  0  0  0  0  0  0
  139.7506   67.7676  222.8366 H   0  0  0  0  0  0  0  0  0  0  0  0
  139.3402   67.3760  225.5054 H   0  0  0  0  0  0  0  0  0  0  0  0
  140.3962   67.1579  227.7508 H   0  0  0  0  0  0  0  0  0  0  0  0
  141.3197   69.1096  228.9446 H   0  0  0  0  0  0  0  0  0  0  0  0
  141.1999   71.3529  227.9048 H   0  0  0  0  0  0  0  0  0  0  0  0
  140.1705   71.6321  225.6680 H   0  0  0  0  0  0  0  0  0  0  0  0
  140.1916   71.5409  224.2214 H   0  0  0  0  0  0  0  0  0  0  0  0
  137.4878   71.3566  223.2382 H   0  0  0  0  0  0  0  0  0  0  0  0
  138.5058   72.7991  223.7118 H   0  0  0  0  0  0  0  0  0  0  0  0
  138.3101   71.4956  220.9678 H   0  0  0  0  0  0  0  0  0  0  0  0
  137.7798   73.1187  221.4083 H   0  0  0  0  0  0  0  0  0  0  0  0
  142.1967   74.2986  221.3724 H   0  0  0  0  0  0  0  0  0  0  0  0
  140.2890   76.2370  222.3350 H   0  0  0  0  0  0  0  0  0  0  0  0
  141.9570   76.0770  222.7270 H   0  0  0  0  0  0  0  0  0  0  0  0
  140.7153   75.7965  219.2917 H   0  0  0  0  0  0  0  0  0  0  0  0
  143.3108   76.3263  218.6903 H   0  0  0  0  0  0  0  0  0  0  0  0
  143.1515   76.7720  220.3435 H   0  0  0  0  0  0  0  0  0  0  0  0
  145.4933   75.4161  221.1374 H   0  0  0  0  0  0  0  0  0  0  0  0
  146.5035   73.1688  221.5592 H   0  0  0  0  0  0  0  0  0  0  0  0
  145.2909   71.1772  220.6105 H   0  0  0  0  0  0  0  0  0  0  0  0
  143.2273   71.4448  219.3381 H   0  0  0  0  0  0  0  0  0  0  0  0
  142.1862   74.4005  217.7264 H   0  0  0  0  0  0  0  0  0  0  0  0
  139.4997   74.7723  218.1773 H   0  0  0  0  0  0  0  0  0  0  0  0
  137.6325   73.3147  217.5567 H   0  0  0  0  0  0  0  0  0  0  0  0
  137.9356   70.8478  217.3837 H   0  0  0  0  0  0  0  0  0  0  0  0
  142.0098   71.3221  218.4690 H   0  0  0  0  0  0  0  0  0  0  0  0
  141.2666   71.5373  220.5323 H   0  0  0  0  0  0  0  0  0  0  0  0
  141.7975   72.1696  222.1085 H   0  0  0  0  0  0  0  0  0  0  0  0
  139.5980   70.0983  221.5398 H   0  0  0  0  0  0  0  0  0  0  0  0
  141.1116   69.8805  222.5014 H   0  0  0  0  0  0  0  0  0  0  0  0
  1  2  1  0
  2  3  1  0
  3  4  2  0
  3  5  1  0
  5  6  1  0
  6  7  2  0
  7  8  1  0
  8  9  2  0
  9 10  1  0
 10 11  2  0
  5 12  1  0
 12 13  1  0
 13 14  1  0
 14 15  1  0
 15 16  1  0
 16 17  2  0
 16 18  1  0
 18 19  1  0
 18 20  1  0
 20 21  1  0
 21 22  1  0
 22 23  2  0
 23 24  1  0
 24 25  2  0
 25 26  1  0
 26 27  2  0
 27 28  1  0
 28 29  1  0
 29 30  2  0
 30 31  1  0
 31 32  2  0
 32 33  1  0
 33 34  2  0
 15 35  1  0
 35 36  1  0
 11  6  1  0
 36 12  1  0
 28 20  1  0
 34 29  1  0
 27 22  1  0
  1 37  1  0
  1 38  1  0
  1 39  1  0
  2 40  1  0
  2 41  1  0
  7 42  1  0
  8 43  1  0
  9 44  1  0
 10 45  1  0
 11 46  1  0
 12 47  1  0
 13 48  1  0
 13 49  1  0
 14 50  1  0
 14 51  1  0
 18 52  1  1
 19 53  1  0
 19 54  1  0
 20 55  1  6
 21 56  1  0
 21 57  1  0
 23 58  1  0
 24 59  1  0
 25 60  1  0
 26 61  1  0
 28 62  1  6
 30 63  1  0
 31 64  1  0
 32 65  1  0
 34 66  1  0
 35 67  1  0
 35 68  1  0
 36 69  1  0
 36 70  1  0
M  END
>  <smiles>  (178) 
CCC(=O)N(c1ccccc1)C1CCN(C(=O)[C@H](N)C2Cc3ccccc3C2c2cccnc2)CC1

>  <score_type>  (178) 
oracle

>  <origin>  (178) 
autodockgpu

>  <m_score__min__energy>  (178) 
-8.5700000000000003

>  <m_primary>  (178) 
energy

>  <rmsd>  (178) 
7.264154927416408

>  <m_score__min__rmsd>  (178) 
7.264154927416408

>  <meeko>  (178) 
{"free_energy": -6.94, "intermolecular_energy": -9.33, "internal_energy": -3.74, "cluster_size": 37, "cluster_id": 2, "rank_in_cluster": 33}

>  <energy>  (178) 
-7.06

>  <cluster_rmsd>  (178) 
0.88

>  <cluster>  (178) 
2

$$$$

     RDKit          3D

 70 74  0  0  0  0  0  0  0  0999 V2000
  146.5960   73.3760  221.9780 C   0  0  0  0  0  0  0  0  0  0  0  0
  145.7130   74.1390  221.0540 C   0  0  0  0  0  0  0  0  0  0  0  0
  145.4650   73.4770  219.7480 C   0  0  0  0  0  0  0  0  0  0  0  0
  146.3220   72.6180  219.3910 O   0  0  0  0  0  0  0  0  0  0  0  0
  144.3270   73.8210  218.9910 N   0  0  0  0  0  0  0  0  0  0  0  0
  144.1910   73.5800  217.5950 C   0  0  0  0  0  0  0  0  0  0  0  0
  143.8170   72.3430  217.0770 C   0  0  0  0  0  0  0  0  0  0  0  0
  143.7230   72.2490  215.6970 C   0  0  0  0  0  0  0  0  0  0  0  0
  143.9860   73.3160  214.8540 C   0  0  0  0  0  0  0  0  0  0  0  0
  144.3540   74.5200  215.3950 C   0  0  0  0  0  0  0  0  0  0  0  0
  144.4590   74.6660  216.7620 C   0  0  0  0  0  0  0  0  0  0  0  0
  143.1960   74.4460  219.6550 C   0  0  0  0  0  0  0  0  0  0  0  0
  141.8630   73.9380  219.1870 C   0  0  0  0  0  0  0  0  0  0  0  0
  140.8830   75.0410  218.8290 C   0  0  0  0  0  0  0  0  0  0  0  0
  140.9210   75.9680  219.9760 N   0  0  0  0  0  0  0  0  0  0  0  0
  139.7630   76.0450  220.7570 C   0  0  0  0  0  0  0  0  0  0  0  0
  138.7790   75.3150  220.3720 O   0  0  0  0  0  0  0  0  0  0  0  0
  139.5410   76.8630  221.9680 C   0  0  2  0  0  0  0  0  0  0  0  0
  138.8770   75.9980  222.9510 N   0  0  0  0  0  0  0  0  0  0  0  0
  138.7700   78.1120  221.6780 C   0  0  1  0  0  0  0  0  0  0  0  0
  138.7530   78.8720  223.0400 C   0  0  0  0  0  0  0  0  0  0  0  0
  140.2240   79.2280  223.1050 C   0  0  0  0  0  0  0  0  0  0  0  0
  141.0760   79.3890  224.1840 C   0  0  0  0  0  0  0  0  0  0  0  0
  142.4200   79.6940  224.0440 C   0  0  0  0  0  0  0  0  0  0  0  0
  142.8670   79.8330  222.7300 C   0  0  0  0  0  0  0  0  0  0  0  0
  142.0180   79.6750  221.6550 C   0  0  0  0  0  0  0  0  0  0  0  0
  140.6910   79.3740  221.7890 C   0  0  0  0  0  0  0  0  0  0  0  0
  139.5160   79.1700  220.9080 C   0  0  1  0  0  0  0  0  0  0  0  0
  139.7630   78.9590  219.5120 C   0  0  0  0  0  0  0  0  0  0  0  0
  138.7600   78.3150  218.7560 C   0  0  0  0  0  0  0  0  0  0  0  0
  138.9210   78.0530  217.4160 C   0  0  0  0  0  0  0  0  0  0  0  0
  140.0710   78.4090  216.7470 C   0  0  0  0  0  0  0  0  0  0  0  0
  141.0250   79.0210  217.4700 N   0  0  0  0  0  0  0  0  0  0  0  0
  140.8880   79.2870  218.7850 C   0  0  0  0  0  0  0  0  0  0  0  0
  142.1510   76.6910  220.1570 C   0  0  0  0  0  0  0  0  0  0  0  0
  143.2350   75.9510  219.3590 C   0  0  0  0  0  0  0  0  0  0  0  0
  146.3264   73.6090  223.0187 H   0  0  0  0  0  0  0  0  0  0  0  0
  146.4698   72.2980  221.7991 H   0  0  0  0  0  0  0  0  0  0  0  0
  147.6443   73.6572  221.7991 H   0  0  0  0  0  0  0  0  0  0  0  0
  144.7437   74.2894  221.5519 H   0  0  0  0  0  0  0  0  0  0  0  0
  146.2348   75.0814  220.8315 H   0  0  0  0  0  0  0  0  0  0  0  0
  143.6066   71.4832  217.7300 H   0  0  0  0  0  0  0  0  0  0  0  0
  143.4273   71.2870  215.2531 H   0  0  0  0  0  0  0  0  0  0  0  0
  143.9005   73.1984  213.7637 H   0  0  0  0  0  0  0  0  0  0  0  0
  144.5667   75.3742  214.7354 H   0  0  0  0  0  0  0  0  0  0  0  0
  144.7527   75.6343  217.1935 H   0  0  0  0  0  0  0  0  0  0  0  0
  143.2895   74.2097  220.7252 H   0  0  0  0  0  0  0  0  0  0  0  0
  142.0226   73.3123  218.2965 H   0  0  0  0  0  0  0  0  0  0  0  0
  141.4220   73.3736  220.0218 H   0  0  0  0  0  0  0  0  0  0  0  0
  141.1959   75.5528  217.9070 H   0  0  0  0  0  0  0  0  0  0  0  0
  139.8709   74.6522  218.6436 H   0  0  0  0  0  0  0  0  0  0  0  0
  140.4990   77.2237  222.3706 H   0  0  0  0  0  0  0  0  0  0  0  0
  138.1380   75.3920  222.4920 H   0  0  0  0  0  0  0  0  0  0  0  0
  139.5550   75.3880  223.4690 H   0  0  0  0  0  0  0  0  0  0  0  0
  137.8518   77.7861  221.1675 H   0  0  0  0  0  0  0  0  0  0  0  0
  138.1099   79.7640  223.0108 H   0  0  0  0  0  0  0  0  0  0  0  0
  138.3547   78.3120  223.8989 H   0  0  0  0  0  0  0  0  0  0  0  0
  140.6674   79.2694  225.1983 H   0  0  0  0  0  0  0  0  0  0  0  0
  143.0883   79.8180  224.9089 H   0  0  0  0  0  0  0  0  0  0  0  0
  143.9243   80.0749  222.5466 H   0  0  0  0  0  0  0  0  0  0  0  0
  142.4278   79.7969  220.6415 H   0  0  0  0  0  0  0  0  0  0  0  0
  138.9175   80.0776  220.7405 H   0  0  0  0  0  0  0  0  0  0  0  0
  137.8251   78.0149  219.2519 H   0  0  0  0  0  0  0  0  0  0  0  0
  138.1134   77.5478  216.8660 H   0  0  0  0  0  0  0  0  0  0  0  0
  140.2024   78.2028  215.6745 H   0  0  0  0  0  0  0  0  0  0  0  0
  141.7161   79.7915  219.3043 H   0  0  0  0  0  0  0  0  0  0  0  0
  142.0425   77.7192  219.7814 H   0  0  0  0  0  0  0  0  0  0  0  0
  142.4190   76.7447  221.2225 H   0  0  0  0  0  0  0  0  0  0  0  0
  143.0649   76.1119  218.2842 H   0  0  0  0  0  0  0  0  0  0  0  0
  144.2197   76.3433  219.6532 H   0  0  0  0  0  0  0  0  0  0  0  0
  1  2  1  0
  2  3  1  0
  3  4  2  0
  3  5  1  0
  5  6  1  0
  6  7  2  0
  7  8  1  0
  8  9  2  0
  9 10  1  0
 10 11  2  0
  5 12  1  0
 12 13  1  0
 13 14  1  0
 14 15  1  0
 15 16  1  0
 16 17  2  0
 16 18  1  0
 18 19  1  0
 18 20  1  0
 20 21  1  0
 21 22  1  0
 22 23  2  0
 23 24  1  0
 24 25  2  0
 25 26  1  0
 26 27  2  0
 27 28  1  0
 28 29  1  0
 29 30  2  0
 30 31  1  0
 31 32  2  0
 32 33  1  0
 33 34  2  0
 15 35  1  0
 35 36  1  0
 11  6  1  0
 36 12  1  0
 28 20  1  0
 34 29  1  0
 27 22  1  0
  1 37  1  0
  1 38  1  0
  1 39  1  0
  2 40  1  0
  2 41  1  0
  7 42  1  0
  8 43  1  0
  9 44  1  0
 10 45  1  0
 11 46  1  0
 12 47  1  0
 13 48  1  0
 13 49  1  0
 14 50  1  0
 14 51  1  0
 18 52  1  1
 19 53  1  0
 19 54  1  0
 20 55  1  6
 21 56  1  0
 21 57  1  0
 23 58  1  0
 24 59  1  0
 25 60  1  0
 26 61  1  0
 28 62  1  6
 30 63  1  0
 31 64  1  0
 32 65  1  0
 34 66  1  0
 35 67  1  0
 35 68  1  0
 36 69  1  0
 36 70  1  0
M  END
>  <smiles>  (179) 
CCC(=O)N(c1ccccc1)C1CCN(C(=O)[C@H](N)C2Cc3ccccc3C2c2cccnc2)CC1

>  <score_type>  (179) 
oracle

>  <origin>  (179) 
autodockgpu

>  <m_score__min__energy>  (179) 
-8.5700000000000003

>  <m_primary>  (179) 
energy

>  <rmsd>  (179) 
4.268201911585201

>  <m_score__min__rmsd>  (179) 
4.268201911585201

>  <meeko>  (179) 
{"free_energy": -6.38, "intermolecular_energy": -8.76, "internal_energy": -3.68, "cluster_size": 5, "cluster_id": 3, "rank_in_cluster": 5}

>  <energy>  (179) 
-7.04

>  <cluster_rmsd>  (179) 
0.89

>  <cluster>  (179) 
2

$$$$

     RDKit          3D

 70 74  0  0  0  0  0  0  0  0999 V2000
  136.1940   70.5810  224.2260 C   0  0  0  0  0  0  0  0  0  0  0  0
  137.0150   69.3430  224.1210 C   0  0  0  0  0  0  0  0  0  0  0  0
  138.3630   69.5430  223.5320 C   0  0  0  0  0  0  0  0  0  0  0  0
  138.6140   68.8780  222.4860 O   0  0  0  0  0  0  0  0  0  0  0  0
  139.2710   70.4330  224.1400 N   0  0  0  0  0  0  0  0  0  0  0  0
  139.7980   70.2660  225.4520 C   0  0  0  0  0  0  0  0  0  0  0  0
  139.7260   69.0600  226.1450 C   0  0  0  0  0  0  0  0  0  0  0  0
  140.2800   69.0390  227.4150 C   0  0  0  0  0  0  0  0  0  0  0  0
  140.8810   70.1470  227.9890 C   0  0  0  0  0  0  0  0  0  0  0  0
  140.9350   71.3190  227.2820 C   0  0  0  0  0  0  0  0  0  0  0  0
  140.4000   71.3920  226.0130 C   0  0  0  0  0  0  0  0  0  0  0  0
  139.7310   71.5940  223.3980 C   0  0  0  0  0  0  0  0  0  0  0  0
  138.6300   72.3430  222.7040 C   0  0  0  0  0  0  0  0  0  0  0  0
  138.9210   72.6370  221.2440 C   0  0  0  0  0  0  0  0  0  0  0  0
  140.2790   73.2140  221.2370 N   0  0  0  0  0  0  0  0  0  0  0  0
  140.3840   74.5640  220.8870 C   0  0  0  0  0  0  0  0  0  0  0  0
  139.2820   75.1510  220.5820 O   0  0  0  0  0  0  0  0  0  0  0  0
  141.6070   75.3910  220.8270 C   0  0  2  0  0  0  0  0  0  0  0  0
  141.3370   76.6080  221.6010 N   0  0  0  0  0  0  0  0  0  0  0  0
  142.0320   75.6780  219.4210 C   0  0  1  0  0  0  0  0  0  0  0  0
  143.5080   76.1640  219.5630 C   0  0  0  0  0  0  0  0  0  0  0  0
  144.1270   74.8480  219.9850 C   0  0  0  0  0  0  0  0  0  0  0  0
  145.2090   74.5710  220.8030 C   0  0  0  0  0  0  0  0  0  0  0  0
  145.6180   73.2800  221.0990 C   0  0  0  0  0  0  0  0  0  0  0  0
  144.8630   72.2650  220.5140 C   0  0  0  0  0  0  0  0  0  0  0  0
  143.7850   72.5410  219.6980 C   0  0  0  0  0  0  0  0  0  0  0  0
  143.3790   73.8130  219.4020 C   0  0  0  0  0  0  0  0  0  0  0  0
  142.3370   74.4690  218.5760 C   0  0  1  0  0  0  0  0  0  0  0  0
  141.2480   73.6590  218.1160 C   0  0  0  0  0  0  0  0  0  0  0  0
  140.1440   74.3130  217.5290 C   0  0  0  0  0  0  0  0  0  0  0  0
  139.0470   73.6170  217.0790 C   0  0  0  0  0  0  0  0  0  0  0  0
  138.9750   72.2460  217.1800 C   0  0  0  0  0  0  0  0  0  0  0  0
  140.0280   71.6250  217.7420 N   0  0  0  0  0  0  0  0  0  0  0  0
  141.1130   72.2890  218.1890 C   0  0  0  0  0  0  0  0  0  0  0  0
  141.3440   72.3140  221.5910 C   0  0  0  0  0  0  0  0  0  0  0  0
  140.7050   71.1180  222.3130 C   0  0  0  0  0  0  0  0  0  0  0  0
  136.0323   70.8249  225.2864 H   0  0  0  0  0  0  0  0  0  0  0  0
  136.7202   71.4127  223.7346 H   0  0  0  0  0  0  0  0  0  0  0  0
  135.2231   70.4199  223.7346 H   0  0  0  0  0  0  0  0  0  0  0  0
  137.1405   68.9279  225.1319 H   0  0  0  0  0  0  0  0  0  0  0  0
  136.4749   68.6677  223.4410 H   0  0  0  0  0  0  0  0  0  0  0  0
  139.2531   68.1690  225.7063 H   0  0  0  0  0  0  0  0  0  0  0  0
  140.2408   68.1030  227.9915 H   0  0  0  0  0  0  0  0  0  0  0  0
  141.3097   70.0866  229.0002 H   0  0  0  0  0  0  0  0  0  0  0  0
  141.4074   72.2063  227.7286 H   0  0  0  0  0  0  0  0  0  0  0  0
  140.4478   72.3335  225.4462 H   0  0  0  0  0  0  0  0  0  0  0  0
  140.1922   72.2730  224.1303 H   0  0  0  0  0  0  0  0  0  0  0  0
  137.7108   71.7415  222.7610 H   0  0  0  0  0  0  0  0  0  0  0  0
  138.5284   73.3123  223.2140 H   0  0  0  0  0  0  0  0  0  0  0  0
  138.8903   71.7122  220.6493 H   0  0  0  0  0  0  0  0  0  0  0  0
  138.1789   73.3185  220.8026 H   0  0  0  0  0  0  0  0  0  0  0  0
  142.4601   74.8500  221.2623 H   0  0  0  0  0  0  0  0  0  0  0  0
  140.2980   76.7310  221.7740 H   0  0  0  0  0  0  0  0  0  0  0  0
  141.8470   76.6200  222.5170 H   0  0  0  0  0  0  0  0  0  0  0  0
  141.2380   76.3054  218.9898 H   0  0  0  0  0  0  0  0  0  0  0  0
  143.9188   76.5307  218.6108 H   0  0  0  0  0  0  0  0  0  0  0  0
  143.6721   77.0132  220.2427 H   0  0  0  0  0  0  0  0  0  0  0  0
  145.7689   75.4124  221.2372 H   0  0  0  0  0  0  0  0  0  0  0  0
  146.4791   73.0710  221.7507 H   0  0  0  0  0  0  0  0  0  0  0  0
  145.1335   71.2165  220.7078 H   0  0  0  0  0  0  0  0  0  0  0  0
  143.2259   71.6983  219.2652 H   0  0  0  0  0  0  0  0  0  0  0  0
  142.6679   74.7303  217.5600 H   0  0  0  0  0  0  0  0  0  0  0  0
  140.1615   75.4083  217.4288 H   0  0  0  0  0  0  0  0  0  0  0  0
  138.2083   74.1679  216.6283 H   0  0  0  0  0  0  0  0  0  0  0  0
  138.0998   71.6858  216.8190 H   0  0  0  0  0  0  0  0  0  0  0  0
  141.9331   71.7073  218.6351 H   0  0  0  0  0  0  0  0  0  0  0  0
  141.8660   71.9725  220.6850 H   0  0  0  0  0  0  0  0  0  0  0  0
  142.0796   72.8140  222.2382 H   0  0  0  0  0  0  0  0  0  0  0  0
  140.1583   70.5051  221.5813 H   0  0  0  0  0  0  0  0  0  0  0  0
  141.5013   70.5267  222.7887 H   0  0  0  0  0  0  0  0  0  0  0  0
  1  2  1  0
  2  3  1  0
  3  4  2  0
  3  5  1  0
  5  6  1  0
  6  7  2  0
  7  8  1  0
  8  9  2  0
  9 10  1  0
 10 11  2  0
  5 12  1  0
 12 13  1  0
 13 14  1  0
 14 15  1  0
 15 16  1  0
 16 17  2  0
 16 18  1  0
 18 19  1  0
 18 20  1  0
 20 21  1  0
 21 22  1  0
 22 23  2  0
 23 24  1  0
 24 25  2  0
 25 26  1  0
 26 27  2  0
 27 28  1  0
 28 29  1  0
 29 30  2  0
 30 31  1  0
 31 32  2  0
 32 33  1  0
 33 34  2  0
 15 35  1  0
 35 36  1  0
 11  6  1  0
 36 12  1  0
 28 20  1  0
 34 29  1  0
 27 22  1  0
  1 37  1  0
  1 38  1  0
  1 39  1  0
  2 40  1  0
  2 41  1  0
  7 42  1  0
  8 43  1  0
  9 44  1  0
 10 45  1  0
 11 46  1  0
 12 47  1  0
 13 48  1  0
 13 49  1  0
 14 50  1  0
 14 51  1  0
 18 52  1  1
 19 53  1  0
 19 54  1  0
 20 55  1  6
 21 56  1  0
 21 57  1  0
 23 58  1  0
 24 59  1  0
 25 60  1  0
 26 61  1  0
 28 62  1  6
 30 63  1  0
 31 64  1  0
 32 65  1  0
 34 66  1  0
 35 67  1  0
 35 68  1  0
 36 69  1  0
 36 70  1  0
M  END
>  <smiles>  (180) 
CCC(=O)N(c1ccccc1)C1CCN(C(=O)[C@H](N)C2Cc3ccccc3C2c2cccnc2)CC1

>  <score_type>  (180) 
oracle

>  <origin>  (180) 
autodockgpu

>  <m_score__min__energy>  (180) 
-8.5700000000000003

>  <m_primary>  (180) 
energy

>  <rmsd>  (180) 
7.059558761436549

>  <m_score__min__rmsd>  (180) 
7.059558761436549

>  <meeko>  (180) 
{"free_energy": -7.01, "intermolecular_energy": -9.39, "internal_energy": -3.64, "cluster_size": 37, "cluster_id": 2, "rank_in_cluster": 26}

>  <energy>  (180) 
-7.03

>  <cluster_rmsd>  (180) 
0.7

>  <cluster>  (180) 
2

$$$$

     RDKit          3D

 70 74  0  0  0  0  0  0  0  0999 V2000
  136.2100   69.5440  224.6930 C   0  0  0  0  0  0  0  0  0  0  0  0
  137.0690   69.1680  223.5360 C   0  0  0  0  0  0  0  0  0  0  0  0
  138.4660   68.8140  223.8940 C   0  0  0  0  0  0  0  0  0  0  0  0
  138.8260   67.6330  223.6180 O   0  0  0  0  0  0  0  0  0  0  0  0
  139.3000   69.7730  224.5030 N   0  0  0  0  0  0  0  0  0  0  0  0
  139.8390   69.6490  225.8140 C   0  0  0  0  0  0  0  0  0  0  0  0
  140.3230   70.7370  226.5360 C   0  0  0  0  0  0  0  0  0  0  0  0
  140.8190   70.4720  227.8020 C   0  0  0  0  0  0  0  0  0  0  0  0
  140.8460   69.1990  228.3460 C   0  0  0  0  0  0  0  0  0  0  0  0
  140.3630   68.1480  227.6100 C   0  0  0  0  0  0  0  0  0  0  0  0
  139.8560   68.3600  226.3450 C   0  0  0  0  0  0  0  0  0  0  0  0
  139.6660   70.9670  223.7600 C   0  0  0  0  0  0  0  0  0  0  0  0
  138.5030   71.8630  223.4450 C   0  0  0  0  0  0  0  0  0  0  0  0
  138.4370   72.2830  221.9880 C   0  0  0  0  0  0  0  0  0  0  0  0
  139.7970   72.7550  221.6680 N   0  0  0  0  0  0  0  0  0  0  0  0
  139.9410   74.1230  221.4110 C   0  0  0  0  0  0  0  0  0  0  0  0
  138.8620   74.8180  221.4570 O   0  0  0  0  0  0  0  0  0  0  0  0
  141.1840   74.8580  221.0950 C   0  0  2  0  0  0  0  0  0  0  0  0
  141.1650   76.0890  221.8950 N   0  0  0  0  0  0  0  0  0  0  0  0
  141.3340   75.1200  219.6300 C   0  0  1  0  0  0  0  0  0  0  0  0
  142.7150   75.8370  219.5120 C   0  0  0  0  0  0  0  0  0  0  0  0
  143.5980   74.6610  219.8750 C   0  0  0  0  0  0  0  0  0  0  0  0
  144.8230   74.6060  220.5170 C   0  0  0  0  0  0  0  0  0  0  0  0
  145.4780   73.4150  220.7900 C   0  0  0  0  0  0  0  0  0  0  0  0
  144.8170   72.2610  220.3720 C   0  0  0  0  0  0  0  0  0  0  0  0
  143.5960   72.3160  219.7320 C   0  0  0  0  0  0  0  0  0  0  0  0
  142.9470   73.4880  219.4600 C   0  0  0  0  0  0  0  0  0  0  0  0
  141.6970   73.9230  218.7910 C   0  0  1  0  0  0  0  0  0  0  0  0
  140.6970   72.9270  218.5440 C   0  0  0  0  0  0  0  0  0  0  0  0
  139.3630   73.3590  218.3900 C   0  0  0  0  0  0  0  0  0  0  0  0
  138.3360   72.4710  218.1710 C   0  0  0  0  0  0  0  0  0  0  0  0
  138.5630   71.1160  218.0910 C   0  0  0  0  0  0  0  0  0  0  0  0
  139.8360   70.7070  218.2390 N   0  0  0  0  0  0  0  0  0  0  0  0
  140.8570   71.5610  218.4540 C   0  0  0  0  0  0  0  0  0  0  0  0
  140.8240   71.7470  221.6540 C   0  0  0  0  0  0  0  0  0  0  0  0
  140.2780   70.5340  222.4220 C   0  0  0  0  0  0  0  0  0  0  0  0
  136.7366   69.3135  225.6308 H   0  0  0  0  0  0  0  0  0  0  0  0
  135.9896   70.6209  224.6514 H   0  0  0  0  0  0  0  0  0  0  0  0
  135.2693   68.9753  224.6514 H   0  0  0  0  0  0  0  0  0  0  0  0
  136.6122   68.3007  223.0368 H   0  0  0  0  0  0  0  0  0  0  0  0
  137.1278   70.0558  222.8892 H   0  0  0  0  0  0  0  0  0  0  0  0
  140.3120   71.7559  226.1217 H   0  0  0  0  0  0  0  0  0  0  0  0
  141.2081   71.3087  228.4008 H   0  0  0  0  0  0  0  0  0  0  0  0
  141.2498   69.0331  229.3557 H   0  0  0  0  0  0  0  0  0  0  0  0
  140.3799   67.1315  228.0301 H   0  0  0  0  0  0  0  0  0  0  0  0
  139.4666   67.5155  225.7574 H   0  0  0  0  0  0  0  0  0  0  0  0
  140.3643   71.5316  224.3954 H   0  0  0  0  0  0  0  0  0  0  0  0
  137.5746   71.3288  223.6954 H   0  0  0  0  0  0  0  0  0  0  0  0
  138.6315   72.7795  224.0395 H   0  0  0  0  0  0  0  0  0  0  0  0
  138.1637   71.4289  221.3509 H   0  0  0  0  0  0  0  0  0  0  0  0
  137.6773   73.0594  221.8145 H   0  0  0  0  0  0  0  0  0  0  0  0
  142.0660   74.2536  221.3534 H   0  0  0  0  0  0  0  0  0  0  0  0
  140.2410   76.2030  222.4030 H   0  0  0  0  0  0  0  0  0  0  0  0
  141.9510   76.1250  222.5890 H   0  0  0  0  0  0  0  0  0  0  0  0
  140.3914   75.5891  219.3114 H   0  0  0  0  0  0  0  0  0  0  0  0
  142.9080   76.2034  218.4929 H   0  0  0  0  0  0  0  0  0  0  0  0
  142.8419   76.7418  220.1246 H   0  0  0  0  0  0  0  0  0  0  0  0
  145.2980   75.5494  220.8243 H   0  0  0  0  0  0  0  0  0  0  0  0
  146.4516   73.3828  221.3009 H   0  0  0  0  0  0  0  0  0  0  0  0
  145.2810   71.2810  220.5573 H   0  0  0  0  0  0  0  0  0  0  0  0
  143.1221   71.3717  219.4260 H   0  0  0  0  0  0  0  0  0  0  0  0
  141.8194   74.1698  217.7261 H   0  0  0  0  0  0  0  0  0  0  0  0
  139.1384   74.4343  218.4466 H   0  0  0  0  0  0  0  0  0  0  0  0
  137.3104   72.8522  218.0573 H   0  0  0  0  0  0  0  0  0  0  0  0
  137.7442   70.4028  217.9148 H   0  0  0  0  0  0  0  0  0  0  0  0
  141.8699   71.1461  218.5632 H   0  0  0  0  0  0  0  0  0  0  0  0
  141.0593   71.4626  220.6178 H   0  0  0  0  0  0  0  0  0  0  0  0
  141.7468   72.1223  222.1205 H   0  0  0  0  0  0  0  0  0  0  0  0
  139.5048   70.0408  221.8146 H   0  0  0  0  0  0  0  0  0  0  0  0
  141.1081   69.8405  222.6219 H   0  0  0  0  0  0  0  0  0  0  0  0
  1  2  1  0
  2  3  1  0
  3  4  2  0
  3  5  1  0
  5  6  1  0
  6  7  2  0
  7  8  1  0
  8  9  2  0
  9 10  1  0
 10 11  2  0
  5 12  1  0
 12 13  1  0
 13 14  1  0
 14 15  1  0
 15 16  1  0
 16 17  2  0
 16 18  1  0
 18 19  1  0
 18 20  1  0
 20 21  1  0
 21 22  1  0
 22 23  2  0
 23 24  1  0
 24 25  2  0
 25 26  1  0
 26 27  2  0
 27 28  1  0
 28 29  1  0
 29 30  2  0
 30 31  1  0
 31 32  2  0
 32 33  1  0
 33 34  2  0
 15 35  1  0
 35 36  1  0
 11  6  1  0
 36 12  1  0
 28 20  1  0
 34 29  1  0
 27 22  1  0
  1 37  1  0
  1 38  1  0
  1 39  1  0
  2 40  1  0
  2 41  1  0
  7 42  1  0
  8 43  1  0
  9 44  1  0
 10 45  1  0
 11 46  1  0
 12 47  1  0
 13 48  1  0
 13 49  1  0
 14 50  1  0
 14 51  1  0
 18 52  1  1
 19 53  1  0
 19 54  1  0
 20 55  1  6
 21 56  1  0
 21 57  1  0
 23 58  1  0
 24 59  1  0
 25 60  1  0
 26 61  1  0
 28 62  1  6
 30 63  1  0
 31 64  1  0
 32 65  1  0
 34 66  1  0
 35 67  1  0
 35 68  1  0
 36 69  1  0
 36 70  1  0
M  END
>  <smiles>  (181) 
CCC(=O)N(c1ccccc1)C1CCN(C(=O)[C@H](N)C2Cc3ccccc3C2c2cccnc2)CC1

>  <score_type>  (181) 
oracle

>  <origin>  (181) 
autodockgpu

>  <m_score__min__energy>  (181) 
-8.5700000000000003

>  <m_primary>  (181) 
energy

>  <rmsd>  (181) 
7.303099688986949

>  <m_score__min__rmsd>  (181) 
7.303099688986949

>  <meeko>  (181) 
{"free_energy": -7.16, "intermolecular_energy": -9.55, "internal_energy": -3.58, "cluster_size": 37, "cluster_id": 2, "rank_in_cluster": 10}

>  <energy>  (181) 
-7.01

>  <cluster_rmsd>  (181) 
1.15

>  <cluster>  (181) 
2

$$$$

     RDKit          3D

 70 74  0  0  0  0  0  0  0  0999 V2000
  136.1410   69.2930  224.0330 C   0  0  0  0  0  0  0  0  0  0  0  0
  137.2010   68.9480  223.0450 C   0  0  0  0  0  0  0  0  0  0  0  0
  138.5030   68.5610  223.6460 C   0  0  0  0  0  0  0  0  0  0  0  0
  138.8500   67.3560  223.4840 O   0  0  0  0  0  0  0  0  0  0  0  0
  139.2660   69.5170  224.3460 N   0  0  0  0  0  0  0  0  0  0  0  0
  139.7180   69.3560  225.6850 C   0  0  0  0  0  0  0  0  0  0  0  0
  139.6630   68.1380  226.3580 C   0  0  0  0  0  0  0  0  0  0  0  0
  140.1380   68.1240  227.6600 C   0  0  0  0  0  0  0  0  0  0  0  0
  140.6460   69.2500  228.2840 C   0  0  0  0  0  0  0  0  0  0  0  0
  140.6860   70.4350  227.5960 C   0  0  0  0  0  0  0  0  0  0  0  0
  140.2270   70.5010  226.2970 C   0  0  0  0  0  0  0  0  0  0  0  0
  139.6460   70.7490  223.6750 C   0  0  0  0  0  0  0  0  0  0  0  0
  138.5040   71.7010  223.4650 C   0  0  0  0  0  0  0  0  0  0  0  0
  138.4020   72.2240  222.0450 C   0  0  0  0  0  0  0  0  0  0  0  0
  139.7660   72.6750  221.7080 N   0  0  0  0  0  0  0  0  0  0  0  0
  139.9470   74.0520  221.5410 C   0  0  0  0  0  0  0  0  0  0  0  0
  138.8940   74.7750  221.6750 O   0  0  0  0  0  0  0  0  0  0  0  0
  141.2020   74.7680  221.2320 C   0  0  2  0  0  0  0  0  0  0  0  0
  141.2470   75.9460  222.1080 N   0  0  0  0  0  0  0  0  0  0  0  0
  141.3160   75.1180  219.7820 C   0  0  1  0  0  0  0  0  0  0  0  0
  142.6990   75.8320  219.6710 C   0  0  0  0  0  0  0  0  0  0  0  0
  143.5820   74.6320  219.9400 C   0  0  0  0  0  0  0  0  0  0  0  0
  144.8240   74.5310  220.5440 C   0  0  0  0  0  0  0  0  0  0  0  0
  145.4760   73.3220  220.7280 C   0  0  0  0  0  0  0  0  0  0  0  0
  144.7960   72.1990  220.2590 C   0  0  0  0  0  0  0  0  0  0  0  0
  143.5600   72.2990  219.6560 C   0  0  0  0  0  0  0  0  0  0  0  0
  142.9130   73.4900  219.4720 C   0  0  0  0  0  0  0  0  0  0  0  0
  141.6490   73.9710  218.8640 C   0  0  1  0  0  0  0  0  0  0  0  0
  140.6350   72.9980  218.5830 C   0  0  0  0  0  0  0  0  0  0  0  0
  139.2990   73.4440  218.5040 C   0  0  0  0  0  0  0  0  0  0  0  0
  138.2610   72.5760  218.2600 C   0  0  0  0  0  0  0  0  0  0  0  0
  138.4780   71.2290  218.0800 C   0  0  0  0  0  0  0  0  0  0  0  0
  139.7520   70.8060  218.1570 N   0  0  0  0  0  0  0  0  0  0  0  0
  140.7850   71.6400  218.3950 C   0  0  0  0  0  0  0  0  0  0  0  0
  140.7560   71.6390  221.5870 C   0  0  0  0  0  0  0  0  0  0  0  0
  140.1960   70.3920  222.2880 C   0  0  0  0  0  0  0  0  0  0  0  0
  136.5342   69.1650  225.0523 H   0  0  0  0  0  0  0  0  0  0  0  0
  135.8310   70.3384  223.8882 H   0  0  0  0  0  0  0  0  0  0  0  0
  135.2750   68.6303  223.8882 H   0  0  0  0  0  0  0  0  0  0  0  0
  136.8409   68.1065  222.4350 H   0  0  0  0  0  0  0  0  0  0  0  0
  137.3873   69.8584  222.4564 H   0  0  0  0  0  0  0  0  0  0  0  0
  139.2624   67.2319  225.8799 H   0  0  0  0  0  0  0  0  0  0  0  0
  140.1100   67.1782  228.2209 H   0  0  0  0  0  0  0  0  0  0  0  0
  141.0132   69.1948  229.3194 H   0  0  0  0  0  0  0  0  0  0  0  0
  141.0859   71.3372  228.0820 H   0  0  0  0  0  0  0  0  0  0  0  0
  140.2623   71.4525  225.7463 H   0  0  0  0  0  0  0  0  0  0  0  0
  140.3838   71.2453  224.3225 H   0  0  0  0  0  0  0  0  0  0  0  0
  137.5672   71.1799  223.7117 H   0  0  0  0  0  0  0  0  0  0  0  0
  138.6842   72.5691  224.1161 H   0  0  0  0  0  0  0  0  0  0  0  0
  138.0781   71.4258  221.3609 H   0  0  0  0  0  0  0  0  0  0  0  0
  137.6635   73.0341  221.9540 H   0  0  0  0  0  0  0  0  0  0  0  0
  142.0716   74.1222  221.4237 H   0  0  0  0  0  0  0  0  0  0  0  0
  141.8500   76.7120  221.6910 H   0  0  0  0  0  0  0  0  0  0  0  0
  140.2920   76.3270  222.3130 H   0  0  0  0  0  0  0  0  0  0  0  0
  140.3694   75.6117  219.5170 H   0  0  0  0  0  0  0  0  0  0  0  0
  142.8685   76.2575  218.6709 H   0  0  0  0  0  0  0  0  0  0  0  0
  142.8484   76.6976  220.3331 H   0  0  0  0  0  0  0  0  0  0  0  0
  145.3149   75.4513  220.8933 H   0  0  0  0  0  0  0  0  0  0  0  0
  146.4620   73.2532  221.2108 H   0  0  0  0  0  0  0  0  0  0  0  0
  145.2576   71.2071  220.3730 H   0  0  0  0  0  0  0  0  0  0  0  0
  143.0713   71.3776  219.3065 H   0  0  0  0  0  0  0  0  0  0  0  0
  141.7463   74.2798  217.8127 H   0  0  0  0  0  0  0  0  0  0  0  0
  139.0821   74.5137  218.6411 H   0  0  0  0  0  0  0  0  0  0  0  0
  137.2342   72.9670  218.2075 H   0  0  0  0  0  0  0  0  0  0  0  0
  137.6498   70.5325  217.8828 H   0  0  0  0  0  0  0  0  0  0  0  0
  141.7987   71.2154  218.4415 H   0  0  0  0  0  0  0  0  0  0  0  0
  140.9461   71.4214  220.5256 H   0  0  0  0  0  0  0  0  0  0  0  0
  141.7061   71.9511  222.0452 H   0  0  0  0  0  0  0  0  0  0  0  0
  139.3858   69.9677  221.6768 H   0  0  0  0  0  0  0  0  0  0  0  0
  141.0081   69.6598  222.4079 H   0  0  0  0  0  0  0  0  0  0  0  0
  1  2  1  0
  2  3  1  0
  3  4  2  0
  3  5  1  0
  5  6  1  0
  6  7  2  0
  7  8  1  0
  8  9  2  0
  9 10  1  0
 10 11  2  0
  5 12  1  0
 12 13  1  0
 13 14  1  0
 14 15  1  0
 15 16  1  0
 16 17  2  0
 16 18  1  0
 18 19  1  0
 18 20  1  0
 20 21  1  0
 21 22  1  0
 22 23  2  0
 23 24  1  0
 24 25  2  0
 25 26  1  0
 26 27  2  0
 27 28  1  0
 28 29  1  0
 29 30  2  0
 30 31  1  0
 31 32  2  0
 32 33  1  0
 33 34  2  0
 15 35  1  0
 35 36  1  0
 11  6  1  0
 36 12  1  0
 28 20  1  0
 34 29  1  0
 27 22  1  0
  1 37  1  0
  1 38  1  0
  1 39  1  0
  2 40  1  0
  2 41  1  0
  7 42  1  0
  8 43  1  0
  9 44  1  0
 10 45  1  0
 11 46  1  0
 12 47  1  0
 13 48  1  0
 13 49  1  0
 14 50  1  0
 14 51  1  0
 18 52  1  1
 19 53  1  0
 19 54  1  0
 20 55  1  6
 21 56  1  0
 21 57  1  0
 23 58  1  0
 24 59  1  0
 25 60  1  0
 26 61  1  0
 28 62  1  6
 30 63  1  0
 31 64  1  0
 32 65  1  0
 34 66  1  0
 35 67  1  0
 35 68  1  0
 36 69  1  0
 36 70  1  0
M  END
>  <smiles>  (182) 
CCC(=O)N(c1ccccc1)C1CCN(C(=O)[C@H](N)C2Cc3ccccc3C2c2cccnc2)CC1

>  <score_type>  (182) 
oracle

>  <origin>  (182) 
autodockgpu

>  <m_score__min__energy>  (182) 
-8.5700000000000003

>  <m_primary>  (182) 
energy

>  <rmsd>  (182) 
7.3472063631815505

>  <m_score__min__rmsd>  (182) 
7.3472063631815505

>  <meeko>  (182) 
{"free_energy": -7.18, "intermolecular_energy": -9.57, "internal_energy": -3.57, "cluster_size": 37, "cluster_id": 2, "rank_in_cluster": 7}

>  <energy>  (182) 
-7.0

>  <cluster_rmsd>  (182) 
0.68

>  <cluster>  (182) 
2

$$$$

     RDKit          3D

 70 74  0  0  0  0  0  0  0  0999 V2000
  136.2050   69.3140  224.2210 C   0  0  0  0  0  0  0  0  0  0  0  0
  137.1980   68.9120  223.1860 C   0  0  0  0  0  0  0  0  0  0  0  0
  138.5390   68.5640  223.7190 C   0  0  0  0  0  0  0  0  0  0  0  0
  138.9180   67.3730  223.5300 O   0  0  0  0  0  0  0  0  0  0  0  0
  139.3040   69.5410  224.3880 N   0  0  0  0  0  0  0  0  0  0  0  0
  139.7820   69.4090  225.7220 C   0  0  0  0  0  0  0  0  0  0  0  0
  139.7630   68.2000  226.4130 C   0  0  0  0  0  0  0  0  0  0  0  0
  140.2600   68.2150  227.7070 C   0  0  0  0  0  0  0  0  0  0  0  0
  140.7540   69.3600  228.3060 C   0  0  0  0  0  0  0  0  0  0  0  0
  140.7570   70.5360  227.6010 C   0  0  0  0  0  0  0  0  0  0  0  0
  140.2760   70.5730  226.3100 C   0  0  0  0  0  0  0  0  0  0  0  0
  139.6600   70.7640  223.6890 C   0  0  0  0  0  0  0  0  0  0  0  0
  138.5020   71.6960  223.4750 C   0  0  0  0  0  0  0  0  0  0  0  0
  138.3760   72.1900  222.0450 C   0  0  0  0  0  0  0  0  0  0  0  0
  139.7290   72.6530  221.6840 N   0  0  0  0  0  0  0  0  0  0  0  0
  139.8890   74.0290  221.4880 C   0  0  0  0  0  0  0  0  0  0  0  0
  138.8270   74.7400  221.6200 O   0  0  0  0  0  0  0  0  0  0  0  0
  141.1300   74.7560  221.1500 C   0  0  2  0  0  0  0  0  0  0  0  0
  141.1530   75.9680  221.9790 N   0  0  0  0  0  0  0  0  0  0  0  0
  141.2360   75.0510  219.6870 C   0  0  1  0  0  0  0  0  0  0  0  0
  142.5840   75.8270  219.5530 C   0  0  0  0  0  0  0  0  0  0  0  0
  143.5220   74.6820  219.8750 C   0  0  0  0  0  0  0  0  0  0  0  0
  144.7630   74.6670  220.4890 C   0  0  0  0  0  0  0  0  0  0  0  0
  145.4720   73.4990  220.7250 C   0  0  0  0  0  0  0  0  0  0  0  0
  144.8500   72.3260  220.2990 C   0  0  0  0  0  0  0  0  0  0  0  0
  143.6140   72.3420  219.6870 C   0  0  0  0  0  0  0  0  0  0  0  0
  142.9120   73.4920  219.4510 C   0  0  0  0  0  0  0  0  0  0  0  0
  141.6300   73.8860  218.8180 C   0  0  1  0  0  0  0  0  0  0  0  0
  140.6660   72.8540  218.5730 C   0  0  0  0  0  0  0  0  0  0  0  0
  139.3070   73.2260  218.5060 C   0  0  0  0  0  0  0  0  0  0  0  0
  138.3130   72.2990  218.2960 C   0  0  0  0  0  0  0  0  0  0  0  0
  138.6000   70.9620  218.1390 C   0  0  0  0  0  0  0  0  0  0  0  0
  139.8960   70.6100  218.2050 N   0  0  0  0  0  0  0  0  0  0  0  0
  140.8860   71.5030  218.4100 C   0  0  0  0  0  0  0  0  0  0  0  0
  140.7320   71.6280  221.5710 C   0  0  0  0  0  0  0  0  0  0  0  0
  140.1980   70.3880  222.3030 C   0  0  0  0  0  0  0  0  0  0  0  0
  136.6285   69.1426  225.2216 H   0  0  0  0  0  0  0  0  0  0  0  0
  135.9636   70.3807  224.1028 H   0  0  0  0  0  0  0  0  0  0  0  0
  135.2896   68.7156  224.1028 H   0  0  0  0  0  0  0  0  0  0  0  0
  136.8023   68.0348  222.6531 H   0  0  0  0  0  0  0  0  0  0  0  0
  137.3390   69.7859  222.5330 H   0  0  0  0  0  0  0  0  0  0  0  0
  139.3731   67.2791  225.9548 H   0  0  0  0  0  0  0  0  0  0  0  0
  140.2616   67.2771  228.2817 H   0  0  0  0  0  0  0  0  0  0  0  0
  141.1398   69.3274  229.3356 H   0  0  0  0  0  0  0  0  0  0  0  0
  141.1448   71.4535  228.0676 H   0  0  0  0  0  0  0  0  0  0  0  0
  140.2817   71.5171  225.7455 H   0  0  0  0  0  0  0  0  0  0  0  0
  140.3994   71.2823  224.3172 H   0  0  0  0  0  0  0  0  0  0  0  0
  137.5756   71.1670  223.7431 H   0  0  0  0  0  0  0  0  0  0  0  0
  138.6773   72.5790  224.1072 H   0  0  0  0  0  0  0  0  0  0  0  0
  138.0558   71.3742  221.3803 H   0  0  0  0  0  0  0  0  0  0  0  0
  137.6249   72.9876  221.9466 H   0  0  0  0  0  0  0  0  0  0  0  0
  142.0120   74.1351  221.3660 H   0  0  0  0  0  0  0  0  0  0  0  0
  140.2800   76.0400  222.5770 H   0  0  0  0  0  0  0  0  0  0  0  0
  142.0020   76.0150  222.5930 H   0  0  0  0  0  0  0  0  0  0  0  0
  140.2679   75.4860  219.3978 H   0  0  0  0  0  0  0  0  0  0  0  0
  142.7393   76.2193  218.5371 H   0  0  0  0  0  0  0  0  0  0  0  0
  142.6873   76.7253  220.1795 H   0  0  0  0  0  0  0  0  0  0  0  0
  145.2058   75.6236  220.8033 H   0  0  0  0  0  0  0  0  0  0  0  0
  146.4571   73.4978  221.2145 H   0  0  0  0  0  0  0  0  0  0  0  0
  145.3582   71.3630  220.4550 H   0  0  0  0  0  0  0  0  0  0  0  0
  143.1719   71.3847  219.3739 H   0  0  0  0  0  0  0  0  0  0  0  0
  141.7190   74.1565  217.7555 H   0  0  0  0  0  0  0  0  0  0  0  0
  139.0352   74.2852  218.6248 H   0  0  0  0  0  0  0  0  0  0  0  0
  137.2659   72.6333  218.2526 H   0  0  0  0  0  0  0  0  0  0  0  0
  137.8080   70.2180  217.9680 H   0  0  0  0  0  0  0  0  0  0  0  0
  141.9216   71.1343  218.4491 H   0  0  0  0  0  0  0  0  0  0  0  0
  140.9121   71.3920  220.5118 H   0  0  0  0  0  0  0  0  0  0  0  0
  141.6832   71.9620  222.0111 H   0  0  0  0  0  0  0  0  0  0  0  0
  139.3865   69.9408  221.7102 H   0  0  0  0  0  0  0  0  0  0  0  0
  141.0218   69.6697  222.4273 H   0  0  0  0  0  0  0  0  0  0  0  0
  1  2  1  0
  2  3  1  0
  3  4  2  0
  3  5  1  0
  5  6  1  0
  6  7  2  0
  7  8  1  0
  8  9  2  0
  9 10  1  0
 10 11  2  0
  5 12  1  0
 12 13  1  0
 13 14  1  0
 14 15  1  0
 15 16  1  0
 16 17  2  0
 16 18  1  0
 18 19  1  0
 18 20  1  0
 20 21  1  0
 21 22  1  0
 22 23  2  0
 23 24  1  0
 24 25  2  0
 25 26  1  0
 26 27  2  0
 27 28  1  0
 28 29  1  0
 29 30  2  0
 30 31  1  0
 31 32  2  0
 32 33  1  0
 33 34  2  0
 15 35  1  0
 35 36  1  0
 11  6  1  0
 36 12  1  0
 28 20  1  0
 34 29  1  0
 27 22  1  0
  1 37  1  0
  1 38  1  0
  1 39  1  0
  2 40  1  0
  2 41  1  0
  7 42  1  0
  8 43  1  0
  9 44  1  0
 10 45  1  0
 11 46  1  0
 12 47  1  0
 13 48  1  0
 13 49  1  0
 14 50  1  0
 14 51  1  0
 18 52  1  1
 19 53  1  0
 19 54  1  0
 20 55  1  6
 21 56  1  0
 21 57  1  0
 23 58  1  0
 24 59  1  0
 25 60  1  0
 26 61  1  0
 28 62  1  6
 30 63  1  0
 31 64  1  0
 32 65  1  0
 34 66  1  0
 35 67  1  0
 35 68  1  0
 36 69  1  0
 36 70  1  0
M  END
>  <smiles>  (183) 
CCC(=O)N(c1ccccc1)C1CCN(C(=O)[C@H](N)C2Cc3ccccc3C2c2cccnc2)CC1

>  <score_type>  (183) 
oracle

>  <origin>  (183) 
autodockgpu

>  <m_score__min__energy>  (183) 
-8.5700000000000003

>  <m_primary>  (183) 
energy

>  <rmsd>  (183) 
7.3252184062289345

>  <m_score__min__rmsd>  (183) 
7.3252184062289345

>  <meeko>  (183) 
{"free_energy": -7.21, "intermolecular_energy": -9.6, "internal_energy": -3.59, "cluster_size": 37, "cluster_id": 2, "rank_in_cluster": 4}

>  <energy>  (183) 
-7.0

>  <cluster_rmsd>  (183) 
0.89

>  <cluster>  (183) 
2

$$$$

     RDKit          3D

 70 74  0  0  0  0  0  0  0  0999 V2000
  136.1760   69.3450  224.5790 C   0  0  0  0  0  0  0  0  0  0  0  0
  137.0250   68.9100  223.4360 C   0  0  0  0  0  0  0  0  0  0  0  0
  138.4280   68.5840  223.7970 C   0  0  0  0  0  0  0  0  0  0  0  0
  138.8240   67.4240  223.4870 O   0  0  0  0  0  0  0  0  0  0  0  0
  139.2280   69.5460  224.4460 N   0  0  0  0  0  0  0  0  0  0  0  0
  139.7350   69.4050  225.7680 C   0  0  0  0  0  0  0  0  0  0  0  0
  139.7960   68.1790  226.4250 C   0  0  0  0  0  0  0  0  0  0  0  0
  140.3130   68.1870  227.7110 C   0  0  0  0  0  0  0  0  0  0  0  0
  140.7530   69.3420  228.3340 C   0  0  0  0  0  0  0  0  0  0  0  0
  140.6790   70.5340  227.6620 C   0  0  0  0  0  0  0  0  0  0  0  0
  140.1740   70.5790  226.3800 C   0  0  0  0  0  0  0  0  0  0  0  0
  139.5900   70.7610  223.7370 C   0  0  0  0  0  0  0  0  0  0  0  0
  138.4290   71.6780  223.4760 C   0  0  0  0  0  0  0  0  0  0  0  0
  138.3380   72.1480  222.0360 C   0  0  0  0  0  0  0  0  0  0  0  0
  139.6960   72.6180  221.7040 N   0  0  0  0  0  0  0  0  0  0  0  0
  139.8470   73.9920  221.4900 C   0  0  0  0  0  0  0  0  0  0  0  0
  138.7750   74.6950  221.5820 O   0  0  0  0  0  0  0  0  0  0  0  0
  141.0900   74.7270  221.1750 C   0  0  2  0  0  0  0  0  0  0  0  0
  141.0850   75.9450  221.9950 N   0  0  0  0  0  0  0  0  0  0  0  0
  141.2270   75.0130  219.7130 C   0  0  1  0  0  0  0  0  0  0  0  0
  142.5820   75.7780  219.6000 C   0  0  0  0  0  0  0  0  0  0  0  0
  143.5060   74.6290  219.9480 C   0  0  0  0  0  0  0  0  0  0  0  0
  144.7350   74.6090  220.5860 C   0  0  0  0  0  0  0  0  0  0  0  0
  145.4310   73.4380  220.8430 C   0  0  0  0  0  0  0  0  0  0  0  0
  144.8090   72.2670  220.4120 C   0  0  0  0  0  0  0  0  0  0  0  0
  143.5850   72.2870  219.7760 C   0  0  0  0  0  0  0  0  0  0  0  0
  142.8960   73.4400  219.5200 C   0  0  0  0  0  0  0  0  0  0  0  0
  141.6300   73.8390  218.8590 C   0  0  1  0  0  0  0  0  0  0  0  0
  140.6630   72.8120  218.6010 C   0  0  0  0  0  0  0  0  0  0  0  0
  139.3120   73.1960  218.4790 C   0  0  0  0  0  0  0  0  0  0  0  0
  138.3160   72.2760  218.2530 C   0  0  0  0  0  0  0  0  0  0  0  0
  138.5930   70.9320  218.1350 C   0  0  0  0  0  0  0  0  0  0  0  0
  139.8820   70.5690  218.2530 N   0  0  0  0  0  0  0  0  0  0  0  0
  140.8740   71.4550  218.4740 C   0  0  0  0  0  0  0  0  0  0  0  0
  140.7120   71.6030  221.6350 C   0  0  0  0  0  0  0  0  0  0  0  0
  140.1700   70.3690  222.3730 C   0  0  0  0  0  0  0  0  0  0  0  0
  136.6755   69.0891  225.5250 H   0  0  0  0  0  0  0  0  0  0  0  0
  136.0221   70.4330  224.5282 H   0  0  0  0  0  0  0  0  0  0  0  0
  135.2030   68.8343  224.5282 H   0  0  0  0  0  0  0  0  0  0  0  0
  136.5682   68.0138  222.9909 H   0  0  0  0  0  0  0  0  0  0  0  0
  137.0717   69.7611  222.7407 H   0  0  0  0  0  0  0  0  0  0  0  0
  139.4510   67.2502  225.9472 H   0  0  0  0  0  0  0  0  0  0  0  0
  140.3763   67.2356  228.2594 H   0  0  0  0  0  0  0  0  0  0  0  0
  141.1573   69.3036  229.3563 H   0  0  0  0  0  0  0  0  0  0  0  0
  141.0240   71.4588  228.1475 H   0  0  0  0  0  0  0  0  0  0  0  0
  140.1175   71.5368  225.8420 H   0  0  0  0  0  0  0  0  0  0  0  0
  140.3062   71.2970  224.3771 H   0  0  0  0  0  0  0  0  0  0  0  0
  137.5007   71.1438  223.7268 H   0  0  0  0  0  0  0  0  0  0  0  0
  138.5781   72.5725  224.0985 H   0  0  0  0  0  0  0  0  0  0  0  0
  138.0433   71.3188  221.3761 H   0  0  0  0  0  0  0  0  0  0  0  0
  137.5829   72.9371  221.9047 H   0  0  0  0  0  0  0  0  0  0  0  0
  141.9713   74.1143  221.4158 H   0  0  0  0  0  0  0  0  0  0  0  0
  140.1870   76.0290  222.5520 H   0  0  0  0  0  0  0  0  0  0  0  0
  141.9050   75.9910  222.6470 H   0  0  0  0  0  0  0  0  0  0  0  0
  140.2681   75.4537  219.4027 H   0  0  0  0  0  0  0  0  0  0  0  0
  142.7597   76.1621  218.5847 H   0  0  0  0  0  0  0  0  0  0  0  0
  142.6793   76.6798  220.2224 H   0  0  0  0  0  0  0  0  0  0  0  0
  145.1785   75.5645  220.9028 H   0  0  0  0  0  0  0  0  0  0  0  0
  146.4063   73.4330  221.3517 H   0  0  0  0  0  0  0  0  0  0  0  0
  145.3075   71.3016  220.5836 H   0  0  0  0  0  0  0  0  0  0  0  0
  143.1426   71.3307  219.4600 H   0  0  0  0  0  0  0  0  0  0  0  0
  141.7423   74.1018  217.7968 H   0  0  0  0  0  0  0  0  0  0  0  0
  139.0479   74.2602  218.5670 H   0  0  0  0  0  0  0  0  0  0  0  0
  137.2751   72.6207  218.1645 H   0  0  0  0  0  0  0  0  0  0  0  0
  137.7992   70.1926  217.9533 H   0  0  0  0  0  0  0  0  0  0  0  0
  141.9035   71.0765  218.5572 H   0  0  0  0  0  0  0  0  0  0  0  0
  140.9236   71.3519  220.5851 H   0  0  0  0  0  0  0  0  0  0  0  0
  141.6476   71.9541  222.0948 H   0  0  0  0  0  0  0  0  0  0  0  0
  139.3798   69.9038  221.7654 H   0  0  0  0  0  0  0  0  0  0  0  0
  140.9974   69.6618  222.5320 H   0  0  0  0  0  0  0  0  0  0  0  0
  1  2  1  0
  2  3  1  0
  3  4  2  0
  3  5  1  0
  5  6  1  0
  6  7  2  0
  7  8  1  0
  8  9  2  0
  9 10  1  0
 10 11  2  0
  5 12  1  0
 12 13  1  0
 13 14  1  0
 14 15  1  0
 15 16  1  0
 16 17  2  0
 16 18  1  0
 18 19  1  0
 18 20  1  0
 20 21  1  0
 21 22  1  0
 22 23  2  0
 23 24  1  0
 24 25  2  0
 25 26  1  0
 26 27  2  0
 27 28  1  0
 28 29  1  0
 29 30  2  0
 30 31  1  0
 31 32  2  0
 32 33  1  0
 33 34  2  0
 15 35  1  0
 35 36  1  0
 11  6  1  0
 36 12  1  0
 28 20  1  0
 34 29  1  0
 27 22  1  0
  1 37  1  0
  1 38  1  0
  1 39  1  0
  2 40  1  0
  2 41  1  0
  7 42  1  0
  8 43  1  0
  9 44  1  0
 10 45  1  0
 11 46  1  0
 12 47  1  0
 13 48  1  0
 13 49  1  0
 14 50  1  0
 14 51  1  0
 18 52  1  1
 19 53  1  0
 19 54  1  0
 20 55  1  6
 21 56  1  0
 21 57  1  0
 23 58  1  0
 24 59  1  0
 25 60  1  0
 26 61  1  0
 28 62  1  6
 30 63  1  0
 31 64  1  0
 32 65  1  0
 34 66  1  0
 35 67  1  0
 35 68  1  0
 36 69  1  0
 36 70  1  0
M  END
>  <smiles>  (184) 
CCC(=O)N(c1ccccc1)C1CCN(C(=O)[C@H](N)C2Cc3ccccc3C2c2cccnc2)CC1

>  <score_type>  (184) 
oracle

>  <origin>  (184) 
autodockgpu

>  <m_score__min__energy>  (184) 
-8.5700000000000003

>  <m_primary>  (184) 
energy

>  <rmsd>  (184) 
7.3608568615401495

>  <m_score__min__rmsd>  (184) 
7.3608568615401495

>  <meeko>  (184) 
{"free_energy": -7.21, "intermolecular_energy": -9.6, "internal_energy": -3.62, "cluster_size": 37, "cluster_id": 2, "rank_in_cluster": 3}

>  <energy>  (184) 
-6.96

>  <cluster_rmsd>  (184) 
0.92

>  <cluster>  (184) 
2

$$$$

     RDKit          3D

 70 74  0  0  0  0  0  0  0  0999 V2000
  138.2110   68.1830  221.3980 C   0  0  0  0  0  0  0  0  0  0  0  0
  138.4900   67.9230  222.8370 C   0  0  0  0  0  0  0  0  0  0  0  0
  138.0850   69.0190  223.7530 C   0  0  0  0  0  0  0  0  0  0  0  0
  136.8420   69.1380  223.9580 O   0  0  0  0  0  0  0  0  0  0  0  0
  139.0650   69.8490  224.3330 N   0  0  0  0  0  0  0  0  0  0  0  0
  139.6910   69.5950  225.5860 C   0  0  0  0  0  0  0  0  0  0  0  0
  139.7640   68.3220  226.1460 C   0  0  0  0  0  0  0  0  0  0  0  0
  140.4030   68.2190  227.3720 C   0  0  0  0  0  0  0  0  0  0  0  0
  140.9480   69.3090  228.0270 C   0  0  0  0  0  0  0  0  0  0  0  0
  140.8590   70.5490  227.4510 C   0  0  0  0  0  0  0  0  0  0  0  0
  140.2350   70.7050  226.2310 C   0  0  0  0  0  0  0  0  0  0  0  0
  139.4970   71.0400  223.6200 C   0  0  0  0  0  0  0  0  0  0  0  0
  138.3650   71.8880  223.1180 C   0  0  0  0  0  0  0  0  0  0  0  0
  138.4980   72.2750  221.6560 C   0  0  0  0  0  0  0  0  0  0  0  0
  139.8750   72.7860  221.5230 N   0  0  0  0  0  0  0  0  0  0  0  0
  140.0130   74.1520  221.2540 C   0  0  0  0  0  0  0  0  0  0  0  0
  138.9170   74.8100  221.1260 O   0  0  0  0  0  0  0  0  0  0  0  0
  141.2640   74.9220  221.1010 C   0  0  2  0  0  0  0  0  0  0  0  0
  141.1500   76.0980  221.9750 N   0  0  0  0  0  0  0  0  0  0  0  0
  141.5410   75.2830  219.6760 C   0  0  1  0  0  0  0  0  0  0  0  0
  142.9630   75.9260  219.7170 C   0  0  0  0  0  0  0  0  0  0  0  0
  143.7530   74.6780  220.0520 C   0  0  0  0  0  0  0  0  0  0  0  0
  144.9200   74.5060  220.7760 C   0  0  0  0  0  0  0  0  0  0  0  0
  145.4890   73.2620  221.0030 C   0  0  0  0  0  0  0  0  0  0  0  0
  144.8040   72.1820  220.4500 C   0  0  0  0  0  0  0  0  0  0  0  0
  143.6410   72.3530  219.7280 C   0  0  0  0  0  0  0  0  0  0  0  0
  143.0770   73.5780  219.5000 C   0  0  0  0  0  0  0  0  0  0  0  0
  141.9070   74.1320  218.7770 C   0  0  1  0  0  0  0  0  0  0  0  0
  140.8790   73.2150  218.3790 C   0  0  0  0  0  0  0  0  0  0  0  0
  139.6380   73.7530  217.9780 C   0  0  0  0  0  0  0  0  0  0  0  0
  138.5890   72.9480  217.6020 C   0  0  0  0  0  0  0  0  0  0  0  0
  138.7020   71.5760  217.5970 C   0  0  0  0  0  0  0  0  0  0  0  0
  139.8860   71.0660  217.9810 N   0  0  0  0  0  0  0  0  0  0  0  0
  140.9270   71.8380  218.3540 C   0  0  0  0  0  0  0  0  0  0  0  0
  140.9230   71.8140  221.6830 C   0  0  0  0  0  0  0  0  0  0  0  0
  140.3090   70.5990  222.3960 C   0  0  0  0  0  0  0  0  0  0  0  0
  137.4089   68.9305  221.3093 H   0  0  0  0  0  0  0  0  0  0  0  0
  139.1213   68.5624  220.9107 H   0  0  0  0  0  0  0  0  0  0  0  0
  137.8967   67.2482  220.9107 H   0  0  0  0  0  0  0  0  0  0  0  0
  137.9492   67.0117  223.1321 H   0  0  0  0  0  0  0  0  0  0  0  0
  139.5818   67.8262  222.9303 H   0  0  0  0  0  0  0  0  0  0  0  0
  139.3365   67.4431  225.6413 H   0  0  0  0  0  0  0  0  0  0  0  0
  140.4800   67.2285  227.8441 H   0  0  0  0  0  0  0  0  0  0  0  0
  141.4470   69.1816  228.9990 H   0  0  0  0  0  0  0  0  0  0  0  0
  141.2868   71.4233  227.9635 H   0  0  0  0  0  0  0  0  0  0  0  0
  140.1668   71.7009  225.7688 H   0  0  0  0  0  0  0  0  0  0  0  0
  140.0774   71.6425  224.3342 H   0  0  0  0  0  0  0  0  0  0  0  0
  137.4273   71.3273  223.2455 H   0  0  0  0  0  0  0  0  0  0  0  0
  138.3771   72.8206  223.7011 H   0  0  0  0  0  0  0  0  0  0  0  0
  138.3459   71.3990  221.0083 H   0  0  0  0  0  0  0  0  0  0  0  0
  137.7482   73.0215  221.3552 H   0  0  0  0  0  0  0  0  0  0  0  0
  142.1301   74.3127  221.3989 H   0  0  0  0  0  0  0  0  0  0  0  0
  140.1690   76.1910  222.3670 H   0  0  0  0  0  0  0  0  0  0  0  0
  141.8400   76.0770  222.7640 H   0  0  0  0  0  0  0  0  0  0  0  0
  140.6520   75.8280  219.3257 H   0  0  0  0  0  0  0  0  0  0  0  0
  143.2539   76.3546  218.7466 H   0  0  0  0  0  0  0  0  0  0  0  0
  143.0881   76.7744  220.4060 H   0  0  0  0  0  0  0  0  0  0  0  0
  145.4181   75.3953  221.1896 H   0  0  0  0  0  0  0  0  0  0  0  0
  146.4171   73.1364  221.5799 H   0  0  0  0  0  0  0  0  0  0  0  0
  145.2011   71.1662  220.5929 H   0  0  0  0  0  0  0  0  0  0  0  0
  143.1439   71.4623  219.3163 H   0  0  0  0  0  0  0  0  0  0  0  0
  142.1252   74.4495  217.7467 H   0  0  0  0  0  0  0  0  0  0  0  0
  139.5063   74.8450  217.9659 H   0  0  0  0  0  0  0  0  0  0  0  0
  137.6382   73.4104  217.2984 H   0  0  0  0  0  0  0  0  0  0  0  0
  137.8656   70.9289  217.2940 H   0  0  0  0  0  0  0  0  0  0  0  0
  141.8625   71.3431  218.6537 H   0  0  0  0  0  0  0  0  0  0  0  0
  141.3143   71.5159  220.6991 H   0  0  0  0  0  0  0  0  0  0  0  0
  141.7566   72.2304  222.2676 H   0  0  0  0  0  0  0  0  0  0  0  0
  139.6474   70.0667  221.6968 H   0  0  0  0  0  0  0  0  0  0  0  0
  141.1221   69.9383  222.7312 H   0  0  0  0  0  0  0  0  0  0  0  0
  1  2  1  0
  2  3  1  0
  3  4  2  0
  3  5  1  0
  5  6  1  0
  6  7  2  0
  7  8  1  0
  8  9  2  0
  9 10  1  0
 10 11  2  0
  5 12  1  0
 12 13  1  0
 13 14  1  0
 14 15  1  0
 15 16  1  0
 16 17  2  0
 16 18  1  0
 18 19  1  0
 18 20  1  0
 20 21  1  0
 21 22  1  0
 22 23  2  0
 23 24  1  0
 24 25  2  0
 25 26  1  0
 26 27  2  0
 27 28  1  0
 28 29  1  0
 29 30  2  0
 30 31  1  0
 31 32  2  0
 32 33  1  0
 33 34  2  0
 15 35  1  0
 35 36  1  0
 11  6  1  0
 36 12  1  0
 28 20  1  0
 34 29  1  0
 27 22  1  0
  1 37  1  0
  1 38  1  0
  1 39  1  0
  2 40  1  0
  2 41  1  0
  7 42  1  0
  8 43  1  0
  9 44  1  0
 10 45  1  0
 11 46  1  0
 12 47  1  0
 13 48  1  0
 13 49  1  0
 14 50  1  0
 14 51  1  0
 18 52  1  1
 19 53  1  0
 19 54  1  0
 20 55  1  6
 21 56  1  0
 21 57  1  0
 23 58  1  0
 24 59  1  0
 25 60  1  0
 26 61  1  0
 28 62  1  6
 30 63  1  0
 31 64  1  0
 32 65  1  0
 34 66  1  0
 35 67  1  0
 35 68  1  0
 36 69  1  0
 36 70  1  0
M  END
>  <smiles>  (185) 
CCC(=O)N(c1ccccc1)C1CCN(C(=O)[C@H](N)C2Cc3ccccc3C2c2cccnc2)CC1

>  <score_type>  (185) 
oracle

>  <origin>  (185) 
autodockgpu

>  <m_score__min__energy>  (185) 
-8.5700000000000003

>  <m_primary>  (185) 
energy

>  <rmsd>  (185) 
7.276831941714251

>  <m_score__min__rmsd>  (185) 
7.276831941714251

>  <meeko>  (185) 
{"free_energy": -6.96, "intermolecular_energy": -9.35, "internal_energy": -3.7, "cluster_size": 37, "cluster_id": 2, "rank_in_cluster": 29}

>  <energy>  (185) 
-6.95

>  <cluster_rmsd>  (185) 
1.16

>  <cluster>  (185) 
2

$$$$

     RDKit          3D

 70 74  0  0  0  0  0  0  0  0999 V2000
  136.2100   69.3140  224.6220 C   0  0  0  0  0  0  0  0  0  0  0  0
  137.0450   68.8330  223.4860 C   0  0  0  0  0  0  0  0  0  0  0  0
  138.4480   68.5050  223.8460 C   0  0  0  0  0  0  0  0  0  0  0  0
  138.8390   67.3400  223.5440 O   0  0  0  0  0  0  0  0  0  0  0  0
  139.2540   69.4680  224.4850 N   0  0  0  0  0  0  0  0  0  0  0  0
  139.7840   69.3250  225.7980 C   0  0  0  0  0  0  0  0  0  0  0  0
  139.9570   70.4030  226.6630 C   0  0  0  0  0  0  0  0  0  0  0  0
  140.4840   70.1190  227.9120 C   0  0  0  0  0  0  0  0  0  0  0  0
  140.8320   68.8380  228.3060 C   0  0  0  0  0  0  0  0  0  0  0  0
  140.6520   67.7980  227.4320 C   0  0  0  0  0  0  0  0  0  0  0  0
  140.1280   68.0270  226.1770 C   0  0  0  0  0  0  0  0  0  0  0  0
  139.5960   70.6890  223.7750 C   0  0  0  0  0  0  0  0  0  0  0  0
  138.4440   71.6380  223.6120 C   0  0  0  0  0  0  0  0  0  0  0  0
  138.2650   72.1390  222.1910 C   0  0  0  0  0  0  0  0  0  0  0  0
  139.6090   72.5830  221.7750 N   0  0  0  0  0  0  0  0  0  0  0  0
  139.7800   73.9580  221.5760 C   0  0  0  0  0  0  0  0  0  0  0  0
  138.7340   74.6830  221.7550 O   0  0  0  0  0  0  0  0  0  0  0  0
  141.0160   74.6690  221.1890 C   0  0  2  0  0  0  0  0  0  0  0  0
  141.0730   75.8940  221.9960 N   0  0  0  0  0  0  0  0  0  0  0  0
  141.0800   74.9380  219.7190 C   0  0  1  0  0  0  0  0  0  0  0  0
  142.3630   75.8100  219.5480 C   0  0  0  0  0  0  0  0  0  0  0  0
  143.3900   74.7470  219.8810 C   0  0  0  0  0  0  0  0  0  0  0  0
  144.6360   74.8390  220.4770 C   0  0  0  0  0  0  0  0  0  0  0  0
  145.4340   73.7330  220.7270 C   0  0  0  0  0  0  0  0  0  0  0  0
  144.8970   72.5080  220.3360 C   0  0  0  0  0  0  0  0  0  0  0  0
  143.6560   72.4170  219.7420 C   0  0  0  0  0  0  0  0  0  0  0  0
  142.8660   73.5040  219.4920 C   0  0  0  0  0  0  0  0  0  0  0  0
  141.5500   73.7870  218.8690 C   0  0  1  0  0  0  0  0  0  0  0  0
  140.6640   72.6800  218.6600 C   0  0  0  0  0  0  0  0  0  0  0  0
  139.2780   72.9440  218.6240 C   0  0  0  0  0  0  0  0  0  0  0  0
  138.3550   71.9400  218.4490 C   0  0  0  0  0  0  0  0  0  0  0  0
  138.7410   70.6270  218.3010 C   0  0  0  0  0  0  0  0  0  0  0  0
  140.0620   70.3780  218.3370 N   0  0  0  0  0  0  0  0  0  0  0  0
  140.9840   71.3480  218.5070 C   0  0  0  0  0  0  0  0  0  0  0  0
  140.5920   71.5460  221.6170 C   0  0  0  0  0  0  0  0  0  0  0  0
  140.0710   70.3100  222.3670 C   0  0  0  0  0  0  0  0  0  0  0  0
  136.6898   69.0376  225.5725 H   0  0  0  0  0  0  0  0  0  0  0  0
  136.1101   70.4080  224.5662 H   0  0  0  0  0  0  0  0  0  0  0  0
  135.2135   68.8515  224.5662 H   0  0  0  0  0  0  0  0  0  0  0  0
  136.5756   67.9273  223.0744 H   0  0  0  0  0  0  0  0  0  0  0  0
  137.0938   69.6602  222.7625 H   0  0  0  0  0  0  0  0  0  0  0  0
  139.6886   71.4284  226.3689 H   0  0  0  0  0  0  0  0  0  0  0  0
  140.6324   70.9465  228.6213 H   0  0  0  0  0  0  0  0  0  0  0  0
  141.2478   68.6574  229.3082 H   0  0  0  0  0  0  0  0  0  0  0  0
  140.9266   66.7762  227.7327 H   0  0  0  0  0  0  0  0  0  0  0  0
  139.9820   67.1902  225.4781 H   0  0  0  0  0  0  0  0  0  0  0  0
  140.3671   71.1957  224.3739 H   0  0  0  0  0  0  0  0  0  0  0  0
  137.5221   71.1212  223.9171 H   0  0  0  0  0  0  0  0  0  0  0  0
  138.6588   72.5162  224.2386 H   0  0  0  0  0  0  0  0  0  0  0  0
  137.9047   71.3306  221.5378 H   0  0  0  0  0  0  0  0  0  0  0  0
  137.5224   72.9480  222.1267 H   0  0  0  0  0  0  0  0  0  0  0  0
  141.8996   74.0451  221.3893 H   0  0  0  0  0  0  0  0  0  0  0  0
  140.2380   75.9650  222.6460 H   0  0  0  0  0  0  0  0  0  0  0  0
  141.9570   75.9620  222.5550 H   0  0  0  0  0  0  0  0  0  0  0  0
  140.0778   75.2919  219.4354 H   0  0  0  0  0  0  0  0  0  0  0  0
  142.4746   76.1894  218.5216 H   0  0  0  0  0  0  0  0  0  0  0  0
  142.4059   76.7275  220.1532 H   0  0  0  0  0  0  0  0  0  0  0  0
  145.0093   75.8329  220.7648 H   0  0  0  0  0  0  0  0  0  0  0  0
  146.4229   73.8168  221.2013 H   0  0  0  0  0  0  0  0  0  0  0  0
  145.4783   71.5897  220.5056 H   0  0  0  0  0  0  0  0  0  0  0  0
  143.2840   71.4222  219.4557 H   0  0  0  0  0  0  0  0  0  0  0  0
  141.6049   74.0406  217.8000 H   0  0  0  0  0  0  0  0  0  0  0  0
  138.9270   73.9801  218.7389 H   0  0  0  0  0  0  0  0  0  0  0  0
  137.2844   72.1916  218.4268 H   0  0  0  0  0  0  0  0  0  0  0  0
  138.0053   69.8214  218.1602 H   0  0  0  0  0  0  0  0  0  0  0  0
  142.0458   71.0612  218.5244 H   0  0  0  0  0  0  0  0  0  0  0  0
  140.7250   71.3117  220.5505 H   0  0  0  0  0  0  0  0  0  0  0  0
  141.5653   71.8653  222.0180 H   0  0  0  0  0  0  0  0  0  0  0  0
  139.2295   69.8762  221.8069 H   0  0  0  0  0  0  0  0  0  0  0  0
  140.8888   69.5796  222.4549 H   0  0  0  0  0  0  0  0  0  0  0  0
  1  2  1  0
  2  3  1  0
  3  4  2  0
  3  5  1  0
  5  6  1  0
  6  7  2  0
  7  8  1  0
  8  9  2  0
  9 10  1  0
 10 11  2  0
  5 12  1  0
 12 13  1  0
 13 14  1  0
 14 15  1  0
 15 16  1  0
 16 17  2  0
 16 18  1  0
 18 19  1  0
 18 20  1  0
 20 21  1  0
 21 22  1  0
 22 23  2  0
 23 24  1  0
 24 25  2  0
 25 26  1  0
 26 27  2  0
 27 28  1  0
 28 29  1  0
 29 30  2  0
 30 31  1  0
 31 32  2  0
 32 33  1  0
 33 34  2  0
 15 35  1  0
 35 36  1  0
 11  6  1  0
 36 12  1  0
 28 20  1  0
 34 29  1  0
 27 22  1  0
  1 37  1  0
  1 38  1  0
  1 39  1  0
  2 40  1  0
  2 41  1  0
  7 42  1  0
  8 43  1  0
  9 44  1  0
 10 45  1  0
 11 46  1  0
 12 47  1  0
 13 48  1  0
 13 49  1  0
 14 50  1  0
 14 51  1  0
 18 52  1  1
 19 53  1  0
 19 54  1  0
 20 55  1  6
 21 56  1  0
 21 57  1  0
 23 58  1  0
 24 59  1  0
 25 60  1  0
 26 61  1  0
 28 62  1  6
 30 63  1  0
 31 64  1  0
 32 65  1  0
 34 66  1  0
 35 67  1  0
 35 68  1  0
 36 69  1  0
 36 70  1  0
M  END
>  <smiles>  (186) 
CCC(=O)N(c1ccccc1)C1CCN(C(=O)[C@H](N)C2Cc3ccccc3C2c2cccnc2)CC1

>  <score_type>  (186) 
oracle

>  <origin>  (186) 
autodockgpu

>  <m_score__min__energy>  (186) 
-8.5700000000000003

>  <m_primary>  (186) 
energy

>  <rmsd>  (186) 
7.333768201337964

>  <m_score__min__rmsd>  (186) 
7.333768201337964

>  <meeko>  (186) 
{"free_energy": -7.2, "intermolecular_energy": -9.59, "internal_energy": -3.54, "cluster_size": 37, "cluster_id": 2, "rank_in_cluster": 5}

>  <energy>  (186) 
-6.95

>  <cluster_rmsd>  (186) 
0.91

>  <cluster>  (186) 
2

$$$$

     RDKit          3D

 70 74  0  0  0  0  0  0  0  0999 V2000
  138.6650   67.1680  222.3630 C   0  0  0  0  0  0  0  0  0  0  0  0
  137.7110   68.3120  222.3650 C   0  0  0  0  0  0  0  0  0  0  0  0
  137.6010   69.0220  223.6650 C   0  0  0  0  0  0  0  0  0  0  0  0
  136.4690   68.9740  224.2270 O   0  0  0  0  0  0  0  0  0  0  0  0
  138.7210   69.6930  224.1970 N   0  0  0  0  0  0  0  0  0  0  0  0
  139.4270   69.2750  225.3590 C   0  0  0  0  0  0  0  0  0  0  0  0
  139.9600   70.1740  226.2800 C   0  0  0  0  0  0  0  0  0  0  0  0
  140.6240   69.6290  227.3680 C   0  0  0  0  0  0  0  0  0  0  0  0
  140.7650   68.2650  227.5530 C   0  0  0  0  0  0  0  0  0  0  0  0
  140.2310   67.4060  226.6280 C   0  0  0  0  0  0  0  0  0  0  0  0
  139.5590   67.8980  225.5300 C   0  0  0  0  0  0  0  0  0  0  0  0
  139.2200   70.8800  223.5240 C   0  0  0  0  0  0  0  0  0  0  0  0
  138.1420   71.8400  223.1110 C   0  0  0  0  0  0  0  0  0  0  0  0
  138.2490   72.2890  221.6650 C   0  0  0  0  0  0  0  0  0  0  0  0
  139.6570   72.6970  221.4990 N   0  0  0  0  0  0  0  0  0  0  0  0
  139.8930   74.0600  221.2900 C   0  0  0  0  0  0  0  0  0  0  0  0
  138.8500   74.8080  221.2400 O   0  0  0  0  0  0  0  0  0  0  0  0
  141.1960   74.7360  221.1220 C   0  0  2  0  0  0  0  0  0  0  0  0
  141.2010   75.8850  222.0360 N   0  0  0  0  0  0  0  0  0  0  0  0
  141.4580   75.1240  219.7010 C   0  0  1  0  0  0  0  0  0  0  0  0
  142.8440   75.8380  219.7510 C   0  0  0  0  0  0  0  0  0  0  0  0
  143.6960   74.6280  220.0770 C   0  0  0  0  0  0  0  0  0  0  0  0
  144.8690   74.5090  220.8020 C   0  0  0  0  0  0  0  0  0  0  0  0
  145.5000   73.2940  221.0190 C   0  0  0  0  0  0  0  0  0  0  0  0
  144.8720   72.1850  220.4540 C   0  0  0  0  0  0  0  0  0  0  0  0
  143.7040   72.3040  219.7300 C   0  0  0  0  0  0  0  0  0  0  0  0
  143.0790   73.5010  219.5130 C   0  0  0  0  0  0  0  0  0  0  0  0
  141.8830   74.0010  218.7910 C   0  0  1  0  0  0  0  0  0  0  0  0
  140.9040   73.0370  218.3830 C   0  0  0  0  0  0  0  0  0  0  0  0
  139.6090   73.5060  218.0750 C   0  0  0  0  0  0  0  0  0  0  0  0
  138.6020   72.6500  217.6950 C   0  0  0  0  0  0  0  0  0  0  0  0
  138.8120   71.2930  217.5970 C   0  0  0  0  0  0  0  0  0  0  0  0
  140.0470   70.8490  217.8910 N   0  0  0  0  0  0  0  0  0  0  0  0
  141.0480   71.6710  218.2660 C   0  0  0  0  0  0  0  0  0  0  0  0
  140.6280   71.6380  221.5680 C   0  0  0  0  0  0  0  0  0  0  0  0
  139.9460   70.4410  222.2460 C   0  0  0  0  0  0  0  0  0  0  0  0
  138.9007   66.8853  223.3996 H   0  0  0  0  0  0  0  0  0  0  0  0
  138.2096   66.3117  221.8440 H   0  0  0  0  0  0  0  0  0  0  0  0
  139.5892   67.4621  221.8440 H   0  0  0  0  0  0  0  0  0  0  0  0
  138.0414   69.0358  221.6054 H   0  0  0  0  0  0  0  0  0  0  0  0
  136.7172   67.8900  222.1547 H   0  0  0  0  0  0  0  0  0  0  0  0
  139.8591   71.2617  226.1504 H   0  0  0  0  0  0  0  0  0  0  0  0
  141.0571   70.3096  228.1158 H   0  0  0  0  0  0  0  0  0  0  0  0
  141.2992   67.8747  228.4318 H   0  0  0  0  0  0  0  0  0  0  0  0
  140.3392   66.3196  226.7626 H   0  0  0  0  0  0  0  0  0  0  0  0
  139.1283   67.2063  224.7910 H   0  0  0  0  0  0  0  0  0  0  0  0
  139.8745   71.3961  224.2418 H   0  0  0  0  0  0  0  0  0  0  0  0
  137.1673   71.3498  223.2516 H   0  0  0  0  0  0  0  0  0  0  0  0
  138.2530   72.7380  223.7365 H   0  0  0  0  0  0  0  0  0  0  0  0
  138.0026   71.4616  220.9833 H   0  0  0  0  0  0  0  0  0  0  0  0
  137.5502   73.1059  221.4316 H   0  0  0  0  0  0  0  0  0  0  0  0
  142.0199   74.0515  221.3721 H   0  0  0  0  0  0  0  0  0  0  0  0
  141.8410   76.6530  221.6850 H   0  0  0  0  0  0  0  0  0  0  0  0
  140.2400   76.2760  222.1900 H   0  0  0  0  0  0  0  0  0  0  0  0
  140.5432   75.6266  219.3538 H   0  0  0  0  0  0  0  0  0  0  0  0
  143.1146   76.2896  218.7852 H   0  0  0  0  0  0  0  0  0  0  0  0
  142.9244   76.6856  220.4475 H   0  0  0  0  0  0  0  0  0  0  0  0
  145.3204   75.4187  221.2246 H   0  0  0  0  0  0  0  0  0  0  0  0
  146.4321   73.2106  221.5972 H   0  0  0  0  0  0  0  0  0  0  0  0
  145.3195   71.1893  220.5891 H   0  0  0  0  0  0  0  0  0  0  0  0
  143.2541   71.3935  219.3073 H   0  0  0  0  0  0  0  0  0  0  0  0
  142.0858   74.3378  217.7637 H   0  0  0  0  0  0  0  0  0  0  0  0
  139.3998   74.5839  218.1406 H   0  0  0  0  0  0  0  0  0  0  0  0
  137.6071   73.0585  217.4643 H   0  0  0  0  0  0  0  0  0  0  0  0
  138.0089   70.6054  217.2931 H   0  0  0  0  0  0  0  0  0  0  0  0
  142.0300   71.2288  218.4901 H   0  0  0  0  0  0  0  0  0  0  0  0
  140.9563   71.3610  220.5553 H   0  0  0  0  0  0  0  0  0  0  0  0
  141.5139   71.9567  222.1368 H   0  0  0  0  0  0  0  0  0  0  0  0
  139.2169   69.9998  221.5505 H   0  0  0  0  0  0  0  0  0  0  0  0
  140.7154   69.7019  222.5137 H   0  0  0  0  0  0  0  0  0  0  0  0
  1  2  1  0
  2  3  1  0
  3  4  2  0
  3  5  1  0
  5  6  1  0
  6  7  2  0
  7  8  1  0
  8  9  2  0
  9 10  1  0
 10 11  2  0
  5 12  1  0
 12 13  1  0
 13 14  1  0
 14 15  1  0
 15 16  1  0
 16 17  2  0
 16 18  1  0
 18 19  1  0
 18 20  1  0
 20 21  1  0
 21 22  1  0
 22 23  2  0
 23 24  1  0
 24 25  2  0
 25 26  1  0
 26 27  2  0
 27 28  1  0
 28 29  1  0
 29 30  2  0
 30 31  1  0
 31 32  2  0
 32 33  1  0
 33 34  2  0
 15 35  1  0
 35 36  1  0
 11  6  1  0
 36 12  1  0
 28 20  1  0
 34 29  1  0
 27 22  1  0
  1 37  1  0
  1 38  1  0
  1 39  1  0
  2 40  1  0
  2 41  1  0
  7 42  1  0
  8 43  1  0
  9 44  1  0
 10 45  1  0
 11 46  1  0
 12 47  1  0
 13 48  1  0
 13 49  1  0
 14 50  1  0
 14 51  1  0
 18 52  1  1
 19 53  1  0
 19 54  1  0
 20 55  1  6
 21 56  1  0
 21 57  1  0
 23 58  1  0
 24 59  1  0
 25 60  1  0
 26 61  1  0
 28 62  1  6
 30 63  1  0
 31 64  1  0
 32 65  1  0
 34 66  1  0
 35 67  1  0
 35 68  1  0
 36 69  1  0
 36 70  1  0
M  END
>  <smiles>  (187) 
CCC(=O)N(c1ccccc1)C1CCN(C(=O)[C@H](N)C2Cc3ccccc3C2c2cccnc2)CC1

>  <score_type>  (187) 
oracle

>  <origin>  (187) 
autodockgpu

>  <m_score__min__energy>  (187) 
-8.5700000000000003

>  <m_primary>  (187) 
energy

>  <rmsd>  (187) 
7.318777986301007

>  <m_score__min__rmsd>  (187) 
7.318777986301007

>  <meeko>  (187) 
{"free_energy": -7.1, "intermolecular_energy": -9.49, "internal_energy": -3.58, "cluster_size": 37, "cluster_id": 2, "rank_in_cluster": 15}

>  <energy>  (187) 
-6.95

>  <cluster_rmsd>  (187) 
0.9

>  <cluster>  (187) 
2

$$$$

     RDKit          3D

 70 74  0  0  0  0  0  0  0  0999 V2000
  137.4060   67.9920  221.8600 C   0  0  0  0  0  0  0  0  0  0  0  0
  137.5420   68.6320  223.1980 C   0  0  0  0  0  0  0  0  0  0  0  0
  138.8130   68.3260  223.9030 C   0  0  0  0  0  0  0  0  0  0  0  0
  139.2020   67.1240  223.8470 O   0  0  0  0  0  0  0  0  0  0  0  0
  139.5050   69.3510  224.5790 N   0  0  0  0  0  0  0  0  0  0  0  0
  139.9820   69.2480  225.9160 C   0  0  0  0  0  0  0  0  0  0  0  0
  139.9950   70.3270  226.7960 C   0  0  0  0  0  0  0  0  0  0  0  0
  140.4870   70.0850  228.0690 C   0  0  0  0  0  0  0  0  0  0  0  0
  140.9490   68.8440  228.4710 C   0  0  0  0  0  0  0  0  0  0  0  0
  140.9240   67.8010  227.5810 C   0  0  0  0  0  0  0  0  0  0  0  0
  140.4420   67.9900  226.3030 C   0  0  0  0  0  0  0  0  0  0  0  0
  139.7810   70.5980  223.8850 C   0  0  0  0  0  0  0  0  0  0  0  0
  138.5950   71.5130  223.7920 C   0  0  0  0  0  0  0  0  0  0  0  0
  138.3410   72.0400  222.3920 C   0  0  0  0  0  0  0  0  0  0  0  0
  139.6520   72.5360  221.9310 N   0  0  0  0  0  0  0  0  0  0  0  0
  139.7730   73.9190  221.7590 C   0  0  0  0  0  0  0  0  0  0  0  0
  138.7140   74.6080  221.9980 O   0  0  0  0  0  0  0  0  0  0  0  0
  140.9690   74.6770  221.3370 C   0  0  2  0  0  0  0  0  0  0  0  0
  141.0130   75.8940  222.1580 N   0  0  0  0  0  0  0  0  0  0  0  0
  140.9720   74.9660  219.8700 C   0  0  1  0  0  0  0  0  0  0  0  0
  142.2520   75.8330  219.6560 C   0  0  0  0  0  0  0  0  0  0  0  0
  143.2860   74.7600  219.9300 C   0  0  0  0  0  0  0  0  0  0  0  0
  144.5570   74.8360  220.4730 C   0  0  0  0  0  0  0  0  0  0  0  0
  145.3580   73.7230  220.6740 C   0  0  0  0  0  0  0  0  0  0  0  0
  144.7970   72.5060  220.2910 C   0  0  0  0  0  0  0  0  0  0  0  0
  143.5310   72.4300  219.7490 C   0  0  0  0  0  0  0  0  0  0  0  0
  142.7380   73.5250  219.5480 C   0  0  0  0  0  0  0  0  0  0  0  0
  141.3980   73.8230  218.9850 C   0  0  1  0  0  0  0  0  0  0  0  0
  140.4970   72.7240  218.8000 C   0  0  0  0  0  0  0  0  0  0  0  0
  139.1130   72.9960  218.8320 C   0  0  0  0  0  0  0  0  0  0  0  0
  138.1770   71.9990  218.6850 C   0  0  0  0  0  0  0  0  0  0  0  0
  138.5490   70.6870  218.4980 C   0  0  0  0  0  0  0  0  0  0  0  0
  139.8690   70.4310  218.4690 N   0  0  0  0  0  0  0  0  0  0  0  0
  140.8030   71.3930  218.6110 C   0  0  0  0  0  0  0  0  0  0  0  0
  140.6580   71.5330  221.7080 C   0  0  0  0  0  0  0  0  0  0  0  0
  140.2070   70.2660  222.4500 C   0  0  0  0  0  0  0  0  0  0  0  0
  137.1789   66.9231  221.9862 H   0  0  0  0  0  0  0  0  0  0  0  0
  136.5908   68.4768  221.3028 H   0  0  0  0  0  0  0  0  0  0  0  0
  138.3479   68.1034  221.3028 H   0  0  0  0  0  0  0  0  0  0  0  0
  137.4771   69.7220  223.0652 H   0  0  0  0  0  0  0  0  0  0  0  0
  136.7331   68.2247  223.8223 H   0  0  0  0  0  0  0  0  0  0  0  0
  139.6330   71.3215  226.4960 H   0  0  0  0  0  0  0  0  0  0  0  0
  140.5113   70.9149  228.7906 H   0  0  0  0  0  0  0  0  0  0  0  0
  141.3315   68.6960  229.4917 H   0  0  0  0  0  0  0  0  0  0  0  0
  141.2898   66.8100  227.8877 H   0  0  0  0  0  0  0  0  0  0  0  0
  140.4205   67.1514  225.5915 H   0  0  0  0  0  0  0  0  0  0  0  0
  140.5613   71.1144  224.4633 H   0  0  0  0  0  0  0  0  0  0  0  0
  137.7031   70.9605  224.1225 H   0  0  0  0  0  0  0  0  0  0  0  0
  138.8090   72.3833  224.4298 H   0  0  0  0  0  0  0  0  0  0  0  0
  137.9785   71.2355  221.7352 H   0  0  0  0  0  0  0  0  0  0  0  0
  137.5719   72.8263  222.3781 H   0  0  0  0  0  0  0  0  0  0  0  0
  141.8796   74.0810  221.4969 H   0  0  0  0  0  0  0  0  0  0  0  0
  140.2090   75.9210  222.8480 H   0  0  0  0  0  0  0  0  0  0  0  0
  141.9200   75.9940  222.6750 H   0  0  0  0  0  0  0  0  0  0  0  0
  139.9611   75.3299  219.6342 H   0  0  0  0  0  0  0  0  0  0  0  0
  142.3218   76.2260  218.6310 H   0  0  0  0  0  0  0  0  0  0  0  0
  142.3264   76.7417  220.2714 H   0  0  0  0  0  0  0  0  0  0  0  0
  144.9487   75.8237  220.7577 H   0  0  0  0  0  0  0  0  0  0  0  0
  146.3670   73.7952  221.1060 H   0  0  0  0  0  0  0  0  0  0  0  0
  145.3790   71.5822  220.4245 H   0  0  0  0  0  0  0  0  0  0  0  0
  143.1411   71.4414  219.4650 H   0  0  0  0  0  0  0  0  0  0  0  0
  141.4085   74.0896  217.9178 H   0  0  0  0  0  0  0  0  0  0  0  0
  138.7738   74.0321  218.9783 H   0  0  0  0  0  0  0  0  0  0  0  0
  137.1079   72.2557  218.7176 H   0  0  0  0  0  0  0  0  0  0  0  0
  137.8033   69.8872  218.3782 H   0  0  0  0  0  0  0  0  0  0  0  0
  141.8629   71.1011  218.5742 H   0  0  0  0  0  0  0  0  0  0  0  0
  140.7523   71.3262  220.6317 H   0  0  0  0  0  0  0  0  0  0  0  0
  141.6375   71.8733  222.0752 H   0  0  0  0  0  0  0  0  0  0  0  0
  139.3560   69.8187  221.9155 H   0  0  0  0  0  0  0  0  0  0  0  0
  141.0498   69.5601  222.4868 H   0  0  0  0  0  0  0  0  0  0  0  0
  1  2  1  0
  2  3  1  0
  3  4  2  0
  3  5  1  0
  5  6  1  0
  6  7  2  0
  7  8  1  0
  8  9  2  0
  9 10  1  0
 10 11  2  0
  5 12  1  0
 12 13  1  0
 13 14  1  0
 14 15  1  0
 15 16  1  0
 16 17  2  0
 16 18  1  0
 18 19  1  0
 18 20  1  0
 20 21  1  0
 21 22  1  0
 22 23  2  0
 23 24  1  0
 24 25  2  0
 25 26  1  0
 26 27  2  0
 27 28  1  0
 28 29  1  0
 29 30  2  0
 30 31  1  0
 31 32  2  0
 32 33  1  0
 33 34  2  0
 15 35  1  0
 35 36  1  0
 11  6  1  0
 36 12  1  0
 28 20  1  0
 34 29  1  0
 27 22  1  0
  1 37  1  0
  1 38  1  0
  1 39  1  0
  2 40  1  0
  2 41  1  0
  7 42  1  0
  8 43  1  0
  9 44  1  0
 10 45  1  0
 11 46  1  0
 12 47  1  0
 13 48  1  0
 13 49  1  0
 14 50  1  0
 14 51  1  0
 18 52  1  6
 19 53  1  0
 19 54  1  0
 20 55  1  6
 21 56  1  0
 21 57  1  0
 23 58  1  0
 24 59  1  0
 25 60  1  0
 26 61  1  0
 28 62  1  6
 30 63  1  0
 31 64  1  0
 32 65  1  0
 34 66  1  0
 35 67  1  0
 35 68  1  0
 36 69  1  0
 36 70  1  0
M  END
>  <smiles>  (188) 
CCC(=O)N(c1ccccc1)C1CCN(C(=O)[C@H](N)C2Cc3ccccc3C2c2cccnc2)CC1

>  <score_type>  (188) 
oracle

>  <origin>  (188) 
autodockgpu

>  <m_score__min__energy>  (188) 
-8.5700000000000003

>  <m_primary>  (188) 
energy

>  <rmsd>  (188) 
7.361089142411702

>  <m_score__min__rmsd>  (188) 
7.361089142411702

>  <meeko>  (188) 
{"free_energy": -7.24, "intermolecular_energy": -9.62, "internal_energy": -3.5, "cluster_size": 37, "cluster_id": 2, "rank_in_cluster": 2}

>  <energy>  (188) 
-6.94

>  <cluster_rmsd>  (188) 
0.92

>  <cluster>  (188) 
2

$$$$

     RDKit          3D

 70 74  0  0  0  0  0  0  0  0999 V2000
  137.5330   68.3090  221.2740 C   0  0  0  0  0  0  0  0  0  0  0  0
  138.0250   67.9060  222.6210 C   0  0  0  0  0  0  0  0  0  0  0  0
  137.7490   68.8900  223.6990 C   0  0  0  0  0  0  0  0  0  0  0  0
  136.5380   69.0080  224.0440 O   0  0  0  0  0  0  0  0  0  0  0  0
  138.8090   69.6230  224.2690 N   0  0  0  0  0  0  0  0  0  0  0  0
  139.4750   69.2610  225.4740 C   0  0  0  0  0  0  0  0  0  0  0  0
  139.9710   70.2020  226.3720 C   0  0  0  0  0  0  0  0  0  0  0  0
  140.5980   69.7100  227.5050 C   0  0  0  0  0  0  0  0  0  0  0  0
  140.7390   68.3560  227.7560 C   0  0  0  0  0  0  0  0  0  0  0  0
  140.2410   67.4540  226.8520 C   0  0  0  0  0  0  0  0  0  0  0  0
  139.6060   67.8930  225.7090 C   0  0  0  0  0  0  0  0  0  0  0  0
  139.2860   70.8190  223.5960 C   0  0  0  0  0  0  0  0  0  0  0  0
  138.1970   71.7910  223.2450 C   0  0  0  0  0  0  0  0  0  0  0  0
  138.2450   72.2640  221.8040 C   0  0  0  0  0  0  0  0  0  0  0  0
  139.6470   72.6680  221.5860 N   0  0  0  0  0  0  0  0  0  0  0  0
  139.8820   74.0330  221.3900 C   0  0  0  0  0  0  0  0  0  0  0  0
  138.8420   74.7870  221.3970 O   0  0  0  0  0  0  0  0  0  0  0  0
  141.1810   74.7060  221.1780 C   0  0  2  0  0  0  0  0  0  0  0  0
  141.1990   75.8820  222.0580 N   0  0  0  0  0  0  0  0  0  0  0  0
  141.4160   75.0510  219.7420 C   0  0  1  0  0  0  0  0  0  0  0  0
  142.7940   75.7830  219.7480 C   0  0  0  0  0  0  0  0  0  0  0  0
  143.6660   74.5950  220.0990 C   0  0  0  0  0  0  0  0  0  0  0  0
  144.8510   74.5130  220.8090 C   0  0  0  0  0  0  0  0  0  0  0  0
  145.5000   73.3130  221.0550 C   0  0  0  0  0  0  0  0  0  0  0  0
  144.8780   72.1800  220.5340 C   0  0  0  0  0  0  0  0  0  0  0  0
  143.6970   72.2620  219.8260 C   0  0  0  0  0  0  0  0  0  0  0  0
  143.0540   73.4430  219.5800 C   0  0  0  0  0  0  0  0  0  0  0  0
  141.8420   73.9060  218.8620 C   0  0  1  0  0  0  0  0  0  0  0  0
  140.8690   72.9180  218.4990 C   0  0  0  0  0  0  0  0  0  0  0  0
  141.3330   71.6270  218.1690 C   0  0  0  0  0  0  0  0  0  0  0  0
  140.4730   70.6240  217.7900 C   0  0  0  0  0  0  0  0  0  0  0  0
  139.1140   70.8340  217.7140 C   0  0  0  0  0  0  0  0  0  0  0  0
  138.6740   72.0660  218.0280 N   0  0  0  0  0  0  0  0  0  0  0  0
  139.5010   73.0630  218.4030 C   0  0  0  0  0  0  0  0  0  0  0  0
  140.6150   71.6040  221.5950 C   0  0  0  0  0  0  0  0  0  0  0  0
  139.9550   70.3980  222.2820 C   0  0  0  0  0  0  0  0  0  0  0  0
  136.6864   69.0025  221.3852 H   0  0  0  0  0  0  0  0  0  0  0  0
  138.3438   68.8059  220.7210 H   0  0  0  0  0  0  0  0  0  0  0  0
  137.2055   67.4163  220.7210 H   0  0  0  0  0  0  0  0  0  0  0  0
  137.5428   66.9553  222.8923 H   0  0  0  0  0  0  0  0  0  0  0  0
  139.1194   67.8272  222.5429 H   0  0  0  0  0  0  0  0  0  0  0  0
  139.8701   71.2823  226.1909 H   0  0  0  0  0  0  0  0  0  0  0  0
  141.0011   70.4258  228.2365 H   0  0  0  0  0  0  0  0  0  0  0  0
  141.2442   68.0084  228.6692 H   0  0  0  0  0  0  0  0  0  0  0  0
  140.3482   66.3753  227.0389 H   0  0  0  0  0  0  0  0  0  0  0  0
  139.2048   67.1672  224.9863 H   0  0  0  0  0  0  0  0  0  0  0  0
  139.9728   71.3200  224.2941 H   0  0  0  0  0  0  0  0  0  0  0  0
  137.2265   71.3032  223.4186 H   0  0  0  0  0  0  0  0  0  0  0  0
  138.3396   72.6777  223.8801 H   0  0  0  0  0  0  0  0  0  0  0  0
  137.9656   71.4496  221.1194 H   0  0  0  0  0  0  0  0  0  0  0  0
  137.5413   73.0879  221.6140 H   0  0  0  0  0  0  0  0  0  0  0  0
  142.0116   74.0315  221.4330 H   0  0  0  0  0  0  0  0  0  0  0  0
  141.8300   76.6410  221.6720 H   0  0  0  0  0  0  0  0  0  0  0  0
  140.2400   76.2740  222.2200 H   0  0  0  0  0  0  0  0  0  0  0  0
  140.4894   75.5305  219.3934 H   0  0  0  0  0  0  0  0  0  0  0  0
  143.0444   76.2068  218.7643 H   0  0  0  0  0  0  0  0  0  0  0  0
  142.8741   76.6532  220.4161 H   0  0  0  0  0  0  0  0  0  0  0  0
  145.2977   75.4410  221.1953 H   0  0  0  0  0  0  0  0  0  0  0  0
  146.4409   73.2589  221.6222 H   0  0  0  0  0  0  0  0  0  0  0  0
  145.3409   71.1946  220.6914 H   0  0  0  0  0  0  0  0  0  0  0  0
  143.2514   71.3329  219.4411 H   0  0  0  0  0  0  0  0  0  0  0  0
  142.0261   74.2134  217.8220 H   0  0  0  0  0  0  0  0  0  0  0  0
  142.4118   71.4176  218.2163 H   0  0  0  0  0  0  0  0  0  0  0  0
  140.8790   69.6322  217.5420 H   0  0  0  0  0  0  0  0  0  0  0  0
  138.4224   70.0339  217.4115 H   0  0  0  0  0  0  0  0  0  0  0  0
  139.0618   74.0421  218.6447 H   0  0  0  0  0  0  0  0  0  0  0  0
  140.8982   71.3429  220.5647 H   0  0  0  0  0  0  0  0  0  0  0  0
  141.5266   71.9087  222.1300 H   0  0  0  0  0  0  0  0  0  0  0  0
  139.1949   69.9719  221.6106 H   0  0  0  0  0  0  0  0  0  0  0  0
  140.7310   69.6509  222.5049 H   0  0  0  0  0  0  0  0  0  0  0  0
  1  2  1  0
  2  3  1  0
  3  4  2  0
  3  5  1  0
  5  6  1  0
  6  7  2  0
  7  8  1  0
  8  9  2  0
  9 10  1  0
 10 11  2  0
  5 12  1  0
 12 13  1  0
 13 14  1  0
 14 15  1  0
 15 16  1  0
 16 17  2  0
 16 18  1  0
 18 19  1  0
 18 20  1  0
 20 21  1  0
 21 22  1  0
 22 23  2  0
 23 24  1  0
 24 25  2  0
 25 26  1  0
 26 27  2  0
 27 28  1  0
 28 29  1  0
 29 30  2  0
 30 31  1  0
 31 32  2  0
 32 33  1  0
 33 34  2  0
 15 35  1  0
 35 36  1  0
 11  6  1  0
 36 12  1  0
 28 20  1  0
 34 29  1  0
 27 22  1  0
  1 37  1  0
  1 38  1  0
  1 39  1  0
  2 40  1  0
  2 41  1  0
  7 42  1  0
  8 43  1  0
  9 44  1  0
 10 45  1  0
 11 46  1  0
 12 47  1  0
 13 48  1  0
 13 49  1  0
 14 50  1  0
 14 51  1  0
 18 52  1  1
 19 53  1  0
 19 54  1  0
 20 55  1  6
 21 56  1  0
 21 57  1  0
 23 58  1  0
 24 59  1  0
 25 60  1  0
 26 61  1  0
 28 62  1  6
 30 63  1  0
 31 64  1  0
 32 65  1  0
 34 66  1  0
 35 67  1  0
 35 68  1  0
 36 69  1  0
 36 70  1  0
M  END
>  <smiles>  (189) 
CCC(=O)N(c1ccccc1)C1CCN(C(=O)[C@H](N)C2Cc3ccccc3C2c2cccnc2)CC1

>  <score_type>  (189) 
oracle

>  <origin>  (189) 
autodockgpu

>  <m_score__min__energy>  (189) 
-8.5700000000000003

>  <m_primary>  (189) 
energy

>  <rmsd>  (189) 
7.3533759384752555

>  <m_score__min__rmsd>  (189) 
7.3533759384752555

>  <meeko>  (189) 
{"free_energy": -6.92, "intermolecular_energy": -9.31, "internal_energy": -3.54, "cluster_size": 37, "cluster_id": 2, "rank_in_cluster": 36}

>  <energy>  (189) 
-6.94

>  <cluster_rmsd>  (189) 
1.15

>  <cluster>  (189) 
2

$$$$

     RDKit          3D

 70 74  0  0  0  0  0  0  0  0999 V2000
  138.7820   67.0290  222.4390 C   0  0  0  0  0  0  0  0  0  0  0  0
  137.8570   68.1920  222.3330 C   0  0  0  0  0  0  0  0  0  0  0  0
  137.6950   68.9690  223.5880 C   0  0  0  0  0  0  0  0  0  0  0  0
  136.5420   68.9500  224.1070 O   0  0  0  0  0  0  0  0  0  0  0  0
  138.7930   69.6700  224.1270 N   0  0  0  0  0  0  0  0  0  0  0  0
  139.5120   69.2630  225.2860 C   0  0  0  0  0  0  0  0  0  0  0  0
  140.3500   70.1220  225.9920 C   0  0  0  0  0  0  0  0  0  0  0  0
  140.9890   69.5930  227.1020 C   0  0  0  0  0  0  0  0  0  0  0  0
  140.8210   68.2800  227.5090 C   0  0  0  0  0  0  0  0  0  0  0  0
  139.9900   67.4590  226.7920 C   0  0  0  0  0  0  0  0  0  0  0  0
  139.3300   67.9380  225.6810 C   0  0  0  0  0  0  0  0  0  0  0  0
  139.2550   70.8790  223.4670 C   0  0  0  0  0  0  0  0  0  0  0  0
  138.1500   71.8270  223.0990 C   0  0  0  0  0  0  0  0  0  0  0  0
  138.2140   72.3070  221.6610 C   0  0  0  0  0  0  0  0  0  0  0  0
  139.6100   72.7430  221.4690 N   0  0  0  0  0  0  0  0  0  0  0  0
  139.8170   74.1140  221.2820 C   0  0  0  0  0  0  0  0  0  0  0  0
  138.7600   74.8440  221.2720 O   0  0  0  0  0  0  0  0  0  0  0  0
  141.1040   74.8180  221.0970 C   0  0  2  0  0  0  0  0  0  0  0  0
  141.0760   75.9940  221.9760 N   0  0  0  0  0  0  0  0  0  0  0  0
  141.3600   75.1680  219.6650 C   0  0  1  0  0  0  0  0  0  0  0  0
  142.7600   75.8580  219.6880 C   0  0  0  0  0  0  0  0  0  0  0  0
  143.5920   74.6400  220.0340 C   0  0  0  0  0  0  0  0  0  0  0  0
  144.7690   74.5160  220.7530 C   0  0  0  0  0  0  0  0  0  0  0  0
  145.3800   73.2950  220.9920 C   0  0  0  0  0  0  0  0  0  0  0  0
  144.7270   72.1850  220.4570 C   0  0  0  0  0  0  0  0  0  0  0  0
  143.5550   72.3090  219.7410 C   0  0  0  0  0  0  0  0  0  0  0  0
  142.9500   73.5120  219.5010 C   0  0  0  0  0  0  0  0  0  0  0  0
  141.7580   74.0180  218.7780 C   0  0  1  0  0  0  0  0  0  0  0  0
  140.7580   73.0630  218.3990 C   0  0  0  0  0  0  0  0  0  0  0  0
  139.4520   73.5400  218.1570 C   0  0  0  0  0  0  0  0  0  0  0  0
  138.4260   72.6930  217.8100 C   0  0  0  0  0  0  0  0  0  0  0  0
  138.6260   71.3370  217.6810 C   0  0  0  0  0  0  0  0  0  0  0  0
  139.8720   70.8850  217.9140 N   0  0  0  0  0  0  0  0  0  0  0  0
  140.8920   71.6990  218.2550 C   0  0  0  0  0  0  0  0  0  0  0  0
  140.6020   71.7020  221.4930 C   0  0  0  0  0  0  0  0  0  0  0  0
  139.9580   70.4790  222.1640 C   0  0  0  0  0  0  0  0  0  0  0  0
  138.9637   66.8005  223.4995 H   0  0  0  0  0  0  0  0  0  0  0  0
  138.3297   66.1548  221.9479 H   0  0  0  0  0  0  0  0  0  0  0  0
  139.7356   67.2730  221.9479 H   0  0  0  0  0  0  0  0  0  0  0  0
  138.2447   68.8692  221.5577 H   0  0  0  0  0  0  0  0  0  0  0  0
  136.8659   67.7811  222.0904 H   0  0  0  0  0  0  0  0  0  0  0  0
  140.4974   71.1677  225.6842 H   0  0  0  0  0  0  0  0  0  0  0  0
  141.6580   70.2435  227.6845 H   0  0  0  0  0  0  0  0  0  0  0  0
  141.3480   67.9006  228.3969 H   0  0  0  0  0  0  0  0  0  0  0  0
  139.8493   66.4138  227.1046 H   0  0  0  0  0  0  0  0  0  0  0  0
  138.6623   67.2778  225.1081 H   0  0  0  0  0  0  0  0  0  0  0  0
  139.9174   71.3926  224.1794 H   0  0  0  0  0  0  0  0  0  0  0  0
  137.1881   71.3159  223.2524 H   0  0  0  0  0  0  0  0  0  0  0  0
  138.2598   72.7142  223.7400 H   0  0  0  0  0  0  0  0  0  0  0  0
  137.9650   71.4894  220.9685 H   0  0  0  0  0  0  0  0  0  0  0  0
  137.4960   73.1162  221.4619 H   0  0  0  0  0  0  0  0  0  0  0  0
  141.9451   74.1639  221.3703 H   0  0  0  0  0  0  0  0  0  0  0  0
  140.1320   76.1010  222.4450 H   0  0  0  0  0  0  0  0  0  0  0  0
  141.8280   75.9630  222.7060 H   0  0  0  0  0  0  0  0  0  0  0  0
  140.4510   75.6781  219.3135 H   0  0  0  0  0  0  0  0  0  0  0  0
  143.0308   76.2831  218.7103 H   0  0  0  0  0  0  0  0  0  0  0  0
  142.8618   76.7193  220.3646 H   0  0  0  0  0  0  0  0  0  0  0  0
  145.2398   75.4266  221.1520 H   0  0  0  0  0  0  0  0  0  0  0  0
  146.3154   73.2076  221.5642 H   0  0  0  0  0  0  0  0  0  0  0  0
  145.1580   71.1846  220.6101 H   0  0  0  0  0  0  0  0  0  0  0  0
  143.0844   71.3974  219.3441 H   0  0  0  0  0  0  0  0  0  0  0  0
  141.9596   74.3286  217.7422 H   0  0  0  0  0  0  0  0  0  0  0  0
  139.2496   74.6174  218.2484 H   0  0  0  0  0  0  0  0  0  0  0  0
  137.4231   73.1080  217.6315 H   0  0  0  0  0  0  0  0  0  0  0  0
  137.8080   70.6568  217.4014 H   0  0  0  0  0  0  0  0  0  0  0  0
  141.8818   71.2510  218.4270 H   0  0  0  0  0  0  0  0  0  0  0  0
  140.9102   71.4509  220.4674 H   0  0  0  0  0  0  0  0  0  0  0  0
  141.4961   72.0261  222.0458 H   0  0  0  0  0  0  0  0  0  0  0  0
  139.2206   70.0377  221.4774 H   0  0  0  0  0  0  0  0  0  0  0  0
  140.7473   69.7498  222.3991 H   0  0  0  0  0  0  0  0  0  0  0  0
  1  2  1  0
  2  3  1  0
  3  4  2  0
  3  5  1  0
  5  6  1  0
  6  7  2  0
  7  8  1  0
  8  9  2  0
  9 10  1  0
 10 11  2  0
  5 12  1  0
 12 13  1  0
 13 14  1  0
 14 15  1  0
 15 16  1  0
 16 17  2  0
 16 18  1  0
 18 19  1  0
 18 20  1  0
 20 21  1  0
 21 22  1  0
 22 23  2  0
 23 24  1  0
 24 25  2  0
 25 26  1  0
 26 27  2  0
 27 28  1  0
 28 29  1  0
 29 30  2  0
 30 31  1  0
 31 32  2  0
 32 33  1  0
 33 34  2  0
 15 35  1  0
 35 36  1  0
 11  6  1  0
 36 12  1  0
 28 20  1  0
 34 29  1  0
 27 22  1  0
  1 37  1  0
  1 38  1  0
  1 39  1  0
  2 40  1  0
  2 41  1  0
  7 42  1  0
  8 43  1  0
  9 44  1  0
 10 45  1  0
 11 46  1  0
 12 47  1  0
 13 48  1  0
 13 49  1  0
 14 50  1  0
 14 51  1  0
 18 52  1  1
 19 53  1  0
 19 54  1  0
 20 55  1  6
 21 56  1  0
 21 57  1  0
 23 58  1  0
 24 59  1  0
 25 60  1  0
 26 61  1  0
 28 62  1  6
 30 63  1  0
 31 64  1  0
 32 65  1  0
 34 66  1  0
 35 67  1  0
 35 68  1  0
 36 69  1  0
 36 70  1  0
M  END
>  <smiles>  (190) 
CCC(=O)N(c1ccccc1)C1CCN(C(=O)[C@H](N)C2Cc3ccccc3C2c2cccnc2)CC1

>  <score_type>  (190) 
oracle

>  <origin>  (190) 
autodockgpu

>  <m_score__min__energy>  (190) 
-8.5700000000000003

>  <m_primary>  (190) 
energy

>  <rmsd>  (190) 
7.268744872030513

>  <m_score__min__rmsd>  (190) 
7.268744872030513

>  <meeko>  (190) 
{"free_energy": -7.0, "intermolecular_energy": -9.39, "internal_energy": -3.65, "cluster_size": 37, "cluster_id": 2, "rank_in_cluster": 28}

>  <energy>  (190) 
-6.94

>  <cluster_rmsd>  (190) 
0.9

>  <cluster>  (190) 
2

$$$$

     RDKit          3D

 70 74  0  0  0  0  0  0  0  0999 V2000
  146.7050   73.3610  221.9620 C   0  0  0  0  0  0  0  0  0  0  0  0
  145.9790   74.1580  220.9350 C   0  0  0  0  0  0  0  0  0  0  0  0
  145.5890   73.3950  219.7220 C   0  0  0  0  0  0  0  0  0  0  0  0
  146.2630   72.3520  219.4840 O   0  0  0  0  0  0  0  0  0  0  0  0
  144.5240   73.8490  218.9190 N   0  0  0  0  0  0  0  0  0  0  0  0
  144.5020   73.7690  217.4980 C   0  0  0  0  0  0  0  0  0  0  0  0
  144.4980   74.8960  216.6810 C   0  0  0  0  0  0  0  0  0  0  0  0
  144.4760   74.6720  215.3130 C   0  0  0  0  0  0  0  0  0  0  0  0
  144.4570   73.4030  214.7620 C   0  0  0  0  0  0  0  0  0  0  0  0
  144.4590   72.3130  215.5930 C   0  0  0  0  0  0  0  0  0  0  0  0
  144.4830   72.4820  216.9610 C   0  0  0  0  0  0  0  0  0  0  0  0
  143.3500   74.4220  219.5560 C   0  0  0  0  0  0  0  0  0  0  0  0
  142.0510   73.9030  219.0100 C   0  0  0  0  0  0  0  0  0  0  0  0
  141.0620   74.9960  218.6510 C   0  0  0  0  0  0  0  0  0  0  0  0
  141.0280   75.8790  219.8320 N   0  0  0  0  0  0  0  0  0  0  0  0
  139.8350   75.9000  220.5640 C   0  0  0  0  0  0  0  0  0  0  0  0
  138.8860   75.1630  220.1090 O   0  0  0  0  0  0  0  0  0  0  0  0
  139.5410   76.6660  221.7930 C   0  0  2  0  0  0  0  0  0  0  0  0
  138.8860   75.7400  222.7250 N   0  0  0  0  0  0  0  0  0  0  0  0
  138.7250   77.8900  221.5200 C   0  0  1  0  0  0  0  0  0  0  0  0
  138.6240   78.5960  222.9080 C   0  0  0  0  0  0  0  0  0  0  0  0
  140.0740   79.0130  223.0410 C   0  0  0  0  0  0  0  0  0  0  0  0
  140.8780   79.1690  224.1570 C   0  0  0  0  0  0  0  0  0  0  0  0
  142.2120   79.5390  224.0790 C   0  0  0  0  0  0  0  0  0  0  0  0
  142.6990   79.7480  222.7900 C   0  0  0  0  0  0  0  0  0  0  0  0
  141.8980   79.5940  221.6780 C   0  0  0  0  0  0  0  0  0  0  0  0
  140.5820   79.2300  221.7500 C   0  0  0  0  0  0  0  0  0  0  0  0
  139.4500   79.0080  220.8180 C   0  0  1  0  0  0  0  0  0  0  0  0
  139.7570   78.8620  219.4260 C   0  0  0  0  0  0  0  0  0  0  0  0
  140.9010   79.5230  218.9320 C   0  0  0  0  0  0  0  0  0  0  0  0
  141.2600   79.4560  217.6060 C   0  0  0  0  0  0  0  0  0  0  0  0
  140.5160   78.7370  216.6970 C   0  0  0  0  0  0  0  0  0  0  0  0
  139.4250   78.1090  217.1700 N   0  0  0  0  0  0  0  0  0  0  0  0
  139.0570   78.1620  218.4670 C   0  0  0  0  0  0  0  0  0  0  0  0
  142.2310   76.6230  220.0940 C   0  0  0  0  0  0  0  0  0  0  0  0
  143.3650   75.9380  219.3180 C   0  0  0  0  0  0  0  0  0  0  0  0
  146.4021   73.6936  222.9658 H   0  0  0  0  0  0  0  0  0  0  0  0
  146.4607   72.2955  221.8395 H   0  0  0  0  0  0  0  0  0  0  0  0
  147.7886   73.5051  221.8395 H   0  0  0  0  0  0  0  0  0  0  0  0
  145.0648   74.5602  221.3960 H   0  0  0  0  0  0  0  0  0  0  0  0
  146.6742   74.9419  220.6000 H   0  0  0  0  0  0  0  0  0  0  0  0
  144.5116   75.9131  217.0997 H   0  0  0  0  0  0  0  0  0  0  0  0
  144.4735   75.5398  214.6371 H   0  0  0  0  0  0  0  0  0  0  0  0
  144.4405   73.2705  213.6701 H   0  0  0  0  0  0  0  0  0  0  0  0
  144.4414   71.2992  215.1666 H   0  0  0  0  0  0  0  0  0  0  0  0
  144.4872   71.6058  217.6260 H   0  0  0  0  0  0  0  0  0  0  0  0
  143.4028   74.1464  220.6196 H   0  0  0  0  0  0  0  0  0  0  0  0
  142.2643   73.3161  218.1044 H   0  0  0  0  0  0  0  0  0  0  0  0
  141.5877   73.2969  219.8024 H   0  0  0  0  0  0  0  0  0  0  0  0
  141.4021   75.5496  217.7634 H   0  0  0  0  0  0  0  0  0  0  0  0
  140.0684   74.5920  218.4070 H   0  0  0  0  0  0  0  0  0  0  0  0
  140.4695   77.0538  222.2373 H   0  0  0  0  0  0  0  0  0  0  0  0
  138.4150   74.9440  222.2080 H   0  0  0  0  0  0  0  0  0  0  0  0
  139.5530   75.3490  223.4340 H   0  0  0  0  0  0  0  0  0  0  0  0
  137.8414   77.5441  220.9636 H   0  0  0  0  0  0  0  0  0  0  0  0
  137.9428   79.4594  222.8873 H   0  0  0  0  0  0  0  0  0  0  0  0
  138.2204   77.9869  223.7302 H   0  0  0  0  0  0  0  0  0  0  0  0
  140.4391   78.9915  225.1499 H   0  0  0  0  0  0  0  0  0  0  0  0
  142.8422   79.6592  224.9725 H   0  0  0  0  0  0  0  0  0  0  0  0
  143.7500   80.0436  222.6560 H   0  0  0  0  0  0  0  0  0  0  0  0
  142.3387   79.7725  220.6861 H   0  0  0  0  0  0  0  0  0  0  0  0
  138.8171   79.8939  220.6610 H   0  0  0  0  0  0  0  0  0  0  0  0
  141.5227   80.1078  219.6259 H   0  0  0  0  0  0  0  0  0  0  0  0
  142.1602   79.9878  217.2643 H   0  0  0  0  0  0  0  0  0  0  0  0
  140.8003   78.6792  215.6360 H   0  0  0  0  0  0  0  0  0  0  0  0
  138.1516   77.6185  218.7749 H   0  0  0  0  0  0  0  0  0  0  0  0
  142.1139   77.6619  219.7519 H   0  0  0  0  0  0  0  0  0  0  0  0
  142.4513   76.6434  221.1715 H   0  0  0  0  0  0  0  0  0  0  0  0
  143.2373   76.1356  218.2434 H   0  0  0  0  0  0  0  0  0  0  0  0
  144.3263   76.3406  219.6698 H   0  0  0  0  0  0  0  0  0  0  0  0
  1  2  1  0
  2  3  1  0
  3  4  2  0
  3  5  1  0
  5  6  1  0
  6  7  2  0
  7  8  1  0
  8  9  2  0
  9 10  1  0
 10 11  2  0
  5 12  1  0
 12 13  1  0
 13 14  1  0
 14 15  1  0
 15 16  1  0
 16 17  2  0
 16 18  1  0
 18 19  1  0
 18 20  1  0
 20 21  1  0
 21 22  1  0
 22 23  2  0
 23 24  1  0
 24 25  2  0
 25 26  1  0
 26 27  2  0
 27 28  1  0
 28 29  1  0
 29 30  2  0
 30 31  1  0
 31 32  2  0
 32 33  1  0
 33 34  2  0
 15 35  1  0
 35 36  1  0
 11  6  1  0
 36 12  1  0
 28 20  1  0
 34 29  1  0
 27 22  1  0
  1 37  1  0
  1 38  1  0
  1 39  1  0
  2 40  1  0
  2 41  1  0
  7 42  1  0
  8 43  1  0
  9 44  1  0
 10 45  1  0
 11 46  1  0
 12 47  1  0
 13 48  1  0
 13 49  1  0
 14 50  1  0
 14 51  1  0
 18 52  1  1
 19 53  1  0
 19 54  1  0
 20 55  1  6
 21 56  1  0
 21 57  1  0
 23 58  1  0
 24 59  1  0
 25 60  1  0
 26 61  1  0
 28 62  1  6
 30 63  1  0
 31 64  1  0
 32 65  1  0
 34 66  1  0
 35 67  1  0
 35 68  1  0
 36 69  1  0
 36 70  1  0
M  END
>  <smiles>  (191) 
CCC(=O)N(c1ccccc1)C1CCN(C(=O)[C@H](N)C2Cc3ccccc3C2c2cccnc2)CC1

>  <score_type>  (191) 
oracle

>  <origin>  (191) 
autodockgpu

>  <m_score__min__energy>  (191) 
-8.5700000000000003

>  <m_primary>  (191) 
energy

>  <rmsd>  (191) 
4.356085150489804

>  <m_score__min__rmsd>  (191) 
4.356085150489804

>  <meeko>  (191) 
{"free_energy": -6.61, "intermolecular_energy": -8.99, "internal_energy": -3.54, "cluster_size": 5, "cluster_id": 3, "rank_in_cluster": 4}

>  <energy>  (191) 
-6.92

>  <cluster_rmsd>  (191) 
0.76

>  <cluster>  (191) 
2

$$$$

     RDKit          3D

 70 74  0  0  0  0  0  0  0  0999 V2000
  138.7570   67.1110  222.4200 C   0  0  0  0  0  0  0  0  0  0  0  0
  137.7970   68.2490  222.3860 C   0  0  0  0  0  0  0  0  0  0  0  0
  137.6590   68.9810  223.6710 C   0  0  0  0  0  0  0  0  0  0  0  0
  136.5170   68.9370  224.2120 O   0  0  0  0  0  0  0  0  0  0  0  0
  138.7650   69.6660  224.2120 N   0  0  0  0  0  0  0  0  0  0  0  0
  139.4680   69.2580  225.3800 C   0  0  0  0  0  0  0  0  0  0  0  0
  140.0290   70.1630  226.2760 C   0  0  0  0  0  0  0  0  0  0  0  0
  140.6860   69.6270  227.3720 C   0  0  0  0  0  0  0  0  0  0  0  0
  140.7940   68.2640  227.5880 C   0  0  0  0  0  0  0  0  0  0  0  0
  140.2320   67.3980  226.6860 C   0  0  0  0  0  0  0  0  0  0  0  0
  139.5660   67.8810  225.5800 C   0  0  0  0  0  0  0  0  0  0  0  0
  139.2530   70.8610  223.5440 C   0  0  0  0  0  0  0  0  0  0  0  0
  138.1680   71.8230  223.1540 C   0  0  0  0  0  0  0  0  0  0  0  0
  138.2550   72.2860  221.7120 C   0  0  0  0  0  0  0  0  0  0  0  0
  139.6600   72.6980  221.5300 N   0  0  0  0  0  0  0  0  0  0  0  0
  139.8910   74.0630  221.3310 C   0  0  0  0  0  0  0  0  0  0  0  0
  138.8460   74.8100  221.3020 O   0  0  0  0  0  0  0  0  0  0  0  0
  141.1910   74.7430  221.1520 C   0  0  2  0  0  0  0  0  0  0  0  0
  141.1950   75.8990  222.0590 N   0  0  0  0  0  0  0  0  0  0  0  0
  141.4440   75.1220  219.7270 C   0  0  1  0  0  0  0  0  0  0  0  0
  142.8300   75.8380  219.7650 C   0  0  0  0  0  0  0  0  0  0  0  0
  143.6850   74.6310  220.0940 C   0  0  0  0  0  0  0  0  0  0  0  0
  144.8620   74.5170  220.8130 C   0  0  0  0  0  0  0  0  0  0  0  0
  145.4950   73.3030  221.0340 C   0  0  0  0  0  0  0  0  0  0  0  0
  144.8650   72.1910  220.4790 C   0  0  0  0  0  0  0  0  0  0  0  0
  143.6920   72.3050  219.7620 C   0  0  0  0  0  0  0  0  0  0  0  0
  143.0650   73.4990  219.5400 C   0  0  0  0  0  0  0  0  0  0  0  0
  141.8650   73.9940  218.8220 C   0  0  1  0  0  0  0  0  0  0  0  0
  140.8850   73.0280  218.4260 C   0  0  0  0  0  0  0  0  0  0  0  0
  139.5810   73.4890  218.1490 C   0  0  0  0  0  0  0  0  0  0  0  0
  138.5720   72.6300  217.7820 C   0  0  0  0  0  0  0  0  0  0  0  0
  138.7890   71.2760  217.6670 C   0  0  0  0  0  0  0  0  0  0  0  0
  140.0320   70.8380  217.9320 N   0  0  0  0  0  0  0  0  0  0  0  0
  141.0360   71.6640  218.2930 C   0  0  0  0  0  0  0  0  0  0  0  0
  140.6340   71.6400  221.5760 C   0  0  0  0  0  0  0  0  0  0  0  0
  139.9630   70.4350  222.2520 C   0  0  0  0  0  0  0  0  0  0  0  0
  138.9781   66.8489  223.4652 H   0  0  0  0  0  0  0  0  0  0  0  0
  138.3145   66.2426  221.9100 H   0  0  0  0  0  0  0  0  0  0  0  0
  139.6875   67.4009  221.9100 H   0  0  0  0  0  0  0  0  0  0  0  0
  138.1369   68.9617  221.6201 H   0  0  0  0  0  0  0  0  0  0  0  0
  136.8096   67.8170  222.1661 H   0  0  0  0  0  0  0  0  0  0  0  0
  139.9546   71.2496  226.1219 H   0  0  0  0  0  0  0  0  0  0  0  0
  141.1409   70.3136  228.1011 H   0  0  0  0  0  0  0  0  0  0  0  0
  141.3241   67.8806  228.4723 H   0  0  0  0  0  0  0  0  0  0  0  0
  140.3129   66.3127  226.8456 H   0  0  0  0  0  0  0  0  0  0  0  0
  139.1141   67.1841  224.8588 H   0  0  0  0  0  0  0  0  0  0  0  0
  139.9156   71.3718  224.2582 H   0  0  0  0  0  0  0  0  0  0  0  0
  137.1961   71.3296  223.3026 H   0  0  0  0  0  0  0  0  0  0  0  0
  138.2859   72.7152  223.7865 H   0  0  0  0  0  0  0  0  0  0  0  0
  138.0004   71.4648  221.0258 H   0  0  0  0  0  0  0  0  0  0  0  0
  137.5522   73.1043  221.4966 H   0  0  0  0  0  0  0  0  0  0  0  0
  142.0194   74.0641  221.4026 H   0  0  0  0  0  0  0  0  0  0  0  0
  141.8360   76.6640  221.7030 H   0  0  0  0  0  0  0  0  0  0  0  0
  140.2340   76.2910  222.2100 H   0  0  0  0  0  0  0  0  0  0  0  0
  140.5267   75.6212  219.3816 H   0  0  0  0  0  0  0  0  0  0  0  0
  143.0949   76.2838  218.7949 H   0  0  0  0  0  0  0  0  0  0  0  0
  142.9133   76.6901  220.4557 H   0  0  0  0  0  0  0  0  0  0  0  0
  145.3154   75.4295  221.2275 H   0  0  0  0  0  0  0  0  0  0  0  0
  146.4300   73.2234  221.6079 H   0  0  0  0  0  0  0  0  0  0  0  0
  145.3146   71.1965  220.6161 H   0  0  0  0  0  0  0  0  0  0  0  0
  143.2396   71.3912  219.3492 H   0  0  0  0  0  0  0  0  0  0  0  0
  142.0626   74.3247  217.7917 H   0  0  0  0  0  0  0  0  0  0  0  0
  139.3655   74.5647  218.2287 H   0  0  0  0  0  0  0  0  0  0  0  0
  137.5698   73.0338  217.5759 H   0  0  0  0  0  0  0  0  0  0  0  0
  137.9847   70.5858  217.3726 H   0  0  0  0  0  0  0  0  0  0  0  0
  142.0257   71.2268  218.4914 H   0  0  0  0  0  0  0  0  0  0  0  0
  140.9492   71.3731  220.5565 H   0  0  0  0  0  0  0  0  0  0  0  0
  141.5269   71.9550  222.1359 H   0  0  0  0  0  0  0  0  0  0  0  0
  139.2255   69.9989  221.5621 H   0  0  0  0  0  0  0  0  0  0  0  0
  140.7372   69.6948  222.5025 H   0  0  0  0  0  0  0  0  0  0  0  0
  1  2  1  0
  2  3  1  0
  3  4  2  0
  3  5  1  0
  5  6  1  0
  6  7  2  0
  7  8  1  0
  8  9  2  0
  9 10  1  0
 10 11  2  0
  5 12  1  0
 12 13  1  0
 13 14  1  0
 14 15  1  0
 15 16  1  0
 16 17  2  0
 16 18  1  0
 18 19  1  0
 18 20  1  0
 20 21  1  0
 21 22  1  0
 22 23  2  0
 23 24  1  0
 24 25  2  0
 25 26  1  0
 26 27  2  0
 27 28  1  0
 28 29  1  0
 29 30  2  0
 30 31  1  0
 31 32  2  0
 32 33  1  0
 33 34  2  0
 15 35  1  0
 35 36  1  0
 11  6  1  0
 36 12  1  0
 28 20  1  0
 34 29  1  0
 27 22  1  0
  1 37  1  0
  1 38  1  0
  1 39  1  0
  2 40  1  0
  2 41  1  0
  7 42  1  0
  8 43  1  0
  9 44  1  0
 10 45  1  0
 11 46  1  0
 12 47  1  0
 13 48  1  0
 13 49  1  0
 14 50  1  0
 14 51  1  0
 18 52  1  1
 19 53  1  0
 19 54  1  0
 20 55  1  6
 21 56  1  0
 21 57  1  0
 23 58  1  0
 24 59  1  0
 25 60  1  0
 26 61  1  0
 28 62  1  6
 30 63  1  0
 31 64  1  0
 32 65  1  0
 34 66  1  0
 35 67  1  0
 35 68  1  0
 36 69  1  0
 36 70  1  0
M  END
>  <smiles>  (192) 
CCC(=O)N(c1ccccc1)C1CCN(C(=O)[C@H](N)C2Cc3ccccc3C2c2cccnc2)CC1

>  <score_type>  (192) 
oracle

>  <origin>  (192) 
autodockgpu

>  <m_score__min__energy>  (192) 
-8.5700000000000003

>  <m_primary>  (192) 
energy

>  <rmsd>  (192) 
7.320518016182828

>  <m_score__min__rmsd>  (192) 
7.320518016182828

>  <meeko>  (192) 
{"free_energy": -7.1, "intermolecular_energy": -9.49, "internal_energy": -3.58, "cluster_size": 37, "cluster_id": 2, "rank_in_cluster": 16}

>  <energy>  (192) 
-6.92

>  <cluster_rmsd>  (192) 
0.92

>  <cluster>  (192) 
2

$$$$

     RDKit          3D

 70 74  0  0  0  0  0  0  0  0999 V2000
  138.7900   67.4600  221.8000 C   0  0  0  0  0  0  0  0  0  0  0  0
  139.1820   68.7410  222.4500 C   0  0  0  0  0  0  0  0  0  0  0  0
  139.1580   68.7130  223.9350 C   0  0  0  0  0  0  0  0  0  0  0  0
  138.8680   67.6010  224.4630 O   0  0  0  0  0  0  0  0  0  0  0  0
  139.4470   69.8840  224.6640 N   0  0  0  0  0  0  0  0  0  0  0  0
  140.0800   69.8970  225.9390 C   0  0  0  0  0  0  0  0  0  0  0  0
  140.4670   71.0740  226.5750 C   0  0  0  0  0  0  0  0  0  0  0  0
  141.0730   70.9400  227.8140 C   0  0  0  0  0  0  0  0  0  0  0  0
  141.2950   69.7110  228.4110 C   0  0  0  0  0  0  0  0  0  0  0  0
  140.9030   68.5710  227.7590 C   0  0  0  0  0  0  0  0  0  0  0  0
  140.2940   68.6500  226.5250 C   0  0  0  0  0  0  0  0  0  0  0  0
  139.1060   71.1760  224.0940 C   0  0  0  0  0  0  0  0  0  0  0  0
  137.7710   71.2010  223.4060 C   0  0  0  0  0  0  0  0  0  0  0  0
  137.8150   71.8050  222.0150 C   0  0  0  0  0  0  0  0  0  0  0  0
  138.5480   73.0750  222.1770 N   0  0  0  0  0  0  0  0  0  0  0  0
  137.8120   74.2500  221.9890 C   0  0  0  0  0  0  0  0  0  0  0  0
  136.5780   74.0930  221.6690 O   0  0  0  0  0  0  0  0  0  0  0  0
  138.2860   75.6440  222.1160 C   0  0  2  0  0  0  0  0  0  0  0  0
  137.2360   76.3880  222.8250 N   0  0  0  0  0  0  0  0  0  0  0  0
  138.6360   76.2500  220.7940 C   0  0  1  0  0  0  0  0  0  0  0  0
  138.1930   77.7400  220.9300 C   0  0  0  0  0  0  0  0  0  0  0  0
  139.2310   78.1800  221.9420 C   0  0  0  0  0  0  0  0  0  0  0  0
  139.1780   79.1320  222.9460 C   0  0  0  0  0  0  0  0  0  0  0  0
  140.2370   79.3800  223.8050 C   0  0  0  0  0  0  0  0  0  0  0  0
  141.3740   78.6030  223.5910 C   0  0  0  0  0  0  0  0  0  0  0  0
  141.4270   77.6560  222.5900 C   0  0  0  0  0  0  0  0  0  0  0  0
  140.3850   77.4080  221.7400 C   0  0  0  0  0  0  0  0  0  0  0  0
  140.0990   76.5320  220.5780 C   0  0  1  0  0  0  0  0  0  0  0  0
  140.9860   75.4300  220.3440 C   0  0  0  0  0  0  0  0  0  0  0  0
  140.5230   74.3760  219.5280 C   0  0  0  0  0  0  0  0  0  0  0  0
  141.2970   73.2700  219.2680 C   0  0  0  0  0  0  0  0  0  0  0  0
  142.5640   73.1400  219.7930 C   0  0  0  0  0  0  0  0  0  0  0  0
  143.0020   74.1460  220.5710 N   0  0  0  0  0  0  0  0  0  0  0  0
  142.2580   75.2390  220.8380 C   0  0  0  0  0  0  0  0  0  0  0  0
  139.9420   72.9570  222.5080 C   0  0  0  0  0  0  0  0  0  0  0  0
  140.1620   71.5330  223.0410 C   0  0  0  0  0  0  0  0  0  0  0  0
  138.5610   66.7117  222.5730 H   0  0  0  0  0  0  0  0  0  0  0  0
  137.9009   67.6238  221.1734 H   0  0  0  0  0  0  0  0  0  0  0  0
  139.6185   67.0982  221.1734 H   0  0  0  0  0  0  0  0  0  0  0  0
  140.2037   68.9907  222.1279 H   0  0  0  0  0  0  0  0  0  0  0  0
  138.4373   69.4889  222.1400 H   0  0  0  0  0  0  0  0  0  0  0  0
  140.3001   72.0601  226.1170 H   0  0  0  0  0  0  0  0  0  0  0  0
  141.3911   71.8489  228.3457 H   0  0  0  0  0  0  0  0  0  0  0  0
  141.7800   69.6501  229.3964 H   0  0  0  0  0  0  0  0  0  0  0  0
  141.0752   67.5885  228.2226 H   0  0  0  0  0  0  0  0  0  0  0  0
  139.9783   67.7336  226.0049 H   0  0  0  0  0  0  0  0  0  0  0  0
  139.0675   71.8882  224.9314 H   0  0  0  0  0  0  0  0  0  0  0  0
  137.4024   70.1678  223.3248 H   0  0  0  0  0  0  0  0  0  0  0  0
  137.1079   71.8358  224.0121 H   0  0  0  0  0  0  0  0  0  0  0  0
  138.3454   71.1377  221.3197 H   0  0  0  0  0  0  0  0  0  0  0  0
  136.8089   71.9574  221.5971 H   0  0  0  0  0  0  0  0  0  0  0  0
  139.2254   75.6812  222.6871 H   0  0  0  0  0  0  0  0  0  0  0  0
  136.2720   76.0320  222.5660 H   0  0  0  0  0  0  0  0  0  0  0  0
  137.3540   76.3510  223.8660 H   0  0  0  0  0  0  0  0  0  0  0  0
  138.2191   75.5729  220.0339 H   0  0  0  0  0  0  0  0  0  0  0  0
  138.2792   78.2882  219.9802 H   0  0  0  0  0  0  0  0  0  0  0  0
  137.1432   77.9065  221.2132 H   0  0  0  0  0  0  0  0  0  0  0  0
  138.2546   79.7173  223.0672 H   0  0  0  0  0  0  0  0  0  0  0  0
  140.1838   80.1377  224.6006 H   0  0  0  0  0  0  0  0  0  0  0  0
  142.2520   78.7489  224.2374 H   0  0  0  0  0  0  0  0  0  0  0  0
  142.3516   77.0723  222.4696 H   0  0  0  0  0  0  0  0  0  0  0  0
  140.3037   76.9982  219.6029 H   0  0  0  0  0  0  0  0  0  0  0  0
  139.5167   74.4410  219.0885 H   0  0  0  0  0  0  0  0  0  0  0  0
  140.8959   72.4713  218.6267 H   0  0  0  0  0  0  0  0  0  0  0  0
  143.1867   72.2571  219.5862 H   0  0  0  0  0  0  0  0  0  0  0  0
  142.6891   76.0183  221.4836 H   0  0  0  0  0  0  0  0  0  0  0  0
  140.5578   73.1236  221.6119 H   0  0  0  0  0  0  0  0  0  0  0  0
  140.2298   73.7053  223.2612 H   0  0  0  0  0  0  0  0  0  0  0  0
  140.0933   70.8207  222.2056 H   0  0  0  0  0  0  0  0  0  0  0  0
  141.1567   71.4812  223.5078 H   0  0  0  0  0  0  0  0  0  0  0  0
  1  2  1  0
  2  3  1  0
  3  4  2  0
  3  5  1  0
  5  6  1  0
  6  7  2  0
  7  8  1  0
  8  9  2  0
  9 10  1  0
 10 11  2  0
  5 12  1  0
 12 13  1  0
 13 14  1  0
 14 15  1  0
 15 16  1  0
 16 17  2  0
 16 18  1  0
 18 19  1  0
 18 20  1  0
 20 21  1  0
 21 22  1  0
 22 23  2  0
 23 24  1  0
 24 25  2  0
 25 26  1  0
 26 27  2  0
 27 28  1  0
 28 29  1  0
 29 30  2  0
 30 31  1  0
 31 32  2  0
 32 33  1  0
 33 34  2  0
 15 35  1  0
 35 36  1  0
 11  6  1  0
 36 12  1  0
 28 20  1  0
 34 29  1  0
 27 22  1  0
  1 37  1  0
  1 38  1  0
  1 39  1  0
  2 40  1  0
  2 41  1  0
  7 42  1  0
  8 43  1  0
  9 44  1  0
 10 45  1  0
 11 46  1  0
 12 47  1  0
 13 48  1  0
 13 49  1  0
 14 50  1  0
 14 51  1  0
 18 52  1  1
 19 53  1  0
 19 54  1  0
 20 55  1  6
 21 56  1  0
 21 57  1  0
 23 58  1  0
 24 59  1  0
 25 60  1  0
 26 61  1  0
 28 62  1  6
 30 63  1  0
 31 64  1  0
 32 65  1  0
 34 66  1  0
 35 67  1  0
 35 68  1  0
 36 69  1  0
 36 70  1  0
M  END
>  <smiles>  (193) 
CCC(=O)N(c1ccccc1)C1CCN(C(=O)[C@H](N)C2Cc3ccccc3C2c2cccnc2)CC1

>  <score_type>  (193) 
oracle

>  <origin>  (193) 
autodockgpu

>  <m_score__min__energy>  (193) 
-8.5700000000000003

>  <m_primary>  (193) 
energy

>  <rmsd>  (193) 
5.984745648643198

>  <m_score__min__rmsd>  (193) 
5.984745648643198

>  <meeko>  (193) 
{"free_energy": -7.63, "intermolecular_energy": -10.01, "internal_energy": -2.85, "cluster_size": 5, "cluster_id": 1, "rank_in_cluster": 4}

>  <energy>  (193) 
-7.22

>  <cluster_rmsd>  (193) 
0.0

>  <cluster>  (193) 
3

$$$$

     RDKit          3D

 70 74  0  0  0  0  0  0  0  0999 V2000
  138.2800   70.5760  220.6850 C   0  0  0  0  0  0  0  0  0  0  0  0
  139.7000   70.1260  220.6900 C   0  0  0  0  0  0  0  0  0  0  0  0
  140.6450   71.0710  221.3370 C   0  0  0  0  0  0  0  0  0  0  0  0
  141.7880   71.1630  220.8040 O   0  0  0  0  0  0  0  0  0  0  0  0
  140.2430   71.7980  222.4760 N   0  0  0  0  0  0  0  0  0  0  0  0
  140.0540   71.2260  223.7650 C   0  0  0  0  0  0  0  0  0  0  0  0
  138.9720   70.4050  224.0740 C   0  0  0  0  0  0  0  0  0  0  0  0
  138.9120   69.9170  225.3690 C   0  0  0  0  0  0  0  0  0  0  0  0
  139.8640   70.2160  226.3280 C   0  0  0  0  0  0  0  0  0  0  0  0
  140.9170   71.0280  225.9940 C   0  0  0  0  0  0  0  0  0  0  0  0
  141.0240   71.5380  224.7170 C   0  0  0  0  0  0  0  0  0  0  0  0
  140.0180   73.2290  222.3600 C   0  0  0  0  0  0  0  0  0  0  0  0
  138.6280   73.5890  221.9200 C   0  0  0  0  0  0  0  0  0  0  0  0
  138.5920   74.5800  220.7710 C   0  0  0  0  0  0  0  0  0  0  0  0
  139.5060   75.6640  221.1780 N   0  0  0  0  0  0  0  0  0  0  0  0
  138.9220   76.9060  221.4490 C   0  0  0  0  0  0  0  0  0  0  0  0
  137.6490   76.9730  221.2890 O   0  0  0  0  0  0  0  0  0  0  0  0
  139.5940   78.1430  221.8970 C   0  0  2  0  0  0  0  0  0  0  0  0
  138.8450   78.6380  223.0590 N   0  0  0  0  0  0  0  0  0  0  0  0
  139.7070   79.1580  220.8040 C   0  0  1  0  0  0  0  0  0  0  0  0
  139.3980   80.5140  221.5120 C   0  0  0  0  0  0  0  0  0  0  0  0
  140.6450   80.5980  222.3680 C   0  0  0  0  0  0  0  0  0  0  0  0
  140.8580   81.1590  223.6150 C   0  0  0  0  0  0  0  0  0  0  0  0
  142.0830   81.1140  224.2620 C   0  0  0  0  0  0  0  0  0  0  0  0
  143.1010   80.4610  223.5690 C   0  0  0  0  0  0  0  0  0  0  0  0
  142.8890   79.9030  222.3260 C   0  0  0  0  0  0  0  0  0  0  0  0
  141.6830   79.9460  221.6830 C   0  0  0  0  0  0  0  0  0  0  0  0
  141.1120   79.5070  220.3870 C   0  0  1  0  0  0  0  0  0  0  0  0
  141.8590   78.5520  219.6230 C   0  0  0  0  0  0  0  0  0  0  0  0
  141.8910   78.7120  218.2210 C   0  0  0  0  0  0  0  0  0  0  0  0
  142.5660   77.8320  217.4080 C   0  0  0  0  0  0  0  0  0  0  0  0
  143.2440   76.7510  217.9260 C   0  0  0  0  0  0  0  0  0  0  0  0
  143.2110   76.6010  219.2620 N   0  0  0  0  0  0  0  0  0  0  0  0
  142.5550   77.4520  220.0770 C   0  0  0  0  0  0  0  0  0  0  0  0
  140.9000   75.3170  221.2440 C   0  0  0  0  0  0  0  0  0  0  0  0
  140.9830   73.7840  221.3060 C   0  0  0  0  0  0  0  0  0  0  0  0
  137.9271   70.6878  221.7209 H   0  0  0  0  0  0  0  0  0  0  0  0
  138.2034   71.5424  220.1652 H   0  0  0  0  0  0  0  0  0  0  0  0
  137.6608   69.8301  220.1652 H   0  0  0  0  0  0  0  0  0  0  0  0
  139.7540   69.1664  221.2250 H   0  0  0  0  0  0  0  0  0  0  0  0
  140.0070   70.0501  219.6364 H   0  0  0  0  0  0  0  0  0  0  0  0
  138.2037   70.1566  223.3270 H   0  0  0  0  0  0  0  0  0  0  0  0
  138.0717   69.2639  225.6471 H   0  0  0  0  0  0  0  0  0  0  0  0
  139.7769   69.8073  227.3455 H   0  0  0  0  0  0  0  0  0  0  0  0
  141.6797   71.2737  226.7476 H   0  0  0  0  0  0  0  0  0  0  0  0
  141.8706   72.1879  224.4507 H   0  0  0  0  0  0  0  0  0  0  0  0
  140.1752   73.6550  223.3619 H   0  0  0  0  0  0  0  0  0  0  0  0
  138.1147   72.6694  221.6024 H   0  0  0  0  0  0  0  0  0  0  0  0
  138.1329   74.0699  222.7765 H   0  0  0  0  0  0  0  0  0  0  0  0
  138.9413   74.1076  219.8410 H   0  0  0  0  0  0  0  0  0  0  0  0
  137.5746   74.9480  220.5724 H   0  0  0  0  0  0  0  0  0  0  0  0
  140.6359   77.9341  222.1812 H   0  0  0  0  0  0  0  0  0  0  0  0
  137.8650   78.2330  223.0860 H   0  0  0  0  0  0  0  0  0  0  0  0
  139.3310   78.4320  223.9650 H   0  0  0  0  0  0  0  0  0  0  0  0
  139.1021   78.7706  219.9709 H   0  0  0  0  0  0  0  0  0  0  0  0
  139.3257   81.3486  220.7991 H   0  0  0  0  0  0  0  0  0  0  0  0
  138.4401   80.5689  222.0500 H   0  0  0  0  0  0  0  0  0  0  0  0
  140.0178   81.6630  224.1150 H   0  0  0  0  0  0  0  0  0  0  0  0
  142.2409   81.5626  225.2539 H   0  0  0  0  0  0  0  0  0  0  0  0
  144.0992   80.3890  224.0255 H   0  0  0  0  0  0  0  0  0  0  0  0
  143.7304   79.3991  221.8278 H   0  0  0  0  0  0  0  0  0  0  0  0
  141.1454   80.2743  219.5995 H   0  0  0  0  0  0  0  0  0  0  0  0
  141.3622   79.5629  217.7668 H   0  0  0  0  0  0  0  0  0  0  0  0
  142.5643   77.9951  216.3202 H   0  0  0  0  0  0  0  0  0  0  0  0
  143.7857   76.0453  217.2790 H   0  0  0  0  0  0  0  0  0  0  0  0
  142.5764   77.2585  221.1596 H   0  0  0  0  0  0  0  0  0  0  0  0
  141.4234   75.6871  220.3501 H   0  0  0  0  0  0  0  0  0  0  0  0
  141.3743   75.7702  222.1270 H   0  0  0  0  0  0  0  0  0  0  0  0
  140.7202   73.3685  220.3220 H   0  0  0  0  0  0  0  0  0  0  0  0
  142.0087   73.4972  221.5811 H   0  0  0  0  0  0  0  0  0  0  0  0
  1  2  1  0
  2  3  1  0
  3  4  2  0
  3  5  1  0
  5  6  1  0
  6  7  2  0
  7  8  1  0
  8  9  2  0
  9 10  1  0
 10 11  2  0
  5 12  1  0
 12 13  1  0
 13 14  1  0
 14 15  1  0
 15 16  1  0
 16 17  2  0
 16 18  1  0
 18 19  1  0
 18 20  1  0
 20 21  1  0
 21 22  1  0
 22 23  2  0
 23 24  1  0
 24 25  2  0
 25 26  1  0
 26 27  2  0
 27 28  1  0
 28 29  1  0
 29 30  2  0
 30 31  1  0
 31 32  2  0
 32 33  1  0
 33 34  2  0
 15 35  1  0
 35 36  1  0
 11  6  1  0
 36 12  1  0
 28 20  1  0
 34 29  1  0
 27 22  1  0
  1 37  1  0
  1 38  1  0
  1 39  1  0
  2 40  1  0
  2 41  1  0
  7 42  1  0
  8 43  1  0
  9 44  1  0
 10 45  1  0
 11 46  1  0
 12 47  1  0
 13 48  1  0
 13 49  1  0
 14 50  1  0
 14 51  1  0
 18 52  1  1
 19 53  1  0
 19 54  1  0
 20 55  1  6
 21 56  1  0
 21 57  1  0
 23 58  1  0
 24 59  1  0
 25 60  1  0
 26 61  1  0
 28 62  1  6
 30 63  1  0
 31 64  1  0
 32 65  1  0
 34 66  1  0
 35 67  1  0
 35 68  1  0
 36 69  1  0
 36 70  1  0
M  END
>  <smiles>  (194) 
CCC(=O)N(c1ccccc1)C1CCN(C(=O)[C@H](N)C2Cc3ccccc3C2c2cccnc2)CC1

>  <score_type>  (194) 
oracle

>  <origin>  (194) 
autodockgpu

>  <m_score__min__energy>  (194) 
-8.5700000000000003

>  <m_primary>  (194) 
energy

>  <rmsd>  (194) 
3.891723889539952

>  <m_score__min__rmsd>  (194) 
3.891723889539952

>  <meeko>  (194) 
{"free_energy": -6.95, "intermolecular_energy": -9.34, "internal_energy": -2.81, "cluster_size": 1, "cluster_id": 4, "rank_in_cluster": 1}

>  <energy>  (194) 
-7.18

>  <cluster_rmsd>  (194) 
0.62

>  <cluster>  (194) 
3

$$$$

     RDKit          3D

 70 74  0  0  0  0  0  0  0  0999 V2000
  146.6040   73.7650  221.2740 C   0  0  0  0  0  0  0  0  0  0  0  0
  145.4850   72.7910  221.1380 C   0  0  0  0  0  0  0  0  0  0  0  0
  144.8090   72.8070  219.8160 C   0  0  0  0  0  0  0  0  0  0  0  0
  145.5590   72.6570  218.8090 O   0  0  0  0  0  0  0  0  0  0  0  0
  143.4130   72.9830  219.7430 N   0  0  0  0  0  0  0  0  0  0  0  0
  142.4780   71.9190  219.5970 C   0  0  0  0  0  0  0  0  0  0  0  0
  141.5920   71.5520  220.6060 C   0  0  0  0  0  0  0  0  0  0  0  0
  140.7360   70.4970  220.3280 C   0  0  0  0  0  0  0  0  0  0  0  0
  140.7440   69.8250  219.1180 C   0  0  0  0  0  0  0  0  0  0  0  0
  141.6300   70.2090  218.1450 C   0  0  0  0  0  0  0  0  0  0  0  0
  142.5000   71.2540  218.3710 C   0  0  0  0  0  0  0  0  0  0  0  0
  142.8610   74.3240  219.8390 C   0  0  0  0  0  0  0  0  0  0  0  0
  141.5660   74.4990  219.0990 C   0  0  0  0  0  0  0  0  0  0  0  0
  141.5420   75.7170  218.1940 C   0  0  0  0  0  0  0  0  0  0  0  0
  142.0280   76.8250  219.0380 N   0  0  0  0  0  0  0  0  0  0  0  0
  141.0990   77.8200  219.3610 C   0  0  0  0  0  0  0  0  0  0  0  0
  139.9240   77.6710  218.8630 O   0  0  0  0  0  0  0  0  0  0  0  0
  141.3090   79.0150  220.2040 C   0  0  2  0  0  0  0  0  0  0  0  0
  142.1980   79.9130  219.4560 N   0  0  0  0  0  0  0  0  0  0  0  0
  141.8400   78.6690  221.5600 C   0  0  1  0  0  0  0  0  0  0  0  0
  142.0250   80.0520  222.2590 C   0  0  0  0  0  0  0  0  0  0  0  0
  140.5620   80.4180  222.4010 C   0  0  0  0  0  0  0  0  0  0  0  0
  139.9260   81.6470  222.3960 C   0  0  0  0  0  0  0  0  0  0  0  0
  138.5520   81.7840  222.5150 C   0  0  0  0  0  0  0  0  0  0  0  0
  137.8410   80.5920  222.6440 C   0  0  0  0  0  0  0  0  0  0  0  0
  138.4750   79.3670  222.6510 C   0  0  0  0  0  0  0  0  0  0  0  0
  139.8310   79.2270  222.5340 C   0  0  0  0  0  0  0  0  0  0  0  0
  140.8260   78.1270  222.5330 C   0  0  1  0  0  0  0  0  0  0  0  0
  140.3380   76.7920  222.3470 C   0  0  0  0  0  0  0  0  0  0  0  0
  138.9460   76.5820  222.4380 C   0  0  0  0  0  0  0  0  0  0  0  0
  138.3930   75.3320  222.2940 C   0  0  0  0  0  0  0  0  0  0  0  0
  139.1750   74.2240  222.0530 C   0  0  0  0  0  0  0  0  0  0  0  0
  140.5010   74.4270  221.9680 N   0  0  0  0  0  0  0  0  0  0  0  0
  141.0640   75.6450  222.1060 C   0  0  0  0  0  0  0  0  0  0  0  0
  143.4100   76.7560  219.4290 C   0  0  0  0  0  0  0  0  0  0  0  0
  143.8680   75.3040  219.2230 C   0  0  0  0  0  0  0  0  0  0  0  0
  146.8080   73.9426  222.3402 H   0  0  0  0  0  0  0  0  0  0  0  0
  147.5048   73.3583  220.7911 H   0  0  0  0  0  0  0  0  0  0  0  0
  146.3255   74.7133  220.7911 H   0  0  0  0  0  0  0  0  0  0  0  0
  145.8870   71.7809  221.3056 H   0  0  0  0  0  0  0  0  0  0  0  0
  144.7265   73.0820  221.8796 H   0  0  0  0  0  0  0  0  0  0  0  0
  141.5719   72.0725  221.5748 H   0  0  0  0  0  0  0  0  0  0  0  0
  140.0206   70.1810  221.1015 H   0  0  0  0  0  0  0  0  0  0  0  0
  140.0476   68.9925  218.9392 H   0  0  0  0  0  0  0  0  0  0  0  0
  141.6468   69.6811  217.1801 H   0  0  0  0  0  0  0  0  0  0  0  0
  143.2085   71.5622  217.5880 H   0  0  0  0  0  0  0  0  0  0  0  0
  142.6679   74.5100  220.9058 H   0  0  0  0  0  0  0  0  0  0  0  0
  141.3944   73.6044  218.4824 H   0  0  0  0  0  0  0  0  0  0  0  0
  140.7801   74.6438  219.8549 H   0  0  0  0  0  0  0  0  0  0  0  0
  142.2051   75.5697  217.3288 H   0  0  0  0  0  0  0  0  0  0  0  0
  140.5381   75.9134  217.7896 H   0  0  0  0  0  0  0  0  0  0  0  0
  140.3514   79.5165  220.4077 H   0  0  0  0  0  0  0  0  0  0  0  0
  143.0550   79.3980  219.1020 H   0  0  0  0  0  0  0  0  0  0  0  0
  141.7120   80.3750  218.6500 H   0  0  0  0  0  0  0  0  0  0  0  0
  142.6747   77.9737  221.3875 H   0  0  0  0  0  0  0  0  0  0  0  0
  142.5278   79.9619  223.2332 H   0  0  0  0  0  0  0  0  0  0  0  0
  142.6539   80.7804  221.7262 H   0  0  0  0  0  0  0  0  0  0  0  0
  140.5379   82.5552  222.2930 H   0  0  0  0  0  0  0  0  0  0  0  0
  138.0565   82.7661  222.5081 H   0  0  0  0  0  0  0  0  0  0  0  0
  136.7461   80.6292  222.7428 H   0  0  0  0  0  0  0  0  0  0  0  0
  137.8615   78.4599  222.7556 H   0  0  0  0  0  0  0  0  0  0  0  0
  141.2571   77.9100  223.5215 H   0  0  0  0  0  0  0  0  0  0  0  0
  138.2860   77.4410  222.6292 H   0  0  0  0  0  0  0  0  0  0  0  0
  137.3022   75.2139  222.3729 H   0  0  0  0  0  0  0  0  0  0  0  0
  138.7359   73.2223  221.9358 H   0  0  0  0  0  0  0  0  0  0  0  0
  142.1577   75.7273  222.0220 H   0  0  0  0  0  0  0  0  0  0  0  0
  144.0124   77.4333  218.8057 H   0  0  0  0  0  0  0  0  0  0  0  0
  143.5346   77.0597  220.4789 H   0  0  0  0  0  0  0  0  0  0  0  0
  143.9547   75.1024  218.1451 H   0  0  0  0  0  0  0  0  0  0  0  0
  144.8413   75.1672  219.7169 H   0  0  0  0  0  0  0  0  0  0  0  0
  1  2  1  0
  2  3  1  0
  3  4  2  0
  3  5  1  0
  5  6  1  0
  6  7  2  0
  7  8  1  0
  8  9  2  0
  9 10  1  0
 10 11  2  0
  5 12  1  0
 12 13  1  0
 13 14  1  0
 14 15  1  0
 15 16  1  0
 16 17  2  0
 16 18  1  0
 18 19  1  0
 18 20  1  0
 20 21  1  0
 21 22  1  0
 22 23  2  0
 23 24  1  0
 24 25  2  0
 25 26  1  0
 26 27  2  0
 27 28  1  0
 28 29  1  0
 29 30  2  0
 30 31  1  0
 31 32  2  0
 32 33  1  0
 33 34  2  0
 15 35  1  0
 35 36  1  0
 11  6  1  0
 36 12  1  0
 28 20  1  0
 34 29  1  0
 27 22  1  0
  1 37  1  0
  1 38  1  0
  1 39  1  0
  2 40  1  0
  2 41  1  0
  7 42  1  0
  8 43  1  0
  9 44  1  0
 10 45  1  0
 11 46  1  0
 12 47  1  0
 13 48  1  0
 13 49  1  0
 14 50  1  0
 14 51  1  0
 18 52  1  1
 19 53  1  0
 19 54  1  0
 20 55  1  6
 21 56  1  0
 21 57  1  0
 23 58  1  0
 24 59  1  0
 25 60  1  0
 26 61  1  0
 28 62  1  1
 30 63  1  0
 31 64  1  0
 32 65  1  0
 34 66  1  0
 35 67  1  0
 35 68  1  0
 36 69  1  0
 36 70  1  0
M  END
>  <smiles>  (195) 
CCC(=O)N(c1ccccc1)C1CCN(C(=O)[C@H](N)C2Cc3ccccc3C2c2cccnc2)CC1

>  <score_type>  (195) 
oracle

>  <origin>  (195) 
autodockgpu

>  <m_score__min__energy>  (195) 
-8.5700000000000003

>  <m_primary>  (195) 
energy

>  <rmsd>  (195) 
3.7740854311210303

>  <m_score__min__rmsd>  (195) 
3.7740854311210303

>  <meeko>  (195) 
{"free_energy": -6.9, "intermolecular_energy": -9.28, "internal_energy": -3.11, "cluster_size": 1, "cluster_id": 5, "rank_in_cluster": 1}

>  <energy>  (195) 
-7.14

>  <cluster_rmsd>  (195) 
0.46

>  <cluster>  (195) 
3

$$$$

     RDKit          3D

 70 74  0  0  0  0  0  0  0  0999 V2000
  136.1970   69.3390  224.5880 C   0  0  0  0  0  0  0  0  0  0  0  0
  137.0510   68.9490  223.4320 C   0  0  0  0  0  0  0  0  0  0  0  0
  138.4510   68.6020  223.7860 C   0  0  0  0  0  0  0  0  0  0  0  0
  138.8330   67.4420  223.4590 O   0  0  0  0  0  0  0  0  0  0  0  0
  139.2630   69.5450  224.4470 N   0  0  0  0  0  0  0  0  0  0  0  0
  139.7680   69.3810  225.7670 C   0  0  0  0  0  0  0  0  0  0  0  0
  139.8310   68.1440  226.4020 C   0  0  0  0  0  0  0  0  0  0  0  0
  140.3460   68.1300  227.6880 C   0  0  0  0  0  0  0  0  0  0  0  0
  140.7810   69.2740  228.3340 C   0  0  0  0  0  0  0  0  0  0  0  0
  140.7050   70.4790  227.6830 C   0  0  0  0  0  0  0  0  0  0  0  0
  140.2020   70.5450  226.4010 C   0  0  0  0  0  0  0  0  0  0  0  0
  139.6400   70.7650  223.7530 C   0  0  0  0  0  0  0  0  0  0  0  0
  138.4930   71.7050  223.5160 C   0  0  0  0  0  0  0  0  0  0  0  0
  138.3980   72.1980  222.0840 C   0  0  0  0  0  0  0  0  0  0  0  0
  139.7620   72.6500  221.7480 N   0  0  0  0  0  0  0  0  0  0  0  0
  139.9350   74.0250  221.5530 C   0  0  0  0  0  0  0  0  0  0  0  0
  138.8770   74.7440  221.6640 O   0  0  0  0  0  0  0  0  0  0  0  0
  141.1880   74.7430  221.2380 C   0  0  2  0  0  0  0  0  0  0  0  0
  141.2220   75.9360  222.0930 N   0  0  0  0  0  0  0  0  0  0  0  0
  141.3070   75.0680  219.7830 C   0  0  1  0  0  0  0  0  0  0  0  0
  142.6830   75.7950  219.6670 C   0  0  0  0  0  0  0  0  0  0  0  0
  143.5780   74.6090  219.9630 C   0  0  0  0  0  0  0  0  0  0  0  0
  144.8160   74.5330  220.5770 C   0  0  0  0  0  0  0  0  0  0  0  0
  145.4810   73.3350  220.7860 C   0  0  0  0  0  0  0  0  0  0  0  0
  144.8160   72.1960  220.3330 C   0  0  0  0  0  0  0  0  0  0  0  0
  143.5820   72.2720  219.7210 C   0  0  0  0  0  0  0  0  0  0  0  0
  142.9240   73.4520  219.5120 C   0  0  0  0  0  0  0  0  0  0  0  0
  141.6590   73.9090  218.8870 C   0  0  1  0  0  0  0  0  0  0  0  0
  140.6570   72.9190  218.6180 C   0  0  0  0  0  0  0  0  0  0  0  0
  139.3140   73.3450  218.5440 C   0  0  0  0  0  0  0  0  0  0  0  0
  138.2870   72.4620  218.3100 C   0  0  0  0  0  0  0  0  0  0  0  0
  138.5220   71.1170  218.1370 C   0  0  0  0  0  0  0  0  0  0  0  0
  139.8030   70.7130  218.2090 N   0  0  0  0  0  0  0  0  0  0  0  0
  140.8250   71.5630  218.4360 C   0  0  0  0  0  0  0  0  0  0  0  0
  140.7590   71.6190  221.6550 C   0  0  0  0  0  0  0  0  0  0  0  0
  140.2020   70.3830  222.3780 C   0  0  0  0  0  0  0  0  0  0  0  0
  136.7190   69.1006  225.5264 H   0  0  0  0  0  0  0  0  0  0  0  0
  135.9937   70.4192  224.5457 H   0  0  0  0  0  0  0  0  0  0  0  0
  135.2475   68.7853  224.5457 H   0  0  0  0  0  0  0  0  0  0  0  0
  136.5930   68.0744  222.9469 H   0  0  0  0  0  0  0  0  0  0  0  0
  137.1051   69.8288  222.7739 H   0  0  0  0  0  0  0  0  0  0  0  0
  139.4888   67.2231  225.9072 H   0  0  0  0  0  0  0  0  0  0  0  0
  140.4120   67.1685  228.2183 H   0  0  0  0  0  0  0  0  0  0  0  0
  141.1826   69.2177  229.3565 H   0  0  0  0  0  0  0  0  0  0  0  0
  141.0466   71.3959  228.1856 H   0  0  0  0  0  0  0  0  0  0  0  0
  140.1432   71.5121  225.8802 H   0  0  0  0  0  0  0  0  0  0  0  0
  140.3705   71.2796  224.3946 H   0  0  0  0  0  0  0  0  0  0  0  0
  137.5579   71.1829  223.7669 H   0  0  0  0  0  0  0  0  0  0  0  0
  138.6625   72.5874  224.1506 H   0  0  0  0  0  0  0  0  0  0  0  0
  138.0839   71.3839  221.4142 H   0  0  0  0  0  0  0  0  0  0  0  0
  137.6553   73.0014  221.9706 H   0  0  0  0  0  0  0  0  0  0  0  0
  142.0603   74.1059  221.4457 H   0  0  0  0  0  0  0  0  0  0  0  0
  141.8520   76.6840  221.6850 H   0  0  0  0  0  0  0  0  0  0  0  0
  140.2660   76.3360  222.2570 H   0  0  0  0  0  0  0  0  0  0  0  0
  140.3563   75.5459  219.5041 H   0  0  0  0  0  0  0  0  0  0  0  0
  142.8538   76.2041  218.6603 H   0  0  0  0  0  0  0  0  0  0  0  0
  142.8190   76.6740  220.3142 H   0  0  0  0  0  0  0  0  0  0  0  0
  145.2935   75.4649  220.9142 H   0  0  0  0  0  0  0  0  0  0  0  0
  146.4650   73.2861  221.2752 H   0  0  0  0  0  0  0  0  0  0  0  0
  145.2877   71.2114  220.4672 H   0  0  0  0  0  0  0  0  0  0  0  0
  143.1050   71.3393  219.3854 H   0  0  0  0  0  0  0  0  0  0  0  0
  141.7602   74.2011  217.8313 H   0  0  0  0  0  0  0  0  0  0  0  0
  139.0827   74.4121  218.6771 H   0  0  0  0  0  0  0  0  0  0  0  0
  137.2547   72.8386  218.2599 H   0  0  0  0  0  0  0  0  0  0  0  0
  137.7027   70.4074  217.9491 H   0  0  0  0  0  0  0  0  0  0  0  0
  141.8450   71.1533  218.4781 H   0  0  0  0  0  0  0  0  0  0  0  0
  140.9577   71.3808  220.5996 H   0  0  0  0  0  0  0  0  0  0  0  0
  141.7040   71.9467  222.1128 H   0  0  0  0  0  0  0  0  0  0  0  0
  139.3989   69.9408  221.7701 H   0  0  0  0  0  0  0  0  0  0  0  0
  141.0179   69.6588  222.5188 H   0  0  0  0  0  0  0  0  0  0  0  0
  1  2  1  0
  2  3  1  0
  3  4  2  0
  3  5  1  0
  5  6  1  0
  6  7  2  0
  7  8  1  0
  8  9  2  0
  9 10  1  0
 10 11  2  0
  5 12  1  0
 12 13  1  0
 13 14  1  0
 14 15  1  0
 15 16  1  0
 16 17  2  0
 16 18  1  0
 18 19  1  0
 18 20  1  0
 20 21  1  0
 21 22  1  0
 22 23  2  0
 23 24  1  0
 24 25  2  0
 25 26  1  0
 26 27  2  0
 27 28  1  0
 28 29  1  0
 29 30  2  0
 30 31  1  0
 31 32  2  0
 32 33  1  0
 33 34  2  0
 15 35  1  0
 35 36  1  0
 11  6  1  0
 36 12  1  0
 28 20  1  0
 34 29  1  0
 27 22  1  0
  1 37  1  0
  1 38  1  0
  1 39  1  0
  2 40  1  0
  2 41  1  0
  7 42  1  0
  8 43  1  0
  9 44  1  0
 10 45  1  0
 11 46  1  0
 12 47  1  0
 13 48  1  0
 13 49  1  0
 14 50  1  0
 14 51  1  0
 18 52  1  1
 19 53  1  0
 19 54  1  0
 20 55  1  6
 21 56  1  0
 21 57  1  0
 23 58  1  0
 24 59  1  0
 25 60  1  0
 26 61  1  0
 28 62  1  6
 30 63  1  0
 31 64  1  0
 32 65  1  0
 34 66  1  0
 35 67  1  0
 35 68  1  0
 36 69  1  0
 36 70  1  0
M  END
>  <smiles>  (196) 
CCC(=O)N(c1ccccc1)C1CCN(C(=O)[C@H](N)C2Cc3ccccc3C2c2cccnc2)CC1

>  <score_type>  (196) 
oracle

>  <origin>  (196) 
autodockgpu

>  <m_score__min__energy>  (196) 
-8.5700000000000003

>  <m_primary>  (196) 
energy

>  <rmsd>  (196) 
7.375006174471026

>  <m_score__min__rmsd>  (196) 
7.375006174471026

>  <meeko>  (196) 
{"free_energy": -7.17, "intermolecular_energy": -9.55, "internal_energy": -3.6, "cluster_size": 37, "cluster_id": 2, "rank_in_cluster": 8}

>  <energy>  (196) 
-6.61

>  <cluster_rmsd>  (196) 
1.53

>  <cluster>  (196) 
3

$$$$

     RDKit          3D

 70 74  0  0  0  0  0  0  0  0999 V2000
  136.1930   69.3200  224.3800 C   0  0  0  0  0  0  0  0  0  0  0  0
  137.0820   68.8810  223.2690 C   0  0  0  0  0  0  0  0  0  0  0  0
  138.4690   68.5490  223.6820 C   0  0  0  0  0  0  0  0  0  0  0  0
  138.8730   67.3880  223.3840 O   0  0  0  0  0  0  0  0  0  0  0  0
  139.2470   69.5070  224.3630 N   0  0  0  0  0  0  0  0  0  0  0  0
  139.7140   69.3560  225.6990 C   0  0  0  0  0  0  0  0  0  0  0  0
  139.7050   68.1350  226.3660 C   0  0  0  0  0  0  0  0  0  0  0  0
  140.1890   68.1320  227.6650 C   0  0  0  0  0  0  0  0  0  0  0  0
  140.6610   69.2730  228.2910 C   0  0  0  0  0  0  0  0  0  0  0  0
  140.6550   70.4620  227.6080 C   0  0  0  0  0  0  0  0  0  0  0  0
  140.1870   70.5160  226.3120 C   0  0  0  0  0  0  0  0  0  0  0  0
  139.6290   70.7290  223.6750 C   0  0  0  0  0  0  0  0  0  0  0  0
  138.4940   71.6910  223.4750 C   0  0  0  0  0  0  0  0  0  0  0  0
  138.3730   72.2030  222.0510 C   0  0  0  0  0  0  0  0  0  0  0  0
  139.7360   72.6360  221.6890 N   0  0  0  0  0  0  0  0  0  0  0  0
  139.9290   74.0090  221.5070 C   0  0  0  0  0  0  0  0  0  0  0  0
  138.8850   74.7450  221.6510 O   0  0  0  0  0  0  0  0  0  0  0  0
  141.1860   74.7100  221.1700 C   0  0  2  0  0  0  0  0  0  0  0  0
  141.2380   75.9160  222.0070 N   0  0  0  0  0  0  0  0  0  0  0  0
  141.2960   75.0120  219.7090 C   0  0  1  0  0  0  0  0  0  0  0  0
  142.6550   75.7680  219.5800 C   0  0  0  0  0  0  0  0  0  0  0  0
  143.5760   74.6080  219.8950 C   0  0  0  0  0  0  0  0  0  0  0  0
  144.8170   74.5710  220.5090 C   0  0  0  0  0  0  0  0  0  0  0  0
  145.5090   73.3920  220.7380 C   0  0  0  0  0  0  0  0  0  0  0  0
  144.8690   72.2310  220.3060 C   0  0  0  0  0  0  0  0  0  0  0  0
  143.6340   72.2680  219.6940 C   0  0  0  0  0  0  0  0  0  0  0  0
  142.9480   73.4290  219.4650 C   0  0  0  0  0  0  0  0  0  0  0  0
  141.6730   73.8460  218.8340 C   0  0  1  0  0  0  0  0  0  0  0  0
  140.6940   72.8290  218.5830 C   0  0  0  0  0  0  0  0  0  0  0  0
  141.1570   71.5410  218.2420 C   0  0  0  0  0  0  0  0  0  0  0  0
  140.2890   70.5110  217.9640 C   0  0  0  0  0  0  0  0  0  0  0  0
  138.9250   70.6900  218.0080 C   0  0  0  0  0  0  0  0  0  0  0  0
  138.4860   71.9190  218.3330 N   0  0  0  0  0  0  0  0  0  0  0  0
  139.3200   72.9420  218.6090 C   0  0  0  0  0  0  0  0  0  0  0  0
  140.7140   71.5890  221.5610 C   0  0  0  0  0  0  0  0  0  0  0  0
  140.1530   70.3540  222.2820 C   0  0  0  0  0  0  0  0  0  0  0  0
  136.6679   69.0855  225.3441 H   0  0  0  0  0  0  0  0  0  0  0  0
  136.0249   70.4047  224.3083 H   0  0  0  0  0  0  0  0  0  0  0  0
  135.2295   68.7941  224.3083 H   0  0  0  0  0  0  0  0  0  0  0  0
  136.6381   67.9867  222.8072 H   0  0  0  0  0  0  0  0  0  0  0  0
  137.1582   69.7317  222.5758 H   0  0  0  0  0  0  0  0  0  0  0  0
  139.3324   67.2178  225.8865 H   0  0  0  0  0  0  0  0  0  0  0  0
  140.1984   67.1833  228.2217 H   0  0  0  0  0  0  0  0  0  0  0  0
  141.0363   69.2263  229.3239 H   0  0  0  0  0  0  0  0  0  0  0  0
  141.0248   71.3760  228.0957 H   0  0  0  0  0  0  0  0  0  0  0  0
  140.1867   71.4698  225.7641 H   0  0  0  0  0  0  0  0  0  0  0  0
  140.3824   71.2231  224.3061 H   0  0  0  0  0  0  0  0  0  0  0  0
  137.5561   71.1822  223.7422 H   0  0  0  0  0  0  0  0  0  0  0  0
  138.6947   72.5631  224.1147 H   0  0  0  0  0  0  0  0  0  0  0  0
  138.0295   71.4025  221.3793 H   0  0  0  0  0  0  0  0  0  0  0  0
  137.6412   73.0196  221.9642 H   0  0  0  0  0  0  0  0  0  0  0  0
  142.0541   74.0676  221.3794 H   0  0  0  0  0  0  0  0  0  0  0  0
  141.8840   76.6450  221.5900 H   0  0  0  0  0  0  0  0  0  0  0  0
  140.2900   76.3360  222.1610 H   0  0  0  0  0  0  0  0  0  0  0  0
  140.3347   75.4632  219.4219 H   0  0  0  0  0  0  0  0  0  0  0  0
  142.8163   76.1641  218.5665 H   0  0  0  0  0  0  0  0  0  0  0  0
  142.7713   76.6606  220.2122 H   0  0  0  0  0  0  0  0  0  0  0  0
  145.2736   75.5192  220.8291 H   0  0  0  0  0  0  0  0  0  0  0  0
  146.4944   73.3736  221.2265 H   0  0  0  0  0  0  0  0  0  0  0  0
  145.3625   71.2597  220.4575 H   0  0  0  0  0  0  0  0  0  0  0  0
  143.1788   71.3188  219.3748 H   0  0  0  0  0  0  0  0  0  0  0  0
  141.7663   74.1218  217.7732 H   0  0  0  0  0  0  0  0  0  0  0  0
  142.2403   71.3555  218.1973 H   0  0  0  0  0  0  0  0  0  0  0  0
  140.6937   69.5226  217.7008 H   0  0  0  0  0  0  0  0  0  0  0  0
  138.2280   69.8679  217.7881 H   0  0  0  0  0  0  0  0  0  0  0  0
  138.8816   73.9170  218.8683 H   0  0  0  0  0  0  0  0  0  0  0  0
  140.8846   71.3603  220.4987 H   0  0  0  0  0  0  0  0  0  0  0  0
  141.6746   71.8955  222.0007 H   0  0  0  0  0  0  0  0  0  0  0  0
  139.3288   69.9326  221.6878 H   0  0  0  0  0  0  0  0  0  0  0  0
  140.9595   69.6146  222.3953 H   0  0  0  0  0  0  0  0  0  0  0  0
  1  2  1  0
  2  3  1  0
  3  4  2  0
  3  5  1  0
  5  6  1  0
  6  7  2  0
  7  8  1  0
  8  9  2  0
  9 10  1  0
 10 11  2  0
  5 12  1  0
 12 13  1  0
 13 14  1  0
 14 15  1  0
 15 16  1  0
 16 17  2  0
 16 18  1  0
 18 19  1  0
 18 20  1  0
 20 21  1  0
 21 22  1  0
 22 23  2  0
 23 24  1  0
 24 25  2  0
 25 26  1  0
 26 27  2  0
 27 28  1  0
 28 29  1  0
 29 30  2  0
 30 31  1  0
 31 32  2  0
 32 33  1  0
 33 34  2  0
 15 35  1  0
 35 36  1  0
 11  6  1  0
 36 12  1  0
 28 20  1  0
 34 29  1  0
 27 22  1  0
  1 37  1  0
  1 38  1  0
  1 39  1  0
  2 40  1  0
  2 41  1  0
  7 42  1  0
  8 43  1  0
  9 44  1  0
 10 45  1  0
 11 46  1  0
 12 47  1  0
 13 48  1  0
 13 49  1  0
 14 50  1  0
 14 51  1  0
 18 52  1  1
 19 53  1  0
 19 54  1  0
 20 55  1  6
 21 56  1  0
 21 57  1  0
 23 58  1  0
 24 59  1  0
 25 60  1  0
 26 61  1  0
 28 62  1  6
 30 63  1  0
 31 64  1  0
 32 65  1  0
 34 66  1  0
 35 67  1  0
 35 68  1  0
 36 69  1  0
 36 70  1  0
M  END
>  <smiles>  (197) 
CCC(=O)N(c1ccccc1)C1CCN(C(=O)[C@H](N)C2Cc3ccccc3C2c2cccnc2)CC1

>  <score_type>  (197) 
oracle

>  <origin>  (197) 
autodockgpu

>  <m_score__min__energy>  (197) 
-8.5700000000000003

>  <m_primary>  (197) 
energy

>  <rmsd>  (197) 
7.368471876672511

>  <m_score__min__rmsd>  (197) 
7.368471876672511

>  <meeko>  (197) 
{"free_energy": -7.18, "intermolecular_energy": -9.57, "internal_energy": -3.49, "cluster_size": 37, "cluster_id": 2, "rank_in_cluster": 6}

>  <energy>  (197) 
-6.38

>  <cluster_rmsd>  (197) 
1.54

>  <cluster>  (197) 
3

$$$$

     RDKit          3D

 70 74  0  0  0  0  0  0  0  0999 V2000
  146.3990   73.2530  221.9840 C   0  0  0  0  0  0  0  0  0  0  0  0
  146.0100   74.1290  220.8450 C   0  0  0  0  0  0  0  0  0  0  0  0
  145.5170   73.4030  219.6470 C   0  0  0  0  0  0  0  0  0  0  0  0
  146.3260   73.3200  218.6780 O   0  0  0  0  0  0  0  0  0  0  0  0
  144.2180   72.8570  219.6410 N   0  0  0  0  0  0  0  0  0  0  0  0
  143.8980   71.5540  219.1670 C   0  0  0  0  0  0  0  0  0  0  0  0
  143.4770   71.3100  217.8630 C   0  0  0  0  0  0  0  0  0  0  0  0
  143.1990   69.9920  217.5350 C   0  0  0  0  0  0  0  0  0  0  0  0
  143.3240   68.9530  218.4410 C   0  0  0  0  0  0  0  0  0  0  0  0
  143.7400   69.2250  219.7180 C   0  0  0  0  0  0  0  0  0  0  0  0
  144.0310   70.5200  220.0930 C   0  0  0  0  0  0  0  0  0  0  0  0
  143.1150   73.6460  220.1650 C   0  0  0  0  0  0  0  0  0  0  0  0
  141.7610   73.1160  219.7920 C   0  0  0  0  0  0  0  0  0  0  0  0
  140.8310   74.1710  219.2220 C   0  0  0  0  0  0  0  0  0  0  0  0
  140.9100   75.2980  220.1710 N   0  0  0  0  0  0  0  0  0  0  0  0
  139.7570   75.5730  220.9140 C   0  0  0  0  0  0  0  0  0  0  0  0
  138.7410   74.8260  220.6680 O   0  0  0  0  0  0  0  0  0  0  0  0
  139.5720   76.6170  221.9430 C   0  0  2  0  0  0  0  0  0  0  0  0
  138.8160   76.0010  223.0420 N   0  0  0  0  0  0  0  0  0  0  0  0
  138.9100   77.8430  221.3990 C   0  0  1  0  0  0  0  0  0  0  0  0
  138.6890   78.7440  222.6540 C   0  0  0  0  0  0  0  0  0  0  0  0
  140.1390   79.0750  222.9380 C   0  0  0  0  0  0  0  0  0  0  0  0
  140.7990   79.3310  224.1280 C   0  0  0  0  0  0  0  0  0  0  0  0
  142.1590   79.5930  224.1940 C   0  0  0  0  0  0  0  0  0  0  0  0
  142.8290   79.5830  222.9710 C   0  0  0  0  0  0  0  0  0  0  0  0
  142.1710   79.3280  221.7860 C   0  0  0  0  0  0  0  0  0  0  0  0
  140.8300   79.0710  221.7160 C   0  0  0  0  0  0  0  0  0  0  0  0
  139.8170   78.7980  220.6680 C   0  0  1  0  0  0  0  0  0  0  0  0
  140.2910   78.4360  219.3650 C   0  0  0  0  0  0  0  0  0  0  0  0
  141.5110   78.9950  218.9310 C   0  0  0  0  0  0  0  0  0  0  0  0
  142.0310   78.7190  217.6880 C   0  0  0  0  0  0  0  0  0  0  0  0
  141.3830   77.8820  216.8080 C   0  0  0  0  0  0  0  0  0  0  0  0
  140.2190   77.3510  217.2250 N   0  0  0  0  0  0  0  0  0  0  0  0
  139.6930   77.6080  218.4390 C   0  0  0  0  0  0  0  0  0  0  0  0
  142.1700   75.9890  220.2200 C   0  0  0  0  0  0  0  0  0  0  0  0
  143.2200   75.0630  219.5870 C   0  0  0  0  0  0  0  0  0  0  0  0
  146.1728   73.7624  222.9323 H   0  0  0  0  0  0  0  0  0  0  0  0
  145.8350   72.3101  221.9307 H   0  0  0  0  0  0  0  0  0  0  0  0
  147.4767   73.0391  221.9307 H   0  0  0  0  0  0  0  0  0  0  0  0
  145.2131   74.8049  221.1886 H   0  0  0  0  0  0  0  0  0  0  0  0
  146.9220   74.6599  220.5344 H   0  0  0  0  0  0  0  0  0  0  0  0
  143.3702   72.1225  217.1292 H   0  0  0  0  0  0  0  0  0  0  0  0
  142.8652   69.7624  216.5123 H   0  0  0  0  0  0  0  0  0  0  0  0
  143.0921   67.9209  218.1394 H   0  0  0  0  0  0  0  0  0  0  0  0
  143.8422   68.4074  220.4468 H   0  0  0  0  0  0  0  0  0  0  0  0
  144.3665   70.7361  221.1180 H   0  0  0  0  0  0  0  0  0  0  0  0
  143.1983   73.6149  221.2614 H   0  0  0  0  0  0  0  0  0  0  0  0
  141.8926   72.3251  219.0389 H   0  0  0  0  0  0  0  0  0  0  0  0
  141.2958   72.7413  220.7157 H   0  0  0  0  0  0  0  0  0  0  0  0
  141.1660   74.4829  218.2218 H   0  0  0  0  0  0  0  0  0  0  0  0
  139.8027   73.7981  219.1060 H   0  0  0  0  0  0  0  0  0  0  0  0
  140.5457   76.9754  222.3083 H   0  0  0  0  0  0  0  0  0  0  0  0
  138.2090   75.2060  222.6930 H   0  0  0  0  0  0  0  0  0  0  0  0
  139.4400   75.6530  223.8090 H   0  0  0  0  0  0  0  0  0  0  0  0
  138.0807   77.4834  220.7722 H   0  0  0  0  0  0  0  0  0  0  0  0
  138.0950   79.6406  222.4232 H   0  0  0  0  0  0  0  0  0  0  0  0
  138.1284   78.2865  223.4825 H   0  0  0  0  0  0  0  0  0  0  0  0
  140.2187   79.3263  225.0625 H   0  0  0  0  0  0  0  0  0  0  0  0
  142.6737   79.7947  225.1450 H   0  0  0  0  0  0  0  0  0  0  0  0
  143.9103   79.7837  222.9509 H   0  0  0  0  0  0  0  0  0  0  0  0
  142.7530   79.3316  220.8526 H   0  0  0  0  0  0  0  0  0  0  0  0
  139.2915   79.6945  220.3072 H   0  0  0  0  0  0  0  0  0  0  0  0
  142.0609   79.6692  219.6041 H   0  0  0  0  0  0  0  0  0  0  0  0
  142.9858   79.1772  217.3905 H   0  0  0  0  0  0  0  0  0  0  0  0
  141.7961   77.6584  215.8134 H   0  0  0  0  0  0  0  0  0  0  0  0
  138.7373   77.1326  218.7047 H   0  0  0  0  0  0  0  0  0  0  0  0
  142.1064   76.9297  219.6534 H   0  0  0  0  0  0  0  0  0  0  0  0
  142.4406   76.2352  221.2574 H   0  0  0  0  0  0  0  0  0  0  0  0
  143.0566   75.0222  218.5000 H   0  0  0  0  0  0  0  0  0  0  0  0
  144.2211   75.4612  219.8087 H   0  0  0  0  0  0  0  0  0  0  0  0
  1  2  1  0
  2  3  1  0
  3  4  2  0
  3  5  1  0
  5  6  1  0
  6  7  2  0
  7  8  1  0
  8  9  2  0
  9 10  1  0
 10 11  2  0
  5 12  1  0
 12 13  1  0
 13 14  1  0
 14 15  1  0
 15 16  1  0
 16 17  2  0
 16 18  1  0
 18 19  1  0
 18 20  1  0
 20 21  1  0
 21 22  1  0
 22 23  2  0
 23 24  1  0
 24 25  2  0
 25 26  1  0
 26 27  2  0
 27 28  1  0
 28 29  1  0
 29 30  2  0
 30 31  1  0
 31 32  2  0
 32 33  1  0
 33 34  2  0
 15 35  1  0
 35 36  1  0
 11  6  1  0
 36 12  1  0
 28 20  1  0
 34 29  1  0
 27 22  1  0
  1 37  1  0
  1 38  1  0
  1 39  1  0
  2 40  1  0
  2 41  1  0
  7 42  1  0
  8 43  1  0
  9 44  1  0
 10 45  1  0
 11 46  1  0
 12 47  1  0
 13 48  1  0
 13 49  1  0
 14 50  1  0
 14 51  1  0
 18 52  1  1
 19 53  1  0
 19 54  1  0
 20 55  1  6
 21 56  1  0
 21 57  1  0
 23 58  1  0
 24 59  1  0
 25 60  1  0
 26 61  1  0
 28 62  1  6
 30 63  1  0
 31 64  1  0
 32 65  1  0
 34 66  1  0
 35 67  1  0
 35 68  1  0
 36 69  1  0
 36 70  1  0
M  END
>  <smiles>  (198) 
CCC(=O)N(c1ccccc1)C1CCN(C(=O)[C@H](N)C2Cc3ccccc3C2c2cccnc2)CC1

>  <score_type>  (198) 
oracle

>  <origin>  (198) 
autodockgpu

>  <m_score__min__energy>  (198) 
-8.5700000000000003

>  <m_primary>  (198) 
energy

>  <rmsd>  (198) 
4.370520955221763

>  <m_score__min__rmsd>  (198) 
4.370520955221763

>  <meeko>  (198) 
{"free_energy": -7.14, "intermolecular_energy": -9.53, "internal_energy": -3.48, "cluster_size": 5, "cluster_id": 3, "rank_in_cluster": 3}

>  <energy>  (198) 
-6.95

>  <cluster_rmsd>  (198) 
0.0

>  <cluster>  (198) 
4

$$$$

     RDKit          3D

 70 74  0  0  0  0  0  0  0  0999 V2000
  137.0870   68.7960  221.5980 C   0  0  0  0  0  0  0  0  0  0  0  0
  137.1450   68.8650  223.0850 C   0  0  0  0  0  0  0  0  0  0  0  0
  138.4640   68.5100  223.6680 C   0  0  0  0  0  0  0  0  0  0  0  0
  138.8380   67.3130  223.5040 O   0  0  0  0  0  0  0  0  0  0  0  0
  139.2140   69.4850  224.3550 N   0  0  0  0  0  0  0  0  0  0  0  0
  139.6730   69.3460  225.6950 C   0  0  0  0  0  0  0  0  0  0  0  0
  139.6500   68.1320  226.3770 C   0  0  0  0  0  0  0  0  0  0  0  0
  140.1280   68.1410  227.6780 C   0  0  0  0  0  0  0  0  0  0  0  0
  140.6070   69.2840  228.2920 C   0  0  0  0  0  0  0  0  0  0  0  0
  140.6160   70.4650  227.5960 C   0  0  0  0  0  0  0  0  0  0  0  0
  140.1530   70.5090  226.2970 C   0  0  0  0  0  0  0  0  0  0  0  0
  139.5720   70.7160  223.6700 C   0  0  0  0  0  0  0  0  0  0  0  0
  138.4230   71.6650  223.4910 C   0  0  0  0  0  0  0  0  0  0  0  0
  138.2790   72.1850  222.0720 C   0  0  0  0  0  0  0  0  0  0  0  0
  139.6310   72.6360  221.6950 N   0  0  0  0  0  0  0  0  0  0  0  0
  139.8060   74.0130  221.5190 C   0  0  0  0  0  0  0  0  0  0  0  0
  138.7560   74.7350  221.6810 O   0  0  0  0  0  0  0  0  0  0  0  0
  141.0500   74.7300  221.1710 C   0  0  2  0  0  0  0  0  0  0  0  0
  141.0820   75.9490  221.9890 N   0  0  0  0  0  0  0  0  0  0  0  0
  141.1540   75.0110  219.7050 C   0  0  1  0  0  0  0  0  0  0  0  0
  142.5010   75.7860  219.5620 C   0  0  0  0  0  0  0  0  0  0  0  0
  143.4410   74.6450  219.8940 C   0  0  0  0  0  0  0  0  0  0  0  0
  144.6820   74.6360  220.5060 C   0  0  0  0  0  0  0  0  0  0  0  0
  145.3920   73.4710  220.7520 C   0  0  0  0  0  0  0  0  0  0  0  0
  144.7700   72.2940  220.3390 C   0  0  0  0  0  0  0  0  0  0  0  0
  143.5330   72.3030  219.7280 C   0  0  0  0  0  0  0  0  0  0  0  0
  142.8300   73.4500  219.4820 C   0  0  0  0  0  0  0  0  0  0  0  0
  141.5470   73.8380  218.8470 C   0  0  1  0  0  0  0  0  0  0  0  0
  140.5840   72.8030  218.6130 C   0  0  0  0  0  0  0  0  0  0  0  0
  141.0650   71.5180  218.2860 C   0  0  0  0  0  0  0  0  0  0  0  0
  140.2130   70.4710  218.0260 C   0  0  0  0  0  0  0  0  0  0  0  0
  138.8460   70.6290  218.0720 C   0  0  0  0  0  0  0  0  0  0  0  0
  138.3900   71.8550  218.3830 N   0  0  0  0  0  0  0  0  0  0  0  0
  139.2080   72.8950  218.6420 C   0  0  0  0  0  0  0  0  0  0  0  0
  140.6190   71.6010  221.5480 C   0  0  0  0  0  0  0  0  0  0  0  0
  140.0820   70.3560  222.2690 C   0  0  0  0  0  0  0  0  0  0  0  0
  136.4066   67.9866  221.2948 H   0  0  0  0  0  0  0  0  0  0  0  0
  136.7182   69.7531  221.2006 H   0  0  0  0  0  0  0  0  0  0  0  0
  138.0933   68.5973  221.2006 H   0  0  0  0  0  0  0  0  0  0  0  0
  136.8998   69.8928  223.3909 H   0  0  0  0  0  0  0  0  0  0  0  0
  136.4270   68.1210  223.4605 H   0  0  0  0  0  0  0  0  0  0  0  0
  139.2715   67.2123  225.9069 H   0  0  0  0  0  0  0  0  0  0  0  0
  140.1263   67.1991  228.2462 H   0  0  0  0  0  0  0  0  0  0  0  0
  140.9766   69.2458  229.3273 H   0  0  0  0  0  0  0  0  0  0  0  0
  140.9936   71.3806  228.0747 H   0  0  0  0  0  0  0  0  0  0  0  0
  140.1624   71.4568  225.7388 H   0  0  0  0  0  0  0  0  0  0  0  0
  140.3274   71.2157  224.2943 H   0  0  0  0  0  0  0  0  0  0  0  0
  137.4947   71.1427  223.7658 H   0  0  0  0  0  0  0  0  0  0  0  0
  138.6201   72.5350  224.1347 H   0  0  0  0  0  0  0  0  0  0  0  0
  137.9362   71.3849  221.3994 H   0  0  0  0  0  0  0  0  0  0  0  0
  137.5373   72.9941  222.0005 H   0  0  0  0  0  0  0  0  0  0  0  0
  141.9291   74.1062  221.3901 H   0  0  0  0  0  0  0  0  0  0  0  0
  140.2330   76.0090  222.6220 H   0  0  0  0  0  0  0  0  0  0  0  0
  141.9540   76.0190  222.5670 H   0  0  0  0  0  0  0  0  0  0  0  0
  140.1855   75.4429  219.4128 H   0  0  0  0  0  0  0  0  0  0  0  0
  142.6548   76.1685  218.5422 H   0  0  0  0  0  0  0  0  0  0  0  0
  142.6042   76.6902  220.1799 H   0  0  0  0  0  0  0  0  0  0  0  0
  145.1248   75.5957  220.8108 H   0  0  0  0  0  0  0  0  0  0  0  0
  146.3781   73.4752  221.2394 H   0  0  0  0  0  0  0  0  0  0  0  0
  145.2787   71.3328  220.5045 H   0  0  0  0  0  0  0  0  0  0  0  0
  143.0914   71.3424  219.4244 H   0  0  0  0  0  0  0  0  0  0  0  0
  141.6338   74.0992  217.7820 H   0  0  0  0  0  0  0  0  0  0  0  0
  142.1509   71.3492  218.2377 H   0  0  0  0  0  0  0  0  0  0  0  0
  140.6325   69.4854  217.7757 H   0  0  0  0  0  0  0  0  0  0  0  0
  138.1610   69.7937  217.8646 H   0  0  0  0  0  0  0  0  0  0  0  0
  138.7549   73.8664  218.8890 H   0  0  0  0  0  0  0  0  0  0  0  0
  140.7780   71.3802  220.4822 H   0  0  0  0  0  0  0  0  0  0  0  0
  141.5818   71.9160  221.9767 H   0  0  0  0  0  0  0  0  0  0  0  0
  139.2551   69.9284  221.6830 H   0  0  0  0  0  0  0  0  0  0  0  0
  140.8987   69.6258  222.3678 H   0  0  0  0  0  0  0  0  0  0  0  0
  1  2  1  0
  2  3  1  0
  3  4  2  0
  3  5  1  0
  5  6  1  0
  6  7  2  0
  7  8  1  0
  8  9  2  0
  9 10  1  0
 10 11  2  0
  5 12  1  0
 12 13  1  0
 13 14  1  0
 14 15  1  0
 15 16  1  0
 16 17  2  0
 16 18  1  0
 18 19  1  0
 18 20  1  0
 20 21  1  0
 21 22  1  0
 22 23  2  0
 23 24  1  0
 24 25  2  0
 25 26  1  0
 26 27  2  0
 27 28  1  0
 28 29  1  0
 29 30  2  0
 30 31  1  0
 31 32  2  0
 32 33  1  0
 33 34  2  0
 15 35  1  0
 35 36  1  0
 11  6  1  0
 36 12  1  0
 28 20  1  0
 34 29  1  0
 27 22  1  0
  1 37  1  0
  1 38  1  0
  1 39  1  0
  2 40  1  0
  2 41  1  0
  7 42  1  0
  8 43  1  0
  9 44  1  0
 10 45  1  0
 11 46  1  0
 12 47  1  0
 13 48  1  0
 13 49  1  0
 14 50  1  0
 14 51  1  0
 18 52  1  1
 19 53  1  0
 19 54  1  0
 20 55  1  6
 21 56  1  0
 21 57  1  0
 23 58  1  0
 24 59  1  0
 25 60  1  0
 26 61  1  0
 28 62  1  6
 30 63  1  0
 31 64  1  0
 32 65  1  0
 34 66  1  0
 35 67  1  0
 35 68  1  0
 36 69  1  0
 36 70  1  0
M  END
>  <smiles>  (199) 
CCC(=O)N(c1ccccc1)C1CCN(C(=O)[C@H](N)C2Cc3ccccc3C2c2cccnc2)CC1

>  <score_type>  (199) 
oracle

>  <origin>  (199) 
autodockgpu

>  <m_score__min__energy>  (199) 
-8.5700000000000003

>  <m_primary>  (199) 
energy

>  <rmsd>  (199) 
7.334118912143402

>  <m_score__min__rmsd>  (199) 
7.334118912143402

>  <meeko>  (199) 
{"free_energy": -7.15, "intermolecular_energy": -9.54, "internal_energy": -3.52, "cluster_size": 37, "cluster_id": 2, "rank_in_cluster": 11}

>  <energy>  (199) 
-6.9

>  <cluster_rmsd>  (199) 
0.0

>  <cluster>  (199) 
5

$$$$

     RDKit          3D

 70 74  0  0  0  0  0  0  0  0999 V2000
  137.6010   68.4250  221.3740 C   0  0  0  0  0  0  0  0  0  0  0  0
  137.5210   68.8270  222.8060 C   0  0  0  0  0  0  0  0  0  0  0  0
  138.7200   68.4850  223.6120 C   0  0  0  0  0  0  0  0  0  0  0  0
  139.0750   67.2710  223.5880 O   0  0  0  0  0  0  0  0  0  0  0  0
  139.3860   69.4900  224.3420 N   0  0  0  0  0  0  0  0  0  0  0  0
  139.7690   69.3660  225.7070 C   0  0  0  0  0  0  0  0  0  0  0  0
  139.5720   68.2010  226.4430 C   0  0  0  0  0  0  0  0  0  0  0  0
  139.9940   68.2200  227.7630 C   0  0  0  0  0  0  0  0  0  0  0  0
  140.5830   69.3290  228.3450 C   0  0  0  0  0  0  0  0  0  0  0  0
  140.7630   70.4620  227.5950 C   0  0  0  0  0  0  0  0  0  0  0  0
  140.3620   70.4930  226.2760 C   0  0  0  0  0  0  0  0  0  0  0  0
  139.7320   70.7360  223.6790 C   0  0  0  0  0  0  0  0  0  0  0  0
  138.5730   71.6770  223.5170 C   0  0  0  0  0  0  0  0  0  0  0  0
  138.4240   72.2200  222.1080 C   0  0  0  0  0  0  0  0  0  0  0  0
  139.7720   72.6920  221.7400 N   0  0  0  0  0  0  0  0  0  0  0  0
  139.9330   74.0730  221.5880 C   0  0  0  0  0  0  0  0  0  0  0  0
  138.8750   74.7820  221.7630 O   0  0  0  0  0  0  0  0  0  0  0  0
  141.1700   74.8090  221.2540 C   0  0  2  0  0  0  0  0  0  0  0  0
  141.2080   75.9940  222.1210 N   0  0  0  0  0  0  0  0  0  0  0  0
  141.2540   75.1510  219.8000 C   0  0  1  0  0  0  0  0  0  0  0  0
  142.6200   75.8920  219.6620 C   0  0  0  0  0  0  0  0  0  0  0  0
  143.5310   74.7110  219.9250 C   0  0  0  0  0  0  0  0  0  0  0  0
  144.7840   74.6390  220.5100 C   0  0  0  0  0  0  0  0  0  0  0  0
  145.4630   73.4440  220.6910 C   0  0  0  0  0  0  0  0  0  0  0  0
  144.7980   72.3050  220.2410 C   0  0  0  0  0  0  0  0  0  0  0  0
  143.5510   72.3770  219.6570 C   0  0  0  0  0  0  0  0  0  0  0  0
  142.8770   73.5530  219.4760 C   0  0  0  0  0  0  0  0  0  0  0  0
  141.5950   74.0050  218.8840 C   0  0  1  0  0  0  0  0  0  0  0  0
  140.5960   73.0100  218.6260 C   0  0  0  0  0  0  0  0  0  0  0  0
  139.2490   73.4250  218.5880 C   0  0  0  0  0  0  0  0  0  0  0  0
  138.2240   72.5350  218.3680 C   0  0  0  0  0  0  0  0  0  0  0  0
  138.4670   71.1940  218.1730 C   0  0  0  0  0  0  0  0  0  0  0  0
  139.7520   70.8010  218.2100 N   0  0  0  0  0  0  0  0  0  0  0  0
  140.7720   71.6570  218.4240 C   0  0  0  0  0  0  0  0  0  0  0  0
  140.7710   71.6700  221.5740 C   0  0  0  0  0  0  0  0  0  0  0  0
  140.2460   70.4060  222.2720 C   0  0  0  0  0  0  0  0  0  0  0  0
  137.8153   67.3482  221.3069 H   0  0  0  0  0  0  0  0  0  0  0  0
  136.6425   68.6397  220.8788 H   0  0  0  0  0  0  0  0  0  0  0  0
  138.4043   68.9903  220.8788 H   0  0  0  0  0  0  0  0  0  0  0  0
  137.3782   69.9169  222.8489 H   0  0  0  0  0  0  0  0  0  0  0  0
  136.6820   68.2644  223.2413 H   0  0  0  0  0  0  0  0  0  0  0  0
  139.1047   67.3097  225.9990 H   0  0  0  0  0  0  0  0  0  0  0  0
  139.8550   67.3157  228.3737 H   0  0  0  0  0  0  0  0  0  0  0  0
  140.9029   69.3014  229.3971 H   0  0  0  0  0  0  0  0  0  0  0  0
  141.2291   71.3499  228.0470 H   0  0  0  0  0  0  0  0  0  0  0  0
  140.5091   71.4026  225.6752 H   0  0  0  0  0  0  0  0  0  0  0  0
  140.4826   71.2320  224.3119 H   0  0  0  0  0  0  0  0  0  0  0  0
  137.6499   71.1408  223.7825 H   0  0  0  0  0  0  0  0  0  0  0  0
  138.7613   72.5373  224.1761 H   0  0  0  0  0  0  0  0  0  0  0  0
  138.0900   71.4283  221.4212 H   0  0  0  0  0  0  0  0  0  0  0  0
  137.6736   73.0223  222.0500 H   0  0  0  0  0  0  0  0  0  0  0  0
  142.0539   74.1801  221.4361 H   0  0  0  0  0  0  0  0  0  0  0  0
  141.8370   76.7460  221.7170 H   0  0  0  0  0  0  0  0  0  0  0  0
  140.2540   76.3930  222.2940 H   0  0  0  0  0  0  0  0  0  0  0  0
  140.2934   75.6236  219.5471 H   0  0  0  0  0  0  0  0  0  0  0  0
  142.7650   76.3137  218.6565 H   0  0  0  0  0  0  0  0  0  0  0  0
  142.7625   76.7653  220.3155 H   0  0  0  0  0  0  0  0  0  0  0  0
  145.2617   75.5712  220.8459 H   0  0  0  0  0  0  0  0  0  0  0  0
  146.4581   73.3980  221.1576 H   0  0  0  0  0  0  0  0  0  0  0  0
  145.2804   71.3230  220.3546 H   0  0  0  0  0  0  0  0  0  0  0  0
  143.0756   71.4438  219.3206 H   0  0  0  0  0  0  0  0  0  0  0  0
  141.6698   74.3085  217.8294 H   0  0  0  0  0  0  0  0  0  0  0  0
  139.0118   74.4886  218.7383 H   0  0  0  0  0  0  0  0  0  0  0  0
  137.1874   72.9025  218.3474 H   0  0  0  0  0  0  0  0  0  0  0  0
  137.6498   70.4793  217.9957 H   0  0  0  0  0  0  0  0  0  0  0  0
  141.7961   71.2558  218.4381 H   0  0  0  0  0  0  0  0  0  0  0  0
  140.9325   71.4707  220.5043 H   0  0  0  0  0  0  0  0  0  0  0  0
  141.7306   71.9868  222.0086 H   0  0  0  0  0  0  0  0  0  0  0  0
  139.4237   69.9808  221.6779 H   0  0  0  0  0  0  0  0  0  0  0  0
  141.0697   69.6820  222.3577 H   0  0  0  0  0  0  0  0  0  0  0  0
  1  2  1  0
  2  3  1  0
  3  4  2  0
  3  5  1  0
  5  6  1  0
  6  7  2  0
  7  8  1  0
  8  9  2  0
  9 10  1  0
 10 11  2  0
  5 12  1  0
 12 13  1  0
 13 14  1  0
 14 15  1  0
 15 16  1  0
 16 17  2  0
 16 18  1  0
 18 19  1  0
 18 20  1  0
 20 21  1  0
 21 22  1  0
 22 23  2  0
 23 24  1  0
 24 25  2  0
 25 26  1  0
 26 27  2  0
 27 28  1  0
 28 29  1  0
 29 30  2  0
 30 31  1  0
 31 32  2  0
 32 33  1  0
 33 34  2  0
 15 35  1  0
 35 36  1  0
 11  6  1  0
 36 12  1  0
 28 20  1  0
 34 29  1  0
 27 22  1  0
  1 37  1  0
  1 38  1  0
  1 39  1  0
  2 40  1  0
  2 41  1  0
  7 42  1  0
  8 43  1  0
  9 44  1  0
 10 45  1  0
 11 46  1  0
 12 47  1  0
 13 48  1  0
 13 49  1  0
 14 50  1  0
 14 51  1  0
 18 52  1  1
 19 53  1  0
 19 54  1  0
 20 55  1  6
 21 56  1  0
 21 57  1  0
 23 58  1  0
 24 59  1  0
 25 60  1  0
 26 61  1  0
 28 62  1  6
 30 63  1  0
 31 64  1  0
 32 65  1  0
 34 66  1  0
 35 67  1  0
 35 68  1  0
 36 69  1  0
 36 70  1  0
M  END
>  <smiles>  (200) 
CCC(=O)N(c1ccccc1)C1CCN(C(=O)[C@H](N)C2Cc3ccccc3C2c2cccnc2)CC1

>  <score_type>  (200) 
oracle

>  <origin>  (200) 
autodockgpu

>  <m_score__min__energy>  (200) 
-8.5700000000000003

>  <m_primary>  (200) 
energy

>  <rmsd>  (200) 
7.306361160887445

>  <m_score__min__rmsd>  (200) 
7.306361160887445

>  <meeko>  (200) 
{"free_energy": -7.08, "intermolecular_energy": -9.46, "internal_energy": -3.59, "cluster_size": 37, "cluster_id": 2, "rank_in_cluster": 19}

>  <energy>  (200) 
-6.1

>  <cluster_rmsd>  (200) 
0.0

>  <cluster>  (200) 
6

$$$$
