
     RDKit          3D

 46 48  0  0  0  0  0  0  0  0999 V2000
  142.2340   81.2020  223.7780 C   0  0  0  0  0  0  0  0  0  0  0  0
  141.3620   80.9520  222.6730 N   0  0  0  0  0  0  0  0  0  0  0  0
  140.0340   80.6100  223.0070 C   0  0  0  0  0  0  0  0  0  0  0  0
  139.6180   79.1940  222.7860 C   0  0  0  0  0  0  0  0  0  0  0  0
  140.0970   78.7570  221.4350 C   0  0  0  0  0  0  0  0  0  0  0  0
  139.5700   77.4960  221.0080 N   0  0  0  0  0  0  0  0  0  0  0  0
  139.8560   76.2890  221.6940 C   0  0  0  0  0  0  0  0  0  0  0  0
  140.6160   76.3960  222.7150 O   0  0  0  0  0  0  0  0  0  0  0  0
  139.3660   74.9610  221.3380 C   0  0  0  0  0  0  0  0  0  0  0  0
  139.4950   73.9390  222.3240 N   0  0  0  0  0  0  0  0  0  0  0  0
  139.5270   72.5470  222.0060 C   0  0  0  0  0  0  0  0  0  0  0  0
  139.4320   72.1330  220.8010 O   0  0  0  0  0  0  0  0  0  0  0  0
  139.6700   71.5500  223.0910 C   0  0  0  0  0  0  0  0  0  0  0  0
  139.2460   70.2550  222.8810 C   0  0  0  0  0  0  0  0  0  0  0  0
  139.3810   69.3090  223.9050 C   0  0  0  0  0  0  0  0  0  0  0  0
  139.9440   69.7050  225.1220 C   0  0  0  0  0  0  0  0  0  0  0  0
  140.0920   68.7920  226.1620 C   0  0  0  0  0  0  0  0  0  0  0  0
  140.6600   69.2630  227.3340 C   0  0  0  0  0  0  0  0  0  0  0  0
  140.8850   68.1830  228.6970 Cl  0  0  0  0  0  0  0  0  0  0  0  0
  141.0670   70.5720  227.4930 C   0  0  0  0  0  0  0  0  0  0  0  0
  140.9200   71.4860  226.4540 C   0  0  0  0  0  0  0  0  0  0  0  0
  140.3540   71.0150  225.2870 C   0  0  0  0  0  0  0  0  0  0  0  0
  140.2080   71.8930  224.2770 N   0  0  0  0  0  0  0  0  0  0  0  0
  141.6100   78.8230  221.4690 C   0  0  0  0  0  0  0  0  0  0  0  0
  141.9390   80.2960  221.5500 C   0  0  0  0  0  0  0  0  0  0  0  0
  141.6871   81.0452  224.7194 H   0  0  0  0  0  0  0  0  0  0  0  0
  143.0904   80.5132  223.7324 H   0  0  0  0  0  0  0  0  0  0  0  0
  142.5954   82.2399  223.7324 H   0  0  0  0  0  0  0  0  0  0  0  0
  139.8934   80.8333  224.0749 H   0  0  0  0  0  0  0  0  0  0  0  0
  139.4083   81.1996  222.3208 H   0  0  0  0  0  0  0  0  0  0  0  0
  140.0622   78.5525  223.5614 H   0  0  0  0  0  0  0  0  0  0  0  0
  138.5223   79.1130  222.8391 H   0  0  0  0  0  0  0  0  0  0  0  0
  139.7110   79.4339  220.6586 H   0  0  0  0  0  0  0  0  0  0  0  0
  138.9670   77.4800  220.1590 H   0  0  0  0  0  0  0  0  0  0  0  0
  138.2973   75.0554  221.0953 H   0  0  0  0  0  0  0  0  0  0  0  0
  140.0033   74.6351  220.5028 H   0  0  0  0  0  0  0  0  0  0  0  0
  139.5770   74.1600  223.3640 H   0  0  0  0  0  0  0  0  0  0  0  0
  138.8046   69.9667  221.9156 H   0  0  0  0  0  0  0  0  0  0  0  0
  139.0494   68.2711  223.7542 H   0  0  0  0  0  0  0  0  0  0  0  0
  139.7725   67.7446  226.0579 H   0  0  0  0  0  0  0  0  0  0  0  0
  141.5102   70.8948  228.4466 H   0  0  0  0  0  0  0  0  0  0  0  0
  141.2396   72.5334  226.5580 H   0  0  0  0  0  0  0  0  0  0  0  0
  141.9999   78.2914  222.3495 H   0  0  0  0  0  0  0  0  0  0  0  0
  142.0629   78.3478  220.5863 H   0  0  0  0  0  0  0  0  0  0  0  0
  143.0320   80.4046  221.6087 H   0  0  0  0  0  0  0  0  0  0  0  0
  141.5168   80.7686  220.6509 H   0  0  0  0  0  0  0  0  0  0  0  0
  1  2  1  0
  2  3  1  0
  3  4  1  0
  4  5  1  0
  5  6  1  0
  6  7  1  0
  7  8  2  0
  7  9  1  0
  9 10  1  0
 10 11  1  0
 11 12  2  0
 11 13  1  0
 13 14  2  0
 14 15  1  0
 15 16  2  0
 16 17  1  0
 17 18  2  0
 18 19  1  0
 18 20  1  0
 20 21  2  0
 21 22  1  0
 22 23  2  0
  5 24  1  0
 24 25  1  0
 25  2  1  0
 23 13  1  0
 22 16  1  0
  1 26  1  0
  1 27  1  0
  1 28  1  0
  3 29  1  0
  3 30  1  0
  4 31  1  0
  4 32  1  0
  5 33  1  0
  6 34  1  0
  9 35  1  0
  9 36  1  0
 10 37  1  0
 14 38  1  0
 15 39  1  0
 17 40  1  0
 20 41  1  0
 21 42  1  0
 24 43  1  0
 24 44  1  0
 25 45  1  0
 25 46  1  0
M  END
>  <smiles>  (1) 
CN1CCC(NC(=O)CNC(=O)c2ccc3cc(Cl)ccc3n2)CC1

>  <score_type>  (1) 
oracle

>  <origin>  (1) 
autodockgpu

>  <m_score__min__energy>  (1) 
-8.3900000000000006

>  <m_primary>  (1) 
energy

>  <rmsd>  (1) 
2.9498874530910513

>  <m_score__min__rmsd>  (1) 
2.9498874530910513

>  <meeko>  (1) 
{"free_energy": -7.81, "intermolecular_energy": -9.0, "internal_energy": -1.19, "cluster_size": 46, "cluster_id": 1, "rank_in_cluster": 31}

>  <energy>  (1) 
-8.39

>  <cluster_rmsd>  (1) 
0.0

>  <cluster>  (1) 
1

$$$$

     RDKit          3D

 46 48  0  0  0  0  0  0  0  0999 V2000
  143.1220   80.4210  222.8980 C   0  0  0  0  0  0  0  0  0  0  0  0
  141.8400   79.9300  222.4960 N   0  0  0  0  0  0  0  0  0  0  0  0
  141.1840   79.0980  223.4290 C   0  0  0  0  0  0  0  0  0  0  0  0
  141.0940   77.6450  223.1020 C   0  0  0  0  0  0  0  0  0  0  0  0
  140.6730   77.4990  221.6710 C   0  0  0  0  0  0  0  0  0  0  0  0
  140.3310   76.1600  221.2960 N   0  0  0  0  0  0  0  0  0  0  0  0
  138.9860   75.7400  221.1460 C   0  0  0  0  0  0  0  0  0  0  0  0
  138.0980   76.6290  221.3700 O   0  0  0  0  0  0  0  0  0  0  0  0
  138.5410   74.4030  220.7660 C   0  0  0  0  0  0  0  0  0  0  0  0
  138.6670   73.3780  221.7490 N   0  0  0  0  0  0  0  0  0  0  0  0
  139.9160   73.0150  222.3420 C   0  0  0  0  0  0  0  0  0  0  0  0
  141.0060   73.5950  222.0150 O   0  0  0  0  0  0  0  0  0  0  0  0
  139.9580   71.9420  223.3610 C   0  0  0  0  0  0  0  0  0  0  0  0
  139.4860   70.6860  223.0410 C   0  0  0  0  0  0  0  0  0  0  0  0
  139.5260   69.6680  224.0020 C   0  0  0  0  0  0  0  0  0  0  0  0
  140.0430   69.9530  225.2690 C   0  0  0  0  0  0  0  0  0  0  0  0
  140.0970   68.9660  226.2490 C   0  0  0  0  0  0  0  0  0  0  0  0
  140.6250   69.3290  227.4760 C   0  0  0  0  0  0  0  0  0  0  0  0
  140.7320   68.1500  228.7700 Cl  0  0  0  0  0  0  0  0  0  0  0  0
  141.0840   70.6020  227.7450 C   0  0  0  0  0  0  0  0  0  0  0  0
  141.0310   71.5900  226.7670 C   0  0  0  0  0  0  0  0  0  0  0  0
  140.5040   71.2270  225.5450 C   0  0  0  0  0  0  0  0  0  0  0  0
  140.4510   72.1770  224.5920 N   0  0  0  0  0  0  0  0  0  0  0  0
  141.7700   78.1220  220.8320 C   0  0  0  0  0  0  0  0  0  0  0  0
  141.6930   79.6040  221.1190 C   0  0  0  0  0  0  0  0  0  0  0  0
  143.1784   80.4426  223.9963 H   0  0  0  0  0  0  0  0  0  0  0  0
  143.9079   79.7602  222.5034 H   0  0  0  0  0  0  0  0  0  0  0  0
  143.2655   81.4377  222.5034 H   0  0  0  0  0  0  0  0  0  0  0  0
  141.7179   79.1892  224.3864 H   0  0  0  0  0  0  0  0  0  0  0  0
  140.1423   79.4511  223.4403 H   0  0  0  0  0  0  0  0  0  0  0  0
  142.0757   77.1711  223.2491 H   0  0  0  0  0  0  0  0  0  0  0  0
  140.3594   77.1578  223.7601 H   0  0  0  0  0  0  0  0  0  0  0  0
  139.7238   78.0274  221.4986 H   0  0  0  0  0  0  0  0  0  0  0  0
  141.1070   75.4830  221.1400 H   0  0  0  0  0  0  0  0  0  0  0  0
  137.4779   74.4719  220.4920 H   0  0  0  0  0  0  0  0  0  0  0  0
  139.2104   74.0996  219.9476 H   0  0  0  0  0  0  0  0  0  0  0  0
  137.8300   72.8200  222.0990 H   0  0  0  0  0  0  0  0  0  0  0  0
  139.0810   70.4854  222.0381 H   0  0  0  0  0  0  0  0  0  0  0  0
  139.1563   68.6598  223.7634 H   0  0  0  0  0  0  0  0  0  0  0  0
  139.7367   67.9445  226.0572 H   0  0  0  0  0  0  0  0  0  0  0  0
  141.4941   70.8370  228.7383 H   0  0  0  0  0  0  0  0  0  0  0  0
  141.3919   72.6112  226.9589 H   0  0  0  0  0  0  0  0  0  0  0  0
  142.7527   77.7229  221.1235 H   0  0  0  0  0  0  0  0  0  0  0  0
  141.6444   77.9028  219.7614 H   0  0  0  0  0  0  0  0  0  0  0  0
  142.4920   80.1084  220.5559 H   0  0  0  0  0  0  0  0  0  0  0  0
  140.6896   79.9376  220.8159 H   0  0  0  0  0  0  0  0  0  0  0  0
  1  2  1  0
  2  3  1  0
  3  4  1  0
  4  5  1  0
  5  6  1  0
  6  7  1  0
  7  8  2  0
  7  9  1  0
  9 10  1  0
 10 11  1  0
 11 12  2  0
 11 13  1  0
 13 14  2  0
 14 15  1  0
 15 16  2  0
 16 17  1  0
 17 18  2  0
 18 19  1  0
 18 20  1  0
 20 21  2  0
 21 22  1  0
 22 23  2  0
  5 24  1  0
 24 25  1  0
 25  2  1  0
 23 13  1  0
 22 16  1  0
  1 26  1  0
  1 27  1  0
  1 28  1  0
  3 29  1  0
  3 30  1  0
  4 31  1  0
  4 32  1  0
  5 33  1  0
  6 34  1  0
  9 35  1  0
  9 36  1  0
 10 37  1  0
 14 38  1  0
 15 39  1  0
 17 40  1  0
 20 41  1  0
 21 42  1  0
 24 43  1  0
 24 44  1  0
 25 45  1  0
 25 46  1  0
M  END
>  <smiles>  (2) 
CN1CCC(NC(=O)CNC(=O)c2ccc3cc(Cl)ccc3n2)CC1

>  <score_type>  (2) 
oracle

>  <origin>  (2) 
autodockgpu

>  <m_score__min__energy>  (2) 
-8.3900000000000006

>  <m_primary>  (2) 
energy

>  <rmsd>  (2) 
2.884941176997621

>  <m_score__min__rmsd>  (2) 
2.884941176997621

>  <meeko>  (2) 
{"free_energy": -7.56, "intermolecular_energy": -8.75, "internal_energy": -1.47, "cluster_size": 46, "cluster_id": 1, "rank_in_cluster": 43}

>  <energy>  (2) 
-8.37

>  <cluster_rmsd>  (2) 
0.03

>  <cluster>  (2) 
1

$$$$

     RDKit          3D

 46 48  0  0  0  0  0  0  0  0999 V2000
  140.8330   82.0280  222.3370 C   0  0  0  0  0  0  0  0  0  0  0  0
  141.5940   80.8590  222.6520 N   0  0  0  0  0  0  0  0  0  0  0  0
  142.2360   80.2360  221.5600 C   0  0  0  0  0  0  0  0  0  0  0  0
  141.6820   78.9290  221.0980 C   0  0  0  0  0  0  0  0  0  0  0  0
  141.4200   78.0680  222.2960 C   0  0  0  0  0  0  0  0  0  0  0  0
  141.1000   76.7080  221.9800 N   0  0  0  0  0  0  0  0  0  0  0  0
  139.8740   76.3450  221.3680 C   0  0  0  0  0  0  0  0  0  0  0  0
  139.0710   77.3060  221.1200 O   0  0  0  0  0  0  0  0  0  0  0  0
  139.4620   74.9930  221.0060 C   0  0  0  0  0  0  0  0  0  0  0  0
  139.5190   74.0050  222.0330 N   0  0  0  0  0  0  0  0  0  0  0  0
  139.9380   72.6590  221.8000 C   0  0  0  0  0  0  0  0  0  0  0  0
  140.2840   72.2590  220.6370 O   0  0  0  0  0  0  0  0  0  0  0  0
  139.9740   71.6970  222.9240 C   0  0  0  0  0  0  0  0  0  0  0  0
  139.5020   70.4160  222.7340 C   0  0  0  0  0  0  0  0  0  0  0  0
  139.5360   69.5030  223.7950 C   0  0  0  0  0  0  0  0  0  0  0  0
  140.0480   69.9160  225.0280 C   0  0  0  0  0  0  0  0  0  0  0  0
  140.0960   69.0360  226.1050 C   0  0  0  0  0  0  0  0  0  0  0  0
  140.6200   69.5230  227.2910 C   0  0  0  0  0  0  0  0  0  0  0  0
  140.7190   68.4840  228.7000 Cl  0  0  0  0  0  0  0  0  0  0  0  0
  141.0800   70.8170  227.4280 C   0  0  0  0  0  0  0  0  0  0  0  0
  141.0330   71.6990  226.3530 C   0  0  0  0  0  0  0  0  0  0  0  0
  140.5100   71.2120  225.1720 C   0  0  0  0  0  0  0  0  0  0  0  0
  140.4620   72.0580  224.1260 N   0  0  0  0  0  0  0  0  0  0  0  0
  140.3690   78.7800  223.1210 C   0  0  0  0  0  0  0  0  0  0  0  0
  141.0590   80.0120  223.6620 C   0  0  0  0  0  0  0  0  0  0  0  0
  140.5132   82.5192  223.2679 H   0  0  0  0  0  0  0  0  0  0  0  0
  141.4529   82.7220  221.7504 H   0  0  0  0  0  0  0  0  0  0  0  0
  139.9475   81.7420  221.7504 H   0  0  0  0  0  0  0  0  0  0  0  0
  142.1933   80.9326  220.7097 H   0  0  0  0  0  0  0  0  0  0  0  0
  143.2484   80.0029  221.9216 H   0  0  0  0  0  0  0  0  0  0  0  0
  140.7428   79.0977  220.5509 H   0  0  0  0  0  0  0  0  0  0  0  0
  142.4008   78.4325  220.4295 H   0  0  0  0  0  0  0  0  0  0  0  0
  142.3412   77.9496  222.8854 H   0  0  0  0  0  0  0  0  0  0  0  0
  141.7970   75.9730  222.2200 H   0  0  0  0  0  0  0  0  0  0  0  0
  138.4216   75.0458  220.6529 H   0  0  0  0  0  0  0  0  0  0  0  0
  140.1902   74.6637  220.2502 H   0  0  0  0  0  0  0  0  0  0  0  0
  139.2500   74.2180  223.0420 H   0  0  0  0  0  0  0  0  0  0  0  0
  139.1013   70.1130  221.7554 H   0  0  0  0  0  0  0  0  0  0  0  0
  139.1653   68.4762  223.6601 H   0  0  0  0  0  0  0  0  0  0  0  0
  139.7342   68.0008  226.0183 H   0  0  0  0  0  0  0  0  0  0  0  0
  141.4864   71.1532  228.3933 H   0  0  0  0  0  0  0  0  0  0  0  0
  141.3950   72.7341  226.4400 H   0  0  0  0  0  0  0  0  0  0  0  0
  139.5113   79.0625  222.4929 H   0  0  0  0  0  0  0  0  0  0  0  0
  139.9754   78.1418  223.9258 H   0  0  0  0  0  0  0  0  0  0  0  0
  140.3290   80.5893  224.2484 H   0  0  0  0  0  0  0  0  0  0  0  0
  141.9063   79.6640  224.2711 H   0  0  0  0  0  0  0  0  0  0  0  0
  1  2  1  0
  2  3  1  0
  3  4  1  0
  4  5  1  0
  5  6  1  0
  6  7  1  0
  7  8  2  0
  7  9  1  0
  9 10  1  0
 10 11  1  0
 11 12  2  0
 11 13  1  0
 13 14  2  0
 14 15  1  0
 15 16  2  0
 16 17  1  0
 17 18  2  0
 18 19  1  0
 18 20  1  0
 20 21  2  0
 21 22  1  0
 22 23  2  0
  5 24  1  0
 24 25  1  0
 25  2  1  0
 23 13  1  0
 22 16  1  0
  1 26  1  0
  1 27  1  0
  1 28  1  0
  3 29  1  0
  3 30  1  0
  4 31  1  0
  4 32  1  0
  5 33  1  0
  6 34  1  0
  9 35  1  0
  9 36  1  0
 10 37  1  0
 14 38  1  0
 15 39  1  0
 17 40  1  0
 20 41  1  0
 21 42  1  0
 24 43  1  0
 24 44  1  0
 25 45  1  0
 25 46  1  0
M  END
>  <smiles>  (3) 
CN1CCC(NC(=O)CNC(=O)c2ccc3cc(Cl)ccc3n2)CC1

>  <score_type>  (3) 
oracle

>  <origin>  (3) 
autodockgpu

>  <m_score__min__energy>  (3) 
-8.3900000000000006

>  <m_primary>  (3) 
energy

>  <rmsd>  (3) 
2.4352743946746975

>  <m_score__min__rmsd>  (3) 
2.4352743946746975

>  <meeko>  (3) 
{"free_energy": -8.31, "intermolecular_energy": -9.5, "internal_energy": -0.84, "cluster_size": 46, "cluster_id": 1, "rank_in_cluster": 7}

>  <energy>  (3) 
-8.36

>  <cluster_rmsd>  (3) 
0.7

>  <cluster>  (3) 
1

$$$$

     RDKit          3D

 46 48  0  0  0  0  0  0  0  0999 V2000
  143.4940   80.5020  223.0780 C   0  0  0  0  0  0  0  0  0  0  0  0
  142.1580   80.0510  222.8410 N   0  0  0  0  0  0  0  0  0  0  0  0
  141.6150   79.2030  223.8300 C   0  0  0  0  0  0  0  0  0  0  0  0
  141.4440   77.7640  223.4750 C   0  0  0  0  0  0  0  0  0  0  0  0
  140.8280   77.6750  222.1120 C   0  0  0  0  0  0  0  0  0  0  0  0
  140.4040   76.3560  221.7470 N   0  0  0  0  0  0  0  0  0  0  0  0
  139.0370   76.0240  221.5790 C   0  0  0  0  0  0  0  0  0  0  0  0
  138.2050   76.9730  221.7780 O   0  0  0  0  0  0  0  0  0  0  0  0
  138.5100   74.7140  221.2080 C   0  0  0  0  0  0  0  0  0  0  0  0
  138.6690   73.6620  222.1580 N   0  0  0  0  0  0  0  0  0  0  0  0
  139.9330   73.0680  222.4600 C   0  0  0  0  0  0  0  0  0  0  0  0
  141.0070   73.4480  221.8830 O   0  0  0  0  0  0  0  0  0  0  0  0
  140.0100   71.9840  223.4650 C   0  0  0  0  0  0  0  0  0  0  0  0
  139.6020   70.7120  223.1220 C   0  0  0  0  0  0  0  0  0  0  0  0
  139.6750   69.6840  224.0690 C   0  0  0  0  0  0  0  0  0  0  0  0
  140.1610   69.9740  225.3470 C   0  0  0  0  0  0  0  0  0  0  0  0
  140.2470   68.9770  226.3150 C   0  0  0  0  0  0  0  0  0  0  0  0
  140.7400   69.3470  227.5550 C   0  0  0  0  0  0  0  0  0  0  0  0
  140.8830   68.1550  228.8340 Cl  0  0  0  0  0  0  0  0  0  0  0  0
  141.1350   70.6360  227.8470 C   0  0  0  0  0  0  0  0  0  0  0  0
  141.0500   71.6340  226.8820 C   0  0  0  0  0  0  0  0  0  0  0  0
  140.5580   71.2650  225.6470 C   0  0  0  0  0  0  0  0  0  0  0  0
  140.4740   72.2240  224.7060 N   0  0  0  0  0  0  0  0  0  0  0  0
  141.8150   78.3020  221.1490 C   0  0  0  0  0  0  0  0  0  0  0  0
  141.8150   79.7750  221.4880 C   0  0  0  0  0  0  0  0  0  0  0  0
  143.6737   80.5627  224.1615 H   0  0  0  0  0  0  0  0  0  0  0  0
  144.2053   79.7942  222.6274 H   0  0  0  0  0  0  0  0  0  0  0  0
  143.6308   81.4961  222.6274 H   0  0  0  0  0  0  0  0  0  0  0  0
  142.2771   79.2511  224.7071 H   0  0  0  0  0  0  0  0  0  0  0  0
  140.5941   79.5776  223.9954 H   0  0  0  0  0  0  0  0  0  0  0  0
  142.4241   77.2647  223.4715 H   0  0  0  0  0  0  0  0  0  0  0  0
  140.7941   77.2708  224.2128 H   0  0  0  0  0  0  0  0  0  0  0  0
  139.8781   78.2292  222.0882 H   0  0  0  0  0  0  0  0  0  0  0  0
  141.1360   75.6270  221.6120 H   0  0  0  0  0  0  0  0  0  0  0  0
  137.4327   74.8306  221.0185 H   0  0  0  0  0  0  0  0  0  0  0  0
  139.1020   74.4035  220.3344 H   0  0  0  0  0  0  0  0  0  0  0  0
  137.8460   73.2570  222.7000 H   0  0  0  0  0  0  0  0  0  0  0  0
  139.2216   70.5067  222.1105 H   0  0  0  0  0  0  0  0  0  0  0  0
  139.3548   68.6636  223.8115 H   0  0  0  0  0  0  0  0  0  0  0  0
  139.9375   67.9427  226.1044 H   0  0  0  0  0  0  0  0  0  0  0  0
  141.5196   70.8761  228.8492 H   0  0  0  0  0  0  0  0  0  0  0  0
  141.3602   72.6680  227.0933 H   0  0  0  0  0  0  0  0  0  0  0  0
  142.8181   77.8732  221.2905 H   0  0  0  0  0  0  0  0  0  0  0  0
  141.5388   78.1207  220.0998 H   0  0  0  0  0  0  0  0  0  0  0  0
  142.5414   80.2814  220.8354 H   0  0  0  0  0  0  0  0  0  0  0  0
  140.7884   80.1396  221.3361 H   0  0  0  0  0  0  0  0  0  0  0  0
  1  2  1  0
  2  3  1  0
  3  4  1  0
  4  5  1  0
  5  6  1  0
  6  7  1  0
  7  8  2  0
  7  9  1  0
  9 10  1  0
 10 11  1  0
 11 12  2  0
 11 13  1  0
 13 14  2  0
 14 15  1  0
 15 16  2  0
 16 17  1  0
 17 18  2  0
 18 19  1  0
 18 20  1  0
 20 21  2  0
 21 22  1  0
 22 23  2  0
  5 24  1  0
 24 25  1  0
 25  2  1  0
 23 13  1  0
 22 16  1  0
  1 26  1  0
  1 27  1  0
  1 28  1  0
  3 29  1  0
  3 30  1  0
  4 31  1  0
  4 32  1  0
  5 33  1  0
  6 34  1  0
  9 35  1  0
  9 36  1  0
 10 37  1  0
 14 38  1  0
 15 39  1  0
 17 40  1  0
 20 41  1  0
 21 42  1  0
 24 43  1  0
 24 44  1  0
 25 45  1  0
 25 46  1  0
M  END
>  <smiles>  (4) 
CN1CCC(NC(=O)CNC(=O)c2ccc3cc(Cl)ccc3n2)CC1

>  <score_type>  (4) 
oracle

>  <origin>  (4) 
autodockgpu

>  <m_score__min__energy>  (4) 
-8.3900000000000006

>  <m_primary>  (4) 
energy

>  <rmsd>  (4) 
3.0695924314994683

>  <m_score__min__rmsd>  (4) 
3.0695924314994683

>  <meeko>  (4) 
{"free_energy": -7.8, "intermolecular_energy": -9.0, "internal_energy": -1.46, "cluster_size": 46, "cluster_id": 1, "rank_in_cluster": 32}

>  <energy>  (4) 
-8.32

>  <cluster_rmsd>  (4) 
0.64

>  <cluster>  (4) 
1

$$$$

     RDKit          3D

 46 48  0  0  0  0  0  0  0  0999 V2000
  140.7870   82.0050  222.3480 C   0  0  0  0  0  0  0  0  0  0  0  0
  141.5700   80.8450  222.6440 N   0  0  0  0  0  0  0  0  0  0  0  0
  142.1930   80.2300  221.5370 C   0  0  0  0  0  0  0  0  0  0  0  0
  141.6460   78.9170  221.0890 C   0  0  0  0  0  0  0  0  0  0  0  0
  141.4250   78.0520  222.2930 C   0  0  0  0  0  0  0  0  0  0  0  0
  141.1150   76.6880  221.9840 N   0  0  0  0  0  0  0  0  0  0  0  0
  139.8810   76.3100  221.3970 C   0  0  0  0  0  0  0  0  0  0  0  0
  139.0610   77.2610  221.1650 O   0  0  0  0  0  0  0  0  0  0  0  0
  139.4780   74.9520  221.0460 C   0  0  0  0  0  0  0  0  0  0  0  0
  139.5550   73.9690  222.0760 N   0  0  0  0  0  0  0  0  0  0  0  0
  139.6900   72.5710  221.8130 C   0  0  0  0  0  0  0  0  0  0  0  0
  139.7450   72.1170  220.6200 O   0  0  0  0  0  0  0  0  0  0  0  0
  139.7700   71.6180  222.9430 C   0  0  0  0  0  0  0  0  0  0  0  0
  139.2850   70.3370  222.7810 C   0  0  0  0  0  0  0  0  0  0  0  0
  139.3590   69.4310  223.8470 C   0  0  0  0  0  0  0  0  0  0  0  0
  139.9230   69.8510  225.0550 C   0  0  0  0  0  0  0  0  0  0  0  0
  140.0120   68.9790  226.1360 C   0  0  0  0  0  0  0  0  0  0  0  0
  140.5850   69.4730  227.2950 C   0  0  0  0  0  0  0  0  0  0  0  0
  140.7380   68.4440  228.7070 Cl  0  0  0  0  0  0  0  0  0  0  0  0
  141.0540   70.7660  227.4040 C   0  0  0  0  0  0  0  0  0  0  0  0
  140.9670   71.6400  226.3250 C   0  0  0  0  0  0  0  0  0  0  0  0
  140.3950   71.1470  225.1710 C   0  0  0  0  0  0  0  0  0  0  0  0
  140.3070   71.9850  224.1210 N   0  0  0  0  0  0  0  0  0  0  0  0
  140.3840   78.7510  223.1440 C   0  0  0  0  0  0  0  0  0  0  0  0
  141.0720   79.9920  223.6670 C   0  0  0  0  0  0  0  0  0  0  0  0
  140.4662   82.4802  223.2868 H   0  0  0  0  0  0  0  0  0  0  0  0
  141.3908   82.7159  221.7648 H   0  0  0  0  0  0  0  0  0  0  0  0
  139.9019   81.7109  221.7648 H   0  0  0  0  0  0  0  0  0  0  0  0
  142.1204   80.9256  220.6880 H   0  0  0  0  0  0  0  0  0  0  0  0
  143.2167   80.0102  221.8741 H   0  0  0  0  0  0  0  0  0  0  0  0
  140.6914   79.0731  220.5652 H   0  0  0  0  0  0  0  0  0  0  0  0
  142.3549   78.4302  220.4030 H   0  0  0  0  0  0  0  0  0  0  0  0
  142.3617   77.9452  222.8598 H   0  0  0  0  0  0  0  0  0  0  0  0
  141.8250   75.9620  222.2110 H   0  0  0  0  0  0  0  0  0  0  0  0
  138.4334   74.9935  220.7038 H   0  0  0  0  0  0  0  0  0  0  0  0
  140.2018   74.6262  220.2844 H   0  0  0  0  0  0  0  0  0  0  0  0
  139.5150   74.2250  223.1100 H   0  0  0  0  0  0  0  0  0  0  0  0
  138.8433   70.0290  221.8218 H   0  0  0  0  0  0  0  0  0  0  0  0
  138.9790   68.4048  223.7351 H   0  0  0  0  0  0  0  0  0  0  0  0
  139.6437   67.9444  226.0722 H   0  0  0  0  0  0  0  0  0  0  0  0
  141.4995   71.1079  228.3499 H   0  0  0  0  0  0  0  0  0  0  0  0
  141.3365   72.6741  226.3892 H   0  0  0  0  0  0  0  0  0  0  0  0
  139.5075   79.0220  222.5371 H   0  0  0  0  0  0  0  0  0  0  0  0
  140.0179   78.1084  223.9582 H   0  0  0  0  0  0  0  0  0  0  0  0
  140.3500   80.5603  224.2718 H   0  0  0  0  0  0  0  0  0  0  0  0
  141.9390   79.6550  224.2542 H   0  0  0  0  0  0  0  0  0  0  0  0
  1  2  1  0
  2  3  1  0
  3  4  1  0
  4  5  1  0
  5  6  1  0
  6  7  1  0
  7  8  2  0
  7  9  1  0
  9 10  1  0
 10 11  1  0
 11 12  2  0
 11 13  1  0
 13 14  2  0
 14 15  1  0
 15 16  2  0
 16 17  1  0
 17 18  2  0
 18 19  1  0
 18 20  1  0
 20 21  2  0
 21 22  1  0
 22 23  2  0
  5 24  1  0
 24 25  1  0
 25  2  1  0
 23 13  1  0
 22 16  1  0
  1 26  1  0
  1 27  1  0
  1 28  1  0
  3 29  1  0
  3 30  1  0
  4 31  1  0
  4 32  1  0
  5 33  1  0
  6 34  1  0
  9 35  1  0
  9 36  1  0
 10 37  1  0
 14 38  1  0
 15 39  1  0
 17 40  1  0
 20 41  1  0
 21 42  1  0
 24 43  1  0
 24 44  1  0
 25 45  1  0
 25 46  1  0
M  END
>  <smiles>  (5) 
CN1CCC(NC(=O)CNC(=O)c2ccc3cc(Cl)ccc3n2)CC1

>  <score_type>  (5) 
oracle

>  <origin>  (5) 
autodockgpu

>  <m_score__min__energy>  (5) 
-8.3900000000000006

>  <m_primary>  (5) 
energy

>  <rmsd>  (5) 
2.3916561572924784

>  <m_score__min__rmsd>  (5) 
2.3916561572924784

>  <meeko>  (5) 
{"free_energy": -8.28, "intermolecular_energy": -9.48, "internal_energy": -0.9, "cluster_size": 46, "cluster_id": 1, "rank_in_cluster": 10}

>  <energy>  (5) 
-8.31

>  <cluster_rmsd>  (5) 
0.74

>  <cluster>  (5) 
1

$$$$

     RDKit          3D

 46 48  0  0  0  0  0  0  0  0999 V2000
  140.8190   81.9740  222.3720 C   0  0  0  0  0  0  0  0  0  0  0  0
  141.6360   80.8120  222.5420 N   0  0  0  0  0  0  0  0  0  0  0  0
  142.1030   80.2150  221.3500 C   0  0  0  0  0  0  0  0  0  0  0  0
  141.5000   78.9070  220.9610 C   0  0  0  0  0  0  0  0  0  0  0  0
  141.4450   78.0240  222.1710 C   0  0  0  0  0  0  0  0  0  0  0  0
  141.0960   76.6640  221.8860 N   0  0  0  0  0  0  0  0  0  0  0  0
  139.8090   76.2990  221.4190 C   0  0  0  0  0  0  0  0  0  0  0  0
  138.9780   77.2570  221.2710 O   0  0  0  0  0  0  0  0  0  0  0  0
  139.3630   74.9460  221.1000 C   0  0  0  0  0  0  0  0  0  0  0  0
  139.5040   73.9630  222.1240 N   0  0  0  0  0  0  0  0  0  0  0  0
  139.6040   72.5630  221.8540 C   0  0  0  0  0  0  0  0  0  0  0  0
  139.5650   72.1080  220.6610 O   0  0  0  0  0  0  0  0  0  0  0  0
  139.7550   71.6090  222.9760 C   0  0  0  0  0  0  0  0  0  0  0  0
  139.3820   70.2940  222.8000 C   0  0  0  0  0  0  0  0  0  0  0  0
  139.5240   69.3880  223.8590 C   0  0  0  0  0  0  0  0  0  0  0  0
  140.0420   69.8430  225.0740 C   0  0  0  0  0  0  0  0  0  0  0  0
  140.1960   68.9720  226.1490 C   0  0  0  0  0  0  0  0  0  0  0  0
  140.7180   69.5020  227.3170 C   0  0  0  0  0  0  0  0  0  0  0  0
  140.9470   68.4770  228.7210 Cl  0  0  0  0  0  0  0  0  0  0  0  0
  141.0760   70.8290  227.4400 C   0  0  0  0  0  0  0  0  0  0  0  0
  140.9220   71.7020  226.3680 C   0  0  0  0  0  0  0  0  0  0  0  0
  140.4020   71.1730  225.2050 C   0  0  0  0  0  0  0  0  0  0  0  0
  140.2510   72.0100  224.1610 N   0  0  0  0  0  0  0  0  0  0  0  0
  140.5300   78.7080  223.1660 C   0  0  0  0  0  0  0  0  0  0  0  0
  141.2820   79.9420  223.6100 C   0  0  0  0  0  0  0  0  0  0  0  0
  140.5387   82.3726  223.3582 H   0  0  0  0  0  0  0  0  0  0  0  0
  141.3798   82.7380  221.8135 H   0  0  0  0  0  0  0  0  0  0  0  0
  139.9103   81.7048  221.8135 H   0  0  0  0  0  0  0  0  0  0  0  0
  141.9150   80.9231  220.5295 H   0  0  0  0  0  0  0  0  0  0  0  0
  143.1634   79.9929  221.5406 H   0  0  0  0  0  0  0  0  0  0  0  0
  140.4830   79.0687  220.5743 H   0  0  0  0  0  0  0  0  0  0  0  0
  142.1090   78.4318  220.1778 H   0  0  0  0  0  0  0  0  0  0  0  0
  142.4499   77.9108  222.6040 H   0  0  0  0  0  0  0  0  0  0  0  0
  141.8190   75.9310  222.0410 H   0  0  0  0  0  0  0  0  0  0  0  0
  138.2965   75.0009  220.8363 H   0  0  0  0  0  0  0  0  0  0  0  0
  140.0230   74.6102  220.2866 H   0  0  0  0  0  0  0  0  0  0  0  0
  139.5440   74.2200  223.1580 H   0  0  0  0  0  0  0  0  0  0  0  0
  138.9756   69.9581  221.8346 H   0  0  0  0  0  0  0  0  0  0  0  0
  139.2321   68.3346  223.7357 H   0  0  0  0  0  0  0  0  0  0  0  0
  139.9158   67.9109  226.0740 H   0  0  0  0  0  0  0  0  0  0  0  0
  141.4857   71.1987  228.3916 H   0  0  0  0  0  0  0  0  0  0  0  0
  141.2015   72.7632  226.4440 H   0  0  0  0  0  0  0  0  0  0  0  0
  139.5792   78.9864  222.6880 H   0  0  0  0  0  0  0  0  0  0  0  0
  140.2784   78.0522  224.0125 H   0  0  0  0  0  0  0  0  0  0  0  0
  140.6487   80.4991  224.3161 H   0  0  0  0  0  0  0  0  0  0  0  0
  142.2208   79.5982  224.0687 H   0  0  0  0  0  0  0  0  0  0  0  0
  1  2  1  0
  2  3  1  0
  3  4  1  0
  4  5  1  0
  5  6  1  0
  6  7  1  0
  7  8  2  0
  7  9  1  0
  9 10  1  0
 10 11  1  0
 11 12  2  0
 11 13  1  0
 13 14  2  0
 14 15  1  0
 15 16  2  0
 16 17  1  0
 17 18  2  0
 18 19  1  0
 18 20  1  0
 20 21  2  0
 21 22  1  0
 22 23  2  0
  5 24  1  0
 24 25  1  0
 25  2  1  0
 23 13  1  0
 22 16  1  0
  1 26  1  0
  1 27  1  0
  1 28  1  0
  3 29  1  0
  3 30  1  0
  4 31  1  0
  4 32  1  0
  5 33  1  0
  6 34  1  0
  9 35  1  0
  9 36  1  0
 10 37  1  0
 14 38  1  0
 15 39  1  0
 17 40  1  0
 20 41  1  0
 21 42  1  0
 24 43  1  0
 24 44  1  0
 25 45  1  0
 25 46  1  0
M  END
>  <smiles>  (6) 
CN1CCC(NC(=O)CNC(=O)c2ccc3cc(Cl)ccc3n2)CC1

>  <score_type>  (6) 
oracle

>  <origin>  (6) 
autodockgpu

>  <m_score__min__energy>  (6) 
-8.3900000000000006

>  <m_primary>  (6) 
energy

>  <rmsd>  (6) 
2.323839739919156

>  <m_score__min__rmsd>  (6) 
2.323839739919156

>  <meeko>  (6) 
{"free_energy": -8.2, "intermolecular_energy": -9.4, "internal_energy": -0.96, "cluster_size": 46, "cluster_id": 1, "rank_in_cluster": 20}

>  <energy>  (6) 
-8.31

>  <cluster_rmsd>  (6) 
0.67

>  <cluster>  (6) 
1

$$$$

     RDKit          3D

 46 48  0  0  0  0  0  0  0  0999 V2000
  142.3790   81.6010  224.2180 C   0  0  0  0  0  0  0  0  0  0  0  0
  142.1890   80.8260  223.0310 N   0  0  0  0  0  0  0  0  0  0  0  0
  140.9710   81.0420  222.3500 C   0  0  0  0  0  0  0  0  0  0  0  0
  139.9510   79.9550  222.4140 C   0  0  0  0  0  0  0  0  0  0  0  0
  140.6310   78.6430  222.1610 C   0  0  0  0  0  0  0  0  0  0  0  0
  139.7310   77.5450  221.9720 N   0  0  0  0  0  0  0  0  0  0  0  0
  140.1480   76.3200  221.3950 C   0  0  0  0  0  0  0  0  0  0  0  0
  141.3760   76.2570  221.0510 O   0  0  0  0  0  0  0  0  0  0  0  0
  139.3080   75.1490  221.1650 C   0  0  0  0  0  0  0  0  0  0  0  0
  139.3460   74.1230  222.1550 N   0  0  0  0  0  0  0  0  0  0  0  0
  140.0670   72.9010  221.9860 C   0  0  0  0  0  0  0  0  0  0  0  0
  140.7230   72.6530  220.9180 O   0  0  0  0  0  0  0  0  0  0  0  0
  140.0590   71.8900  223.0680 C   0  0  0  0  0  0  0  0  0  0  0  0
  139.5540   70.6320  222.8150 C   0  0  0  0  0  0  0  0  0  0  0  0
  139.5460   69.6730  223.8350 C   0  0  0  0  0  0  0  0  0  0  0  0
  140.0510   70.0180  225.0920 C   0  0  0  0  0  0  0  0  0  0  0  0
  140.0580   69.0900  226.1300 C   0  0  0  0  0  0  0  0  0  0  0  0
  140.5760   69.5110  227.3440 C   0  0  0  0  0  0  0  0  0  0  0  0
  140.6250   68.4090  228.7070 Cl  0  0  0  0  0  0  0  0  0  0  0  0
  141.0690   70.7840  227.5440 C   0  0  0  0  0  0  0  0  0  0  0  0
  141.0630   71.7120  226.5080 C   0  0  0  0  0  0  0  0  0  0  0  0
  140.5460   71.2920  225.3000 C   0  0  0  0  0  0  0  0  0  0  0  0
  140.5380   72.1850  224.2910 N   0  0  0  0  0  0  0  0  0  0  0  0
  141.6260   78.4470  223.2860 C   0  0  0  0  0  0  0  0  0  0  0  0
  142.6910   79.4950  223.0580 C   0  0  0  0  0  0  0  0  0  0  0  0
  142.2228   80.9637  225.1009 H   0  0  0  0  0  0  0  0  0  0  0  0
  143.4025   82.0038  224.2330 H   0  0  0  0  0  0  0  0  0  0  0  0
  141.6579   82.4315  224.2330 H   0  0  0  0  0  0  0  0  0  0  0  0
  140.5136   81.9499  222.7702 H   0  0  0  0  0  0  0  0  0  0  0  0
  141.2484   81.1078  221.2876 H   0  0  0  0  0  0  0  0  0  0  0  0
  139.4837   79.9439  223.4098 H   0  0  0  0  0  0  0  0  0  0  0  0
  139.1724   80.1262  221.6560 H   0  0  0  0  0  0  0  0  0  0  0  0
  141.1574   78.6689  221.1955 H   0  0  0  0  0  0  0  0  0  0  0  0
  138.7390   77.6700  222.2640 H   0  0  0  0  0  0  0  0  0  0  0  0
  138.2674   75.4968  221.0866 H   0  0  0  0  0  0  0  0  0  0  0  0
  139.7096   74.6827  220.2533 H   0  0  0  0  0  0  0  0  0  0  0  0
  138.8340   74.2120  223.0850 H   0  0  0  0  0  0  0  0  0  0  0  0
  139.1601   70.3836  221.8184 H   0  0  0  0  0  0  0  0  0  0  0  0
  139.1487   68.6641  223.6502 H   0  0  0  0  0  0  0  0  0  0  0  0
  139.6702   68.0698  225.9925 H   0  0  0  0  0  0  0  0  0  0  0  0
  141.4692   71.0667  228.5288 H   0  0  0  0  0  0  0  0  0  0  0  0
  141.4518   72.7318  226.6453 H   0  0  0  0  0  0  0  0  0  0  0  0
  141.1401   78.5963  224.2615 H   0  0  0  0  0  0  0  0  0  0  0  0
  142.0443   77.4296  223.2932 H   0  0  0  0  0  0  0  0  0  0  0  0
  143.4311   79.4196  223.8683 H   0  0  0  0  0  0  0  0  0  0  0  0
  143.1291   79.2972  222.0686 H   0  0  0  0  0  0  0  0  0  0  0  0
  1  2  1  0
  2  3  1  0
  3  4  1  0
  4  5  1  0
  5  6  1  0
  6  7  1  0
  7  8  2  0
  7  9  1  0
  9 10  1  0
 10 11  1  0
 11 12  2  0
 11 13  1  0
 13 14  2  0
 14 15  1  0
 15 16  2  0
 16 17  1  0
 17 18  2  0
 18 19  1  0
 18 20  1  0
 20 21  2  0
 21 22  1  0
 22 23  2  0
  5 24  1  0
 24 25  1  0
 25  2  1  0
 23 13  1  0
 22 16  1  0
  1 26  1  0
  1 27  1  0
  1 28  1  0
  3 29  1  0
  3 30  1  0
  4 31  1  0
  4 32  1  0
  5 33  1  0
  6 34  1  0
  9 35  1  0
  9 36  1  0
 10 37  1  0
 14 38  1  0
 15 39  1  0
 17 40  1  0
 20 41  1  0
 21 42  1  0
 24 43  1  0
 24 44  1  0
 25 45  1  0
 25 46  1  0
M  END
>  <smiles>  (7) 
CN1CCC(NC(=O)CNC(=O)c2ccc3cc(Cl)ccc3n2)CC1

>  <score_type>  (7) 
oracle

>  <origin>  (7) 
autodockgpu

>  <m_score__min__energy>  (7) 
-8.3900000000000006

>  <m_primary>  (7) 
energy

>  <rmsd>  (7) 
2.982592144030105

>  <m_score__min__rmsd>  (7) 
2.982592144030105

>  <meeko>  (7) 
{"free_energy": -8.19, "intermolecular_energy": -9.38, "internal_energy": -0.8, "cluster_size": 46, "cluster_id": 1, "rank_in_cluster": 22}

>  <energy>  (7) 
-8.31

>  <cluster_rmsd>  (7) 
0.67

>  <cluster>  (7) 
1

$$$$

     RDKit          3D

 46 48  0  0  0  0  0  0  0  0999 V2000
  141.4390   81.3150  222.7680 C   0  0  0  0  0  0  0  0  0  0  0  0
  142.0680   80.1060  222.3370 N   0  0  0  0  0  0  0  0  0  0  0  0
  141.8380   79.7430  220.9930 C   0  0  0  0  0  0  0  0  0  0  0  0
  140.9460   78.5720  220.7450 C   0  0  0  0  0  0  0  0  0  0  0  0
  141.3380   77.4650  221.6760 C   0  0  0  0  0  0  0  0  0  0  0  0
  140.7100   76.2100  221.3870 N   0  0  0  0  0  0  0  0  0  0  0  0
  139.3030   76.0420  221.4360 C   0  0  0  0  0  0  0  0  0  0  0  0
  138.6300   77.0790  221.7560 O   0  0  0  0  0  0  0  0  0  0  0  0
  138.5750   74.8090  221.1570 C   0  0  0  0  0  0  0  0  0  0  0  0
  138.7070   73.7530  222.1070 N   0  0  0  0  0  0  0  0  0  0  0  0
  139.9280   73.0430  222.3210 C   0  0  0  0  0  0  0  0  0  0  0  0
  140.9860   73.3160  221.6580 O   0  0  0  0  0  0  0  0  0  0  0  0
  139.9810   71.9640  223.3330 C   0  0  0  0  0  0  0  0  0  0  0  0
  139.5380   70.7020  222.9990 C   0  0  0  0  0  0  0  0  0  0  0  0
  139.5880   69.6780  223.9520 C   0  0  0  0  0  0  0  0  0  0  0  0
  140.0850   69.9630  225.2270 C   0  0  0  0  0  0  0  0  0  0  0  0
  140.1470   68.9700  226.2010 C   0  0  0  0  0  0  0  0  0  0  0  0
  140.6540   69.3350  227.4370 C   0  0  0  0  0  0  0  0  0  0  0  0
  140.7700   68.1480  228.7230 Cl  0  0  0  0  0  0  0  0  0  0  0  0
  141.0840   70.6150  227.7200 C   0  0  0  0  0  0  0  0  0  0  0  0
  141.0220   71.6090  226.7480 C   0  0  0  0  0  0  0  0  0  0  0  0
  140.5170   71.2450  225.5170 C   0  0  0  0  0  0  0  0  0  0  0  0
  140.4540   72.2000  224.5710 N   0  0  0  0  0  0  0  0  0  0  0  0
  141.0970   77.9740  223.0820 C   0  0  0  0  0  0  0  0  0  0  0  0
  142.1340   79.0540  223.2930 C   0  0  0  0  0  0  0  0  0  0  0  0
  141.4220   81.3477  223.8674 H   0  0  0  0  0  0  0  0  0  0  0  0
  142.0022   82.1784  222.3842 H   0  0  0  0  0  0  0  0  0  0  0  0
  140.4087   81.3493  222.3842 H   0  0  0  0  0  0  0  0  0  0  0  0
  141.3914   80.6119  220.4875 H   0  0  0  0  0  0  0  0  0  0  0  0
  142.8223   79.4353  220.6103 H   0  0  0  0  0  0  0  0  0  0  0  0
  139.8999   78.8578  220.9292 H   0  0  0  0  0  0  0  0  0  0  0  0
  141.0464   78.2381  219.7017 H   0  0  0  0  0  0  0  0  0  0  0  0
  142.4021   77.2187  221.5455 H   0  0  0  0  0  0  0  0  0  0  0  0
  141.3200   75.4020  221.1440 H   0  0  0  0  0  0  0  0  0  0  0  0
  137.5068   75.0621  221.0877 H   0  0  0  0  0  0  0  0  0  0  0  0
  139.0183   74.4176  220.2295 H   0  0  0  0  0  0  0  0  0  0  0  0
  137.8940   73.4320  222.7160 H   0  0  0  0  0  0  0  0  0  0  0  0
  139.1478   70.5011  221.9903 H   0  0  0  0  0  0  0  0  0  0  0  0
  139.2415   68.6645  223.7014 H   0  0  0  0  0  0  0  0  0  0  0  0
  139.8089   67.9431  225.9982 H   0  0  0  0  0  0  0  0  0  0  0  0
  141.4780   70.8512  228.7195 H   0  0  0  0  0  0  0  0  0  0  0  0
  141.3596   72.6359  226.9516 H   0  0  0  0  0  0  0  0  0  0  0  0
  140.0826   78.3894  223.1738 H   0  0  0  0  0  0  0  0  0  0  0  0
  141.1790   77.1720  223.8304 H   0  0  0  0  0  0  0  0  0  0  0  0
  141.9874   79.4852  224.2943 H   0  0  0  0  0  0  0  0  0  0  0  0
  143.1198   78.5791  223.1803 H   0  0  0  0  0  0  0  0  0  0  0  0
  1  2  1  0
  2  3  1  0
  3  4  1  0
  4  5  1  0
  5  6  1  0
  6  7  1  0
  7  8  2  0
  7  9  1  0
  9 10  1  0
 10 11  1  0
 11 12  2  0
 11 13  1  0
 13 14  2  0
 14 15  1  0
 15 16  2  0
 16 17  1  0
 17 18  2  0
 18 19  1  0
 18 20  1  0
 20 21  2  0
 21 22  1  0
 22 23  2  0
  5 24  1  0
 24 25  1  0
 25  2  1  0
 23 13  1  0
 22 16  1  0
  1 26  1  0
  1 27  1  0
  1 28  1  0
  3 29  1  0
  3 30  1  0
  4 31  1  0
  4 32  1  0
  5 33  1  0
  6 34  1  0
  9 35  1  0
  9 36  1  0
 10 37  1  0
 14 38  1  0
 15 39  1  0
 17 40  1  0
 20 41  1  0
 21 42  1  0
 24 43  1  0
 24 44  1  0
 25 45  1  0
 25 46  1  0
M  END
>  <smiles>  (8) 
CN1CCC(NC(=O)CNC(=O)c2ccc3cc(Cl)ccc3n2)CC1

>  <score_type>  (8) 
oracle

>  <origin>  (8) 
autodockgpu

>  <m_score__min__energy>  (8) 
-8.3900000000000006

>  <m_primary>  (8) 
energy

>  <rmsd>  (8) 
2.1760973717832006

>  <m_score__min__rmsd>  (8) 
2.1760973717832006

>  <meeko>  (8) 
{"free_energy": -7.82, "intermolecular_energy": -9.01, "internal_energy": -1.46, "cluster_size": 46, "cluster_id": 1, "rank_in_cluster": 28}

>  <energy>  (8) 
-8.3

>  <cluster_rmsd>  (8) 
0.69

>  <cluster>  (8) 
1

$$$$

     RDKit          3D

 46 48  0  0  0  0  0  0  0  0999 V2000
  140.8280   82.0200  222.3120 C   0  0  0  0  0  0  0  0  0  0  0  0
  141.6240   80.8560  222.5490 N   0  0  0  0  0  0  0  0  0  0  0  0
  142.1680   80.2440  221.3990 C   0  0  0  0  0  0  0  0  0  0  0  0
  141.5850   78.9340  220.9840 C   0  0  0  0  0  0  0  0  0  0  0  0
  141.4430   78.0650  222.1960 C   0  0  0  0  0  0  0  0  0  0  0  0
  141.1060   76.7040  221.9030 N   0  0  0  0  0  0  0  0  0  0  0  0
  139.8370   76.3350  221.3910 C   0  0  0  0  0  0  0  0  0  0  0  0
  139.0100   77.2910  221.2110 O   0  0  0  0  0  0  0  0  0  0  0  0
  139.4050   74.9810  221.0610 C   0  0  0  0  0  0  0  0  0  0  0  0
  139.5310   73.9960  222.0850 N   0  0  0  0  0  0  0  0  0  0  0  0
  139.6460   72.5980  221.8130 C   0  0  0  0  0  0  0  0  0  0  0  0
  139.6350   72.1450  220.6190 O   0  0  0  0  0  0  0  0  0  0  0  0
  139.7790   71.6420  222.9360 C   0  0  0  0  0  0  0  0  0  0  0  0
  139.3820   70.3330  222.7610 C   0  0  0  0  0  0  0  0  0  0  0  0
  139.5070   69.4260  223.8200 C   0  0  0  0  0  0  0  0  0  0  0  0
  140.0340   69.8720  225.0350 C   0  0  0  0  0  0  0  0  0  0  0  0
  140.1720   68.9980  226.1100 C   0  0  0  0  0  0  0  0  0  0  0  0
  140.7040   69.5190  227.2770 C   0  0  0  0  0  0  0  0  0  0  0  0
  140.9140   68.4910  228.6820 Cl  0  0  0  0  0  0  0  0  0  0  0  0
  141.0860   70.8400  227.4000 C   0  0  0  0  0  0  0  0  0  0  0  0
  140.9490   71.7150  226.3270 C   0  0  0  0  0  0  0  0  0  0  0  0
  140.4190   71.1940  225.1640 C   0  0  0  0  0  0  0  0  0  0  0  0
  140.2830   72.0340  224.1210 N   0  0  0  0  0  0  0  0  0  0  0  0
  140.4660   78.7640  223.1190 C   0  0  0  0  0  0  0  0  0  0  0  0
  141.1930   79.9990  223.6000 C   0  0  0  0  0  0  0  0  0  0  0  0
  140.5269   82.4604  223.2740 H   0  0  0  0  0  0  0  0  0  0  0  0
  141.4138   82.7545  221.7398 H   0  0  0  0  0  0  0  0  0  0  0  0
  139.9310   81.7405  221.7398 H   0  0  0  0  0  0  0  0  0  0  0  0
  142.0406   80.9438  220.5599 H   0  0  0  0  0  0  0  0  0  0  0  0
  143.2117   80.0192  221.6638 H   0  0  0  0  0  0  0  0  0  0  0  0
  140.5975   79.0965  220.5275 H   0  0  0  0  0  0  0  0  0  0  0  0
  142.2432   78.4472  220.2493 H   0  0  0  0  0  0  0  0  0  0  0  0
  142.4158   77.9519  222.6968 H   0  0  0  0  0  0  0  0  0  0  0  0
  141.8250   75.9730  222.0850 H   0  0  0  0  0  0  0  0  0  0  0  0
  138.3436   75.0308  220.7766 H   0  0  0  0  0  0  0  0  0  0  0  0
  140.0831   74.6507  220.2603 H   0  0  0  0  0  0  0  0  0  0  0  0
  139.5470   74.2500  223.1190 H   0  0  0  0  0  0  0  0  0  0  0  0
  138.9699   70.0037  221.7957 H   0  0  0  0  0  0  0  0  0  0  0  0
  139.1952   68.3783  223.6976 H   0  0  0  0  0  0  0  0  0  0  0  0
  139.8721   67.9423  226.0354 H   0  0  0  0  0  0  0  0  0  0  0  0
  141.5011   71.2028  228.3519 H   0  0  0  0  0  0  0  0  0  0  0  0
  141.2486   72.7708  226.4019 H   0  0  0  0  0  0  0  0  0  0  0  0
  139.5515   79.0418  222.5744 H   0  0  0  0  0  0  0  0  0  0  0  0
  140.1535   78.1187  223.9532 H   0  0  0  0  0  0  0  0  0  0  0  0
  140.5163   80.5669  224.2555 H   0  0  0  0  0  0  0  0  0  0  0  0
  142.0965   79.6555  224.1250 H   0  0  0  0  0  0  0  0  0  0  0  0
  1  2  1  0
  2  3  1  0
  3  4  1  0
  4  5  1  0
  5  6  1  0
  6  7  1  0
  7  8  2  0
  7  9  1  0
  9 10  1  0
 10 11  1  0
 11 12  2  0
 11 13  1  0
 13 14  2  0
 14 15  1  0
 15 16  2  0
 16 17  1  0
 17 18  2  0
 18 19  1  0
 18 20  1  0
 20 21  2  0
 21 22  1  0
 22 23  2  0
  5 24  1  0
 24 25  1  0
 25  2  1  0
 23 13  1  0
 22 16  1  0
  1 26  1  0
  1 27  1  0
  1 28  1  0
  3 29  1  0
  3 30  1  0
  4 31  1  0
  4 32  1  0
  5 33  1  0
  6 34  1  0
  9 35  1  0
  9 36  1  0
 10 37  1  0
 14 38  1  0
 15 39  1  0
 17 40  1  0
 20 41  1  0
 21 42  1  0
 24 43  1  0
 24 44  1  0
 25 45  1  0
 25 46  1  0
M  END
>  <smiles>  (9) 
CN1CCC(NC(=O)CNC(=O)c2ccc3cc(Cl)ccc3n2)CC1

>  <score_type>  (9) 
oracle

>  <origin>  (9) 
autodockgpu

>  <m_score__min__energy>  (9) 
-8.3900000000000006

>  <m_primary>  (9) 
energy

>  <rmsd>  (9) 
2.3632952835748924

>  <m_score__min__rmsd>  (9) 
2.3632952835748924

>  <meeko>  (9) 
{"free_energy": -8.23, "intermolecular_energy": -9.43, "internal_energy": -0.94, "cluster_size": 46, "cluster_id": 1, "rank_in_cluster": 19}

>  <energy>  (9) 
-8.29

>  <cluster_rmsd>  (9) 
0.68

>  <cluster>  (9) 
1

$$$$

     RDKit          3D

 46 48  0  0  0  0  0  0  0  0999 V2000
  140.7680   82.0310  222.3520 C   0  0  0  0  0  0  0  0  0  0  0  0
  141.5350   80.8700  222.6830 N   0  0  0  0  0  0  0  0  0  0  0  0
  142.1920   80.2430  221.6020 C   0  0  0  0  0  0  0  0  0  0  0  0
  141.6530   78.9280  221.1460 C   0  0  0  0  0  0  0  0  0  0  0  0
  141.3870   78.0740  222.3490 C   0  0  0  0  0  0  0  0  0  0  0  0
  141.0800   76.7100  222.0410 N   0  0  0  0  0  0  0  0  0  0  0  0
  139.8590   76.3320  221.4300 C   0  0  0  0  0  0  0  0  0  0  0  0
  139.0460   77.2830  221.1750 O   0  0  0  0  0  0  0  0  0  0  0  0
  139.4600   74.9730  221.0760 C   0  0  0  0  0  0  0  0  0  0  0  0
  139.5460   73.9870  222.1040 N   0  0  0  0  0  0  0  0  0  0  0  0
  139.6760   72.5900  221.8360 C   0  0  0  0  0  0  0  0  0  0  0  0
  139.7170   72.1380  220.6420 O   0  0  0  0  0  0  0  0  0  0  0  0
  139.7660   71.6340  222.9630 C   0  0  0  0  0  0  0  0  0  0  0  0
  139.3080   70.3440  222.7930 C   0  0  0  0  0  0  0  0  0  0  0  0
  139.3920   69.4360  223.8560 C   0  0  0  0  0  0  0  0  0  0  0  0
  139.9390   69.8630  225.0690 C   0  0  0  0  0  0  0  0  0  0  0  0
  140.0370   68.9880  226.1480 C   0  0  0  0  0  0  0  0  0  0  0  0
  140.5930   69.4890  227.3130 C   0  0  0  0  0  0  0  0  0  0  0  0
  140.7560   68.4570  228.7220 Cl  0  0  0  0  0  0  0  0  0  0  0  0
  141.0350   70.7900  227.4300 C   0  0  0  0  0  0  0  0  0  0  0  0
  140.9380   71.6660  226.3540 C   0  0  0  0  0  0  0  0  0  0  0  0
  140.3840   71.1660  225.1930 C   0  0  0  0  0  0  0  0  0  0  0  0
  140.2870   72.0070  224.1460 N   0  0  0  0  0  0  0  0  0  0  0  0
  140.3220   78.7850  223.1590 C   0  0  0  0  0  0  0  0  0  0  0  0
  140.9980   80.0270  223.6960 C   0  0  0  0  0  0  0  0  0  0  0  0
  140.4391   82.5289  223.2761 H   0  0  0  0  0  0  0  0  0  0  0  0
  141.3869   82.7236  221.7627 H   0  0  0  0  0  0  0  0  0  0  0  0
  139.8881   81.7334  221.7627 H   0  0  0  0  0  0  0  0  0  0  0  0
  142.1515   80.9321  220.7456 H   0  0  0  0  0  0  0  0  0  0  0  0
  143.2028   80.0211  221.9749 H   0  0  0  0  0  0  0  0  0  0  0  0
  140.7174   79.0846  220.5891 H   0  0  0  0  0  0  0  0  0  0  0  0
  142.3820   78.4321  220.4882 H   0  0  0  0  0  0  0  0  0  0  0  0
  142.3037   77.9672  222.9475 H   0  0  0  0  0  0  0  0  0  0  0  0
  141.7840   75.9830  222.2870 H   0  0  0  0  0  0  0  0  0  0  0  0
  138.4138   75.0110  220.7385 H   0  0  0  0  0  0  0  0  0  0  0  0
  140.1813   74.6525  220.3098 H   0  0  0  0  0  0  0  0  0  0  0  0
  139.5180   74.2410  223.1390 H   0  0  0  0  0  0  0  0  0  0  0  0
  138.8798   70.0307  221.8294 H   0  0  0  0  0  0  0  0  0  0  0  0
  139.0330   68.4029  223.7380 H   0  0  0  0  0  0  0  0  0  0  0  0
  139.6888   67.9469  226.0780 H   0  0  0  0  0  0  0  0  0  0  0  0
  141.4670   71.1371  228.3802 H   0  0  0  0  0  0  0  0  0  0  0  0
  141.2860   72.7071  226.4249 H   0  0  0  0  0  0  0  0  0  0  0  0
  139.4680   79.0556  222.5207 H   0  0  0  0  0  0  0  0  0  0  0  0
  139.9257   78.1504  223.9654 H   0  0  0  0  0  0  0  0  0  0  0  0
  140.2587   80.6034  224.2715 H   0  0  0  0  0  0  0  0  0  0  0  0
  141.8427   79.6907  224.3152 H   0  0  0  0  0  0  0  0  0  0  0  0
  1  2  1  0
  2  3  1  0
  3  4  1  0
  4  5  1  0
  5  6  1  0
  6  7  1  0
  7  8  2  0
  7  9  1  0
  9 10  1  0
 10 11  1  0
 11 12  2  0
 11 13  1  0
 13 14  2  0
 14 15  1  0
 15 16  2  0
 16 17  1  0
 17 18  2  0
 18 19  1  0
 18 20  1  0
 20 21  2  0
 21 22  1  0
 22 23  2  0
  5 24  1  0
 24 25  1  0
 25  2  1  0
 23 13  1  0
 22 16  1  0
  1 26  1  0
  1 27  1  0
  1 28  1  0
  3 29  1  0
  3 30  1  0
  4 31  1  0
  4 32  1  0
  5 33  1  0
  6 34  1  0
  9 35  1  0
  9 36  1  0
 10 37  1  0
 14 38  1  0
 15 39  1  0
 17 40  1  0
 20 41  1  0
 21 42  1  0
 24 43  1  0
 24 44  1  0
 25 45  1  0
 25 46  1  0
M  END
>  <smiles>  (10) 
CN1CCC(NC(=O)CNC(=O)c2ccc3cc(Cl)ccc3n2)CC1

>  <score_type>  (10) 
oracle

>  <origin>  (10) 
autodockgpu

>  <m_score__min__energy>  (10) 
-8.3900000000000006

>  <m_primary>  (10) 
energy

>  <rmsd>  (10) 
2.415622375051852

>  <m_score__min__rmsd>  (10) 
2.415622375051852

>  <meeko>  (10) 
{"free_energy": -8.25, "intermolecular_energy": -9.45, "internal_energy": -0.91, "cluster_size": 46, "cluster_id": 1, "rank_in_cluster": 16}

>  <energy>  (10) 
-8.28

>  <cluster_rmsd>  (10) 
0.67

>  <cluster>  (10) 
1

$$$$

     RDKit          3D

 46 48  0  0  0  0  0  0  0  0999 V2000
  143.5050   80.4760  223.0930 C   0  0  0  0  0  0  0  0  0  0  0  0
  142.1690   80.0330  222.8360 N   0  0  0  0  0  0  0  0  0  0  0  0
  141.6040   79.1930  223.8210 C   0  0  0  0  0  0  0  0  0  0  0  0
  141.4290   77.7530  223.4710 C   0  0  0  0  0  0  0  0  0  0  0  0
  140.8360   77.6610  222.0980 C   0  0  0  0  0  0  0  0  0  0  0  0
  140.4090   76.3440  221.7330 N   0  0  0  0  0  0  0  0  0  0  0  0
  139.0380   75.9970  221.6310 C   0  0  0  0  0  0  0  0  0  0  0  0
  138.2080   76.9320  221.8880 O   0  0  0  0  0  0  0  0  0  0  0  0
  138.5090   74.6870  221.2640 C   0  0  0  0  0  0  0  0  0  0  0  0
  138.6840   73.6340  222.2100 N   0  0  0  0  0  0  0  0  0  0  0  0
  139.9560   73.0540  222.5060 C   0  0  0  0  0  0  0  0  0  0  0  0
  141.0230   73.4510  221.9260 O   0  0  0  0  0  0  0  0  0  0  0  0
  140.0510   71.9670  223.5060 C   0  0  0  0  0  0  0  0  0  0  0  0
  139.7010   70.6830  223.1460 C   0  0  0  0  0  0  0  0  0  0  0  0
  139.7910   69.6520  224.0890 C   0  0  0  0  0  0  0  0  0  0  0  0
  140.2330   69.9520  225.3800 C   0  0  0  0  0  0  0  0  0  0  0  0
  140.3330   68.9530  226.3440 C   0  0  0  0  0  0  0  0  0  0  0  0
  140.7800   69.3330  227.5980 C   0  0  0  0  0  0  0  0  0  0  0  0
  140.9370   68.1400  228.8740 Cl  0  0  0  0  0  0  0  0  0  0  0  0
  141.1170   70.6350  227.9080 C   0  0  0  0  0  0  0  0  0  0  0  0
  141.0170   71.6360  226.9460 C   0  0  0  0  0  0  0  0  0  0  0  0
  140.5720   71.2550  225.6970 C   0  0  0  0  0  0  0  0  0  0  0  0
  140.4730   72.2170  224.7600 N   0  0  0  0  0  0  0  0  0  0  0  0
  141.8420   78.2760  221.1480 C   0  0  0  0  0  0  0  0  0  0  0  0
  141.8470   79.7510  221.4790 C   0  0  0  0  0  0  0  0  0  0  0  0
  143.6706   80.5309  224.1791 H   0  0  0  0  0  0  0  0  0  0  0  0
  144.2185   79.7663  222.6488 H   0  0  0  0  0  0  0  0  0  0  0  0
  143.6531   81.4713  222.6488 H   0  0  0  0  0  0  0  0  0  0  0  0
  142.2521   79.2414  224.7085 H   0  0  0  0  0  0  0  0  0  0  0  0
  140.5830   79.5751  223.9675 H   0  0  0  0  0  0  0  0  0  0  0  0
  142.4055   77.2468  223.4871 H   0  0  0  0  0  0  0  0  0  0  0  0
  140.7631   77.2683  224.2001 H   0  0  0  0  0  0  0  0  0  0  0  0
  139.8908   78.2221  222.0559 H   0  0  0  0  0  0  0  0  0  0  0  0
  141.1410   75.6260  221.5490 H   0  0  0  0  0  0  0  0  0  0  0  0
  137.4290   74.8014  221.0896 H   0  0  0  0  0  0  0  0  0  0  0  0
  139.0890   74.3798  220.3813 H   0  0  0  0  0  0  0  0  0  0  0  0
  137.8680   73.2160  222.7530 H   0  0  0  0  0  0  0  0  0  0  0  0
  139.3533   70.4699  222.1244 H   0  0  0  0  0  0  0  0  0  0  0  0
  139.5179   68.6216  223.8176 H   0  0  0  0  0  0  0  0  0  0  0  0
  140.0689   67.9090  226.1197 H   0  0  0  0  0  0  0  0  0  0  0  0
  141.4666   70.8830  228.9210 H   0  0  0  0  0  0  0  0  0  0  0  0
  141.2800   72.6802  227.1707 H   0  0  0  0  0  0  0  0  0  0  0  0
  142.8397   77.8412  221.3077 H   0  0  0  0  0  0  0  0  0  0  0  0
  141.5810   78.0910  220.0955 H   0  0  0  0  0  0  0  0  0  0  0  0
  142.5880   80.2484  220.8360 H   0  0  0  0  0  0  0  0  0  0  0  0
  140.8255   80.1216  221.3080 H   0  0  0  0  0  0  0  0  0  0  0  0
  1  2  1  0
  2  3  1  0
  3  4  1  0
  4  5  1  0
  5  6  1  0
  6  7  1  0
  7  8  2  0
  7  9  1  0
  9 10  1  0
 10 11  1  0
 11 12  2  0
 11 13  1  0
 13 14  2  0
 14 15  1  0
 15 16  2  0
 16 17  1  0
 17 18  2  0
 18 19  1  0
 18 20  1  0
 20 21  2  0
 21 22  1  0
 22 23  2  0
  5 24  1  0
 24 25  1  0
 25  2  1  0
 23 13  1  0
 22 16  1  0
  1 26  1  0
  1 27  1  0
  1 28  1  0
  3 29  1  0
  3 30  1  0
  4 31  1  0
  4 32  1  0
  5 33  1  0
  6 34  1  0
  9 35  1  0
  9 36  1  0
 10 37  1  0
 14 38  1  0
 15 39  1  0
 17 40  1  0
 20 41  1  0
 21 42  1  0
 24 43  1  0
 24 44  1  0
 25 45  1  0
 25 46  1  0
M  END
>  <smiles>  (11) 
CN1CCC(NC(=O)CNC(=O)c2ccc3cc(Cl)ccc3n2)CC1

>  <score_type>  (11) 
oracle

>  <origin>  (11) 
autodockgpu

>  <m_score__min__energy>  (11) 
-8.3900000000000006

>  <m_primary>  (11) 
energy

>  <rmsd>  (11) 
3.0668390328459334

>  <m_score__min__rmsd>  (11) 
3.0668390328459334

>  <meeko>  (11) 
{"free_energy": -7.77, "intermolecular_energy": -8.96, "internal_energy": -1.45, "cluster_size": 46, "cluster_id": 1, "rank_in_cluster": 37}

>  <energy>  (11) 
-8.28

>  <cluster_rmsd>  (11) 
0.66

>  <cluster>  (11) 
1

$$$$

     RDKit          3D

 46 48  0  0  0  0  0  0  0  0999 V2000
  141.4160   81.3420  222.8560 C   0  0  0  0  0  0  0  0  0  0  0  0
  142.0490   80.1380  222.4150 N   0  0  0  0  0  0  0  0  0  0  0  0
  141.8150   79.7830  221.0680 C   0  0  0  0  0  0  0  0  0  0  0  0
  140.9270   78.6100  220.8170 C   0  0  0  0  0  0  0  0  0  0  0  0
  141.3260   77.4980  221.7380 C   0  0  0  0  0  0  0  0  0  0  0  0
  140.7030   76.2430  221.4440 N   0  0  0  0  0  0  0  0  0  0  0  0
  139.2950   76.0760  221.4720 C   0  0  0  0  0  0  0  0  0  0  0  0
  138.6180   77.1140  221.7800 O   0  0  0  0  0  0  0  0  0  0  0  0
  138.5710   74.8420  221.1850 C   0  0  0  0  0  0  0  0  0  0  0  0
  138.6960   73.7850  222.1350 N   0  0  0  0  0  0  0  0  0  0  0  0
  139.9140   73.0720  222.3540 C   0  0  0  0  0  0  0  0  0  0  0  0
  140.9750   73.3420  221.6950 O   0  0  0  0  0  0  0  0  0  0  0  0
  139.9600   71.9920  223.3650 C   0  0  0  0  0  0  0  0  0  0  0  0
  139.5090   70.7330  223.0300 C   0  0  0  0  0  0  0  0  0  0  0  0
  139.5520   69.7080  223.9840 C   0  0  0  0  0  0  0  0  0  0  0  0
  140.0500   69.9890  225.2580 C   0  0  0  0  0  0  0  0  0  0  0  0
  140.1060   68.9950  226.2320 C   0  0  0  0  0  0  0  0  0  0  0  0
  140.6150   69.3560  227.4680 C   0  0  0  0  0  0  0  0  0  0  0  0
  140.7230   68.1680  228.7540 Cl  0  0  0  0  0  0  0  0  0  0  0  0
  141.0530   70.6340  227.7510 C   0  0  0  0  0  0  0  0  0  0  0  0
  140.9980   71.6280  226.7810 C   0  0  0  0  0  0  0  0  0  0  0  0
  140.4900   71.2680  225.5490 C   0  0  0  0  0  0  0  0  0  0  0  0
  140.4350   72.2240  224.6030 N   0  0  0  0  0  0  0  0  0  0  0  0
  141.0890   77.9970  223.1490 C   0  0  0  0  0  0  0  0  0  0  0  0
  142.1220   79.0800  223.3630 C   0  0  0  0  0  0  0  0  0  0  0  0
  141.4025   81.3676  223.9556 H   0  0  0  0  0  0  0  0  0  0  0  0
  141.9742   82.2102  222.4758 H   0  0  0  0  0  0  0  0  0  0  0  0
  140.3843   81.3743  222.4758 H   0  0  0  0  0  0  0  0  0  0  0  0
  141.3626   80.6533  220.5700 H   0  0  0  0  0  0  0  0  0  0  0  0
  142.7989   79.4827  220.6785 H   0  0  0  0  0  0  0  0  0  0  0  0
  139.8806   78.8907  221.0076 H   0  0  0  0  0  0  0  0  0  0  0  0
  141.0253   78.2832  219.7713 H   0  0  0  0  0  0  0  0  0  0  0  0
  142.3902   77.2561  221.6003 H   0  0  0  0  0  0  0  0  0  0  0  0
  141.3160   75.4340  221.2120 H   0  0  0  0  0  0  0  0  0  0  0  0
  137.5031   75.0938  221.1064 H   0  0  0  0  0  0  0  0  0  0  0  0
  139.0231   74.4523  220.2610 H   0  0  0  0  0  0  0  0  0  0  0  0
  137.8790   73.4660  222.7400 H   0  0  0  0  0  0  0  0  0  0  0  0
  139.1183   70.5348  222.0210 H   0  0  0  0  0  0  0  0  0  0  0  0
  139.1987   68.6969  223.7333 H   0  0  0  0  0  0  0  0  0  0  0  0
  139.7617   67.9703  226.0286 H   0  0  0  0  0  0  0  0  0  0  0  0
  141.4481   70.8674  228.7507 H   0  0  0  0  0  0  0  0  0  0  0  0
  141.3428   72.6524  226.9853 H   0  0  0  0  0  0  0  0  0  0  0  0
  140.0732   78.4074  223.2479 H   0  0  0  0  0  0  0  0  0  0  0  0
  141.1779   77.1904  223.8916 H   0  0  0  0  0  0  0  0  0  0  0  0
  141.9771   79.5039  224.3677 H   0  0  0  0  0  0  0  0  0  0  0  0
  143.1091   78.6096  223.2430 H   0  0  0  0  0  0  0  0  0  0  0  0
  1  2  1  0
  2  3  1  0
  3  4  1  0
  4  5  1  0
  5  6  1  0
  6  7  1  0
  7  8  2  0
  7  9  1  0
  9 10  1  0
 10 11  1  0
 11 12  2  0
 11 13  1  0
 13 14  2  0
 14 15  1  0
 15 16  2  0
 16 17  1  0
 17 18  2  0
 18 19  1  0
 18 20  1  0
 20 21  2  0
 21 22  1  0
 22 23  2  0
  5 24  1  0
 24 25  1  0
 25  2  1  0
 23 13  1  0
 22 16  1  0
  1 26  1  0
  1 27  1  0
  1 28  1  0
  3 29  1  0
  3 30  1  0
  4 31  1  0
  4 32  1  0
  5 33  1  0
  6 34  1  0
  9 35  1  0
  9 36  1  0
 10 37  1  0
 14 38  1  0
 15 39  1  0
 17 40  1  0
 20 41  1  0
 21 42  1  0
 24 43  1  0
 24 44  1  0
 25 45  1  0
 25 46  1  0
M  END
>  <smiles>  (12) 
CN1CCC(NC(=O)CNC(=O)c2ccc3cc(Cl)ccc3n2)CC1

>  <score_type>  (12) 
oracle

>  <origin>  (12) 
autodockgpu

>  <m_score__min__energy>  (12) 
-8.3900000000000006

>  <m_primary>  (12) 
energy

>  <rmsd>  (12) 
2.2109573522078505

>  <m_score__min__rmsd>  (12) 
2.2109573522078505

>  <meeko>  (12) 
{"free_energy": -7.79, "intermolecular_energy": -8.98, "internal_energy": -1.46, "cluster_size": 46, "cluster_id": 1, "rank_in_cluster": 35}

>  <energy>  (12) 
-8.27

>  <cluster_rmsd>  (12) 
0.6

>  <cluster>  (12) 
1

$$$$

     RDKit          3D

 46 48  0  0  0  0  0  0  0  0999 V2000
  140.8010   82.0120  222.3500 C   0  0  0  0  0  0  0  0  0  0  0  0
  141.5910   80.8440  222.5840 N   0  0  0  0  0  0  0  0  0  0  0  0
  142.1620   80.2520  221.4360 C   0  0  0  0  0  0  0  0  0  0  0  0
  141.5880   78.9510  220.9830 C   0  0  0  0  0  0  0  0  0  0  0  0
  141.4180   78.0600  222.1750 C   0  0  0  0  0  0  0  0  0  0  0  0
  141.0880   76.7050  221.8500 N   0  0  0  0  0  0  0  0  0  0  0  0
  139.8170   76.3400  221.3390 C   0  0  0  0  0  0  0  0  0  0  0  0
  138.9820   77.2950  221.1920 O   0  0  0  0  0  0  0  0  0  0  0  0
  139.3910   74.9920  220.9780 C   0  0  0  0  0  0  0  0  0  0  0  0
  139.4360   74.0030  222.0050 N   0  0  0  0  0  0  0  0  0  0  0  0
  140.0110   72.7090  221.8180 C   0  0  0  0  0  0  0  0  0  0  0  0
  140.5180   72.3570  220.7000 O   0  0  0  0  0  0  0  0  0  0  0  0
  140.0230   71.7430  222.9400 C   0  0  0  0  0  0  0  0  0  0  0  0
  139.5280   70.4710  222.7430 C   0  0  0  0  0  0  0  0  0  0  0  0
  139.5380   69.5550  223.8020 C   0  0  0  0  0  0  0  0  0  0  0  0
  140.0510   69.9550  225.0390 C   0  0  0  0  0  0  0  0  0  0  0  0
  140.0760   69.0710  226.1140 C   0  0  0  0  0  0  0  0  0  0  0  0
  140.6020   69.5450  227.3040 C   0  0  0  0  0  0  0  0  0  0  0  0
  140.6730   68.5010  228.7110 Cl  0  0  0  0  0  0  0  0  0  0  0  0
  141.0840   70.8300  227.4480 C   0  0  0  0  0  0  0  0  0  0  0  0
  141.0600   71.7150  226.3750 C   0  0  0  0  0  0  0  0  0  0  0  0
  140.5360   71.2420  225.1900 C   0  0  0  0  0  0  0  0  0  0  0  0
  140.5100   72.0920  224.1460 N   0  0  0  0  0  0  0  0  0  0  0  0
  140.4200   78.7430  223.0880 C   0  0  0  0  0  0  0  0  0  0  0  0
  141.1350   79.9680  223.6080 C   0  0  0  0  0  0  0  0  0  0  0  0
  140.5032   82.4522  223.3131 H   0  0  0  0  0  0  0  0  0  0  0  0
  141.3898   82.7445  221.7784 H   0  0  0  0  0  0  0  0  0  0  0  0
  139.9019   81.7381  221.7784 H   0  0  0  0  0  0  0  0  0  0  0  0
  142.0557   80.9672  220.6071 H   0  0  0  0  0  0  0  0  0  0  0  0
  143.1987   80.0206  221.7219 H   0  0  0  0  0  0  0  0  0  0  0  0
  140.6113   79.1230  220.5072 H   0  0  0  0  0  0  0  0  0  0  0  0
  142.2622   78.4774  220.2542 H   0  0  0  0  0  0  0  0  0  0  0  0
  142.3791   77.9369  222.6957 H   0  0  0  0  0  0  0  0  0  0  0  0
  141.8130   75.9740  222.0060 H   0  0  0  0  0  0  0  0  0  0  0  0
  138.3515   75.0559  220.6238 H   0  0  0  0  0  0  0  0  0  0  0  0
  140.1172   74.6547  220.2238 H   0  0  0  0  0  0  0  0  0  0  0  0
  139.0410   74.1780  222.9790 H   0  0  0  0  0  0  0  0  0  0  0  0
  139.1282   70.1781  221.7610 H   0  0  0  0  0  0  0  0  0  0  0  0
  139.1480   68.5360  223.6625 H   0  0  0  0  0  0  0  0  0  0  0  0
  139.6954   68.0430  226.0224 H   0  0  0  0  0  0  0  0  0  0  0  0
  141.4896   71.1564  228.4170 H   0  0  0  0  0  0  0  0  0  0  0  0
  141.4407   72.7429  226.4672 H   0  0  0  0  0  0  0  0  0  0  0  0
  139.5184   79.0311  222.5276 H   0  0  0  0  0  0  0  0  0  0  0  0
  140.0885   78.0827  223.9030 H   0  0  0  0  0  0  0  0  0  0  0  0
  140.4429   80.5241  224.2575 H   0  0  0  0  0  0  0  0  0  0  0  0
  142.0259   79.6143  224.1476 H   0  0  0  0  0  0  0  0  0  0  0  0
  1  2  1  0
  2  3  1  0
  3  4  1  0
  4  5  1  0
  5  6  1  0
  6  7  1  0
  7  8  2  0
  7  9  1  0
  9 10  1  0
 10 11  1  0
 11 12  2  0
 11 13  1  0
 13 14  2  0
 14 15  1  0
 15 16  2  0
 16 17  1  0
 17 18  2  0
 18 19  1  0
 18 20  1  0
 20 21  2  0
 21 22  1  0
 22 23  2  0
  5 24  1  0
 24 25  1  0
 25  2  1  0
 23 13  1  0
 22 16  1  0
  1 26  1  0
  1 27  1  0
  1 28  1  0
  3 29  1  0
  3 30  1  0
  4 31  1  0
  4 32  1  0
  5 33  1  0
  6 34  1  0
  9 35  1  0
  9 36  1  0
 10 37  1  0
 14 38  1  0
 15 39  1  0
 17 40  1  0
 20 41  1  0
 21 42  1  0
 24 43  1  0
 24 44  1  0
 25 45  1  0
 25 46  1  0
M  END
>  <smiles>  (13) 
CN1CCC(NC(=O)CNC(=O)c2ccc3cc(Cl)ccc3n2)CC1

>  <score_type>  (13) 
oracle

>  <origin>  (13) 
autodockgpu

>  <m_score__min__energy>  (13) 
-8.3900000000000006

>  <m_primary>  (13) 
energy

>  <rmsd>  (13) 
2.402202166407756

>  <m_score__min__rmsd>  (13) 
2.402202166407756

>  <meeko>  (13) 
{"free_energy": -8.36, "intermolecular_energy": -9.56, "internal_energy": -0.79, "cluster_size": 46, "cluster_id": 1, "rank_in_cluster": 3}

>  <energy>  (13) 
-8.26

>  <cluster_rmsd>  (13) 
0.67

>  <cluster>  (13) 
1

$$$$

     RDKit          3D

 46 48  0  0  0  0  0  0  0  0999 V2000
  142.5060   81.6360  224.2660 C   0  0  0  0  0  0  0  0  0  0  0  0
  141.6280   81.0510  223.3000 N   0  0  0  0  0  0  0  0  0  0  0  0
  140.5840   80.2590  223.8240 C   0  0  0  0  0  0  0  0  0  0  0  0
  140.6850   78.7830  223.6290 C   0  0  0  0  0  0  0  0  0  0  0  0
  141.0790   78.5110  222.2090 C   0  0  0  0  0  0  0  0  0  0  0  0
  140.9910   77.1320  221.8320 N   0  0  0  0  0  0  0  0  0  0  0  0
  139.7670   76.5360  221.4370 C   0  0  0  0  0  0  0  0  0  0  0  0
  138.7470   77.3040  221.4420 O   0  0  0  0  0  0  0  0  0  0  0  0
  139.5790   75.1450  221.0340 C   0  0  0  0  0  0  0  0  0  0  0  0
  139.6390   74.1620  222.0660 N   0  0  0  0  0  0  0  0  0  0  0  0
  139.8400   72.7710  221.8070 C   0  0  0  0  0  0  0  0  0  0  0  0
  139.9740   72.3240  220.6180 O   0  0  0  0  0  0  0  0  0  0  0  0
  139.8960   71.8160  222.9370 C   0  0  0  0  0  0  0  0  0  0  0  0
  139.4240   70.5330  222.7620 C   0  0  0  0  0  0  0  0  0  0  0  0
  139.4760   69.6260  223.8290 C   0  0  0  0  0  0  0  0  0  0  0  0
  140.0050   70.0490  225.0510 C   0  0  0  0  0  0  0  0  0  0  0  0
  140.0720   69.1750  226.1330 C   0  0  0  0  0  0  0  0  0  0  0  0
  140.6120   69.6710  227.3070 C   0  0  0  0  0  0  0  0  0  0  0  0
  140.7340   68.6420  228.7220 Cl  0  0  0  0  0  0  0  0  0  0  0  0
  141.0700   70.9670  227.4300 C   0  0  0  0  0  0  0  0  0  0  0  0
  141.0050   71.8420  226.3500 C   0  0  0  0  0  0  0  0  0  0  0  0
  140.4660   71.3470  225.1800 C   0  0  0  0  0  0  0  0  0  0  0  0
  140.4000   72.1860  224.1300 N   0  0  0  0  0  0  0  0  0  0  0  0
  142.4500   79.1250  222.0130 C   0  0  0  0  0  0  0  0  0  0  0  0
  142.2270   80.6190  222.0840 C   0  0  0  0  0  0  0  0  0  0  0  0
  142.1482   81.3976  225.2785 H   0  0  0  0  0  0  0  0  0  0  0  0
  143.5205   81.2327  224.1312 H   0  0  0  0  0  0  0  0  0  0  0  0
  142.5245   82.7276  224.1312 H   0  0  0  0  0  0  0  0  0  0  0  0
  140.5369   80.4475  224.9067 H   0  0  0  0  0  0  0  0  0  0  0  0
  139.6890   80.5594  223.2594 H   0  0  0  0  0  0  0  0  0  0  0  0
  141.4450   78.3711  224.3092 H   0  0  0  0  0  0  0  0  0  0  0  0
  139.7162   78.3095  223.8460 H   0  0  0  0  0  0  0  0  0  0  0  0
  140.3588   78.9773  221.5206 H   0  0  0  0  0  0  0  0  0  0  0  0
  141.8600   76.5600  221.8620 H   0  0  0  0  0  0  0  0  0  0  0  0
  138.5905   75.0674  220.5577 H   0  0  0  0  0  0  0  0  0  0  0  0
  140.4287   74.9199  220.3727 H   0  0  0  0  0  0  0  0  0  0  0  0
  139.5360   74.4120  223.0960 H   0  0  0  0  0  0  0  0  0  0  0  0
  139.0093   70.2231  221.7914 H   0  0  0  0  0  0  0  0  0  0  0  0
  139.1062   68.5973  223.7064 H   0  0  0  0  0  0  0  0  0  0  0  0
  139.7124   68.1382  226.0582 H   0  0  0  0  0  0  0  0  0  0  0  0
  141.4889   71.3103  228.3874 H   0  0  0  0  0  0  0  0  0  0  0  0
  141.3659   72.8784  226.4252 H   0  0  0  0  0  0  0  0  0  0  0  0
  143.1364   78.7989  222.8083 H   0  0  0  0  0  0  0  0  0  0  0  0
  142.9047   78.8213  221.0585 H   0  0  0  0  0  0  0  0  0  0  0  0
  143.2003   81.1207  221.9790 H   0  0  0  0  0  0  0  0  0  0  0  0
  141.5309   80.8789  221.2729 H   0  0  0  0  0  0  0  0  0  0  0  0
  1  2  1  0
  2  3  1  0
  3  4  1  0
  4  5  1  0
  5  6  1  0
  6  7  1  0
  7  8  2  0
  7  9  1  0
  9 10  1  0
 10 11  1  0
 11 12  2  0
 11 13  1  0
 13 14  2  0
 14 15  1  0
 15 16  2  0
 16 17  1  0
 17 18  2  0
 18 19  1  0
 18 20  1  0
 20 21  2  0
 21 22  1  0
 22 23  2  0
  5 24  1  0
 24 25  1  0
 25  2  1  0
 23 13  1  0
 22 16  1  0
  1 26  1  0
  1 27  1  0
  1 28  1  0
  3 29  1  0
  3 30  1  0
  4 31  1  0
  4 32  1  0
  5 33  1  0
  6 34  1  0
  9 35  1  0
  9 36  1  0
 10 37  1  0
 14 38  1  0
 15 39  1  0
 17 40  1  0
 20 41  1  0
 21 42  1  0
 24 43  1  0
 24 44  1  0
 25 45  1  0
 25 46  1  0
M  END
>  <smiles>  (14) 
CN1CCC(NC(=O)CNC(=O)c2ccc3cc(Cl)ccc3n2)CC1

>  <score_type>  (14) 
oracle

>  <origin>  (14) 
autodockgpu

>  <m_score__min__energy>  (14) 
-8.3900000000000006

>  <m_primary>  (14) 
energy

>  <rmsd>  (14) 
3.2422190024114204

>  <m_score__min__rmsd>  (14) 
3.2422190024114204

>  <meeko>  (14) 
{"free_energy": -8.26, "intermolecular_energy": -9.46, "internal_energy": -0.91, "cluster_size": 46, "cluster_id": 1, "rank_in_cluster": 13}

>  <energy>  (14) 
-8.26

>  <cluster_rmsd>  (14) 
0.67

>  <cluster>  (14) 
1

$$$$

     RDKit          3D

 46 48  0  0  0  0  0  0  0  0999 V2000
  142.3190   81.6390  224.1590 C   0  0  0  0  0  0  0  0  0  0  0  0
  141.4430   81.0290  223.2070 N   0  0  0  0  0  0  0  0  0  0  0  0
  140.4410   80.1930  223.7470 C   0  0  0  0  0  0  0  0  0  0  0  0
  140.5940   78.7230  223.5400 C   0  0  0  0  0  0  0  0  0  0  0  0
  140.9670   78.4760  222.1090 C   0  0  0  0  0  0  0  0  0  0  0  0
  140.9240   77.0970  221.7240 N   0  0  0  0  0  0  0  0  0  0  0  0
  139.7050   76.4360  221.4270 C   0  0  0  0  0  0  0  0  0  0  0  0
  138.6490   77.1460  221.5280 O   0  0  0  0  0  0  0  0  0  0  0  0
  139.5610   75.0410  221.0250 C   0  0  0  0  0  0  0  0  0  0  0  0
  139.6350   74.0610  222.0580 N   0  0  0  0  0  0  0  0  0  0  0  0
  139.7460   72.6600  221.8000 C   0  0  0  0  0  0  0  0  0  0  0  0
  139.7800   72.2000  220.6080 O   0  0  0  0  0  0  0  0  0  0  0  0
  139.8230   71.7100  222.9320 C   0  0  0  0  0  0  0  0  0  0  0  0
  139.3540   70.4230  222.7690 C   0  0  0  0  0  0  0  0  0  0  0  0
  139.4260   69.5210  223.8370 C   0  0  0  0  0  0  0  0  0  0  0  0
  139.9740   69.9500  225.0490 C   0  0  0  0  0  0  0  0  0  0  0  0
  140.0610   69.0800  226.1330 C   0  0  0  0  0  0  0  0  0  0  0  0
  140.6180   69.5830  227.2970 C   0  0  0  0  0  0  0  0  0  0  0  0
  140.7670   68.5590  228.7130 Cl  0  0  0  0  0  0  0  0  0  0  0  0
  141.0730   70.8810  227.4080 C   0  0  0  0  0  0  0  0  0  0  0  0
  140.9870   71.7520  226.3260 C   0  0  0  0  0  0  0  0  0  0  0  0
  140.4320   71.2500  225.1670 C   0  0  0  0  0  0  0  0  0  0  0  0
  140.3450   72.0850  224.1140 N   0  0  0  0  0  0  0  0  0  0  0  0
  142.3100   79.1430  221.8900 C   0  0  0  0  0  0  0  0  0  0  0  0
  142.0310   80.6270  221.9760 C   0  0  0  0  0  0  0  0  0  0  0  0
  141.9771   81.4009  225.1770 H   0  0  0  0  0  0  0  0  0  0  0  0
  143.3400   81.2556  224.0160 H   0  0  0  0  0  0  0  0  0  0  0  0
  142.3136   82.7297  224.0160 H   0  0  0  0  0  0  0  0  0  0  0  0
  140.4093   80.3728  224.8317 H   0  0  0  0  0  0  0  0  0  0  0  0
  139.5239   80.4619  223.2024 H   0  0  0  0  0  0  0  0  0  0  0  0
  141.3840   78.3363  224.2006 H   0  0  0  0  0  0  0  0  0  0  0  0
  139.6494   78.2108  223.7752 H   0  0  0  0  0  0  0  0  0  0  0  0
  140.2152   78.9189  221.4392 H   0  0  0  0  0  0  0  0  0  0  0  0
  141.8230   76.5750  221.6740 H   0  0  0  0  0  0  0  0  0  0  0  0
  138.5812   74.9354  220.5364 H   0  0  0  0  0  0  0  0  0  0  0  0
  140.4256   74.8390  220.3757 H   0  0  0  0  0  0  0  0  0  0  0  0
  139.6110   74.3220  223.0910 H   0  0  0  0  0  0  0  0  0  0  0  0
  138.9262   70.1076  221.8059 H   0  0  0  0  0  0  0  0  0  0  0  0
  139.0571   68.4909  223.7242 H   0  0  0  0  0  0  0  0  0  0  0  0
  139.7039   68.0416  226.0677 H   0  0  0  0  0  0  0  0  0  0  0  0
  141.5062   71.2293  228.3572 H   0  0  0  0  0  0  0  0  0  0  0  0
  141.3442   72.7903  226.3917 H   0  0  0  0  0  0  0  0  0  0  0  0
  143.0242   78.8384  222.6692 H   0  0  0  0  0  0  0  0  0  0  0  0
  142.7571   78.8627  220.9248 H   0  0  0  0  0  0  0  0  0  0  0  0
  142.9817   81.1665  221.8530 H   0  0  0  0  0  0  0  0  0  0  0  0
  141.3073   80.8640  221.1822 H   0  0  0  0  0  0  0  0  0  0  0  0
  1  2  1  0
  2  3  1  0
  3  4  1  0
  4  5  1  0
  5  6  1  0
  6  7  1  0
  7  8  2  0
  7  9  1  0
  9 10  1  0
 10 11  1  0
 11 12  2  0
 11 13  1  0
 13 14  2  0
 14 15  1  0
 15 16  2  0
 16 17  1  0
 17 18  2  0
 18 19  1  0
 18 20  1  0
 20 21  2  0
 21 22  1  0
 22 23  2  0
  5 24  1  0
 24 25  1  0
 25  2  1  0
 23 13  1  0
 22 16  1  0
  1 26  1  0
  1 27  1  0
  1 28  1  0
  3 29  1  0
  3 30  1  0
  4 31  1  0
  4 32  1  0
  5 33  1  0
  6 34  1  0
  9 35  1  0
  9 36  1  0
 10 37  1  0
 14 38  1  0
 15 39  1  0
 17 40  1  0
 20 41  1  0
 21 42  1  0
 24 43  1  0
 24 44  1  0
 25 45  1  0
 25 46  1  0
M  END
>  <smiles>  (15) 
CN1CCC(NC(=O)CNC(=O)c2ccc3cc(Cl)ccc3n2)CC1

>  <score_type>  (15) 
oracle

>  <origin>  (15) 
autodockgpu

>  <m_score__min__energy>  (15) 
-8.3900000000000006

>  <m_primary>  (15) 
energy

>  <rmsd>  (15) 
3.1693703090431287

>  <m_score__min__rmsd>  (15) 
3.1693703090431287

>  <meeko>  (15) 
{"free_energy": -8.25, "intermolecular_energy": -9.45, "internal_energy": -0.93, "cluster_size": 46, "cluster_id": 1, "rank_in_cluster": 15}

>  <energy>  (15) 
-8.25

>  <cluster_rmsd>  (15) 
0.63

>  <cluster>  (15) 
1

$$$$

     RDKit          3D

 46 48  0  0  0  0  0  0  0  0999 V2000
  141.3860   81.4080  222.7970 C   0  0  0  0  0  0  0  0  0  0  0  0
  142.0360   80.2030  222.3840 N   0  0  0  0  0  0  0  0  0  0  0  0
  141.8360   79.8320  221.0360 C   0  0  0  0  0  0  0  0  0  0  0  0
  140.9610   78.6510  220.7770 C   0  0  0  0  0  0  0  0  0  0  0  0
  141.3460   77.5520  221.7200 C   0  0  0  0  0  0  0  0  0  0  0  0
  140.7380   76.2890  221.4260 N   0  0  0  0  0  0  0  0  0  0  0  0
  139.3310   76.1150  221.4150 C   0  0  0  0  0  0  0  0  0  0  0  0
  138.6400   77.1530  221.6890 O   0  0  0  0  0  0  0  0  0  0  0  0
  138.6210   74.8730  221.1250 C   0  0  0  0  0  0  0  0  0  0  0  0
  138.7400   73.8240  222.0840 N   0  0  0  0  0  0  0  0  0  0  0  0
  139.9520   73.0980  222.3000 C   0  0  0  0  0  0  0  0  0  0  0  0
  141.0110   73.3490  221.6310 O   0  0  0  0  0  0  0  0  0  0  0  0
  139.9910   72.0260  223.3200 C   0  0  0  0  0  0  0  0  0  0  0  0
  139.5340   70.7660  222.9960 C   0  0  0  0  0  0  0  0  0  0  0  0
  139.5710   69.7490  223.9580 C   0  0  0  0  0  0  0  0  0  0  0  0
  140.0710   70.0390  225.2310 C   0  0  0  0  0  0  0  0  0  0  0  0
  140.1220   69.0530  226.2130 C   0  0  0  0  0  0  0  0  0  0  0  0
  140.6330   69.4220  227.4460 C   0  0  0  0  0  0  0  0  0  0  0  0
  140.7340   68.2440  228.7420 Cl  0  0  0  0  0  0  0  0  0  0  0  0
  141.0780   70.6990  227.7180 C   0  0  0  0  0  0  0  0  0  0  0  0
  141.0280   71.6860  226.7390 C   0  0  0  0  0  0  0  0  0  0  0  0
  140.5180   71.3180  225.5110 C   0  0  0  0  0  0  0  0  0  0  0  0
  140.4670   72.2660  224.5560 N   0  0  0  0  0  0  0  0  0  0  0  0
  141.0730   78.0650  223.1190 C   0  0  0  0  0  0  0  0  0  0  0  0
  142.0940   79.1570  223.3450 C   0  0  0  0  0  0  0  0  0  0  0  0
  141.3615   81.4534  223.8958 H   0  0  0  0  0  0  0  0  0  0  0  0
  141.9387   82.2752  222.4064 H   0  0  0  0  0  0  0  0  0  0  0  0
  140.3578   81.4224  222.4064 H   0  0  0  0  0  0  0  0  0  0  0  0
  141.3905   80.6941  220.5180 H   0  0  0  0  0  0  0  0  0  0  0  0
  142.8306   79.5334  220.6732 H   0  0  0  0  0  0  0  0  0  0  0  0
  139.9088   78.9270  220.9401 H   0  0  0  0  0  0  0  0  0  0  0  0
  141.0849   78.3135  219.7374 H   0  0  0  0  0  0  0  0  0  0  0  0
  142.4147   77.3161  221.6098 H   0  0  0  0  0  0  0  0  0  0  0  0
  141.3620   75.4810  221.2230 H   0  0  0  0  0  0  0  0  0  0  0  0
  137.5524   75.1156  221.0284 H   0  0  0  0  0  0  0  0  0  0  0  0
  139.0899   74.4808  220.2105 H   0  0  0  0  0  0  0  0  0  0  0  0
  137.9240   73.5200  222.6980 H   0  0  0  0  0  0  0  0  0  0  0  0
  139.1429   70.5611  221.9885 H   0  0  0  0  0  0  0  0  0  0  0  0
  139.2123   68.7377  223.7158 H   0  0  0  0  0  0  0  0  0  0  0  0
  139.7725   68.0283  226.0183 H   0  0  0  0  0  0  0  0  0  0  0  0
  141.4750   70.9384  228.7155 H   0  0  0  0  0  0  0  0  0  0  0  0
  141.3781   72.7103  226.9345 H   0  0  0  0  0  0  0  0  0  0  0  0
  140.0527   78.4699  223.1895 H   0  0  0  0  0  0  0  0  0  0  0  0
  141.1495   77.2672  223.8725 H   0  0  0  0  0  0  0  0  0  0  0  0
  141.9231   79.5911  224.3412 H   0  0  0  0  0  0  0  0  0  0  0  0
  143.0867   78.6920  223.2537 H   0  0  0  0  0  0  0  0  0  0  0  0
  1  2  1  0
  2  3  1  0
  3  4  1  0
  4  5  1  0
  5  6  1  0
  6  7  1  0
  7  8  2  0
  7  9  1  0
  9 10  1  0
 10 11  1  0
 11 12  2  0
 11 13  1  0
 13 14  2  0
 14 15  1  0
 15 16  2  0
 16 17  1  0
 17 18  2  0
 18 19  1  0
 18 20  1  0
 20 21  2  0
 21 22  1  0
 22 23  2  0
  5 24  1  0
 24 25  1  0
 25  2  1  0
 23 13  1  0
 22 16  1  0
  1 26  1  0
  1 27  1  0
  1 28  1  0
  3 29  1  0
  3 30  1  0
  4 31  1  0
  4 32  1  0
  5 33  1  0
  6 34  1  0
  9 35  1  0
  9 36  1  0
 10 37  1  0
 14 38  1  0
 15 39  1  0
 17 40  1  0
 20 41  1  0
 21 42  1  0
 24 43  1  0
 24 44  1  0
 25 45  1  0
 25 46  1  0
M  END
>  <smiles>  (16) 
CN1CCC(NC(=O)CNC(=O)c2ccc3cc(Cl)ccc3n2)CC1

>  <score_type>  (16) 
oracle

>  <origin>  (16) 
autodockgpu

>  <m_score__min__energy>  (16) 
-8.3900000000000006

>  <m_primary>  (16) 
energy

>  <rmsd>  (16) 
2.225602369370846

>  <m_score__min__rmsd>  (16) 
2.225602369370846

>  <meeko>  (16) 
{"free_energy": -7.79, "intermolecular_energy": -8.98, "internal_energy": -1.44, "cluster_size": 46, "cluster_id": 1, "rank_in_cluster": 34}

>  <energy>  (16) 
-8.25

>  <cluster_rmsd>  (16) 
0.66

>  <cluster>  (16) 
1

$$$$

     RDKit          3D

 46 48  0  0  0  0  0  0  0  0999 V2000
  140.8180   82.0240  222.3420 C   0  0  0  0  0  0  0  0  0  0  0  0
  141.6190   80.8620  222.5730 N   0  0  0  0  0  0  0  0  0  0  0  0
  142.1690   80.2600  221.4200 C   0  0  0  0  0  0  0  0  0  0  0  0
  141.5930   78.9510  220.9940 C   0  0  0  0  0  0  0  0  0  0  0  0
  141.4510   78.0730  222.2000 C   0  0  0  0  0  0  0  0  0  0  0  0
  141.1230   76.7120  221.8960 N   0  0  0  0  0  0  0  0  0  0  0  0
  139.8400   76.3340  221.4240 C   0  0  0  0  0  0  0  0  0  0  0  0
  138.9950   77.2820  221.2900 O   0  0  0  0  0  0  0  0  0  0  0  0
  139.4140   74.9800  221.0870 C   0  0  0  0  0  0  0  0  0  0  0  0
  139.5200   73.9960  222.1140 N   0  0  0  0  0  0  0  0  0  0  0  0
  139.5840   72.5930  221.8470 C   0  0  0  0  0  0  0  0  0  0  0  0
  139.5420   72.1360  220.6550 O   0  0  0  0  0  0  0  0  0  0  0  0
  139.7000   71.6390  222.9730 C   0  0  0  0  0  0  0  0  0  0  0  0
  139.2320   70.3510  222.8180 C   0  0  0  0  0  0  0  0  0  0  0  0
  139.3410   69.4440  223.8800 C   0  0  0  0  0  0  0  0  0  0  0  0
  139.9220   69.8700  225.0770 C   0  0  0  0  0  0  0  0  0  0  0  0
  140.0460   68.9970  226.1540 C   0  0  0  0  0  0  0  0  0  0  0  0
  140.6350   69.4970  227.3030 C   0  0  0  0  0  0  0  0  0  0  0  0
  140.8310   68.4680  228.7090 Cl  0  0  0  0  0  0  0  0  0  0  0  0
  141.0870   70.7970  227.4050 C   0  0  0  0  0  0  0  0  0  0  0  0
  140.9640   71.6720  226.3310 C   0  0  0  0  0  0  0  0  0  0  0  0
  140.3770   71.1720  225.1870 C   0  0  0  0  0  0  0  0  0  0  0  0
  140.2550   72.0120  224.1410 N   0  0  0  0  0  0  0  0  0  0  0  0
  140.4690   78.7610  223.1240 C   0  0  0  0  0  0  0  0  0  0  0  0
  141.1880   79.9960  223.6160 C   0  0  0  0  0  0  0  0  0  0  0  0
  140.5175   82.4598  223.3062 H   0  0  0  0  0  0  0  0  0  0  0  0
  141.3996   82.7627  221.7710 H   0  0  0  0  0  0  0  0  0  0  0  0
  139.9207   81.7432  221.7710 H   0  0  0  0  0  0  0  0  0  0  0  0
  142.0413   80.9651  220.5855 H   0  0  0  0  0  0  0  0  0  0  0  0
  143.2128   80.0375  221.6865 H   0  0  0  0  0  0  0  0  0  0  0  0
  140.6062   79.1125  220.5355 H   0  0  0  0  0  0  0  0  0  0  0  0
  142.2553   78.4721  220.2578 H   0  0  0  0  0  0  0  0  0  0  0  0
  142.4221   77.9609  222.7043 H   0  0  0  0  0  0  0  0  0  0  0  0
  141.8570   75.9880  222.0400 H   0  0  0  0  0  0  0  0  0  0  0  0
  138.3582   75.0299  220.7822 H   0  0  0  0  0  0  0  0  0  0  0  0
  140.1072   74.6488  220.2997 H   0  0  0  0  0  0  0  0  0  0  0  0
  139.5590   74.2540  223.1470 H   0  0  0  0  0  0  0  0  0  0  0  0
  138.7763   70.0381  221.8670 H   0  0  0  0  0  0  0  0  0  0  0  0
  138.9748   68.4123  223.7731 H   0  0  0  0  0  0  0  0  0  0  0  0
  139.6922   67.9571  226.0950 H   0  0  0  0  0  0  0  0  0  0  0  0
  141.5476   71.1434  228.3420 H   0  0  0  0  0  0  0  0  0  0  0  0
  141.3175   72.7119  226.3908 H   0  0  0  0  0  0  0  0  0  0  0  0
  139.5550   79.0382  222.5784 H   0  0  0  0  0  0  0  0  0  0  0  0
  140.1574   78.1085  223.9529 H   0  0  0  0  0  0  0  0  0  0  0  0
  140.5060   80.5562  224.2725 H   0  0  0  0  0  0  0  0  0  0  0  0
  142.0911   79.6532  224.1422 H   0  0  0  0  0  0  0  0  0  0  0  0
  1  2  1  0
  2  3  1  0
  3  4  1  0
  4  5  1  0
  5  6  1  0
  6  7  1  0
  7  8  2  0
  7  9  1  0
  9 10  1  0
 10 11  1  0
 11 12  2  0
 11 13  1  0
 13 14  2  0
 14 15  1  0
 15 16  2  0
 16 17  1  0
 17 18  2  0
 18 19  1  0
 18 20  1  0
 20 21  2  0
 21 22  1  0
 22 23  2  0
  5 24  1  0
 24 25  1  0
 25  2  1  0
 23 13  1  0
 22 16  1  0
  1 26  1  0
  1 27  1  0
  1 28  1  0
  3 29  1  0
  3 30  1  0
  4 31  1  0
  4 32  1  0
  5 33  1  0
  6 34  1  0
  9 35  1  0
  9 36  1  0
 10 37  1  0
 14 38  1  0
 15 39  1  0
 17 40  1  0
 20 41  1  0
 21 42  1  0
 24 43  1  0
 24 44  1  0
 25 45  1  0
 25 46  1  0
M  END
>  <smiles>  (17) 
CN1CCC(NC(=O)CNC(=O)c2ccc3cc(Cl)ccc3n2)CC1

>  <score_type>  (17) 
oracle

>  <origin>  (17) 
autodockgpu

>  <m_score__min__energy>  (17) 
-8.3900000000000006

>  <m_primary>  (17) 
energy

>  <rmsd>  (17) 
2.361956573449348

>  <m_score__min__rmsd>  (17) 
2.361956573449348

>  <meeko>  (17) 
{"free_energy": -8.25, "intermolecular_energy": -9.45, "internal_energy": -0.91, "cluster_size": 46, "cluster_id": 1, "rank_in_cluster": 17}

>  <energy>  (17) 
-8.25

>  <cluster_rmsd>  (17) 
0.68

>  <cluster>  (17) 
1

$$$$

     RDKit          3D

 46 48  0  0  0  0  0  0  0  0999 V2000
  142.9660   80.7910  222.8350 C   0  0  0  0  0  0  0  0  0  0  0  0
  141.6870   80.1530  222.8660 N   0  0  0  0  0  0  0  0  0  0  0  0
  141.5170   79.1750  223.8700 C   0  0  0  0  0  0  0  0  0  0  0  0
  141.4660   77.7500  223.4310 C   0  0  0  0  0  0  0  0  0  0  0  0
  140.5620   77.6450  222.2410 C   0  0  0  0  0  0  0  0  0  0  0  0
  140.2490   76.3000  221.8610 N   0  0  0  0  0  0  0  0  0  0  0  0
  138.9500   75.9190  221.4400 C   0  0  0  0  0  0  0  0  0  0  0  0
  138.0750   76.8490  221.4240 O   0  0  0  0  0  0  0  0  0  0  0  0
  138.5380   74.5800  221.0330 C   0  0  0  0  0  0  0  0  0  0  0  0
  138.6700   73.5420  222.0020 N   0  0  0  0  0  0  0  0  0  0  0  0
  139.9320   73.0050  222.4030 C   0  0  0  0  0  0  0  0  0  0  0  0
  141.0290   73.4280  221.9030 O   0  0  0  0  0  0  0  0  0  0  0  0
  139.9820   71.9320  223.4210 C   0  0  0  0  0  0  0  0  0  0  0  0
  139.5280   70.6710  223.0980 C   0  0  0  0  0  0  0  0  0  0  0  0
  139.5740   69.6520  224.0580 C   0  0  0  0  0  0  0  0  0  0  0  0
  140.0800   69.9420  225.3280 C   0  0  0  0  0  0  0  0  0  0  0  0
  140.1390   68.9550  226.3080 C   0  0  0  0  0  0  0  0  0  0  0  0
  140.6550   69.3230  227.5390 C   0  0  0  0  0  0  0  0  0  0  0  0
  140.7680   68.1450  228.8330 Cl  0  0  0  0  0  0  0  0  0  0  0  0
  141.0960   70.6020  227.8110 C   0  0  0  0  0  0  0  0  0  0  0  0
  141.0370   71.5900  226.8340 C   0  0  0  0  0  0  0  0  0  0  0  0
  140.5230   71.2220  225.6080 C   0  0  0  0  0  0  0  0  0  0  0  0
  140.4630   72.1720  224.6550 N   0  0  0  0  0  0  0  0  0  0  0  0
  141.1950   78.4730  221.1410 C   0  0  0  0  0  0  0  0  0  0  0  0
  141.0740   79.9060  221.6070 C   0  0  0  0  0  0  0  0  0  0  0  0
  143.3142   80.9647  223.8639 H   0  0  0  0  0  0  0  0  0  0  0  0
  143.6849   80.1459  222.3086 H   0  0  0  0  0  0  0  0  0  0  0  0
  142.8831   81.7533  222.3086 H   0  0  0  0  0  0  0  0  0  0  0  0
  142.3558   79.2746  224.5746 H   0  0  0  0  0  0  0  0  0  0  0  0
  140.5234   79.3762  224.2970 H   0  0  0  0  0  0  0  0  0  0  0  0
  142.4763   77.4102  223.1592 H   0  0  0  0  0  0  0  0  0  0  0  0
  141.0842   77.1200  224.2479 H   0  0  0  0  0  0  0  0  0  0  0  0
  139.5668   78.0450  222.4851 H   0  0  0  0  0  0  0  0  0  0  0  0
  141.0080   75.5890  221.9100 H   0  0  0  0  0  0  0  0  0  0  0  0
  137.4779   74.6320  220.7440 H   0  0  0  0  0  0  0  0  0  0  0  0
  139.2257   74.3029  220.2204 H   0  0  0  0  0  0  0  0  0  0  0  0
  137.8270   73.1040  222.4860 H   0  0  0  0  0  0  0  0  0  0  0  0
  139.1320   70.4663  222.0924 H   0  0  0  0  0  0  0  0  0  0  0  0
  139.2176   68.6398  223.8161 H   0  0  0  0  0  0  0  0  0  0  0  0
  139.7916   67.9296  226.1133 H   0  0  0  0  0  0  0  0  0  0  0  0
  141.4968   70.8416  228.8070 H   0  0  0  0  0  0  0  0  0  0  0  0
  141.3836   72.6155  227.0295 H   0  0  0  0  0  0  0  0  0  0  0  0
  142.2519   78.1975  221.0099 H   0  0  0  0  0  0  0  0  0  0  0  0
  140.7037   78.3126  220.1700 H   0  0  0  0  0  0  0  0  0  0  0  0
  141.5481   80.5560  220.8568 H   0  0  0  0  0  0  0  0  0  0  0  0
  140.0006   80.1149  221.7264 H   0  0  0  0  0  0  0  0  0  0  0  0
  1  2  1  0
  2  3  1  0
  3  4  1  0
  4  5  1  0
  5  6  1  0
  6  7  1  0
  7  8  2  0
  7  9  1  0
  9 10  1  0
 10 11  1  0
 11 12  2  0
 11 13  1  0
 13 14  2  0
 14 15  1  0
 15 16  2  0
 16 17  1  0
 17 18  2  0
 18 19  1  0
 18 20  1  0
 20 21  2  0
 21 22  1  0
 22 23  2  0
  5 24  1  0
 24 25  1  0
 25  2  1  0
 23 13  1  0
 22 16  1  0
  1 26  1  0
  1 27  1  0
  1 28  1  0
  3 29  1  0
  3 30  1  0
  4 31  1  0
  4 32  1  0
  5 33  1  0
  6 34  1  0
  9 35  1  0
  9 36  1  0
 10 37  1  0
 14 38  1  0
 15 39  1  0
 17 40  1  0
 20 41  1  0
 21 42  1  0
 24 43  1  0
 24 44  1  0
 25 45  1  0
 25 46  1  0
M  END
>  <smiles>  (18) 
CN1CCC(NC(=O)CNC(=O)c2ccc3cc(Cl)ccc3n2)CC1

>  <score_type>  (18) 
oracle

>  <origin>  (18) 
autodockgpu

>  <m_score__min__energy>  (18) 
-8.3900000000000006

>  <m_primary>  (18) 
energy

>  <rmsd>  (18) 
3.041718031159388

>  <m_score__min__rmsd>  (18) 
3.041718031159388

>  <meeko>  (18) 
{"free_energy": -7.55, "intermolecular_energy": -8.74, "internal_energy": -1.48, "cluster_size": 46, "cluster_id": 1, "rank_in_cluster": 46}

>  <energy>  (18) 
-8.24

>  <cluster_rmsd>  (18) 
0.68

>  <cluster>  (18) 
1

$$$$

     RDKit          3D

 46 48  0  0  0  0  0  0  0  0999 V2000
  140.8180   82.0080  222.3350 C   0  0  0  0  0  0  0  0  0  0  0  0
  141.6210   80.8460  222.5590 N   0  0  0  0  0  0  0  0  0  0  0  0
  142.1550   80.2400  221.4010 C   0  0  0  0  0  0  0  0  0  0  0  0
  141.5720   78.9300  220.9870 C   0  0  0  0  0  0  0  0  0  0  0  0
  141.4440   78.0560  222.1970 C   0  0  0  0  0  0  0  0  0  0  0  0
  141.1100   76.6950  221.9030 N   0  0  0  0  0  0  0  0  0  0  0  0
  139.8340   76.3230  221.4080 C   0  0  0  0  0  0  0  0  0  0  0  0
  139.0010   77.2760  221.2450 O   0  0  0  0  0  0  0  0  0  0  0  0
  139.4030   74.9680  221.0780 C   0  0  0  0  0  0  0  0  0  0  0  0
  139.5290   73.9830  222.1020 N   0  0  0  0  0  0  0  0  0  0  0  0
  139.6370   72.5850  221.8310 C   0  0  0  0  0  0  0  0  0  0  0  0
  139.6210   72.1310  220.6370 O   0  0  0  0  0  0  0  0  0  0  0  0
  139.7710   71.6290  222.9540 C   0  0  0  0  0  0  0  0  0  0  0  0
  139.3710   70.3210  222.7800 C   0  0  0  0  0  0  0  0  0  0  0  0
  139.4970   69.4140  223.8390 C   0  0  0  0  0  0  0  0  0  0  0  0
  140.0260   69.8600  225.0530 C   0  0  0  0  0  0  0  0  0  0  0  0
  140.1650   68.9860  226.1290 C   0  0  0  0  0  0  0  0  0  0  0  0
  140.6980   69.5070  227.2950 C   0  0  0  0  0  0  0  0  0  0  0  0
  140.9090   68.4790  228.7000 Cl  0  0  0  0  0  0  0  0  0  0  0  0
  141.0830   70.8270  227.4170 C   0  0  0  0  0  0  0  0  0  0  0  0
  140.9450   71.7020  226.3440 C   0  0  0  0  0  0  0  0  0  0  0  0
  140.4130   71.1820  225.1820 C   0  0  0  0  0  0  0  0  0  0  0  0
  140.2770   72.0210  224.1380 N   0  0  0  0  0  0  0  0  0  0  0  0
  140.4750   78.7490  223.1330 C   0  0  0  0  0  0  0  0  0  0  0  0
  141.2030   79.9840  223.6110 C   0  0  0  0  0  0  0  0  0  0  0  0
  140.5198   82.4396  223.3019 H   0  0  0  0  0  0  0  0  0  0  0  0
  141.3972   82.7497  221.7654 H   0  0  0  0  0  0  0  0  0  0  0  0
  139.9194   81.7285  221.7654 H   0  0  0  0  0  0  0  0  0  0  0  0
  142.0168   80.9426  220.5660 H   0  0  0  0  0  0  0  0  0  0  0  0
  143.2021   80.0174  221.6542 H   0  0  0  0  0  0  0  0  0  0  0  0
  140.5797   79.0913  220.5405 H   0  0  0  0  0  0  0  0  0  0  0  0
  142.2247   78.4478  220.2444 H   0  0  0  0  0  0  0  0  0  0  0  0
  142.4220   77.9438  222.6879 H   0  0  0  0  0  0  0  0  0  0  0  0
  141.8340   75.9650  222.0710 H   0  0  0  0  0  0  0  0  0  0  0  0
  138.3417   75.0171  220.7930 H   0  0  0  0  0  0  0  0  0  0  0  0
  140.0820   74.6381  220.2779 H   0  0  0  0  0  0  0  0  0  0  0  0
  139.5500   74.2390  223.1360 H   0  0  0  0  0  0  0  0  0  0  0  0
  138.9558   69.9924  221.8158 H   0  0  0  0  0  0  0  0  0  0  0  0
  139.1844   68.3664  223.7173 H   0  0  0  0  0  0  0  0  0  0  0  0
  139.8649   67.9303  226.0551 H   0  0  0  0  0  0  0  0  0  0  0  0
  141.5012   71.1891  228.3678 H   0  0  0  0  0  0  0  0  0  0  0  0
  141.2456   72.7575  226.4185 H   0  0  0  0  0  0  0  0  0  0  0  0
  139.5540   79.0262  222.5992 H   0  0  0  0  0  0  0  0  0  0  0  0
  140.1735   78.0997  223.9681 H   0  0  0  0  0  0  0  0  0  0  0  0
  140.5313   80.5475  224.2752 H   0  0  0  0  0  0  0  0  0  0  0  0
  142.1127   79.6412  224.1257 H   0  0  0  0  0  0  0  0  0  0  0  0
  1  2  1  0
  2  3  1  0
  3  4  1  0
  4  5  1  0
  5  6  1  0
  6  7  1  0
  7  8  2  0
  7  9  1  0
  9 10  1  0
 10 11  1  0
 11 12  2  0
 11 13  1  0
 13 14  2  0
 14 15  1  0
 15 16  2  0
 16 17  1  0
 17 18  2  0
 18 19  1  0
 18 20  1  0
 20 21  2  0
 21 22  1  0
 22 23  2  0
  5 24  1  0
 24 25  1  0
 25  2  1  0
 23 13  1  0
 22 16  1  0
  1 26  1  0
  1 27  1  0
  1 28  1  0
  3 29  1  0
  3 30  1  0
  4 31  1  0
  4 32  1  0
  5 33  1  0
  6 34  1  0
  9 35  1  0
  9 36  1  0
 10 37  1  0
 14 38  1  0
 15 39  1  0
 17 40  1  0
 20 41  1  0
 21 42  1  0
 24 43  1  0
 24 44  1  0
 25 45  1  0
 25 46  1  0
M  END
>  <smiles>  (19) 
CN1CCC(NC(=O)CNC(=O)c2ccc3cc(Cl)ccc3n2)CC1

>  <score_type>  (19) 
oracle

>  <origin>  (19) 
autodockgpu

>  <m_score__min__energy>  (19) 
-8.3900000000000006

>  <m_primary>  (19) 
energy

>  <rmsd>  (19) 
2.3554697020596254

>  <m_score__min__rmsd>  (19) 
2.3554697020596254

>  <meeko>  (19) 
{"free_energy": -8.24, "intermolecular_energy": -9.43, "internal_energy": -0.93, "cluster_size": 46, "cluster_id": 1, "rank_in_cluster": 18}

>  <energy>  (19) 
-8.23

>  <cluster_rmsd>  (19) 
0.68

>  <cluster>  (19) 
1

$$$$

     RDKit          3D

 46 48  0  0  0  0  0  0  0  0999 V2000
  140.8600   82.0350  222.4090 C   0  0  0  0  0  0  0  0  0  0  0  0
  141.6700   80.8680  222.5730 N   0  0  0  0  0  0  0  0  0  0  0  0
  142.1340   80.2740  221.3790 C   0  0  0  0  0  0  0  0  0  0  0  0
  141.5240   78.9700  220.9850 C   0  0  0  0  0  0  0  0  0  0  0  0
  141.4650   78.0820  222.1910 C   0  0  0  0  0  0  0  0  0  0  0  0
  141.1090   76.7260  221.9010 N   0  0  0  0  0  0  0  0  0  0  0  0
  139.8170   76.3670  221.4420 C   0  0  0  0  0  0  0  0  0  0  0  0
  138.9880   77.3290  221.3070 O   0  0  0  0  0  0  0  0  0  0  0  0
  139.3640   75.0180  221.1190 C   0  0  0  0  0  0  0  0  0  0  0  0
  139.5090   74.0280  222.1350 N   0  0  0  0  0  0  0  0  0  0  0  0
  139.6010   72.6300  221.8560 C   0  0  0  0  0  0  0  0  0  0  0  0
  139.5520   72.1810  220.6610 O   0  0  0  0  0  0  0  0  0  0  0  0
  139.7570   71.6690  222.9720 C   0  0  0  0  0  0  0  0  0  0  0  0
  139.3940   70.3520  222.7850 C   0  0  0  0  0  0  0  0  0  0  0  0
  139.5410   69.4390  223.8380 C   0  0  0  0  0  0  0  0  0  0  0  0
  140.0520   69.8900  225.0580 C   0  0  0  0  0  0  0  0  0  0  0  0
  140.2110   69.0110  226.1260 C   0  0  0  0  0  0  0  0  0  0  0  0
  140.7250   69.5370  227.2990 C   0  0  0  0  0  0  0  0  0  0  0  0
  140.9580   68.5030  228.6970 Cl  0  0  0  0  0  0  0  0  0  0  0  0
  141.0720   70.8660  227.4330 C   0  0  0  0  0  0  0  0  0  0  0  0
  140.9150   71.7450  226.3670 C   0  0  0  0  0  0  0  0  0  0  0  0
  140.4020   71.2210  225.1990 C   0  0  0  0  0  0  0  0  0  0  0  0
  140.2470   72.0650  224.1610 N   0  0  0  0  0  0  0  0  0  0  0  0
  140.5530   78.7670  223.1880 C   0  0  0  0  0  0  0  0  0  0  0  0
  141.3120   79.9950  223.6370 C   0  0  0  0  0  0  0  0  0  0  0  0
  140.5845   82.4319  223.3972 H   0  0  0  0  0  0  0  0  0  0  0  0
  141.4241   82.7975  221.8518 H   0  0  0  0  0  0  0  0  0  0  0  0
  139.9484   81.7733  221.8518 H   0  0  0  0  0  0  0  0  0  0  0  0
  141.9495   80.9863  220.5614 H   0  0  0  0  0  0  0  0  0  0  0  0
  143.1934   80.0462  221.5682 H   0  0  0  0  0  0  0  0  0  0  0  0
  140.5076   79.1385  220.5995 H   0  0  0  0  0  0  0  0  0  0  0  0
  142.1305   78.4951  220.1997 H   0  0  0  0  0  0  0  0  0  0  0  0
  142.4693   77.9613  222.6231 H   0  0  0  0  0  0  0  0  0  0  0  0
  141.8310   75.9890  222.0450 H   0  0  0  0  0  0  0  0  0  0  0  0
  138.2957   75.0784  220.8640 H   0  0  0  0  0  0  0  0  0  0  0  0
  140.0171   74.6849  220.2989 H   0  0  0  0  0  0  0  0  0  0  0  0
  139.5570   74.2790  223.1700 H   0  0  0  0  0  0  0  0  0  0  0  0
  138.9919   70.0204  221.8163 H   0  0  0  0  0  0  0  0  0  0  0  0
  139.2586   68.3841  223.7063 H   0  0  0  0  0  0  0  0  0  0  0  0
  139.9408   67.9480  226.0417 H   0  0  0  0  0  0  0  0  0  0  0  0
  141.4752   71.2321  228.3887 H   0  0  0  0  0  0  0  0  0  0  0  0
  141.1870   72.8075  226.4513 H   0  0  0  0  0  0  0  0  0  0  0  0
  139.6041   79.0526  222.7105 H   0  0  0  0  0  0  0  0  0  0  0  0
  140.2969   78.1094  224.0318 H   0  0  0  0  0  0  0  0  0  0  0  0
  140.6822   80.5522  224.3461 H   0  0  0  0  0  0  0  0  0  0  0  0
  142.2493   79.6439  224.0932 H   0  0  0  0  0  0  0  0  0  0  0  0
  1  2  1  0
  2  3  1  0
  3  4  1  0
  4  5  1  0
  5  6  1  0
  6  7  1  0
  7  8  2  0
  7  9  1  0
  9 10  1  0
 10 11  1  0
 11 12  2  0
 11 13  1  0
 13 14  2  0
 14 15  1  0
 15 16  2  0
 16 17  1  0
 17 18  2  0
 18 19  1  0
 18 20  1  0
 20 21  2  0
 21 22  1  0
 22 23  2  0
  5 24  1  0
 24 25  1  0
 25  2  1  0
 23 13  1  0
 22 16  1  0
  1 26  1  0
  1 27  1  0
  1 28  1  0
  3 29  1  0
  3 30  1  0
  4 31  1  0
  4 32  1  0
  5 33  1  0
  6 34  1  0
  9 35  1  0
  9 36  1  0
 10 37  1  0
 14 38  1  0
 15 39  1  0
 17 40  1  0
 20 41  1  0
 21 42  1  0
 24 43  1  0
 24 44  1  0
 25 45  1  0
 25 46  1  0
M  END
>  <smiles>  (20) 
CN1CCC(NC(=O)CNC(=O)c2ccc3cc(Cl)ccc3n2)CC1

>  <score_type>  (20) 
oracle

>  <origin>  (20) 
autodockgpu

>  <m_score__min__energy>  (20) 
-8.3900000000000006

>  <m_primary>  (20) 
energy

>  <rmsd>  (20) 
2.368705289294051

>  <m_score__min__rmsd>  (20) 
2.368705289294051

>  <meeko>  (20) 
{"free_energy": -8.17, "intermolecular_energy": -9.37, "internal_energy": -0.96, "cluster_size": 46, "cluster_id": 1, "rank_in_cluster": 23}

>  <energy>  (20) 
-8.2

>  <cluster_rmsd>  (20) 
0.67

>  <cluster>  (20) 
1

$$$$

     RDKit          3D

 46 48  0  0  0  0  0  0  0  0999 V2000
  143.3160   80.5250  222.8960 C   0  0  0  0  0  0  0  0  0  0  0  0
  141.9830   80.0150  222.8050 N   0  0  0  0  0  0  0  0  0  0  0  0
  141.5990   79.1220  223.8290 C   0  0  0  0  0  0  0  0  0  0  0  0
  141.4540   77.6830  223.4590 C   0  0  0  0  0  0  0  0  0  0  0  0
  140.6880   77.5920  222.1750 C   0  0  0  0  0  0  0  0  0  0  0  0
  140.2850   76.2620  221.8280 N   0  0  0  0  0  0  0  0  0  0  0  0
  138.9560   75.9530  221.4420 C   0  0  0  0  0  0  0  0  0  0  0  0
  138.1400   76.9340  221.4270 O   0  0  0  0  0  0  0  0  0  0  0  0
  138.4540   74.6340  221.0710 C   0  0  0  0  0  0  0  0  0  0  0  0
  138.6220   73.5880  222.0250 N   0  0  0  0  0  0  0  0  0  0  0  0
  139.8950   73.0310  222.3590 C   0  0  0  0  0  0  0  0  0  0  0  0
  140.9710   73.4430  221.8060 O   0  0  0  0  0  0  0  0  0  0  0  0
  139.9810   71.9510  223.3670 C   0  0  0  0  0  0  0  0  0  0  0  0
  139.5420   70.6850  223.0400 C   0  0  0  0  0  0  0  0  0  0  0  0
  139.6230   69.6590  223.9910 C   0  0  0  0  0  0  0  0  0  0  0  0
  140.1470   69.9470  225.2540 C   0  0  0  0  0  0  0  0  0  0  0  0
  140.2420   68.9530  226.2240 C   0  0  0  0  0  0  0  0  0  0  0  0
  140.7740   69.3200  227.4480 C   0  0  0  0  0  0  0  0  0  0  0  0
  140.9310   68.1320  228.7290 Cl  0  0  0  0  0  0  0  0  0  0  0  0
  141.1980   70.6030  227.7240 C   0  0  0  0  0  0  0  0  0  0  0  0
  141.1050   71.5990  226.7560 C   0  0  0  0  0  0  0  0  0  0  0  0
  140.5740   71.2320  225.5360 C   0  0  0  0  0  0  0  0  0  0  0  0
  140.4810   72.1890  224.5940 N   0  0  0  0  0  0  0  0  0  0  0  0
  141.5250   78.2850  221.1200 C   0  0  0  0  0  0  0  0  0  0  0  0
  141.4980   79.7490  221.4940 C   0  0  0  0  0  0  0  0  0  0  0  0
  143.5961   80.6322  223.9543 H   0  0  0  0  0  0  0  0  0  0  0  0
  144.0095   79.8287  222.4018 H   0  0  0  0  0  0  0  0  0  0  0  0
  143.3676   81.5064  222.4018 H   0  0  0  0  0  0  0  0  0  0  0  0
  142.3564   79.1847  224.6243 H   0  0  0  0  0  0  0  0  0  0  0  0
  140.5885   79.4432  224.1218 H   0  0  0  0  0  0  0  0  0  0  0  0
  142.4489   77.2321  223.3292 H   0  0  0  0  0  0  0  0  0  0  0  0
  140.9181   77.1438  224.2541 H   0  0  0  0  0  0  0  0  0  0  0  0
  139.7178   78.1005  222.2762 H   0  0  0  0  0  0  0  0  0  0  0  0
  141.0000   75.5060  221.8750 H   0  0  0  0  0  0  0  0  0  0  0  0
  137.3766   74.7324  220.8721 H   0  0  0  0  0  0  0  0  0  0  0  0
  139.0586   74.3307  220.2036 H   0  0  0  0  0  0  0  0  0  0  0  0
  137.7980   73.1590  222.5480 H   0  0  0  0  0  0  0  0  0  0  0  0
  139.1313   70.4822  222.0399 H   0  0  0  0  0  0  0  0  0  0  0  0
  139.2795   68.6429  223.7471 H   0  0  0  0  0  0  0  0  0  0  0  0
  139.9095   67.9232  226.0268 H   0  0  0  0  0  0  0  0  0  0  0  0
  141.6121   70.8407  228.7150 H   0  0  0  0  0  0  0  0  0  0  0  0
  141.4384   72.6284  226.9537 H   0  0  0  0  0  0  0  0  0  0  0  0
  142.5562   77.9023  221.1325 H   0  0  0  0  0  0  0  0  0  0  0  0
  141.1355   78.1117  220.1059 H   0  0  0  0  0  0  0  0  0  0  0  0
  142.1200   80.3023  220.7750 H   0  0  0  0  0  0  0  0  0  0  0  0
  140.4451   80.0666  221.4709 H   0  0  0  0  0  0  0  0  0  0  0  0
  1  2  1  0
  2  3  1  0
  3  4  1  0
  4  5  1  0
  5  6  1  0
  6  7  1  0
  7  8  2  0
  7  9  1  0
  9 10  1  0
 10 11  1  0
 11 12  2  0
 11 13  1  0
 13 14  2  0
 14 15  1  0
 15 16  2  0
 16 17  1  0
 17 18  2  0
 18 19  1  0
 18 20  1  0
 20 21  2  0
 21 22  1  0
 22 23  2  0
  5 24  1  0
 24 25  1  0
 25  2  1  0
 23 13  1  0
 22 16  1  0
  1 26  1  0
  1 27  1  0
  1 28  1  0
  3 29  1  0
  3 30  1  0
  4 31  1  0
  4 32  1  0
  5 33  1  0
  6 34  1  0
  9 35  1  0
  9 36  1  0
 10 37  1  0
 14 38  1  0
 15 39  1  0
 17 40  1  0
 20 41  1  0
 21 42  1  0
 24 43  1  0
 24 44  1  0
 25 45  1  0
 25 46  1  0
M  END
>  <smiles>  (21) 
CN1CCC(NC(=O)CNC(=O)c2ccc3cc(Cl)ccc3n2)CC1

>  <score_type>  (21) 
oracle

>  <origin>  (21) 
autodockgpu

>  <m_score__min__energy>  (21) 
-8.3900000000000006

>  <m_primary>  (21) 
energy

>  <rmsd>  (21) 
3.0475507143357836

>  <m_score__min__rmsd>  (21) 
3.0475507143357836

>  <meeko>  (21) 
{"free_energy": -7.62, "intermolecular_energy": -8.81, "internal_energy": -1.49, "cluster_size": 46, "cluster_id": 1, "rank_in_cluster": 40}

>  <energy>  (21) 
-8.2

>  <cluster_rmsd>  (21) 
0.62

>  <cluster>  (21) 
1

$$$$

     RDKit          3D

 46 48  0  0  0  0  0  0  0  0999 V2000
  141.1600   81.2790  222.7700 C   0  0  0  0  0  0  0  0  0  0  0  0
  141.9130   80.1510  222.3160 N   0  0  0  0  0  0  0  0  0  0  0  0
  141.7620   79.8260  220.9500 C   0  0  0  0  0  0  0  0  0  0  0  0
  140.9920   78.5900  220.6250 C   0  0  0  0  0  0  0  0  0  0  0  0
  141.4540   77.4840  221.5250 C   0  0  0  0  0  0  0  0  0  0  0  0
  140.9560   76.1910  221.1650 N   0  0  0  0  0  0  0  0  0  0  0  0
  141.7580   75.2360  220.4900 C   0  0  0  0  0  0  0  0  0  0  0  0
  142.9500   75.6030  220.2190 O   0  0  0  0  0  0  0  0  0  0  0  0
  141.3410   73.8970  220.0860 C   0  0  0  0  0  0  0  0  0  0  0  0
  141.2100   72.9230  221.1190 N   0  0  0  0  0  0  0  0  0  0  0  0
  140.3090   73.0670  222.2180 C   0  0  0  0  0  0  0  0  0  0  0  0
  139.5630   74.0970  222.3410 O   0  0  0  0  0  0  0  0  0  0  0  0
  140.2310   72.0040  223.2460 C   0  0  0  0  0  0  0  0  0  0  0  0
  139.6780   70.7850  222.9170 C   0  0  0  0  0  0  0  0  0  0  0  0
  139.6030   69.7770  223.8870 C   0  0  0  0  0  0  0  0  0  0  0  0
  140.0920   70.0340  225.1700 C   0  0  0  0  0  0  0  0  0  0  0  0
  140.0330   69.0560  226.1590 C   0  0  0  0  0  0  0  0  0  0  0  0
  140.5400   69.3900  227.4030 C   0  0  0  0  0  0  0  0  0  0  0  0
  140.5070   68.2200  228.7090 Cl  0  0  0  0  0  0  0  0  0  0  0  0
  141.0830   70.6280  227.6800 C   0  0  0  0  0  0  0  0  0  0  0  0
  141.1430   71.6070  226.6940 C   0  0  0  0  0  0  0  0  0  0  0  0
  140.6380   71.2730  225.4540 C   0  0  0  0  0  0  0  0  0  0  0  0
  140.6930   72.2140  224.4930 N   0  0  0  0  0  0  0  0  0  0  0  0
  141.1210   77.9100  222.9400 C   0  0  0  0  0  0  0  0  0  0  0  0
  142.0450   79.0700  223.2310 C   0  0  0  0  0  0  0  0  0  0  0  0
  141.1497   81.2944  223.8698 H   0  0  0  0  0  0  0  0  0  0  0  0
  141.6226   82.2038  222.3947 H   0  0  0  0  0  0  0  0  0  0  0  0
  140.1286   81.2064  222.3947 H   0  0  0  0  0  0  0  0  0  0  0  0
  141.2530   80.6708  220.4630 H   0  0  0  0  0  0  0  0  0  0  0  0
  142.7826   79.6273  220.5910 H   0  0  0  0  0  0  0  0  0  0  0  0
  139.9184   78.7709  220.7823 H   0  0  0  0  0  0  0  0  0  0  0  0
  141.1579   78.3112  219.5739 H   0  0  0  0  0  0  0  0  0  0  0  0
  142.5398   77.3403  221.4231 H   0  0  0  0  0  0  0  0  0  0  0  0
  139.9690   75.9620  221.4060 H   0  0  0  0  0  0  0  0  0  0  0  0
  140.3635   73.9889  219.5900 H   0  0  0  0  0  0  0  0  0  0  0  0
  142.1526   73.5257  219.4430 H   0  0  0  0  0  0  0  0  0  0  0  0
  141.7830   72.0240  221.1290 H   0  0  0  0  0  0  0  0  0  0  0  0
  139.2984   70.6050  221.9004 H   0  0  0  0  0  0  0  0  0  0  0  0
  139.1656   68.7979  223.6420 H   0  0  0  0  0  0  0  0  0  0  0  0
  139.6031   68.0631  225.9609 H   0  0  0  0  0  0  0  0  0  0  0  0
  141.4708   70.8419  228.6869 H   0  0  0  0  0  0  0  0  0  0  0  0
  141.5724   72.6000  226.8931 H   0  0  0  0  0  0  0  0  0  0  0  0
  140.0699   78.2267  223.0105 H   0  0  0  0  0  0  0  0  0  0  0  0
  141.2529   77.0882  223.6592 H   0  0  0  0  0  0  0  0  0  0  0  0
  141.8261   79.4428  224.2425 H   0  0  0  0  0  0  0  0  0  0  0  0
  143.0738   78.6926  223.1356 H   0  0  0  0  0  0  0  0  0  0  0  0
  1  2  1  0
  2  3  1  0
  3  4  1  0
  4  5  1  0
  5  6  1  0
  6  7  1  0
  7  8  2  0
  7  9  1  0
  9 10  1  0
 10 11  1  0
 11 12  2  0
 11 13  1  0
 13 14  2  0
 14 15  1  0
 15 16  2  0
 16 17  1  0
 17 18  2  0
 18 19  1  0
 18 20  1  0
 20 21  2  0
 21 22  1  0
 22 23  2  0
  5 24  1  0
 24 25  1  0
 25  2  1  0
 23 13  1  0
 22 16  1  0
  1 26  1  0
  1 27  1  0
  1 28  1  0
  3 29  1  0
  3 30  1  0
  4 31  1  0
  4 32  1  0
  5 33  1  0
  6 34  1  0
  9 35  1  0
  9 36  1  0
 10 37  1  0
 14 38  1  0
 15 39  1  0
 17 40  1  0
 20 41  1  0
 21 42  1  0
 24 43  1  0
 24 44  1  0
 25 45  1  0
 25 46  1  0
M  END
>  <smiles>  (22) 
CN1CCC(NC(=O)CNC(=O)c2ccc3cc(Cl)ccc3n2)CC1

>  <score_type>  (22) 
oracle

>  <origin>  (22) 
autodockgpu

>  <m_score__min__energy>  (22) 
-8.3900000000000006

>  <m_primary>  (22) 
energy

>  <rmsd>  (22) 
2.5731440955431406

>  <m_score__min__rmsd>  (22) 
2.5731440955431406

>  <meeko>  (22) 
{"free_energy": -7.55, "intermolecular_energy": -8.74, "internal_energy": -1.47, "cluster_size": 46, "cluster_id": 1, "rank_in_cluster": 45}

>  <energy>  (22) 
-8.19

>  <cluster_rmsd>  (22) 
1.09

>  <cluster>  (22) 
1

$$$$

     RDKit          3D

 46 48  0  0  0  0  0  0  0  0999 V2000
  141.4450   82.3680  222.2300 C   0  0  0  0  0  0  0  0  0  0  0  0
  141.0470   81.2000  222.9540 N   0  0  0  0  0  0  0  0  0  0  0  0
  142.0970   80.3510  223.3660 C   0  0  0  0  0  0  0  0  0  0  0  0
  142.2320   79.0430  222.6590 C   0  0  0  0  0  0  0  0  0  0  0  0
  140.8760   78.4170  222.5420 C   0  0  0  0  0  0  0  0  0  0  0  0
  140.8960   77.0590  222.0860 N   0  0  0  0  0  0  0  0  0  0  0  0
  139.7070   76.3400  221.8100 C   0  0  0  0  0  0  0  0  0  0  0  0
  138.6160   76.9760  221.9960 O   0  0  0  0  0  0  0  0  0  0  0  0
  139.6270   74.9600  221.3410 C   0  0  0  0  0  0  0  0  0  0  0  0
  139.6850   73.9370  222.3330 N   0  0  0  0  0  0  0  0  0  0  0  0
  139.9200   72.5620  222.0240 C   0  0  0  0  0  0  0  0  0  0  0  0
  140.0870   72.1650  220.8210 O   0  0  0  0  0  0  0  0  0  0  0  0
  139.9710   71.5640  223.1160 C   0  0  0  0  0  0  0  0  0  0  0  0
  139.5190   70.2820  222.8830 C   0  0  0  0  0  0  0  0  0  0  0  0
  139.5670   69.3350  223.9140 C   0  0  0  0  0  0  0  0  0  0  0  0
  140.0730   69.7150  225.1600 C   0  0  0  0  0  0  0  0  0  0  0  0
  140.1340   68.8000  226.2070 C   0  0  0  0  0  0  0  0  0  0  0  0
  140.6500   69.2560  227.4090 C   0  0  0  0  0  0  0  0  0  0  0  0
  140.7650   68.1720  228.7830 Cl  0  0  0  0  0  0  0  0  0  0  0  0
  141.0890   70.5520  227.5890 C   0  0  0  0  0  0  0  0  0  0  0  0
  141.0280   71.4680  226.5440 C   0  0  0  0  0  0  0  0  0  0  0  0
  140.5140   71.0120  225.3480 C   0  0  0  0  0  0  0  0  0  0  0  0
  140.4530   71.8920  224.3300 N   0  0  0  0  0  0  0  0  0  0  0  0
  140.0400   79.3490  221.6900 C   0  0  0  0  0  0  0  0  0  0  0  0
  139.8350   80.5830  222.5390 C   0  0  0  0  0  0  0  0  0  0  0  0
  141.7163   83.1641  222.9389 H   0  0  0  0  0  0  0  0  0  0  0  0
  142.3125   82.1293  221.5972 H   0  0  0  0  0  0  0  0  0  0  0  0
  140.6122   82.7087  221.5972 H   0  0  0  0  0  0  0  0  0  0  0  0
  143.0402   80.9003  223.2293 H   0  0  0  0  0  0  0  0  0  0  0  0
  141.8582   80.0881  224.4071 H   0  0  0  0  0  0  0  0  0  0  0  0
  142.6519   79.2064  221.6555 H   0  0  0  0  0  0  0  0  0  0  0  0
  142.9032   78.3795  223.2241 H   0  0  0  0  0  0  0  0  0  0  0  0
  140.4207   78.3111  223.5377 H   0  0  0  0  0  0  0  0  0  0  0  0
  141.8220   76.5970  221.9680 H   0  0  0  0  0  0  0  0  0  0  0  0
  138.6747   74.8468  220.8022 H   0  0  0  0  0  0  0  0  0  0  0  0
  140.5268   74.8138  220.7253 H   0  0  0  0  0  0  0  0  0  0  0  0
  139.5560   74.1440  223.3710 H   0  0  0  0  0  0  0  0  0  0  0  0
  139.1236   70.0051  221.8946 H   0  0  0  0  0  0  0  0  0  0  0  0
  139.2118   68.3077  223.7454 H   0  0  0  0  0  0  0  0  0  0  0  0
  139.7885   67.7628  226.0856 H   0  0  0  0  0  0  0  0  0  0  0  0
  141.4897   70.8626  228.5652 H   0  0  0  0  0  0  0  0  0  0  0  0
  141.3728   72.5055  226.6655 H   0  0  0  0  0  0  0  0  0  0  0  0
  140.5713   79.6035  220.7610 H   0  0  0  0  0  0  0  0  0  0  0  0
  139.0853   78.8902  221.3932 H   0  0  0  0  0  0  0  0  0  0  0  0
  139.2557   81.3136  221.9554 H   0  0  0  0  0  0  0  0  0  0  0  0
  139.3096   80.2620  223.4505 H   0  0  0  0  0  0  0  0  0  0  0  0
  1  2  1  0
  2  3  1  0
  3  4  1  0
  4  5  1  0
  5  6  1  0
  6  7  1  0
  7  8  2  0
  7  9  1  0
  9 10  1  0
 10 11  1  0
 11 12  2  0
 11 13  1  0
 13 14  2  0
 14 15  1  0
 15 16  2  0
 16 17  1  0
 17 18  2  0
 18 19  1  0
 18 20  1  0
 20 21  2  0
 21 22  1  0
 22 23  2  0
  5 24  1  0
 24 25  1  0
 25  2  1  0
 23 13  1  0
 22 16  1  0
  1 26  1  0
  1 27  1  0
  1 28  1  0
  3 29  1  0
  3 30  1  0
  4 31  1  0
  4 32  1  0
  5 33  1  0
  6 34  1  0
  9 35  1  0
  9 36  1  0
 10 37  1  0
 14 38  1  0
 15 39  1  0
 17 40  1  0
 20 41  1  0
 21 42  1  0
 24 43  1  0
 24 44  1  0
 25 45  1  0
 25 46  1  0
M  END
>  <smiles>  (23) 
CN1CCC(NC(=O)CNC(=O)c2ccc3cc(Cl)ccc3n2)CC1

>  <score_type>  (23) 
oracle

>  <origin>  (23) 
autodockgpu

>  <m_score__min__energy>  (23) 
-8.3900000000000006

>  <m_primary>  (23) 
energy

>  <rmsd>  (23) 
2.993146821036185

>  <m_score__min__rmsd>  (23) 
2.993146821036185

>  <meeko>  (23) 
{"free_energy": -8.39, "intermolecular_energy": -9.58, "internal_energy": -0.81, "cluster_size": 46, "cluster_id": 1, "rank_in_cluster": 1}

>  <energy>  (23) 
-8.17

>  <cluster_rmsd>  (23) 
0.67

>  <cluster>  (23) 
1

$$$$

     RDKit          3D

 46 48  0  0  0  0  0  0  0  0999 V2000
  143.1740   80.4490  222.9040 C   0  0  0  0  0  0  0  0  0  0  0  0
  141.8910   79.9720  222.4880 N   0  0  0  0  0  0  0  0  0  0  0  0
  141.2150   79.1510  223.4170 C   0  0  0  0  0  0  0  0  0  0  0  0
  141.1100   77.6980  223.0930 C   0  0  0  0  0  0  0  0  0  0  0  0
  140.7050   77.5540  221.6570 C   0  0  0  0  0  0  0  0  0  0  0  0
  140.3510   76.2180  221.2820 N   0  0  0  0  0  0  0  0  0  0  0  0
  139.0010   75.7990  221.1730 C   0  0  0  0  0  0  0  0  0  0  0  0
  138.1200   76.6850  221.4350 O   0  0  0  0  0  0  0  0  0  0  0  0
  138.5440   74.4650  220.7960 C   0  0  0  0  0  0  0  0  0  0  0  0
  138.6700   73.4380  221.7780 N   0  0  0  0  0  0  0  0  0  0  0  0
  139.9240   73.0440  222.3390 C   0  0  0  0  0  0  0  0  0  0  0  0
  141.0200   73.5950  221.9810 O   0  0  0  0  0  0  0  0  0  0  0  0
  139.9660   71.9730  223.3590 C   0  0  0  0  0  0  0  0  0  0  0  0
  139.5000   70.7150  223.0390 C   0  0  0  0  0  0  0  0  0  0  0  0
  139.5400   69.6980  224.0010 C   0  0  0  0  0  0  0  0  0  0  0  0
  140.0500   69.9860  225.2700 C   0  0  0  0  0  0  0  0  0  0  0  0
  140.1030   69.0000  226.2520 C   0  0  0  0  0  0  0  0  0  0  0  0
  140.6250   69.3670  227.4810 C   0  0  0  0  0  0  0  0  0  0  0  0
  140.7300   68.1900  228.7770 Cl  0  0  0  0  0  0  0  0  0  0  0  0
  141.0770   70.6430  227.7500 C   0  0  0  0  0  0  0  0  0  0  0  0
  141.0250   71.6290  226.7700 C   0  0  0  0  0  0  0  0  0  0  0  0
  140.5050   71.2630  225.5460 C   0  0  0  0  0  0  0  0  0  0  0  0
  140.4520   72.2110  224.5920 N   0  0  0  0  0  0  0  0  0  0  0  0
  141.8180   78.1610  220.8290 C   0  0  0  0  0  0  0  0  0  0  0  0
  141.7560   79.6450  221.1110 C   0  0  0  0  0  0  0  0  0  0  0  0
  143.2202   80.4662  224.0029 H   0  0  0  0  0  0  0  0  0  0  0  0
  143.9571   79.7820  222.5145 H   0  0  0  0  0  0  0  0  0  0  0  0
  143.3312   81.4656  222.5145 H   0  0  0  0  0  0  0  0  0  0  0  0
  141.7403   79.2383  224.3795 H   0  0  0  0  0  0  0  0  0  0  0  0
  140.1778   79.5172  223.4170 H   0  0  0  0  0  0  0  0  0  0  0  0
  142.0835   77.2116  223.2536 H   0  0  0  0  0  0  0  0  0  0  0  0
  140.3611   77.2221  223.7432 H   0  0  0  0  0  0  0  0  0  0  0  0
  139.7651   78.0946  221.4718 H   0  0  0  0  0  0  0  0  0  0  0  0
  141.1200   75.5420  221.0940 H   0  0  0  0  0  0  0  0  0  0  0  0
  137.4794   74.5414  220.5298 H   0  0  0  0  0  0  0  0  0  0  0  0
  139.2056   74.1573  219.9729 H   0  0  0  0  0  0  0  0  0  0  0  0
  137.8280   72.9030  222.1520 H   0  0  0  0  0  0  0  0  0  0  0  0
  139.0996   70.5118  222.0348 H   0  0  0  0  0  0  0  0  0  0  0  0
  139.1756   68.6881  223.7616 H   0  0  0  0  0  0  0  0  0  0  0  0
  139.7467   67.9771  226.0603 H   0  0  0  0  0  0  0  0  0  0  0  0
  141.4807   70.8817  228.7450 H   0  0  0  0  0  0  0  0  0  0  0  0
  141.3816   72.6517  226.9621 H   0  0  0  0  0  0  0  0  0  0  0  0
  142.7925   77.7509  221.1325 H   0  0  0  0  0  0  0  0  0  0  0  0
  141.7013   77.9404  219.7577 H   0  0  0  0  0  0  0  0  0  0  0  0
  142.5677   80.1380  220.5559 H   0  0  0  0  0  0  0  0  0  0  0  0
  140.7606   79.9906  220.7950 H   0  0  0  0  0  0  0  0  0  0  0  0
  1  2  1  0
  2  3  1  0
  3  4  1  0
  4  5  1  0
  5  6  1  0
  6  7  1  0
  7  8  2  0
  7  9  1  0
  9 10  1  0
 10 11  1  0
 11 12  2  0
 11 13  1  0
 13 14  2  0
 14 15  1  0
 15 16  2  0
 16 17  1  0
 17 18  2  0
 18 19  1  0
 18 20  1  0
 20 21  2  0
 21 22  1  0
 22 23  2  0
  5 24  1  0
 24 25  1  0
 25  2  1  0
 23 13  1  0
 22 16  1  0
  1 26  1  0
  1 27  1  0
  1 28  1  0
  3 29  1  0
  3 30  1  0
  4 31  1  0
  4 32  1  0
  5 33  1  0
  6 34  1  0
  9 35  1  0
  9 36  1  0
 10 37  1  0
 14 38  1  0
 15 39  1  0
 17 40  1  0
 20 41  1  0
 21 42  1  0
 24 43  1  0
 24 44  1  0
 25 45  1  0
 25 46  1  0
M  END
>  <smiles>  (24) 
CN1CCC(NC(=O)CNC(=O)c2ccc3cc(Cl)ccc3n2)CC1

>  <score_type>  (24) 
oracle

>  <origin>  (24) 
autodockgpu

>  <m_score__min__energy>  (24) 
-8.3900000000000006

>  <m_primary>  (24) 
energy

>  <rmsd>  (24) 
2.8943485840134753

>  <m_score__min__rmsd>  (24) 
2.8943485840134753

>  <meeko>  (24) 
{"free_energy": -7.58, "intermolecular_energy": -8.78, "internal_energy": -1.48, "cluster_size": 46, "cluster_id": 1, "rank_in_cluster": 42}

>  <energy>  (24) 
-8.07

>  <cluster_rmsd>  (24) 
0.7

>  <cluster>  (24) 
1

$$$$

     RDKit          3D

 46 48  0  0  0  0  0  0  0  0999 V2000
  140.7270   82.0310  222.3450 C   0  0  0  0  0  0  0  0  0  0  0  0
  141.5000   80.8800  222.6960 N   0  0  0  0  0  0  0  0  0  0  0  0
  142.1930   80.2620  221.6320 C   0  0  0  0  0  0  0  0  0  0  0  0
  141.6830   78.9410  221.1630 C   0  0  0  0  0  0  0  0  0  0  0  0
  141.3980   78.0830  222.3580 C   0  0  0  0  0  0  0  0  0  0  0  0
  141.1180   76.7150  222.0430 N   0  0  0  0  0  0  0  0  0  0  0  0
  139.9030   76.3160  221.4320 C   0  0  0  0  0  0  0  0  0  0  0  0
  139.0710   77.2520  221.1850 O   0  0  0  0  0  0  0  0  0  0  0  0
  139.5300   74.9520  221.0720 C   0  0  0  0  0  0  0  0  0  0  0  0
  139.5980   73.9700  222.1040 N   0  0  0  0  0  0  0  0  0  0  0  0
  139.7080   72.5700  221.8440 C   0  0  0  0  0  0  0  0  0  0  0  0
  139.7460   72.1110  220.6520 O   0  0  0  0  0  0  0  0  0  0  0  0
  139.7800   71.6170  222.9750 C   0  0  0  0  0  0  0  0  0  0  0  0
  139.2850   70.3400  222.8170 C   0  0  0  0  0  0  0  0  0  0  0  0
  139.3530   69.4360  223.8850 C   0  0  0  0  0  0  0  0  0  0  0  0
  139.9210   69.8540  225.0910 C   0  0  0  0  0  0  0  0  0  0  0  0
  140.0040   68.9830  226.1740 C   0  0  0  0  0  0  0  0  0  0  0  0
  140.5830   69.4750  227.3320 C   0  0  0  0  0  0  0  0  0  0  0  0
  140.7280   68.4470  228.7460 Cl  0  0  0  0  0  0  0  0  0  0  0  0
  141.0630   70.7640  227.4370 C   0  0  0  0  0  0  0  0  0  0  0  0
  140.9810   71.6370  226.3570 C   0  0  0  0  0  0  0  0  0  0  0  0
  140.4040   71.1460  225.2040 C   0  0  0  0  0  0  0  0  0  0  0  0
  140.3220   71.9830  224.1520 N   0  0  0  0  0  0  0  0  0  0  0  0
  140.3040   78.7800  223.1410 C   0  0  0  0  0  0  0  0  0  0  0  0
  140.9500   80.0300  223.6940 C   0  0  0  0  0  0  0  0  0  0  0  0
  140.3869   82.5374  223.2604 H   0  0  0  0  0  0  0  0  0  0  0  0
  141.3454   82.7212  221.7523 H   0  0  0  0  0  0  0  0  0  0  0  0
  139.8542   81.7197  221.7523 H   0  0  0  0  0  0  0  0  0  0  0  0
  142.1656   80.9507  220.7748 H   0  0  0  0  0  0  0  0  0  0  0  0
  143.1969   80.0534  222.0304 H   0  0  0  0  0  0  0  0  0  0  0  0
  140.7597   79.0857  220.5828 H   0  0  0  0  0  0  0  0  0  0  0  0
  142.4349   78.4549  220.5239 H   0  0  0  0  0  0  0  0  0  0  0  0
  142.3006   77.9875  222.9794 H   0  0  0  0  0  0  0  0  0  0  0  0
  141.8370   76.0000  222.2830 H   0  0  0  0  0  0  0  0  0  0  0  0
  138.4933   74.9770  220.7051 H   0  0  0  0  0  0  0  0  0  0  0  0
  140.2768   74.6378  220.3280 H   0  0  0  0  0  0  0  0  0  0  0  0
  139.5710   74.2290  223.1380 H   0  0  0  0  0  0  0  0  0  0  0  0
  138.8398   70.0331  221.8591 H   0  0  0  0  0  0  0  0  0  0  0  0
  138.9650   68.4125  223.7757 H   0  0  0  0  0  0  0  0  0  0  0  0
  139.6270   67.9514  226.1128 H   0  0  0  0  0  0  0  0  0  0  0  0
  141.5137   71.1039  228.3811 H   0  0  0  0  0  0  0  0  0  0  0  0
  141.3579   72.6686  226.4193 H   0  0  0  0  0  0  0  0  0  0  0  0
  139.4627   79.0396  222.4816 H   0  0  0  0  0  0  0  0  0  0  0  0
  139.8960   78.1403  223.9374 H   0  0  0  0  0  0  0  0  0  0  0  0
  140.1893   80.5963  224.2514 H   0  0  0  0  0  0  0  0  0  0  0  0
  141.7839   79.7043  224.3332 H   0  0  0  0  0  0  0  0  0  0  0  0
  1  2  1  0
  2  3  1  0
  3  4  1  0
  4  5  1  0
  5  6  1  0
  6  7  1  0
  7  8  2  0
  7  9  1  0
  9 10  1  0
 10 11  1  0
 11 12  2  0
 11 13  1  0
 13 14  2  0
 14 15  1  0
 15 16  2  0
 16 17  1  0
 17 18  2  0
 18 19  1  0
 18 20  1  0
 20 21  2  0
 21 22  1  0
 22 23  2  0
  5 24  1  0
 24 25  1  0
 25  2  1  0
 23 13  1  0
 22 16  1  0
  1 26  1  0
  1 27  1  0
  1 28  1  0
  3 29  1  0
  3 30  1  0
  4 31  1  0
  4 32  1  0
  5 33  1  0
  6 34  1  0
  9 35  1  0
  9 36  1  0
 10 37  1  0
 14 38  1  0
 15 39  1  0
 17 40  1  0
 20 41  1  0
 21 42  1  0
 24 43  1  0
 24 44  1  0
 25 45  1  0
 25 46  1  0
M  END
>  <smiles>  (25) 
CN1CCC(NC(=O)CNC(=O)c2ccc3cc(Cl)ccc3n2)CC1

>  <score_type>  (25) 
oracle

>  <origin>  (25) 
autodockgpu

>  <m_score__min__energy>  (25) 
-8.3900000000000006

>  <m_primary>  (25) 
energy

>  <rmsd>  (25) 
2.426225731239812

>  <m_score__min__rmsd>  (25) 
2.426225731239812

>  <meeko>  (25) 
{"free_energy": -8.28, "intermolecular_energy": -9.47, "internal_energy": -0.88, "cluster_size": 46, "cluster_id": 1, "rank_in_cluster": 11}

>  <energy>  (25) 
-7.99

>  <cluster_rmsd>  (25) 
1.03

>  <cluster>  (25) 
1

$$$$

     RDKit          3D

 46 48  0  0  0  0  0  0  0  0999 V2000
  141.1430   81.5140  222.1900 C   0  0  0  0  0  0  0  0  0  0  0  0
  141.6100   80.2450  222.6550 N   0  0  0  0  0  0  0  0  0  0  0  0
  142.1950   79.4130  221.6760 C   0  0  0  0  0  0  0  0  0  0  0  0
  141.4170   78.2120  221.2490 C   0  0  0  0  0  0  0  0  0  0  0  0
  140.8810   77.5280  222.4700 C   0  0  0  0  0  0  0  0  0  0  0  0
  140.3090   76.2400  222.2140 N   0  0  0  0  0  0  0  0  0  0  0  0
  139.0950   76.0840  221.4990 C   0  0  0  0  0  0  0  0  0  0  0  0
  138.5410   77.1640  221.1010 O   0  0  0  0  0  0  0  0  0  0  0  0
  138.4380   74.8190  221.1880 C   0  0  0  0  0  0  0  0  0  0  0  0
  138.5990   73.7600  222.1300 N   0  0  0  0  0  0  0  0  0  0  0  0
  139.8460   73.1010  222.3570 C   0  0  0  0  0  0  0  0  0  0  0  0
  140.9020   73.4260  221.7150 O   0  0  0  0  0  0  0  0  0  0  0  0
  139.9280   72.0140  223.3590 C   0  0  0  0  0  0  0  0  0  0  0  0
  139.5200   70.7430  223.0140 C   0  0  0  0  0  0  0  0  0  0  0  0
  139.5970   69.7120  223.9580 C   0  0  0  0  0  0  0  0  0  0  0  0
  140.0870   69.9990  225.2350 C   0  0  0  0  0  0  0  0  0  0  0  0
  140.1770   69.0000  226.2000 C   0  0  0  0  0  0  0  0  0  0  0  0
  140.6750   69.3660  227.4380 C   0  0  0  0  0  0  0  0  0  0  0  0
  140.8230   68.1720  228.7140 Cl  0  0  0  0  0  0  0  0  0  0  0  0
  141.0700   70.6550  227.7330 C   0  0  0  0  0  0  0  0  0  0  0  0
  140.9810   71.6560  226.7710 C   0  0  0  0  0  0  0  0  0  0  0  0
  140.4850   71.2900  225.5370 C   0  0  0  0  0  0  0  0  0  0  0  0
  140.3960   72.2520  224.5990 N   0  0  0  0  0  0  0  0  0  0  0  0
  139.9390   78.5080  223.1380 C   0  0  0  0  0  0  0  0  0  0  0  0
  140.8270   79.6140  223.6610 C   0  0  0  0  0  0  0  0  0  0  0  0
  140.9068   82.1559  223.0515 H   0  0  0  0  0  0  0  0  0  0  0  0
  141.9244   81.9913  221.5804 H   0  0  0  0  0  0  0  0  0  0  0  0
  140.2386   81.3710  221.5804 H   0  0  0  0  0  0  0  0  0  0  0  0
  142.3719   80.0282  220.7814 H   0  0  0  0  0  0  0  0  0  0  0  0
  143.1017   79.0099  222.1509 H   0  0  0  0  0  0  0  0  0  0  0  0
  140.5830   78.5219  220.6021 H   0  0  0  0  0  0  0  0  0  0  0  0
  142.0671   77.5239  220.6888 H   0  0  0  0  0  0  0  0  0  0  0  0
  141.7037   77.2748  223.1548 H   0  0  0  0  0  0  0  0  0  0  0  0
  140.8070   75.4020  222.5780 H   0  0  0  0  0  0  0  0  0  0  0  0
  137.3604   75.0186  221.0932 H   0  0  0  0  0  0  0  0  0  0  0  0
  138.9244   74.4615  220.2684 H   0  0  0  0  0  0  0  0  0  0  0  0
  137.7900   73.3980  222.7220 H   0  0  0  0  0  0  0  0  0  0  0  0
  139.1363   70.5403  222.0032 H   0  0  0  0  0  0  0  0  0  0  0  0
  139.2769   68.6921  223.6987 H   0  0  0  0  0  0  0  0  0  0  0  0
  139.8663   67.9663  225.9880 H   0  0  0  0  0  0  0  0  0  0  0  0
  141.4575   70.8923  228.7347 H   0  0  0  0  0  0  0  0  0  0  0  0
  141.2912   72.6896  226.9841 H   0  0  0  0  0  0  0  0  0  0  0  0
  139.2155   78.9050  222.4108 H   0  0  0  0  0  0  0  0  0  0  0  0
  139.3537   78.0353  223.9404 H   0  0  0  0  0  0  0  0  0  0  0  0
  140.1900   80.3761  224.1337 H   0  0  0  0  0  0  0  0  0  0  0  0
  141.5289   79.1528  224.3714 H   0  0  0  0  0  0  0  0  0  0  0  0
  1  2  1  0
  2  3  1  0
  3  4  1  0
  4  5  1  0
  5  6  1  0
  6  7  1  0
  7  8  2  0
  7  9  1  0
  9 10  1  0
 10 11  1  0
 11 12  2  0
 11 13  1  0
 13 14  2  0
 14 15  1  0
 15 16  2  0
 16 17  1  0
 17 18  2  0
 18 19  1  0
 18 20  1  0
 20 21  2  0
 21 22  1  0
 22 23  2  0
  5 24  1  0
 24 25  1  0
 25  2  1  0
 23 13  1  0
 22 16  1  0
  1 26  1  0
  1 27  1  0
  1 28  1  0
  3 29  1  0
  3 30  1  0
  4 31  1  0
  4 32  1  0
  5 33  1  0
  6 34  1  0
  9 35  1  0
  9 36  1  0
 10 37  1  0
 14 38  1  0
 15 39  1  0
 17 40  1  0
 20 41  1  0
 21 42  1  0
 24 43  1  0
 24 44  1  0
 25 45  1  0
 25 46  1  0
M  END
>  <smiles>  (26) 
CN1CCC(NC(=O)CNC(=O)c2ccc3cc(Cl)ccc3n2)CC1

>  <score_type>  (26) 
oracle

>  <origin>  (26) 
autodockgpu

>  <m_score__min__energy>  (26) 
-8.3900000000000006

>  <m_primary>  (26) 
energy

>  <rmsd>  (26) 
2.3483603157012363

>  <m_score__min__rmsd>  (26) 
2.3483603157012363

>  <meeko>  (26) 
{"free_energy": -7.68, "intermolecular_energy": -8.87, "internal_energy": -1.44, "cluster_size": 46, "cluster_id": 1, "rank_in_cluster": 39}

>  <energy>  (26) 
-7.85

>  <cluster_rmsd>  (26) 
0.92

>  <cluster>  (26) 
1

$$$$

     RDKit          3D

 46 48  0  0  0  0  0  0  0  0999 V2000
  140.8080   82.0120  222.3500 C   0  0  0  0  0  0  0  0  0  0  0  0
  141.6150   80.8540  222.5760 N   0  0  0  0  0  0  0  0  0  0  0  0
  142.1600   80.2530  221.4200 C   0  0  0  0  0  0  0  0  0  0  0  0
  141.5870   78.9420  220.9990 C   0  0  0  0  0  0  0  0  0  0  0  0
  141.4560   78.0640  222.2060 C   0  0  0  0  0  0  0  0  0  0  0  0
  141.1310   76.7020  221.9060 N   0  0  0  0  0  0  0  0  0  0  0  0
  139.8620   76.3240  221.4010 C   0  0  0  0  0  0  0  0  0  0  0  0
  139.0250   77.2740  221.2340 O   0  0  0  0  0  0  0  0  0  0  0  0
  139.4400   74.9680  221.0640 C   0  0  0  0  0  0  0  0  0  0  0  0
  139.5450   73.9860  222.0930 N   0  0  0  0  0  0  0  0  0  0  0  0
  139.7040   72.5910  221.8270 C   0  0  0  0  0  0  0  0  0  0  0  0
  139.7560   72.1390  220.6330 O   0  0  0  0  0  0  0  0  0  0  0  0
  139.8110   71.6380  222.9550 C   0  0  0  0  0  0  0  0  0  0  0  0
  139.3890   70.3370  222.7830 C   0  0  0  0  0  0  0  0  0  0  0  0
  139.4900   69.4320  223.8470 C   0  0  0  0  0  0  0  0  0  0  0  0
  140.0170   69.8730  225.0640 C   0  0  0  0  0  0  0  0  0  0  0  0
  140.1310   69.0020  226.1430 C   0  0  0  0  0  0  0  0  0  0  0  0
  140.6650   69.5180  227.3120 C   0  0  0  0  0  0  0  0  0  0  0  0
  140.8450   68.4920  228.7230 Cl  0  0  0  0  0  0  0  0  0  0  0  0
  141.0720   70.8310  227.4310 C   0  0  0  0  0  0  0  0  0  0  0  0
  140.9590   71.7040  226.3540 C   0  0  0  0  0  0  0  0  0  0  0  0
  140.4270   71.1880  225.1900 C   0  0  0  0  0  0  0  0  0  0  0  0
  140.3150   72.0260  224.1410 N   0  0  0  0  0  0  0  0  0  0  0  0
  140.4770   78.7490  223.1370 C   0  0  0  0  0  0  0  0  0  0  0  0
  141.1950   79.9870  223.6230 C   0  0  0  0  0  0  0  0  0  0  0  0
  140.5072   82.4436  223.3161 H   0  0  0  0  0  0  0  0  0  0  0  0
  141.3847   82.7553  221.7800 H   0  0  0  0  0  0  0  0  0  0  0  0
  139.9110   81.7283  221.7800 H   0  0  0  0  0  0  0  0  0  0  0  0
  142.0241   80.9568  220.5857 H   0  0  0  0  0  0  0  0  0  0  0  0
  143.2063   80.0348  221.6802 H   0  0  0  0  0  0  0  0  0  0  0  0
  140.5967   79.0992  220.5466 H   0  0  0  0  0  0  0  0  0  0  0  0
  142.2469   78.4653  220.2592 H   0  0  0  0  0  0  0  0  0  0  0  0
  142.4313   77.9559  222.7030 H   0  0  0  0  0  0  0  0  0  0  0  0
  141.8580   75.9760  222.0780 H   0  0  0  0  0  0  0  0  0  0  0  0
  138.3852   75.0150  220.7556 H   0  0  0  0  0  0  0  0  0  0  0  0
  140.1362   74.6372  220.2792 H   0  0  0  0  0  0  0  0  0  0  0  0
  139.5090   74.2400  223.1270 H   0  0  0  0  0  0  0  0  0  0  0  0
  138.9758   70.0119  221.8168 H   0  0  0  0  0  0  0  0  0  0  0  0
  139.1595   68.3897  223.7267 H   0  0  0  0  0  0  0  0  0  0  0  0
  139.8117   67.9518  226.0709 H   0  0  0  0  0  0  0  0  0  0  0  0
  141.4886   71.1897  228.3838 H   0  0  0  0  0  0  0  0  0  0  0  0
  141.2781   72.7542  226.4266 H   0  0  0  0  0  0  0  0  0  0  0  0
  139.5581   79.0224  222.5977 H   0  0  0  0  0  0  0  0  0  0  0  0
  140.1735   78.0959  223.9684 H   0  0  0  0  0  0  0  0  0  0  0  0
  140.5158   80.5450  224.2843 H   0  0  0  0  0  0  0  0  0  0  0  0
  142.1033   79.6480  224.1428 H   0  0  0  0  0  0  0  0  0  0  0  0
  1  2  1  0
  2  3  1  0
  3  4  1  0
  4  5  1  0
  5  6  1  0
  6  7  1  0
  7  8  2  0
  7  9  1  0
  9 10  1  0
 10 11  1  0
 11 12  2  0
 11 13  1  0
 13 14  2  0
 14 15  1  0
 15 16  2  0
 16 17  1  0
 17 18  2  0
 18 19  1  0
 18 20  1  0
 20 21  2  0
 21 22  1  0
 22 23  2  0
  5 24  1  0
 24 25  1  0
 25  2  1  0
 23 13  1  0
 22 16  1  0
  1 26  1  0
  1 27  1  0
  1 28  1  0
  3 29  1  0
  3 30  1  0
  4 31  1  0
  4 32  1  0
  5 33  1  0
  6 34  1  0
  9 35  1  0
  9 36  1  0
 10 37  1  0
 14 38  1  0
 15 39  1  0
 17 40  1  0
 20 41  1  0
 21 42  1  0
 24 43  1  0
 24 44  1  0
 25 45  1  0
 25 46  1  0
M  END
>  <smiles>  (27) 
CN1CCC(NC(=O)CNC(=O)c2ccc3cc(Cl)ccc3n2)CC1

>  <score_type>  (27) 
oracle

>  <origin>  (27) 
autodockgpu

>  <m_score__min__energy>  (27) 
-8.3900000000000006

>  <m_primary>  (27) 
energy

>  <rmsd>  (27) 
2.3681869441329186

>  <m_score__min__rmsd>  (27) 
2.3681869441329186

>  <meeko>  (27) 
{"free_energy": -8.26, "intermolecular_energy": -9.46, "internal_energy": -0.91, "cluster_size": 46, "cluster_id": 1, "rank_in_cluster": 14}

>  <energy>  (27) 
-7.83

>  <cluster_rmsd>  (27) 
1.0

>  <cluster>  (27) 
1

$$$$

     RDKit          3D

 46 48  0  0  0  0  0  0  0  0999 V2000
  142.1710   81.6430  223.4190 C   0  0  0  0  0  0  0  0  0  0  0  0
  141.1820   80.7250  222.9440 N   0  0  0  0  0  0  0  0  0  0  0  0
  140.8410   79.6810  223.8320 C   0  0  0  0  0  0  0  0  0  0  0  0
  141.3110   78.3090  223.4840 C   0  0  0  0  0  0  0  0  0  0  0  0
  141.0390   78.0610  222.0310 C   0  0  0  0  0  0  0  0  0  0  0  0
  141.2350   76.7030  221.6230 N   0  0  0  0  0  0  0  0  0  0  0  0
  140.1620   75.7810  221.5320 C   0  0  0  0  0  0  0  0  0  0  0  0
  139.0100   76.2360  221.8400 O   0  0  0  0  0  0  0  0  0  0  0  0
  140.2630   74.3830  221.1240 C   0  0  0  0  0  0  0  0  0  0  0  0
  140.3570   73.4130  222.1660 N   0  0  0  0  0  0  0  0  0  0  0  0
  139.4260   72.3390  222.3180 C   0  0  0  0  0  0  0  0  0  0  0  0
  138.4400   72.1910  221.5210 O   0  0  0  0  0  0  0  0  0  0  0  0
  139.6000   71.3710  223.4250 C   0  0  0  0  0  0  0  0  0  0  0  0
  139.1560   70.0750  223.2650 C   0  0  0  0  0  0  0  0  0  0  0  0
  139.3200   69.1560  224.3090 C   0  0  0  0  0  0  0  0  0  0  0  0
  139.9300   69.5780  225.4930 C   0  0  0  0  0  0  0  0  0  0  0  0
  140.1080   68.6920  226.5520 C   0  0  0  0  0  0  0  0  0  0  0  0
  140.7220   69.1880  227.6890 C   0  0  0  0  0  0  0  0  0  0  0  0
  140.9870   68.1430  229.0720 Cl  0  0  0  0  0  0  0  0  0  0  0  0
  141.1480   70.4970  227.7970 C   0  0  0  0  0  0  0  0  0  0  0  0
  140.9710   71.3840  226.7410 C   0  0  0  0  0  0  0  0  0  0  0  0
  140.3590   70.8880  225.6080 C   0  0  0  0  0  0  0  0  0  0  0  0
  140.1840   71.7400  224.5800 N   0  0  0  0  0  0  0  0  0  0  0  0
  141.8620   79.0710  221.2580 C   0  0  0  0  0  0  0  0  0  0  0  0
  141.2280   80.4100  221.5570 C   0  0  0  0  0  0  0  0  0  0  0  0
  142.1721   81.6440  224.5190 H   0  0  0  0  0  0  0  0  0  0  0  0
  143.1617   81.3372  223.0516 H   0  0  0  0  0  0  0  0  0  0  0  0
  141.9397   82.6537  223.0516 H   0  0  0  0  0  0  0  0  0  0  0  0
  141.2600   79.9344  224.8170 H   0  0  0  0  0  0  0  0  0  0  0  0
  139.7432   79.6229  223.7929 H   0  0  0  0  0  0  0  0  0  0  0  0
  142.3908   78.2276  223.6774 H   0  0  0  0  0  0  0  0  0  0  0  0
  140.7807   77.5650  224.0965 H   0  0  0  0  0  0  0  0  0  0  0  0
  139.9701   78.2055  221.8151 H   0  0  0  0  0  0  0  0  0  0  0  0
  142.2040   76.3950  221.3970 H   0  0  0  0  0  0  0  0  0  0  0  0
  139.3697   74.1452  220.5278 H   0  0  0  0  0  0  0  0  0  0  0  0
  141.2151   74.3111  220.5777 H   0  0  0  0  0  0  0  0  0  0  0  0
  141.1340   73.4350  222.8950 H   0  0  0  0  0  0  0  0  0  0  0  0
  138.6767   69.7655  222.3245 H   0  0  0  0  0  0  0  0  0  0  0  0
  138.9738   68.1178  224.1985 H   0  0  0  0  0  0  0  0  0  0  0  0
  139.7758   67.6453  226.4880 H   0  0  0  0  0  0  0  0  0  0  0  0
  141.6303   70.8402  228.7241 H   0  0  0  0  0  0  0  0  0  0  0  0
  141.3028   72.4308  226.8056 H   0  0  0  0  0  0  0  0  0  0  0  0
  142.9087   79.0556  221.5960 H   0  0  0  0  0  0  0  0  0  0  0  0
  141.8739   78.8531  220.1799 H   0  0  0  0  0  0  0  0  0  0  0  0
  141.8073   81.1910  221.0427 H   0  0  0  0  0  0  0  0  0  0  0  0
  140.1872   80.3583  221.2048 H   0  0  0  0  0  0  0  0  0  0  0  0
  1  2  1  0
  2  3  1  0
  3  4  1  0
  4  5  1  0
  5  6  1  0
  6  7  1  0
  7  8  2  0
  7  9  1  0
  9 10  1  0
 10 11  1  0
 11 12  2  0
 11 13  1  0
 13 14  2  0
 14 15  1  0
 15 16  2  0
 16 17  1  0
 17 18  2  0
 18 19  1  0
 18 20  1  0
 20 21  2  0
 21 22  1  0
 22 23  2  0
  5 24  1  0
 24 25  1  0
 25  2  1  0
 23 13  1  0
 22 16  1  0
  1 26  1  0
  1 27  1  0
  1 28  1  0
  3 29  1  0
  3 30  1  0
  4 31  1  0
  4 32  1  0
  5 33  1  0
  6 34  1  0
  9 35  1  0
  9 36  1  0
 10 37  1  0
 14 38  1  0
 15 39  1  0
 17 40  1  0
 20 41  1  0
 21 42  1  0
 24 43  1  0
 24 44  1  0
 25 45  1  0
 25 46  1  0
M  END
>  <smiles>  (28) 
CN1CCC(NC(=O)CNC(=O)c2ccc3cc(Cl)ccc3n2)CC1

>  <score_type>  (28) 
oracle

>  <origin>  (28) 
autodockgpu

>  <m_score__min__energy>  (28) 
-8.3900000000000006

>  <m_primary>  (28) 
energy

>  <rmsd>  (28) 
3.0598002904989134

>  <m_score__min__rmsd>  (28) 
3.0598002904989134

>  <meeko>  (28) 
{"free_energy": -7.85, "intermolecular_energy": -9.04, "internal_energy": -0.94, "cluster_size": 46, "cluster_id": 1, "rank_in_cluster": 26}

>  <energy>  (28) 
-7.82

>  <cluster_rmsd>  (28) 
0.99

>  <cluster>  (28) 
1

$$$$

     RDKit          3D

 46 48  0  0  0  0  0  0  0  0999 V2000
  141.4460   81.3760  222.7640 C   0  0  0  0  0  0  0  0  0  0  0  0
  142.0690   80.1600  222.3410 N   0  0  0  0  0  0  0  0  0  0  0  0
  141.8280   79.7840  221.0010 C   0  0  0  0  0  0  0  0  0  0  0  0
  140.9300   78.6140  220.7720 C   0  0  0  0  0  0  0  0  0  0  0  0
  141.3250   77.5150  221.7110 C   0  0  0  0  0  0  0  0  0  0  0  0
  140.6910   76.2590  221.4400 N   0  0  0  0  0  0  0  0  0  0  0  0
  139.2820   76.1050  221.4690 C   0  0  0  0  0  0  0  0  0  0  0  0
  138.6130   77.1530  221.7570 O   0  0  0  0  0  0  0  0  0  0  0  0
  138.5480   74.8710  221.2050 C   0  0  0  0  0  0  0  0  0  0  0  0
  138.7010   73.8150  222.1510 N   0  0  0  0  0  0  0  0  0  0  0  0
  139.9160   73.0800  222.3120 C   0  0  0  0  0  0  0  0  0  0  0  0
  140.9480   73.3300  221.6000 O   0  0  0  0  0  0  0  0  0  0  0  0
  139.9930   72.0020  223.3220 C   0  0  0  0  0  0  0  0  0  0  0  0
  139.5980   70.7250  222.9810 C   0  0  0  0  0  0  0  0  0  0  0  0
  139.6700   69.7020  223.9340 C   0  0  0  0  0  0  0  0  0  0  0  0
  140.1400   70.0020  225.2150 C   0  0  0  0  0  0  0  0  0  0  0  0
  140.2240   69.0100  226.1890 C   0  0  0  0  0  0  0  0  0  0  0  0
  140.7020   69.3900  227.4320 C   0  0  0  0  0  0  0  0  0  0  0  0
  140.8410   68.2060  228.7180 Cl  0  0  0  0  0  0  0  0  0  0  0  0
  141.0830   70.6840  227.7220 C   0  0  0  0  0  0  0  0  0  0  0  0
  141.0000   71.6770  226.7510 C   0  0  0  0  0  0  0  0  0  0  0  0
  140.5240   71.2970  225.5130 C   0  0  0  0  0  0  0  0  0  0  0  0
  140.4410   72.2520  224.5670 N   0  0  0  0  0  0  0  0  0  0  0  0
  141.0960   78.0390  223.1140 C   0  0  0  0  0  0  0  0  0  0  0  0
  142.1380   79.1180  223.3060 C   0  0  0  0  0  0  0  0  0  0  0  0
  141.4261   81.4148  223.8631 H   0  0  0  0  0  0  0  0  0  0  0  0
  142.0157   82.2338  222.3771 H   0  0  0  0  0  0  0  0  0  0  0  0
  140.4170   81.4147  222.3771 H   0  0  0  0  0  0  0  0  0  0  0  0
  141.3810   80.6493  220.4897 H   0  0  0  0  0  0  0  0  0  0  0  0
  142.8084   79.4691  220.6141 H   0  0  0  0  0  0  0  0  0  0  0  0
  139.8864   78.9056  220.9614 H   0  0  0  0  0  0  0  0  0  0  0  0
  141.0212   78.2692  219.7314 H   0  0  0  0  0  0  0  0  0  0  0  0
  142.3872   77.2639  221.5744 H   0  0  0  0  0  0  0  0  0  0  0  0
  141.2980   75.4410  221.2240 H   0  0  0  0  0  0  0  0  0  0  0  0
  137.4784   75.1238  221.1591 H   0  0  0  0  0  0  0  0  0  0  0  0
  138.9711   74.4803  220.2678 H   0  0  0  0  0  0  0  0  0  0  0  0
  137.9100   73.5110  222.7970 H   0  0  0  0  0  0  0  0  0  0  0  0
  139.2289   70.5119  221.9669 H   0  0  0  0  0  0  0  0  0  0  0  0
  139.3612   68.6777  223.6781 H   0  0  0  0  0  0  0  0  0  0  0  0
  139.9244   67.9723  225.9805 H   0  0  0  0  0  0  0  0  0  0  0  0
  141.4547   70.9321  228.7271 H   0  0  0  0  0  0  0  0  0  0  0  0
  141.2993   72.7146  226.9602 H   0  0  0  0  0  0  0  0  0  0  0  0
  140.0836   78.4584  223.2092 H   0  0  0  0  0  0  0  0  0  0  0  0
  141.1811   77.2444  223.8699 H   0  0  0  0  0  0  0  0  0  0  0  0
  142.0002   79.5597  224.3040 H   0  0  0  0  0  0  0  0  0  0  0  0
  143.1212   78.6384  223.1902 H   0  0  0  0  0  0  0  0  0  0  0  0
  1  2  1  0
  2  3  1  0
  3  4  1  0
  4  5  1  0
  5  6  1  0
  6  7  1  0
  7  8  2  0
  7  9  1  0
  9 10  1  0
 10 11  1  0
 11 12  2  0
 11 13  1  0
 13 14  2  0
 14 15  1  0
 15 16  2  0
 16 17  1  0
 17 18  2  0
 18 19  1  0
 18 20  1  0
 20 21  2  0
 21 22  1  0
 22 23  2  0
  5 24  1  0
 24 25  1  0
 25  2  1  0
 23 13  1  0
 22 16  1  0
  1 26  1  0
  1 27  1  0
  1 28  1  0
  3 29  1  0
  3 30  1  0
  4 31  1  0
  4 32  1  0
  5 33  1  0
  6 34  1  0
  9 35  1  0
  9 36  1  0
 10 37  1  0
 14 38  1  0
 15 39  1  0
 17 40  1  0
 20 41  1  0
 21 42  1  0
 24 43  1  0
 24 44  1  0
 25 45  1  0
 25 46  1  0
M  END
>  <smiles>  (29) 
CN1CCC(NC(=O)CNC(=O)c2ccc3cc(Cl)ccc3n2)CC1

>  <score_type>  (29) 
oracle

>  <origin>  (29) 
autodockgpu

>  <m_score__min__energy>  (29) 
-8.3900000000000006

>  <m_primary>  (29) 
energy

>  <rmsd>  (29) 
2.207546550148629

>  <m_score__min__rmsd>  (29) 
2.207546550148629

>  <meeko>  (29) 
{"free_energy": -7.78, "intermolecular_energy": -8.97, "internal_energy": -1.46, "cluster_size": 46, "cluster_id": 1, "rank_in_cluster": 36}

>  <energy>  (29) 
-7.81

>  <cluster_rmsd>  (29) 
0.97

>  <cluster>  (29) 
1

$$$$

     RDKit          3D

 46 48  0  0  0  0  0  0  0  0999 V2000
  140.9580   82.0010  222.5430 C   0  0  0  0  0  0  0  0  0  0  0  0
  141.7380   80.8090  222.6710 N   0  0  0  0  0  0  0  0  0  0  0  0
  142.1980   80.2460  221.4610 C   0  0  0  0  0  0  0  0  0  0  0  0
  141.5590   78.9730  221.0150 C   0  0  0  0  0  0  0  0  0  0  0  0
  141.4670   78.0450  222.1880 C   0  0  0  0  0  0  0  0  0  0  0  0
  141.0810   76.7090  221.8460 N   0  0  0  0  0  0  0  0  0  0  0  0
  139.7840   76.3980  221.3680 C   0  0  0  0  0  0  0  0  0  0  0  0
  138.9790   77.3840  221.2630 O   0  0  0  0  0  0  0  0  0  0  0  0
  139.3010   75.0730  220.9930 C   0  0  0  0  0  0  0  0  0  0  0  0
  139.3310   74.0670  222.0030 N   0  0  0  0  0  0  0  0  0  0  0  0
  140.1570   72.9040  221.9220 C   0  0  0  0  0  0  0  0  0  0  0  0
  140.9220   72.6950  220.9200 O   0  0  0  0  0  0  0  0  0  0  0  0
  140.1330   71.9090  223.0180 C   0  0  0  0  0  0  0  0  0  0  0  0
  139.6270   70.6490  222.7780 C   0  0  0  0  0  0  0  0  0  0  0  0
  139.6040   69.7060  223.8120 C   0  0  0  0  0  0  0  0  0  0  0  0
  140.0940   70.0680  225.0700 C   0  0  0  0  0  0  0  0  0  0  0  0
  140.0850   69.1560  226.1220 C   0  0  0  0  0  0  0  0  0  0  0  0
  140.5900   69.5930  227.3350 C   0  0  0  0  0  0  0  0  0  0  0  0
  140.6180   68.5110  228.7160 Cl  0  0  0  0  0  0  0  0  0  0  0  0
  141.0850   70.8670  227.5230 C   0  0  0  0  0  0  0  0  0  0  0  0
  141.0940   71.7800  226.4730 C   0  0  0  0  0  0  0  0  0  0  0  0
  140.5910   71.3440  225.2650 C   0  0  0  0  0  0  0  0  0  0  0  0
  140.5980   72.2210  224.2430 N   0  0  0  0  0  0  0  0  0  0  0  0
  140.5640   78.7160  223.2020 C   0  0  0  0  0  0  0  0  0  0  0  0
  141.3480   79.9080  223.7010 C   0  0  0  0  0  0  0  0  0  0  0  0
  140.7072   82.3842  223.5431 H   0  0  0  0  0  0  0  0  0  0  0  0
  141.5350   82.7595  221.9937 H   0  0  0  0  0  0  0  0  0  0  0  0
  140.0319   81.7760  221.9937 H   0  0  0  0  0  0  0  0  0  0  0  0
  142.0396   80.9915  220.6678 H   0  0  0  0  0  0  0  0  0  0  0  0
  143.2493   79.9842  221.6515 H   0  0  0  0  0  0  0  0  0  0  0  0
  140.5507   79.1809  220.6275 H   0  0  0  0  0  0  0  0  0  0  0  0
  142.1600   78.5111  220.2179 H   0  0  0  0  0  0  0  0  0  0  0  0
  142.4639   77.8846  222.6244 H   0  0  0  0  0  0  0  0  0  0  0  0
  141.7850   75.9500  221.9670 H   0  0  0  0  0  0  0  0  0  0  0  0
  138.2576   75.1808  220.6619 H   0  0  0  0  0  0  0  0  0  0  0  0
  139.9976   74.7222  220.2173 H   0  0  0  0  0  0  0  0  0  0  0  0
  138.7330   74.1260  222.8830 H   0  0  0  0  0  0  0  0  0  0  0  0
  139.2440   70.3868  221.7807 H   0  0  0  0  0  0  0  0  0  0  0  0
  139.2064   68.6954  223.6373 H   0  0  0  0  0  0  0  0  0  0  0  0
  139.6947   68.1354  225.9954 H   0  0  0  0  0  0  0  0  0  0  0  0
  141.4747   71.1626  228.5083 H   0  0  0  0  0  0  0  0  0  0  0  0
  141.4836   72.8008  226.6003 H   0  0  0  0  0  0  0  0  0  0  0  0
  139.6263   79.0417  222.7280 H   0  0  0  0  0  0  0  0  0  0  0  0
  140.2854   78.0349  224.0196 H   0  0  0  0  0  0  0  0  0  0  0  0
  140.7249   80.4555  224.4235 H   0  0  0  0  0  0  0  0  0  0  0  0
  142.2718   79.5182  224.1534 H   0  0  0  0  0  0  0  0  0  0  0  0
  1  2  1  0
  2  3  1  0
  3  4  1  0
  4  5  1  0
  5  6  1  0
  6  7  1  0
  7  8  2  0
  7  9  1  0
  9 10  1  0
 10 11  1  0
 11 12  2  0
 11 13  1  0
 13 14  2  0
 14 15  1  0
 15 16  2  0
 16 17  1  0
 17 18  2  0
 18 19  1  0
 18 20  1  0
 20 21  2  0
 21 22  1  0
 22 23  2  0
  5 24  1  0
 24 25  1  0
 25  2  1  0
 23 13  1  0
 22 16  1  0
  1 26  1  0
  1 27  1  0
  1 28  1  0
  3 29  1  0
  3 30  1  0
  4 31  1  0
  4 32  1  0
  5 33  1  0
  6 34  1  0
  9 35  1  0
  9 36  1  0
 10 37  1  0
 14 38  1  0
 15 39  1  0
 17 40  1  0
 20 41  1  0
 21 42  1  0
 24 43  1  0
 24 44  1  0
 25 45  1  0
 25 46  1  0
M  END
>  <smiles>  (30) 
CN1CCC(NC(=O)CNC(=O)c2ccc3cc(Cl)ccc3n2)CC1

>  <score_type>  (30) 
oracle

>  <origin>  (30) 
autodockgpu

>  <m_score__min__energy>  (30) 
-8.3900000000000006

>  <m_primary>  (30) 
energy

>  <rmsd>  (30) 
2.4589725560926596

>  <m_score__min__rmsd>  (30) 
2.4589725560926596

>  <meeko>  (30) 
{"free_energy": -8.31, "intermolecular_energy": -9.51, "internal_energy": -0.79, "cluster_size": 46, "cluster_id": 1, "rank_in_cluster": 5}

>  <energy>  (30) 
-7.81

>  <cluster_rmsd>  (30) 
0.98

>  <cluster>  (30) 
1

$$$$

     RDKit          3D

 46 48  0  0  0  0  0  0  0  0999 V2000
  141.4020   81.3520  222.7610 C   0  0  0  0  0  0  0  0  0  0  0  0
  142.0390   80.1440  222.3350 N   0  0  0  0  0  0  0  0  0  0  0  0
  141.8120   79.7760  220.9910 C   0  0  0  0  0  0  0  0  0  0  0  0
  140.9270   78.6000  220.7460 C   0  0  0  0  0  0  0  0  0  0  0  0
  141.3240   77.4970  221.6800 C   0  0  0  0  0  0  0  0  0  0  0  0
  140.7030   76.2380  221.3940 N   0  0  0  0  0  0  0  0  0  0  0  0
  139.2960   76.0700  221.4130 C   0  0  0  0  0  0  0  0  0  0  0  0
  138.6160   77.1110  221.7040 O   0  0  0  0  0  0  0  0  0  0  0  0
  138.5750   74.8330  221.1340 C   0  0  0  0  0  0  0  0  0  0  0  0
  138.7090   73.7800  222.0870 N   0  0  0  0  0  0  0  0  0  0  0  0
  139.9270   73.0610  222.2890 C   0  0  0  0  0  0  0  0  0  0  0  0
  140.9790   73.3220  221.6130 O   0  0  0  0  0  0  0  0  0  0  0  0
  139.9830   71.9850  223.3050 C   0  0  0  0  0  0  0  0  0  0  0  0
  139.5530   70.7170  222.9720 C   0  0  0  0  0  0  0  0  0  0  0  0
  139.6050   69.6970  223.9290 C   0  0  0  0  0  0  0  0  0  0  0  0
  140.0920   69.9900  225.2060 C   0  0  0  0  0  0  0  0  0  0  0  0
  140.1570   69.0010  226.1830 C   0  0  0  0  0  0  0  0  0  0  0  0
  140.6530   69.3730  227.4210 C   0  0  0  0  0  0  0  0  0  0  0  0
  140.7700   68.1920  228.7120 Cl  0  0  0  0  0  0  0  0  0  0  0  0
  141.0690   70.6580  227.7030 C   0  0  0  0  0  0  0  0  0  0  0  0
  141.0050   71.6490  226.7280 C   0  0  0  0  0  0  0  0  0  0  0  0
  140.5110   71.2760  225.4950 C   0  0  0  0  0  0  0  0  0  0  0  0
  140.4460   72.2290  224.5450 N   0  0  0  0  0  0  0  0  0  0  0  0
  141.0780   78.0100  223.0840 C   0  0  0  0  0  0  0  0  0  0  0  0
  142.1090   79.0960  223.2930 C   0  0  0  0  0  0  0  0  0  0  0  0
  141.3828   81.3884  223.8602 H   0  0  0  0  0  0  0  0  0  0  0  0
  141.9611   82.2171  222.3752 H   0  0  0  0  0  0  0  0  0  0  0  0
  140.3722   81.3793  222.3752 H   0  0  0  0  0  0  0  0  0  0  0  0
  141.3611   80.6410  220.4827 H   0  0  0  0  0  0  0  0  0  0  0  0
  142.7982   79.4729  220.6097 H   0  0  0  0  0  0  0  0  0  0  0  0
  139.8793   78.8807  220.9289 H   0  0  0  0  0  0  0  0  0  0  0  0
  141.0303   78.2639  219.7037 H   0  0  0  0  0  0  0  0  0  0  0  0
  142.3892   77.2547  221.5512 H   0  0  0  0  0  0  0  0  0  0  0  0
  141.3200   75.4280  221.1770 H   0  0  0  0  0  0  0  0  0  0  0  0
  137.5058   75.0807  221.0603 H   0  0  0  0  0  0  0  0  0  0  0  0
  139.0232   74.4418  220.2088 H   0  0  0  0  0  0  0  0  0  0  0  0
  137.9000   73.4680  222.7070 H   0  0  0  0  0  0  0  0  0  0  0  0
  139.1719   70.5091  221.9613 H   0  0  0  0  0  0  0  0  0  0  0  0
  139.2677   68.6801  223.6799 H   0  0  0  0  0  0  0  0  0  0  0  0
  139.8292   67.9706  225.9809 H   0  0  0  0  0  0  0  0  0  0  0  0
  141.4536   70.9006  228.7046 H   0  0  0  0  0  0  0  0  0  0  0  0
  141.3323   72.6795  226.9305 H   0  0  0  0  0  0  0  0  0  0  0  0
  140.0613   78.4205  223.1725 H   0  0  0  0  0  0  0  0  0  0  0  0
  141.1629   77.2111  223.8354 H   0  0  0  0  0  0  0  0  0  0  0  0
  141.9589   79.5292  224.2929 H   0  0  0  0  0  0  0  0  0  0  0  0
  143.0973   78.6258  223.1826 H   0  0  0  0  0  0  0  0  0  0  0  0
  1  2  1  0
  2  3  1  0
  3  4  1  0
  4  5  1  0
  5  6  1  0
  6  7  1  0
  7  8  2  0
  7  9  1  0
  9 10  1  0
 10 11  1  0
 11 12  2  0
 11 13  1  0
 13 14  2  0
 14 15  1  0
 15 16  2  0
 16 17  1  0
 17 18  2  0
 18 19  1  0
 18 20  1  0
 20 21  2  0
 21 22  1  0
 22 23  2  0
  5 24  1  0
 24 25  1  0
 25  2  1  0
 23 13  1  0
 22 16  1  0
  1 26  1  0
  1 27  1  0
  1 28  1  0
  3 29  1  0
  3 30  1  0
  4 31  1  0
  4 32  1  0
  5 33  1  0
  6 34  1  0
  9 35  1  0
  9 36  1  0
 10 37  1  0
 14 38  1  0
 15 39  1  0
 17 40  1  0
 20 41  1  0
 21 42  1  0
 24 43  1  0
 24 44  1  0
 25 45  1  0
 25 46  1  0
M  END
>  <smiles>  (31) 
CN1CCC(NC(=O)CNC(=O)c2ccc3cc(Cl)ccc3n2)CC1

>  <score_type>  (31) 
oracle

>  <origin>  (31) 
autodockgpu

>  <m_score__min__energy>  (31) 
-8.3900000000000006

>  <m_primary>  (31) 
energy

>  <rmsd>  (31) 
2.1887023578725446

>  <m_score__min__rmsd>  (31) 
2.1887023578725446

>  <meeko>  (31) 
{"free_energy": -7.8, "intermolecular_energy": -8.99, "internal_energy": -1.45, "cluster_size": 46, "cluster_id": 1, "rank_in_cluster": 33}

>  <energy>  (31) 
-7.81

>  <cluster_rmsd>  (31) 
1.04

>  <cluster>  (31) 
1

$$$$

     RDKit          3D

 46 48  0  0  0  0  0  0  0  0999 V2000
  140.1800   68.5400  228.7130 C   0  0  0  0  0  0  0  0  0  0  0  0
  141.0410   69.1250  227.7320 N   0  0  0  0  0  0  0  0  0  0  0  0
  141.0580   70.5360  227.6990 C   0  0  0  0  0  0  0  0  0  0  0  0
  140.3990   71.1990  226.5360 C   0  0  0  0  0  0  0  0  0  0  0  0
  140.8220   70.4990  225.2800 C   0  0  0  0  0  0  0  0  0  0  0  0
  140.4400   71.1750  224.0770 N   0  0  0  0  0  0  0  0  0  0  0  0
  139.0850   71.2920  223.6760 C   0  0  0  0  0  0  0  0  0  0  0  0
  138.2270   70.7540  224.4540 O   0  0  0  0  0  0  0  0  0  0  0  0
  138.6000   71.9620  222.4740 C   0  0  0  0  0  0  0  0  0  0  0  0
  139.0410   73.3010  222.2590 N   0  0  0  0  0  0  0  0  0  0  0  0
  140.3610   73.6270  221.8200 C   0  0  0  0  0  0  0  0  0  0  0  0
  141.2350   72.7220  221.5980 O   0  0  0  0  0  0  0  0  0  0  0  0
  140.7360   75.0440  221.6150 C   0  0  0  0  0  0  0  0  0  0  0  0
  141.6510   75.3670  220.6350 C   0  0  0  0  0  0  0  0  0  0  0  0
  142.0080   76.7070  220.4380 C   0  0  0  0  0  0  0  0  0  0  0  0
  141.4260   77.6880  221.2450 C   0  0  0  0  0  0  0  0  0  0  0  0
  141.7570   79.0300  221.0770 C   0  0  0  0  0  0  0  0  0  0  0  0
  141.1350   79.9390  221.9160 C   0  0  0  0  0  0  0  0  0  0  0  0
  141.4920   81.6510  221.7760 Cl  0  0  0  0  0  0  0  0  0  0  0  0
  140.2250   79.5630  222.8820 C   0  0  0  0  0  0  0  0  0  0  0  0
  139.8920   78.2220  223.0510 C   0  0  0  0  0  0  0  0  0  0  0  0
  140.5130   77.3170  222.2160 C   0  0  0  0  0  0  0  0  0  0  0  0
  140.1960   76.0180  222.3720 N   0  0  0  0  0  0  0  0  0  0  0  0
  140.3130   69.0760  225.3850 C   0  0  0  0  0  0  0  0  0  0  0  0
  141.1330   68.4440  226.4870 C   0  0  0  0  0  0  0  0  0  0  0  0
  140.5476   68.7898  229.7192 H   0  0  0  0  0  0  0  0  0  0  0  0
  139.1604   68.9331  228.5871 H   0  0  0  0  0  0  0  0  0  0  0  0
  140.1699   67.4473  228.5871 H   0  0  0  0  0  0  0  0  0  0  0  0
  140.5582   70.8944  228.6110 H   0  0  0  0  0  0  0  0  0  0  0  0
  142.1212   70.8048  227.6135 H   0  0  0  0  0  0  0  0  0  0  0  0
  139.3062   71.1361  226.6446 H   0  0  0  0  0  0  0  0  0  0  0  0
  140.6937   72.2579  226.4921 H   0  0  0  0  0  0  0  0  0  0  0  0
  141.9189   70.4992  225.1968 H   0  0  0  0  0  0  0  0  0  0  0  0
  141.1930   71.5800  223.4830 H   0  0  0  0  0  0  0  0  0  0  0  0
  138.9199   71.3637  221.6081 H   0  0  0  0  0  0  0  0  0  0  0  0
  137.5107   72.0369  222.6073 H   0  0  0  0  0  0  0  0  0  0  0  0
  138.4050   74.1410  222.4150 H   0  0  0  0  0  0  0  0  0  0  0  0
  142.0974   74.5777  220.0123 H   0  0  0  0  0  0  0  0  0  0  0  0
  142.7352   76.9828  219.6601 H   0  0  0  0  0  0  0  0  0  0  0  0
  142.4794   79.3531  220.3129 H   0  0  0  0  0  0  0  0  0  0  0  0
  139.7599   80.3270  223.5223 H   0  0  0  0  0  0  0  0  0  0  0  0
  139.1682   77.8996  223.8140 H   0  0  0  0  0  0  0  0  0  0  0  0
  139.2442   69.0665  225.6451 H   0  0  0  0  0  0  0  0  0  0  0  0
  140.4120   68.5319  224.4341 H   0  0  0  0  0  0  0  0  0  0  0  0
  140.7842   67.4106  226.6301 H   0  0  0  0  0  0  0  0  0  0  0  0
  142.1857   68.4925  226.1717 H   0  0  0  0  0  0  0  0  0  0  0  0
  1  2  1  0
  2  3  1  0
  3  4  1  0
  4  5  1  0
  5  6  1  0
  6  7  1  0
  7  8  2  0
  7  9  1  0
  9 10  1  0
 10 11  1  0
 11 12  2  0
 11 13  1  0
 13 14  2  0
 14 15  1  0
 15 16  2  0
 16 17  1  0
 17 18  2  0
 18 19  1  0
 18 20  1  0
 20 21  2  0
 21 22  1  0
 22 23  2  0
  5 24  1  0
 24 25  1  0
 25  2  1  0
 23 13  1  0
 22 16  1  0
  1 26  1  0
  1 27  1  0
  1 28  1  0
  3 29  1  0
  3 30  1  0
  4 31  1  0
  4 32  1  0
  5 33  1  0
  6 34  1  0
  9 35  1  0
  9 36  1  0
 10 37  1  0
 14 38  1  0
 15 39  1  0
 17 40  1  0
 20 41  1  0
 21 42  1  0
 24 43  1  0
 24 44  1  0
 25 45  1  0
 25 46  1  0
M  END
>  <smiles>  (32) 
CN1CCC(NC(=O)CNC(=O)c2ccc3cc(Cl)ccc3n2)CC1

>  <score_type>  (32) 
oracle

>  <origin>  (32) 
autodockgpu

>  <m_score__min__energy>  (32) 
-8.3900000000000006

>  <m_primary>  (32) 
energy

>  <rmsd>  (32) 
8.316444730958343

>  <m_score__min__rmsd>  (32) 
8.316444730958343

>  <meeko>  (32) 
{"free_energy": -7.35, "intermolecular_energy": -8.54, "internal_energy": -1.64, "cluster_size": 4, "cluster_id": 2, "rank_in_cluster": 2}

>  <energy>  (32) 
-7.8

>  <cluster_rmsd>  (32) 
1.04

>  <cluster>  (32) 
1

$$$$

     RDKit          3D

 46 48  0  0  0  0  0  0  0  0999 V2000
  141.3490   81.4100  222.9080 C   0  0  0  0  0  0  0  0  0  0  0  0
  142.0010   80.2140  222.4730 N   0  0  0  0  0  0  0  0  0  0  0  0
  141.7960   79.8640  221.1200 C   0  0  0  0  0  0  0  0  0  0  0  0
  140.9240   78.6850  220.8460 C   0  0  0  0  0  0  0  0  0  0  0  0
  141.3170   77.5710  221.7690 C   0  0  0  0  0  0  0  0  0  0  0  0
  140.7120   76.3120  221.4570 N   0  0  0  0  0  0  0  0  0  0  0  0
  139.3070   76.1240  221.4850 C   0  0  0  0  0  0  0  0  0  0  0  0
  138.6150   77.1460  221.8110 O   0  0  0  0  0  0  0  0  0  0  0  0
  138.6000   74.8830  221.1810 C   0  0  0  0  0  0  0  0  0  0  0  0
  138.7240   73.8220  222.1260 N   0  0  0  0  0  0  0  0  0  0  0  0
  139.9450   73.1170  222.3520 C   0  0  0  0  0  0  0  0  0  0  0  0
  141.0100   73.3980  221.7050 O   0  0  0  0  0  0  0  0  0  0  0  0
  139.9890   72.0310  223.3570 C   0  0  0  0  0  0  0  0  0  0  0  0
  139.5340   70.7750  223.0170 C   0  0  0  0  0  0  0  0  0  0  0  0
  139.5750   69.7450  223.9650 C   0  0  0  0  0  0  0  0  0  0  0  0
  140.0770   70.0180  225.2400 C   0  0  0  0  0  0  0  0  0  0  0  0
  140.1310   69.0190  226.2080 C   0  0  0  0  0  0  0  0  0  0  0  0
  140.6440   69.3710  227.4450 C   0  0  0  0  0  0  0  0  0  0  0  0
  140.7500   68.1760  228.7240 Cl  0  0  0  0  0  0  0  0  0  0  0  0
  141.0860   70.6460  227.7340 C   0  0  0  0  0  0  0  0  0  0  0  0
  141.0330   71.6460  226.7690 C   0  0  0  0  0  0  0  0  0  0  0  0
  140.5220   71.2940  225.5370 C   0  0  0  0  0  0  0  0  0  0  0  0
  140.4670   72.2550  224.5960 N   0  0  0  0  0  0  0  0  0  0  0  0
  141.0490   78.0600  223.1780 C   0  0  0  0  0  0  0  0  0  0  0  0
  142.0680   79.1520  223.4170 C   0  0  0  0  0  0  0  0  0  0  0  0
  141.3328   81.4397  224.0075 H   0  0  0  0  0  0  0  0  0  0  0  0
  141.8949   82.2851  222.5256 H   0  0  0  0  0  0  0  0  0  0  0  0
  140.3177   81.4253  222.5256 H   0  0  0  0  0  0  0  0  0  0  0  0
  141.3454   80.7328  220.6179 H   0  0  0  0  0  0  0  0  0  0  0  0
  142.7899   79.5745  220.7480 H   0  0  0  0  0  0  0  0  0  0  0  0
  139.8717   78.9549  221.0188 H   0  0  0  0  0  0  0  0  0  0  0  0
  141.0442   78.3651  219.8004 H   0  0  0  0  0  0  0  0  0  0  0  0
  142.3859   77.3401  221.6497 H   0  0  0  0  0  0  0  0  0  0  0  0
  141.3370   75.5160  221.2110 H   0  0  0  0  0  0  0  0  0  0  0  0
  137.5305   75.1235  221.0898 H   0  0  0  0  0  0  0  0  0  0  0  0
  139.0686   74.5039  220.2608 H   0  0  0  0  0  0  0  0  0  0  0  0
  137.9040   73.4940  222.7220 H   0  0  0  0  0  0  0  0  0  0  0  0
  139.1412   70.5830  222.0076 H   0  0  0  0  0  0  0  0  0  0  0  0
  139.2175   68.7365  223.7097 H   0  0  0  0  0  0  0  0  0  0  0  0
  139.7821   67.9968  225.9997 H   0  0  0  0  0  0  0  0  0  0  0  0
  141.4829   70.8729  228.7345 H   0  0  0  0  0  0  0  0  0  0  0  0
  141.3817   72.6681  226.9780 H   0  0  0  0  0  0  0  0  0  0  0  0
  140.0277   78.4602  223.2601 H   0  0  0  0  0  0  0  0  0  0  0  0
  141.1317   77.2502  223.9179 H   0  0  0  0  0  0  0  0  0  0  0  0
  141.9009   79.5690  224.4211 H   0  0  0  0  0  0  0  0  0  0  0  0
  143.0619   78.6922  223.3132 H   0  0  0  0  0  0  0  0  0  0  0  0
  1  2  1  0
  2  3  1  0
  3  4  1  0
  4  5  1  0
  5  6  1  0
  6  7  1  0
  7  8  2  0
  7  9  1  0
  9 10  1  0
 10 11  1  0
 11 12  2  0
 11 13  1  0
 13 14  2  0
 14 15  1  0
 15 16  2  0
 16 17  1  0
 17 18  2  0
 18 19  1  0
 18 20  1  0
 20 21  2  0
 21 22  1  0
 22 23  2  0
  5 24  1  0
 24 25  1  0
 25  2  1  0
 23 13  1  0
 22 16  1  0
  1 26  1  0
  1 27  1  0
  1 28  1  0
  3 29  1  0
  3 30  1  0
  4 31  1  0
  4 32  1  0
  5 33  1  0
  6 34  1  0
  9 35  1  0
  9 36  1  0
 10 37  1  0
 14 38  1  0
 15 39  1  0
 17 40  1  0
 20 41  1  0
 21 42  1  0
 24 43  1  0
 24 44  1  0
 25 45  1  0
 25 46  1  0
M  END
>  <smiles>  (33) 
CN1CCC(NC(=O)CNC(=O)c2ccc3cc(Cl)ccc3n2)CC1

>  <score_type>  (33) 
oracle

>  <origin>  (33) 
autodockgpu

>  <m_score__min__energy>  (33) 
-8.3900000000000006

>  <m_primary>  (33) 
energy

>  <rmsd>  (33) 
2.253739834416455

>  <m_score__min__rmsd>  (33) 
2.253739834416455

>  <meeko>  (33) 
{"free_energy": -7.81, "intermolecular_energy": -9.01, "internal_energy": -1.44, "cluster_size": 46, "cluster_id": 1, "rank_in_cluster": 29}

>  <energy>  (33) 
-7.8

>  <cluster_rmsd>  (33) 
0.98

>  <cluster>  (33) 
1

$$$$

     RDKit          3D

 46 48  0  0  0  0  0  0  0  0999 V2000
  142.3490   81.6370  224.2220 C   0  0  0  0  0  0  0  0  0  0  0  0
  141.5200   81.0570  223.2110 N   0  0  0  0  0  0  0  0  0  0  0  0
  140.4530   80.2600  223.6800 C   0  0  0  0  0  0  0  0  0  0  0  0
  140.5670   78.7850  223.4810 C   0  0  0  0  0  0  0  0  0  0  0  0
  141.0280   78.5220  222.0800 C   0  0  0  0  0  0  0  0  0  0  0  0
  140.9610   77.1460  221.6910 N   0  0  0  0  0  0  0  0  0  0  0  0
  139.7280   76.4940  221.4380 C   0  0  0  0  0  0  0  0  0  0  0  0
  138.6800   77.2090  221.5820 O   0  0  0  0  0  0  0  0  0  0  0  0
  139.5590   75.1010  221.0360 C   0  0  0  0  0  0  0  0  0  0  0  0
  139.6380   74.1180  222.0660 N   0  0  0  0  0  0  0  0  0  0  0  0
  139.8300   72.7270  221.8050 C   0  0  0  0  0  0  0  0  0  0  0  0
  139.9380   72.2780  220.6130 O   0  0  0  0  0  0  0  0  0  0  0  0
  139.9070   71.7730  222.9340 C   0  0  0  0  0  0  0  0  0  0  0  0
  139.4730   70.4760  222.7550 C   0  0  0  0  0  0  0  0  0  0  0  0
  139.5440   69.5710  223.8210 C   0  0  0  0  0  0  0  0  0  0  0  0
  140.0550   70.0060  225.0460 C   0  0  0  0  0  0  0  0  0  0  0  0
  140.1400   69.1340  226.1280 C   0  0  0  0  0  0  0  0  0  0  0  0
  140.6590   69.6440  227.3060 C   0  0  0  0  0  0  0  0  0  0  0  0
  140.8030   68.6170  228.7200 Cl  0  0  0  0  0  0  0  0  0  0  0  0
  141.0790   70.9520  227.4320 C   0  0  0  0  0  0  0  0  0  0  0  0
  140.9950   71.8260  226.3530 C   0  0  0  0  0  0  0  0  0  0  0  0
  140.4780   71.3170  225.1800 C   0  0  0  0  0  0  0  0  0  0  0  0
  140.3940   72.1550  224.1300 N   0  0  0  0  0  0  0  0  0  0  0  0
  142.4060   79.1400  221.9540 C   0  0  0  0  0  0  0  0  0  0  0  0
  142.1770   80.6330  222.0230 C   0  0  0  0  0  0  0  0  0  0  0  0
  141.9609   81.3654  225.2148 H   0  0  0  0  0  0  0  0  0  0  0  0
  143.3767   81.2599  224.1144 H   0  0  0  0  0  0  0  0  0  0  0  0
  142.3470   82.7317  224.1144 H   0  0  0  0  0  0  0  0  0  0  0  0
  140.3536   80.4419  224.7603 H   0  0  0  0  0  0  0  0  0  0  0  0
  139.5851   80.5623  223.0755 H   0  0  0  0  0  0  0  0  0  0  0  0
  141.2952   78.3708  224.1939 H   0  0  0  0  0  0  0  0  0  0  0  0
  139.5901   78.3082  223.6492 H   0  0  0  0  0  0  0  0  0  0  0  0
  140.3402   78.9905  221.3606 H   0  0  0  0  0  0  0  0  0  0  0  0
  141.8540   76.6180  221.6040 H   0  0  0  0  0  0  0  0  0  0  0  0
  138.5696   75.0090  220.5641 H   0  0  0  0  0  0  0  0  0  0  0  0
  140.4097   74.8891  220.3716 H   0  0  0  0  0  0  0  0  0  0  0  0
  139.5560   74.3690  223.0990 H   0  0  0  0  0  0  0  0  0  0  0  0
  139.0739   70.1549  221.7815 H   0  0  0  0  0  0  0  0  0  0  0  0
  139.2025   68.5329  223.6956 H   0  0  0  0  0  0  0  0  0  0  0  0
  139.8099   68.0876  226.0506 H   0  0  0  0  0  0  0  0  0  0  0  0
  141.4829   71.3062  228.3919 H   0  0  0  0  0  0  0  0  0  0  0  0
  141.3249   72.8724  226.4315 H   0  0  0  0  0  0  0  0  0  0  0  0
  143.0539   78.8103  222.7796 H   0  0  0  0  0  0  0  0  0  0  0  0
  142.9067   78.8429  221.0207 H   0  0  0  0  0  0  0  0  0  0  0  0
  143.1532   81.1369  221.9675 H   0  0  0  0  0  0  0  0  0  0  0  0
  141.5198   80.8964  221.1811 H   0  0  0  0  0  0  0  0  0  0  0  0
  1  2  1  0
  2  3  1  0
  3  4  1  0
  4  5  1  0
  5  6  1  0
  6  7  1  0
  7  8  2  0
  7  9  1  0
  9 10  1  0
 10 11  1  0
 11 12  2  0
 11 13  1  0
 13 14  2  0
 14 15  1  0
 15 16  2  0
 16 17  1  0
 17 18  2  0
 18 19  1  0
 18 20  1  0
 20 21  2  0
 21 22  1  0
 22 23  2  0
  5 24  1  0
 24 25  1  0
 25  2  1  0
 23 13  1  0
 22 16  1  0
  1 26  1  0
  1 27  1  0
  1 28  1  0
  3 29  1  0
  3 30  1  0
  4 31  1  0
  4 32  1  0
  5 33  1  0
  6 34  1  0
  9 35  1  0
  9 36  1  0
 10 37  1  0
 14 38  1  0
 15 39  1  0
 17 40  1  0
 20 41  1  0
 21 42  1  0
 24 43  1  0
 24 44  1  0
 25 45  1  0
 25 46  1  0
M  END
>  <smiles>  (34) 
CN1CCC(NC(=O)CNC(=O)c2ccc3cc(Cl)ccc3n2)CC1

>  <score_type>  (34) 
oracle

>  <origin>  (34) 
autodockgpu

>  <m_score__min__energy>  (34) 
-8.3900000000000006

>  <m_primary>  (34) 
energy

>  <rmsd>  (34) 
3.178125017570303

>  <m_score__min__rmsd>  (34) 
3.178125017570303

>  <meeko>  (34) 
{"free_energy": -8.32, "intermolecular_energy": -9.51, "internal_energy": -0.93, "cluster_size": 46, "cluster_id": 1, "rank_in_cluster": 4}

>  <energy>  (34) 
-7.79

>  <cluster_rmsd>  (34) 
0.97

>  <cluster>  (34) 
1

$$$$

     RDKit          3D

 46 48  0  0  0  0  0  0  0  0999 V2000
  140.7740   82.0140  222.3380 C   0  0  0  0  0  0  0  0  0  0  0  0
  141.5380   80.8550  222.6840 N   0  0  0  0  0  0  0  0  0  0  0  0
  142.2320   80.2410  221.6180 C   0  0  0  0  0  0  0  0  0  0  0  0
  141.7150   78.9270  221.1360 C   0  0  0  0  0  0  0  0  0  0  0  0
  141.4190   78.0620  222.3230 C   0  0  0  0  0  0  0  0  0  0  0  0
  141.1310   76.6980  221.9960 N   0  0  0  0  0  0  0  0  0  0  0  0
  139.9210   76.3130  221.3650 C   0  0  0  0  0  0  0  0  0  0  0  0
  139.1020   77.2590  221.1110 O   0  0  0  0  0  0  0  0  0  0  0  0
  139.5420   74.9550  220.9910 C   0  0  0  0  0  0  0  0  0  0  0  0
  139.5720   73.9700  222.0220 N   0  0  0  0  0  0  0  0  0  0  0  0
  139.9540   72.6120  221.7930 C   0  0  0  0  0  0  0  0  0  0  0  0
  140.2900   72.1980  220.6320 O   0  0  0  0  0  0  0  0  0  0  0  0
  139.9650   71.6540  222.9220 C   0  0  0  0  0  0  0  0  0  0  0  0
  139.4460   70.3890  222.7400 C   0  0  0  0  0  0  0  0  0  0  0  0
  139.4550   69.4800  223.8050 C   0  0  0  0  0  0  0  0  0  0  0  0
  139.9910   69.8800  225.0320 C   0  0  0  0  0  0  0  0  0  0  0  0
  140.0150   69.0020  226.1130 C   0  0  0  0  0  0  0  0  0  0  0  0
  140.5640   69.4750  227.2930 C   0  0  0  0  0  0  0  0  0  0  0  0
  140.6370   68.4390  228.7060 Cl  0  0  0  0  0  0  0  0  0  0  0  0
  141.0710   70.7530  227.4210 C   0  0  0  0  0  0  0  0  0  0  0  0
  141.0470   71.6310  226.3430 C   0  0  0  0  0  0  0  0  0  0  0  0
  140.4990   71.1590  225.1680 C   0  0  0  0  0  0  0  0  0  0  0  0
  140.4740   72.0020  224.1180 N   0  0  0  0  0  0  0  0  0  0  0  0
  140.3260   78.7590  223.1070 C   0  0  0  0  0  0  0  0  0  0  0  0
  140.9770   80.0010  223.6730 C   0  0  0  0  0  0  0  0  0  0  0  0
  140.4401   82.5205  223.2556 H   0  0  0  0  0  0  0  0  0  0  0  0
  141.3971   82.7006  221.7462 H   0  0  0  0  0  0  0  0  0  0  0  0
  139.8973   81.7120  221.7462 H   0  0  0  0  0  0  0  0  0  0  0  0
  142.2132   80.9368  220.7662 H   0  0  0  0  0  0  0  0  0  0  0  0
  143.2327   80.0226  222.0190 H   0  0  0  0  0  0  0  0  0  0  0  0
  140.7953   79.0825  220.5529 H   0  0  0  0  0  0  0  0  0  0  0  0
  142.4662   78.4408  220.4962 H   0  0  0  0  0  0  0  0  0  0  0  0
  142.3186   77.9567  222.9472 H   0  0  0  0  0  0  0  0  0  0  0  0
  141.8390   75.9750  222.2430 H   0  0  0  0  0  0  0  0  0  0  0  0
  138.5156   74.9929  220.5972 H   0  0  0  0  0  0  0  0  0  0  0  0
  140.3038   74.6341  220.2653 H   0  0  0  0  0  0  0  0  0  0  0  0
  139.3090   74.1940  223.0300 H   0  0  0  0  0  0  0  0  0  0  0  0
  139.0281   70.0965  221.7654 H   0  0  0  0  0  0  0  0  0  0  0  0
  139.0465   68.4666  223.6778 H   0  0  0  0  0  0  0  0  0  0  0  0
  139.6162   67.9800  226.0331 H   0  0  0  0  0  0  0  0  0  0  0  0
  141.4965   71.0785  228.3817 H   0  0  0  0  0  0  0  0  0  0  0  0
  141.4458   72.6530  226.4232 H   0  0  0  0  0  0  0  0  0  0  0  0
  139.4890   79.0288  222.4462 H   0  0  0  0  0  0  0  0  0  0  0  0
  139.9110   78.1153  223.8965 H   0  0  0  0  0  0  0  0  0  0  0  0
  140.2168   80.5680  224.2304 H   0  0  0  0  0  0  0  0  0  0  0  0
  141.8052   79.6653  224.3144 H   0  0  0  0  0  0  0  0  0  0  0  0
  1  2  1  0
  2  3  1  0
  3  4  1  0
  4  5  1  0
  5  6  1  0
  6  7  1  0
  7  8  2  0
  7  9  1  0
  9 10  1  0
 10 11  1  0
 11 12  2  0
 11 13  1  0
 13 14  2  0
 14 15  1  0
 15 16  2  0
 16 17  1  0
 17 18  2  0
 18 19  1  0
 18 20  1  0
 20 21  2  0
 21 22  1  0
 22 23  2  0
  5 24  1  0
 24 25  1  0
 25  2  1  0
 23 13  1  0
 22 16  1  0
  1 26  1  0
  1 27  1  0
  1 28  1  0
  3 29  1  0
  3 30  1  0
  4 31  1  0
  4 32  1  0
  5 33  1  0
  6 34  1  0
  9 35  1  0
  9 36  1  0
 10 37  1  0
 14 38  1  0
 15 39  1  0
 17 40  1  0
 20 41  1  0
 21 42  1  0
 24 43  1  0
 24 44  1  0
 25 45  1  0
 25 46  1  0
M  END
>  <smiles>  (35) 
CN1CCC(NC(=O)CNC(=O)c2ccc3cc(Cl)ccc3n2)CC1

>  <score_type>  (35) 
oracle

>  <origin>  (35) 
autodockgpu

>  <m_score__min__energy>  (35) 
-8.3900000000000006

>  <m_primary>  (35) 
energy

>  <rmsd>  (35) 
2.4419709060005235

>  <m_score__min__rmsd>  (35) 
2.4419709060005235

>  <meeko>  (35) 
{"free_energy": -8.31, "intermolecular_energy": -9.5, "internal_energy": -0.82, "cluster_size": 46, "cluster_id": 1, "rank_in_cluster": 6}

>  <energy>  (35) 
-7.79

>  <cluster_rmsd>  (35) 
0.98

>  <cluster>  (35) 
1

$$$$

     RDKit          3D

 46 48  0  0  0  0  0  0  0  0999 V2000
  141.4190   81.3160  222.7980 C   0  0  0  0  0  0  0  0  0  0  0  0
  142.0430   80.1100  222.3480 N   0  0  0  0  0  0  0  0  0  0  0  0
  141.7920   79.7570  221.0040 C   0  0  0  0  0  0  0  0  0  0  0  0
  140.8980   78.5870  220.7620 C   0  0  0  0  0  0  0  0  0  0  0  0
  141.3060   77.4730  221.6770 C   0  0  0  0  0  0  0  0  0  0  0  0
  140.6760   76.2200  221.3890 N   0  0  0  0  0  0  0  0  0  0  0  0
  139.2700   76.0480  221.4640 C   0  0  0  0  0  0  0  0  0  0  0  0
  138.6020   77.0800  221.8070 O   0  0  0  0  0  0  0  0  0  0  0  0
  138.5400   74.8160  221.1870 C   0  0  0  0  0  0  0  0  0  0  0  0
  138.6790   73.7570  222.1330 N   0  0  0  0  0  0  0  0  0  0  0  0
  139.9060   73.0570  222.3450 C   0  0  0  0  0  0  0  0  0  0  0  0
  140.9620   73.3410  221.6840 O   0  0  0  0  0  0  0  0  0  0  0  0
  139.9670   71.9730  223.3520 C   0  0  0  0  0  0  0  0  0  0  0  0
  139.5410   70.7070  223.0110 C   0  0  0  0  0  0  0  0  0  0  0  0
  139.5980   69.6800  223.9600 C   0  0  0  0  0  0  0  0  0  0  0  0
  140.0860   69.9650  225.2380 C   0  0  0  0  0  0  0  0  0  0  0  0
  140.1550   68.9690  226.2080 C   0  0  0  0  0  0  0  0  0  0  0  0
  140.6520   69.3340  227.4480 C   0  0  0  0  0  0  0  0  0  0  0  0
  140.7760   68.1430  228.7300 Cl  0  0  0  0  0  0  0  0  0  0  0  0
  141.0660   70.6180  227.7380 C   0  0  0  0  0  0  0  0  0  0  0  0
  140.9970   71.6150  226.7710 C   0  0  0  0  0  0  0  0  0  0  0  0
  140.5010   71.2510  225.5360 C   0  0  0  0  0  0  0  0  0  0  0  0
  140.4320   72.2100  224.5930 N   0  0  0  0  0  0  0  0  0  0  0  0
  141.0870   77.9710  223.0910 C   0  0  0  0  0  0  0  0  0  0  0  0
  142.1260   79.0510  223.2940 C   0  0  0  0  0  0  0  0  0  0  0  0
  141.4090   81.3354  223.8978 H   0  0  0  0  0  0  0  0  0  0  0  0
  141.9818   82.1827  222.4211 H   0  0  0  0  0  0  0  0  0  0  0  0
  140.3864   81.3573  222.4211 H   0  0  0  0  0  0  0  0  0  0  0  0
  141.3362   80.6291  220.5123 H   0  0  0  0  0  0  0  0  0  0  0  0
  142.7704   79.4541  220.6028 H   0  0  0  0  0  0  0  0  0  0  0  0
  139.8547   78.8700  220.9657 H   0  0  0  0  0  0  0  0  0  0  0  0
  140.9822   78.2615  219.7146 H   0  0  0  0  0  0  0  0  0  0  0  0
  142.3679   77.2288  221.5265 H   0  0  0  0  0  0  0  0  0  0  0  0
  141.2830   75.4150  221.1270 H   0  0  0  0  0  0  0  0  0  0  0  0
  137.4713   75.0694  221.1264 H   0  0  0  0  0  0  0  0  0  0  0  0
  138.9764   74.4273  220.2551 H   0  0  0  0  0  0  0  0  0  0  0  0
  137.8680   73.4270  222.7400 H   0  0  0  0  0  0  0  0  0  0  0  0
  139.1587   70.5053  221.9995 H   0  0  0  0  0  0  0  0  0  0  0  0
  139.2637   68.6638  223.7038 H   0  0  0  0  0  0  0  0  0  0  0  0
  139.8297   67.9392  225.9991 H   0  0  0  0  0  0  0  0  0  0  0  0
  141.4530   70.8543  228.7402 H   0  0  0  0  0  0  0  0  0  0  0  0
  141.3223   72.6447  226.9807 H   0  0  0  0  0  0  0  0  0  0  0  0
  140.0737   78.3843  223.2022 H   0  0  0  0  0  0  0  0  0  0  0  0
  141.1821   77.1633  223.8317 H   0  0  0  0  0  0  0  0  0  0  0  0
  141.9950   79.4739  224.3010 H   0  0  0  0  0  0  0  0  0  0  0  0
  143.1105   78.5785  223.1618 H   0  0  0  0  0  0  0  0  0  0  0  0
  1  2  1  0
  2  3  1  0
  3  4  1  0
  4  5  1  0
  5  6  1  0
  6  7  1  0
  7  8  2  0
  7  9  1  0
  9 10  1  0
 10 11  1  0
 11 12  2  0
 11 13  1  0
 13 14  2  0
 14 15  1  0
 15 16  2  0
 16 17  1  0
 17 18  2  0
 18 19  1  0
 18 20  1  0
 20 21  2  0
 21 22  1  0
 22 23  2  0
  5 24  1  0
 24 25  1  0
 25  2  1  0
 23 13  1  0
 22 16  1  0
  1 26  1  0
  1 27  1  0
  1 28  1  0
  3 29  1  0
  3 30  1  0
  4 31  1  0
  4 32  1  0
  5 33  1  0
  6 34  1  0
  9 35  1  0
  9 36  1  0
 10 37  1  0
 14 38  1  0
 15 39  1  0
 17 40  1  0
 20 41  1  0
 21 42  1  0
 24 43  1  0
 24 44  1  0
 25 45  1  0
 25 46  1  0
M  END
>  <smiles>  (36) 
CN1CCC(NC(=O)CNC(=O)c2ccc3cc(Cl)ccc3n2)CC1

>  <score_type>  (36) 
oracle

>  <origin>  (36) 
autodockgpu

>  <m_score__min__energy>  (36) 
-8.3900000000000006

>  <m_primary>  (36) 
energy

>  <rmsd>  (36) 
2.182440460647201

>  <m_score__min__rmsd>  (36) 
2.182440460647201

>  <meeko>  (36) 
{"free_energy": -7.83, "intermolecular_energy": -9.02, "internal_energy": -1.46, "cluster_size": 46, "cluster_id": 1, "rank_in_cluster": 27}

>  <energy>  (36) 
-7.78

>  <cluster_rmsd>  (36) 
0.97

>  <cluster>  (36) 
1

$$$$

     RDKit          3D

 46 48  0  0  0  0  0  0  0  0999 V2000
  141.3900   81.3920  222.7500 C   0  0  0  0  0  0  0  0  0  0  0  0
  142.0200   80.1790  222.3300 N   0  0  0  0  0  0  0  0  0  0  0  0
  141.7840   79.8010  220.9900 C   0  0  0  0  0  0  0  0  0  0  0  0
  140.8930   78.6260  220.7600 C   0  0  0  0  0  0  0  0  0  0  0  0
  141.2910   77.5290  221.7010 C   0  0  0  0  0  0  0  0  0  0  0  0
  140.6650   76.2700  221.4290 N   0  0  0  0  0  0  0  0  0  0  0  0
  139.2560   76.1150  221.4240 C   0  0  0  0  0  0  0  0  0  0  0  0
  138.5800   77.1670  221.6800 O   0  0  0  0  0  0  0  0  0  0  0  0
  138.5290   74.8780  221.1570 C   0  0  0  0  0  0  0  0  0  0  0  0
  138.6830   73.8220  222.1030 N   0  0  0  0  0  0  0  0  0  0  0  0
  139.8920   73.0770  222.2510 C   0  0  0  0  0  0  0  0  0  0  0  0
  140.9180   73.3140  221.5280 O   0  0  0  0  0  0  0  0  0  0  0  0
  139.9700   72.0000  223.2640 C   0  0  0  0  0  0  0  0  0  0  0  0
  139.5660   70.7250  222.9280 C   0  0  0  0  0  0  0  0  0  0  0  0
  139.6390   69.7030  223.8830 C   0  0  0  0  0  0  0  0  0  0  0  0
  140.1200   70.0030  225.1600 C   0  0  0  0  0  0  0  0  0  0  0  0
  140.2050   69.0130  226.1350 C   0  0  0  0  0  0  0  0  0  0  0  0
  140.6930   69.3930  227.3740 C   0  0  0  0  0  0  0  0  0  0  0  0
  140.8350   68.2110  228.6620 Cl  0  0  0  0  0  0  0  0  0  0  0  0
  141.0830   70.6850  227.6590 C   0  0  0  0  0  0  0  0  0  0  0  0
  140.9990   71.6770  226.6860 C   0  0  0  0  0  0  0  0  0  0  0  0
  140.5120   71.2970  225.4520 C   0  0  0  0  0  0  0  0  0  0  0  0
  140.4280   72.2500  224.5050 N   0  0  0  0  0  0  0  0  0  0  0  0
  141.0570   78.0530  223.1020 C   0  0  0  0  0  0  0  0  0  0  0  0
  142.0920   79.1380  223.2960 C   0  0  0  0  0  0  0  0  0  0  0  0
  141.3689   81.4327  223.8490 H   0  0  0  0  0  0  0  0  0  0  0  0
  141.9553   82.2522  222.3620 H   0  0  0  0  0  0  0  0  0  0  0  0
  140.3612   81.4242  222.3620 H   0  0  0  0  0  0  0  0  0  0  0  0
  141.3333   80.6635  220.4773 H   0  0  0  0  0  0  0  0  0  0  0  0
  142.7669   79.4914  220.6053 H   0  0  0  0  0  0  0  0  0  0  0  0
  139.8474   78.9123  220.9464 H   0  0  0  0  0  0  0  0  0  0  0  0
  140.9893   78.2808  219.7200 H   0  0  0  0  0  0  0  0  0  0  0  0
  142.3546   77.2824  221.5673 H   0  0  0  0  0  0  0  0  0  0  0  0
  141.2780   75.4500  221.2400 H   0  0  0  0  0  0  0  0  0  0  0  0
  137.4585   75.1259  221.1070 H   0  0  0  0  0  0  0  0  0  0  0  0
  138.9578   74.4896  220.2214 H   0  0  0  0  0  0  0  0  0  0  0  0
  137.8960   73.5280  222.7590 H   0  0  0  0  0  0  0  0  0  0  0  0
  139.1889   70.5120  221.9168 H   0  0  0  0  0  0  0  0  0  0  0  0
  139.3225   68.6800  223.6315 H   0  0  0  0  0  0  0  0  0  0  0  0
  139.8986   67.9765  225.9306 H   0  0  0  0  0  0  0  0  0  0  0  0
  141.4627   70.9330  228.6612 H   0  0  0  0  0  0  0  0  0  0  0  0
  141.3059   72.7133  226.8908 H   0  0  0  0  0  0  0  0  0  0  0  0
  140.0420   78.4668  223.1948 H   0  0  0  0  0  0  0  0  0  0  0  0
  141.1458   77.2594  223.8585 H   0  0  0  0  0  0  0  0  0  0  0  0
  141.9487   79.5797  224.2932 H   0  0  0  0  0  0  0  0  0  0  0  0
  143.0782   78.6639  223.1833 H   0  0  0  0  0  0  0  0  0  0  0  0
  1  2  1  0
  2  3  1  0
  3  4  1  0
  4  5  1  0
  5  6  1  0
  6  7  1  0
  7  8  2  0
  7  9  1  0
  9 10  1  0
 10 11  1  0
 11 12  2  0
 11 13  1  0
 13 14  2  0
 14 15  1  0
 15 16  2  0
 16 17  1  0
 17 18  2  0
 18 19  1  0
 18 20  1  0
 20 21  2  0
 21 22  1  0
 22 23  2  0
  5 24  1  0
 24 25  1  0
 25  2  1  0
 23 13  1  0
 22 16  1  0
  1 26  1  0
  1 27  1  0
  1 28  1  0
  3 29  1  0
  3 30  1  0
  4 31  1  0
  4 32  1  0
  5 33  1  0
  6 34  1  0
  9 35  1  0
  9 36  1  0
 10 37  1  0
 14 38  1  0
 15 39  1  0
 17 40  1  0
 20 41  1  0
 21 42  1  0
 24 43  1  0
 24 44  1  0
 25 45  1  0
 25 46  1  0
M  END
>  <smiles>  (37) 
CN1CCC(NC(=O)CNC(=O)c2ccc3cc(Cl)ccc3n2)CC1

>  <score_type>  (37) 
oracle

>  <origin>  (37) 
autodockgpu

>  <m_score__min__energy>  (37) 
-8.3900000000000006

>  <m_primary>  (37) 
energy

>  <rmsd>  (37) 
2.203795428465667

>  <m_score__min__rmsd>  (37) 
2.203795428465667

>  <meeko>  (37) 
{"free_energy": -7.76, "intermolecular_energy": -8.95, "internal_energy": -1.46, "cluster_size": 46, "cluster_id": 1, "rank_in_cluster": 38}

>  <energy>  (37) 
-7.77

>  <cluster_rmsd>  (37) 
1.05

>  <cluster>  (37) 
1

$$$$

     RDKit          3D

 46 48  0  0  0  0  0  0  0  0999 V2000
  140.9470   82.0040  222.3940 C   0  0  0  0  0  0  0  0  0  0  0  0
  141.7310   80.8210  222.5630 N   0  0  0  0  0  0  0  0  0  0  0  0
  142.2020   80.2240  221.3730 C   0  0  0  0  0  0  0  0  0  0  0  0
  141.5720   78.9360  220.9610 C   0  0  0  0  0  0  0  0  0  0  0  0
  141.4760   78.0420  222.1600 C   0  0  0  0  0  0  0  0  0  0  0  0
  141.0980   76.6950  221.8550 N   0  0  0  0  0  0  0  0  0  0  0  0
  139.8080   76.3660  221.3690 C   0  0  0  0  0  0  0  0  0  0  0  0
  139.0020   77.3450  221.2240 O   0  0  0  0  0  0  0  0  0  0  0  0
  139.3340   75.0280  221.0300 C   0  0  0  0  0  0  0  0  0  0  0  0
  139.4050   74.0390  222.0560 N   0  0  0  0  0  0  0  0  0  0  0  0
  139.8830   72.7120  221.8290 C   0  0  0  0  0  0  0  0  0  0  0  0
  140.2740   72.3300  220.6740 O   0  0  0  0  0  0  0  0  0  0  0  0
  139.9300   71.7480  222.9510 C   0  0  0  0  0  0  0  0  0  0  0  0
  139.4690   70.4630  222.7590 C   0  0  0  0  0  0  0  0  0  0  0  0
  139.5130   69.5480  223.8180 C   0  0  0  0  0  0  0  0  0  0  0  0
  140.0240   69.9630  225.0510 C   0  0  0  0  0  0  0  0  0  0  0  0
  140.0810   69.0810  226.1270 C   0  0  0  0  0  0  0  0  0  0  0  0
  140.6020   69.5710  227.3130 C   0  0  0  0  0  0  0  0  0  0  0  0
  140.7130   68.5300  228.7200 Cl  0  0  0  0  0  0  0  0  0  0  0  0
  141.0500   70.8690  227.4520 C   0  0  0  0  0  0  0  0  0  0  0  0
  140.9930   71.7520  226.3790 C   0  0  0  0  0  0  0  0  0  0  0  0
  140.4740   71.2630  225.1980 C   0  0  0  0  0  0  0  0  0  0  0  0
  140.4160   72.1110  224.1530 N   0  0  0  0  0  0  0  0  0  0  0  0
  140.5630   78.7380  223.1480 C   0  0  0  0  0  0  0  0  0  0  0  0
  141.3390   79.9490  223.6160 C   0  0  0  0  0  0  0  0  0  0  0  0
  140.6781   82.4097  223.3805 H   0  0  0  0  0  0  0  0  0  0  0  0
  141.5284   82.7525  221.8357 H   0  0  0  0  0  0  0  0  0  0  0  0
  140.0311   81.7602  221.8357 H   0  0  0  0  0  0  0  0  0  0  0  0
  142.0459   80.9448  220.5568 H   0  0  0  0  0  0  0  0  0  0  0  0
  143.2530   79.9727  221.5784 H   0  0  0  0  0  0  0  0  0  0  0  0
  140.5655   79.1277  220.5609 H   0  0  0  0  0  0  0  0  0  0  0  0
  142.1808   78.4537  220.1821 H   0  0  0  0  0  0  0  0  0  0  0  0
  142.4708   77.8991  222.6071 H   0  0  0  0  0  0  0  0  0  0  0  0
  141.8020   75.9430  222.0090 H   0  0  0  0  0  0  0  0  0  0  0  0
  138.2807   75.1158  220.7254 H   0  0  0  0  0  0  0  0  0  0  0  0
  140.0150   74.6735  220.2422 H   0  0  0  0  0  0  0  0  0  0  0  0
  139.1020   74.2370  223.0580 H   0  0  0  0  0  0  0  0  0  0  0  0
  139.0693   70.1586  221.7805 H   0  0  0  0  0  0  0  0  0  0  0  0
  139.1509   68.5183  223.6816 H   0  0  0  0  0  0  0  0  0  0  0  0
  139.7284   68.0428  226.0391 H   0  0  0  0  0  0  0  0  0  0  0  0
  141.4546   71.2072  228.4173 H   0  0  0  0  0  0  0  0  0  0  0  0
  141.3448   72.7904  226.4677 H   0  0  0  0  0  0  0  0  0  0  0  0
  139.6267   79.0447  222.6588 H   0  0  0  0  0  0  0  0  0  0  0  0
  140.2822   78.0802  223.9837 H   0  0  0  0  0  0  0  0  0  0  0  0
  140.7091   80.5145  224.3184 H   0  0  0  0  0  0  0  0  0  0  0  0
  142.2620   79.5769  224.0846 H   0  0  0  0  0  0  0  0  0  0  0  0
  1  2  1  0
  2  3  1  0
  3  4  1  0
  4  5  1  0
  5  6  1  0
  6  7  1  0
  7  8  2  0
  7  9  1  0
  9 10  1  0
 10 11  1  0
 11 12  2  0
 11 13  1  0
 13 14  2  0
 14 15  1  0
 15 16  2  0
 16 17  1  0
 17 18  2  0
 18 19  1  0
 18 20  1  0
 20 21  2  0
 21 22  1  0
 22 23  2  0
  5 24  1  0
 24 25  1  0
 25  2  1  0
 23 13  1  0
 22 16  1  0
  1 26  1  0
  1 27  1  0
  1 28  1  0
  3 29  1  0
  3 30  1  0
  4 31  1  0
  4 32  1  0
  5 33  1  0
  6 34  1  0
  9 35  1  0
  9 36  1  0
 10 37  1  0
 14 38  1  0
 15 39  1  0
 17 40  1  0
 20 41  1  0
 21 42  1  0
 24 43  1  0
 24 44  1  0
 25 45  1  0
 25 46  1  0
M  END
>  <smiles>  (38) 
CN1CCC(NC(=O)CNC(=O)c2ccc3cc(Cl)ccc3n2)CC1

>  <score_type>  (38) 
oracle

>  <origin>  (38) 
autodockgpu

>  <m_score__min__energy>  (38) 
-8.3900000000000006

>  <m_primary>  (38) 
energy

>  <rmsd>  (38) 
2.381517806222559

>  <m_score__min__rmsd>  (38) 
2.381517806222559

>  <meeko>  (38) 
{"free_energy": -8.3, "intermolecular_energy": -9.49, "internal_energy": -0.84, "cluster_size": 46, "cluster_id": 1, "rank_in_cluster": 8}

>  <energy>  (38) 
-7.76

>  <cluster_rmsd>  (38) 
0.97

>  <cluster>  (38) 
1

$$$$

     RDKit          3D

 46 48  0  0  0  0  0  0  0  0999 V2000
  140.2390   68.5430  228.7270 C   0  0  0  0  0  0  0  0  0  0  0  0
  141.0840   69.1510  227.7460 N   0  0  0  0  0  0  0  0  0  0  0  0
  141.0750   70.5630  227.7240 C   0  0  0  0  0  0  0  0  0  0  0  0
  140.3970   71.2230  226.5700 C   0  0  0  0  0  0  0  0  0  0  0  0
  140.8260   70.5400  225.3070 C   0  0  0  0  0  0  0  0  0  0  0  0
  140.4250   71.2190  224.1110 N   0  0  0  0  0  0  0  0  0  0  0  0
  139.0650   71.3270  223.7260 C   0  0  0  0  0  0  0  0  0  0  0  0
  138.2200   70.7780  224.5100 O   0  0  0  0  0  0  0  0  0  0  0  0
  138.5610   71.9980  222.5320 C   0  0  0  0  0  0  0  0  0  0  0  0
  139.0220   73.3270  222.2960 N   0  0  0  0  0  0  0  0  0  0  0  0
  140.3440   73.6260  221.8440 C   0  0  0  0  0  0  0  0  0  0  0  0
  141.2020   72.7050  221.6270 O   0  0  0  0  0  0  0  0  0  0  0  0
  140.7400   75.0350  221.6180 C   0  0  0  0  0  0  0  0  0  0  0  0
  141.6190   75.3350  220.5980 C   0  0  0  0  0  0  0  0  0  0  0  0
  141.9950   76.6660  220.3810 C   0  0  0  0  0  0  0  0  0  0  0  0
  141.4690   77.6620  221.2080 C   0  0  0  0  0  0  0  0  0  0  0  0
  141.8220   78.9960  221.0210 C   0  0  0  0  0  0  0  0  0  0  0  0
  141.2560   79.9210  221.8830 C   0  0  0  0  0  0  0  0  0  0  0  0
  141.6440   81.6240  221.7210 Cl  0  0  0  0  0  0  0  0  0  0  0  0
  140.3810   79.5660  222.8890 C   0  0  0  0  0  0  0  0  0  0  0  0
  140.0270   78.2340  223.0770 C   0  0  0  0  0  0  0  0  0  0  0  0
  140.5920   77.3140  222.2190 C   0  0  0  0  0  0  0  0  0  0  0  0
  140.2540   76.0220  222.3930 N   0  0  0  0  0  0  0  0  0  0  0  0
  140.3440   69.1070  225.4030 C   0  0  0  0  0  0  0  0  0  0  0  0
  141.1820   68.4820  226.4950 C   0  0  0  0  0  0  0  0  0  0  0  0
  140.5997   68.8026  229.7332 H   0  0  0  0  0  0  0  0  0  0  0  0
  139.2092   68.9085  228.6011 H   0  0  0  0  0  0  0  0  0  0  0  0
  140.2583   67.4504  228.6011 H   0  0  0  0  0  0  0  0  0  0  0  0
  140.5742   70.9050  228.6417 H   0  0  0  0  0  0  0  0  0  0  0  0
  142.1326   70.8518  227.6343 H   0  0  0  0  0  0  0  0  0  0  0  0
  139.3062   71.1392  226.6841 H   0  0  0  0  0  0  0  0  0  0  0  0
  140.6714   72.2876  226.5326 H   0  0  0  0  0  0  0  0  0  0  0  0
  141.9223   70.5601  225.2186 H   0  0  0  0  0  0  0  0  0  0  0  0
  141.1690   71.6330  223.5110 H   0  0  0  0  0  0  0  0  0  0  0  0
  138.8464   71.3878  221.6624 H   0  0  0  0  0  0  0  0  0  0  0  0
  137.4772   72.0946  222.6931 H   0  0  0  0  0  0  0  0  0  0  0  0
  138.4000   74.1800  222.4460 H   0  0  0  0  0  0  0  0  0  0  0  0
  142.0215   74.5344  219.9600 H   0  0  0  0  0  0  0  0  0  0  0  0
  142.6939   76.9238  219.5717 H   0  0  0  0  0  0  0  0  0  0  0  0
  142.5180   79.3011  220.2257 H   0  0  0  0  0  0  0  0  0  0  0  0
  139.9607   80.3412  223.5465 H   0  0  0  0  0  0  0  0  0  0  0  0
  139.3301   77.9292  223.8716 H   0  0  0  0  0  0  0  0  0  0  0  0
  139.2771   69.0754  225.6690 H   0  0  0  0  0  0  0  0  0  0  0  0
  140.4473   68.5725  224.4472 H   0  0  0  0  0  0  0  0  0  0  0  0
  140.8538   67.4410  226.6315 H   0  0  0  0  0  0  0  0  0  0  0  0
  142.2318   68.5532  226.1744 H   0  0  0  0  0  0  0  0  0  0  0  0
  1  2  1  0
  2  3  1  0
  3  4  1  0
  4  5  1  0
  5  6  1  0
  6  7  1  0
  7  8  2  0
  7  9  1  0
  9 10  1  0
 10 11  1  0
 11 12  2  0
 11 13  1  0
 13 14  2  0
 14 15  1  0
 15 16  2  0
 16 17  1  0
 17 18  2  0
 18 19  1  0
 18 20  1  0
 20 21  2  0
 21 22  1  0
 22 23  2  0
  5 24  1  0
 24 25  1  0
 25  2  1  0
 23 13  1  0
 22 16  1  0
  1 26  1  0
  1 27  1  0
  1 28  1  0
  3 29  1  0
  3 30  1  0
  4 31  1  0
  4 32  1  0
  5 33  1  0
  6 34  1  0
  9 35  1  0
  9 36  1  0
 10 37  1  0
 14 38  1  0
 15 39  1  0
 17 40  1  0
 20 41  1  0
 21 42  1  0
 24 43  1  0
 24 44  1  0
 25 45  1  0
 25 46  1  0
M  END
>  <smiles>  (39) 
CN1CCC(NC(=O)CNC(=O)c2ccc3cc(Cl)ccc3n2)CC1

>  <score_type>  (39) 
oracle

>  <origin>  (39) 
autodockgpu

>  <m_score__min__energy>  (39) 
-8.3900000000000006

>  <m_primary>  (39) 
energy

>  <rmsd>  (39) 
8.3129389774317

>  <m_score__min__rmsd>  (39) 
8.3129389774317

>  <meeko>  (39) 
{"free_energy": -7.35, "intermolecular_energy": -8.55, "internal_energy": -1.65, "cluster_size": 4, "cluster_id": 2, "rank_in_cluster": 1}

>  <energy>  (39) 
-7.68

>  <cluster_rmsd>  (39) 
0.99

>  <cluster>  (39) 
1

$$$$

     RDKit          3D

 46 48  0  0  0  0  0  0  0  0999 V2000
  140.3590   68.1620  229.0460 C   0  0  0  0  0  0  0  0  0  0  0  0
  141.1540   68.7870  228.0340 N   0  0  0  0  0  0  0  0  0  0  0  0
  141.0980   70.1970  227.9980 C   0  0  0  0  0  0  0  0  0  0  0  0
  140.3650   70.8220  226.8580 C   0  0  0  0  0  0  0  0  0  0  0  0
  140.7780   70.1400  225.5890 C   0  0  0  0  0  0  0  0  0  0  0  0
  140.3200   70.7920  224.3990 N   0  0  0  0  0  0  0  0  0  0  0  0
  138.9460   70.8590  224.0590 C   0  0  0  0  0  0  0  0  0  0  0  0
  138.1420   70.2980  224.8770 O   0  0  0  0  0  0  0  0  0  0  0  0
  138.3850   71.5010  222.8740 C   0  0  0  0  0  0  0  0  0  0  0  0
  138.8840   72.7960  222.5460 N   0  0  0  0  0  0  0  0  0  0  0  0
  140.1820   73.0150  221.9920 C   0  0  0  0  0  0  0  0  0  0  0  0
  140.9840   72.0470  221.7620 O   0  0  0  0  0  0  0  0  0  0  0  0
  140.6200   74.3930  221.6730 C   0  0  0  0  0  0  0  0  0  0  0  0
  141.6060   74.5880  220.7290 C   0  0  0  0  0  0  0  0  0  0  0  0
  142.0220   75.8900  220.4240 C   0  0  0  0  0  0  0  0  0  0  0  0
  141.4260   76.9650  221.0900 C   0  0  0  0  0  0  0  0  0  0  0  0
  141.8150   78.2730  220.8130 C   0  0  0  0  0  0  0  0  0  0  0  0
  141.1750   79.2800  221.5150 C   0  0  0  0  0  0  0  0  0  0  0  0
  141.6020   80.9570  221.2320 Cl  0  0  0  0  0  0  0  0  0  0  0  0
  140.1930   79.0290  222.4520 C   0  0  0  0  0  0  0  0  0  0  0  0
  139.8020   77.7230  222.7300 C   0  0  0  0  0  0  0  0  0  0  0  0
  140.4410   76.7200  222.0300 C   0  0  0  0  0  0  0  0  0  0  0  0
  140.0690   75.4530  222.2930 N   0  0  0  0  0  0  0  0  0  0  0  0
  140.3470   68.6930  225.7140 C   0  0  0  0  0  0  0  0  0  0  0  0
  141.2360   68.1070  226.7870 C   0  0  0  0  0  0  0  0  0  0  0  0
  140.7320   68.4552  230.0384 H   0  0  0  0  0  0  0  0  0  0  0  0
  139.3118   68.4812  228.9388 H   0  0  0  0  0  0  0  0  0  0  0  0
  140.4220   67.0690  228.9388 H   0  0  0  0  0  0  0  0  0  0  0  0
  140.6134   70.5327  228.9267 H   0  0  0  0  0  0  0  0  0  0  0  0
  142.1425   70.5190  227.8739 H   0  0  0  0  0  0  0  0  0  0  0  0
  139.2813   70.7042  227.0057 H   0  0  0  0  0  0  0  0  0  0  0  0
  140.6038   71.8943  226.8019 H   0  0  0  0  0  0  0  0  0  0  0  0
  141.8698   70.1956  225.4670 H   0  0  0  0  0  0  0  0  0  0  0  0
  141.0320   71.2180  223.7700 H   0  0  0  0  0  0  0  0  0  0  0  0
  138.5800   70.8421  222.0150 H   0  0  0  0  0  0  0  0  0  0  0  0
  137.3207   71.6536  223.1065 H   0  0  0  0  0  0  0  0  0  0  0  0
  138.3100   73.6810  222.6970 H   0  0  0  0  0  0  0  0  0  0  0  0
  142.0626   73.7269  220.2191 H   0  0  0  0  0  0  0  0  0  0  0  0
  142.8057   76.0641  219.6720 H   0  0  0  0  0  0  0  0  0  0  0  0
  142.5952   78.4960  220.0703 H   0  0  0  0  0  0  0  0  0  0  0  0
  139.7166   79.8668  222.9822 H   0  0  0  0  0  0  0  0  0  0  0  0
  139.0211   77.5007  223.4721 H   0  0  0  0  0  0  0  0  0  0  0  0
  139.2899   68.6295  226.0115 H   0  0  0  0  0  0  0  0  0  0  0  0
  140.4409   68.1518  224.7609 H   0  0  0  0  0  0  0  0  0  0  0  0
  140.9449   67.0579  226.9441 H   0  0  0  0  0  0  0  0  0  0  0  0
  142.2731   68.2074  226.4345 H   0  0  0  0  0  0  0  0  0  0  0  0
  1  2  1  0
  2  3  1  0
  3  4  1  0
  4  5  1  0
  5  6  1  0
  6  7  1  0
  7  8  2  0
  7  9  1  0
  9 10  1  0
 10 11  1  0
 11 12  2  0
 11 13  1  0
 13 14  2  0
 14 15  1  0
 15 16  2  0
 16 17  1  0
 17 18  2  0
 18 19  1  0
 18 20  1  0
 20 21  2  0
 21 22  1  0
 22 23  2  0
  5 24  1  0
 24 25  1  0
 25  2  1  0
 23 13  1  0
 22 16  1  0
  1 26  1  0
  1 27  1  0
  1 28  1  0
  3 29  1  0
  3 30  1  0
  4 31  1  0
  4 32  1  0
  5 33  1  0
  6 34  1  0
  9 35  1  0
  9 36  1  0
 10 37  1  0
 14 38  1  0
 15 39  1  0
 17 40  1  0
 20 41  1  0
 21 42  1  0
 24 43  1  0
 24 44  1  0
 25 45  1  0
 25 46  1  0
M  END
>  <smiles>  (40) 
CN1CCC(NC(=O)CNC(=O)c2ccc3cc(Cl)ccc3n2)CC1

>  <score_type>  (40) 
oracle

>  <origin>  (40) 
autodockgpu

>  <m_score__min__energy>  (40) 
-8.3900000000000006

>  <m_primary>  (40) 
energy

>  <rmsd>  (40) 
8.262879365483151

>  <m_score__min__rmsd>  (40) 
8.262879365483151

>  <meeko>  (40) 
{"free_energy": -7.2, "intermolecular_energy": -8.39, "internal_energy": -1.71, "cluster_size": 4, "cluster_id": 2, "rank_in_cluster": 4}

>  <energy>  (40) 
-7.62

>  <cluster_rmsd>  (40) 
1.05

>  <cluster>  (40) 
1

$$$$

     RDKit          3D

 46 48  0  0  0  0  0  0  0  0999 V2000
  143.1400   80.4640  222.9340 C   0  0  0  0  0  0  0  0  0  0  0  0
  141.8640   79.9850  222.5020 N   0  0  0  0  0  0  0  0  0  0  0  0
  141.1780   79.1590  223.4190 C   0  0  0  0  0  0  0  0  0  0  0  0
  141.0820   77.7070  223.0890 C   0  0  0  0  0  0  0  0  0  0  0  0
  140.6940   77.5660  221.6480 C   0  0  0  0  0  0  0  0  0  0  0  0
  140.3490   76.2310  221.2640 N   0  0  0  0  0  0  0  0  0  0  0  0
  139.0020   75.7970  221.1750 C   0  0  0  0  0  0  0  0  0  0  0  0
  138.1170   76.6700  221.4620 O   0  0  0  0  0  0  0  0  0  0  0  0
  138.5540   74.4620  220.7910 C   0  0  0  0  0  0  0  0  0  0  0  0
  138.6930   73.4300  221.7650 N   0  0  0  0  0  0  0  0  0  0  0  0
  139.9520   73.0480  222.3230 C   0  0  0  0  0  0  0  0  0  0  0  0
  141.0410   73.6150  221.9690 O   0  0  0  0  0  0  0  0  0  0  0  0
  140.0080   71.9690  223.3350 C   0  0  0  0  0  0  0  0  0  0  0  0
  139.5500   70.7100  223.0080 C   0  0  0  0  0  0  0  0  0  0  0  0
  139.6020   69.6870  223.9630 C   0  0  0  0  0  0  0  0  0  0  0  0
  140.1170   69.9690  225.2300 C   0  0  0  0  0  0  0  0  0  0  0  0
  140.1830   68.9770  226.2050 C   0  0  0  0  0  0  0  0  0  0  0  0
  140.7090   69.3380  227.4340 C   0  0  0  0  0  0  0  0  0  0  0  0
  140.8300   68.1520  228.7200 Cl  0  0  0  0  0  0  0  0  0  0  0  0
  141.1530   70.6150  227.7090 C   0  0  0  0  0  0  0  0  0  0  0  0
  141.0880   71.6080  226.7380 C   0  0  0  0  0  0  0  0  0  0  0  0
  140.5640   71.2470  225.5140 C   0  0  0  0  0  0  0  0  0  0  0  0
  140.4990   72.2020  224.5670 N   0  0  0  0  0  0  0  0  0  0  0  0
  141.8160   78.1790  220.8350 C   0  0  0  0  0  0  0  0  0  0  0  0
  141.7460   79.6620  221.1220 C   0  0  0  0  0  0  0  0  0  0  0  0
  143.1739   80.4767  224.0334 H   0  0  0  0  0  0  0  0  0  0  0  0
  143.9296   79.8010  222.5505 H   0  0  0  0  0  0  0  0  0  0  0  0
  143.2983   81.4828  222.5505 H   0  0  0  0  0  0  0  0  0  0  0  0
  141.6899   79.2448  224.3889 H   0  0  0  0  0  0  0  0  0  0  0  0
  140.1397   79.5220  223.4060 H   0  0  0  0  0  0  0  0  0  0  0  0
  142.0553   77.2236  223.2592 H   0  0  0  0  0  0  0  0  0  0  0  0
  140.3274   77.2264  223.7290 H   0  0  0  0  0  0  0  0  0  0  0  0
  139.7543   78.1039  221.4541 H   0  0  0  0  0  0  0  0  0  0  0  0
  141.1230   75.5660  221.0540 H   0  0  0  0  0  0  0  0  0  0  0  0
  137.4876   74.5315  220.5303 H   0  0  0  0  0  0  0  0  0  0  0  0
  139.2140   74.1652  219.9626 H   0  0  0  0  0  0  0  0  0  0  0  0
  137.8580   72.8800  222.1350 H   0  0  0  0  0  0  0  0  0  0  0  0
  139.1467   70.5107  222.0042 H   0  0  0  0  0  0  0  0  0  0  0  0
  139.2426   68.6765  223.7187 H   0  0  0  0  0  0  0  0  0  0  0  0
  139.8331   67.9529  226.0078 H   0  0  0  0  0  0  0  0  0  0  0  0
  141.5612   70.8491  228.7033 H   0  0  0  0  0  0  0  0  0  0  0  0
  141.4375   72.6320  226.9362 H   0  0  0  0  0  0  0  0  0  0  0  0
  142.7879   77.7704  221.1487 H   0  0  0  0  0  0  0  0  0  0  0  0
  141.7133   77.9617  219.7616 H   0  0  0  0  0  0  0  0  0  0  0  0
  142.5625   80.1596  220.5781 H   0  0  0  0  0  0  0  0  0  0  0  0
  140.7531   80.0053  220.7960 H   0  0  0  0  0  0  0  0  0  0  0  0
  1  2  1  0
  2  3  1  0
  3  4  1  0
  4  5  1  0
  5  6  1  0
  6  7  1  0
  7  8  2  0
  7  9  1  0
  9 10  1  0
 10 11  1  0
 11 12  2  0
 11 13  1  0
 13 14  2  0
 14 15  1  0
 15 16  2  0
 16 17  1  0
 17 18  2  0
 18 19  1  0
 18 20  1  0
 20 21  2  0
 21 22  1  0
 22 23  2  0
  5 24  1  0
 24 25  1  0
 25  2  1  0
 23 13  1  0
 22 16  1  0
  1 26  1  0
  1 27  1  0
  1 28  1  0
  3 29  1  0
  3 30  1  0
  4 31  1  0
  4 32  1  0
  5 33  1  0
  6 34  1  0
  9 35  1  0
  9 36  1  0
 10 37  1  0
 14 38  1  0
 15 39  1  0
 17 40  1  0
 20 41  1  0
 21 42  1  0
 24 43  1  0
 24 44  1  0
 25 45  1  0
 25 46  1  0
M  END
>  <smiles>  (41) 
CN1CCC(NC(=O)CNC(=O)c2ccc3cc(Cl)ccc3n2)CC1

>  <score_type>  (41) 
oracle

>  <origin>  (41) 
autodockgpu

>  <m_score__min__energy>  (41) 
-8.3900000000000006

>  <m_primary>  (41) 
energy

>  <rmsd>  (41) 
2.8975599149044746

>  <m_score__min__rmsd>  (41) 
2.8975599149044746

>  <meeko>  (41) 
{"free_energy": -7.6, "intermolecular_energy": -8.79, "internal_energy": -1.48, "cluster_size": 46, "cluster_id": 1, "rank_in_cluster": 41}

>  <energy>  (41) 
-7.6

>  <cluster_rmsd>  (41) 
1.14

>  <cluster>  (41) 
1

$$$$

     RDKit          3D

 46 48  0  0  0  0  0  0  0  0999 V2000
  142.2370   81.5980  224.2070 C   0  0  0  0  0  0  0  0  0  0  0  0
  141.3880   81.0050  223.2210 N   0  0  0  0  0  0  0  0  0  0  0  0
  140.3850   80.1440  223.7170 C   0  0  0  0  0  0  0  0  0  0  0  0
  140.5590   78.6820  223.4710 C   0  0  0  0  0  0  0  0  0  0  0  0
  140.9640   78.4800  222.0420 C   0  0  0  0  0  0  0  0  0  0  0  0
  140.9440   77.1120  221.6170 N   0  0  0  0  0  0  0  0  0  0  0  0
  139.7390   76.3720  221.5180 C   0  0  0  0  0  0  0  0  0  0  0  0
  138.6730   76.9990  221.8350 O   0  0  0  0  0  0  0  0  0  0  0  0
  139.6180   74.9810  221.0940 C   0  0  0  0  0  0  0  0  0  0  0  0
  139.6630   73.9880  222.1180 N   0  0  0  0  0  0  0  0  0  0  0  0
  139.8800   72.6010  221.8520 C   0  0  0  0  0  0  0  0  0  0  0  0
  140.0430   72.1660  220.6620 O   0  0  0  0  0  0  0  0  0  0  0  0
  139.9170   71.6370  222.9740 C   0  0  0  0  0  0  0  0  0  0  0  0
  139.4320   70.3600  222.7850 C   0  0  0  0  0  0  0  0  0  0  0  0
  139.4670   69.4450  223.8440 C   0  0  0  0  0  0  0  0  0  0  0  0
  139.9940   69.8510  225.0730 C   0  0  0  0  0  0  0  0  0  0  0  0
  140.0440   68.9680  226.1490 C   0  0  0  0  0  0  0  0  0  0  0  0
  140.5820   69.4480  227.3300 C   0  0  0  0  0  0  0  0  0  0  0  0
  140.6840   68.4060  228.7370 Cl  0  0  0  0  0  0  0  0  0  0  0  0
  141.0540   70.7380  227.4660 C   0  0  0  0  0  0  0  0  0  0  0  0
  141.0050   71.6220  226.3930 C   0  0  0  0  0  0  0  0  0  0  0  0
  140.4690   71.1420  225.2160 C   0  0  0  0  0  0  0  0  0  0  0  0
  140.4190   71.9910  224.1720 N   0  0  0  0  0  0  0  0  0  0  0  0
  142.3020   79.1680  221.8690 C   0  0  0  0  0  0  0  0  0  0  0  0
  142.0060   80.6450  221.9910 C   0  0  0  0  0  0  0  0  0  0  0  0
  141.8684   81.3406  225.2109 H   0  0  0  0  0  0  0  0  0  0  0  0
  143.2621   81.2185  224.0843 H   0  0  0  0  0  0  0  0  0  0  0  0
  142.2335   82.6911  224.0843 H   0  0  0  0  0  0  0  0  0  0  0  0
  140.3300   80.2923  224.8056 H   0  0  0  0  0  0  0  0  0  0  0  0
  139.4755   80.4188  223.1627 H   0  0  0  0  0  0  0  0  0  0  0  0
  141.3396   78.2850  224.1366 H   0  0  0  0  0  0  0  0  0  0  0  0
  139.6155   78.1533  223.6715 H   0  0  0  0  0  0  0  0  0  0  0  0
  140.2210   78.9335  221.3695 H   0  0  0  0  0  0  0  0  0  0  0  0
  141.8520   76.6590  221.3860 H   0  0  0  0  0  0  0  0  0  0  0  0
  138.6562   74.8755  220.5707 H   0  0  0  0  0  0  0  0  0  0  0  0
  140.5055   74.7923  220.4722 H   0  0  0  0  0  0  0  0  0  0  0  0
  139.5350   74.2280  223.1480 H   0  0  0  0  0  0  0  0  0  0  0  0
  139.0206   70.0625  221.8092 H   0  0  0  0  0  0  0  0  0  0  0  0
  139.0854   68.4219  223.7107 H   0  0  0  0  0  0  0  0  0  0  0  0
  139.6727   67.9361  226.0638 H   0  0  0  0  0  0  0  0  0  0  0  0
  141.4713   71.0689  228.4285 H   0  0  0  0  0  0  0  0  0  0  0  0
  141.3758   72.6540  226.4789 H   0  0  0  0  0  0  0  0  0  0  0  0
  143.0041   78.8491  222.6534 H   0  0  0  0  0  0  0  0  0  0  0  0
  142.7703   78.9205  220.9049 H   0  0  0  0  0  0  0  0  0  0  0  0
  142.9532   81.1973  221.9036 H   0  0  0  0  0  0  0  0  0  0  0  0
  141.2970   80.8980  221.1890 H   0  0  0  0  0  0  0  0  0  0  0  0
  1  2  1  0
  2  3  1  0
  3  4  1  0
  4  5  1  0
  5  6  1  0
  6  7  1  0
  7  8  2  0
  7  9  1  0
  9 10  1  0
 10 11  1  0
 11 12  2  0
 11 13  1  0
 13 14  2  0
 14 15  1  0
 15 16  2  0
 16 17  1  0
 17 18  2  0
 18 19  1  0
 18 20  1  0
 20 21  2  0
 21 22  1  0
 22 23  2  0
  5 24  1  0
 24 25  1  0
 25  2  1  0
 23 13  1  0
 22 16  1  0
  1 26  1  0
  1 27  1  0
  1 28  1  0
  3 29  1  0
  3 30  1  0
  4 31  1  0
  4 32  1  0
  5 33  1  0
  6 34  1  0
  9 35  1  0
  9 36  1  0
 10 37  1  0
 14 38  1  0
 15 39  1  0
 17 40  1  0
 20 41  1  0
 21 42  1  0
 24 43  1  0
 24 44  1  0
 25 45  1  0
 25 46  1  0
M  END
>  <smiles>  (42) 
CN1CCC(NC(=O)CNC(=O)c2ccc3cc(Cl)ccc3n2)CC1

>  <score_type>  (42) 
oracle

>  <origin>  (42) 
autodockgpu

>  <m_score__min__energy>  (42) 
-8.3900000000000006

>  <m_primary>  (42) 
energy

>  <rmsd>  (42) 
3.1292968655073756

>  <m_score__min__rmsd>  (42) 
3.1292968655073756

>  <meeko>  (42) 
{"free_energy": -8.27, "intermolecular_energy": -9.46, "internal_energy": -0.9, "cluster_size": 46, "cluster_id": 1, "rank_in_cluster": 12}

>  <energy>  (42) 
-7.58

>  <cluster_rmsd>  (42) 
1.14

>  <cluster>  (42) 
1

$$$$

     RDKit          3D

 46 48  0  0  0  0  0  0  0  0999 V2000
  141.4380   82.3750  222.1920 C   0  0  0  0  0  0  0  0  0  0  0  0
  141.0530   81.2070  222.9200 N   0  0  0  0  0  0  0  0  0  0  0  0
  142.1100   80.3570  223.3150 C   0  0  0  0  0  0  0  0  0  0  0  0
  142.2350   79.0500  222.6050 C   0  0  0  0  0  0  0  0  0  0  0  0
  140.8780   78.4230  222.5090 C   0  0  0  0  0  0  0  0  0  0  0  0
  140.8920   77.0660  222.0510 N   0  0  0  0  0  0  0  0  0  0  0  0
  139.6990   76.3380  221.8160 C   0  0  0  0  0  0  0  0  0  0  0  0
  138.6100   76.9660  222.0410 O   0  0  0  0  0  0  0  0  0  0  0  0
  139.6130   74.9580  221.3490 C   0  0  0  0  0  0  0  0  0  0  0  0
  139.6740   73.9360  222.3420 N   0  0  0  0  0  0  0  0  0  0  0  0
  139.9040   72.5600  222.0330 C   0  0  0  0  0  0  0  0  0  0  0  0
  140.0640   72.1620  220.8300 O   0  0  0  0  0  0  0  0  0  0  0  0
  139.9580   71.5630  223.1260 C   0  0  0  0  0  0  0  0  0  0  0  0
  139.5170   70.2780  222.8920 C   0  0  0  0  0  0  0  0  0  0  0  0
  139.5680   69.3310  223.9230 C   0  0  0  0  0  0  0  0  0  0  0  0
  140.0660   69.7160  225.1710 C   0  0  0  0  0  0  0  0  0  0  0  0
  140.1300   68.8020  226.2190 C   0  0  0  0  0  0  0  0  0  0  0  0
  140.6380   69.2620  227.4220 C   0  0  0  0  0  0  0  0  0  0  0  0
  140.7560   68.1800  228.7970 Cl  0  0  0  0  0  0  0  0  0  0  0  0
  141.0670   70.5610  227.6040 C   0  0  0  0  0  0  0  0  0  0  0  0
  141.0030   71.4760  226.5580 C   0  0  0  0  0  0  0  0  0  0  0  0
  140.4970   71.0160  225.3590 C   0  0  0  0  0  0  0  0  0  0  0  0
  140.4330   71.8950  224.3410 N   0  0  0  0  0  0  0  0  0  0  0  0
  140.0280   79.3550  221.6700 C   0  0  0  0  0  0  0  0  0  0  0  0
  139.8350   80.5880  222.5230 C   0  0  0  0  0  0  0  0  0  0  0  0
  141.7022   83.1764  222.8977 H   0  0  0  0  0  0  0  0  0  0  0  0
  142.3071   82.1426  221.5590 H   0  0  0  0  0  0  0  0  0  0  0  0
  140.6011   82.7050  221.5590 H   0  0  0  0  0  0  0  0  0  0  0  0
  143.0508   80.9068  223.1646 H   0  0  0  0  0  0  0  0  0  0  0  0
  141.8866   80.0926  224.3591 H   0  0  0  0  0  0  0  0  0  0  0  0
  142.6388   79.2147  221.5951 H   0  0  0  0  0  0  0  0  0  0  0  0
  142.9157   78.3866  223.1587 H   0  0  0  0  0  0  0  0  0  0  0  0
  140.4387   78.3160  223.5118 H   0  0  0  0  0  0  0  0  0  0  0  0
  141.8160   76.6110  221.9000 H   0  0  0  0  0  0  0  0  0  0  0  0
  138.6574   74.8466  220.8156 H   0  0  0  0  0  0  0  0  0  0  0  0
  140.5089   74.8088  220.7284 H   0  0  0  0  0  0  0  0  0  0  0  0
  139.5500   74.1440  223.3800 H   0  0  0  0  0  0  0  0  0  0  0  0
  139.1276   69.9981  221.9021 H   0  0  0  0  0  0  0  0  0  0  0  0
  139.2217   68.3009  223.7532 H   0  0  0  0  0  0  0  0  0  0  0  0
  139.7925   67.7622  226.0970 H   0  0  0  0  0  0  0  0  0  0  0  0
  141.4618   70.8747  228.5816 H   0  0  0  0  0  0  0  0  0  0  0  0
  141.3395   72.5161  226.6806 H   0  0  0  0  0  0  0  0  0  0  0  0
  140.5448   79.6106  220.7332 H   0  0  0  0  0  0  0  0  0  0  0  0
  139.0694   78.8956  221.3872 H   0  0  0  0  0  0  0  0  0  0  0  0
  139.2457   81.3182  221.9490 H   0  0  0  0  0  0  0  0  0  0  0  0
  139.3246   80.2653  223.4424 H   0  0  0  0  0  0  0  0  0  0  0  0
  1  2  1  0
  2  3  1  0
  3  4  1  0
  4  5  1  0
  5  6  1  0
  6  7  1  0
  7  8  2  0
  7  9  1  0
  9 10  1  0
 10 11  1  0
 11 12  2  0
 11 13  1  0
 13 14  2  0
 14 15  1  0
 15 16  2  0
 16 17  1  0
 17 18  2  0
 18 19  1  0
 18 20  1  0
 20 21  2  0
 21 22  1  0
 22 23  2  0
  5 24  1  0
 24 25  1  0
 25  2  1  0
 23 13  1  0
 22 16  1  0
  1 26  1  0
  1 27  1  0
  1 28  1  0
  3 29  1  0
  3 30  1  0
  4 31  1  0
  4 32  1  0
  5 33  1  0
  6 34  1  0
  9 35  1  0
  9 36  1  0
 10 37  1  0
 14 38  1  0
 15 39  1  0
 17 40  1  0
 20 41  1  0
 21 42  1  0
 24 43  1  0
 24 44  1  0
 25 45  1  0
 25 46  1  0
M  END
>  <smiles>  (43) 
CN1CCC(NC(=O)CNC(=O)c2ccc3cc(Cl)ccc3n2)CC1

>  <score_type>  (43) 
oracle

>  <origin>  (43) 
autodockgpu

>  <m_score__min__energy>  (43) 
-8.3900000000000006

>  <m_primary>  (43) 
energy

>  <rmsd>  (43) 
2.97442619017032

>  <m_score__min__rmsd>  (43) 
2.97442619017032

>  <meeko>  (43) 
{"free_energy": -8.37, "intermolecular_energy": -9.57, "internal_energy": -0.83, "cluster_size": 46, "cluster_id": 1, "rank_in_cluster": 2}

>  <energy>  (43) 
-7.56

>  <cluster_rmsd>  (43) 
1.15

>  <cluster>  (43) 
1

$$$$

     RDKit          3D

 46 48  0  0  0  0  0  0  0  0999 V2000
  140.9350   81.9870  222.3400 C   0  0  0  0  0  0  0  0  0  0  0  0
  141.7340   80.8070  222.4670 N   0  0  0  0  0  0  0  0  0  0  0  0
  142.1180   80.1960  221.2540 C   0  0  0  0  0  0  0  0  0  0  0  0
  141.4640   78.9000  220.9060 C   0  0  0  0  0  0  0  0  0  0  0  0
  141.4590   78.0230  222.1210 C   0  0  0  0  0  0  0  0  0  0  0  0
  141.0650   76.6710  221.8630 N   0  0  0  0  0  0  0  0  0  0  0  0
  139.7580   76.3370  221.4250 C   0  0  0  0  0  0  0  0  0  0  0  0
  138.9540   77.3180  221.2770 O   0  0  0  0  0  0  0  0  0  0  0  0
  139.2660   74.9940  221.1350 C   0  0  0  0  0  0  0  0  0  0  0  0
  139.4480   74.0080  222.1500 N   0  0  0  0  0  0  0  0  0  0  0  0
  139.4570   72.6050  221.8810 C   0  0  0  0  0  0  0  0  0  0  0  0
  139.2940   72.1480  220.6990 O   0  0  0  0  0  0  0  0  0  0  0  0
  139.6570   71.6480  222.9930 C   0  0  0  0  0  0  0  0  0  0  0  0
  139.3190   70.3230  222.8140 C   0  0  0  0  0  0  0  0  0  0  0  0
  139.5090   69.4140  223.8630 C   0  0  0  0  0  0  0  0  0  0  0  0
  140.0370   69.8760  225.0720 C   0  0  0  0  0  0  0  0  0  0  0  0
  140.2380   69.0020  226.1360 C   0  0  0  0  0  0  0  0  0  0  0  0
  140.7660   69.5390  227.2980 C   0  0  0  0  0  0  0  0  0  0  0  0
  141.0520   68.5100  228.6900 Cl  0  0  0  0  0  0  0  0  0  0  0  0
  141.0870   70.8750  227.4240 C   0  0  0  0  0  0  0  0  0  0  0  0
  140.8870   71.7500  226.3620 C   0  0  0  0  0  0  0  0  0  0  0  0
  140.3610   71.2140  225.2050 C   0  0  0  0  0  0  0  0  0  0  0  0
  140.1650   72.0550  224.1720 N   0  0  0  0  0  0  0  0  0  0  0  0
  140.6190   78.7300  223.1640 C   0  0  0  0  0  0  0  0  0  0  0  0
  141.4220   79.9490  223.5580 C   0  0  0  0  0  0  0  0  0  0  0  0
  140.6786   82.3656  223.3404 H   0  0  0  0  0  0  0  0  0  0  0  0
  141.4997   82.7549  221.7909 H   0  0  0  0  0  0  0  0  0  0  0  0
  140.0123   81.7477  221.7909 H   0  0  0  0  0  0  0  0  0  0  0  0
  141.8993   80.9055  220.4423 H   0  0  0  0  0  0  0  0  0  0  0  0
  143.1823   79.9505  221.3846 H   0  0  0  0  0  0  0  0  0  0  0  0
  140.4303   79.0834  220.5776 H   0  0  0  0  0  0  0  0  0  0  0  0
  142.0159   78.4085  220.0913 H   0  0  0  0  0  0  0  0  0  0  0  0
  142.4844   77.8893  222.4960 H   0  0  0  0  0  0  0  0  0  0  0  0
  141.7680   75.9180  222.0160 H   0  0  0  0  0  0  0  0  0  0  0  0
  138.1869   75.0710  220.9358 H   0  0  0  0  0  0  0  0  0  0  0  0
  139.8688   74.6448  220.2838 H   0  0  0  0  0  0  0  0  0  0  0  0
  139.5880   74.2660  223.1740 H   0  0  0  0  0  0  0  0  0  0  0  0
  138.9031   69.9822  221.8543 H   0  0  0  0  0  0  0  0  0  0  0  0
  139.2467   68.3532  223.7372 H   0  0  0  0  0  0  0  0  0  0  0  0
  139.9889   67.9335  226.0576 H   0  0  0  0  0  0  0  0  0  0  0  0
  141.5037   71.2502  228.3704 H   0  0  0  0  0  0  0  0  0  0  0  0
  141.1363   72.8185  226.4408 H   0  0  0  0  0  0  0  0  0  0  0  0
  139.6482   79.0275  222.7409 H   0  0  0  0  0  0  0  0  0  0  0  0
  140.4033   78.0826  224.0268 H   0  0  0  0  0  0  0  0  0  0  0  0
  140.8422   80.5228  224.2959 H   0  0  0  0  0  0  0  0  0  0  0  0
  142.3776   79.5861  223.9643 H   0  0  0  0  0  0  0  0  0  0  0  0
  1  2  1  0
  2  3  1  0
  3  4  1  0
  4  5  1  0
  5  6  1  0
  6  7  1  0
  7  8  2  0
  7  9  1  0
  9 10  1  0
 10 11  1  0
 11 12  2  0
 11 13  1  0
 13 14  2  0
 14 15  1  0
 15 16  2  0
 16 17  1  0
 17 18  2  0
 18 19  1  0
 18 20  1  0
 20 21  2  0
 21 22  1  0
 22 23  2  0
  5 24  1  0
 24 25  1  0
 25  2  1  0
 23 13  1  0
 22 16  1  0
  1 26  1  0
  1 27  1  0
  1 28  1  0
  3 29  1  0
  3 30  1  0
  4 31  1  0
  4 32  1  0
  5 33  1  0
  6 34  1  0
  9 35  1  0
  9 36  1  0
 10 37  1  0
 14 38  1  0
 15 39  1  0
 17 40  1  0
 20 41  1  0
 21 42  1  0
 24 43  1  0
 24 44  1  0
 25 45  1  0
 25 46  1  0
M  END
>  <smiles>  (44) 
CN1CCC(NC(=O)CNC(=O)c2ccc3cc(Cl)ccc3n2)CC1

>  <score_type>  (44) 
oracle

>  <origin>  (44) 
autodockgpu

>  <m_score__min__energy>  (44) 
-8.3900000000000006

>  <m_primary>  (44) 
energy

>  <rmsd>  (44) 
2.305919687097123

>  <m_score__min__rmsd>  (44) 
2.305919687097123

>  <meeko>  (44) 
{"free_energy": -8.07, "intermolecular_energy": -9.27, "internal_energy": -1.0, "cluster_size": 46, "cluster_id": 1, "rank_in_cluster": 24}

>  <energy>  (44) 
-7.56

>  <cluster_rmsd>  (44) 
1.68

>  <cluster>  (44) 
1

$$$$

     RDKit          3D

 46 48  0  0  0  0  0  0  0  0999 V2000
  140.8320   82.0050  222.3660 C   0  0  0  0  0  0  0  0  0  0  0  0
  141.6340   80.8390  222.5750 N   0  0  0  0  0  0  0  0  0  0  0  0
  142.1580   80.2420  221.4080 C   0  0  0  0  0  0  0  0  0  0  0  0
  141.5690   78.9360  220.9870 C   0  0  0  0  0  0  0  0  0  0  0  0
  141.4490   78.0520  222.1910 C   0  0  0  0  0  0  0  0  0  0  0  0
  141.1100   76.6950  221.8870 N   0  0  0  0  0  0  0  0  0  0  0  0
  139.8360   76.3310  221.3830 C   0  0  0  0  0  0  0  0  0  0  0  0
  139.0080   77.2900  221.2190 O   0  0  0  0  0  0  0  0  0  0  0  0
  139.4000   74.9800  221.0430 C   0  0  0  0  0  0  0  0  0  0  0  0
  139.4940   73.9950  222.0700 N   0  0  0  0  0  0  0  0  0  0  0  0
  139.7400   72.6130  221.8050 C   0  0  0  0  0  0  0  0  0  0  0  0
  139.8870   72.1750  220.6140 O   0  0  0  0  0  0  0  0  0  0  0  0
  139.8290   71.6560  222.9310 C   0  0  0  0  0  0  0  0  0  0  0  0
  139.3930   70.3600  222.7530 C   0  0  0  0  0  0  0  0  0  0  0  0
  139.4760   69.4510  223.8150 C   0  0  0  0  0  0  0  0  0  0  0  0
  139.9990   69.8840  225.0370 C   0  0  0  0  0  0  0  0  0  0  0  0
  140.0960   69.0080  226.1150 C   0  0  0  0  0  0  0  0  0  0  0  0
  140.6270   69.5150  227.2890 C   0  0  0  0  0  0  0  0  0  0  0  0
  140.7860   68.4840  228.6980 Cl  0  0  0  0  0  0  0  0  0  0  0  0
  141.0490   70.8230  227.4140 C   0  0  0  0  0  0  0  0  0  0  0  0
  140.9530   71.7000  226.3380 C   0  0  0  0  0  0  0  0  0  0  0  0
  140.4230   71.1940  225.1690 C   0  0  0  0  0  0  0  0  0  0  0  0
  140.3280   72.0350  224.1220 N   0  0  0  0  0  0  0  0  0  0  0  0
  140.4880   78.7390  223.1390 C   0  0  0  0  0  0  0  0  0  0  0  0
  141.2220   79.9690  223.6220 C   0  0  0  0  0  0  0  0  0  0  0  0
  140.5406   82.4287  223.3384 H   0  0  0  0  0  0  0  0  0  0  0  0
  141.4094   82.7504  221.7994 H   0  0  0  0  0  0  0  0  0  0  0  0
  139.9294   81.7325  221.7994 H   0  0  0  0  0  0  0  0  0  0  0  0
  142.0149   80.9520  220.5801 H   0  0  0  0  0  0  0  0  0  0  0  0
  143.2065   80.0152  221.6514 H   0  0  0  0  0  0  0  0  0  0  0  0
  140.5735   79.1028  220.5497 H   0  0  0  0  0  0  0  0  0  0  0  0
  142.2147   78.4590  220.2350 H   0  0  0  0  0  0  0  0  0  0  0  0
  142.4299   77.9337  222.6745 H   0  0  0  0  0  0  0  0  0  0  0  0
  141.8290   75.9610  222.0560 H   0  0  0  0  0  0  0  0  0  0  0  0
  138.3459   75.0387  220.7341 H   0  0  0  0  0  0  0  0  0  0  0  0
  140.0933   74.6435  220.2580 H   0  0  0  0  0  0  0  0  0  0  0  0
  139.3830   74.2370  223.1010 H   0  0  0  0  0  0  0  0  0  0  0  0
  138.9827   70.0422  221.7831 H   0  0  0  0  0  0  0  0  0  0  0  0
  139.1351   68.4127  223.6897 H   0  0  0  0  0  0  0  0  0  0  0  0
  139.7660   67.9615  226.0375 H   0  0  0  0  0  0  0  0  0  0  0  0
  141.4638   71.1745  228.3702 H   0  0  0  0  0  0  0  0  0  0  0  0
  141.2837   72.7462  226.4157 H   0  0  0  0  0  0  0  0  0  0  0  0
  139.5639   79.0222  222.6138 H   0  0  0  0  0  0  0  0  0  0  0  0
  140.1909   78.0835  223.9709 H   0  0  0  0  0  0  0  0  0  0  0  0
  140.5561   80.5281  224.2958 H   0  0  0  0  0  0  0  0  0  0  0  0
  142.1349   79.6201  224.1268 H   0  0  0  0  0  0  0  0  0  0  0  0
  1  2  1  0
  2  3  1  0
  3  4  1  0
  4  5  1  0
  5  6  1  0
  6  7  1  0
  7  8  2  0
  7  9  1  0
  9 10  1  0
 10 11  1  0
 11 12  2  0
 11 13  1  0
 13 14  2  0
 14 15  1  0
 15 16  2  0
 16 17  1  0
 17 18  2  0
 18 19  1  0
 18 20  1  0
 20 21  2  0
 21 22  1  0
 22 23  2  0
  5 24  1  0
 24 25  1  0
 25  2  1  0
 23 13  1  0
 22 16  1  0
  1 26  1  0
  1 27  1  0
  1 28  1  0
  3 29  1  0
  3 30  1  0
  4 31  1  0
  4 32  1  0
  5 33  1  0
  6 34  1  0
  9 35  1  0
  9 36  1  0
 10 37  1  0
 14 38  1  0
 15 39  1  0
 17 40  1  0
 20 41  1  0
 21 42  1  0
 24 43  1  0
 24 44  1  0
 25 45  1  0
 25 46  1  0
M  END
>  <smiles>  (45) 
CN1CCC(NC(=O)CNC(=O)c2ccc3cc(Cl)ccc3n2)CC1

>  <score_type>  (45) 
oracle

>  <origin>  (45) 
autodockgpu

>  <m_score__min__energy>  (45) 
-8.3900000000000006

>  <m_primary>  (45) 
energy

>  <rmsd>  (45) 
2.365301737593341

>  <m_score__min__rmsd>  (45) 
2.365301737593341

>  <meeko>  (45) 
{"free_energy": -8.29, "intermolecular_energy": -9.48, "internal_energy": -0.89, "cluster_size": 46, "cluster_id": 1, "rank_in_cluster": 9}

>  <energy>  (45) 
-7.55

>  <cluster_rmsd>  (45) 
1.7

>  <cluster>  (45) 
1

$$$$

     RDKit          3D

 46 48  0  0  0  0  0  0  0  0999 V2000
  141.1810   81.3070  222.7380 C   0  0  0  0  0  0  0  0  0  0  0  0
  141.9230   80.1590  222.3170 N   0  0  0  0  0  0  0  0  0  0  0  0
  141.7970   79.8160  220.9530 C   0  0  0  0  0  0  0  0  0  0  0  0
  141.0110   78.5900  220.6290 C   0  0  0  0  0  0  0  0  0  0  0  0
  141.4320   77.4900  221.5550 C   0  0  0  0  0  0  0  0  0  0  0  0
  140.9180   76.2000  221.2030 N   0  0  0  0  0  0  0  0  0  0  0  0
  141.6950   75.2470  220.4970 C   0  0  0  0  0  0  0  0  0  0  0  0
  142.8800   75.6110  220.1920 O   0  0  0  0  0  0  0  0  0  0  0  0
  141.2610   73.9120  220.0980 C   0  0  0  0  0  0  0  0  0  0  0  0
  141.1530   72.9330  221.1300 N   0  0  0  0  0  0  0  0  0  0  0  0
  140.2490   73.0540  222.2290 C   0  0  0  0  0  0  0  0  0  0  0  0
  139.4770   74.0640  222.3530 O   0  0  0  0  0  0  0  0  0  0  0  0
  140.1960   71.9880  223.2550 C   0  0  0  0  0  0  0  0  0  0  0  0
  139.6770   70.7540  222.9230 C   0  0  0  0  0  0  0  0  0  0  0  0
  139.6260   69.7430  223.8910 C   0  0  0  0  0  0  0  0  0  0  0  0
  140.1040   70.0120  225.1760 C   0  0  0  0  0  0  0  0  0  0  0  0
  140.0680   69.0310  226.1640 C   0  0  0  0  0  0  0  0  0  0  0  0
  140.5620   69.3770  227.4100 C   0  0  0  0  0  0  0  0  0  0  0  0
  140.5560   68.2050  228.7140 Cl  0  0  0  0  0  0  0  0  0  0  0  0
  141.0710   70.6290  227.6900 C   0  0  0  0  0  0  0  0  0  0  0  0
  141.1070   71.6110  226.7050 C   0  0  0  0  0  0  0  0  0  0  0  0
  140.6150   71.2650  225.4640 C   0  0  0  0  0  0  0  0  0  0  0  0
  140.6480   72.2080  224.5040 N   0  0  0  0  0  0  0  0  0  0  0  0
  141.0760   77.9420  222.9560 C   0  0  0  0  0  0  0  0  0  0  0  0
  142.0150   79.0900  223.2510 C   0  0  0  0  0  0  0  0  0  0  0  0
  141.1565   81.3449  223.8371 H   0  0  0  0  0  0  0  0  0  0  0  0
  141.6622   82.2170  222.3504 H   0  0  0  0  0  0  0  0  0  0  0  0
  140.1536   81.2420  222.3504 H   0  0  0  0  0  0  0  0  0  0  0  0
  141.3155   80.6627  220.4418 H   0  0  0  0  0  0  0  0  0  0  0  0
  142.8215   79.5926  220.6206 H   0  0  0  0  0  0  0  0  0  0  0  0
  139.9379   78.7932  220.7596 H   0  0  0  0  0  0  0  0  0  0  0  0
  141.1944   78.2923  219.5860 H   0  0  0  0  0  0  0  0  0  0  0  0
  142.5171   77.3261  221.4790 H   0  0  0  0  0  0  0  0  0  0  0  0
  139.9390   75.9740  221.4730 H   0  0  0  0  0  0  0  0  0  0  0  0
  140.2710   74.0108  219.6288 H   0  0  0  0  0  0  0  0  0  0  0  0
  142.0534   73.5401  219.4318 H   0  0  0  0  0  0  0  0  0  0  0  0
  141.7480   72.0490  221.1390 H   0  0  0  0  0  0  0  0  0  0  0  0
  139.3057   70.5651  221.9049 H   0  0  0  0  0  0  0  0  0  0  0  0
  139.2160   68.7527  223.6434 H   0  0  0  0  0  0  0  0  0  0  0  0
  139.6654   68.0272  225.9634 H   0  0  0  0  0  0  0  0  0  0  0  0
  141.4505   70.8518  228.6981 H   0  0  0  0  0  0  0  0  0  0  0  0
  141.5086   72.6151  226.9064 H   0  0  0  0  0  0  0  0  0  0  0  0
  140.0296   78.2784  222.9989 H   0  0  0  0  0  0  0  0  0  0  0  0
  141.1771   77.1284  223.6894 H   0  0  0  0  0  0  0  0  0  0  0  0
  141.7804   79.4821  224.2516 H   0  0  0  0  0  0  0  0  0  0  0  0
  143.0387   78.6929  223.1850 H   0  0  0  0  0  0  0  0  0  0  0  0
  1  2  1  0
  2  3  1  0
  3  4  1  0
  4  5  1  0
  5  6  1  0
  6  7  1  0
  7  8  2  0
  7  9  1  0
  9 10  1  0
 10 11  1  0
 11 12  2  0
 11 13  1  0
 13 14  2  0
 14 15  1  0
 15 16  2  0
 16 17  1  0
 17 18  2  0
 18 19  1  0
 18 20  1  0
 20 21  2  0
 21 22  1  0
 22 23  2  0
  5 24  1  0
 24 25  1  0
 25  2  1  0
 23 13  1  0
 22 16  1  0
  1 26  1  0
  1 27  1  0
  1 28  1  0
  3 29  1  0
  3 30  1  0
  4 31  1  0
  4 32  1  0
  5 33  1  0
  6 34  1  0
  9 35  1  0
  9 36  1  0
 10 37  1  0
 14 38  1  0
 15 39  1  0
 17 40  1  0
 20 41  1  0
 21 42  1  0
 24 43  1  0
 24 44  1  0
 25 45  1  0
 25 46  1  0
M  END
>  <smiles>  (46) 
CN1CCC(NC(=O)CNC(=O)c2ccc3cc(Cl)ccc3n2)CC1

>  <score_type>  (46) 
oracle

>  <origin>  (46) 
autodockgpu

>  <m_score__min__energy>  (46) 
-8.3900000000000006

>  <m_primary>  (46) 
energy

>  <rmsd>  (46) 
2.549424218244063

>  <m_score__min__rmsd>  (46) 
2.549424218244063

>  <meeko>  (46) 
{"free_energy": -7.56, "intermolecular_energy": -8.75, "internal_energy": -1.47, "cluster_size": 46, "cluster_id": 1, "rank_in_cluster": 44}

>  <energy>  (46) 
-7.55

>  <cluster_rmsd>  (46) 
1.01

>  <cluster>  (46) 
1

$$$$

     RDKit          3D

 46 48  0  0  0  0  0  0  0  0999 V2000
  141.4420   81.3500  222.8490 C   0  0  0  0  0  0  0  0  0  0  0  0
  142.0730   80.1440  222.4110 N   0  0  0  0  0  0  0  0  0  0  0  0
  141.8410   79.7880  221.0640 C   0  0  0  0  0  0  0  0  0  0  0  0
  140.9510   78.6170  220.8110 C   0  0  0  0  0  0  0  0  0  0  0  0
  141.3460   77.5050  221.7350 C   0  0  0  0  0  0  0  0  0  0  0  0
  140.7200   76.2510  221.4400 N   0  0  0  0  0  0  0  0  0  0  0  0
  139.3130   76.0850  221.4760 C   0  0  0  0  0  0  0  0  0  0  0  0
  138.6380   77.1220  221.7910 O   0  0  0  0  0  0  0  0  0  0  0  0
  138.5870   74.8520  221.1890 C   0  0  0  0  0  0  0  0  0  0  0  0
  138.7160   73.7920  222.1350 N   0  0  0  0  0  0  0  0  0  0  0  0
  139.9360   73.0800  222.3480 C   0  0  0  0  0  0  0  0  0  0  0  0
  140.9950   73.3530  221.6860 O   0  0  0  0  0  0  0  0  0  0  0  0
  139.9870   71.9970  223.3550 C   0  0  0  0  0  0  0  0  0  0  0  0
  139.5480   70.7350  223.0150 C   0  0  0  0  0  0  0  0  0  0  0  0
  139.5950   69.7070  223.9650 C   0  0  0  0  0  0  0  0  0  0  0  0
  140.0860   69.9880  225.2420 C   0  0  0  0  0  0  0  0  0  0  0  0
  140.1470   68.9920  226.2120 C   0  0  0  0  0  0  0  0  0  0  0  0
  140.6480   69.3520  227.4520 C   0  0  0  0  0  0  0  0  0  0  0  0
  140.7600   68.1610  228.7340 Cl  0  0  0  0  0  0  0  0  0  0  0  0
  141.0740   70.6320  227.7410 C   0  0  0  0  0  0  0  0  0  0  0  0
  141.0150   71.6300  226.7740 C   0  0  0  0  0  0  0  0  0  0  0  0
  140.5150   71.2700  225.5390 C   0  0  0  0  0  0  0  0  0  0  0  0
  140.4550   72.2290  224.5960 N   0  0  0  0  0  0  0  0  0  0  0  0
  141.1060   78.0060  223.1440 C   0  0  0  0  0  0  0  0  0  0  0  0
  142.1410   79.0870  223.3600 C   0  0  0  0  0  0  0  0  0  0  0  0
  141.4275   81.3778  223.9486 H   0  0  0  0  0  0  0  0  0  0  0  0
  142.0023   82.2164  222.4677 H   0  0  0  0  0  0  0  0  0  0  0  0
  140.4107   81.3836  222.4677 H   0  0  0  0  0  0  0  0  0  0  0  0
  141.3918   80.6589  220.5643 H   0  0  0  0  0  0  0  0  0  0  0  0
  142.8252   79.4845  220.6777 H   0  0  0  0  0  0  0  0  0  0  0  0
  139.9047   78.9000  220.9984 H   0  0  0  0  0  0  0  0  0  0  0  0
  141.0508   78.2892  219.7657 H   0  0  0  0  0  0  0  0  0  0  0  0
  142.4102   77.2607  221.6014 H   0  0  0  0  0  0  0  0  0  0  0  0
  141.3320   75.4430  221.2020 H   0  0  0  0  0  0  0  0  0  0  0  0
  137.5188   75.1045  221.1164 H   0  0  0  0  0  0  0  0  0  0  0  0
  139.0346   74.4649  220.2617 H   0  0  0  0  0  0  0  0  0  0  0  0
  137.9020   73.4700  222.7430 H   0  0  0  0  0  0  0  0  0  0  0  0
  139.1632   70.5368  222.0038 H   0  0  0  0  0  0  0  0  0  0  0  0
  139.2506   68.6941  223.7094 H   0  0  0  0  0  0  0  0  0  0  0  0
  139.8124   67.9651  226.0033 H   0  0  0  0  0  0  0  0  0  0  0  0
  141.4631   70.8649  228.7432 H   0  0  0  0  0  0  0  0  0  0  0  0
  141.3506   72.6564  226.9834 H   0  0  0  0  0  0  0  0  0  0  0  0
  140.0909   78.4189  223.2393 H   0  0  0  0  0  0  0  0  0  0  0  0
  141.1908   77.2000  223.8878 H   0  0  0  0  0  0  0  0  0  0  0  0
  141.9943   79.5121  224.3639 H   0  0  0  0  0  0  0  0  0  0  0  0
  143.1274   78.6143  223.2433 H   0  0  0  0  0  0  0  0  0  0  0  0
  1  2  1  0
  2  3  1  0
  3  4  1  0
  4  5  1  0
  5  6  1  0
  6  7  1  0
  7  8  2  0
  7  9  1  0
  9 10  1  0
 10 11  1  0
 11 12  2  0
 11 13  1  0
 13 14  2  0
 14 15  1  0
 15 16  2  0
 16 17  1  0
 17 18  2  0
 18 19  1  0
 18 20  1  0
 20 21  2  0
 21 22  1  0
 22 23  2  0
  5 24  1  0
 24 25  1  0
 25  2  1  0
 23 13  1  0
 22 16  1  0
  1 26  1  0
  1 27  1  0
  1 28  1  0
  3 29  1  0
  3 30  1  0
  4 31  1  0
  4 32  1  0
  5 33  1  0
  6 34  1  0
  9 35  1  0
  9 36  1  0
 10 37  1  0
 14 38  1  0
 15 39  1  0
 17 40  1  0
 20 41  1  0
 21 42  1  0
 24 43  1  0
 24 44  1  0
 25 45  1  0
 25 46  1  0
M  END
>  <smiles>  (47) 
CN1CCC(NC(=O)CNC(=O)c2ccc3cc(Cl)ccc3n2)CC1

>  <score_type>  (47) 
oracle

>  <origin>  (47) 
autodockgpu

>  <m_score__min__energy>  (47) 
-8.3900000000000006

>  <m_primary>  (47) 
energy

>  <rmsd>  (47) 
2.2175994966926127

>  <m_score__min__rmsd>  (47) 
2.2175994966926127

>  <meeko>  (47) 
{"free_energy": -7.81, "intermolecular_energy": -9.01, "internal_energy": -1.46, "cluster_size": 46, "cluster_id": 1, "rank_in_cluster": 30}

>  <energy>  (47) 
-7.35

>  <cluster_rmsd>  (47) 
0.0

>  <cluster>  (47) 
2

$$$$

     RDKit          3D

 46 48  0  0  0  0  0  0  0  0999 V2000
  142.2640   81.6400  224.2240 C   0  0  0  0  0  0  0  0  0  0  0  0
  141.3700   81.0540  223.2740 N   0  0  0  0  0  0  0  0  0  0  0  0
  140.4150   80.1600  223.8050 C   0  0  0  0  0  0  0  0  0  0  0  0
  140.6020   78.7090  223.5110 C   0  0  0  0  0  0  0  0  0  0  0  0
  140.9250   78.5510  222.0560 C   0  0  0  0  0  0  0  0  0  0  0  0
  140.9060   77.1940  221.5970 N   0  0  0  0  0  0  0  0  0  0  0  0
  139.7270   76.4080  221.6200 C   0  0  0  0  0  0  0  0  0  0  0  0
  138.6840   76.9830  222.0780 O   0  0  0  0  0  0  0  0  0  0  0  0
  139.6100   75.0230  221.1730 C   0  0  0  0  0  0  0  0  0  0  0  0
  139.6710   74.0140  222.1780 N   0  0  0  0  0  0  0  0  0  0  0  0
  139.8770   72.6310  221.8840 C   0  0  0  0  0  0  0  0  0  0  0  0
  140.0140   72.2150  220.6840 O   0  0  0  0  0  0  0  0  0  0  0  0
  139.9340   71.6470  222.9890 C   0  0  0  0  0  0  0  0  0  0  0  0
  139.4740   70.3650  222.7780 C   0  0  0  0  0  0  0  0  0  0  0  0
  139.5270   69.4310  223.8200 C   0  0  0  0  0  0  0  0  0  0  0  0
  140.0460   69.8260  225.0560 C   0  0  0  0  0  0  0  0  0  0  0  0
  140.1130   68.9250  226.1160 C   0  0  0  0  0  0  0  0  0  0  0  0
  140.6420   69.3940  227.3060 C   0  0  0  0  0  0  0  0  0  0  0  0
  140.7650   68.3290  228.6940 Cl  0  0  0  0  0  0  0  0  0  0  0  0
  141.0890   70.6900  227.4650 C   0  0  0  0  0  0  0  0  0  0  0  0
  141.0230   71.5920  226.4080 C   0  0  0  0  0  0  0  0  0  0  0  0
  140.4950   71.1230  225.2220 C   0  0  0  0  0  0  0  0  0  0  0  0
  140.4290   71.9900  224.1940 N   0  0  0  0  0  0  0  0  0  0  0  0
  142.2370   79.2710  221.8220 C   0  0  0  0  0  0  0  0  0  0  0  0
  141.9200   80.7380  222.0010 C   0  0  0  0  0  0  0  0  0  0  0  0
  141.9170   81.4126  225.2428 H   0  0  0  0  0  0  0  0  0  0  0  0
  143.2737   81.2279  224.0800 H   0  0  0  0  0  0  0  0  0  0  0  0
  142.2890   82.7302  224.0800 H   0  0  0  0  0  0  0  0  0  0  0  0
  140.4217   80.2797  224.8984 H   0  0  0  0  0  0  0  0  0  0  0  0
  139.4692   80.4297  223.3122 H   0  0  0  0  0  0  0  0  0  0  0  0
  141.4283   78.3117  224.1188 H   0  0  0  0  0  0  0  0  0  0  0  0
  139.6823   78.1561  223.7528 H   0  0  0  0  0  0  0  0  0  0  0  0
  140.1344   79.0055  221.4409 H   0  0  0  0  0  0  0  0  0  0  0  0
  141.7970   76.7840  221.2460 H   0  0  0  0  0  0  0  0  0  0  0  0
  138.6437   74.9206  220.6575 H   0  0  0  0  0  0  0  0  0  0  0  0
  140.4924   74.8505  220.5393 H   0  0  0  0  0  0  0  0  0  0  0  0
  139.5660   74.2370  223.2150 H   0  0  0  0  0  0  0  0  0  0  0  0
  139.0677   70.0773  221.7971 H   0  0  0  0  0  0  0  0  0  0  0  0
  139.1660   68.4031  223.6681 H   0  0  0  0  0  0  0  0  0  0  0  0
  139.7615   67.8879  226.0122 H   0  0  0  0  0  0  0  0  0  0  0  0
  141.4999   71.0116  228.4333 H   0  0  0  0  0  0  0  0  0  0  0  0
  141.3746   72.6291  226.5123 H   0  0  0  0  0  0  0  0  0  0  0  0
  142.9911   78.9469  222.5544 H   0  0  0  0  0  0  0  0  0  0  0  0
  142.6514   79.0580  220.8255 H   0  0  0  0  0  0  0  0  0  0  0  0
  142.8494   81.3121  221.8723 H   0  0  0  0  0  0  0  0  0  0  0  0
  141.1591   80.9960  221.2496 H   0  0  0  0  0  0  0  0  0  0  0  0
  1  2  1  0
  2  3  1  0
  3  4  1  0
  4  5  1  0
  5  6  1  0
  6  7  1  0
  7  8  2  0
  7  9  1  0
  9 10  1  0
 10 11  1  0
 11 12  2  0
 11 13  1  0
 13 14  2  0
 14 15  1  0
 15 16  2  0
 16 17  1  0
 17 18  2  0
 18 19  1  0
 18 20  1  0
 20 21  2  0
 21 22  1  0
 22 23  2  0
  5 24  1  0
 24 25  1  0
 25  2  1  0
 23 13  1  0
 22 16  1  0
  1 26  1  0
  1 27  1  0
  1 28  1  0
  3 29  1  0
  3 30  1  0
  4 31  1  0
  4 32  1  0
  5 33  1  0
  6 34  1  0
  9 35  1  0
  9 36  1  0
 10 37  1  0
 14 38  1  0
 15 39  1  0
 17 40  1  0
 20 41  1  0
 21 42  1  0
 24 43  1  0
 24 44  1  0
 25 45  1  0
 25 46  1  0
M  END
>  <smiles>  (48) 
CN1CCC(NC(=O)CNC(=O)c2ccc3cc(Cl)ccc3n2)CC1

>  <score_type>  (48) 
oracle

>  <origin>  (48) 
autodockgpu

>  <m_score__min__energy>  (48) 
-8.3900000000000006

>  <m_primary>  (48) 
energy

>  <rmsd>  (48) 
3.1594510116424654

>  <m_score__min__rmsd>  (48) 
3.1594510116424654

>  <meeko>  (48) 
{"free_energy": -8.2, "intermolecular_energy": -9.39, "internal_energy": -0.9, "cluster_size": 46, "cluster_id": 1, "rank_in_cluster": 21}

>  <energy>  (48) 
-7.35

>  <cluster_rmsd>  (48) 
0.08

>  <cluster>  (48) 
2

$$$$

     RDKit          3D

 46 48  0  0  0  0  0  0  0  0999 V2000
  142.5830   81.1680  223.9300 C   0  0  0  0  0  0  0  0  0  0  0  0
  141.6200   80.9680  222.8920 N   0  0  0  0  0  0  0  0  0  0  0  0
  140.3340   80.5730  223.3190 C   0  0  0  0  0  0  0  0  0  0  0  0
  139.9270   79.1640  223.0410 C   0  0  0  0  0  0  0  0  0  0  0  0
  140.2910   78.8280  221.6270 C   0  0  0  0  0  0  0  0  0  0  0  0
  139.7520   77.5840  221.1650 N   0  0  0  0  0  0  0  0  0  0  0  0
  140.1040   76.3440  221.7560 C   0  0  0  0  0  0  0  0  0  0  0  0
  140.9350   76.4060  222.7240 O   0  0  0  0  0  0  0  0  0  0  0  0
  139.6070   75.0310  221.3570 C   0  0  0  0  0  0  0  0  0  0  0  0
  139.6590   73.9970  222.3390 N   0  0  0  0  0  0  0  0  0  0  0  0
  139.8880   72.6250  222.0150 C   0  0  0  0  0  0  0  0  0  0  0  0
  140.0570   72.2410  220.8080 O   0  0  0  0  0  0  0  0  0  0  0  0
  139.9330   71.6150  223.0960 C   0  0  0  0  0  0  0  0  0  0  0  0
  139.4560   70.3440  222.8550 C   0  0  0  0  0  0  0  0  0  0  0  0
  139.4970   69.3850  223.8750 C   0  0  0  0  0  0  0  0  0  0  0  0
  140.0220   69.7430  225.1190 C   0  0  0  0  0  0  0  0  0  0  0  0
  140.0770   68.8160  226.1570 C   0  0  0  0  0  0  0  0  0  0  0  0
  140.6130   69.2500  227.3580 C   0  0  0  0  0  0  0  0  0  0  0  0
  140.7220   68.1510  228.7190 Cl  0  0  0  0  0  0  0  0  0  0  0  0
  141.0770   70.5360  227.5470 C   0  0  0  0  0  0  0  0  0  0  0  0
  141.0220   71.4640  226.5120 C   0  0  0  0  0  0  0  0  0  0  0  0
  140.4880   71.0300  225.3160 C   0  0  0  0  0  0  0  0  0  0  0  0
  140.4320   71.9220  224.3080 N   0  0  0  0  0  0  0  0  0  0  0  0
  141.7990   78.9280  221.5320 C   0  0  0  0  0  0  0  0  0  0  0  0
  142.1070   80.4010  221.6810 C   0  0  0  0  0  0  0  0  0  0  0  0
  142.0928   81.0662  224.9095 H   0  0  0  0  0  0  0  0  0  0  0  0
  143.3811   80.4164  223.8395 H   0  0  0  0  0  0  0  0  0  0  0  0
  143.0158   82.1752  223.8395 H   0  0  0  0  0  0  0  0  0  0  0  0
  140.2860   80.7229  224.4077 H   0  0  0  0  0  0  0  0  0  0  0  0
  139.6378   81.1907  222.7327 H   0  0  0  0  0  0  0  0  0  0  0  0
  140.4512   78.4848  223.7294 H   0  0  0  0  0  0  0  0  0  0  0  0
  138.8422   79.0523  223.1850 H   0  0  0  0  0  0  0  0  0  0  0  0
  139.8244   79.5445  220.9350 H   0  0  0  0  0  0  0  0  0  0  0  0
  139.0890   77.6060  220.3630 H   0  0  0  0  0  0  0  0  0  0  0  0
  138.5560   75.1507  221.0554 H   0  0  0  0  0  0  0  0  0  0  0  0
  140.2824   74.6996  220.5545 H   0  0  0  0  0  0  0  0  0  0  0  0
  139.5270   74.1930  223.3780 H   0  0  0  0  0  0  0  0  0  0  0  0
  139.0458   70.0848  221.8678 H   0  0  0  0  0  0  0  0  0  0  0  0
  139.1217   68.3660  223.6993 H   0  0  0  0  0  0  0  0  0  0  0  0
  139.7115   67.7865  226.0288 H   0  0  0  0  0  0  0  0  0  0  0  0
  141.4929   70.8291  228.5222 H   0  0  0  0  0  0  0  0  0  0  0  0
  141.3866   72.4938  226.6408 H   0  0  0  0  0  0  0  0  0  0  0  0
  142.2757   78.3505  222.3377 H   0  0  0  0  0  0  0  0  0  0  0  0
  142.1798   78.5215  220.5834 H   0  0  0  0  0  0  0  0  0  0  0  0
  143.1987   80.5322  221.6506 H   0  0  0  0  0  0  0  0  0  0  0  0
  141.5984   80.9207  220.8556 H   0  0  0  0  0  0  0  0  0  0  0  0
  1  2  1  0
  2  3  1  0
  3  4  1  0
  4  5  1  0
  5  6  1  0
  6  7  1  0
  7  8  2  0
  7  9  1  0
  9 10  1  0
 10 11  1  0
 11 12  2  0
 11 13  1  0
 13 14  2  0
 14 15  1  0
 15 16  2  0
 16 17  1  0
 17 18  2  0
 18 19  1  0
 18 20  1  0
 20 21  2  0
 21 22  1  0
 22 23  2  0
  5 24  1  0
 24 25  1  0
 25  2  1  0
 23 13  1  0
 22 16  1  0
  1 26  1  0
  1 27  1  0
  1 28  1  0
  3 29  1  0
  3 30  1  0
  4 31  1  0
  4 32  1  0
  5 33  1  0
  6 34  1  0
  9 35  1  0
  9 36  1  0
 10 37  1  0
 14 38  1  0
 15 39  1  0
 17 40  1  0
 20 41  1  0
 21 42  1  0
 24 43  1  0
 24 44  1  0
 25 45  1  0
 25 46  1  0
M  END
>  <smiles>  (49) 
CN1CCC(NC(=O)CNC(=O)c2ccc3cc(Cl)ccc3n2)CC1

>  <score_type>  (49) 
oracle

>  <origin>  (49) 
autodockgpu

>  <m_score__min__energy>  (49) 
-8.3900000000000006

>  <m_primary>  (49) 
energy

>  <rmsd>  (49) 
3.0661337080121327

>  <m_score__min__rmsd>  (49) 
3.0661337080121327

>  <meeko>  (49) 
{"free_energy": -7.99, "intermolecular_energy": -9.19, "internal_energy": -1.02, "cluster_size": 46, "cluster_id": 1, "rank_in_cluster": 25}

>  <energy>  (49) 
-7.33

>  <cluster_rmsd>  (49) 
0.26

>  <cluster>  (49) 
2

$$$$

     RDKit          3D

 46 48  0  0  0  0  0  0  0  0999 V2000
  140.1060   68.8600  228.7200 C   0  0  0  0  0  0  0  0  0  0  0  0
  140.9970   69.4000  227.7410 N   0  0  0  0  0  0  0  0  0  0  0  0
  141.0540   70.8100  227.6790 C   0  0  0  0  0  0  0  0  0  0  0  0
  140.4310   71.4650  226.4920 C   0  0  0  0  0  0  0  0  0  0  0  0
  140.8540   70.7270  225.2580 C   0  0  0  0  0  0  0  0  0  0  0  0
  140.5100   71.3870  224.0350 N   0  0  0  0  0  0  0  0  0  0  0  0
  139.1680   71.4950  223.5890 C   0  0  0  0  0  0  0  0  0  0  0  0
  138.2870   70.9640  224.3440 O   0  0  0  0  0  0  0  0  0  0  0  0
  138.7210   72.1490  222.3630 C   0  0  0  0  0  0  0  0  0  0  0  0
  139.1430   73.4960  222.1590 N   0  0  0  0  0  0  0  0  0  0  0  0
  140.4780   73.8490  221.7910 C   0  0  0  0  0  0  0  0  0  0  0  0
  141.3830   72.9620  221.6280 O   0  0  0  0  0  0  0  0  0  0  0  0
  140.8310   75.2720  221.5930 C   0  0  0  0  0  0  0  0  0  0  0  0
  141.7240   75.6160  220.6000 C   0  0  0  0  0  0  0  0  0  0  0  0
  142.0600   76.9620  220.4090 C   0  0  0  0  0  0  0  0  0  0  0  0
  141.4810   77.9280  221.2360 C   0  0  0  0  0  0  0  0  0  0  0  0
  141.7930   79.2760  221.0750 C   0  0  0  0  0  0  0  0  0  0  0  0
  141.1750   80.1690  221.9340 C   0  0  0  0  0  0  0  0  0  0  0  0
  141.5090   81.8860  221.8040 Cl  0  0  0  0  0  0  0  0  0  0  0  0
  140.2880   79.7720  222.9140 C   0  0  0  0  0  0  0  0  0  0  0  0
  139.9750   78.4260  223.0760 C   0  0  0  0  0  0  0  0  0  0  0  0
  140.5910   77.5370  222.2200 C   0  0  0  0  0  0  0  0  0  0  0  0
  140.2930   76.2320  222.3690 N   0  0  0  0  0  0  0  0  0  0  0  0
  140.3060   69.3210  225.3840 C   0  0  0  0  0  0  0  0  0  0  0  0
  141.0910   68.6910  226.5120 C   0  0  0  0  0  0  0  0  0  0  0  0
  140.4848   69.0896  229.7269 H   0  0  0  0  0  0  0  0  0  0  0  0
  139.1083   69.3055  228.5932 H   0  0  0  0  0  0  0  0  0  0  0  0
  140.0393   67.7694  228.5932 H   0  0  0  0  0  0  0  0  0  0  0  0
  140.5508   71.2015  228.5754 H   0  0  0  0  0  0  0  0  0  0  0  0
  142.1254   71.0480  227.6050 H   0  0  0  0  0  0  0  0  0  0  0  0
  139.3354   71.4336  226.5846 H   0  0  0  0  0  0  0  0  0  0  0  0
  140.7549   72.5144  226.4303 H   0  0  0  0  0  0  0  0  0  0  0  0
  141.9517   70.6961  225.1931 H   0  0  0  0  0  0  0  0  0  0  0  0
  141.2810   71.7880  223.4610 H   0  0  0  0  0  0  0  0  0  0  0  0
  139.0900   71.5532  221.5151 H   0  0  0  0  0  0  0  0  0  0  0  0
  137.6257   72.2018  222.4494 H   0  0  0  0  0  0  0  0  0  0  0  0
  138.4800   74.3230  222.2720 H   0  0  0  0  0  0  0  0  0  0  0  0
  142.1694   74.8383  219.9622 H   0  0  0  0  0  0  0  0  0  0  0  0
  142.7687   77.2542  219.6201 H   0  0  0  0  0  0  0  0  0  0  0  0
  142.4976   79.6153  220.3014 H   0  0  0  0  0  0  0  0  0  0  0  0
  139.8259   80.5239  223.5706 H   0  0  0  0  0  0  0  0  0  0  0  0
  139.2702   78.0871  223.8496 H   0  0  0  0  0  0  0  0  0  0  0  0
  139.2333   69.3451  225.6266 H   0  0  0  0  0  0  0  0  0  0  0  0
  140.4058   68.7546  224.4463 H   0  0  0  0  0  0  0  0  0  0  0  0
  140.7127   67.6703  226.6703 H   0  0  0  0  0  0  0  0  0  0  0  0
  142.1496   68.7053  226.2134 H   0  0  0  0  0  0  0  0  0  0  0  0
  1  2  1  0
  2  3  1  0
  3  4  1  0
  4  5  1  0
  5  6  1  0
  6  7  1  0
  7  8  2  0
  7  9  1  0
  9 10  1  0
 10 11  1  0
 11 12  2  0
 11 13  1  0
 13 14  2  0
 14 15  1  0
 15 16  2  0
 16 17  1  0
 17 18  2  0
 18 19  1  0
 18 20  1  0
 20 21  2  0
 21 22  1  0
 22 23  2  0
  5 24  1  0
 24 25  1  0
 25  2  1  0
 23 13  1  0
 22 16  1  0
  1 26  1  0
  1 27  1  0
  1 28  1  0
  3 29  1  0
  3 30  1  0
  4 31  1  0
  4 32  1  0
  5 33  1  0
  6 34  1  0
  9 35  1  0
  9 36  1  0
 10 37  1  0
 14 38  1  0
 15 39  1  0
 17 40  1  0
 20 41  1  0
 21 42  1  0
 24 43  1  0
 24 44  1  0
 25 45  1  0
 25 46  1  0
M  END
>  <smiles>  (50) 
CN1CCC(NC(=O)CNC(=O)c2ccc3cc(Cl)ccc3n2)CC1

>  <score_type>  (50) 
oracle

>  <origin>  (50) 
autodockgpu

>  <m_score__min__energy>  (50) 
-8.3900000000000006

>  <m_primary>  (50) 
energy

>  <rmsd>  (50) 
8.360097211976726

>  <m_score__min__rmsd>  (50) 
8.360097211976726

>  <meeko>  (50) 
{"free_energy": -7.33, "intermolecular_energy": -8.53, "internal_energy": -1.61, "cluster_size": 4, "cluster_id": 2, "rank_in_cluster": 3}

>  <energy>  (50) 
-7.2

>  <cluster_rmsd>  (50) 
0.62

>  <cluster>  (50) 
2

$$$$
