
     RDKit          3D

 65 69  0  0  0  0  0  0  0  0999 V2000
  138.8800   68.4270  224.9330 O   0  0  0  0  0  0  0  0  0  0  0  0
  139.4640   69.5380  224.7950 C   0  0  0  0  0  0  0  0  0  0  0  0
  139.9870   70.0790  225.9690 C   0  0  0  0  0  0  0  0  0  0  0  0
  139.8710   69.4400  227.1830 C   0  0  0  0  0  0  0  0  0  0  0  0
  140.4010   70.0030  228.3320 C   0  0  0  0  0  0  0  0  0  0  0  0
  141.0540   71.2180  228.2560 C   0  0  0  0  0  0  0  0  0  0  0  0
  141.1730   71.8650  227.0290 C   0  0  0  0  0  0  0  0  0  0  0  0
  140.6380   71.2850  225.9050 C   0  0  0  0  0  0  0  0  0  0  0  0
  140.7300   71.8730  224.7040 N   0  0  0  0  0  0  0  0  0  0  0  0
  140.2230   71.3440  223.5770 C   0  0  0  0  0  0  0  0  0  0  0  0
  140.4050   72.1110  222.3320 C   0  0  0  0  0  0  0  0  0  0  0  0
  139.8160   73.2800  222.1830 C   0  0  0  0  0  0  0  0  0  0  0  0
  140.4620   74.4670  221.6510 C   0  0  0  0  0  0  0  0  0  0  0  0
  141.5440   74.4420  220.7990 C   0  0  0  0  0  0  0  0  0  0  0  0
  142.1270   75.5940  220.3130 C   0  0  0  0  0  0  0  0  0  0  0  0
  141.6510   76.8420  220.6600 C   0  0  0  0  0  0  0  0  0  0  0  0
  140.5710   76.8810  221.5100 C   0  0  0  0  0  0  0  0  0  0  0  0
  140.0500   78.2240  221.8840 C   0  0  0  0  0  0  0  0  0  0  0  0
  140.4250   78.6560  223.1920 N   0  0  0  0  0  0  0  0  0  0  0  0
  139.9110   79.9790  223.4910 C   0  0  0  0  0  0  0  0  0  0  0  0
  140.6610   80.9830  222.6770 C   0  0  0  0  0  0  0  0  0  0  0  0
  141.7440   80.4700  222.0100 O   0  0  0  0  0  0  0  0  0  0  0  0
  142.6050   79.7740  222.8590 C   0  0  0  0  0  0  0  0  0  0  0  0
  141.8240   78.6410  223.4820 C   0  0  0  0  0  0  0  0  0  0  0  0
  139.9870   75.7290  221.9960 C   0  0  0  0  0  0  0  0  0  0  0  0
  139.5800   70.1640  223.6040 N   0  0  0  0  0  0  0  0  0  0  0  0
  139.0180   69.5850  222.4080 C   0  0  0  0  0  0  0  0  0  0  0  0
  137.5960   70.0730  222.1870 C   0  0  0  0  0  0  0  0  0  0  0  0
  137.1140   70.9320  223.3170 C   0  0  0  0  0  0  0  0  0  0  0  0
  135.6750   71.3770  223.0640 C   0  0  0  0  0  0  0  0  0  0  0  0
  135.5290   71.8780  221.7130 N   0  0  0  0  0  0  0  0  0  0  0  0
  136.8220   72.1390  221.1140 C   0  0  0  0  0  0  0  0  0  0  0  0
  137.5260   70.8350  220.8920 C   0  0  0  0  0  0  0  0  0  0  0  0
  139.3518   68.4720  227.2409 H   0  0  0  0  0  0  0  0  0  0  0  0
  140.3027   69.4864  229.2982 H   0  0  0  0  0  0  0  0  0  0  0  0
  141.4789   71.6732  229.1628 H   0  0  0  0  0  0  0  0  0  0  0  0
  141.6913   72.8328  226.9604 H   0  0  0  0  0  0  0  0  0  0  0  0
  141.0340   71.7066  221.5253 H   0  0  0  0  0  0  0  0  0  0  0  0
  138.7608   73.3628  222.4826 H   0  0  0  0  0  0  0  0  0  0  0  0
  141.9579   73.4691  220.4954 H   0  0  0  0  0  0  0  0  0  0  0  0
  142.9894   75.5162  219.6346 H   0  0  0  0  0  0  0  0  0  0  0  0
  142.1139   77.7624  220.2746 H   0  0  0  0  0  0  0  0  0  0  0  0
  140.4311   78.9562  221.1569 H   0  0  0  0  0  0  0  0  0  0  0  0
  138.9526   78.1487  221.8796 H   0  0  0  0  0  0  0  0  0  0  0  0
  138.8409   80.0251  223.2404 H   0  0  0  0  0  0  0  0  0  0  0  0
  140.0385   80.1960  224.5618 H   0  0  0  0  0  0  0  0  0  0  0  0
  139.9704   81.4113  221.9356 H   0  0  0  0  0  0  0  0  0  0  0  0
  141.0498   81.7337  223.3808 H   0  0  0  0  0  0  0  0  0  0  0  0
  143.4529   79.3725  222.2847 H   0  0  0  0  0  0  0  0  0  0  0  0
  142.9993   80.4427  223.6384 H   0  0  0  0  0  0  0  0  0  0  0  0
  142.2412   77.6924  223.1130 H   0  0  0  0  0  0  0  0  0  0  0  0
  141.9189   78.7576  224.5717 H   0  0  0  0  0  0  0  0  0  0  0  0
  139.1241   75.8102  222.6733 H   0  0  0  0  0  0  0  0  0  0  0  0
  139.6357   69.8718  221.5442 H   0  0  0  0  0  0  0  0  0  0  0  0
  139.0010   68.4910  222.5212 H   0  0  0  0  0  0  0  0  0  0  0  0
  136.9374   69.1931  222.1425 H   0  0  0  0  0  0  0  0  0  0  0  0
  137.1574   70.3577  224.2542 H   0  0  0  0  0  0  0  0  0  0  0  0
  137.7571   71.8213  223.3917 H   0  0  0  0  0  0  0  0  0  0  0  0
  135.0006   70.5199  223.2071 H   0  0  0  0  0  0  0  0  0  0  0  0
  135.4218   72.1809  223.7708 H   0  0  0  0  0  0  0  0  0  0  0  0
  135.0160   71.1870  221.1220 H   0  0  0  0  0  0  0  0  0  0  0  0
  136.6859   72.6538  220.1514 H   0  0  0  0  0  0  0  0  0  0  0  0
  137.4202   72.7766  221.7815 H   0  0  0  0  0  0  0  0  0  0  0  0
  136.9734   70.2426  220.1480 H   0  0  0  0  0  0  0  0  0  0  0  0
  138.5452   71.0276  220.5257 H   0  0  0  0  0  0  0  0  0  0  0  0
  1  2  2  0
  2  3  1  0
  3  4  2  0
  4  5  1  0
  5  6  2  0
  6  7  1  0
  7  8  2  0
  8  9  1  0
  9 10  2  0
 10 11  1  0
 11 12  2  0
 12 13  1  0
 13 14  2  0
 14 15  1  0
 15 16  2  0
 16 17  1  0
 17 18  1  0
 18 19  1  0
 19 20  1  0
 20 21  1  0
 21 22  1  0
 22 23  1  0
 23 24  1  0
 17 25  2  0
 10 26  1  0
 26 27  1  0
 27 28  1  0
 28 29  1  0
 29 30  1  0
 30 31  1  0
 31 32  1  0
 32 33  1  0
 26  2  1  0
 33 28  1  0
  8  3  1  0
 25 13  1  0
 24 19  1  0
  4 34  1  0
  5 35  1  0
  6 36  1  0
  7 37  1  0
 11 38  1  0
 12 39  1  0
 14 40  1  0
 15 41  1  0
 16 42  1  0
 18 43  1  0
 18 44  1  0
 20 45  1  0
 20 46  1  0
 21 47  1  0
 21 48  1  0
 23 49  1  0
 23 50  1  0
 24 51  1  0
 24 52  1  0
 25 53  1  0
 27 54  1  0
 27 55  1  0
 28 56  1  0
 29 57  1  0
 29 58  1  0
 30 59  1  0
 30 60  1  0
 31 61  1  0
 32 62  1  0
 32 63  1  0
 33 64  1  0
 33 65  1  0
M  END
>  <smiles>  (1) 
O=c1c2ccccc2nc(/C=C/c2cccc(CN3CCOCC3)c2)n1CC1CCNCC1

>  <score_type>  (1) 
oracle

>  <origin>  (1) 
autodockgpu

>  <m_score__min__energy>  (1) 
-9.6400000000000006

>  <m_primary>  (1) 
energy

>  <rmsd>  (1) 
11.142119562370365

>  <m_score__min__rmsd>  (1) 
11.142119562370365

>  <meeko>  (1) 
{"free_energy": -8.39, "intermolecular_energy": -10.48, "internal_energy": -1.79, "cluster_size": 8, "cluster_id": 3, "rank_in_cluster": 7}

>  <energy>  (1) 
-9.64

>  <cluster_rmsd>  (1) 
0.0

>  <cluster>  (1) 
1

$$$$

     RDKit          3D

 65 69  0  0  0  0  0  0  0  0999 V2000
  142.8270   76.3450  219.6230 O   0  0  0  0  0  0  0  0  0  0  0  0
  141.9410   76.0400  220.4680 C   0  0  0  0  0  0  0  0  0  0  0  0
  141.4210   77.1120  221.1920 C   0  0  0  0  0  0  0  0  0  0  0  0
  141.8490   78.4060  220.9910 C   0  0  0  0  0  0  0  0  0  0  0  0
  141.3130   79.4500  221.7260 C   0  0  0  0  0  0  0  0  0  0  0  0
  140.3400   79.1890  222.6690 C   0  0  0  0  0  0  0  0  0  0  0  0
  139.9060   77.8830  222.8750 C   0  0  0  0  0  0  0  0  0  0  0  0
  140.4530   76.8650  222.1330 C   0  0  0  0  0  0  0  0  0  0  0  0
  140.0650   75.5920  222.2980 N   0  0  0  0  0  0  0  0  0  0  0  0
  140.5710   74.5650  221.5950 C   0  0  0  0  0  0  0  0  0  0  0  0
  140.0410   73.2210  221.8910 C   0  0  0  0  0  0  0  0  0  0  0  0
  140.7640   72.3620  222.5780 C   0  0  0  0  0  0  0  0  0  0  0  0
  140.2610   71.5530  223.6750 C   0  0  0  0  0  0  0  0  0  0  0  0
  140.8660   71.4660  224.9100 C   0  0  0  0  0  0  0  0  0  0  0  0
  140.3540   70.6870  225.9280 C   0  0  0  0  0  0  0  0  0  0  0  0
  139.2010   69.9490  225.7590 C   0  0  0  0  0  0  0  0  0  0  0  0
  138.5880   70.0280  224.5300 C   0  0  0  0  0  0  0  0  0  0  0  0
  137.3400   69.2380  224.3420 C   0  0  0  0  0  0  0  0  0  0  0  0
  136.2900   69.9460  223.6830 N   0  0  0  0  0  0  0  0  0  0  0  0
  135.3490   70.5160  224.6270 C   0  0  0  0  0  0  0  0  0  0  0  0
  134.5510   69.4100  225.2400 C   0  0  0  0  0  0  0  0  0  0  0  0
  134.7470   68.1850  224.6550 O   0  0  0  0  0  0  0  0  0  0  0  0
  134.5630   68.2240  223.2730 C   0  0  0  0  0  0  0  0  0  0  0  0
  135.5550   69.2100  222.7030 C   0  0  0  0  0  0  0  0  0  0  0  0
  139.0990   70.8070  223.5110 C   0  0  0  0  0  0  0  0  0  0  0  0
  141.5200   74.7720  220.6660 N   0  0  0  0  0  0  0  0  0  0  0  0
  142.0840   73.6810  219.9100 C   0  0  0  0  0  0  0  0  0  0  0  0
  143.5940   73.8190  219.8050 C   0  0  0  0  0  0  0  0  0  0  0  0
  144.3060   73.0110  220.8480 C   0  0  0  0  0  0  0  0  0  0  0  0
  145.8170   73.2000  220.7210 C   0  0  0  0  0  0  0  0  0  0  0  0
  146.2310   73.0540  219.3420 N   0  0  0  0  0  0  0  0  0  0  0  0
  145.1870   72.4410  218.5470 C   0  0  0  0  0  0  0  0  0  0  0  0
  144.0400   73.3980  218.4320 C   0  0  0  0  0  0  0  0  0  0  0  0
  142.6247   78.6120  220.2387 H   0  0  0  0  0  0  0  0  0  0  0  0
  141.6605   80.4803  221.5593 H   0  0  0  0  0  0  0  0  0  0  0  0
  139.9080   80.0122  223.2571 H   0  0  0  0  0  0  0  0  0  0  0  0
  139.1314   77.6678  223.6258 H   0  0  0  0  0  0  0  0  0  0  0  0
  139.0394   72.9358  221.5369 H   0  0  0  0  0  0  0  0  0  0  0  0
  141.8229   72.2487  222.3024 H   0  0  0  0  0  0  0  0  0  0  0  0
  141.7887   72.0370  225.0908 H   0  0  0  0  0  0  0  0  0  0  0  0
  140.8769   70.6540  226.8952 H   0  0  0  0  0  0  0  0  0  0  0  0
  138.7912   69.3269  226.5684 H   0  0  0  0  0  0  0  0  0  0  0  0
  137.5830   68.3472  223.7441 H   0  0  0  0  0  0  0  0  0  0  0  0
  136.9698   68.9900  225.3477 H   0  0  0  0  0  0  0  0  0  0  0  0
  135.8960   71.0568  225.4133 H   0  0  0  0  0  0  0  0  0  0  0  0
  134.6786   71.2175  224.1088 H   0  0  0  0  0  0  0  0  0  0  0  0
  134.8266   69.3333  226.3021 H   0  0  0  0  0  0  0  0  0  0  0  0
  133.4912   69.6651  225.0924 H   0  0  0  0  0  0  0  0  0  0  0  0
  134.7382   67.2264  222.8438 H   0  0  0  0  0  0  0  0  0  0  0  0
  133.5346   68.5299  223.0307 H   0  0  0  0  0  0  0  0  0  0  0  0
  136.2725   68.6546  222.0811 H   0  0  0  0  0  0  0  0  0  0  0  0
  134.9706   69.9467  222.1323 H   0  0  0  0  0  0  0  0  0  0  0  0
  138.5737   70.8383  222.5451 H   0  0  0  0  0  0  0  0  0  0  0  0
  141.8429   72.7323  220.4118 H   0  0  0  0  0  0  0  0  0  0  0  0
  141.6577   73.6979  218.8961 H   0  0  0  0  0  0  0  0  0  0  0  0
  143.8515   74.8745  219.9770 H   0  0  0  0  0  0  0  0  0  0  0  0
  143.9813   73.3394  221.8464 H   0  0  0  0  0  0  0  0  0  0  0  0
  144.0639   71.9475  220.7055 H   0  0  0  0  0  0  0  0  0  0  0  0
  146.0873   74.2055  221.0758 H   0  0  0  0  0  0  0  0  0  0  0  0
  146.3238   72.4353  221.3279 H   0  0  0  0  0  0  0  0  0  0  0  0
  146.4650   73.9860  218.9320 H   0  0  0  0  0  0  0  0  0  0  0  0
  145.5751   72.2075  217.5446 H   0  0  0  0  0  0  0  0  0  0  0  0
  144.8498   71.5108  219.0277 H   0  0  0  0  0  0  0  0  0  0  0  0
  144.3582   74.2839  217.8629 H   0  0  0  0  0  0  0  0  0  0  0  0
  143.2049   72.9061  217.9117 H   0  0  0  0  0  0  0  0  0  0  0  0
  1  2  2  0
  2  3  1  0
  3  4  2  0
  4  5  1  0
  5  6  2  0
  6  7  1  0
  7  8  2  0
  8  9  1  0
  9 10  2  0
 10 11  1  0
 11 12  2  0
 12 13  1  0
 13 14  2  0
 14 15  1  0
 15 16  2  0
 16 17  1  0
 17 18  1  0
 18 19  1  0
 19 20  1  0
 20 21  1  0
 21 22  1  0
 22 23  1  0
 23 24  1  0
 17 25  2  0
 10 26  1  0
 26 27  1  0
 27 28  1  0
 28 29  1  0
 29 30  1  0
 30 31  1  0
 31 32  1  0
 32 33  1  0
 26  2  1  0
 33 28  1  0
  8  3  1  0
 25 13  1  0
 24 19  1  0
  4 34  1  0
  5 35  1  0
  6 36  1  0
  7 37  1  0
 11 38  1  0
 12 39  1  0
 14 40  1  0
 15 41  1  0
 16 42  1  0
 18 43  1  0
 18 44  1  0
 20 45  1  0
 20 46  1  0
 21 47  1  0
 21 48  1  0
 23 49  1  0
 23 50  1  0
 24 51  1  0
 24 52  1  0
 25 53  1  0
 27 54  1  0
 27 55  1  0
 28 56  1  0
 29 57  1  0
 29 58  1  0
 30 59  1  0
 30 60  1  0
 31 61  1  0
 32 62  1  0
 32 63  1  0
 33 64  1  0
 33 65  1  0
M  END
>  <smiles>  (2) 
O=c1c2ccccc2nc(/C=C/c2cccc(CN3CCOCC3)c2)n1CC1CCNCC1

>  <score_type>  (2) 
oracle

>  <origin>  (2) 
autodockgpu

>  <m_score__min__energy>  (2) 
-9.6400000000000006

>  <m_primary>  (2) 
energy

>  <rmsd>  (2) 
7.716666951646009

>  <m_score__min__rmsd>  (2) 
7.716666951646009

>  <meeko>  (2) 
{"free_energy": -8.96, "intermolecular_energy": -11.04, "internal_energy": -1.31, "cluster_size": 2, "cluster_id": 4, "rank_in_cluster": 1}

>  <energy>  (2) 
-9.62

>  <cluster_rmsd>  (2) 
0.12

>  <cluster>  (2) 
1

$$$$

     RDKit          3D

 65 69  0  0  0  0  0  0  0  0999 V2000
  139.1110   67.8480  225.3660 O   0  0  0  0  0  0  0  0  0  0  0  0
  139.4810   69.0020  225.0130 C   0  0  0  0  0  0  0  0  0  0  0  0
  140.0290   69.7830  226.0300 C   0  0  0  0  0  0  0  0  0  0  0  0
  140.1530   69.3200  227.3210 C   0  0  0  0  0  0  0  0  0  0  0  0
  140.7020   70.1200  228.3100 C   0  0  0  0  0  0  0  0  0  0  0  0
  141.1280   71.3950  227.9950 C   0  0  0  0  0  0  0  0  0  0  0  0
  141.0040   71.8650  226.6910 C   0  0  0  0  0  0  0  0  0  0  0  0
  140.4560   71.0510  225.7290 C   0  0  0  0  0  0  0  0  0  0  0  0
  140.3180   71.4640  224.4610 N   0  0  0  0  0  0  0  0  0  0  0  0
  139.7890   70.7040  223.4860 C   0  0  0  0  0  0  0  0  0  0  0  0
  139.7050   71.2990  222.1400 C   0  0  0  0  0  0  0  0  0  0  0  0
  139.2790   72.5360  221.9900 C   0  0  0  0  0  0  0  0  0  0  0  0
  140.1170   73.6550  221.5930 C   0  0  0  0  0  0  0  0  0  0  0  0
  139.7110   74.9710  221.6210 C   0  0  0  0  0  0  0  0  0  0  0  0
  140.5400   76.0060  221.2390 C   0  0  0  0  0  0  0  0  0  0  0  0
  141.8290   75.7720  220.8050 C   0  0  0  0  0  0  0  0  0  0  0  0
  142.2450   74.4620  220.7730 C   0  0  0  0  0  0  0  0  0  0  0  0
  143.6360   74.2030  220.3100 C   0  0  0  0  0  0  0  0  0  0  0  0
  144.2670   73.0870  220.9390 N   0  0  0  0  0  0  0  0  0  0  0  0
  145.6470   73.3720  221.2850 C   0  0  0  0  0  0  0  0  0  0  0  0
  146.4550   73.4330  220.0290 C   0  0  0  0  0  0  0  0  0  0  0  0
  145.7780   73.0330  218.9050 O   0  0  0  0  0  0  0  0  0  0  0  0
  145.1950   71.7750  219.0600 C   0  0  0  0  0  0  0  0  0  0  0  0
  144.2290   71.8540  220.2190 C   0  0  0  0  0  0  0  0  0  0  0  0
  141.4170   73.4260  221.1550 C   0  0  0  0  0  0  0  0  0  0  0  0
  139.3610   69.4570  223.7470 N   0  0  0  0  0  0  0  0  0  0  0  0
  138.7800   68.6300  222.7180 C   0  0  0  0  0  0  0  0  0  0  0  0
  137.3920   68.1610  223.1200 C   0  0  0  0  0  0  0  0  0  0  0  0
  136.4930   69.3050  223.4800 C   0  0  0  0  0  0  0  0  0  0  0  0
  135.1200   68.7850  223.9020 C   0  0  0  0  0  0  0  0  0  0  0  0
  134.6350   67.8070  222.9510 N   0  0  0  0  0  0  0  0  0  0  0  0
  135.4000   67.8520  221.7220 C   0  0  0  0  0  0  0  0  0  0  0  0
  136.7890   67.3630  221.9970 C   0  0  0  0  0  0  0  0  0  0  0  0
  139.8125   68.3040  227.5697 H   0  0  0  0  0  0  0  0  0  0  0  0
  140.7978   69.7422  229.3386 H   0  0  0  0  0  0  0  0  0  0  0  0
  141.5646   72.0381  228.7733 H   0  0  0  0  0  0  0  0  0  0  0  0
  141.3418   72.8794  226.4325 H   0  0  0  0  0  0  0  0  0  0  0  0
  139.9986   70.7088  221.2594 H   0  0  0  0  0  0  0  0  0  0  0  0
  138.2140   72.7364  222.1785 H   0  0  0  0  0  0  0  0  0  0  0  0
  138.6909   75.2049  221.9595 H   0  0  0  0  0  0  0  0  0  0  0  0
  140.1655   77.0394  221.2813 H   0  0  0  0  0  0  0  0  0  0  0  0
  142.4921   76.5946  220.4992 H   0  0  0  0  0  0  0  0  0  0  0  0
  143.6093   74.0177  219.2261 H   0  0  0  0  0  0  0  0  0  0  0  0
  144.2274   75.0910  220.5777 H   0  0  0  0  0  0  0  0  0  0  0  0
  145.7050   74.3372  221.8093 H   0  0  0  0  0  0  0  0  0  0  0  0
  146.0382   72.5825  221.9435 H   0  0  0  0  0  0  0  0  0  0  0  0
  146.7853   74.4718  219.8814 H   0  0  0  0  0  0  0  0  0  0  0  0
  147.2939   72.7334  220.1585 H   0  0  0  0  0  0  0  0  0  0  0  0
  144.6565   71.4964  218.1422 H   0  0  0  0  0  0  0  0  0  0  0  0
  145.9663   71.0150  219.2535 H   0  0  0  0  0  0  0  0  0  0  0  0
  143.2104   71.7162  219.8272 H   0  0  0  0  0  0  0  0  0  0  0  0
  144.5270   71.0681  220.9286 H   0  0  0  0  0  0  0  0  0  0  0  0
  141.7946   72.3937  221.1120 H   0  0  0  0  0  0  0  0  0  0  0  0
  138.7084   69.2108  221.7866 H   0  0  0  0  0  0  0  0  0  0  0  0
  139.4208   67.7480  222.5719 H   0  0  0  0  0  0  0  0  0  0  0  0
  137.4933   67.5317  224.0165 H   0  0  0  0  0  0  0  0  0  0  0  0
  136.9390   69.8697  224.3120 H   0  0  0  0  0  0  0  0  0  0  0  0
  136.3751   69.9584  222.6030 H   0  0  0  0  0  0  0  0  0  0  0  0
  135.1993   68.3169  224.8943 H   0  0  0  0  0  0  0  0  0  0  0  0
  134.4148   69.6285  223.9364 H   0  0  0  0  0  0  0  0  0  0  0  0
  134.7000   66.8450  223.3540 H   0  0  0  0  0  0  0  0  0  0  0  0
  134.9245   67.2083  220.9673 H   0  0  0  0  0  0  0  0  0  0  0  0
  135.4363   68.8841  221.3432 H   0  0  0  0  0  0  0  0  0  0  0  0
  136.7537   66.3008  222.2806 H   0  0  0  0  0  0  0  0  0  0  0  0
  137.4039   67.4826  221.0928 H   0  0  0  0  0  0  0  0  0  0  0  0
  1  2  2  0
  2  3  1  0
  3  4  2  0
  4  5  1  0
  5  6  2  0
  6  7  1  0
  7  8  2  0
  8  9  1  0
  9 10  2  0
 10 11  1  0
 11 12  2  0
 12 13  1  0
 13 14  2  0
 14 15  1  0
 15 16  2  0
 16 17  1  0
 17 18  1  0
 18 19  1  0
 19 20  1  0
 20 21  1  0
 21 22  1  0
 22 23  1  0
 23 24  1  0
 17 25  2  0
 10 26  1  0
 26 27  1  0
 27 28  1  0
 28 29  1  0
 29 30  1  0
 30 31  1  0
 31 32  1  0
 32 33  1  0
 26  2  1  0
 33 28  1  0
  8  3  1  0
 25 13  1  0
 24 19  1  0
  4 34  1  0
  5 35  1  0
  6 36  1  0
  7 37  1  0
 11 38  1  0
 12 39  1  0
 14 40  1  0
 15 41  1  0
 16 42  1  0
 18 43  1  0
 18 44  1  0
 20 45  1  0
 20 46  1  0
 21 47  1  0
 21 48  1  0
 23 49  1  0
 23 50  1  0
 24 51  1  0
 24 52  1  0
 25 53  1  0
 27 54  1  0
 27 55  1  0
 28 56  1  0
 29 57  1  0
 29 58  1  0
 30 59  1  0
 30 60  1  0
 31 61  1  0
 32 62  1  0
 32 63  1  0
 33 64  1  0
 33 65  1  0
M  END
>  <smiles>  (3) 
O=c1c2ccccc2nc(/C=C/c2cccc(CN3CCOCC3)c2)n1CC1CCNCC1

>  <score_type>  (3) 
oracle

>  <origin>  (3) 
autodockgpu

>  <m_score__min__energy>  (3) 
-9.6400000000000006

>  <m_primary>  (3) 
energy

>  <rmsd>  (3) 
12.537787200524438

>  <m_score__min__rmsd>  (3) 
12.537787200524438

>  <meeko>  (3) 
{"free_energy": -9.12, "intermolecular_energy": -11.21, "internal_energy": -1.6, "cluster_size": 5, "cluster_id": 2, "rank_in_cluster": 1}

>  <energy>  (3) 
-9.59

>  <cluster_rmsd>  (3) 
1.12

>  <cluster>  (3) 
1

$$$$

     RDKit          3D

 65 69  0  0  0  0  0  0  0  0999 V2000
  138.8150   68.0540  225.3950 O   0  0  0  0  0  0  0  0  0  0  0  0
  139.2530   69.1950  225.0790 C   0  0  0  0  0  0  0  0  0  0  0  0
  139.9350   69.8670  226.0940 C   0  0  0  0  0  0  0  0  0  0  0  0
  140.1120   69.3160  227.3440 C   0  0  0  0  0  0  0  0  0  0  0  0
  140.7940   70.0090  228.3310 C   0  0  0  0  0  0  0  0  0  0  0  0
  141.3000   71.2630  228.0560 C   0  0  0  0  0  0  0  0  0  0  0  0
  141.1220   71.8220  226.7940 C   0  0  0  0  0  0  0  0  0  0  0  0
  140.4420   71.1140  225.8330 C   0  0  0  0  0  0  0  0  0  0  0  0
  140.2480   71.6140  224.6030 N   0  0  0  0  0  0  0  0  0  0  0  0
  139.5910   70.9580  223.6310 C   0  0  0  0  0  0  0  0  0  0  0  0
  139.4590   71.6400  222.3310 C   0  0  0  0  0  0  0  0  0  0  0  0
  138.5900   72.6180  222.1810 C   0  0  0  0  0  0  0  0  0  0  0  0
  137.1520   72.4350  222.0760 C   0  0  0  0  0  0  0  0  0  0  0  0
  136.5200   71.9150  220.9690 C   0  0  0  0  0  0  0  0  0  0  0  0
  135.1510   71.7540  220.9100 C   0  0  0  0  0  0  0  0  0  0  0  0
  134.3380   72.1110  221.9670 C   0  0  0  0  0  0  0  0  0  0  0  0
  134.9590   72.6320  223.0780 C   0  0  0  0  0  0  0  0  0  0  0  0
  134.0890   73.0150  224.2240 C   0  0  0  0  0  0  0  0  0  0  0  0
  133.3480   71.9320  224.7870 N   0  0  0  0  0  0  0  0  0  0  0  0
  131.9770   72.3070  225.0720 C   0  0  0  0  0  0  0  0  0  0  0  0
  131.9650   73.2430  226.2380 C   0  0  0  0  0  0  0  0  0  0  0  0
  133.1780   73.3740  226.8640 O   0  0  0  0  0  0  0  0  0  0  0  0
  133.7240   72.1410  227.2220 C   0  0  0  0  0  0  0  0  0  0  0  0
  133.9040   71.3330  225.9590 C   0  0  0  0  0  0  0  0  0  0  0  0
  136.3280   72.7930  223.1380 C   0  0  0  0  0  0  0  0  0  0  0  0
  139.0810   69.7350  223.8540 N   0  0  0  0  0  0  0  0  0  0  0  0
  138.3620   69.0210  222.8280 C   0  0  0  0  0  0  0  0  0  0  0  0
  136.8740   69.3250  222.8980 C   0  0  0  0  0  0  0  0  0  0  0  0
  136.0410   68.1700  222.4280 C   0  0  0  0  0  0  0  0  0  0  0  0
  134.5580   68.5290  222.4920 C   0  0  0  0  0  0  0  0  0  0  0  0
  134.2370   69.1300  223.7700 N   0  0  0  0  0  0  0  0  0  0  0  0
  135.2980   68.9060  224.7300 C   0  0  0  0  0  0  0  0  0  0  0  0
  136.5060   69.6870  224.3100 C   0  0  0  0  0  0  0  0  0  0  0  0
  139.7080   68.3161  227.5607 H   0  0  0  0  0  0  0  0  0  0  0  0
  140.9312   69.5627  229.3270 H   0  0  0  0  0  0  0  0  0  0  0  0
  141.8434   71.8201  228.8334 H   0  0  0  0  0  0  0  0  0  0  0  0
  141.5221   72.8215  226.5681 H   0  0  0  0  0  0  0  0  0  0  0  0
  140.0884   71.3310  221.4834 H   0  0  0  0  0  0  0  0  0  0  0  0
  138.9798   73.6454  222.1317 H   0  0  0  0  0  0  0  0  0  0  0  0
  137.1275   71.6176  220.1015 H   0  0  0  0  0  0  0  0  0  0  0  0
  134.6975   71.3320  220.0010 H   0  0  0  0  0  0  0  0  0  0  0  0
  133.2462   71.9848  221.9228 H   0  0  0  0  0  0  0  0  0  0  0  0
  134.7260   73.4430  225.0121 H   0  0  0  0  0  0  0  0  0  0  0  0
  133.3516   73.7319  223.8338 H   0  0  0  0  0  0  0  0  0  0  0  0
  131.5399   72.8049  224.1939 H   0  0  0  0  0  0  0  0  0  0  0  0
  131.3857   71.4098  225.3073 H   0  0  0  0  0  0  0  0  0  0  0  0
  131.6516   74.2352  225.8811 H   0  0  0  0  0  0  0  0  0  0  0  0
  131.2706   72.8185  226.9781 H   0  0  0  0  0  0  0  0  0  0  0  0
  134.6971   72.2907  227.7126 H   0  0  0  0  0  0  0  0  0  0  0  0
  133.0597   71.6152  227.9237 H   0  0  0  0  0  0  0  0  0  0  0  0
  134.9821   71.1904  225.7933 H   0  0  0  0  0  0  0  0  0  0  0  0
  133.3632   70.3876  226.1132 H   0  0  0  0  0  0  0  0  0  0  0  0
  136.7790   73.2149  224.0482 H   0  0  0  0  0  0  0  0  0  0  0  0
  138.7456   69.3234  221.8424 H   0  0  0  0  0  0  0  0  0  0  0  0
  138.5082   67.9417  222.9821 H   0  0  0  0  0  0  0  0  0  0  0  0
  136.6670   70.1707  222.2258 H   0  0  0  0  0  0  0  0  0  0  0  0
  136.3113   67.9256  221.3901 H   0  0  0  0  0  0  0  0  0  0  0  0
  136.2290   67.3034  223.0789 H   0  0  0  0  0  0  0  0  0  0  0  0
  134.3228   69.2414  221.6875 H   0  0  0  0  0  0  0  0  0  0  0  0
  133.9639   67.6112  222.3709 H   0  0  0  0  0  0  0  0  0  0  0  0
  134.0900   70.1580  223.6620 H   0  0  0  0  0  0  0  0  0  0  0  0
  134.9710   69.2391  225.7261 H   0  0  0  0  0  0  0  0  0  0  0  0
  135.5430   67.8344  224.7712 H   0  0  0  0  0  0  0  0  0  0  0  0
  136.2842   70.7629  224.3662 H   0  0  0  0  0  0  0  0  0  0  0  0
  137.3460   69.4490  224.9792 H   0  0  0  0  0  0  0  0  0  0  0  0
  1  2  2  0
  2  3  1  0
  3  4  2  0
  4  5  1  0
  5  6  2  0
  6  7  1  0
  7  8  2  0
  8  9  1  0
  9 10  2  0
 10 11  1  0
 11 12  2  0
 12 13  1  0
 13 14  2  0
 14 15  1  0
 15 16  2  0
 16 17  1  0
 17 18  1  0
 18 19  1  0
 19 20  1  0
 20 21  1  0
 21 22  1  0
 22 23  1  0
 23 24  1  0
 17 25  2  0
 10 26  1  0
 26 27  1  0
 27 28  1  0
 28 29  1  0
 29 30  1  0
 30 31  1  0
 31 32  1  0
 32 33  1  0
 26  2  1  0
 33 28  1  0
  8  3  1  0
 25 13  1  0
 24 19  1  0
  4 34  1  0
  5 35  1  0
  6 36  1  0
  7 37  1  0
 11 38  1  0
 12 39  1  0
 14 40  1  0
 15 41  1  0
 16 42  1  0
 18 43  1  0
 18 44  1  0
 20 45  1  0
 20 46  1  0
 21 47  1  0
 21 48  1  0
 23 49  1  0
 23 50  1  0
 24 51  1  0
 24 52  1  0
 25 53  1  0
 27 54  1  0
 27 55  1  0
 28 56  1  0
 29 57  1  0
 29 58  1  0
 30 59  1  0
 30 60  1  0
 31 61  1  0
 32 62  1  0
 32 63  1  0
 33 64  1  0
 33 65  1  0
M  END
>  <smiles>  (4) 
O=c1c2ccccc2nc(/C=C/c2cccc(CN3CCOCC3)c2)n1CC1CCNCC1

>  <score_type>  (4) 
oracle

>  <origin>  (4) 
autodockgpu

>  <m_score__min__energy>  (4) 
-9.6400000000000006

>  <m_primary>  (4) 
energy

>  <rmsd>  (4) 
12.281939991092152

>  <m_score__min__rmsd>  (4) 
12.281939991092152

>  <meeko>  (4) 
{"free_energy": -6.87, "intermolecular_energy": -8.96, "internal_energy": -3.4, "cluster_size": 2, "cluster_id": 12, "rank_in_cluster": 1}

>  <energy>  (4) 
-9.57

>  <cluster_rmsd>  (4) 
0.09

>  <cluster>  (4) 
1

$$$$

     RDKit          3D

 65 69  0  0  0  0  0  0  0  0999 V2000
  142.7210   77.4920  219.0490 O   0  0  0  0  0  0  0  0  0  0  0  0
  142.1410   76.9420  220.0250 C   0  0  0  0  0  0  0  0  0  0  0  0
  141.6740   77.8180  221.0050 C   0  0  0  0  0  0  0  0  0  0  0  0
  141.8380   79.1820  220.9050 C   0  0  0  0  0  0  0  0  0  0  0  0
  141.3630   80.0260  221.8940 C   0  0  0  0  0  0  0  0  0  0  0  0
  140.7180   79.4920  222.9920 C   0  0  0  0  0  0  0  0  0  0  0  0
  140.5500   78.1150  223.0960 C   0  0  0  0  0  0  0  0  0  0  0  0
  141.0310   77.3000  222.1000 C   0  0  0  0  0  0  0  0  0  0  0  0
  140.8910   75.9670  222.1600 N   0  0  0  0  0  0  0  0  0  0  0  0
  141.3440   75.1300  221.2100 C   0  0  0  0  0  0  0  0  0  0  0  0
  141.1130   73.6890  221.4180 C   0  0  0  0  0  0  0  0  0  0  0  0
  139.8850   73.2170  221.4750 C   0  0  0  0  0  0  0  0  0  0  0  0
  139.5080   71.9740  222.1240 C   0  0  0  0  0  0  0  0  0  0  0  0
  139.0000   70.8790  221.4600 C   0  0  0  0  0  0  0  0  0  0  0  0
  138.6570   69.7140  222.1140 C   0  0  0  0  0  0  0  0  0  0  0  0
  138.8060   69.5850  223.4800 C   0  0  0  0  0  0  0  0  0  0  0  0
  139.3120   70.6710  224.1540 C   0  0  0  0  0  0  0  0  0  0  0  0
  139.4790   70.5380  225.6270 C   0  0  0  0  0  0  0  0  0  0  0  0
  140.8360   70.5670  226.0690 N   0  0  0  0  0  0  0  0  0  0  0  0
  141.5500   69.3590  225.7020 C   0  0  0  0  0  0  0  0  0  0  0  0
  141.0440   68.2280  226.5390 C   0  0  0  0  0  0  0  0  0  0  0  0
  140.2000   68.6110  227.5500 O   0  0  0  0  0  0  0  0  0  0  0  0
  140.7520   69.6120  228.3490 C   0  0  0  0  0  0  0  0  0  0  0  0
  141.0380   70.8030  227.4640 C   0  0  0  0  0  0  0  0  0  0  0  0
  139.6560   71.8370  223.5010 C   0  0  0  0  0  0  0  0  0  0  0  0
  141.9770   75.6050  220.1240 N   0  0  0  0  0  0  0  0  0  0  0  0
  142.4810   74.7230  219.1000 C   0  0  0  0  0  0  0  0  0  0  0  0
  143.9900   74.5760  219.2070 C   0  0  0  0  0  0  0  0  0  0  0  0
  144.4000   73.8810  220.4700 C   0  0  0  0  0  0  0  0  0  0  0  0
  145.9230   73.7790  220.5460 C   0  0  0  0  0  0  0  0  0  0  0  0
  146.4610   73.2940  219.2920 N   0  0  0  0  0  0  0  0  0  0  0  0
  145.4180   72.7240  218.4650 C   0  0  0  0  0  0  0  0  0  0  0  0
  144.5040   73.8210  218.0120 C   0  0  0  0  0  0  0  0  0  0  0  0
  142.3521   79.6052  220.0295 H   0  0  0  0  0  0  0  0  0  0  0  0
  141.4984   81.1141  221.8059 H   0  0  0  0  0  0  0  0  0  0  0  0
  140.3376   80.1546  223.7834 H   0  0  0  0  0  0  0  0  0  0  0  0
  140.0368   77.6827  223.9676 H   0  0  0  0  0  0  0  0  0  0  0  0
  141.9687   73.0062  221.5259 H   0  0  0  0  0  0  0  0  0  0  0  0
  139.0884   73.8061  220.9971 H   0  0  0  0  0  0  0  0  0  0  0  0
  138.8631   70.9358  220.3700 H   0  0  0  0  0  0  0  0  0  0  0  0
  138.2560   68.8695  221.5343 H   0  0  0  0  0  0  0  0  0  0  0  0
  138.5329   68.6574  224.0044 H   0  0  0  0  0  0  0  0  0  0  0  0
  138.9412   71.3666  226.1109 H   0  0  0  0  0  0  0  0  0  0  0  0
  139.0791   69.5507  225.9016 H   0  0  0  0  0  0  0  0  0  0  0  0
  141.3792   69.1371  224.6382 H   0  0  0  0  0  0  0  0  0  0  0  0
  142.6283   69.4960  225.8707 H   0  0  0  0  0  0  0  0  0  0  0  0
  140.5030   67.5291  225.8840 H   0  0  0  0  0  0  0  0  0  0  0  0
  141.9228   67.7704  227.0169 H   0  0  0  0  0  0  0  0  0  0  0  0
  140.0410   69.8949  229.1392 H   0  0  0  0  0  0  0  0  0  0  0  0
  141.6771   69.2566  228.8264 H   0  0  0  0  0  0  0  0  0  0  0  0
  140.3773   71.6266  227.7723 H   0  0  0  0  0  0  0  0  0  0  0  0
  142.1053   71.0374  227.5903 H   0  0  0  0  0  0  0  0  0  0  0  0
  140.0573   72.6794  224.0835 H   0  0  0  0  0  0  0  0  0  0  0  0
  142.0136   73.7338  219.2143 H   0  0  0  0  0  0  0  0  0  0  0  0
  142.2379   75.1508  218.1162 H   0  0  0  0  0  0  0  0  0  0  0  0
  144.4282   75.5846  219.2328 H   0  0  0  0  0  0  0  0  0  0  0  0
  144.0304   74.4513  221.3349 H   0  0  0  0  0  0  0  0  0  0  0  0
  143.9717   72.8678  220.4774 H   0  0  0  0  0  0  0  0  0  0  0  0
  146.3424   74.7732  220.7597 H   0  0  0  0  0  0  0  0  0  0  0  0
  146.1933   73.0741  221.3460 H   0  0  0  0  0  0  0  0  0  0  0  0
  146.9210   74.0720  218.7680 H   0  0  0  0  0  0  0  0  0  0  0  0
  145.8679   72.2331  217.5894 H   0  0  0  0  0  0  0  0  0  0  0  0
  144.8496   71.9799  219.0422 H   0  0  0  0  0  0  0  0  0  0  0  0
  145.0556   74.5087  217.3541 H   0  0  0  0  0  0  0  0  0  0  0  0
  143.6561   73.3861  217.4626 H   0  0  0  0  0  0  0  0  0  0  0  0
  1  2  2  0
  2  3  1  0
  3  4  2  0
  4  5  1  0
  5  6  2  0
  6  7  1  0
  7  8  2  0
  8  9  1  0
  9 10  2  0
 10 11  1  0
 11 12  2  0
 12 13  1  0
 13 14  2  0
 14 15  1  0
 15 16  2  0
 16 17  1  0
 17 18  1  0
 18 19  1  0
 19 20  1  0
 20 21  1  0
 21 22  1  0
 22 23  1  0
 23 24  1  0
 17 25  2  0
 10 26  1  0
 26 27  1  0
 27 28  1  0
 28 29  1  0
 29 30  1  0
 30 31  1  0
 31 32  1  0
 32 33  1  0
 26  2  1  0
 33 28  1  0
  8  3  1  0
 25 13  1  0
 24 19  1  0
  4 34  1  0
  5 35  1  0
  6 36  1  0
  7 37  1  0
 11 38  1  0
 12 39  1  0
 14 40  1  0
 15 41  1  0
 16 42  1  0
 18 43  1  0
 18 44  1  0
 20 45  1  0
 20 46  1  0
 21 47  1  0
 21 48  1  0
 23 49  1  0
 23 50  1  0
 24 51  1  0
 24 52  1  0
 25 53  1  0
 27 54  1  0
 27 55  1  0
 28 56  1  0
 29 57  1  0
 29 58  1  0
 30 59  1  0
 30 60  1  0
 31 61  1  0
 32 62  1  0
 32 63  1  0
 33 64  1  0
 33 65  1  0
M  END
>  <smiles>  (5) 
O=c1c2ccccc2nc(/C=C/c2cccc(CN3CCOCC3)c2)n1CC1CCNCC1

>  <score_type>  (5) 
oracle

>  <origin>  (5) 
autodockgpu

>  <m_score__min__energy>  (5) 
-9.6400000000000006

>  <m_primary>  (5) 
energy

>  <rmsd>  (5) 
7.619110792391547

>  <m_score__min__rmsd>  (5) 
7.619110792391547

>  <meeko>  (5) 
{"free_energy": -8.95, "intermolecular_energy": -11.04, "internal_energy": -1.52, "cluster_size": 18, "cluster_id": 1, "rank_in_cluster": 12}

>  <energy>  (5) 
-9.56

>  <cluster_rmsd>  (5) 
1.13

>  <cluster>  (5) 
1

$$$$

     RDKit          3D

 65 69  0  0  0  0  0  0  0  0999 V2000
  142.8780   76.5200  219.6800 O   0  0  0  0  0  0  0  0  0  0  0  0
  141.9670   76.1830  220.4860 C   0  0  0  0  0  0  0  0  0  0  0  0
  141.4190   77.2300  221.2280 C   0  0  0  0  0  0  0  0  0  0  0  0
  141.8470   78.5310  221.0830 C   0  0  0  0  0  0  0  0  0  0  0  0
  141.2830   79.5490  221.8340 C   0  0  0  0  0  0  0  0  0  0  0  0
  140.2820   79.2530  222.7370 C   0  0  0  0  0  0  0  0  0  0  0  0
  139.8480   77.9390  222.8870 C   0  0  0  0  0  0  0  0  0  0  0  0
  140.4240   76.9480  222.1290 C   0  0  0  0  0  0  0  0  0  0  0  0
  140.0370   75.6690  222.2400 N   0  0  0  0  0  0  0  0  0  0  0  0
  140.5700   74.6670  221.5200 C   0  0  0  0  0  0  0  0  0  0  0  0
  140.0370   73.3130  221.7550 C   0  0  0  0  0  0  0  0  0  0  0  0
  140.7390   72.4360  222.4420 C   0  0  0  0  0  0  0  0  0  0  0  0
  140.2020   71.5910  223.4940 C   0  0  0  0  0  0  0  0  0  0  0  0
  140.7210   71.5200  224.7680 C   0  0  0  0  0  0  0  0  0  0  0  0
  140.1790   70.7060  225.7410 C   0  0  0  0  0  0  0  0  0  0  0  0
  139.0790   69.9140  225.4850 C   0  0  0  0  0  0  0  0  0  0  0  0
  138.5520   69.9750  224.2160 C   0  0  0  0  0  0  0  0  0  0  0  0
  137.3630   69.1250  223.9330 C   0  0  0  0  0  0  0  0  0  0  0  0
  136.2860   69.8140  223.2970 N   0  0  0  0  0  0  0  0  0  0  0  0
  135.5820   70.6840  224.2200 C   0  0  0  0  0  0  0  0  0  0  0  0
  134.8020   69.8410  225.1770 C   0  0  0  0  0  0  0  0  0  0  0  0
  134.7760   68.5070  224.8580 O   0  0  0  0  0  0  0  0  0  0  0  0
  134.3580   68.2860  223.5450 C   0  0  0  0  0  0  0  0  0  0  0  0
  135.3250   68.9960  222.6280 C   0  0  0  0  0  0  0  0  0  0  0  0
  139.0940   70.7890  223.2420 C   0  0  0  0  0  0  0  0  0  0  0  0
  141.5460   74.9080  220.6290 N   0  0  0  0  0  0  0  0  0  0  0  0
  142.1390   73.8450  219.8560 C   0  0  0  0  0  0  0  0  0  0  0  0
  143.6560   73.9290  219.8930 C   0  0  0  0  0  0  0  0  0  0  0  0
  144.2550   72.9050  220.8090 C   0  0  0  0  0  0  0  0  0  0  0  0
  145.7760   73.0440  220.8350 C   0  0  0  0  0  0  0  0  0  0  0  0
  146.2980   73.1460  219.4880 N   0  0  0  0  0  0  0  0  0  0  0  0
  145.3040   72.7460  218.5130 C   0  0  0  0  0  0  0  0  0  0  0  0
  144.2000   73.7600  218.5020 C   0  0  0  0  0  0  0  0  0  0  0  0
  142.6453   78.7641  220.3630 H   0  0  0  0  0  0  0  0  0  0  0  0
  141.6302   80.5856  221.7117 H   0  0  0  0  0  0  0  0  0  0  0  0
  139.8276   80.0548  223.3376 H   0  0  0  0  0  0  0  0  0  0  0  0
  139.0514   77.6961  223.6056 H   0  0  0  0  0  0  0  0  0  0  0  0
  139.0506   73.0346  221.3556 H   0  0  0  0  0  0  0  0  0  0  0  0
  141.8079   72.3363  222.2021 H   0  0  0  0  0  0  0  0  0  0  0  0
  141.5986   72.1341  225.0184 H   0  0  0  0  0  0  0  0  0  0  0  0
  140.6337   70.6881  226.7424 H   0  0  0  0  0  0  0  0  0  0  0  0
  138.6440   69.2645  226.2589 H   0  0  0  0  0  0  0  0  0  0  0  0
  137.6780   68.2990  223.2783 H   0  0  0  0  0  0  0  0  0  0  0  0
  136.9845   68.7788  224.9061 H   0  0  0  0  0  0  0  0  0  0  0  0
  136.3066   71.2985  224.7744 H   0  0  0  0  0  0  0  0  0  0  0  0
  134.9013   71.3458  223.6644 H   0  0  0  0  0  0  0  0  0  0  0  0
  135.2501   69.9483  226.1759 H   0  0  0  0  0  0  0  0  0  0  0  0
  133.7618   70.1964  225.1366 H   0  0  0  0  0  0  0  0  0  0  0  0
  134.3596   67.2076  223.3281 H   0  0  0  0  0  0  0  0  0  0  0  0
  133.3370   68.6676  223.3970 H   0  0  0  0  0  0  0  0  0  0  0  0
  135.8669   68.2361  222.0458 H   0  0  0  0  0  0  0  0  0  0  0  0
  134.7230   69.6706  222.0015 H   0  0  0  0  0  0  0  0  0  0  0  0
  138.6381   70.8038  222.2411 H   0  0  0  0  0  0  0  0  0  0  0  0
  141.8216   72.8772  220.2715 H   0  0  0  0  0  0  0  0  0  0  0  0
  141.8069   73.9422  218.8118 H   0  0  0  0  0  0  0  0  0  0  0  0
  143.9312   74.9186  220.2868 H   0  0  0  0  0  0  0  0  0  0  0  0
  143.8596   73.0511  221.8250 H   0  0  0  0  0  0  0  0  0  0  0  0
  143.9931   71.9009  220.4442 H   0  0  0  0  0  0  0  0  0  0  0  0
  146.0474   73.9491  221.3981 H   0  0  0  0  0  0  0  0  0  0  0  0
  146.2068   72.1543  221.3176 H   0  0  0  0  0  0  0  0  0  0  0  0
  146.5930   74.1270  219.2860 H   0  0  0  0  0  0  0  0  0  0  0  0
  145.7655   72.6916  217.5160 H   0  0  0  0  0  0  0  0  0  0  0  0
  144.8998   71.7575  218.7765 H   0  0  0  0  0  0  0  0  0  0  0  0
  144.5913   74.7232  218.1425 H   0  0  0  0  0  0  0  0  0  0  0  0
  143.3957   73.4168  217.8346 H   0  0  0  0  0  0  0  0  0  0  0  0
  1  2  2  0
  2  3  1  0
  3  4  2  0
  4  5  1  0
  5  6  2  0
  6  7  1  0
  7  8  2  0
  8  9  1  0
  9 10  2  0
 10 11  1  0
 11 12  2  0
 12 13  1  0
 13 14  2  0
 14 15  1  0
 15 16  2  0
 16 17  1  0
 17 18  1  0
 18 19  1  0
 19 20  1  0
 20 21  1  0
 21 22  1  0
 22 23  1  0
 23 24  1  0
 17 25  2  0
 10 26  1  0
 26 27  1  0
 27 28  1  0
 28 29  1  0
 29 30  1  0
 30 31  1  0
 31 32  1  0
 32 33  1  0
 26  2  1  0
 33 28  1  0
  8  3  1  0
 25 13  1  0
 24 19  1  0
  4 34  1  0
  5 35  1  0
  6 36  1  0
  7 37  1  0
 11 38  1  0
 12 39  1  0
 14 40  1  0
 15 41  1  0
 16 42  1  0
 18 43  1  0
 18 44  1  0
 20 45  1  0
 20 46  1  0
 21 47  1  0
 21 48  1  0
 23 49  1  0
 23 50  1  0
 24 51  1  0
 24 52  1  0
 25 53  1  0
 27 54  1  0
 27 55  1  0
 28 56  1  0
 29 57  1  0
 29 58  1  0
 30 59  1  0
 30 60  1  0
 31 61  1  0
 32 62  1  0
 32 63  1  0
 33 64  1  0
 33 65  1  0
M  END
>  <smiles>  (6) 
O=c1c2ccccc2nc(/C=C/c2cccc(CN3CCOCC3)c2)n1CC1CCNCC1

>  <score_type>  (6) 
oracle

>  <origin>  (6) 
autodockgpu

>  <m_score__min__energy>  (6) 
-9.6400000000000006

>  <m_primary>  (6) 
energy

>  <rmsd>  (6) 
7.719121746234269

>  <m_score__min__rmsd>  (6) 
7.719121746234269

>  <meeko>  (6) 
{"free_energy": -8.79, "intermolecular_energy": -10.88, "internal_energy": -1.41, "cluster_size": 2, "cluster_id": 4, "rank_in_cluster": 2}

>  <energy>  (6) 
-9.44

>  <cluster_rmsd>  (6) 
1.2

>  <cluster>  (6) 
1

$$$$

     RDKit          3D

 65 69  0  0  0  0  0  0  0  0999 V2000
  142.9710   76.8960  217.2880 O   0  0  0  0  0  0  0  0  0  0  0  0
  142.3720   77.3640  218.2960 C   0  0  0  0  0  0  0  0  0  0  0  0
  142.1600   78.7420  218.2700 C   0  0  0  0  0  0  0  0  0  0  0  0
  142.5770   79.5260  217.2160 C   0  0  0  0  0  0  0  0  0  0  0  0
  142.3520   80.8920  217.2190 C   0  0  0  0  0  0  0  0  0  0  0  0
  141.7020   81.4720  218.2900 C   0  0  0  0  0  0  0  0  0  0  0  0
  141.2800   80.6830  219.3560 C   0  0  0  0  0  0  0  0  0  0  0  0
  141.5160   79.3300  219.3280 C   0  0  0  0  0  0  0  0  0  0  0  0
  141.1260   78.5320  220.3330 N   0  0  0  0  0  0  0  0  0  0  0  0
  141.3340   77.2040  220.3500 C   0  0  0  0  0  0  0  0  0  0  0  0
  140.8460   76.4610  221.5260 C   0  0  0  0  0  0  0  0  0  0  0  0
  141.0350   76.9430  222.7370 C   0  0  0  0  0  0  0  0  0  0  0  0
  141.0840   78.3570  223.0640 C   0  0  0  0  0  0  0  0  0  0  0  0
  142.2360   79.0310  223.4050 C   0  0  0  0  0  0  0  0  0  0  0  0
  142.2400   80.3780  223.7060 C   0  0  0  0  0  0  0  0  0  0  0  0
  141.0800   81.1240  223.6820 C   0  0  0  0  0  0  0  0  0  0  0  0
  139.9230   80.4620  223.3430 C   0  0  0  0  0  0  0  0  0  0  0  0
  138.6680   81.2620  223.3110 C   0  0  0  0  0  0  0  0  0  0  0  0
  137.5730   80.6660  224.0070 N   0  0  0  0  0  0  0  0  0  0  0  0
  136.3070   80.9360  223.3530 C   0  0  0  0  0  0  0  0  0  0  0  0
  135.9630   82.3780  223.5450 C   0  0  0  0  0  0  0  0  0  0  0  0
  136.7870   83.0400  224.4190 O   0  0  0  0  0  0  0  0  0  0  0  0
  136.8890   82.3860  225.6470 C   0  0  0  0  0  0  0  0  0  0  0  0
  137.4470   81.0060  225.3890 C   0  0  0  0  0  0  0  0  0  0  0  0
  139.9180   79.1150  223.0420 C   0  0  0  0  0  0  0  0  0  0  0  0
  141.9620   76.5960  219.3290 N   0  0  0  0  0  0  0  0  0  0  0  0
  142.2050   75.1750  219.3330 C   0  0  0  0  0  0  0  0  0  0  0  0
  143.6960   74.8810  219.3150 C   0  0  0  0  0  0  0  0  0  0  0  0
  144.1220   74.0600  220.4950 C   0  0  0  0  0  0  0  0  0  0  0  0
  145.6290   73.8110  220.4480 C   0  0  0  0  0  0  0  0  0  0  0  0
  146.0290   73.3720  219.1280 N   0  0  0  0  0  0  0  0  0  0  0  0
  144.8810   72.9630  218.3450 C   0  0  0  0  0  0  0  0  0  0  0  0
  144.0500   74.1720  218.0370 C   0  0  0  0  0  0  0  0  0  0  0  0
  143.0940   79.0615  216.3634 H   0  0  0  0  0  0  0  0  0  0  0  0
  142.6887   81.5108  216.3741 H   0  0  0  0  0  0  0  0  0  0  0  0
  141.5178   82.5564  218.3008 H   0  0  0  0  0  0  0  0  0  0  0  0
  140.7623   81.1386  220.2130 H   0  0  0  0  0  0  0  0  0  0  0  0
  140.3232   75.5025  221.3919 H   0  0  0  0  0  0  0  0  0  0  0  0
  141.1649   76.2236  223.5589 H   0  0  0  0  0  0  0  0  0  0  0  0
  143.1854   78.4765  223.4386 H   0  0  0  0  0  0  0  0  0  0  0  0
  143.1889   80.8673  223.9708 H   0  0  0  0  0  0  0  0  0  0  0  0
  141.0802   82.1974  223.9226 H   0  0  0  0  0  0  0  0  0  0  0  0
  138.8728   82.2423  223.7660 H   0  0  0  0  0  0  0  0  0  0  0  0
  138.3679   81.3348  222.2553 H   0  0  0  0  0  0  0  0  0  0  0  0
  136.3917   80.7161  222.2785 H   0  0  0  0  0  0  0  0  0  0  0  0
  135.5195   80.3030  223.7878 H   0  0  0  0  0  0  0  0  0  0  0  0
  136.0216   82.8799  222.5679 H   0  0  0  0  0  0  0  0  0  0  0  0
  134.9525   82.4074  223.9786 H   0  0  0  0  0  0  0  0  0  0  0  0
  137.5632   82.9439  226.3134 H   0  0  0  0  0  0  0  0  0  0  0  0
  135.9030   82.3182  226.1298 H   0  0  0  0  0  0  0  0  0  0  0  0
  138.4443   80.9472  225.8495 H   0  0  0  0  0  0  0  0  0  0  0  0
  136.7301   80.2930  225.8222 H   0  0  0  0  0  0  0  0  0  0  0  0
  138.9675   78.6284  222.7780 H   0  0  0  0  0  0  0  0  0  0  0  0
  141.7621   74.7362  220.2392 H   0  0  0  0  0  0  0  0  0  0  0  0
  141.7491   74.7374  218.4327 H   0  0  0  0  0  0  0  0  0  0  0  0
  144.2319   75.8398  219.3742 H   0  0  0  0  0  0  0  0  0  0  0  0
  143.8712   74.5976  221.4213 H   0  0  0  0  0  0  0  0  0  0  0  0
  143.5974   73.0935  220.4681 H   0  0  0  0  0  0  0  0  0  0  0  0
  146.1579   74.7433  220.6952 H   0  0  0  0  0  0  0  0  0  0  0  0
  145.8830   73.0266  221.1761 H   0  0  0  0  0  0  0  0  0  0  0  0
  146.5260   74.1400  218.6240 H   0  0  0  0  0  0  0  0  0  0  0  0
  145.2198   72.4987  217.4071 H   0  0  0  0  0  0  0  0  0  0  0  0
  144.2834   72.2335  218.9113 H   0  0  0  0  0  0  0  0  0  0  0  0
  144.6203   74.8521  217.3871 H   0  0  0  0  0  0  0  0  0  0  0  0
  143.1276   73.8600  217.5253 H   0  0  0  0  0  0  0  0  0  0  0  0
  1  2  2  0
  2  3  1  0
  3  4  2  0
  4  5  1  0
  5  6  2  0
  6  7  1  0
  7  8  2  0
  8  9  1  0
  9 10  2  0
 10 11  1  0
 11 12  2  0
 12 13  1  0
 13 14  2  0
 14 15  1  0
 15 16  2  0
 16 17  1  0
 17 18  1  0
 18 19  1  0
 19 20  1  0
 20 21  1  0
 21 22  1  0
 22 23  1  0
 23 24  1  0
 17 25  2  0
 10 26  1  0
 26 27  1  0
 27 28  1  0
 28 29  1  0
 29 30  1  0
 30 31  1  0
 31 32  1  0
 32 33  1  0
 26  2  1  0
 33 28  1  0
  8  3  1  0
 25 13  1  0
 24 19  1  0
  4 34  1  0
  5 35  1  0
  6 36  1  0
  7 37  1  0
 11 38  1  0
 12 39  1  0
 14 40  1  0
 15 41  1  0
 16 42  1  0
 18 43  1  0
 18 44  1  0
 20 45  1  0
 20 46  1  0
 21 47  1  0
 21 48  1  0
 23 49  1  0
 23 50  1  0
 24 51  1  0
 24 52  1  0
 25 53  1  0
 27 54  1  0
 27 55  1  0
 28 56  1  0
 29 57  1  0
 29 58  1  0
 30 59  1  0
 30 60  1  0
 31 61  1  0
 32 62  1  0
 32 63  1  0
 33 64  1  0
 33 65  1  0
M  END
>  <smiles>  (7) 
O=c1c2ccccc2nc(/C=C/c2cccc(CN3CCOCC3)c2)n1CC1CCNCC1

>  <score_type>  (7) 
oracle

>  <origin>  (7) 
autodockgpu

>  <m_score__min__energy>  (7) 
-9.6400000000000006

>  <m_primary>  (7) 
energy

>  <rmsd>  (7) 
7.42259091090579

>  <m_score__min__rmsd>  (7) 
7.42259091090579

>  <meeko>  (7) 
{"free_energy": -8.24, "intermolecular_energy": -10.33, "internal_energy": -1.81, "cluster_size": 2, "cluster_id": 6, "rank_in_cluster": 1}

>  <energy>  (7) 
-9.35

>  <cluster_rmsd>  (7) 
0.94

>  <cluster>  (7) 
1

$$$$

     RDKit          3D

 65 69  0  0  0  0  0  0  0  0999 V2000
  142.8050   77.5910  219.2310 O   0  0  0  0  0  0  0  0  0  0  0  0
  142.0870   76.9800  220.0710 C   0  0  0  0  0  0  0  0  0  0  0  0
  141.5710   77.7740  221.0940 C   0  0  0  0  0  0  0  0  0  0  0  0
  141.8300   79.1250  221.1730 C   0  0  0  0  0  0  0  0  0  0  0  0
  141.3020   79.8870  222.2020 C   0  0  0  0  0  0  0  0  0  0  0  0
  140.5090   79.2840  223.1570 C   0  0  0  0  0  0  0  0  0  0  0  0
  140.2460   77.9200  223.0810 C   0  0  0  0  0  0  0  0  0  0  0  0
  140.7820   77.1870  222.0500 C   0  0  0  0  0  0  0  0  0  0  0  0
  140.5540   75.8700  221.9370 N   0  0  0  0  0  0  0  0  0  0  0  0
  141.0550   75.1120  220.9460 C   0  0  0  0  0  0  0  0  0  0  0  0
  140.7150   73.6780  220.9580 C   0  0  0  0  0  0  0  0  0  0  0  0
  141.0800   72.9200  221.9710 C   0  0  0  0  0  0  0  0  0  0  0  0
  140.1600   72.2050  222.8400 C   0  0  0  0  0  0  0  0  0  0  0  0
  138.8380   71.9680  222.5360 C   0  0  0  0  0  0  0  0  0  0  0  0
  137.9980   71.2810  223.3880 C   0  0  0  0  0  0  0  0  0  0  0  0
  138.4440   70.7930  224.6000 C   0  0  0  0  0  0  0  0  0  0  0  0
  139.7630   71.0250  224.9140 C   0  0  0  0  0  0  0  0  0  0  0  0
  140.2520   70.4980  226.2180 C   0  0  0  0  0  0  0  0  0  0  0  0
  139.3850   69.5420  226.8280 N   0  0  0  0  0  0  0  0  0  0  0  0
  139.6900   69.3570  228.2340 C   0  0  0  0  0  0  0  0  0  0  0  0
  140.9860   68.6220  228.3530 C   0  0  0  0  0  0  0  0  0  0  0  0
  141.4720   68.1420  227.1640 O   0  0  0  0  0  0  0  0  0  0  0  0
  140.5280   67.3770  226.4790 C   0  0  0  0  0  0  0  0  0  0  0  0
  139.3300   68.2560  226.2060 C   0  0  0  0  0  0  0  0  0  0  0  0
  140.6040   71.7110  224.0620 C   0  0  0  0  0  0  0  0  0  0  0  0
  141.8320   75.6570  219.9940 N   0  0  0  0  0  0  0  0  0  0  0  0
  142.3900   74.8580  218.9300 C   0  0  0  0  0  0  0  0  0  0  0  0
  143.8850   74.6680  219.1220 C   0  0  0  0  0  0  0  0  0  0  0  0
  144.2040   74.0000  220.4260 C   0  0  0  0  0  0  0  0  0  0  0  0
  145.7160   73.8520  220.5870 C   0  0  0  0  0  0  0  0  0  0  0  0
  146.3040   73.3120  219.3790 N   0  0  0  0  0  0  0  0  0  0  0  0
  145.2890   72.7500  218.5130 C   0  0  0  0  0  0  0  0  0  0  0  0
  144.4360   73.8610  217.9790 C   0  0  0  0  0  0  0  0  0  0  0  0
  142.4627   79.6034  220.4109 H   0  0  0  0  0  0  0  0  0  0  0  0
  141.5132   80.9651  222.2576 H   0  0  0  0  0  0  0  0  0  0  0  0
  140.0852   79.8814  223.9777 H   0  0  0  0  0  0  0  0  0  0  0  0
  139.6150   77.4331  223.8391 H   0  0  0  0  0  0  0  0  0  0  0  0
  140.1550   73.2399  220.1187 H   0  0  0  0  0  0  0  0  0  0  0  0
  142.1566   72.8209  222.1738 H   0  0  0  0  0  0  0  0  0  0  0  0
  138.4379   72.3392  221.5809 H   0  0  0  0  0  0  0  0  0  0  0  0
  136.9502   71.1185  223.0953 H   0  0  0  0  0  0  0  0  0  0  0  0
  137.7768   70.2451  225.2817 H   0  0  0  0  0  0  0  0  0  0  0  0
  141.2289   70.0204  226.0519 H   0  0  0  0  0  0  0  0  0  0  0  0
  140.3066   71.3562  226.9039 H   0  0  0  0  0  0  0  0  0  0  0  0
  139.7743   70.3372  228.7261 H   0  0  0  0  0  0  0  0  0  0  0  0
  138.8877   68.7807  228.7178 H   0  0  0  0  0  0  0  0  0  0  0  0
  141.7332   69.3074  228.7794 H   0  0  0  0  0  0  0  0  0  0  0  0
  140.7954   67.7474  228.9923 H   0  0  0  0  0  0  0  0  0  0  0  0
  140.9538   67.0196  225.5298 H   0  0  0  0  0  0  0  0  0  0  0  0
  140.2341   66.5029  227.0787 H   0  0  0  0  0  0  0  0  0  0  0  0
  139.2524   68.4032  225.1187 H   0  0  0  0  0  0  0  0  0  0  0  0
  138.4582   67.7386  226.6330 H   0  0  0  0  0  0  0  0  0  0  0  0
  141.6517   71.8712  224.3565 H   0  0  0  0  0  0  0  0  0  0  0  0
  141.8996   73.8734  218.9237 H   0  0  0  0  0  0  0  0  0  0  0  0
  142.2213   75.3771  217.9750 H   0  0  0  0  0  0  0  0  0  0  0  0
  144.3548   75.6624  219.1415 H   0  0  0  0  0  0  0  0  0  0  0  0
  143.8085   74.6088  221.2524 H   0  0  0  0  0  0  0  0  0  0  0  0
  143.7421   73.0018  220.4403 H   0  0  0  0  0  0  0  0  0  0  0  0
  146.1563   74.8385  220.7943 H   0  0  0  0  0  0  0  0  0  0  0  0
  145.9194   73.1634  221.4203 H   0  0  0  0  0  0  0  0  0  0  0  0
  146.8160   74.0590  218.8590 H   0  0  0  0  0  0  0  0  0  0  0  0
  145.7691   72.2191  217.6778 H   0  0  0  0  0  0  0  0  0  0  0  0
  144.6665   72.0419  219.0796 H   0  0  0  0  0  0  0  0  0  0  0  0
  145.0437   74.5105  217.3318 H   0  0  0  0  0  0  0  0  0  0  0  0
  143.6045   73.4360  217.3976 H   0  0  0  0  0  0  0  0  0  0  0  0
  1  2  2  0
  2  3  1  0
  3  4  2  0
  4  5  1  0
  5  6  2  0
  6  7  1  0
  7  8  2  0
  8  9  1  0
  9 10  2  0
 10 11  1  0
 11 12  2  0
 12 13  1  0
 13 14  2  0
 14 15  1  0
 15 16  2  0
 16 17  1  0
 17 18  1  0
 18 19  1  0
 19 20  1  0
 20 21  1  0
 21 22  1  0
 22 23  1  0
 23 24  1  0
 17 25  2  0
 10 26  1  0
 26 27  1  0
 27 28  1  0
 28 29  1  0
 29 30  1  0
 30 31  1  0
 31 32  1  0
 32 33  1  0
 26  2  1  0
 33 28  1  0
  8  3  1  0
 25 13  1  0
 24 19  1  0
  4 34  1  0
  5 35  1  0
  6 36  1  0
  7 37  1  0
 11 38  1  0
 12 39  1  0
 14 40  1  0
 15 41  1  0
 16 42  1  0
 18 43  1  0
 18 44  1  0
 20 45  1  0
 20 46  1  0
 21 47  1  0
 21 48  1  0
 23 49  1  0
 23 50  1  0
 24 51  1  0
 24 52  1  0
 25 53  1  0
 27 54  1  0
 27 55  1  0
 28 56  1  0
 29 57  1  0
 29 58  1  0
 30 59  1  0
 30 60  1  0
 31 61  1  0
 32 62  1  0
 32 63  1  0
 33 64  1  0
 33 65  1  0
M  END
>  <smiles>  (8) 
O=c1c2ccccc2nc(/C=C/c2cccc(CN3CCOCC3)c2)n1CC1CCNCC1

>  <score_type>  (8) 
oracle

>  <origin>  (8) 
autodockgpu

>  <m_score__min__energy>  (8) 
-9.6400000000000006

>  <m_primary>  (8) 
energy

>  <rmsd>  (8) 
7.570750450410523

>  <m_score__min__rmsd>  (8) 
7.570750450410523

>  <meeko>  (8) 
{"free_energy": -9.57, "intermolecular_energy": -11.66, "internal_energy": -1.55, "cluster_size": 18, "cluster_id": 1, "rank_in_cluster": 4}

>  <energy>  (8) 
-9.31

>  <cluster_rmsd>  (8) 
0.98

>  <cluster>  (8) 
1

$$$$

     RDKit          3D

 65 69  0  0  0  0  0  0  0  0999 V2000
  139.1850   67.7470  225.5580 O   0  0  0  0  0  0  0  0  0  0  0  0
  139.4700   68.9110  225.1620 C   0  0  0  0  0  0  0  0  0  0  0  0
  140.0550   69.7360  226.1220 C   0  0  0  0  0  0  0  0  0  0  0  0
  140.3010   69.3020  227.4060 C   0  0  0  0  0  0  0  0  0  0  0  0
  140.8840   70.1450  228.3380 C   0  0  0  0  0  0  0  0  0  0  0  0
  141.2210   71.4330  227.9730 C   0  0  0  0  0  0  0  0  0  0  0  0
  140.9740   71.8740  226.6770 C   0  0  0  0  0  0  0  0  0  0  0  0
  140.3950   71.0170  225.7720 C   0  0  0  0  0  0  0  0  0  0  0  0
  140.1400   71.4000  224.5120 N   0  0  0  0  0  0  0  0  0  0  0  0
  139.5760   70.5980  223.5920 C   0  0  0  0  0  0  0  0  0  0  0  0
  139.3590   71.1650  222.2490 C   0  0  0  0  0  0  0  0  0  0  0  0
  139.0500   72.4370  222.1090 C   0  0  0  0  0  0  0  0  0  0  0  0
  139.9900   73.4770  221.7280 C   0  0  0  0  0  0  0  0  0  0  0  0
  139.7720   74.8240  221.9210 C   0  0  0  0  0  0  0  0  0  0  0  0
  140.6920   75.7810  221.5470 C   0  0  0  0  0  0  0  0  0  0  0  0
  141.8890   75.4340  220.9540 C   0  0  0  0  0  0  0  0  0  0  0  0
  142.1190   74.0930  220.7550 C   0  0  0  0  0  0  0  0  0  0  0  0
  143.4100   73.7120  220.1200 C   0  0  0  0  0  0  0  0  0  0  0  0
  144.1320   72.6980  220.8190 N   0  0  0  0  0  0  0  0  0  0  0  0
  145.3980   73.1900  221.3280 C   0  0  0  0  0  0  0  0  0  0  0  0
  146.3290   73.4040  220.1780 C   0  0  0  0  0  0  0  0  0  0  0  0
  145.8620   72.9260  218.9810 O   0  0  0  0  0  0  0  0  0  0  0  0
  145.4730   71.5880  219.0620 C   0  0  0  0  0  0  0  0  0  0  0  0
  144.3760   71.4890  220.0970 C   0  0  0  0  0  0  0  0  0  0  0  0
  141.1980   73.1350  221.1300 C   0  0  0  0  0  0  0  0  0  0  0  0
  139.2310   69.3370  223.9030 N   0  0  0  0  0  0  0  0  0  0  0  0
  138.6140   68.4650  222.9330 C   0  0  0  0  0  0  0  0  0  0  0  0
  137.1000   68.5820  222.9870 C   0  0  0  0  0  0  0  0  0  0  0  0
  136.6370   69.3460  224.1900 C   0  0  0  0  0  0  0  0  0  0  0  0
  135.1110   69.4160  224.2160 C   0  0  0  0  0  0  0  0  0  0  0  0
  134.5990   69.8050  222.9190 N   0  0  0  0  0  0  0  0  0  0  0  0
  135.6530   70.3460  222.0860 C   0  0  0  0  0  0  0  0  0  0  0  0
  136.6050   69.2440  221.7310 C   0  0  0  0  0  0  0  0  0  0  0  0
  140.0317   68.2752  227.6944 H   0  0  0  0  0  0  0  0  0  0  0  0
  141.0770   69.7907  229.3613 H   0  0  0  0  0  0  0  0  0  0  0  0
  141.6843   72.1097  228.7061 H   0  0  0  0  0  0  0  0  0  0  0  0
  141.2396   72.8991  226.3793 H   0  0  0  0  0  0  0  0  0  0  0  0
  139.4555   70.5233  221.3608 H   0  0  0  0  0  0  0  0  0  0  0  0
  138.0068   72.7331  222.2935 H   0  0  0  0  0  0  0  0  0  0  0  0
  138.8310   75.1473  222.3899 H   0  0  0  0  0  0  0  0  0  0  0  0
  140.4671   76.8429  221.7250 H   0  0  0  0  0  0  0  0  0  0  0  0
  142.6248   76.1948  220.6545 H   0  0  0  0  0  0  0  0  0  0  0  0
  143.1996   73.3467  219.1040 H   0  0  0  0  0  0  0  0  0  0  0  0
  144.0428   74.6117  220.1284 H   0  0  0  0  0  0  0  0  0  0  0  0
  145.2392   74.1412  221.8571 H   0  0  0  0  0  0  0  0  0  0  0  0
  145.8295   72.4585  222.0271 H   0  0  0  0  0  0  0  0  0  0  0  0
  146.5049   74.4847  220.0730 H   0  0  0  0  0  0  0  0  0  0  0  0
  147.2474   72.8431  220.4059 H   0  0  0  0  0  0  0  0  0  0  0  0
  145.0984   71.2472  218.0855 H   0  0  0  0  0  0  0  0  0  0  0  0
  146.3272   70.9554  219.3450 H   0  0  0  0  0  0  0  0  0  0  0  0
  143.4459   71.2006  219.5854 H   0  0  0  0  0  0  0  0  0  0  0  0
  144.7089   70.7450  220.8357 H   0  0  0  0  0  0  0  0  0  0  0  0
  141.4257   72.0738  220.9511 H   0  0  0  0  0  0  0  0  0  0  0  0
  138.9613   68.7421  221.9267 H   0  0  0  0  0  0  0  0  0  0  0  0
  138.8955   67.4269  223.1633 H   0  0  0  0  0  0  0  0  0  0  0  0
  136.6836   67.5669  223.0661 H   0  0  0  0  0  0  0  0  0  0  0  0
  136.9930   68.8411  225.1001 H   0  0  0  0  0  0  0  0  0  0  0  0
  137.0422   70.3676  224.1440 H   0  0  0  0  0  0  0  0  0  0  0  0
  134.7078   68.4279  224.4828 H   0  0  0  0  0  0  0  0  0  0  0  0
  134.8019   70.1652  224.9597 H   0  0  0  0  0  0  0  0  0  0  0  0
  134.1730   68.9840  222.4340 H   0  0  0  0  0  0  0  0  0  0  0  0
  135.2182   70.7683  221.1681 H   0  0  0  0  0  0  0  0  0  0  0  0
  136.1872   71.1395  222.6292 H   0  0  0  0  0  0  0  0  0  0  0  0
  136.0887   68.5016  221.1048 H   0  0  0  0  0  0  0  0  0  0  0  0
  137.4585   69.6624  221.1774 H   0  0  0  0  0  0  0  0  0  0  0  0
  1  2  2  0
  2  3  1  0
  3  4  2  0
  4  5  1  0
  5  6  2  0
  6  7  1  0
  7  8  2  0
  8  9  1  0
  9 10  2  0
 10 11  1  0
 11 12  2  0
 12 13  1  0
 13 14  2  0
 14 15  1  0
 15 16  2  0
 16 17  1  0
 17 18  1  0
 18 19  1  0
 19 20  1  0
 20 21  1  0
 21 22  1  0
 22 23  1  0
 23 24  1  0
 17 25  2  0
 10 26  1  0
 26 27  1  0
 27 28  1  0
 28 29  1  0
 29 30  1  0
 30 31  1  0
 31 32  1  0
 32 33  1  0
 26  2  1  0
 33 28  1  0
  8  3  1  0
 25 13  1  0
 24 19  1  0
  4 34  1  0
  5 35  1  0
  6 36  1  0
  7 37  1  0
 11 38  1  0
 12 39  1  0
 14 40  1  0
 15 41  1  0
 16 42  1  0
 18 43  1  0
 18 44  1  0
 20 45  1  0
 20 46  1  0
 21 47  1  0
 21 48  1  0
 23 49  1  0
 23 50  1  0
 24 51  1  0
 24 52  1  0
 25 53  1  0
 27 54  1  0
 27 55  1  0
 28 56  1  0
 29 57  1  0
 29 58  1  0
 30 59  1  0
 30 60  1  0
 31 61  1  0
 32 62  1  0
 32 63  1  0
 33 64  1  0
 33 65  1  0
M  END
>  <smiles>  (9) 
O=c1c2ccccc2nc(/C=C/c2cccc(CN3CCOCC3)c2)n1CC1CCNCC1

>  <score_type>  (9) 
oracle

>  <origin>  (9) 
autodockgpu

>  <m_score__min__energy>  (9) 
-9.6400000000000006

>  <m_primary>  (9) 
energy

>  <rmsd>  (9) 
12.180636483650762

>  <m_score__min__rmsd>  (9) 
12.180636483650762

>  <meeko>  (9) 
{"free_energy": -8.87, "intermolecular_energy": -10.96, "internal_energy": -1.77, "cluster_size": 5, "cluster_id": 2, "rank_in_cluster": 2}

>  <energy>  (9) 
-9.3

>  <cluster_rmsd>  (9) 
1.06

>  <cluster>  (9) 
1

$$$$

     RDKit          3D

 65 69  0  0  0  0  0  0  0  0999 V2000
  138.4000   80.2880  223.4650 O   0  0  0  0  0  0  0  0  0  0  0  0
  139.2920   79.4360  223.2000 C   0  0  0  0  0  0  0  0  0  0  0  0
  140.6030   79.8920  223.3370 C   0  0  0  0  0  0  0  0  0  0  0  0
  140.8910   81.1780  223.7360 C   0  0  0  0  0  0  0  0  0  0  0  0
  142.2040   81.6020  223.8630 C   0  0  0  0  0  0  0  0  0  0  0  0
  143.2320   80.7230  223.5880 C   0  0  0  0  0  0  0  0  0  0  0  0
  142.9440   79.4220  223.1850 C   0  0  0  0  0  0  0  0  0  0  0  0
  141.6330   79.0280  223.0670 C   0  0  0  0  0  0  0  0  0  0  0  0
  141.3100   77.7840  222.6820 N   0  0  0  0  0  0  0  0  0  0  0  0
  140.0440   77.3530  222.5530 C   0  0  0  0  0  0  0  0  0  0  0  0
  139.8490   75.9570  222.1210 C   0  0  0  0  0  0  0  0  0  0  0  0
  140.8400   75.2940  221.5610 C   0  0  0  0  0  0  0  0  0  0  0  0
  141.7020   75.8230  220.5190 C   0  0  0  0  0  0  0  0  0  0  0  0
  142.8830   75.2360  220.1220 C   0  0  0  0  0  0  0  0  0  0  0  0
  143.6720   75.7700  219.1240 C   0  0  0  0  0  0  0  0  0  0  0  0
  143.3150   76.9300  218.4670 C   0  0  0  0  0  0  0  0  0  0  0  0
  142.1380   77.5250  218.8550 C   0  0  0  0  0  0  0  0  0  0  0  0
  141.7440   78.7750  218.1480 C   0  0  0  0  0  0  0  0  0  0  0  0
  142.4010   79.9500  218.6230 N   0  0  0  0  0  0  0  0  0  0  0  0
  142.0080   80.2760  219.9800 C   0  0  0  0  0  0  0  0  0  0  0  0
  140.5980   80.7720  219.9680 C   0  0  0  0  0  0  0  0  0  0  0  0
  140.0860   80.9790  218.7130 O   0  0  0  0  0  0  0  0  0  0  0  0
  140.9070   81.7980  217.9370 C   0  0  0  0  0  0  0  0  0  0  0  0
  142.2520   81.1210  217.8180 C   0  0  0  0  0  0  0  0  0  0  0  0
  141.3470   76.9920  219.8530 C   0  0  0  0  0  0  0  0  0  0  0  0
  139.0110   78.1740  222.8100 N   0  0  0  0  0  0  0  0  0  0  0  0
  137.6450   77.7340  222.6660 C   0  0  0  0  0  0  0  0  0  0  0  0
  137.1880   77.8550  221.2210 C   0  0  0  0  0  0  0  0  0  0  0  0
  138.1160   78.7030  220.4060 C   0  0  0  0  0  0  0  0  0  0  0  0
  137.6040   78.8170  218.9710 C   0  0  0  0  0  0  0  0  0  0  0  0
  137.2400   77.5130  218.4580 N   0  0  0  0  0  0  0  0  0  0  0  0
  137.7760   76.4580  219.2920 C   0  0  0  0  0  0  0  0  0  0  0  0
  137.0760   76.4820  220.6170 C   0  0  0  0  0  0  0  0  0  0  0  0
  140.0700   81.8762  223.9562 H   0  0  0  0  0  0  0  0  0  0  0  0
  142.4255   82.6316  224.1807 H   0  0  0  0  0  0  0  0  0  0  0  0
  144.2776   81.0501  223.6871 H   0  0  0  0  0  0  0  0  0  0  0  0
  143.7581   78.7163  222.9632 H   0  0  0  0  0  0  0  0  0  0  0  0
  138.8744   75.4682  222.2665 H   0  0  0  0  0  0  0  0  0  0  0  0
  141.0279   74.2669  221.9072 H   0  0  0  0  0  0  0  0  0  0  0  0
  143.2084   74.3095  220.6177 H   0  0  0  0  0  0  0  0  0  0  0  0
  144.6061   75.2600  218.8459 H   0  0  0  0  0  0  0  0  0  0  0  0
  143.9422   77.3580  217.6711 H   0  0  0  0  0  0  0  0  0  0  0  0
  141.9800   78.6560  217.0802 H   0  0  0  0  0  0  0  0  0  0  0  0
  140.6694   78.9174  218.3347 H   0  0  0  0  0  0  0  0  0  0  0  0
  142.0784   79.3778  220.6110 H   0  0  0  0  0  0  0  0  0  0  0  0
  142.6735   81.0525  220.3852 H   0  0  0  0  0  0  0  0  0  0  0  0
  139.9671   80.0306  220.4801 H   0  0  0  0  0  0  0  0  0  0  0  0
  140.6022   81.7492  220.4730 H   0  0  0  0  0  0  0  0  0  0  0  0
  140.4657   81.9322  216.9384 H   0  0  0  0  0  0  0  0  0  0  0  0
  141.0145   82.7882  218.4038 H   0  0  0  0  0  0  0  0  0  0  0  0
  142.4008   80.8356  216.7661 H   0  0  0  0  0  0  0  0  0  0  0  0
  142.9984   81.8443  218.1781 H   0  0  0  0  0  0  0  0  0  0  0  0
  140.4132   77.5040  220.1285 H   0  0  0  0  0  0  0  0  0  0  0  0
  137.5696   76.6828  222.9812 H   0  0  0  0  0  0  0  0  0  0  0  0
  137.0022   78.3690  223.2933 H   0  0  0  0  0  0  0  0  0  0  0  0
  136.2058   78.3503  221.2153 H   0  0  0  0  0  0  0  0  0  0  0  0
  138.1759   79.7071  220.8512 H   0  0  0  0  0  0  0  0  0  0  0  0
  139.1122   78.2366  220.3955 H   0  0  0  0  0  0  0  0  0  0  0  0
  136.7210   79.4727  218.9526 H   0  0  0  0  0  0  0  0  0  0  0  0
  138.4015   79.2376  218.3408 H   0  0  0  0  0  0  0  0  0  0  0  0
  136.2010   77.4150  218.4170 H   0  0  0  0  0  0  0  0  0  0  0  0
  137.6130   75.4847  218.8061 H   0  0  0  0  0  0  0  0  0  0  0  0
  138.8554   76.6114  219.4385 H   0  0  0  0  0  0  0  0  0  0  0  0
  136.0148   76.2297  220.4752 H   0  0  0  0  0  0  0  0  0  0  0  0
  137.5419   75.7473  221.2901 H   0  0  0  0  0  0  0  0  0  0  0  0
  1  2  2  0
  2  3  1  0
  3  4  2  0
  4  5  1  0
  5  6  2  0
  6  7  1  0
  7  8  2  0
  8  9  1  0
  9 10  2  0
 10 11  1  0
 11 12  2  0
 12 13  1  0
 13 14  2  0
 14 15  1  0
 15 16  2  0
 16 17  1  0
 17 18  1  0
 18 19  1  0
 19 20  1  0
 20 21  1  0
 21 22  1  0
 22 23  1  0
 23 24  1  0
 17 25  2  0
 10 26  1  0
 26 27  1  0
 27 28  1  0
 28 29  1  0
 29 30  1  0
 30 31  1  0
 31 32  1  0
 32 33  1  0
 26  2  1  0
 33 28  1  0
  8  3  1  0
 25 13  1  0
 24 19  1  0
  4 34  1  0
  5 35  1  0
  6 36  1  0
  7 37  1  0
 11 38  1  0
 12 39  1  0
 14 40  1  0
 15 41  1  0
 16 42  1  0
 18 43  1  0
 18 44  1  0
 20 45  1  0
 20 46  1  0
 21 47  1  0
 21 48  1  0
 23 49  1  0
 23 50  1  0
 24 51  1  0
 24 52  1  0
 25 53  1  0
 27 54  1  0
 27 55  1  0
 28 56  1  0
 29 57  1  0
 29 58  1  0
 30 59  1  0
 30 60  1  0
 31 61  1  0
 32 62  1  0
 32 63  1  0
 33 64  1  0
 33 65  1  0
M  END
>  <smiles>  (10) 
O=c1c2ccccc2nc(/C=C/c2cccc(CN3CCOCC3)c2)n1CC1CCNCC1

>  <score_type>  (10) 
oracle

>  <origin>  (10) 
autodockgpu

>  <m_score__min__energy>  (10) 
-9.6400000000000006

>  <m_primary>  (10) 
energy

>  <rmsd>  (10) 
6.147285870377381

>  <m_score__min__rmsd>  (10) 
6.147285870377381

>  <meeko>  (10) 
{"free_energy": -6.03, "intermolecular_energy": -8.12, "internal_energy": -3.42, "cluster_size": 2, "cluster_id": 11, "rank_in_cluster": 2}

>  <energy>  (10) 
-9.29

>  <cluster_rmsd>  (10) 
1.01

>  <cluster>  (10) 
1

$$$$

     RDKit          3D

 65 69  0  0  0  0  0  0  0  0999 V2000
  139.1500   67.7170  224.8170 O   0  0  0  0  0  0  0  0  0  0  0  0
  139.4120   68.9490  224.7340 C   0  0  0  0  0  0  0  0  0  0  0  0
  139.9540   69.5160  225.8870 C   0  0  0  0  0  0  0  0  0  0  0  0
  140.1830   68.7780  227.0270 C   0  0  0  0  0  0  0  0  0  0  0  0
  140.7220   69.3700  228.1570 C   0  0  0  0  0  0  0  0  0  0  0  0
  141.0340   70.7150  228.1370 C   0  0  0  0  0  0  0  0  0  0  0  0
  140.8030   71.4630  226.9860 C   0  0  0  0  0  0  0  0  0  0  0  0
  140.2670   70.8510  225.8790 C   0  0  0  0  0  0  0  0  0  0  0  0
  140.0290   71.5340  224.7500 N   0  0  0  0  0  0  0  0  0  0  0  0
  139.5080   70.9780  223.6430 C   0  0  0  0  0  0  0  0  0  0  0  0
  139.3050   71.8610  222.4790 C   0  0  0  0  0  0  0  0  0  0  0  0
  140.0510   72.9350  222.3260 C   0  0  0  0  0  0  0  0  0  0  0  0
  141.2450   73.0000  221.5010 C   0  0  0  0  0  0  0  0  0  0  0  0
  141.6750   74.1370  220.8540 C   0  0  0  0  0  0  0  0  0  0  0  0
  142.8190   74.1580  220.0820 C   0  0  0  0  0  0  0  0  0  0  0  0
  143.5960   73.0290  219.9180 C   0  0  0  0  0  0  0  0  0  0  0  0
  143.1770   71.8870  220.5590 C   0  0  0  0  0  0  0  0  0  0  0  0
  144.0130   70.6680  220.3900 C   0  0  0  0  0  0  0  0  0  0  0  0
  143.5830   69.8010  219.3400 N   0  0  0  0  0  0  0  0  0  0  0  0
  143.6420   68.4060  219.7330 C   0  0  0  0  0  0  0  0  0  0  0  0
  145.0760   67.9910  219.8210 C   0  0  0  0  0  0  0  0  0  0  0  0
  145.9610   68.9240  219.3440 O   0  0  0  0  0  0  0  0  0  0  0  0
  145.6420   69.3420  218.0510 C   0  0  0  0  0  0  0  0  0  0  0  0
  144.2580   69.9460  218.0900 C   0  0  0  0  0  0  0  0  0  0  0  0
  142.0330   71.8660  221.3320 C   0  0  0  0  0  0  0  0  0  0  0  0
  139.1900   69.6730  223.6160 N   0  0  0  0  0  0  0  0  0  0  0  0
  138.6180   69.0610  222.4420 C   0  0  0  0  0  0  0  0  0  0  0  0
  139.6830   68.8140  221.3870 C   0  0  0  0  0  0  0  0  0  0  0  0
  139.6230   67.4180  220.8430 C   0  0  0  0  0  0  0  0  0  0  0  0
  140.7250   67.2080  219.8070 C   0  0  0  0  0  0  0  0  0  0  0  0
  140.7540   68.3080  218.8670 N   0  0  0  0  0  0  0  0  0  0  0  0
  139.5430   69.0980  218.9540 C   0  0  0  0  0  0  0  0  0  0  0  0
  139.5220   69.8100  220.2730 C   0  0  0  0  0  0  0  0  0  0  0  0
  139.9350   67.7064  227.0401 H   0  0  0  0  0  0  0  0  0  0  0  0
  140.9003   68.7733  229.0637 H   0  0  0  0  0  0  0  0  0  0  0  0
  141.4642   71.1943  229.0287 H   0  0  0  0  0  0  0  0  0  0  0  0
  141.0476   72.5352  226.9630 H   0  0  0  0  0  0  0  0  0  0  0  0
  138.5287   71.6217  221.7373 H   0  0  0  0  0  0  0  0  0  0  0  0
  139.7488   73.8476  222.8606 H   0  0  0  0  0  0  0  0  0  0  0  0
  141.0863   75.0606  220.9560 H   0  0  0  0  0  0  0  0  0  0  0  0
  143.1177   75.0939  219.5872 H   0  0  0  0  0  0  0  0  0  0  0  0
  144.5080   73.0423  219.3031 H   0  0  0  0  0  0  0  0  0  0  0  0
  145.0442   70.9847  220.1746 H   0  0  0  0  0  0  0  0  0  0  0  0
  143.9279   70.0957  221.3255 H   0  0  0  0  0  0  0  0  0  0  0  0
  143.1589   68.2771  220.7128 H   0  0  0  0  0  0  0  0  0  0  0  0
  143.1180   67.7858  218.9908 H   0  0  0  0  0  0  0  0  0  0  0  0
  145.3149   67.7970  220.8771 H   0  0  0  0  0  0  0  0  0  0  0  0
  145.1863   67.0979  219.1884 H   0  0  0  0  0  0  0  0  0  0  0  0
  146.3691   70.0940  217.7106 H   0  0  0  0  0  0  0  0  0  0  0  0
  145.6709   68.4916  217.3538 H   0  0  0  0  0  0  0  0  0  0  0  0
  144.3457   71.0201  217.8696 H   0  0  0  0  0  0  0  0  0  0  0  0
  143.6582   69.4014  217.3459 H   0  0  0  0  0  0  0  0  0  0  0  0
  141.7373   70.9290  221.8266 H   0  0  0  0  0  0  0  0  0  0  0  0
  138.1597   68.1013  222.7229 H   0  0  0  0  0  0  0  0  0  0  0  0
  137.8603   69.7405  222.0247 H   0  0  0  0  0  0  0  0  0  0  0  0
  140.6673   68.9367  221.8624 H   0  0  0  0  0  0  0  0  0  0  0  0
  139.7570   66.7011  221.6664 H   0  0  0  0  0  0  0  0  0  0  0  0
  138.6453   67.2612  220.3639 H   0  0  0  0  0  0  0  0  0  0  0  0
  141.6962   67.1443  220.3196 H   0  0  0  0  0  0  0  0  0  0  0  0
  140.5239   66.2763  219.2579 H   0  0  0  0  0  0  0  0  0  0  0  0
  141.5740   68.9260  219.0540 H   0  0  0  0  0  0  0  0  0  0  0  0
  139.5226   69.8339  218.1367 H   0  0  0  0  0  0  0  0  0  0  0  0
  138.6635   68.4427  218.8699 H   0  0  0  0  0  0  0  0  0  0  0  0
  140.3470   70.5367  220.3098 H   0  0  0  0  0  0  0  0  0  0  0  0
  138.5626   70.3354  220.3889 H   0  0  0  0  0  0  0  0  0  0  0  0
  1  2  2  0
  2  3  1  0
  3  4  2  0
  4  5  1  0
  5  6  2  0
  6  7  1  0
  7  8  2  0
  8  9  1  0
  9 10  2  0
 10 11  1  0
 11 12  2  0
 12 13  1  0
 13 14  2  0
 14 15  1  0
 15 16  2  0
 16 17  1  0
 17 18  1  0
 18 19  1  0
 19 20  1  0
 20 21  1  0
 21 22  1  0
 22 23  1  0
 23 24  1  0
 17 25  2  0
 10 26  1  0
 26 27  1  0
 27 28  1  0
 28 29  1  0
 29 30  1  0
 30 31  1  0
 31 32  1  0
 32 33  1  0
 26  2  1  0
 33 28  1  0
  8  3  1  0
 25 13  1  0
 24 19  1  0
  4 34  1  0
  5 35  1  0
  6 36  1  0
  7 37  1  0
 11 38  1  0
 12 39  1  0
 14 40  1  0
 15 41  1  0
 16 42  1  0
 18 43  1  0
 18 44  1  0
 20 45  1  0
 20 46  1  0
 21 47  1  0
 21 48  1  0
 23 49  1  0
 23 50  1  0
 24 51  1  0
 24 52  1  0
 25 53  1  0
 27 54  1  0
 27 55  1  0
 28 56  1  0
 29 57  1  0
 29 58  1  0
 30 59  1  0
 30 60  1  0
 31 61  1  0
 32 62  1  0
 32 63  1  0
 33 64  1  0
 33 65  1  0
M  END
>  <smiles>  (11) 
O=c1c2ccccc2nc(/C=C/c2cccc(CN3CCOCC3)c2)n1CC1CCNCC1

>  <score_type>  (11) 
oracle

>  <origin>  (11) 
autodockgpu

>  <m_score__min__energy>  (11) 
-9.6400000000000006

>  <m_primary>  (11) 
energy

>  <rmsd>  (11) 
12.34703137385489

>  <m_score__min__rmsd>  (11) 
12.34703137385489

>  <meeko>  (11) 
{"free_energy": -7.47, "intermolecular_energy": -9.56, "internal_energy": -2.87, "cluster_size": 4, "cluster_id": 9, "rank_in_cluster": 1}

>  <energy>  (11) 
-9.12

>  <cluster_rmsd>  (11) 
1.17

>  <cluster>  (11) 
1

$$$$

     RDKit          3D

 65 69  0  0  0  0  0  0  0  0999 V2000
  139.1930   67.7320  225.2100 O   0  0  0  0  0  0  0  0  0  0  0  0
  139.5630   68.9160  224.9770 C   0  0  0  0  0  0  0  0  0  0  0  0
  140.0990   69.5930  226.0730 C   0  0  0  0  0  0  0  0  0  0  0  0
  140.2120   69.0030  227.3130 C   0  0  0  0  0  0  0  0  0  0  0  0
  140.7480   69.7020  228.3810 C   0  0  0  0  0  0  0  0  0  0  0  0
  141.1740   71.0020  228.1990 C   0  0  0  0  0  0  0  0  0  0  0  0
  141.0600   71.6010  226.9480 C   0  0  0  0  0  0  0  0  0  0  0  0
  140.5250   70.8850  225.9040 C   0  0  0  0  0  0  0  0  0  0  0  0
  140.3970   71.4220  224.6820 N   0  0  0  0  0  0  0  0  0  0  0  0
  139.8800   70.7620  223.6320 C   0  0  0  0  0  0  0  0  0  0  0  0
  139.8070   71.4880  222.3510 C   0  0  0  0  0  0  0  0  0  0  0  0
  139.4900   72.7660  222.3320 C   0  0  0  0  0  0  0  0  0  0  0  0
  140.2460   73.7940  221.6380 C   0  0  0  0  0  0  0  0  0  0  0  0
  139.7510   75.0410  221.3300 C   0  0  0  0  0  0  0  0  0  0  0  0
  140.5040   75.9920  220.6720 C   0  0  0  0  0  0  0  0  0  0  0  0
  141.8040   75.7370  220.2850 C   0  0  0  0  0  0  0  0  0  0  0  0
  142.3100   74.4950  220.5860 C   0  0  0  0  0  0  0  0  0  0  0  0
  143.7130   74.2150  220.1750 C   0  0  0  0  0  0  0  0  0  0  0  0
  144.3190   73.1190  220.8620 N   0  0  0  0  0  0  0  0  0  0  0  0
  145.6790   73.4220  221.2660 C   0  0  0  0  0  0  0  0  0  0  0  0
  146.5460   73.4580  220.0490 C   0  0  0  0  0  0  0  0  0  0  0  0
  145.9270   73.0260  218.9040 O   0  0  0  0  0  0  0  0  0  0  0  0
  145.3430   71.7680  219.0610 C   0  0  0  0  0  0  0  0  0  0  0  0
  144.3220   71.8690  220.1700 C   0  0  0  0  0  0  0  0  0  0  0  0
  141.5570   73.5430  221.2450 C   0  0  0  0  0  0  0  0  0  0  0  0
  139.4540   69.4940  223.7620 N   0  0  0  0  0  0  0  0  0  0  0  0
  138.8850   68.7730  222.6500 C   0  0  0  0  0  0  0  0  0  0  0  0
  137.3850   69.0000  222.5680 C   0  0  0  0  0  0  0  0  0  0  0  0
  136.8330   69.5780  223.8360 C   0  0  0  0  0  0  0  0  0  0  0  0
  135.3210   69.7660  223.7160 C   0  0  0  0  0  0  0  0  0  0  0  0
  134.9890   70.4160  222.4660 N   0  0  0  0  0  0  0  0  0  0  0  0
  136.1640   71.0070  221.8590 C   0  0  0  0  0  0  0  0  0  0  0  0
  137.0810   69.9100  221.4100 C   0  0  0  0  0  0  0  0  0  0  0  0
  139.8730   67.9663  227.4558 H   0  0  0  0  0  0  0  0  0  0  0  0
  140.8338   69.2244  229.3682 H   0  0  0  0  0  0  0  0  0  0  0  0
  141.6031   71.5640  229.0416 H   0  0  0  0  0  0  0  0  0  0  0  0
  141.3949   72.6377  226.7962 H   0  0  0  0  0  0  0  0  0  0  0  0
  140.0178   70.9609  221.4088 H   0  0  0  0  0  0  0  0  0  0  0  0
  138.5888   73.0771  222.8806 H   0  0  0  0  0  0  0  0  0  0  0  0
  138.7187   75.2882  221.6186 H   0  0  0  0  0  0  0  0  0  0  0  0
  140.0589   76.9735  220.4514 H   0  0  0  0  0  0  0  0  0  0  0  0
  142.4071   76.4925  219.7601 H   0  0  0  0  0  0  0  0  0  0  0  0
  143.7185   73.9919  219.0979 H   0  0  0  0  0  0  0  0  0  0  0  0
  144.3003   75.1097  220.4292 H   0  0  0  0  0  0  0  0  0  0  0  0
  145.7062   74.4002  221.7685 H   0  0  0  0  0  0  0  0  0  0  0  0
  146.0429   72.6514  221.9616 H   0  0  0  0  0  0  0  0  0  0  0  0
  146.8768   74.4952  219.8918 H   0  0  0  0  0  0  0  0  0  0  0  0
  147.3816   72.7675  220.2360 H   0  0  0  0  0  0  0  0  0  0  0  0
  144.8506   71.4644  218.1254 H   0  0  0  0  0  0  0  0  0  0  0  0
  146.1077   71.0173  219.3094 H   0  0  0  0  0  0  0  0  0  0  0  0
  143.3242   71.7161  219.7330 H   0  0  0  0  0  0  0  0  0  0  0  0
  144.5896   71.1020  220.9117 H   0  0  0  0  0  0  0  0  0  0  0  0
  142.0046   72.5625  221.4645 H   0  0  0  0  0  0  0  0  0  0  0  0
  139.3535   69.1208  221.7175 H   0  0  0  0  0  0  0  0  0  0  0  0
  139.0707   67.6986  222.7954 H   0  0  0  0  0  0  0  0  0  0  0  0
  136.9012   68.0237  222.4172 H   0  0  0  0  0  0  0  0  0  0  0  0
  137.0491   68.8951  224.6709 H   0  0  0  0  0  0  0  0  0  0  0  0
  137.3028   70.5556  224.0192 H   0  0  0  0  0  0  0  0  0  0  0  0
  134.8297   68.7826  223.7544 H   0  0  0  0  0  0  0  0  0  0  0  0
  134.9735   70.3960  224.5481 H   0  0  0  0  0  0  0  0  0  0  0  0
  134.5730   69.7300  221.7980 H   0  0  0  0  0  0  0  0  0  0  0  0
  135.8656   71.6166  220.9933 H   0  0  0  0  0  0  0  0  0  0  0  0
  136.6789   71.6482  222.5896 H   0  0  0  0  0  0  0  0  0  0  0  0
  136.5964   69.3330  220.6086 H   0  0  0  0  0  0  0  0  0  0  0  0
  138.0175   70.3480  221.0343 H   0  0  0  0  0  0  0  0  0  0  0  0
  1  2  2  0
  2  3  1  0
  3  4  2  0
  4  5  1  0
  5  6  2  0
  6  7  1  0
  7  8  2  0
  8  9  1  0
  9 10  2  0
 10 11  1  0
 11 12  2  0
 12 13  1  0
 13 14  2  0
 14 15  1  0
 15 16  2  0
 16 17  1  0
 17 18  1  0
 18 19  1  0
 19 20  1  0
 20 21  1  0
 21 22  1  0
 22 23  1  0
 23 24  1  0
 17 25  2  0
 10 26  1  0
 26 27  1  0
 27 28  1  0
 28 29  1  0
 29 30  1  0
 30 31  1  0
 31 32  1  0
 32 33  1  0
 26  2  1  0
 33 28  1  0
  8  3  1  0
 25 13  1  0
 24 19  1  0
  4 34  1  0
  5 35  1  0
  6 36  1  0
  7 37  1  0
 11 38  1  0
 12 39  1  0
 14 40  1  0
 15 41  1  0
 16 42  1  0
 18 43  1  0
 18 44  1  0
 20 45  1  0
 20 46  1  0
 21 47  1  0
 21 48  1  0
 23 49  1  0
 23 50  1  0
 24 51  1  0
 24 52  1  0
 25 53  1  0
 27 54  1  0
 27 55  1  0
 28 56  1  0
 29 57  1  0
 29 58  1  0
 30 59  1  0
 30 60  1  0
 31 61  1  0
 32 62  1  0
 32 63  1  0
 33 64  1  0
 33 65  1  0
M  END
>  <smiles>  (12) 
O=c1c2ccccc2nc(/C=C/c2cccc(CN3CCOCC3)c2)n1CC1CCNCC1

>  <score_type>  (12) 
oracle

>  <origin>  (12) 
autodockgpu

>  <m_score__min__energy>  (12) 
-9.6400000000000006

>  <m_primary>  (12) 
energy

>  <rmsd>  (12) 
11.955596431391912

>  <m_score__min__rmsd>  (12) 
11.955596431391912

>  <meeko>  (12) 
{"free_energy": -8.75, "intermolecular_energy": -10.84, "internal_energy": -1.72, "cluster_size": 5, "cluster_id": 2, "rank_in_cluster": 4}

>  <energy>  (12) 
-8.95

>  <cluster_rmsd>  (12) 
0.92

>  <cluster>  (12) 
1

$$$$

     RDKit          3D

 65 69  0  0  0  0  0  0  0  0999 V2000
  138.9890   68.2940  225.0040 O   0  0  0  0  0  0  0  0  0  0  0  0
  139.5040   69.4350  224.8420 C   0  0  0  0  0  0  0  0  0  0  0  0
  140.0230   70.0180  225.9980 C   0  0  0  0  0  0  0  0  0  0  0  0
  139.9730   69.3860  227.2210 C   0  0  0  0  0  0  0  0  0  0  0  0
  140.4970   69.9910  228.3510 C   0  0  0  0  0  0  0  0  0  0  0  0
  141.0760   71.2410  228.2480 C   0  0  0  0  0  0  0  0  0  0  0  0
  141.1270   71.8810  227.0130 C   0  0  0  0  0  0  0  0  0  0  0  0
  140.6000   71.2590  225.9080 C   0  0  0  0  0  0  0  0  0  0  0  0
  140.6290   71.8390  224.6990 N   0  0  0  0  0  0  0  0  0  0  0  0
  140.1270   71.2690  223.5900 C   0  0  0  0  0  0  0  0  0  0  0  0
  140.2340   72.0320  222.3330 C   0  0  0  0  0  0  0  0  0  0  0  0
  139.7550   73.2570  222.2600 C   0  0  0  0  0  0  0  0  0  0  0  0
  140.4630   74.3880  221.6870 C   0  0  0  0  0  0  0  0  0  0  0  0
  141.5410   74.2730  220.8370 C   0  0  0  0  0  0  0  0  0  0  0  0
  142.1850   75.3730  220.3100 C   0  0  0  0  0  0  0  0  0  0  0  0
  141.7780   76.6570  220.6110 C   0  0  0  0  0  0  0  0  0  0  0  0
  140.7020   76.7850  221.4590 C   0  0  0  0  0  0  0  0  0  0  0  0
  140.2540   78.1670  221.7840 C   0  0  0  0  0  0  0  0  0  0  0  0
  140.4580   78.5450  223.1450 N   0  0  0  0  0  0  0  0  0  0  0  0
  139.7910   79.7930  223.4640 C   0  0  0  0  0  0  0  0  0  0  0  0
  140.5140   80.9130  222.7880 C   0  0  0  0  0  0  0  0  0  0  0  0
  141.7010   80.5450  222.2070 O   0  0  0  0  0  0  0  0  0  0  0  0
  142.5410   79.8770  223.0990 C   0  0  0  0  0  0  0  0  0  0  0  0
  141.8180   78.6400  223.5750 C   0  0  0  0  0  0  0  0  0  0  0  0
  140.0570   75.6840  221.9860 C   0  0  0  0  0  0  0  0  0  0  0  0
  139.5550   70.0540  223.6430 N   0  0  0  0  0  0  0  0  0  0  0  0
  139.0000   69.4310  222.4670 C   0  0  0  0  0  0  0  0  0  0  0  0
  137.5550   69.8540  222.2610 C   0  0  0  0  0  0  0  0  0  0  0  0
  137.0130   70.5990  223.4430 C   0  0  0  0  0  0  0  0  0  0  0  0
  135.5530   70.9820  223.2020 C   0  0  0  0  0  0  0  0  0  0  0  0
  135.3950   71.5720  221.8900 N   0  0  0  0  0  0  0  0  0  0  0  0
  136.6760   71.9470  221.3300 C   0  0  0  0  0  0  0  0  0  0  0  0
  137.4550   70.7040  221.0240 C   0  0  0  0  0  0  0  0  0  0  0  0
  139.5121   68.3904  227.3008 H   0  0  0  0  0  0  0  0  0  0  0  0
  140.4525   69.4798  229.3240 H   0  0  0  0  0  0  0  0  0  0  0  0
  141.4957   71.7294  229.1398 H   0  0  0  0  0  0  0  0  0  0  0  0
  141.5856   72.8768  226.9229 H   0  0  0  0  0  0  0  0  0  0  0  0
  140.7148   71.5774  221.4543 H   0  0  0  0  0  0  0  0  0  0  0  0
  138.7468   73.4359  222.6618 H   0  0  0  0  0  0  0  0  0  0  0  0
  141.9008   73.2686  220.5692 H   0  0  0  0  0  0  0  0  0  0  0  0
  143.0411   75.2238  219.6356 H   0  0  0  0  0  0  0  0  0  0  0  0
  142.2896   77.5364  220.1928 H   0  0  0  0  0  0  0  0  0  0  0  0
  140.8095   78.8687  221.1445 H   0  0  0  0  0  0  0  0  0  0  0  0
  139.1686   78.1962  221.6079 H   0  0  0  0  0  0  0  0  0  0  0  0
  138.7505   79.7572  223.1089 H   0  0  0  0  0  0  0  0  0  0  0  0
  139.7936   79.9501  224.5527 H   0  0  0  0  0  0  0  0  0  0  0  0
  139.8593   81.3239  222.0053 H   0  0  0  0  0  0  0  0  0  0  0  0
  140.7581   81.6490  223.5682 H   0  0  0  0  0  0  0  0  0  0  0  0
  143.4750   79.5928  222.5922 H   0  0  0  0  0  0  0  0  0  0  0  0
  142.7924   80.5268  223.9502 H   0  0  0  0  0  0  0  0  0  0  0  0
  142.3595   77.7596  223.1986 H   0  0  0  0  0  0  0  0  0  0  0  0
  141.7954   78.6945  224.6734 H   0  0  0  0  0  0  0  0  0  0  0  0
  139.2005   75.8357  222.6593 H   0  0  0  0  0  0  0  0  0  0  0  0
  139.5913   69.7287  221.5885 H   0  0  0  0  0  0  0  0  0  0  0  0
  139.0316   68.3394  222.5990 H   0  0  0  0  0  0  0  0  0  0  0  0
  136.9482   68.9441  222.1427 H   0  0  0  0  0  0  0  0  0  0  0  0
  137.0783   69.9602  224.3361 H   0  0  0  0  0  0  0  0  0  0  0  0
  137.6042   71.5146  223.5918 H   0  0  0  0  0  0  0  0  0  0  0  0
  134.9259   70.0810  223.2719 H   0  0  0  0  0  0  0  0  0  0  0  0
  135.2471   71.7161  223.9620 H   0  0  0  0  0  0  0  0  0  0  0  0
  134.9270   70.8990  221.2420 H   0  0  0  0  0  0  0  0  0  0  0  0
  136.5205   72.5223  220.4054 H   0  0  0  0  0  0  0  0  0  0  0  0
  137.2305   72.5663  222.0504 H   0  0  0  0  0  0  0  0  0  0  0  0
  136.9444   70.1379  220.2310 H   0  0  0  0  0  0  0  0  0  0  0  0
  138.4653   70.9796  220.6874 H   0  0  0  0  0  0  0  0  0  0  0  0
  1  2  2  0
  2  3  1  0
  3  4  2  0
  4  5  1  0
  5  6  2  0
  6  7  1  0
  7  8  2  0
  8  9  1  0
  9 10  2  0
 10 11  1  0
 11 12  2  0
 12 13  1  0
 13 14  2  0
 14 15  1  0
 15 16  2  0
 16 17  1  0
 17 18  1  0
 18 19  1  0
 19 20  1  0
 20 21  1  0
 21 22  1  0
 22 23  1  0
 23 24  1  0
 17 25  2  0
 10 26  1  0
 26 27  1  0
 27 28  1  0
 28 29  1  0
 29 30  1  0
 30 31  1  0
 31 32  1  0
 32 33  1  0
 26  2  1  0
 33 28  1  0
  8  3  1  0
 25 13  1  0
 24 19  1  0
  4 34  1  0
  5 35  1  0
  6 36  1  0
  7 37  1  0
 11 38  1  0
 12 39  1  0
 14 40  1  0
 15 41  1  0
 16 42  1  0
 18 43  1  0
 18 44  1  0
 20 45  1  0
 20 46  1  0
 21 47  1  0
 21 48  1  0
 23 49  1  0
 23 50  1  0
 24 51  1  0
 24 52  1  0
 25 53  1  0
 27 54  1  0
 27 55  1  0
 28 56  1  0
 29 57  1  0
 29 58  1  0
 30 59  1  0
 30 60  1  0
 31 61  1  0
 32 62  1  0
 32 63  1  0
 33 64  1  0
 33 65  1  0
M  END
>  <smiles>  (13) 
O=c1c2ccccc2nc(/C=C/c2cccc(CN3CCOCC3)c2)n1CC1CCNCC1

>  <score_type>  (13) 
oracle

>  <origin>  (13) 
autodockgpu

>  <m_score__min__energy>  (13) 
-9.6400000000000006

>  <m_primary>  (13) 
energy

>  <rmsd>  (13) 
11.305867380197176

>  <m_score__min__rmsd>  (13) 
11.305867380197176

>  <meeko>  (13) 
{"free_energy": -8.48, "intermolecular_energy": -10.57, "internal_energy": -1.75, "cluster_size": 8, "cluster_id": 3, "rank_in_cluster": 6}

>  <energy>  (13) 
-8.92

>  <cluster_rmsd>  (13) 
1.4

>  <cluster>  (13) 
1

$$$$

     RDKit          3D

 65 69  0  0  0  0  0  0  0  0999 V2000
  143.2720   76.5330  219.7440 O   0  0  0  0  0  0  0  0  0  0  0  0
  142.6590   75.5660  220.2760 C   0  0  0  0  0  0  0  0  0  0  0  0
  143.3480   74.3540  220.2670 C   0  0  0  0  0  0  0  0  0  0  0  0
  144.6050   74.2310  219.7150 C   0  0  0  0  0  0  0  0  0  0  0  0
  145.2640   73.0130  219.7210 C   0  0  0  0  0  0  0  0  0  0  0  0
  144.6530   71.9110  220.2860 C   0  0  0  0  0  0  0  0  0  0  0  0
  143.3830   72.0320  220.8430 C   0  0  0  0  0  0  0  0  0  0  0  0
  142.7510   73.2520  220.8240 C   0  0  0  0  0  0  0  0  0  0  0  0
  141.5280   73.4140  221.3500 N   0  0  0  0  0  0  0  0  0  0  0  0
  140.8720   74.5860  221.3560 C   0  0  0  0  0  0  0  0  0  0  0  0
  139.5330   74.6050  221.9730 C   0  0  0  0  0  0  0  0  0  0  0  0
  138.7030   73.5990  221.7830 C   0  0  0  0  0  0  0  0  0  0  0  0
  138.9820   72.2200  222.1430 C   0  0  0  0  0  0  0  0  0  0  0  0
  139.1510   71.2030  221.2300 C   0  0  0  0  0  0  0  0  0  0  0  0
  139.4190   69.9050  221.6140 C   0  0  0  0  0  0  0  0  0  0  0  0
  139.5310   69.5570  222.9450 C   0  0  0  0  0  0  0  0  0  0  0  0
  139.3640   70.5640  223.8660 C   0  0  0  0  0  0  0  0  0  0  0  0
  139.4880   70.1970  225.3030 C   0  0  0  0  0  0  0  0  0  0  0  0
  140.8260   70.2100  225.8000 N   0  0  0  0  0  0  0  0  0  0  0  0
  141.0470   69.1680  226.7840 C   0  0  0  0  0  0  0  0  0  0  0  0
  140.3170   69.5270  228.0380 C   0  0  0  0  0  0  0  0  0  0  0  0
  139.7910   70.7930  228.0380 O   0  0  0  0  0  0  0  0  0  0  0  0
  140.7440   71.7620  227.7230 C   0  0  0  0  0  0  0  0  0  0  0  0
  141.2820   71.4490  226.3460 C   0  0  0  0  0  0  0  0  0  0  0  0
  139.0970   71.8630  223.4830 C   0  0  0  0  0  0  0  0  0  0  0  0
  141.4280   75.6850  220.8180 N   0  0  0  0  0  0  0  0  0  0  0  0
  140.7350   76.9500  220.8030 C   0  0  0  0  0  0  0  0  0  0  0  0
  141.4970   77.9940  221.6030 C   0  0  0  0  0  0  0  0  0  0  0  0
  141.2870   79.3770  221.0650 C   0  0  0  0  0  0  0  0  0  0  0  0
  142.0910   80.3880  221.8820 C   0  0  0  0  0  0  0  0  0  0  0  0
  141.8920   80.1670  223.2980 N   0  0  0  0  0  0  0  0  0  0  0  0
  140.7500   79.3080  223.5350 C   0  0  0  0  0  0  0  0  0  0  0  0
  141.0700   77.9290  223.0430 C   0  0  0  0  0  0  0  0  0  0  0  0
  145.0899   75.1098  219.2649 H   0  0  0  0  0  0  0  0  0  0  0  0
  146.2672   72.9240  219.2787 H   0  0  0  0  0  0  0  0  0  0  0  0
  145.1688   70.9395  220.2959 H   0  0  0  0  0  0  0  0  0  0  0  0
  142.8897   71.1586  221.2944 H   0  0  0  0  0  0  0  0  0  0  0  0
  139.2262   75.4603  222.5930 H   0  0  0  0  0  0  0  0  0  0  0  0
  137.7303   73.8194  221.3190 H   0  0  0  0  0  0  0  0  0  0  0  0
  139.0695   71.4333  220.1575 H   0  0  0  0  0  0  0  0  0  0  0  0
  139.5461   69.1310  220.8428 H   0  0  0  0  0  0  0  0  0  0  0  0
  139.7438   68.5230  223.2542 H   0  0  0  0  0  0  0  0  0  0  0  0
  138.8945   70.9108  225.8931 H   0  0  0  0  0  0  0  0  0  0  0  0
  139.1280   69.1617  225.3955 H   0  0  0  0  0  0  0  0  0  0  0  0
  140.6700   68.2093  226.3983 H   0  0  0  0  0  0  0  0  0  0  0  0
  142.1229   69.0726  226.9921 H   0  0  0  0  0  0  0  0  0  0  0  0
  139.4933   68.8110  228.1749 H   0  0  0  0  0  0  0  0  0  0  0  0
  141.0532   69.4900  228.8545 H   0  0  0  0  0  0  0  0  0  0  0  0
  140.2792   72.7590  227.7256 H   0  0  0  0  0  0  0  0  0  0  0  0
  141.5571   71.7570  228.4639 H   0  0  0  0  0  0  0  0  0  0  0  0
  140.9765   72.2576  225.6657 H   0  0  0  0  0  0  0  0  0  0  0  0
  142.3738   71.3631  226.4484 H   0  0  0  0  0  0  0  0  0  0  0  0
  138.9720   72.6352  224.2564 H   0  0  0  0  0  0  0  0  0  0  0  0
  140.6361   77.2944  219.7630 H   0  0  0  0  0  0  0  0  0  0  0  0
  139.7428   76.8132  221.2578 H   0  0  0  0  0  0  0  0  0  0  0  0
  142.5707   77.7704  221.5188 H   0  0  0  0  0  0  0  0  0  0  0  0
  141.6166   79.4130  220.0162 H   0  0  0  0  0  0  0  0  0  0  0  0
  140.2185   79.6299  221.1314 H   0  0  0  0  0  0  0  0  0  0  0  0
  143.1594   80.2774  221.6449 H   0  0  0  0  0  0  0  0  0  0  0  0
  141.7497   81.4025  221.6285 H   0  0  0  0  0  0  0  0  0  0  0  0
  142.7390   79.7270  223.7210 H   0  0  0  0  0  0  0  0  0  0  0  0
  140.5306   79.2741  224.6124 H   0  0  0  0  0  0  0  0  0  0  0  0
  139.8716   79.6998  223.0013 H   0  0  0  0  0  0  0  0  0  0  0  0
  141.8849   77.5045  223.6477 H   0  0  0  0  0  0  0  0  0  0  0  0
  140.1767   77.2932  223.1309 H   0  0  0  0  0  0  0  0  0  0  0  0
  1  2  2  0
  2  3  1  0
  3  4  2  0
  4  5  1  0
  5  6  2  0
  6  7  1  0
  7  8  2  0
  8  9  1  0
  9 10  2  0
 10 11  1  0
 11 12  2  0
 12 13  1  0
 13 14  2  0
 14 15  1  0
 15 16  2  0
 16 17  1  0
 17 18  1  0
 18 19  1  0
 19 20  1  0
 20 21  1  0
 21 22  1  0
 22 23  1  0
 23 24  1  0
 17 25  2  0
 10 26  1  0
 26 27  1  0
 27 28  1  0
 28 29  1  0
 29 30  1  0
 30 31  1  0
 31 32  1  0
 32 33  1  0
 26  2  1  0
 33 28  1  0
  8  3  1  0
 25 13  1  0
 24 19  1  0
  4 34  1  0
  5 35  1  0
  6 36  1  0
  7 37  1  0
 11 38  1  0
 12 39  1  0
 14 40  1  0
 15 41  1  0
 16 42  1  0
 18 43  1  0
 18 44  1  0
 20 45  1  0
 20 46  1  0
 21 47  1  0
 21 48  1  0
 23 49  1  0
 23 50  1  0
 24 51  1  0
 24 52  1  0
 25 53  1  0
 27 54  1  0
 27 55  1  0
 28 56  1  0
 29 57  1  0
 29 58  1  0
 30 59  1  0
 30 60  1  0
 31 61  1  0
 32 62  1  0
 32 63  1  0
 33 64  1  0
 33 65  1  0
M  END
>  <smiles>  (14) 
O=c1c2ccccc2nc(/C=C/c2cccc(CN3CCOCC3)c2)n1CC1CCNCC1

>  <score_type>  (14) 
oracle

>  <origin>  (14) 
autodockgpu

>  <m_score__min__energy>  (14) 
-9.6400000000000006

>  <m_primary>  (14) 
energy

>  <rmsd>  (14) 
4.538333601176901

>  <m_score__min__rmsd>  (14) 
4.538333601176901

>  <meeko>  (14) 
{"free_energy": -8.03, "intermolecular_energy": -10.12, "internal_energy": -1.79, "cluster_size": 2, "cluster_id": 8, "rank_in_cluster": 1}

>  <energy>  (14) 
-8.77

>  <cluster_rmsd>  (14) 
0.85

>  <cluster>  (14) 
1

$$$$

     RDKit          3D

 65 69  0  0  0  0  0  0  0  0999 V2000
  143.1380   74.4250  217.8850 O   0  0  0  0  0  0  0  0  0  0  0  0
  142.5230   74.8640  218.8950 C   0  0  0  0  0  0  0  0  0  0  0  0
  142.4250   76.2530  218.9700 C   0  0  0  0  0  0  0  0  0  0  0  0
  142.9650   77.0770  218.0060 C   0  0  0  0  0  0  0  0  0  0  0  0
  142.8520   78.4530  218.1080 C   0  0  0  0  0  0  0  0  0  0  0  0
  142.1910   79.0040  219.1880 C   0  0  0  0  0  0  0  0  0  0  0  0
  141.6460   78.1740  220.1640 C   0  0  0  0  0  0  0  0  0  0  0  0
  141.7720   76.8120  220.0390 C   0  0  0  0  0  0  0  0  0  0  0  0
  141.2610   75.9760  220.9550 N   0  0  0  0  0  0  0  0  0  0  0  0
  141.3590   74.6380  220.8740 C   0  0  0  0  0  0  0  0  0  0  0  0
  140.7450   73.8520  221.9600 C   0  0  0  0  0  0  0  0  0  0  0  0
  139.6990   73.0900  221.7160 C   0  0  0  0  0  0  0  0  0  0  0  0
  139.5250   71.7400  222.2230 C   0  0  0  0  0  0  0  0  0  0  0  0
  139.3040   70.6390  221.4260 C   0  0  0  0  0  0  0  0  0  0  0  0
  139.1470   69.3710  221.9480 C   0  0  0  0  0  0  0  0  0  0  0  0
  139.2020   69.1410  223.3070 C   0  0  0  0  0  0  0  0  0  0  0  0
  139.4220   70.2330  224.1140 C   0  0  0  0  0  0  0  0  0  0  0  0
  139.4880   69.9910  225.5810 C   0  0  0  0  0  0  0  0  0  0  0  0
  140.8020   70.0750  226.1320 N   0  0  0  0  0  0  0  0  0  0  0  0
  141.0470   69.0250  227.1030 C   0  0  0  0  0  0  0  0  0  0  0  0
  140.2480   69.3110  228.3340 C   0  0  0  0  0  0  0  0  0  0  0  0
  139.6440   70.5430  228.3380 O   0  0  0  0  0  0  0  0  0  0  0  0
  140.5480   71.5750  228.0820 C   0  0  0  0  0  0  0  0  0  0  0  0
  141.1580   71.3260  226.7220 C   0  0  0  0  0  0  0  0  0  0  0  0
  139.5800   71.5020  223.5930 C   0  0  0  0  0  0  0  0  0  0  0  0
  141.9930   74.0580  219.8400 N   0  0  0  0  0  0  0  0  0  0  0  0
  142.1190   72.6250  219.7420 C   0  0  0  0  0  0  0  0  0  0  0  0
  143.5340   72.1820  220.0730 C   0  0  0  0  0  0  0  0  0  0  0  0
  144.3010   71.7870  218.8470 C   0  0  0  0  0  0  0  0  0  0  0  0
  145.7060   71.3250  219.2290 C   0  0  0  0  0  0  0  0  0  0  0  0
  146.3170   72.2660  220.1440 N   0  0  0  0  0  0  0  0  0  0  0  0
  145.5890   73.5190  220.1640 C   0  0  0  0  0  0  0  0  0  0  0  0
  144.2490   73.2910  220.7940 C   0  0  0  0  0  0  0  0  0  0  0  0
  143.4914   76.6365  217.1464 H   0  0  0  0  0  0  0  0  0  0  0  0
  143.2859   79.1031  217.3339 H   0  0  0  0  0  0  0  0  0  0  0  0
  142.0952   80.0962  219.2770 H   0  0  0  0  0  0  0  0  0  0  0  0
  141.1190   78.6054  221.0278 H   0  0  0  0  0  0  0  0  0  0  0  0
  141.1618   73.9023  222.9767 H   0  0  0  0  0  0  0  0  0  0  0  0
  138.9006   73.5053  221.0835 H   0  0  0  0  0  0  0  0  0  0  0  0
  139.2508   70.7748  220.3357 H   0  0  0  0  0  0  0  0  0  0  0  0
  138.9743   68.5257  221.2657 H   0  0  0  0  0  0  0  0  0  0  0  0
  139.0758   68.1317  223.7257 H   0  0  0  0  0  0  0  0  0  0  0  0
  138.8559   70.7388  226.0822 H   0  0  0  0  0  0  0  0  0  0  0  0
  139.1429   68.9596  225.7458 H   0  0  0  0  0  0  0  0  0  0  0  0
  140.7439   68.0547  226.6827 H   0  0  0  0  0  0  0  0  0  0  0  0
  142.1177   68.9891  227.3524 H   0  0  0  0  0  0  0  0  0  0  0  0
  139.4658   68.5428  228.4239 H   0  0  0  0  0  0  0  0  0  0  0  0
  140.9531   69.3015  229.1782 H   0  0  0  0  0  0  0  0  0  0  0  0
  140.0234   72.5419  228.0858 H   0  0  0  0  0  0  0  0  0  0  0  0
  141.3298   71.6024  228.8553 H   0  0  0  0  0  0  0  0  0  0  0  0
  140.8304   72.1298  226.0464 H   0  0  0  0  0  0  0  0  0  0  0  0
  142.2480   71.3035  226.8680 H   0  0  0  0  0  0  0  0  0  0  0  0
  139.7536   72.3453  224.2776 H   0  0  0  0  0  0  0  0  0  0  0  0
  141.4194   72.1527  220.4473 H   0  0  0  0  0  0  0  0  0  0  0  0
  141.8876   72.3213  218.7104 H   0  0  0  0  0  0  0  0  0  0  0  0
  143.4693   71.2936  220.7184 H   0  0  0  0  0  0  0  0  0  0  0  0
  143.7746   70.9662  218.3380 H   0  0  0  0  0  0  0  0  0  0  0  0
  144.3789   72.6561  218.1772 H   0  0  0  0  0  0  0  0  0  0  0  0
  145.6441   70.3385  219.7118 H   0  0  0  0  0  0  0  0  0  0  0  0
  146.3204   71.2633  218.3187 H   0  0  0  0  0  0  0  0  0  0  0  0
  146.3380   71.8730  221.1110 H   0  0  0  0  0  0  0  0  0  0  0  0
  146.1502   74.2629  220.7485 H   0  0  0  0  0  0  0  0  0  0  0  0
  145.4598   73.8917  219.1372 H   0  0  0  0  0  0  0  0  0  0  0  0
  144.3835   73.0139  221.8500 H   0  0  0  0  0  0  0  0  0  0  0  0
  143.6529   74.2131  220.7279 H   0  0  0  0  0  0  0  0  0  0  0  0
  1  2  2  0
  2  3  1  0
  3  4  2  0
  4  5  1  0
  5  6  2  0
  6  7  1  0
  7  8  2  0
  8  9  1  0
  9 10  2  0
 10 11  1  0
 11 12  2  0
 12 13  1  0
 13 14  2  0
 14 15  1  0
 15 16  2  0
 16 17  1  0
 17 18  1  0
 18 19  1  0
 19 20  1  0
 20 21  1  0
 21 22  1  0
 22 23  1  0
 23 24  1  0
 17 25  2  0
 10 26  1  0
 26 27  1  0
 27 28  1  0
 28 29  1  0
 29 30  1  0
 30 31  1  0
 31 32  1  0
 32 33  1  0
 26  2  1  0
 33 28  1  0
  8  3  1  0
 25 13  1  0
 24 19  1  0
  4 34  1  0
  5 35  1  0
  6 36  1  0
  7 37  1  0
 11 38  1  0
 12 39  1  0
 14 40  1  0
 15 41  1  0
 16 42  1  0
 18 43  1  0
 18 44  1  0
 20 45  1  0
 20 46  1  0
 21 47  1  0
 21 48  1  0
 23 49  1  0
 23 50  1  0
 24 51  1  0
 24 52  1  0
 25 53  1  0
 27 54  1  0
 27 55  1  0
 28 56  1  0
 29 57  1  0
 29 58  1  0
 30 59  1  0
 30 60  1  0
 31 61  1  0
 32 62  1  0
 32 63  1  0
 33 64  1  0
 33 65  1  0
M  END
>  <smiles>  (15) 
O=c1c2ccccc2nc(/C=C/c2cccc(CN3CCOCC3)c2)n1CC1CCNCC1

>  <score_type>  (15) 
oracle

>  <origin>  (15) 
autodockgpu

>  <m_score__min__energy>  (15) 
-9.6400000000000006

>  <m_primary>  (15) 
energy

>  <rmsd>  (15) 
8.063677939719579

>  <m_score__min__rmsd>  (15) 
8.063677939719579

>  <meeko>  (15) 
{"free_energy": -8.03, "intermolecular_energy": -10.12, "internal_energy": -1.65, "cluster_size": 18, "cluster_id": 1, "rank_in_cluster": 18}

>  <energy>  (15) 
-8.73

>  <cluster_rmsd>  (15) 
1.59

>  <cluster>  (15) 
1

$$$$

     RDKit          3D

 65 69  0  0  0  0  0  0  0  0999 V2000
  138.8780   68.1450  224.6620 O   0  0  0  0  0  0  0  0  0  0  0  0
  139.3020   69.3300  224.5670 C   0  0  0  0  0  0  0  0  0  0  0  0
  139.8780   69.8450  225.7280 C   0  0  0  0  0  0  0  0  0  0  0  0
  139.9740   69.1060  226.8870 C   0  0  0  0  0  0  0  0  0  0  0  0
  140.5510   69.6460  228.0240 C   0  0  0  0  0  0  0  0  0  0  0  0
  141.0360   70.9380  227.9930 C   0  0  0  0  0  0  0  0  0  0  0  0
  140.9400   71.6870  226.8240 C   0  0  0  0  0  0  0  0  0  0  0  0
  140.3630   71.1280  225.7100 C   0  0  0  0  0  0  0  0  0  0  0  0
  140.2500   71.8130  224.5630 N   0  0  0  0  0  0  0  0  0  0  0  0
  139.6940   71.3080  223.4480 C   0  0  0  0  0  0  0  0  0  0  0  0
  139.6440   72.1860  222.2650 C   0  0  0  0  0  0  0  0  0  0  0  0
  140.6730   72.9510  221.9640 C   0  0  0  0  0  0  0  0  0  0  0  0
  141.8350   72.5120  221.2110 C   0  0  0  0  0  0  0  0  0  0  0  0
  142.8710   73.3390  220.8390 C   0  0  0  0  0  0  0  0  0  0  0  0
  143.9600   72.8820  220.1260 C   0  0  0  0  0  0  0  0  0  0  0  0
  144.0670   71.5600  219.7450 C   0  0  0  0  0  0  0  0  0  0  0  0
  143.0380   70.7230  220.1100 C   0  0  0  0  0  0  0  0  0  0  0  0
  143.1480   69.2950  219.7070 C   0  0  0  0  0  0  0  0  0  0  0  0
  144.2700   69.0050  218.8730 N   0  0  0  0  0  0  0  0  0  0  0  0
  143.8620   68.5650  217.5530 C   0  0  0  0  0  0  0  0  0  0  0  0
  143.2770   67.1940  217.6610 C   0  0  0  0  0  0  0  0  0  0  0  0
  143.4300   66.6140  218.8940 O   0  0  0  0  0  0  0  0  0  0  0  0
  144.7580   66.6220  219.3210 C   0  0  0  0  0  0  0  0  0  0  0  0
  145.2100   68.0620  219.3910 C   0  0  0  0  0  0  0  0  0  0  0  0
  141.9480   71.1800  220.8240 C   0  0  0  0  0  0  0  0  0  0  0  0
  139.2100   70.0550  223.4320 N   0  0  0  0  0  0  0  0  0  0  0  0
  138.5980   69.4990  222.2500 C   0  0  0  0  0  0  0  0  0  0  0  0
  139.5520   68.5510  221.5420 C   0  0  0  0  0  0  0  0  0  0  0  0
  139.0470   67.1390  221.5440 C   0  0  0  0  0  0  0  0  0  0  0  0
  140.0480   66.2200  220.8460 C   0  0  0  0  0  0  0  0  0  0  0  0
  140.4690   66.7940  219.5860 N   0  0  0  0  0  0  0  0  0  0  0  0
  139.5880   67.8710  219.1850 C   0  0  0  0  0  0  0  0  0  0  0  0
  139.7660   69.0210  220.1300 C   0  0  0  0  0  0  0  0  0  0  0  0
  139.5882   68.0761  226.9092 H   0  0  0  0  0  0  0  0  0  0  0  0
  140.6224   69.0496  228.9455 H   0  0  0  0  0  0  0  0  0  0  0  0
  141.4976   71.3748  228.8908 H   0  0  0  0  0  0  0  0  0  0  0  0
  141.3229   72.7177  226.7925 H   0  0  0  0  0  0  0  0  0  0  0  0
  138.7447   72.2023  221.6318 H   0  0  0  0  0  0  0  0  0  0  0  0
  140.6509   73.9959  222.3070 H   0  0  0  0  0  0  0  0  0  0  0  0
  142.8289   74.4016  221.1202 H   0  0  0  0  0  0  0  0  0  0  0  0
  144.7602   73.5865  219.8554 H   0  0  0  0  0  0  0  0  0  0  0  0
  144.9341   71.1928  219.1763 H   0  0  0  0  0  0  0  0  0  0  0  0
  143.2295   68.6850  220.6187 H   0  0  0  0  0  0  0  0  0  0  0  0
  142.2487   69.0638  219.1172 H   0  0  0  0  0  0  0  0  0  0  0  0
  143.1088   69.2574  217.1490 H   0  0  0  0  0  0  0  0  0  0  0  0
  144.7317   68.5480  216.8796 H   0  0  0  0  0  0  0  0  0  0  0  0
  142.2011   67.2596  217.4415 H   0  0  0  0  0  0  0  0  0  0  0  0
  143.8200   66.5608  216.9438 H   0  0  0  0  0  0  0  0  0  0  0  0
  144.8347   66.1567  220.3148 H   0  0  0  0  0  0  0  0  0  0  0  0
  145.3902   66.0535  218.6231 H   0  0  0  0  0  0  0  0  0  0  0  0
  145.4008   68.3111  220.4453 H   0  0  0  0  0  0  0  0  0  0  0  0
  146.1085   68.1383  218.7610 H   0  0  0  0  0  0  0  0  0  0  0  0
  141.1491   70.4736  221.0936 H   0  0  0  0  0  0  0  0  0  0  0  0
  137.6908   68.9481  222.5390 H   0  0  0  0  0  0  0  0  0  0  0  0
  138.3452   70.3212  221.5644 H   0  0  0  0  0  0  0  0  0  0  0  0
  140.5059   68.5571  222.0897 H   0  0  0  0  0  0  0  0  0  0  0  0
  138.9090   66.8039  222.5826 H   0  0  0  0  0  0  0  0  0  0  0  0
  138.0882   67.0998  221.0063 H   0  0  0  0  0  0  0  0  0  0  0  0
  140.9268   66.0836  221.4934 H   0  0  0  0  0  0  0  0  0  0  0  0
  139.5660   65.2504  220.6521 H   0  0  0  0  0  0  0  0  0  0  0  0
  141.4430   67.1640  219.6620 H   0  0  0  0  0  0  0  0  0  0  0  0
  139.8376   68.1911  218.1626 H   0  0  0  0  0  0  0  0  0  0  0  0
  138.5435   67.5268  219.2092 H   0  0  0  0  0  0  0  0  0  0  0  0
  140.7845   69.4239  220.0286 H   0  0  0  0  0  0  0  0  0  0  0  0
  139.0339   69.8066  219.8915 H   0  0  0  0  0  0  0  0  0  0  0  0
  1  2  2  0
  2  3  1  0
  3  4  2  0
  4  5  1  0
  5  6  2  0
  6  7  1  0
  7  8  2  0
  8  9  1  0
  9 10  2  0
 10 11  1  0
 11 12  2  0
 12 13  1  0
 13 14  2  0
 14 15  1  0
 15 16  2  0
 16 17  1  0
 17 18  1  0
 18 19  1  0
 19 20  1  0
 20 21  1  0
 21 22  1  0
 22 23  1  0
 23 24  1  0
 17 25  2  0
 10 26  1  0
 26 27  1  0
 27 28  1  0
 28 29  1  0
 29 30  1  0
 30 31  1  0
 31 32  1  0
 32 33  1  0
 26  2  1  0
 33 28  1  0
  8  3  1  0
 25 13  1  0
 24 19  1  0
  4 34  1  0
  5 35  1  0
  6 36  1  0
  7 37  1  0
 11 38  1  0
 12 39  1  0
 14 40  1  0
 15 41  1  0
 16 42  1  0
 18 43  1  0
 18 44  1  0
 20 45  1  0
 20 46  1  0
 21 47  1  0
 21 48  1  0
 23 49  1  0
 23 50  1  0
 24 51  1  0
 24 52  1  0
 25 53  1  0
 27 54  1  0
 27 55  1  0
 28 56  1  0
 29 57  1  0
 29 58  1  0
 30 59  1  0
 30 60  1  0
 31 61  1  0
 32 62  1  0
 32 63  1  0
 33 64  1  0
 33 65  1  0
M  END
>  <smiles>  (16) 
O=c1c2ccccc2nc(/C=C/c2cccc(CN3CCOCC3)c2)n1CC1CCNCC1

>  <score_type>  (16) 
oracle

>  <origin>  (16) 
autodockgpu

>  <m_score__min__energy>  (16) 
-9.6400000000000006

>  <m_primary>  (16) 
energy

>  <rmsd>  (16) 
12.537313411200358

>  <m_score__min__rmsd>  (16) 
12.537313411200358

>  <meeko>  (16) 
{"free_energy": -7.05, "intermolecular_energy": -9.14, "internal_energy": -3.11, "cluster_size": 4, "cluster_id": 9, "rank_in_cluster": 2}

>  <energy>  (16) 
-8.53

>  <cluster_rmsd>  (16) 
1.41

>  <cluster>  (16) 
1

$$$$

     RDKit          3D

 65 69  0  0  0  0  0  0  0  0999 V2000
  142.7410   77.3450  219.2530 O   0  0  0  0  0  0  0  0  0  0  0  0
  142.0510   76.8710  220.1980 C   0  0  0  0  0  0  0  0  0  0  0  0
  141.5860   77.8110  221.1170 C   0  0  0  0  0  0  0  0  0  0  0  0
  141.8650   79.1540  220.9950 C   0  0  0  0  0  0  0  0  0  0  0  0
  141.3890   80.0630  221.9250 C   0  0  0  0  0  0  0  0  0  0  0  0
  140.6270   79.6160  222.9850 C   0  0  0  0  0  0  0  0  0  0  0  0
  140.3440   78.2590  223.1120 C   0  0  0  0  0  0  0  0  0  0  0  0
  140.8280   77.3780  222.1760 C   0  0  0  0  0  0  0  0  0  0  0  0
  140.5790   76.0630  222.2580 N   0  0  0  0  0  0  0  0  0  0  0  0
  141.0300   75.1650  221.3660 C   0  0  0  0  0  0  0  0  0  0  0  0
  140.6720   73.7530  221.5940 C   0  0  0  0  0  0  0  0  0  0  0  0
  139.4490   73.3320  221.3420 C   0  0  0  0  0  0  0  0  0  0  0  0
  138.6470   72.5340  222.2530 C   0  0  0  0  0  0  0  0  0  0  0  0
  137.2890   72.6890  222.4240 C   0  0  0  0  0  0  0  0  0  0  0  0
  136.5630   71.9070  223.2990 C   0  0  0  0  0  0  0  0  0  0  0  0
  137.1660   70.9220  224.0540 C   0  0  0  0  0  0  0  0  0  0  0  0
  138.5220   70.7580  223.8930 C   0  0  0  0  0  0  0  0  0  0  0  0
  139.1780   69.6950  224.7010 C   0  0  0  0  0  0  0  0  0  0  0  0
  139.3130   70.0090  226.0870 N   0  0  0  0  0  0  0  0  0  0  0  0
  140.2820   71.0650  226.3090 C   0  0  0  0  0  0  0  0  0  0  0  0
  141.6510   70.5250  226.0460 C   0  0  0  0  0  0  0  0  0  0  0  0
  141.6930   69.1680  225.8530 O   0  0  0  0  0  0  0  0  0  0  0  0
  141.0730   68.4680  226.8890 C   0  0  0  0  0  0  0  0  0  0  0  0
  139.6320   68.9170  226.9510 C   0  0  0  0  0  0  0  0  0  0  0  0
  139.2490   71.5400  223.0180 C   0  0  0  0  0  0  0  0  0  0  0  0
  141.7750   75.5550  220.3180 N   0  0  0  0  0  0  0  0  0  0  0  0
  142.2790   74.6050  219.3570 C   0  0  0  0  0  0  0  0  0  0  0  0
  143.7940   74.5120  219.4300 C   0  0  0  0  0  0  0  0  0  0  0  0
  144.2550   73.7740  220.6510 C   0  0  0  0  0  0  0  0  0  0  0  0
  145.7810   73.7280  220.6960 C   0  0  0  0  0  0  0  0  0  0  0  0
  146.3130   73.3260  219.4110 N   0  0  0  0  0  0  0  0  0  0  0  0
  145.2780   72.7560  218.5740 C   0  0  0  0  0  0  0  0  0  0  0  0
  144.3130   73.8370  218.1910 C   0  0  0  0  0  0  0  0  0  0  0  0
  142.4727   79.5087  220.1495 H   0  0  0  0  0  0  0  0  0  0  0  0
  141.6168   81.1340  221.8195 H   0  0  0  0  0  0  0  0  0  0  0  0
  140.2439   80.3307  223.7283 H   0  0  0  0  0  0  0  0  0  0  0  0
  139.7379   77.8953  223.9548 H   0  0  0  0  0  0  0  0  0  0  0  0
  141.4271   73.0498  221.9751 H   0  0  0  0  0  0  0  0  0  0  0  0
  139.0041   73.6041  220.3735 H   0  0  0  0  0  0  0  0  0  0  0  0
  136.7654   73.4626  221.8432 H   0  0  0  0  0  0  0  0  0  0  0  0
  135.4799   72.0725  223.3967 H   0  0  0  0  0  0  0  0  0  0  0  0
  136.5893   70.2972  224.7519 H   0  0  0  0  0  0  0  0  0  0  0  0
  138.5793   68.7764  224.6127 H   0  0  0  0  0  0  0  0  0  0  0  0
  140.1973   69.5812  224.3033 H   0  0  0  0  0  0  0  0  0  0  0  0
  140.0779   71.9035  225.6270 H   0  0  0  0  0  0  0  0  0  0  0  0
  140.2141   71.4227  227.3470 H   0  0  0  0  0  0  0  0  0  0  0  0
  142.0472   71.0141  225.1439 H   0  0  0  0  0  0  0  0  0  0  0  0
  142.2512   70.7351  226.9435 H   0  0  0  0  0  0  0  0  0  0  0  0
  141.1201   67.3870  226.6910 H   0  0  0  0  0  0  0  0  0  0  0  0
  141.5794   68.6675  227.8449 H   0  0  0  0  0  0  0  0  0  0  0  0
  138.9944   68.0639  226.6759 H   0  0  0  0  0  0  0  0  0  0  0  0
  139.4589   69.2705  227.9782 H   0  0  0  0  0  0  0  0  0  0  0  0
  140.3321   71.3729  222.9232 H   0  0  0  0  0  0  0  0  0  0  0  0
  141.8468   73.6157  219.5678 H   0  0  0  0  0  0  0  0  0  0  0  0
  141.9956   74.9410  218.3486 H   0  0  0  0  0  0  0  0  0  0  0  0
  144.1940   75.5345  219.4972 H   0  0  0  0  0  0  0  0  0  0  0  0
  143.8805   74.2876  221.5488 H   0  0  0  0  0  0  0  0  0  0  0  0
  143.8662   72.7456  220.6164 H   0  0  0  0  0  0  0  0  0  0  0  0
  146.1661   74.7263  220.9512 H   0  0  0  0  0  0  0  0  0  0  0  0
  146.0932   72.9962  221.4556 H   0  0  0  0  0  0  0  0  0  0  0  0
  146.7330   74.1450  218.9180 H   0  0  0  0  0  0  0  0  0  0  0  0
  145.7305   72.3270  217.6678 H   0  0  0  0  0  0  0  0  0  0  0  0
  144.7499   71.9624  219.1229 H   0  0  0  0  0  0  0  0  0  0  0  0
  144.8246   74.5770  217.5580 H   0  0  0  0  0  0  0  0  0  0  0  0
  143.4720   73.3960  217.6358 H   0  0  0  0  0  0  0  0  0  0  0  0
  1  2  2  0
  2  3  1  0
  3  4  2  0
  4  5  1  0
  5  6  2  0
  6  7  1  0
  7  8  2  0
  8  9  1  0
  9 10  2  0
 10 11  1  0
 11 12  2  0
 12 13  1  0
 13 14  2  0
 14 15  1  0
 15 16  2  0
 16 17  1  0
 17 18  1  0
 18 19  1  0
 19 20  1  0
 20 21  1  0
 21 22  1  0
 22 23  1  0
 23 24  1  0
 17 25  2  0
 10 26  1  0
 26 27  1  0
 27 28  1  0
 28 29  1  0
 29 30  1  0
 30 31  1  0
 31 32  1  0
 32 33  1  0
 26  2  1  0
 33 28  1  0
  8  3  1  0
 25 13  1  0
 24 19  1  0
  4 34  1  0
  5 35  1  0
  6 36  1  0
  7 37  1  0
 11 38  1  0
 12 39  1  0
 14 40  1  0
 15 41  1  0
 16 42  1  0
 18 43  1  0
 18 44  1  0
 20 45  1  0
 20 46  1  0
 21 47  1  0
 21 48  1  0
 23 49  1  0
 23 50  1  0
 24 51  1  0
 24 52  1  0
 25 53  1  0
 27 54  1  0
 27 55  1  0
 28 56  1  0
 29 57  1  0
 29 58  1  0
 30 59  1  0
 30 60  1  0
 31 61  1  0
 32 62  1  0
 32 63  1  0
 33 64  1  0
 33 65  1  0
M  END
>  <smiles>  (17) 
O=c1c2ccccc2nc(/C=C/c2cccc(CN3CCOCC3)c2)n1CC1CCNCC1

>  <score_type>  (17) 
oracle

>  <origin>  (17) 
autodockgpu

>  <m_score__min__energy>  (17) 
-9.6400000000000006

>  <m_primary>  (17) 
energy

>  <rmsd>  (17) 
7.582182750251461

>  <m_score__min__rmsd>  (17) 
7.582182750251461

>  <meeko>  (17) 
{"free_energy": -8.77, "intermolecular_energy": -10.86, "internal_energy": -1.54, "cluster_size": 18, "cluster_id": 1, "rank_in_cluster": 14}

>  <energy>  (17) 
-8.39

>  <cluster_rmsd>  (17) 
1.34

>  <cluster>  (17) 
1

$$$$

     RDKit          3D

 65 69  0  0  0  0  0  0  0  0999 V2000
  139.1180   67.7280  224.5000 O   0  0  0  0  0  0  0  0  0  0  0  0
  139.3860   68.9580  224.5970 C   0  0  0  0  0  0  0  0  0  0  0  0
  139.9400   69.3460  225.8160 C   0  0  0  0  0  0  0  0  0  0  0  0
  140.1740   68.4470  226.8330 C   0  0  0  0  0  0  0  0  0  0  0  0
  140.7260   68.8640  228.0330 C   0  0  0  0  0  0  0  0  0  0  0  0
  141.0440   70.1960  228.2090 C   0  0  0  0  0  0  0  0  0  0  0  0
  140.8090   71.1070  227.1840 C   0  0  0  0  0  0  0  0  0  0  0  0
  140.2610   70.6670  226.0030 C   0  0  0  0  0  0  0  0  0  0  0  0
  140.0170   71.5100  224.9890 N   0  0  0  0  0  0  0  0  0  0  0  0
  139.4840   71.1260  223.8170 C   0  0  0  0  0  0  0  0  0  0  0  0
  139.2770   72.1710  222.7980 C   0  0  0  0  0  0  0  0  0  0  0  0
  140.3000   72.8650  222.3450 C   0  0  0  0  0  0  0  0  0  0  0  0
  141.0460   72.5450  221.1400 C   0  0  0  0  0  0  0  0  0  0  0  0
  140.8760   73.1870  219.9330 C   0  0  0  0  0  0  0  0  0  0  0  0
  141.6080   72.8550  218.8120 C   0  0  0  0  0  0  0  0  0  0  0  0
  142.5560   71.8520  218.8430 C   0  0  0  0  0  0  0  0  0  0  0  0
  142.7350   71.2030  220.0420 C   0  0  0  0  0  0  0  0  0  0  0  0
  143.7580   70.1240  220.0840 C   0  0  0  0  0  0  0  0  0  0  0  0
  143.7300   69.2430  218.9610 N   0  0  0  0  0  0  0  0  0  0  0  0
  143.7810   67.8510  219.3650 C   0  0  0  0  0  0  0  0  0  0  0  0
  145.1520   67.5480  219.8780 C   0  0  0  0  0  0  0  0  0  0  0  0
  146.0610   68.5550  219.6790 O   0  0  0  0  0  0  0  0  0  0  0  0
  146.1100   68.9670  218.3470 C   0  0  0  0  0  0  0  0  0  0  0  0
  144.7340   69.4600  217.9670 C   0  0  0  0  0  0  0  0  0  0  0  0
  142.0030   71.5350  221.1650 C   0  0  0  0  0  0  0  0  0  0  0  0
  139.1590   69.8400  223.6010 N   0  0  0  0  0  0  0  0  0  0  0  0
  138.5740   69.4100  222.3540 C   0  0  0  0  0  0  0  0  0  0  0  0
  139.6520   69.0280  221.3540 C   0  0  0  0  0  0  0  0  0  0  0  0
  139.5840   67.5780  220.9800 C   0  0  0  0  0  0  0  0  0  0  0  0
  140.6990   67.2340  219.9940 C   0  0  0  0  0  0  0  0  0  0  0  0
  140.7540   68.2130  218.9300 N   0  0  0  0  0  0  0  0  0  0  0  0
  139.5520   69.0200  218.9020 C   0  0  0  0  0  0  0  0  0  0  0  0
  139.5200   69.8850  220.1260 C   0  0  0  0  0  0  0  0  0  0  0  0
  139.9197   67.3863  226.6906 H   0  0  0  0  0  0  0  0  0  0  0  0
  140.9097   68.1393  228.8399 H   0  0  0  0  0  0  0  0  0  0  0  0
  141.4827   70.5366  229.1585 H   0  0  0  0  0  0  0  0  0  0  0  0
  141.0595   72.1697  227.3177 H   0  0  0  0  0  0  0  0  0  0  0  0
  138.2654   72.3714  222.4152 H   0  0  0  0  0  0  0  0  0  0  0  0
  140.6120   73.7497  222.9195 H   0  0  0  0  0  0  0  0  0  0  0  0
  140.1304   73.9925  219.8607 H   0  0  0  0  0  0  0  0  0  0  0  0
  141.4326   73.4011  217.8734 H   0  0  0  0  0  0  0  0  0  0  0  0
  143.1407   71.5845  217.9505 H   0  0  0  0  0  0  0  0  0  0  0  0
  144.7519   70.5933  220.1288 H   0  0  0  0  0  0  0  0  0  0  0  0
  143.5335   69.5118  220.9699 H   0  0  0  0  0  0  0  0  0  0  0  0
  143.0409   67.6689  220.1582 H   0  0  0  0  0  0  0  0  0  0  0  0
  143.5522   67.2038  218.5055 H   0  0  0  0  0  0  0  0  0  0  0  0
  145.0814   67.3554  220.9587 H   0  0  0  0  0  0  0  0  0  0  0  0
  145.5159   66.6770  219.3132 H   0  0  0  0  0  0  0  0  0  0  0  0
  146.8434   69.7789  218.2329 H   0  0  0  0  0  0  0  0  0  0  0  0
  146.4131   68.1329  217.6970 H   0  0  0  0  0  0  0  0  0  0  0  0
  144.7978   70.5410  217.7737 H   0  0  0  0  0  0  0  0  0  0  0  0
  144.4282   68.8816  217.0827 H   0  0  0  0  0  0  0  0  0  0  0  0
  142.1808   70.9876  222.1024 H   0  0  0  0  0  0  0  0  0  0  0  0
  137.9297   68.5381  222.5400 H   0  0  0  0  0  0  0  0  0  0  0  0
  137.9852   70.2402  221.9368 H   0  0  0  0  0  0  0  0  0  0  0  0
  140.6302   69.1972  221.8278 H   0  0  0  0  0  0  0  0  0  0  0  0
  139.6974   66.9636  221.8854 H   0  0  0  0  0  0  0  0  0  0  0  0
  138.6118   67.3748  220.5072 H   0  0  0  0  0  0  0  0  0  0  0  0
  141.6619   67.2228  220.5258 H   0  0  0  0  0  0  0  0  0  0  0  0
  140.4955   66.2450  219.5575 H   0  0  0  0  0  0  0  0  0  0  0  0
  141.5800   68.8410  219.0550 H   0  0  0  0  0  0  0  0  0  0  0  0
  139.5529   69.6529  218.0023 H   0  0  0  0  0  0  0  0  0  0  0  0
  138.6658   68.3686  218.8824 H   0  0  0  0  0  0  0  0  0  0  0  0
  140.3532   70.6022  220.0891 H   0  0  0  0  0  0  0  0  0  0  0  0
  138.5654   70.4303  220.1625 H   0  0  0  0  0  0  0  0  0  0  0  0
  1  2  2  0
  2  3  1  0
  3  4  2  0
  4  5  1  0
  5  6  2  0
  6  7  1  0
  7  8  2  0
  8  9  1  0
  9 10  2  0
 10 11  1  0
 11 12  2  0
 12 13  1  0
 13 14  2  0
 14 15  1  0
 15 16  2  0
 16 17  1  0
 17 18  1  0
 18 19  1  0
 19 20  1  0
 20 21  1  0
 21 22  1  0
 22 23  1  0
 23 24  1  0
 17 25  2  0
 10 26  1  0
 26 27  1  0
 27 28  1  0
 28 29  1  0
 29 30  1  0
 30 31  1  0
 31 32  1  0
 32 33  1  0
 26  2  1  0
 33 28  1  0
  8  3  1  0
 25 13  1  0
 24 19  1  0
  4 34  1  0
  5 35  1  0
  6 36  1  0
  7 37  1  0
 11 38  1  0
 12 39  1  0
 14 40  1  0
 15 41  1  0
 16 42  1  0
 18 43  1  0
 18 44  1  0
 20 45  1  0
 20 46  1  0
 21 47  1  0
 21 48  1  0
 23 49  1  0
 23 50  1  0
 24 51  1  0
 24 52  1  0
 25 53  1  0
 27 54  1  0
 27 55  1  0
 28 56  1  0
 29 57  1  0
 29 58  1  0
 30 59  1  0
 30 60  1  0
 31 61  1  0
 32 62  1  0
 32 63  1  0
 33 64  1  0
 33 65  1  0
M  END
>  <smiles>  (18) 
O=c1c2ccccc2nc(/C=C/c2cccc(CN3CCOCC3)c2)n1CC1CCNCC1

>  <score_type>  (18) 
oracle

>  <origin>  (18) 
autodockgpu

>  <m_score__min__energy>  (18) 
-9.6400000000000006

>  <m_primary>  (18) 
energy

>  <rmsd>  (18) 
12.333653470499693

>  <m_score__min__rmsd>  (18) 
12.333653470499693

>  <meeko>  (18) 
{"free_energy": -6.97, "intermolecular_energy": -9.05, "internal_energy": -3.26, "cluster_size": 4, "cluster_id": 9, "rank_in_cluster": 3}

>  <energy>  (18) 
-8.03

>  <cluster_rmsd>  (18) 
1.81

>  <cluster>  (18) 
1

$$$$

     RDKit          3D

 65 69  0  0  0  0  0  0  0  0999 V2000
  142.6230   77.5500  219.0210 O   0  0  0  0  0  0  0  0  0  0  0  0
  142.0680   77.0440  220.0360 C   0  0  0  0  0  0  0  0  0  0  0  0
  141.6320   77.9630  220.9900 C   0  0  0  0  0  0  0  0  0  0  0  0
  141.7990   79.3210  220.8280 C   0  0  0  0  0  0  0  0  0  0  0  0
  141.3560   80.2080  221.7940 C   0  0  0  0  0  0  0  0  0  0  0  0
  140.7400   79.7250  222.9310 C   0  0  0  0  0  0  0  0  0  0  0  0
  140.5710   78.3530  223.0980 C   0  0  0  0  0  0  0  0  0  0  0  0
  141.0190   77.4950  222.1240 C   0  0  0  0  0  0  0  0  0  0  0  0
  140.8760   76.1660  222.2440 N   0  0  0  0  0  0  0  0  0  0  0  0
  141.2980   75.2880  221.3180 C   0  0  0  0  0  0  0  0  0  0  0  0
  141.0680   73.8580  221.5930 C   0  0  0  0  0  0  0  0  0  0  0  0
  139.8510   73.3600  221.5320 C   0  0  0  0  0  0  0  0  0  0  0  0
  139.4530   72.0820  222.0950 C   0  0  0  0  0  0  0  0  0  0  0  0
  138.9040   71.0530  221.3620 C   0  0  0  0  0  0  0  0  0  0  0  0
  138.5420   69.8510  221.9340 C   0  0  0  0  0  0  0  0  0  0  0  0
  138.7120   69.6170  223.2840 C   0  0  0  0  0  0  0  0  0  0  0  0
  139.2590   70.6370  224.0270 C   0  0  0  0  0  0  0  0  0  0  0  0
  139.4500   70.3900  225.4820 C   0  0  0  0  0  0  0  0  0  0  0  0
  140.8130   70.4030  225.9060 N   0  0  0  0  0  0  0  0  0  0  0  0
  141.1030   69.3150  226.8220 C   0  0  0  0  0  0  0  0  0  0  0  0
  140.4370   69.5970  228.1300 C   0  0  0  0  0  0  0  0  0  0  0  0
  139.8920   70.8520  228.2250 O   0  0  0  0  0  0  0  0  0  0  0  0
  140.8110   71.8520  227.9100 C   0  0  0  0  0  0  0  0  0  0  0  0
  141.2780   71.6200  226.4920 C   0  0  0  0  0  0  0  0  0  0  0  0
  139.6220   71.8400  223.4540 C   0  0  0  0  0  0  0  0  0  0  0  0
  141.9030   75.7140  220.1960 N   0  0  0  0  0  0  0  0  0  0  0  0
  142.3740   74.7860  219.1960 C   0  0  0  0  0  0  0  0  0  0  0  0
  143.8810   74.6130  219.2860 C   0  0  0  0  0  0  0  0  0  0  0  0
  144.2900   73.8830  220.5300 C   0  0  0  0  0  0  0  0  0  0  0  0
  145.8110   73.7540  220.5910 C   0  0  0  0  0  0  0  0  0  0  0  0
  146.3310   73.2890  219.3220 N   0  0  0  0  0  0  0  0  0  0  0  0
  145.2720   72.7550  218.4900 C   0  0  0  0  0  0  0  0  0  0  0  0
  144.3720   73.8770  218.0700 C   0  0  0  0  0  0  0  0  0  0  0  0
  142.2896   79.7045  219.9212 H   0  0  0  0  0  0  0  0  0  0  0  0
  141.4939   81.2906  221.6565 H   0  0  0  0  0  0  0  0  0  0  0  0
  140.3835   80.4224  223.7033 H   0  0  0  0  0  0  0  0  0  0  0  0
  140.0830   77.9600  224.0021 H   0  0  0  0  0  0  0  0  0  0  0  0
  141.9155   73.2055  221.8498 H   0  0  0  0  0  0  0  0  0  0  0  0
  139.0809   73.9541  221.0181 H   0  0  0  0  0  0  0  0  0  0  0  0
  138.7488   71.1948  220.2823 H   0  0  0  0  0  0  0  0  0  0  0  0
  138.1088   69.0624  221.3012 H   0  0  0  0  0  0  0  0  0  0  0  0
  138.4236   68.6601  223.7436 H   0  0  0  0  0  0  0  0  0  0  0  0
  138.9088   71.1699  226.0378 H   0  0  0  0  0  0  0  0  0  0  0  0
  139.0673   69.3785  225.6827 H   0  0  0  0  0  0  0  0  0  0  0  0
  140.7197   68.3708  226.4078 H   0  0  0  0  0  0  0  0  0  0  0  0
  142.1899   69.2277  226.9669 H   0  0  0  0  0  0  0  0  0  0  0  0
  139.6330   68.8601  228.2735 H   0  0  0  0  0  0  0  0  0  0  0  0
  141.2176   69.5324  228.9023 H   0  0  0  0  0  0  0  0  0  0  0  0
  140.3319   72.8390  227.9894 H   0  0  0  0  0  0  0  0  0  0  0  0
  141.6633   71.8233  228.6048 H   0  0  0  0  0  0  0  0  0  0  0  0
  140.9235   72.4569  225.8724 H   0  0  0  0  0  0  0  0  0  0  0  0
  142.3749   71.5484  226.5320 H   0  0  0  0  0  0  0  0  0  0  0  0
  140.0558   72.6268  224.0887 H   0  0  0  0  0  0  0  0  0  0  0  0
  141.8893   73.8110  219.3523 H   0  0  0  0  0  0  0  0  0  0  0  0
  142.1240   75.1834  218.2012 H   0  0  0  0  0  0  0  0  0  0  0  0
  144.3362   75.6134  219.3302 H   0  0  0  0  0  0  0  0  0  0  0  0
  143.9371   74.4399  221.4105 H   0  0  0  0  0  0  0  0  0  0  0  0
  143.8450   72.8771  220.5182 H   0  0  0  0  0  0  0  0  0  0  0  0
  146.2487   74.7359  220.8238 H   0  0  0  0  0  0  0  0  0  0  0  0
  146.0757   73.0265  221.3724 H   0  0  0  0  0  0  0  0  0  0  0  0
  146.7990   74.0710  218.8120 H   0  0  0  0  0  0  0  0  0  0  0  0
  145.7071   72.2776  217.5996 H   0  0  0  0  0  0  0  0  0  0  0  0
  144.6962   72.0067  219.0544 H   0  0  0  0  0  0  0  0  0  0  0  0
  144.9291   74.5703  217.4227 H   0  0  0  0  0  0  0  0  0  0  0  0
  143.5122   73.4684  217.5188 H   0  0  0  0  0  0  0  0  0  0  0  0
  1  2  2  0
  2  3  1  0
  3  4  2  0
  4  5  1  0
  5  6  2  0
  6  7  1  0
  7  8  2  0
  8  9  1  0
  9 10  2  0
 10 11  1  0
 11 12  2  0
 12 13  1  0
 13 14  2  0
 14 15  1  0
 15 16  2  0
 16 17  1  0
 17 18  1  0
 18 19  1  0
 19 20  1  0
 20 21  1  0
 21 22  1  0
 22 23  1  0
 23 24  1  0
 17 25  2  0
 10 26  1  0
 26 27  1  0
 27 28  1  0
 28 29  1  0
 29 30  1  0
 30 31  1  0
 31 32  1  0
 32 33  1  0
 26  2  1  0
 33 28  1  0
  8  3  1  0
 25 13  1  0
 24 19  1  0
  4 34  1  0
  5 35  1  0
  6 36  1  0
  7 37  1  0
 11 38  1  0
 12 39  1  0
 14 40  1  0
 15 41  1  0
 16 42  1  0
 18 43  1  0
 18 44  1  0
 20 45  1  0
 20 46  1  0
 21 47  1  0
 21 48  1  0
 23 49  1  0
 23 50  1  0
 24 51  1  0
 24 52  1  0
 25 53  1  0
 27 54  1  0
 27 55  1  0
 28 56  1  0
 29 57  1  0
 29 58  1  0
 30 59  1  0
 30 60  1  0
 31 61  1  0
 32 62  1  0
 32 63  1  0
 33 64  1  0
 33 65  1  0
M  END
>  <smiles>  (19) 
O=c1c2ccccc2nc(/C=C/c2cccc(CN3CCOCC3)c2)n1CC1CCNCC1

>  <score_type>  (19) 
oracle

>  <origin>  (19) 
autodockgpu

>  <m_score__min__energy>  (19) 
-9.6400000000000006

>  <m_primary>  (19) 
energy

>  <rmsd>  (19) 
7.577265134432423

>  <m_score__min__rmsd>  (19) 
7.577265134432423

>  <meeko>  (19) 
{"free_energy": -9.59, "intermolecular_energy": -11.68, "internal_energy": -1.49, "cluster_size": 18, "cluster_id": 1, "rank_in_cluster": 3}

>  <energy>  (19) 
-9.12

>  <cluster_rmsd>  (19) 
0.0

>  <cluster>  (19) 
2

$$$$

     RDKit          3D

 65 69  0  0  0  0  0  0  0  0999 V2000
  142.5650   75.4110  218.6620 O   0  0  0  0  0  0  0  0  0  0  0  0
  142.0090   75.2330  219.7810 C   0  0  0  0  0  0  0  0  0  0  0  0
  141.6790   76.4000  220.4690 C   0  0  0  0  0  0  0  0  0  0  0  0
  141.9430   77.6510  219.9560 C   0  0  0  0  0  0  0  0  0  0  0  0
  141.6030   78.7920  220.6630 C   0  0  0  0  0  0  0  0  0  0  0  0
  140.9930   78.6720  221.8950 C   0  0  0  0  0  0  0  0  0  0  0  0
  140.7250   77.4090  222.4170 C   0  0  0  0  0  0  0  0  0  0  0  0
  141.0720   76.2940  221.6940 C   0  0  0  0  0  0  0  0  0  0  0  0
  140.8320   75.0580  222.1580 N   0  0  0  0  0  0  0  0  0  0  0  0
  141.1530   73.9380  221.4880 C   0  0  0  0  0  0  0  0  0  0  0  0
  140.8250   72.6520  222.1290 C   0  0  0  0  0  0  0  0  0  0  0  0
  139.6230   72.1320  221.9910 C   0  0  0  0  0  0  0  0  0  0  0  0
  139.2230   70.8320  222.5000 C   0  0  0  0  0  0  0  0  0  0  0  0
  138.6790   69.8330  221.7230 C   0  0  0  0  0  0  0  0  0  0  0  0
  138.3150   68.6090  222.2460 C   0  0  0  0  0  0  0  0  0  0  0  0
  138.4780   68.3210  223.5860 C   0  0  0  0  0  0  0  0  0  0  0  0
  139.0190   69.3120  224.3720 C   0  0  0  0  0  0  0  0  0  0  0  0
  139.2020   69.0070  225.8170 C   0  0  0  0  0  0  0  0  0  0  0  0
  140.5570   69.0630  226.2630 N   0  0  0  0  0  0  0  0  0  0  0  0
  140.7730   68.2380  227.4360 C   0  0  0  0  0  0  0  0  0  0  0  0
  140.1040   68.8820  228.6080 C   0  0  0  0  0  0  0  0  0  0  0  0
  139.6260   70.1430  228.3580 O   0  0  0  0  0  0  0  0  0  0  0  0
  140.6040   70.9820  227.8220 C   0  0  0  0  0  0  0  0  0  0  0  0
  141.0790   70.3670  226.5260 C   0  0  0  0  0  0  0  0  0  0  0  0
  139.3840   70.5360  223.8500 C   0  0  0  0  0  0  0  0  0  0  0  0
  141.7480   74.0070  220.2850 N   0  0  0  0  0  0  0  0  0  0  0  0
  142.1120   72.8170  219.5550 C   0  0  0  0  0  0  0  0  0  0  0  0
  143.4840   72.3200  219.9800 C   0  0  0  0  0  0  0  0  0  0  0  0
  144.2780   71.8000  218.8200 C   0  0  0  0  0  0  0  0  0  0  0  0
  145.6360   71.2880  219.2970 C   0  0  0  0  0  0  0  0  0  0  0  0
  146.2610   72.2540  220.1760 N   0  0  0  0  0  0  0  0  0  0  0  0
  145.6080   73.5430  220.0800 C   0  0  0  0  0  0  0  0  0  0  0  0
  144.2300   73.4340  220.6600 C   0  0  0  0  0  0  0  0  0  0  0  0
  142.4293   77.7445  218.9738 H   0  0  0  0  0  0  0  0  0  0  0  0
  141.8176   79.7869  220.2456 H   0  0  0  0  0  0  0  0  0  0  0  0
  140.7188   79.5726  222.4639 H   0  0  0  0  0  0  0  0  0  0  0  0
  140.2401   77.3054  223.3989 H   0  0  0  0  0  0  0  0  0  0  0  0
  141.5858   72.1255  222.7239 H   0  0  0  0  0  0  0  0  0  0  0  0
  138.8687   72.7241  221.4521 H   0  0  0  0  0  0  0  0  0  0  0  0
  138.5296   70.0173  220.6489 H   0  0  0  0  0  0  0  0  0  0  0  0
  137.8854   67.8459  221.5803 H   0  0  0  0  0  0  0  0  0  0  0  0
  138.1892   67.3459  224.0053 H   0  0  0  0  0  0  0  0  0  0  0  0
  138.6175   69.7346  226.3992 H   0  0  0  0  0  0  0  0  0  0  0  0
  138.8646   67.9705  225.9650 H   0  0  0  0  0  0  0  0  0  0  0  0
  140.3447   67.2386  227.2690 H   0  0  0  0  0  0  0  0  0  0  0  0
  141.8513   68.1384  227.6294 H   0  0  0  0  0  0  0  0  0  0  0  0
  139.2597   68.2474  228.9152 H   0  0  0  0  0  0  0  0  0  0  0  0
  140.8681   68.9828  229.3928 H   0  0  0  0  0  0  0  0  0  0  0  0
  140.1785   71.9780  227.6299 H   0  0  0  0  0  0  0  0  0  0  0  0
  141.4427   71.0934  228.5250 H   0  0  0  0  0  0  0  0  0  0  0  0
  140.7794   71.0299  225.7009 H   0  0  0  0  0  0  0  0  0  0  0  0
  142.1698   70.2557  226.6136 H   0  0  0  0  0  0  0  0  0  0  0  0
  139.8132   71.2972  224.5181 H   0  0  0  0  0  0  0  0  0  0  0  0
  141.3673   72.0316  219.7517 H   0  0  0  0  0  0  0  0  0  0  0  0
  142.1415   73.0575  218.4820 H   0  0  0  0  0  0  0  0  0  0  0  0
  143.3408   71.4823  220.6784 H   0  0  0  0  0  0  0  0  0  0  0  0
  143.7267   70.9767  218.3423 H   0  0  0  0  0  0  0  0  0  0  0  0
  144.4352   72.6153  218.0985 H   0  0  0  0  0  0  0  0  0  0  0  0
  145.4959   70.3417  219.8400 H   0  0  0  0  0  0  0  0  0  0  0  0
  146.2844   71.1305  218.4225 H   0  0  0  0  0  0  0  0  0  0  0  0
  146.2170   71.9260  221.1670 H   0  0  0  0  0  0  0  0  0  0  0  0
  146.1862   74.2924  220.6404 H   0  0  0  0  0  0  0  0  0  0  0  0
  145.5452   73.8513  219.0259 H   0  0  0  0  0  0  0  0  0  0  0  0
  144.3017   73.2227  221.7371 H   0  0  0  0  0  0  0  0  0  0  0  0
  143.6925   74.3813  220.5059 H   0  0  0  0  0  0  0  0  0  0  0  0
  1  2  2  0
  2  3  1  0
  3  4  2  0
  4  5  1  0
  5  6  2  0
  6  7  1  0
  7  8  2  0
  8  9  1  0
  9 10  2  0
 10 11  1  0
 11 12  2  0
 12 13  1  0
 13 14  2  0
 14 15  1  0
 15 16  2  0
 16 17  1  0
 17 18  1  0
 18 19  1  0
 19 20  1  0
 20 21  1  0
 21 22  1  0
 22 23  1  0
 23 24  1  0
 17 25  2  0
 10 26  1  0
 26 27  1  0
 27 28  1  0
 28 29  1  0
 29 30  1  0
 30 31  1  0
 31 32  1  0
 32 33  1  0
 26  2  1  0
 33 28  1  0
  8  3  1  0
 25 13  1  0
 24 19  1  0
  4 34  1  0
  5 35  1  0
  6 36  1  0
  7 37  1  0
 11 38  1  0
 12 39  1  0
 14 40  1  0
 15 41  1  0
 16 42  1  0
 18 43  1  0
 18 44  1  0
 20 45  1  0
 20 46  1  0
 21 47  1  0
 21 48  1  0
 23 49  1  0
 23 50  1  0
 24 51  1  0
 24 52  1  0
 25 53  1  0
 27 54  1  0
 27 55  1  0
 28 56  1  0
 29 57  1  0
 29 58  1  0
 30 59  1  0
 30 60  1  0
 31 61  1  0
 32 62  1  0
 32 63  1  0
 33 64  1  0
 33 65  1  0
M  END
>  <smiles>  (20) 
O=c1c2ccccc2nc(/C=C/c2cccc(CN3CCOCC3)c2)n1CC1CCNCC1

>  <score_type>  (20) 
oracle

>  <origin>  (20) 
autodockgpu

>  <m_score__min__energy>  (20) 
-9.6400000000000006

>  <m_primary>  (20) 
energy

>  <rmsd>  (20) 
8.021975171862206

>  <m_score__min__rmsd>  (20) 
8.021975171862206

>  <meeko>  (20) 
{"free_energy": -8.73, "intermolecular_energy": -10.81, "internal_energy": -1.43, "cluster_size": 18, "cluster_id": 1, "rank_in_cluster": 15}

>  <energy>  (20) 
-8.87

>  <cluster_rmsd>  (20) 
0.77

>  <cluster>  (20) 
2

$$$$

     RDKit          3D

 65 69  0  0  0  0  0  0  0  0999 V2000
  142.8490   77.5060  219.2960 O   0  0  0  0  0  0  0  0  0  0  0  0
  142.0930   76.9270  220.1240 C   0  0  0  0  0  0  0  0  0  0  0  0
  141.5880   77.7440  221.1340 C   0  0  0  0  0  0  0  0  0  0  0  0
  141.8980   79.0840  221.2140 C   0  0  0  0  0  0  0  0  0  0  0  0
  141.3810   79.8710  222.2300 C   0  0  0  0  0  0  0  0  0  0  0  0
  140.5460   79.3030  223.1720 C   0  0  0  0  0  0  0  0  0  0  0  0
  140.2320   77.9490  223.0950 C   0  0  0  0  0  0  0  0  0  0  0  0
  140.7580   77.1920  222.0760 C   0  0  0  0  0  0  0  0  0  0  0  0
  140.4820   75.8840  221.9630 N   0  0  0  0  0  0  0  0  0  0  0  0
  140.9720   75.1040  220.9850 C   0  0  0  0  0  0  0  0  0  0  0  0
  140.5760   73.6840  220.9950 C   0  0  0  0  0  0  0  0  0  0  0  0
  140.9670   72.8950  221.9740 C   0  0  0  0  0  0  0  0  0  0  0  0
  140.0710   72.1470  222.8390 C   0  0  0  0  0  0  0  0  0  0  0  0
  138.7600   71.8610  222.5300 C   0  0  0  0  0  0  0  0  0  0  0  0
  137.9420   71.1440  223.3790 C   0  0  0  0  0  0  0  0  0  0  0  0
  138.4020   70.6730  224.5920 C   0  0  0  0  0  0  0  0  0  0  0  0
  139.7100   70.9520  224.9120 C   0  0  0  0  0  0  0  0  0  0  0  0
  140.2130   70.4440  226.2170 C   0  0  0  0  0  0  0  0  0  0  0  0
  139.3590   69.4860  226.8440 N   0  0  0  0  0  0  0  0  0  0  0  0
  139.6950   69.2960  228.2420 C   0  0  0  0  0  0  0  0  0  0  0  0
  140.9940   68.5600  228.3290 C   0  0  0  0  0  0  0  0  0  0  0  0
  141.4520   68.0850  227.1270 O   0  0  0  0  0  0  0  0  0  0  0  0
  140.4930   67.3220  226.4610 C   0  0  0  0  0  0  0  0  0  0  0  0
  139.2900   68.2030  226.2190 C   0  0  0  0  0  0  0  0  0  0  0  0
  140.5280   71.6690  224.0630 C   0  0  0  0  0  0  0  0  0  0  0  0
  141.7880   75.6140  220.0460 N   0  0  0  0  0  0  0  0  0  0  0  0
  142.3340   74.7900  218.9950 C   0  0  0  0  0  0  0  0  0  0  0  0
  143.8330   74.6130  219.1710 C   0  0  0  0  0  0  0  0  0  0  0  0
  144.1690   73.8780  220.4330 C   0  0  0  0  0  0  0  0  0  0  0  0
  145.6840   73.7460  220.5800 C   0  0  0  0  0  0  0  0  0  0  0  0
  146.2740   73.2840  219.3410 N   0  0  0  0  0  0  0  0  0  0  0  0
  145.2630   72.7540  218.4500 C   0  0  0  0  0  0  0  0  0  0  0  0
  144.3910   73.8790  217.9820 C   0  0  0  0  0  0  0  0  0  0  0  0
  142.5635   79.5340  220.4626 H   0  0  0  0  0  0  0  0  0  0  0  0
  141.6336   80.9401  222.2860 H   0  0  0  0  0  0  0  0  0  0  0  0
  140.1296   79.9197  223.9821 H   0  0  0  0  0  0  0  0  0  0  0  0
  139.5690   77.4894  223.8428 H   0  0  0  0  0  0  0  0  0  0  0  0
  139.9524   73.2826  220.1826 H   0  0  0  0  0  0  0  0  0  0  0  0
  142.0483   72.7952  222.1493 H   0  0  0  0  0  0  0  0  0  0  0  0
  138.3505   72.2165  221.5730 H   0  0  0  0  0  0  0  0  0  0  0  0
  136.9017   70.9437  223.0829 H   0  0  0  0  0  0  0  0  0  0  0  0
  137.7526   70.1011  225.2711 H   0  0  0  0  0  0  0  0  0  0  0  0
  141.1931   69.9737  226.0489 H   0  0  0  0  0  0  0  0  0  0  0  0
  140.2644   71.3101  226.8932 H   0  0  0  0  0  0  0  0  0  0  0  0
  139.7905   70.2743  228.7357 H   0  0  0  0  0  0  0  0  0  0  0  0
  138.9035   68.7182  228.7418 H   0  0  0  0  0  0  0  0  0  0  0  0
  141.7510   69.2436  228.7409 H   0  0  0  0  0  0  0  0  0  0  0  0
  140.8184   67.6831  228.9695 H   0  0  0  0  0  0  0  0  0  0  0  0
  140.8969   66.9679  225.5011 H   0  0  0  0  0  0  0  0  0  0  0  0
  140.2128   66.4453  227.0634 H   0  0  0  0  0  0  0  0  0  0  0  0
  139.1879   68.3545  225.1343 H   0  0  0  0  0  0  0  0  0  0  0  0
  138.4282   67.6844  226.6643 H   0  0  0  0  0  0  0  0  0  0  0  0
  141.5679   71.8677  224.3616 H   0  0  0  0  0  0  0  0  0  0  0  0
  141.8488   73.8031  219.0217 H   0  0  0  0  0  0  0  0  0  0  0  0
  142.1483   75.2822  218.0289 H   0  0  0  0  0  0  0  0  0  0  0  0
  144.2868   75.6123  219.2451 H   0  0  0  0  0  0  0  0  0  0  0  0
  143.7674   74.4323  221.2941 H   0  0  0  0  0  0  0  0  0  0  0  0
  143.7237   72.8730  220.3921 H   0  0  0  0  0  0  0  0  0  0  0  0
  146.1095   74.7264  220.8404 H   0  0  0  0  0  0  0  0  0  0  0  0
  145.9028   73.0157  221.3730 H   0  0  0  0  0  0  0  0  0  0  0  0
  146.7720   74.0660  218.8610 H   0  0  0  0  0  0  0  0  0  0  0  0
  145.7466   72.2770  217.5848 H   0  0  0  0  0  0  0  0  0  0  0  0
  144.6545   72.0060  218.9794 H   0  0  0  0  0  0  0  0  0  0  0  0
  144.9856   74.5727  217.3695 H   0  0  0  0  0  0  0  0  0  0  0  0
  143.5634   73.4742  217.3811 H   0  0  0  0  0  0  0  0  0  0  0  0
  1  2  2  0
  2  3  1  0
  3  4  2  0
  4  5  1  0
  5  6  2  0
  6  7  1  0
  7  8  2  0
  8  9  1  0
  9 10  2  0
 10 11  1  0
 11 12  2  0
 12 13  1  0
 13 14  2  0
 14 15  1  0
 15 16  2  0
 16 17  1  0
 17 18  1  0
 18 19  1  0
 19 20  1  0
 20 21  1  0
 21 22  1  0
 22 23  1  0
 23 24  1  0
 17 25  2  0
 10 26  1  0
 26 27  1  0
 27 28  1  0
 28 29  1  0
 29 30  1  0
 30 31  1  0
 31 32  1  0
 32 33  1  0
 26  2  1  0
 33 28  1  0
  8  3  1  0
 25 13  1  0
 24 19  1  0
  4 34  1  0
  5 35  1  0
  6 36  1  0
  7 37  1  0
 11 38  1  0
 12 39  1  0
 14 40  1  0
 15 41  1  0
 16 42  1  0
 18 43  1  0
 18 44  1  0
 20 45  1  0
 20 46  1  0
 21 47  1  0
 21 48  1  0
 23 49  1  0
 23 50  1  0
 24 51  1  0
 24 52  1  0
 25 53  1  0
 27 54  1  0
 27 55  1  0
 28 56  1  0
 29 57  1  0
 29 58  1  0
 30 59  1  0
 30 60  1  0
 31 61  1  0
 32 62  1  0
 32 63  1  0
 33 64  1  0
 33 65  1  0
M  END
>  <smiles>  (21) 
O=c1c2ccccc2nc(/C=C/c2cccc(CN3CCOCC3)c2)n1CC1CCNCC1

>  <score_type>  (21) 
oracle

>  <origin>  (21) 
autodockgpu

>  <m_score__min__energy>  (21) 
-9.6400000000000006

>  <m_primary>  (21) 
energy

>  <rmsd>  (21) 
7.596024276617509

>  <m_score__min__rmsd>  (21) 
7.596024276617509

>  <meeko>  (21) 
{"free_energy": -9.64, "intermolecular_energy": -11.72, "internal_energy": -1.52, "cluster_size": 18, "cluster_id": 1, "rank_in_cluster": 1}

>  <energy>  (21) 
-8.79

>  <cluster_rmsd>  (21) 
0.78

>  <cluster>  (21) 
2

$$$$

     RDKit          3D

 65 69  0  0  0  0  0  0  0  0999 V2000
  139.0870   68.0010  225.2380 O   0  0  0  0  0  0  0  0  0  0  0  0
  139.4770   69.1730  224.9780 C   0  0  0  0  0  0  0  0  0  0  0  0
  140.0550   69.8540  226.0490 C   0  0  0  0  0  0  0  0  0  0  0  0
  140.1860   69.2800  227.2940 C   0  0  0  0  0  0  0  0  0  0  0  0
  140.7650   69.9820  228.3390 C   0  0  0  0  0  0  0  0  0  0  0  0
  141.2140   71.2700  228.1260 C   0  0  0  0  0  0  0  0  0  0  0  0
  141.0820   71.8530  226.8690 C   0  0  0  0  0  0  0  0  0  0  0  0
  140.5050   71.1340  225.8500 C   0  0  0  0  0  0  0  0  0  0  0  0
  140.3580   71.6560  224.6230 N   0  0  0  0  0  0  0  0  0  0  0  0
  139.8000   70.9920  223.5960 C   0  0  0  0  0  0  0  0  0  0  0  0
  139.7100   71.7000  222.3070 C   0  0  0  0  0  0  0  0  0  0  0  0
  139.4280   72.9860  222.2770 C   0  0  0  0  0  0  0  0  0  0  0  0
  140.2750   74.0030  221.6780 C   0  0  0  0  0  0  0  0  0  0  0  0
  141.3450   73.7300  220.8550 C   0  0  0  0  0  0  0  0  0  0  0  0
  142.1240   74.7260  220.3030 C   0  0  0  0  0  0  0  0  0  0  0  0
  141.8670   76.0600  220.5500 C   0  0  0  0  0  0  0  0  0  0  0  0
  140.8010   76.3450  221.3710 C   0  0  0  0  0  0  0  0  0  0  0  0
  140.5160   77.7820  221.6380 C   0  0  0  0  0  0  0  0  0  0  0  0
  141.6610   78.5480  222.0110 N   0  0  0  0  0  0  0  0  0  0  0  0
  141.7350   78.7420  223.4470 C   0  0  0  0  0  0  0  0  0  0  0  0
  140.6590   79.6930  223.8610 C   0  0  0  0  0  0  0  0  0  0  0  0
  140.0010   80.2870  222.8150 O   0  0  0  0  0  0  0  0  0  0  0  0
  140.8780   80.8920  221.9150 C   0  0  0  0  0  0  0  0  0  0  0  0
  141.7980   79.8210  221.3780 C   0  0  0  0  0  0  0  0  0  0  0  0
  140.0220   75.3490  221.9230 C   0  0  0  0  0  0  0  0  0  0  0  0
  139.3500   69.7360  223.7570 N   0  0  0  0  0  0  0  0  0  0  0  0
  138.7370   69.0110  222.6700 C   0  0  0  0  0  0  0  0  0  0  0  0
  137.4110   68.4070  223.1020 C   0  0  0  0  0  0  0  0  0  0  0  0
  136.4250   69.4550  223.5220 C   0  0  0  0  0  0  0  0  0  0  0  0
  135.1200   68.8020  223.9710 C   0  0  0  0  0  0  0  0  0  0  0  0
  134.6940   67.8080  223.0080 N   0  0  0  0  0  0  0  0  0  0  0  0
  135.4090   67.9540  221.7580 C   0  0  0  0  0  0  0  0  0  0  0  0
  136.8460   67.5870  221.9750 C   0  0  0  0  0  0  0  0  0  0  0  0
  139.8273   68.2536  227.4606 H   0  0  0  0  0  0  0  0  0  0  0  0
  140.8661   69.5166  229.3306 H   0  0  0  0  0  0  0  0  0  0  0  0
  141.6757   71.8351  228.9491 H   0  0  0  0  0  0  0  0  0  0  0  0
  141.4362   72.8794  226.6930 H   0  0  0  0  0  0  0  0  0  0  0  0
  139.8788   71.1531  221.3676 H   0  0  0  0  0  0  0  0  0  0  0  0
  138.4844   73.3133  222.7381 H   0  0  0  0  0  0  0  0  0  0  0  0
  141.5871   72.6809  220.6298 H   0  0  0  0  0  0  0  0  0  0  0  0
  142.9675   74.4516  219.6525 H   0  0  0  0  0  0  0  0  0  0  0  0
  142.4854   76.8568  220.1111 H   0  0  0  0  0  0  0  0  0  0  0  0
  140.0881   78.2237  220.7259 H   0  0  0  0  0  0  0  0  0  0  0  0
  139.8242   77.8126  222.4927 H   0  0  0  0  0  0  0  0  0  0  0  0
  141.5932   77.7783  223.9580 H   0  0  0  0  0  0  0  0  0  0  0  0
  142.7195   79.1506  223.7185 H   0  0  0  0  0  0  0  0  0  0  0  0
  139.9225   79.1400  224.4625 H   0  0  0  0  0  0  0  0  0  0  0  0
  141.1500   80.4999  224.4247 H   0  0  0  0  0  0  0  0  0  0  0  0
  140.3118   81.3477  221.0893 H   0  0  0  0  0  0  0  0  0  0  0  0
  141.4577   81.6821  222.4147 H   0  0  0  0  0  0  0  0  0  0  0  0
  141.5890   79.6952  220.3054 H   0  0  0  0  0  0  0  0  0  0  0  0
  142.8243   80.1612  221.5803 H   0  0  0  0  0  0  0  0  0  0  0  0
  139.1793   75.6262  222.5735 H   0  0  0  0  0  0  0  0  0  0  0  0
  138.5626   69.6999  221.8304 H   0  0  0  0  0  0  0  0  0  0  0  0
  139.4116   68.1974  222.3650 H   0  0  0  0  0  0  0  0  0  0  0  0
  137.5979   67.7669  223.9768 H   0  0  0  0  0  0  0  0  0  0  0  0
  136.8458   70.0365  224.3555 H   0  0  0  0  0  0  0  0  0  0  0  0
  136.2196   70.1171  222.6680 H   0  0  0  0  0  0  0  0  0  0  0  0
  135.2740   68.3182  224.9468 H   0  0  0  0  0  0  0  0  0  0  0  0
  134.3431   69.5766  224.0508 H   0  0  0  0  0  0  0  0  0  0  0  0
  134.8580   66.8460  223.3810 H   0  0  0  0  0  0  0  0  0  0  0  0
  134.9683   67.2890  221.0007 H   0  0  0  0  0  0  0  0  0  0  0  0
  135.3388   68.9944  221.4078 H   0  0  0  0  0  0  0  0  0  0  0  0
  136.9169   66.5188  222.2280 H   0  0  0  0  0  0  0  0  0  0  0  0
  137.4169   67.7862  221.0561 H   0  0  0  0  0  0  0  0  0  0  0  0
  1  2  2  0
  2  3  1  0
  3  4  2  0
  4  5  1  0
  5  6  2  0
  6  7  1  0
  7  8  2  0
  8  9  1  0
  9 10  2  0
 10 11  1  0
 11 12  2  0
 12 13  1  0
 13 14  2  0
 14 15  1  0
 15 16  2  0
 16 17  1  0
 17 18  1  0
 18 19  1  0
 19 20  1  0
 20 21  1  0
 21 22  1  0
 22 23  1  0
 23 24  1  0
 17 25  2  0
 10 26  1  0
 26 27  1  0
 27 28  1  0
 28 29  1  0
 29 30  1  0
 30 31  1  0
 31 32  1  0
 32 33  1  0
 26  2  1  0
 33 28  1  0
  8  3  1  0
 25 13  1  0
 24 19  1  0
  4 34  1  0
  5 35  1  0
  6 36  1  0
  7 37  1  0
 11 38  1  0
 12 39  1  0
 14 40  1  0
 15 41  1  0
 16 42  1  0
 18 43  1  0
 18 44  1  0
 20 45  1  0
 20 46  1  0
 21 47  1  0
 21 48  1  0
 23 49  1  0
 23 50  1  0
 24 51  1  0
 24 52  1  0
 25 53  1  0
 27 54  1  0
 27 55  1  0
 28 56  1  0
 29 57  1  0
 29 58  1  0
 30 59  1  0
 30 60  1  0
 31 61  1  0
 32 62  1  0
 32 63  1  0
 33 64  1  0
 33 65  1  0
M  END
>  <smiles>  (22) 
O=c1c2ccccc2nc(/C=C/c2cccc(CN3CCOCC3)c2)n1CC1CCNCC1

>  <score_type>  (22) 
oracle

>  <origin>  (22) 
autodockgpu

>  <m_score__min__energy>  (22) 
-9.6400000000000006

>  <m_primary>  (22) 
energy

>  <rmsd>  (22) 
12.456843330850296

>  <m_score__min__rmsd>  (22) 
12.456843330850296

>  <meeko>  (22) 
{"free_energy": -8.81, "intermolecular_energy": -10.9, "internal_energy": -1.39, "cluster_size": 8, "cluster_id": 3, "rank_in_cluster": 2}

>  <energy>  (22) 
-8.75

>  <cluster_rmsd>  (22) 
0.99

>  <cluster>  (22) 
2

$$$$

     RDKit          3D

 65 69  0  0  0  0  0  0  0  0999 V2000
  138.8830   67.5980  225.4520 O   0  0  0  0  0  0  0  0  0  0  0  0
  139.3580   68.7310  225.1630 C   0  0  0  0  0  0  0  0  0  0  0  0
  139.9280   69.4220  226.2320 C   0  0  0  0  0  0  0  0  0  0  0  0
  139.9640   68.8980  227.5050 C   0  0  0  0  0  0  0  0  0  0  0  0
  140.5370   69.6090  228.5460 C   0  0  0  0  0  0  0  0  0  0  0  0
  141.0770   70.8560  228.3030 C   0  0  0  0  0  0  0  0  0  0  0  0
  141.0410   71.3880  227.0170 C   0  0  0  0  0  0  0  0  0  0  0  0
  140.4670   70.6620  226.0020 C   0  0  0  0  0  0  0  0  0  0  0  0
  140.4110   71.1360  224.7480 N   0  0  0  0  0  0  0  0  0  0  0  0
  139.8610   70.4620  223.7240 C   0  0  0  0  0  0  0  0  0  0  0  0
  139.8760   71.1160  222.4030 C   0  0  0  0  0  0  0  0  0  0  0  0
  139.4150   72.3420  222.2670 C   0  0  0  0  0  0  0  0  0  0  0  0
  140.1960   73.4690  221.7860 C   0  0  0  0  0  0  0  0  0  0  0  0
  139.7670   74.7770  221.8210 C   0  0  0  0  0  0  0  0  0  0  0  0
  140.5420   75.8200  221.3560 C   0  0  0  0  0  0  0  0  0  0  0  0
  141.7970   75.6030  220.8280 C   0  0  0  0  0  0  0  0  0  0  0  0
  142.2370   74.3000  220.7870 C   0  0  0  0  0  0  0  0  0  0  0  0
  143.5930   74.0590  220.2220 C   0  0  0  0  0  0  0  0  0  0  0  0
  144.2930   72.9680  220.8190 N   0  0  0  0  0  0  0  0  0  0  0  0
  145.5950   73.3690  221.3170 C   0  0  0  0  0  0  0  0  0  0  0  0
  146.4960   73.6300  220.1530 C   0  0  0  0  0  0  0  0  0  0  0  0
  145.9710   73.2600  218.9420 O   0  0  0  0  0  0  0  0  0  0  0  0
  145.5270   71.9370  218.9400 C   0  0  0  0  0  0  0  0  0  0  0  0
  144.4620   71.8070  220.0030 C   0  0  0  0  0  0  0  0  0  0  0  0
  141.4630   73.2560  221.2520 C   0  0  0  0  0  0  0  0  0  0  0  0
  139.3240   69.2450  223.9150 N   0  0  0  0  0  0  0  0  0  0  0  0
  138.7180   68.5110  222.8310 C   0  0  0  0  0  0  0  0  0  0  0  0
  137.2900   68.9750  222.5950 C   0  0  0  0  0  0  0  0  0  0  0  0
  136.3670   67.8300  222.3050 C   0  0  0  0  0  0  0  0  0  0  0  0
  134.9520   68.3450  222.0500 C   0  0  0  0  0  0  0  0  0  0  0  0
  134.5650   69.2930  223.0730 N   0  0  0  0  0  0  0  0  0  0  0  0
  135.4600   69.2240  224.2100 C   0  0  0  0  0  0  0  0  0  0  0  0
  136.8070   69.7360  223.7990 C   0  0  0  0  0  0  0  0  0  0  0  0
  139.5331   67.9043  227.6969 H   0  0  0  0  0  0  0  0  0  0  0  0
  140.5617   69.1830  229.5599 H   0  0  0  0  0  0  0  0  0  0  0  0
  141.5347   71.4280  229.1236 H   0  0  0  0  0  0  0  0  0  0  0  0
  141.4686   72.3813  226.8154 H   0  0  0  0  0  0  0  0  0  0  0  0
  140.2731   70.5788  221.5291 H   0  0  0  0  0  0  0  0  0  0  0  0
  138.3645   72.5259  222.5365 H   0  0  0  0  0  0  0  0  0  0  0  0
  138.7718   74.9983  222.2340 H   0  0  0  0  0  0  0  0  0  0  0  0
  140.1500   76.8465  221.4078 H   0  0  0  0  0  0  0  0  0  0  0  0
  142.4172   76.4323  220.4571 H   0  0  0  0  0  0  0  0  0  0  0  0
  143.4864   73.8528  219.1468 H   0  0  0  0  0  0  0  0  0  0  0  0
  144.1849   74.9631  220.4275 H   0  0  0  0  0  0  0  0  0  0  0  0
  145.4948   74.2839  221.9195 H   0  0  0  0  0  0  0  0  0  0  0  0
  146.0172   72.5707  221.9451 H   0  0  0  0  0  0  0  0  0  0  0  0
  146.7134   74.7078  220.1199 H   0  0  0  0  0  0  0  0  0  0  0  0
  147.3969   73.0180  220.3072 H   0  0  0  0  0  0  0  0  0  0  0  0
  145.1061   71.6848  217.9555 H   0  0  0  0  0  0  0  0  0  0  0  0
  146.3617   71.2508  219.1458 H   0  0  0  0  0  0  0  0  0  0  0  0
  143.5043   71.5947  219.5054 H   0  0  0  0  0  0  0  0  0  0  0  0
  144.7874   70.9983  220.6739 H   0  0  0  0  0  0  0  0  0  0  0  0
  141.8575   72.2305  221.1991 H   0  0  0  0  0  0  0  0  0  0  0  0
  139.3051   68.6713  221.9147 H   0  0  0  0  0  0  0  0  0  0  0  0
  138.7021   67.4432  223.0945 H   0  0  0  0  0  0  0  0  0  0  0  0
  137.2869   69.6286  221.7102 H   0  0  0  0  0  0  0  0  0  0  0  0
  136.7239   67.2921  221.4143 H   0  0  0  0  0  0  0  0  0  0  0  0
  136.3518   67.1527  223.1716 H   0  0  0  0  0  0  0  0  0  0  0  0
  134.9181   68.8387  221.0676 H   0  0  0  0  0  0  0  0  0  0  0  0
  134.2548   67.4944  222.0715 H   0  0  0  0  0  0  0  0  0  0  0  0
  134.5770   70.2650  222.6920 H   0  0  0  0  0  0  0  0  0  0  0  0
  135.0643   69.8420  225.0295 H   0  0  0  0  0  0  0  0  0  0  0  0
  135.5461   68.1827  224.5540 H   0  0  0  0  0  0  0  0  0  0  0  0
  136.7322   70.8050  223.5507 H   0  0  0  0  0  0  0  0  0  0  0  0
  137.5181   69.5993  224.6271 H   0  0  0  0  0  0  0  0  0  0  0  0
  1  2  2  0
  2  3  1  0
  3  4  2  0
  4  5  1  0
  5  6  2  0
  6  7  1  0
  7  8  2  0
  8  9  1  0
  9 10  2  0
 10 11  1  0
 11 12  2  0
 12 13  1  0
 13 14  2  0
 14 15  1  0
 15 16  2  0
 16 17  1  0
 17 18  1  0
 18 19  1  0
 19 20  1  0
 20 21  1  0
 21 22  1  0
 22 23  1  0
 23 24  1  0
 17 25  2  0
 10 26  1  0
 26 27  1  0
 27 28  1  0
 28 29  1  0
 29 30  1  0
 30 31  1  0
 31 32  1  0
 32 33  1  0
 26  2  1  0
 33 28  1  0
  8  3  1  0
 25 13  1  0
 24 19  1  0
  4 34  1  0
  5 35  1  0
  6 36  1  0
  7 37  1  0
 11 38  1  0
 12 39  1  0
 14 40  1  0
 15 41  1  0
 16 42  1  0
 18 43  1  0
 18 44  1  0
 20 45  1  0
 20 46  1  0
 21 47  1  0
 21 48  1  0
 23 49  1  0
 23 50  1  0
 24 51  1  0
 24 52  1  0
 25 53  1  0
 27 54  1  0
 27 55  1  0
 28 56  1  0
 29 57  1  0
 29 58  1  0
 30 59  1  0
 30 60  1  0
 31 61  1  0
 32 62  1  0
 32 63  1  0
 33 64  1  0
 33 65  1  0
M  END
>  <smiles>  (23) 
O=c1c2ccccc2nc(/C=C/c2cccc(CN3CCOCC3)c2)n1CC1CCNCC1

>  <score_type>  (23) 
oracle

>  <origin>  (23) 
autodockgpu

>  <m_score__min__energy>  (23) 
-9.6400000000000006

>  <m_primary>  (23) 
energy

>  <rmsd>  (23) 
12.469917374689894

>  <m_score__min__rmsd>  (23) 
12.469917374689894

>  <meeko>  (23) 
{"free_energy": -8.79, "intermolecular_energy": -10.88, "internal_energy": -1.56, "cluster_size": 5, "cluster_id": 2, "rank_in_cluster": 3}

>  <energy>  (23) 
-8.26

>  <cluster_rmsd>  (23) 
1.28

>  <cluster>  (23) 
2

$$$$

     RDKit          3D

 65 69  0  0  0  0  0  0  0  0999 V2000
  142.5790   77.5130  218.9340 O   0  0  0  0  0  0  0  0  0  0  0  0
  142.0750   77.0140  219.9780 C   0  0  0  0  0  0  0  0  0  0  0  0
  141.6670   77.9390  220.9380 C   0  0  0  0  0  0  0  0  0  0  0  0
  141.8060   79.2970  220.7500 C   0  0  0  0  0  0  0  0  0  0  0  0
  141.3910   80.1910  221.7220 C   0  0  0  0  0  0  0  0  0  0  0  0
  140.8310   79.7140  222.8910 C   0  0  0  0  0  0  0  0  0  0  0  0
  140.6900   78.3430  223.0830 C   0  0  0  0  0  0  0  0  0  0  0  0
  141.1100   77.4780  222.1030 C   0  0  0  0  0  0  0  0  0  0  0  0
  140.9920   76.1490  222.2460 N   0  0  0  0  0  0  0  0  0  0  0  0
  141.3880   75.2640  221.3150 C   0  0  0  0  0  0  0  0  0  0  0  0
  141.1920   73.8350  221.6190 C   0  0  0  0  0  0  0  0  0  0  0  0
  139.9780   73.3250  221.6450 C   0  0  0  0  0  0  0  0  0  0  0  0
  139.6510   71.9970  222.1360 C   0  0  0  0  0  0  0  0  0  0  0  0
  139.2710   70.9480  221.3280 C   0  0  0  0  0  0  0  0  0  0  0  0
  138.9720   69.7000  221.8340 C   0  0  0  0  0  0  0  0  0  0  0  0
  139.0380   69.4370  223.1870 C   0  0  0  0  0  0  0  0  0  0  0  0
  139.4160   70.4770  224.0040 C   0  0  0  0  0  0  0  0  0  0  0  0
  139.4940   70.2000  225.4640 C   0  0  0  0  0  0  0  0  0  0  0  0
  140.8150   70.2520  226.0030 N   0  0  0  0  0  0  0  0  0  0  0  0
  141.0920   69.1180  226.8640 C   0  0  0  0  0  0  0  0  0  0  0  0
  140.3070   69.2690  228.1270 C   0  0  0  0  0  0  0  0  0  0  0  0
  139.6850   70.4840  228.2590 O   0  0  0  0  0  0  0  0  0  0  0  0
  140.5680   71.5510  228.0920 C   0  0  0  0  0  0  0  0  0  0  0  0
  141.1610   71.4460  226.7070 C   0  0  0  0  0  0  0  0  0  0  0  0
  139.7160   71.7260  223.4990 C   0  0  0  0  0  0  0  0  0  0  0  0
  141.9370   75.6830  220.1620 N   0  0  0  0  0  0  0  0  0  0  0  0
  142.3800   74.7490  219.1560 C   0  0  0  0  0  0  0  0  0  0  0  0
  143.8860   74.5560  219.2210 C   0  0  0  0  0  0  0  0  0  0  0  0
  144.3080   73.8450  220.4720 C   0  0  0  0  0  0  0  0  0  0  0  0
  145.8280   73.6960  220.5070 C   0  0  0  0  0  0  0  0  0  0  0  0
  146.3170   73.1980  219.2380 N   0  0  0  0  0  0  0  0  0  0  0  0
  145.2350   72.6620  218.4380 C   0  0  0  0  0  0  0  0  0  0  0  0
  144.3430   73.7890  218.0120 C   0  0  0  0  0  0  0  0  0  0  0  0
  142.2514   79.6746  219.8178 H   0  0  0  0  0  0  0  0  0  0  0  0
  141.5064   81.2735  221.5645 H   0  0  0  0  0  0  0  0  0  0  0  0
  140.4971   80.4165  223.6688 H   0  0  0  0  0  0  0  0  0  0  0  0
  140.2459   77.9556  224.0118 H   0  0  0  0  0  0  0  0  0  0  0  0
  142.0615   73.1933  221.8246 H   0  0  0  0  0  0  0  0  0  0  0  0
  139.1535   73.9482  221.2685 H   0  0  0  0  0  0  0  0  0  0  0  0
  139.2037   71.1111  220.2422 H   0  0  0  0  0  0  0  0  0  0  0  0
  138.6744   68.8968  221.1438 H   0  0  0  0  0  0  0  0  0  0  0  0
  138.7996   68.4428  223.5929 H   0  0  0  0  0  0  0  0  0  0  0  0
  138.8783   70.9450  225.9892 H   0  0  0  0  0  0  0  0  0  0  0  0
  139.1357   69.1701  225.6084 H   0  0  0  0  0  0  0  0  0  0  0  0
  140.7990   68.1876  226.3556 H   0  0  0  0  0  0  0  0  0  0  0  0
  142.1668   69.0776  227.0946 H   0  0  0  0  0  0  0  0  0  0  0  0
  139.5379   68.4830  228.1515 H   0  0  0  0  0  0  0  0  0  0  0  0
  141.0242   69.1885  228.9572 H   0  0  0  0  0  0  0  0  0  0  0  0
  140.0281   72.5036  228.1968 H   0  0  0  0  0  0  0  0  0  0  0  0
  141.3610   71.5167  228.8535 H   0  0  0  0  0  0  0  0  0  0  0  0
  140.8109   72.3061  226.1173 H   0  0  0  0  0  0  0  0  0  0  0  0
  142.2534   71.4280  226.8351 H   0  0  0  0  0  0  0  0  0  0  0  0
  140.0139   72.5271  224.1915 H   0  0  0  0  0  0  0  0  0  0  0  0
  141.8853   73.7805  219.3210 H   0  0  0  0  0  0  0  0  0  0  0  0
  142.1194   75.1497  218.1653 H   0  0  0  0  0  0  0  0  0  0  0  0
  144.3562   75.5503  219.2360 H   0  0  0  0  0  0  0  0  0  0  0  0
  143.9794   74.4242  221.3475 H   0  0  0  0  0  0  0  0  0  0  0  0
  143.8489   72.8455  220.4890 H   0  0  0  0  0  0  0  0  0  0  0  0
  146.2834   74.6762  220.7112 H   0  0  0  0  0  0  0  0  0  0  0  0
  146.0978   72.9810  221.2982 H   0  0  0  0  0  0  0  0  0  0  0  0
  146.7860   73.9630  218.7030 H   0  0  0  0  0  0  0  0  0  0  0  0
  145.6459   72.1600  217.5497 H   0  0  0  0  0  0  0  0  0  0  0  0
  144.6598   71.9336  219.0284 H   0  0  0  0  0  0  0  0  0  0  0  0
  144.8976   74.4609  217.3405 H   0  0  0  0  0  0  0  0  0  0  0  0
  143.4672   73.3822  217.4853 H   0  0  0  0  0  0  0  0  0  0  0  0
  1  2  2  0
  2  3  1  0
  3  4  2  0
  4  5  1  0
  5  6  2  0
  6  7  1  0
  7  8  2  0
  8  9  1  0
  9 10  2  0
 10 11  1  0
 11 12  2  0
 12 13  1  0
 13 14  2  0
 14 15  1  0
 15 16  2  0
 16 17  1  0
 17 18  1  0
 18 19  1  0
 19 20  1  0
 20 21  1  0
 21 22  1  0
 22 23  1  0
 23 24  1  0
 17 25  2  0
 10 26  1  0
 26 27  1  0
 27 28  1  0
 28 29  1  0
 29 30  1  0
 30 31  1  0
 31 32  1  0
 32 33  1  0
 26  2  1  0
 33 28  1  0
  8  3  1  0
 25 13  1  0
 24 19  1  0
  4 34  1  0
  5 35  1  0
  6 36  1  0
  7 37  1  0
 11 38  1  0
 12 39  1  0
 14 40  1  0
 15 41  1  0
 16 42  1  0
 18 43  1  0
 18 44  1  0
 20 45  1  0
 20 46  1  0
 21 47  1  0
 21 48  1  0
 23 49  1  0
 23 50  1  0
 24 51  1  0
 24 52  1  0
 25 53  1  0
 27 54  1  0
 27 55  1  0
 28 56  1  0
 29 57  1  0
 29 58  1  0
 30 59  1  0
 30 60  1  0
 31 61  1  0
 32 62  1  0
 32 63  1  0
 33 64  1  0
 33 65  1  0
M  END
>  <smiles>  (24) 
O=c1c2ccccc2nc(/C=C/c2cccc(CN3CCOCC3)c2)n1CC1CCNCC1

>  <score_type>  (24) 
oracle

>  <origin>  (24) 
autodockgpu

>  <m_score__min__energy>  (24) 
-9.6400000000000006

>  <m_primary>  (24) 
energy

>  <rmsd>  (24) 
7.601550176730086

>  <m_score__min__rmsd>  (24) 
7.601550176730086

>  <meeko>  (24) 
{"free_energy": -9.56, "intermolecular_energy": -11.65, "internal_energy": -1.48, "cluster_size": 18, "cluster_id": 1, "rank_in_cluster": 5}

>  <energy>  (24) 
-9.0

>  <cluster_rmsd>  (24) 
0.0

>  <cluster>  (24) 
3

$$$$

     RDKit          3D

 65 69  0  0  0  0  0  0  0  0999 V2000
  145.9730   73.0080  219.1920 O   0  0  0  0  0  0  0  0  0  0  0  0
  144.9320   72.4490  219.6360 C   0  0  0  0  0  0  0  0  0  0  0  0
  144.8710   71.0700  219.4330 C   0  0  0  0  0  0  0  0  0  0  0  0
  145.8780   70.3800  218.7950 C   0  0  0  0  0  0  0  0  0  0  0  0
  145.7880   69.0100  218.6090 C   0  0  0  0  0  0  0  0  0  0  0  0
  144.6770   68.3320  219.0690 C   0  0  0  0  0  0  0  0  0  0  0  0
  143.6580   69.0280  219.7140 C   0  0  0  0  0  0  0  0  0  0  0  0
  143.7720   70.3860  219.8850 C   0  0  0  0  0  0  0  0  0  0  0  0
  142.8140   71.0950  220.5010 N   0  0  0  0  0  0  0  0  0  0  0  0
  142.8820   72.4240  220.6930 C   0  0  0  0  0  0  0  0  0  0  0  0
  141.7490   73.0610  221.3880 C   0  0  0  0  0  0  0  0  0  0  0  0
  140.9320   73.8580  220.7290 C   0  0  0  0  0  0  0  0  0  0  0  0
  140.2990   75.0380  221.2900 C   0  0  0  0  0  0  0  0  0  0  0  0
  138.9410   75.2670  221.2750 C   0  0  0  0  0  0  0  0  0  0  0  0
  138.3780   76.4010  221.8230 C   0  0  0  0  0  0  0  0  0  0  0  0
  139.1550   77.3730  222.4200 C   0  0  0  0  0  0  0  0  0  0  0  0
  140.5130   77.1560  222.4420 C   0  0  0  0  0  0  0  0  0  0  0  0
  141.3570   78.1980  223.0880 C   0  0  0  0  0  0  0  0  0  0  0  0
  142.0030   79.0820  222.1720 N   0  0  0  0  0  0  0  0  0  0  0  0
  143.0730   79.8280  222.8070 C   0  0  0  0  0  0  0  0  0  0  0  0
  142.4740   80.8340  223.7360 C   0  0  0  0  0  0  0  0  0  0  0  0
  141.1110   80.9490  223.6360 O   0  0  0  0  0  0  0  0  0  0  0  0
  140.6950   81.1750  222.3230 C   0  0  0  0  0  0  0  0  0  0  0  0
  141.1560   80.0060  221.4860 C   0  0  0  0  0  0  0  0  0  0  0  0
  141.0770   76.0210  221.8940 C   0  0  0  0  0  0  0  0  0  0  0  0
  143.9450   73.1240  220.2620 N   0  0  0  0  0  0  0  0  0  0  0  0
  144.0310   74.5520  220.4480 C   0  0  0  0  0  0  0  0  0  0  0  0
  143.7540   75.2840  219.1450 C   0  0  0  0  0  0  0  0  0  0  0  0
  142.7560   74.5600  218.2930 C   0  0  0  0  0  0  0  0  0  0  0  0
  142.5280   75.3180  216.9860 C   0  0  0  0  0  0  0  0  0  0  0  0
  142.3120   76.7250  217.2480 N   0  0  0  0  0  0  0  0  0  0  0  0
  142.0270   76.9560  218.6490 C   0  0  0  0  0  0  0  0  0  0  0  0
  143.2640   76.6730  219.4480 C   0  0  0  0  0  0  0  0  0  0  0  0
  146.7626   70.9221  218.4295 H   0  0  0  0  0  0  0  0  0  0  0  0
  146.5964   68.4663  218.0982 H   0  0  0  0  0  0  0  0  0  0  0  0
  144.5969   67.2442  218.9263 H   0  0  0  0  0  0  0  0  0  0  0  0
  142.7695   68.4949  220.0834 H   0  0  0  0  0  0  0  0  0  0  0  0
  141.5850   72.8708  222.4589 H   0  0  0  0  0  0  0  0  0  0  0  0
  140.7142   73.6116  219.6793 H   0  0  0  0  0  0  0  0  0  0  0  0
  138.2820   74.5193  220.8096 H   0  0  0  0  0  0  0  0  0  0  0  0
  137.2867   76.5333  221.7833 H   0  0  0  0  0  0  0  0  0  0  0  0
  138.7092   78.2785  222.8575 H   0  0  0  0  0  0  0  0  0  0  0  0
  140.7165   78.7975  223.7516 H   0  0  0  0  0  0  0  0  0  0  0  0
  142.1543   77.6669  223.6286 H   0  0  0  0  0  0  0  0  0  0  0  0
  143.7178   79.1399  223.3733 H   0  0  0  0  0  0  0  0  0  0  0  0
  143.6771   80.3386  222.0426 H   0  0  0  0  0  0  0  0  0  0  0  0
  142.7209   80.5415  224.7672 H   0  0  0  0  0  0  0  0  0  0  0  0
  142.8952   81.8114  223.4582 H   0  0  0  0  0  0  0  0  0  0  0  0
  139.5984   81.2526  222.2859 H   0  0  0  0  0  0  0  0  0  0  0  0
  141.1219   82.1139  221.9406 H   0  0  0  0  0  0  0  0  0  0  0  0
  140.2662   79.4618  221.1366 H   0  0  0  0  0  0  0  0  0  0  0  0
  141.7539   80.4269  220.6642 H   0  0  0  0  0  0  0  0  0  0  0  0
  142.1684   75.8906  221.9359 H   0  0  0  0  0  0  0  0  0  0  0  0
  143.2913   74.8628  221.2005 H   0  0  0  0  0  0  0  0  0  0  0  0
  145.0479   74.8031  220.7840 H   0  0  0  0  0  0  0  0  0  0  0  0
  144.6940   75.3316  218.5757 H   0  0  0  0  0  0  0  0  0  0  0  0
  143.1346   73.5522  218.0671 H   0  0  0  0  0  0  0  0  0  0  0  0
  141.8030   74.4903  218.8379 H   0  0  0  0  0  0  0  0  0  0  0  0
  143.4112   75.2012  216.3408 H   0  0  0  0  0  0  0  0  0  0  0  0
  141.6376   74.9078  216.4871 H   0  0  0  0  0  0  0  0  0  0  0  0
  143.1550   77.2800  216.9790 H   0  0  0  0  0  0  0  0  0  0  0  0
  141.7233   78.0029  218.7966 H   0  0  0  0  0  0  0  0  0  0  0  0
  141.2111   76.2956  218.9778 H   0  0  0  0  0  0  0  0  0  0  0  0
  144.0445   77.4020  219.1847 H   0  0  0  0  0  0  0  0  0  0  0  0
  143.0322   76.7526  220.5203 H   0  0  0  0  0  0  0  0  0  0  0  0
  1  2  2  0
  2  3  1  0
  3  4  2  0
  4  5  1  0
  5  6  2  0
  6  7  1  0
  7  8  2  0
  8  9  1  0
  9 10  2  0
 10 11  1  0
 11 12  2  0
 12 13  1  0
 13 14  2  0
 14 15  1  0
 15 16  2  0
 16 17  1  0
 17 18  1  0
 18 19  1  0
 19 20  1  0
 20 21  1  0
 21 22  1  0
 22 23  1  0
 23 24  1  0
 17 25  2  0
 10 26  1  0
 26 27  1  0
 27 28  1  0
 28 29  1  0
 29 30  1  0
 30 31  1  0
 31 32  1  0
 32 33  1  0
 26  2  1  0
 33 28  1  0
  8  3  1  0
 25 13  1  0
 24 19  1  0
  4 34  1  0
  5 35  1  0
  6 36  1  0
  7 37  1  0
 11 38  1  0
 12 39  1  0
 14 40  1  0
 15 41  1  0
 16 42  1  0
 18 43  1  0
 18 44  1  0
 20 45  1  0
 20 46  1  0
 21 47  1  0
 21 48  1  0
 23 49  1  0
 23 50  1  0
 24 51  1  0
 24 52  1  0
 25 53  1  0
 27 54  1  0
 27 55  1  0
 28 56  1  0
 29 57  1  0
 29 58  1  0
 30 59  1  0
 30 60  1  0
 31 61  1  0
 32 62  1  0
 32 63  1  0
 33 64  1  0
 33 65  1  0
M  END
>  <smiles>  (25) 
O=c1c2ccccc2nc(/C=C/c2cccc(CN3CCOCC3)c2)n1CC1CCNCC1

>  <score_type>  (25) 
oracle

>  <origin>  (25) 
autodockgpu

>  <m_score__min__energy>  (25) 
-9.6400000000000006

>  <m_primary>  (25) 
energy

>  <rmsd>  (25) 
7.740710389792942

>  <m_score__min__rmsd>  (25) 
7.740710389792942

>  <meeko>  (25) 
{"free_energy": -7.38, "intermolecular_energy": -9.47, "internal_energy": -2.32, "cluster_size": 1, "cluster_id": 10, "rank_in_cluster": 1}

>  <energy>  (25) 
-8.81

>  <cluster_rmsd>  (25) 
0.65

>  <cluster>  (25) 
3

$$$$

     RDKit          3D

 65 69  0  0  0  0  0  0  0  0999 V2000
  142.8300   76.8240  219.6450 O   0  0  0  0  0  0  0  0  0  0  0  0
  141.9180   76.4700  220.4420 C   0  0  0  0  0  0  0  0  0  0  0  0
  141.4250   77.4830  221.2630 C   0  0  0  0  0  0  0  0  0  0  0  0
  141.9050   78.7730  221.2010 C   0  0  0  0  0  0  0  0  0  0  0  0
  141.3950   79.7580  222.0300 C   0  0  0  0  0  0  0  0  0  0  0  0
  140.3950   79.4420  222.9270 C   0  0  0  0  0  0  0  0  0  0  0  0
  139.9080   78.1390  222.9930 C   0  0  0  0  0  0  0  0  0  0  0  0
  140.4310   77.1810  222.1590 C   0  0  0  0  0  0  0  0  0  0  0  0
  139.9920   75.9140  222.1880 N   0  0  0  0  0  0  0  0  0  0  0  0
  140.4720   74.9440  221.3920 C   0  0  0  0  0  0  0  0  0  0  0  0
  139.8860   73.5990  221.5420 C   0  0  0  0  0  0  0  0  0  0  0  0
  140.3210   72.7900  222.4860 C   0  0  0  0  0  0  0  0  0  0  0  0
  139.8850   71.4150  222.6580 C   0  0  0  0  0  0  0  0  0  0  0  0
  139.6630   70.5390  221.6190 C   0  0  0  0  0  0  0  0  0  0  0  0
  139.2520   69.2380  221.8250 C   0  0  0  0  0  0  0  0  0  0  0  0
  139.0420   68.7440  223.0970 C   0  0  0  0  0  0  0  0  0  0  0  0
  139.2600   69.6090  224.1430 C   0  0  0  0  0  0  0  0  0  0  0  0
  139.0390   69.0810  225.5170 C   0  0  0  0  0  0  0  0  0  0  0  0
  140.2330   68.6930  226.1970 N   0  0  0  0  0  0  0  0  0  0  0  0
  139.9610   68.2390  227.5480 C   0  0  0  0  0  0  0  0  0  0  0  0
  139.5760   69.4160  228.3840 C   0  0  0  0  0  0  0  0  0  0  0  0
  139.7470   70.6270  227.7620 O   0  0  0  0  0  0  0  0  0  0  0  0
  141.0360   70.7810  227.2520 C   0  0  0  0  0  0  0  0  0  0  0  0
  141.2720   69.6730  226.2520 C   0  0  0  0  0  0  0  0  0  0  0  0
  139.6710   70.9110  223.9370 C   0  0  0  0  0  0  0  0  0  0  0  0
  141.4460   75.2060  220.5030 N   0  0  0  0  0  0  0  0  0  0  0  0
  141.9830   74.1750  219.6490 C   0  0  0  0  0  0  0  0  0  0  0  0
  143.5000   74.1400  219.7320 C   0  0  0  0  0  0  0  0  0  0  0  0
  143.9890   73.0530  220.6400 C   0  0  0  0  0  0  0  0  0  0  0  0
  145.5140   73.0710  220.7130 C   0  0  0  0  0  0  0  0  0  0  0  0
  146.0830   73.1600  219.3840 N   0  0  0  0  0  0  0  0  0  0  0  0
  145.0910   72.8590  218.3730 C   0  0  0  0  0  0  0  0  0  0  0  0
  144.0710   73.9570  218.3530 C   0  0  0  0  0  0  0  0  0  0  0  0
  142.7019   79.0232  220.4853 H   0  0  0  0  0  0  0  0  0  0  0  0
  141.7843   80.7853  221.9739 H   0  0  0  0  0  0  0  0  0  0  0  0
  139.9832   80.2182  223.5888 H   0  0  0  0  0  0  0  0  0  0  0  0
  139.1119   77.8794  223.7063 H   0  0  0  0  0  0  0  0  0  0  0  0
  139.0841   73.2708  220.8643 H   0  0  0  0  0  0  0  0  0  0  0  0
  141.0663   73.1828  223.1933 H   0  0  0  0  0  0  0  0  0  0  0  0
  139.8189   70.8889  220.5879 H   0  0  0  0  0  0  0  0  0  0  0  0
  139.0883   68.5810  220.9581 H   0  0  0  0  0  0  0  0  0  0  0  0
  138.7157   67.7071  223.2655 H   0  0  0  0  0  0  0  0  0  0  0  0
  138.5431   69.8630  226.1108 H   0  0  0  0  0  0  0  0  0  0  0  0
  138.4280   68.1725  225.4106 H   0  0  0  0  0  0  0  0  0  0  0  0
  139.1372   67.5102  227.5341 H   0  0  0  0  0  0  0  0  0  0  0  0
  140.8573   67.7596  227.9684 H   0  0  0  0  0  0  0  0  0  0  0  0
  138.5149   69.3142  228.6554 H   0  0  0  0  0  0  0  0  0  0  0  0
  140.2417   69.4134  229.2597 H   0  0  0  0  0  0  0  0  0  0  0  0
  141.1280   71.7586  226.7561 H   0  0  0  0  0  0  0  0  0  0  0  0
  141.7784   70.7321  228.0622 H   0  0  0  0  0  0  0  0  0  0  0  0
  141.3704   70.1258  225.2544 H   0  0  0  0  0  0  0  0  0  0  0  0
  142.1816   69.1467  226.5771 H   0  0  0  0  0  0  0  0  0  0  0  0
  139.8333   71.5660  224.8057 H   0  0  0  0  0  0  0  0  0  0  0  0
  141.5822   73.2005  219.9646 H   0  0  0  0  0  0  0  0  0  0  0  0
  141.6920   74.3910  218.6104 H   0  0  0  0  0  0  0  0  0  0  0  0
  143.8391   75.0965  220.1564 H   0  0  0  0  0  0  0  0  0  0  0  0
  143.5754   73.2080  221.6474 H   0  0  0  0  0  0  0  0  0  0  0  0
  143.6607   72.0807  220.2440 H   0  0  0  0  0  0  0  0  0  0  0  0
  145.8381   73.9398  221.3048 H   0  0  0  0  0  0  0  0  0  0  0  0
  145.8592   72.1402  221.1869 H   0  0  0  0  0  0  0  0  0  0  0  0
  146.4600   74.1190  219.2130 H   0  0  0  0  0  0  0  0  0  0  0  0
  145.5766   72.7879  217.3886 H   0  0  0  0  0  0  0  0  0  0  0  0
  144.6029   71.9004  218.6029 H   0  0  0  0  0  0  0  0  0  0  0  0
  144.5473   74.8933  218.0267 H   0  0  0  0  0  0  0  0  0  0  0  0
  143.2630   73.6924  217.6551 H   0  0  0  0  0  0  0  0  0  0  0  0
  1  2  2  0
  2  3  1  0
  3  4  2  0
  4  5  1  0
  5  6  2  0
  6  7  1  0
  7  8  2  0
  8  9  1  0
  9 10  2  0
 10 11  1  0
 11 12  2  0
 12 13  1  0
 13 14  2  0
 14 15  1  0
 15 16  2  0
 16 17  1  0
 17 18  1  0
 18 19  1  0
 19 20  1  0
 20 21  1  0
 21 22  1  0
 22 23  1  0
 23 24  1  0
 17 25  2  0
 10 26  1  0
 26 27  1  0
 27 28  1  0
 28 29  1  0
 29 30  1  0
 30 31  1  0
 31 32  1  0
 32 33  1  0
 26  2  1  0
 33 28  1  0
  8  3  1  0
 25 13  1  0
 24 19  1  0
  4 34  1  0
  5 35  1  0
  6 36  1  0
  7 37  1  0
 11 38  1  0
 12 39  1  0
 14 40  1  0
 15 41  1  0
 16 42  1  0
 18 43  1  0
 18 44  1  0
 20 45  1  0
 20 46  1  0
 21 47  1  0
 21 48  1  0
 23 49  1  0
 23 50  1  0
 24 51  1  0
 24 52  1  0
 25 53  1  0
 27 54  1  0
 27 55  1  0
 28 56  1  0
 29 57  1  0
 29 58  1  0
 30 59  1  0
 30 60  1  0
 31 61  1  0
 32 62  1  0
 32 63  1  0
 33 64  1  0
 33 65  1  0
M  END
>  <smiles>  (26) 
O=c1c2ccccc2nc(/C=C/c2cccc(CN3CCOCC3)c2)n1CC1CCNCC1

>  <score_type>  (26) 
oracle

>  <origin>  (26) 
autodockgpu

>  <m_score__min__energy>  (26) 
-9.6400000000000006

>  <m_primary>  (26) 
energy

>  <rmsd>  (26) 
7.663643836926808

>  <m_score__min__rmsd>  (26) 
7.663643836926808

>  <meeko>  (26) 
{"free_energy": -9.12, "intermolecular_energy": -11.21, "internal_energy": -1.43, "cluster_size": 18, "cluster_id": 1, "rank_in_cluster": 11}

>  <energy>  (26) 
-8.76

>  <cluster_rmsd>  (26) 
0.61

>  <cluster>  (26) 
3

$$$$

     RDKit          3D

 65 69  0  0  0  0  0  0  0  0999 V2000
  141.9890   72.3470  219.1050 O   0  0  0  0  0  0  0  0  0  0  0  0
  141.4820   73.0070  220.0540 C   0  0  0  0  0  0  0  0  0  0  0  0
  140.7800   72.2500  220.9910 C   0  0  0  0  0  0  0  0  0  0  0  0
  140.6560   70.8830  220.8810 C   0  0  0  0  0  0  0  0  0  0  0  0
  139.9520   70.1580  221.8280 C   0  0  0  0  0  0  0  0  0  0  0  0
  139.3700   70.8150  222.8940 C   0  0  0  0  0  0  0  0  0  0  0  0
  139.4930   72.1970  223.0070 C   0  0  0  0  0  0  0  0  0  0  0  0
  140.1970   72.8920  222.0540 C   0  0  0  0  0  0  0  0  0  0  0  0
  140.3410   74.2240  222.1240 N   0  0  0  0  0  0  0  0  0  0  0  0
  141.0210   74.9450  221.2170 C   0  0  0  0  0  0  0  0  0  0  0  0
  141.0910   76.4020  221.4320 C   0  0  0  0  0  0  0  0  0  0  0  0
  141.0630   76.8920  222.6540 C   0  0  0  0  0  0  0  0  0  0  0  0
  141.1250   78.3070  222.9780 C   0  0  0  0  0  0  0  0  0  0  0  0
  142.2970   79.0140  223.1290 C   0  0  0  0  0  0  0  0  0  0  0  0
  142.3130   80.3590  223.4340 C   0  0  0  0  0  0  0  0  0  0  0  0
  141.1430   81.0720  223.6040 C   0  0  0  0  0  0  0  0  0  0  0  0
  139.9660   80.3770  223.4560 C   0  0  0  0  0  0  0  0  0  0  0  0
  138.7000   81.1400  223.6340 C   0  0  0  0  0  0  0  0  0  0  0  0
  137.7560   80.5170  224.5050 N   0  0  0  0  0  0  0  0  0  0  0  0
  136.5620   80.0970  223.7960 C   0  0  0  0  0  0  0  0  0  0  0  0
  135.7780   81.3100  223.4130 C   0  0  0  0  0  0  0  0  0  0  0  0
  136.2440   82.4770  223.9620 O   0  0  0  0  0  0  0  0  0  0  0  0
  136.3810   82.3910  225.3480 C   0  0  0  0  0  0  0  0  0  0  0  0
  137.3570   81.2780  225.6460 C   0  0  0  0  0  0  0  0  0  0  0  0
  139.9490   79.0310  223.1510 C   0  0  0  0  0  0  0  0  0  0  0  0
  141.6040   74.3480  220.1640 N   0  0  0  0  0  0  0  0  0  0  0  0
  142.3270   75.1060  219.1730 C   0  0  0  0  0  0  0  0  0  0  0  0
  143.8200   74.8390  219.2700 C   0  0  0  0  0  0  0  0  0  0  0  0
  144.1810   74.1130  220.5300 C   0  0  0  0  0  0  0  0  0  0  0  0
  145.6910   73.8900  220.5970 C   0  0  0  0  0  0  0  0  0  0  0  0
  146.1810   73.3650  219.3400 N   0  0  0  0  0  0  0  0  0  0  0  0
  145.0910   72.8800  218.5190 C   0  0  0  0  0  0  0  0  0  0  0  0
  144.2640   74.0470  218.0720 C   0  0  0  0  0  0  0  0  0  0  0  0
  141.1212   70.3612  220.0317 H   0  0  0  0  0  0  0  0  0  0  0  0
  139.8571   69.0663  221.7316 H   0  0  0  0  0  0  0  0  0  0  0  0
  138.8104   70.2476  223.6522 H   0  0  0  0  0  0  0  0  0  0  0  0
  139.0304   72.7279  223.8521 H   0  0  0  0  0  0  0  0  0  0  0  0
  141.1668   77.0810  220.5699 H   0  0  0  0  0  0  0  0  0  0  0  0
  140.9873   76.1795  223.4886 H   0  0  0  0  0  0  0  0  0  0  0  0
  143.2544   78.4874  223.0019 H   0  0  0  0  0  0  0  0  0  0  0  0
  143.2784   80.8746  223.5442 H   0  0  0  0  0  0  0  0  0  0  0  0
  141.1521   82.1449  223.8463 H   0  0  0  0  0  0  0  0  0  0  0  0
  138.9489   82.1289  224.0465 H   0  0  0  0  0  0  0  0  0  0  0  0
  138.2248   81.1971  222.6436 H   0  0  0  0  0  0  0  0  0  0  0  0
  136.8461   79.5395  222.8913 H   0  0  0  0  0  0  0  0  0  0  0  0
  135.9532   79.4468  224.4414 H   0  0  0  0  0  0  0  0  0  0  0  0
  135.8074   81.4081  222.3178 H   0  0  0  0  0  0  0  0  0  0  0  0
  134.7591   81.1632  223.8005 H   0  0  0  0  0  0  0  0  0  0  0  0
  136.7647   83.3420  225.7460 H   0  0  0  0  0  0  0  0  0  0  0  0
  135.4082   82.1859  225.8188 H   0  0  0  0  0  0  0  0  0  0  0  0
  138.2578   81.7223  226.0945 H   0  0  0  0  0  0  0  0  0  0  0  0
  136.8388   80.5807  226.3207 H   0  0  0  0  0  0  0  0  0  0  0  0
  138.9822   78.5178  223.0420 H   0  0  0  0  0  0  0  0  0  0  0  0
  141.9740   74.8189  218.1716 H   0  0  0  0  0  0  0  0  0  0  0  0
  142.1489   76.1769  219.3503 H   0  0  0  0  0  0  0  0  0  0  0  0
  144.3379   75.8092  219.2931 H   0  0  0  0  0  0  0  0  0  0  0  0
  143.8632   74.7104  221.3972 H   0  0  0  0  0  0  0  0  0  0  0  0
  143.6735   73.1371  220.5396 H   0  0  0  0  0  0  0  0  0  0  0  0
  146.1895   74.8474  220.8086 H   0  0  0  0  0  0  0  0  0  0  0  0
  145.9090   73.1651  221.3951 H   0  0  0  0  0  0  0  0  0  0  0  0
  146.6980   74.1040  218.8130 H   0  0  0  0  0  0  0  0  0  0  0  0
  145.4953   72.3558  217.6405 H   0  0  0  0  0  0  0  0  0  0  0  0
  144.4689   72.1826  219.0992 H   0  0  0  0  0  0  0  0  0  0  0  0
  144.8643   74.6891  217.4107 H   0  0  0  0  0  0  0  0  0  0  0  0
  143.3806   73.6815  217.5279 H   0  0  0  0  0  0  0  0  0  0  0  0
  1  2  2  0
  2  3  1  0
  3  4  2  0
  4  5  1  0
  5  6  2  0
  6  7  1  0
  7  8  2  0
  8  9  1  0
  9 10  2  0
 10 11  1  0
 11 12  2  0
 12 13  1  0
 13 14  2  0
 14 15  1  0
 15 16  2  0
 16 17  1  0
 17 18  1  0
 18 19  1  0
 19 20  1  0
 20 21  1  0
 21 22  1  0
 22 23  1  0
 23 24  1  0
 17 25  2  0
 10 26  1  0
 26 27  1  0
 27 28  1  0
 28 29  1  0
 29 30  1  0
 30 31  1  0
 31 32  1  0
 32 33  1  0
 26  2  1  0
 33 28  1  0
  8  3  1  0
 25 13  1  0
 24 19  1  0
  4 34  1  0
  5 35  1  0
  6 36  1  0
  7 37  1  0
 11 38  1  0
 12 39  1  0
 14 40  1  0
 15 41  1  0
 16 42  1  0
 18 43  1  0
 18 44  1  0
 20 45  1  0
 20 46  1  0
 21 47  1  0
 21 48  1  0
 23 49  1  0
 23 50  1  0
 24 51  1  0
 24 52  1  0
 25 53  1  0
 27 54  1  0
 27 55  1  0
 28 56  1  0
 29 57  1  0
 29 58  1  0
 30 59  1  0
 30 60  1  0
 31 61  1  0
 32 62  1  0
 32 63  1  0
 33 64  1  0
 33 65  1  0
M  END
>  <smiles>  (27) 
O=c1c2ccccc2nc(/C=C/c2cccc(CN3CCOCC3)c2)n1CC1CCNCC1

>  <score_type>  (27) 
oracle

>  <origin>  (27) 
autodockgpu

>  <m_score__min__energy>  (27) 
-9.6400000000000006

>  <m_primary>  (27) 
energy

>  <rmsd>  (27) 
7.943136048238572

>  <m_score__min__rmsd>  (27) 
7.943136048238572

>  <meeko>  (27) 
{"free_energy": -8.56, "intermolecular_energy": -10.65, "internal_energy": -1.43, "cluster_size": 2, "cluster_id": 5, "rank_in_cluster": 1}

>  <energy>  (27) 
-8.75

>  <cluster_rmsd>  (27) 
0.65

>  <cluster>  (27) 
3

$$$$

     RDKit          3D

 65 69  0  0  0  0  0  0  0  0999 V2000
  142.9920   76.8700  217.2920 O   0  0  0  0  0  0  0  0  0  0  0  0
  142.3800   77.3340  218.2940 C   0  0  0  0  0  0  0  0  0  0  0  0
  142.1610   78.7110  218.2660 C   0  0  0  0  0  0  0  0  0  0  0  0
  142.5840   79.4980  217.2180 C   0  0  0  0  0  0  0  0  0  0  0  0
  142.3520   80.8630  217.2190 C   0  0  0  0  0  0  0  0  0  0  0  0
  141.6880   81.4390  218.2840 C   0  0  0  0  0  0  0  0  0  0  0  0
  141.2590   80.6460  219.3450 C   0  0  0  0  0  0  0  0  0  0  0  0
  141.5020   79.2950  219.3180 C   0  0  0  0  0  0  0  0  0  0  0  0
  141.1060   78.4930  220.3190 N   0  0  0  0  0  0  0  0  0  0  0  0
  141.3210   77.1670  220.3360 C   0  0  0  0  0  0  0  0  0  0  0  0
  140.8250   76.4210  221.5070 C   0  0  0  0  0  0  0  0  0  0  0  0
  141.0420   76.8770  222.7230 C   0  0  0  0  0  0  0  0  0  0  0  0
  141.1010   78.2850  223.0780 C   0  0  0  0  0  0  0  0  0  0  0  0
  142.2700   79.0050  223.1860 C   0  0  0  0  0  0  0  0  0  0  0  0
  142.2820   80.3430  223.5230 C   0  0  0  0  0  0  0  0  0  0  0  0
  141.1130   81.0330  223.7710 C   0  0  0  0  0  0  0  0  0  0  0  0
  139.9390   80.3240  223.6660 C   0  0  0  0  0  0  0  0  0  0  0  0
  138.6740   81.0640  223.9280 C   0  0  0  0  0  0  0  0  0  0  0  0
  138.2280   81.8700  222.8370 N   0  0  0  0  0  0  0  0  0  0  0  0
  136.7810   81.9370  222.7720 C   0  0  0  0  0  0  0  0  0  0  0  0
  136.2570   80.6100  222.3260 C   0  0  0  0  0  0  0  0  0  0  0  0
  137.2270   79.7330  221.9120 O   0  0  0  0  0  0  0  0  0  0  0  0
  138.0620   80.2890  220.9430 C   0  0  0  0  0  0  0  0  0  0  0  0
  138.7210   81.5080  221.5460 C   0  0  0  0  0  0  0  0  0  0  0  0
  139.9260   78.9860  223.3290 C   0  0  0  0  0  0  0  0  0  0  0  0
  141.9630   76.5640  219.3210 N   0  0  0  0  0  0  0  0  0  0  0  0
  142.2130   75.1430  219.3270 C   0  0  0  0  0  0  0  0  0  0  0  0
  143.7060   74.8570  219.3010 C   0  0  0  0  0  0  0  0  0  0  0  0
  144.1410   74.0350  220.4770 C   0  0  0  0  0  0  0  0  0  0  0  0
  145.6490   73.7940  220.4230 C   0  0  0  0  0  0  0  0  0  0  0  0
  146.0450   73.3600  219.0990 N   0  0  0  0  0  0  0  0  0  0  0  0
  144.8960   72.9480  218.3210 C   0  0  0  0  0  0  0  0  0  0  0  0
  144.0570   74.1530  218.0200 C   0  0  0  0  0  0  0  0  0  0  0  0
  143.1122   79.0369  216.3704 H   0  0  0  0  0  0  0  0  0  0  0  0
  142.6940   81.4839  216.3778 H   0  0  0  0  0  0  0  0  0  0  0  0
  141.4983   82.5225  218.2941 H   0  0  0  0  0  0  0  0  0  0  0  0
  140.7302   81.0978  220.1972 H   0  0  0  0  0  0  0  0  0  0  0  0
  140.2721   75.4808  221.3644 H   0  0  0  0  0  0  0  0  0  0  0  0
  141.1890   76.1404  223.5267 H   0  0  0  0  0  0  0  0  0  0  0  0
  143.2268   78.4961  222.9972 H   0  0  0  0  0  0  0  0  0  0  0  0
  143.2442   80.8710  223.5955 H   0  0  0  0  0  0  0  0  0  0  0  0
  141.1197   82.0996  224.0399 H   0  0  0  0  0  0  0  0  0  0  0  0
  137.8873   80.3306  224.1586 H   0  0  0  0  0  0  0  0  0  0  0  0
  138.8775   81.7497  224.7637 H   0  0  0  0  0  0  0  0  0  0  0  0
  136.3771   82.1789  223.7662 H   0  0  0  0  0  0  0  0  0  0  0  0
  136.4746   82.7181  222.0607 H   0  0  0  0  0  0  0  0  0  0  0  0
  135.7147   80.1529  223.1668 H   0  0  0  0  0  0  0  0  0  0  0  0
  135.6114   80.8011  221.4561 H   0  0  0  0  0  0  0  0  0  0  0  0
  138.8282   79.5581  220.6452 H   0  0  0  0  0  0  0  0  0  0  0  0
  137.4828   80.5672  220.0502 H   0  0  0  0  0  0  0  0  0  0  0  0
  139.7991   81.3079  221.6336 H   0  0  0  0  0  0  0  0  0  0  0  0
  138.4930   82.3504  220.8764 H   0  0  0  0  0  0  0  0  0  0  0  0
  138.9623   78.4605  223.2570 H   0  0  0  0  0  0  0  0  0  0  0  0
  141.7776   74.7041  220.2368 H   0  0  0  0  0  0  0  0  0  0  0  0
  141.7538   74.7006  218.4307 H   0  0  0  0  0  0  0  0  0  0  0  0
  144.2377   75.8181  219.3598 H   0  0  0  0  0  0  0  0  0  0  0  0
  143.8913   74.5688  221.4058 H   0  0  0  0  0  0  0  0  0  0  0  0
  143.6213   73.0659  220.4497 H   0  0  0  0  0  0  0  0  0  0  0  0
  146.1742   74.7284  220.6701 H   0  0  0  0  0  0  0  0  0  0  0  0
  145.9107   73.0094  221.1483 H   0  0  0  0  0  0  0  0  0  0  0  0
  146.5360   74.1320  218.5950 H   0  0  0  0  0  0  0  0  0  0  0  0
  145.2326   72.4879  217.3802 H   0  0  0  0  0  0  0  0  0  0  0  0
  144.3049   72.2143  218.8886 H   0  0  0  0  0  0  0  0  0  0  0  0
  144.6202   74.8376  217.3687 H   0  0  0  0  0  0  0  0  0  0  0  0
  143.1337   73.8372  217.5123 H   0  0  0  0  0  0  0  0  0  0  0  0
  1  2  2  0
  2  3  1  0
  3  4  2  0
  4  5  1  0
  5  6  2  0
  6  7  1  0
  7  8  2  0
  8  9  1  0
  9 10  2  0
 10 11  1  0
 11 12  2  0
 12 13  1  0
 13 14  2  0
 14 15  1  0
 15 16  2  0
 16 17  1  0
 17 18  1  0
 18 19  1  0
 19 20  1  0
 20 21  1  0
 21 22  1  0
 22 23  1  0
 23 24  1  0
 17 25  2  0
 10 26  1  0
 26 27  1  0
 27 28  1  0
 28 29  1  0
 29 30  1  0
 30 31  1  0
 31 32  1  0
 32 33  1  0
 26  2  1  0
 33 28  1  0
  8  3  1  0
 25 13  1  0
 24 19  1  0
  4 34  1  0
  5 35  1  0
  6 36  1  0
  7 37  1  0
 11 38  1  0
 12 39  1  0
 14 40  1  0
 15 41  1  0
 16 42  1  0
 18 43  1  0
 18 44  1  0
 20 45  1  0
 20 46  1  0
 21 47  1  0
 21 48  1  0
 23 49  1  0
 23 50  1  0
 24 51  1  0
 24 52  1  0
 25 53  1  0
 27 54  1  0
 27 55  1  0
 28 56  1  0
 29 57  1  0
 29 58  1  0
 30 59  1  0
 30 60  1  0
 31 61  1  0
 32 62  1  0
 32 63  1  0
 33 64  1  0
 33 65  1  0
M  END
>  <smiles>  (28) 
O=c1c2ccccc2nc(/C=C/c2cccc(CN3CCOCC3)c2)n1CC1CCNCC1

>  <score_type>  (28) 
oracle

>  <origin>  (28) 
autodockgpu

>  <m_score__min__energy>  (28) 
-9.6400000000000006

>  <m_primary>  (28) 
energy

>  <rmsd>  (28) 
7.432805861042977

>  <m_score__min__rmsd>  (28) 
7.432805861042977

>  <meeko>  (28) 
{"free_energy": -7.65, "intermolecular_energy": -9.74, "internal_energy": -2.31, "cluster_size": 2, "cluster_id": 6, "rank_in_cluster": 2}

>  <energy>  (28) 
-8.74

>  <cluster_rmsd>  (28) 
1.85

>  <cluster>  (28) 
3

$$$$

     RDKit          3D

 65 69  0  0  0  0  0  0  0  0999 V2000
  138.4920   68.6810  225.0070 O   0  0  0  0  0  0  0  0  0  0  0  0
  139.1960   69.7160  224.8440 C   0  0  0  0  0  0  0  0  0  0  0  0
  139.8010   70.2080  226.0000 C   0  0  0  0  0  0  0  0  0  0  0  0
  139.6360   69.6010  227.2260 C   0  0  0  0  0  0  0  0  0  0  0  0
  140.2490   70.1130  228.3570 C   0  0  0  0  0  0  0  0  0  0  0  0
  141.0340   71.2440  228.2520 C   0  0  0  0  0  0  0  0  0  0  0  0
  141.2020   71.8590  227.0150 C   0  0  0  0  0  0  0  0  0  0  0  0
  140.5820   71.3310  225.9090 C   0  0  0  0  0  0  0  0  0  0  0  0
  140.7170   71.8910  224.6980 N   0  0  0  0  0  0  0  0  0  0  0  0
  140.1310   71.4100  223.5880 C   0  0  0  0  0  0  0  0  0  0  0  0
  140.3750   72.1370  222.3290 C   0  0  0  0  0  0  0  0  0  0  0  0
  139.8150   73.3120  222.1240 C   0  0  0  0  0  0  0  0  0  0  0  0
  140.5010   74.4690  221.5770 C   0  0  0  0  0  0  0  0  0  0  0  0
  141.5720   74.3950  220.7140 C   0  0  0  0  0  0  0  0  0  0  0  0
  142.1940   75.5200  220.2130 C   0  0  0  0  0  0  0  0  0  0  0  0
  141.7720   76.7880  220.5560 C   0  0  0  0  0  0  0  0  0  0  0  0
  140.7040   76.8750  221.4180 C   0  0  0  0  0  0  0  0  0  0  0  0
  140.2400   78.2400  221.7890 C   0  0  0  0  0  0  0  0  0  0  0  0
  140.4640   78.5860  223.1560 N   0  0  0  0  0  0  0  0  0  0  0  0
  139.8370   79.8470  223.5030 C   0  0  0  0  0  0  0  0  0  0  0  0
  140.5900   80.9570  222.8430 C   0  0  0  0  0  0  0  0  0  0  0  0
  141.7620   80.5650  222.2470 O   0  0  0  0  0  0  0  0  0  0  0  0
  142.5860   79.8550  223.1200 C   0  0  0  0  0  0  0  0  0  0  0  0
  141.8290   78.6310  223.5770 C   0  0  0  0  0  0  0  0  0  0  0  0
  140.0800   75.7500  221.9190 C   0  0  0  0  0  0  0  0  0  0  0  0
  139.3590   70.3110  223.6430 N   0  0  0  0  0  0  0  0  0  0  0  0
  138.7120   69.7860  222.4650 C   0  0  0  0  0  0  0  0  0  0  0  0
  139.2510   68.4080  222.1210 C   0  0  0  0  0  0  0  0  0  0  0  0
  138.2360   67.3310  222.3630 C   0  0  0  0  0  0  0  0  0  0  0  0
  138.8280   65.9630  222.0280 C   0  0  0  0  0  0  0  0  0  0  0  0
  139.4940   66.0000  220.7430 N   0  0  0  0  0  0  0  0  0  0  0  0
  139.1210   67.1850  219.9980 C   0  0  0  0  0  0  0  0  0  0  0  0
  139.6920   68.3890  220.6830 C   0  0  0  0  0  0  0  0  0  0  0  0
  139.0105   68.6998  227.3070 H   0  0  0  0  0  0  0  0  0  0  0  0
  140.1116   69.6224  229.3319 H   0  0  0  0  0  0  0  0  0  0  0  0
  141.5257   71.6582  229.1445 H   0  0  0  0  0  0  0  0  0  0  0  0
  141.8260   72.7603  226.9238 H   0  0  0  0  0  0  0  0  0  0  0  0
  141.0261   71.6976  221.5589 H   0  0  0  0  0  0  0  0  0  0  0  0
  138.7525   73.4244  222.3858 H   0  0  0  0  0  0  0  0  0  0  0  0
  141.9444   73.4044  220.4138 H   0  0  0  0  0  0  0  0  0  0  0  0
  143.0446   75.4035  219.5253 H   0  0  0  0  0  0  0  0  0  0  0  0
  142.2664   77.6868  220.1588 H   0  0  0  0  0  0  0  0  0  0  0  0
  140.7714   78.9677  221.1580 H   0  0  0  0  0  0  0  0  0  0  0  0
  139.1509   78.2549  221.6349 H   0  0  0  0  0  0  0  0  0  0  0  0
  138.7937   79.8495  223.1543 H   0  0  0  0  0  0  0  0  0  0  0  0
  139.8506   79.9833  224.5944 H   0  0  0  0  0  0  0  0  0  0  0  0
  139.9433   81.4022  222.0726 H   0  0  0  0  0  0  0  0  0  0  0  0
  140.8614   81.6698  223.6356 H   0  0  0  0  0  0  0  0  0  0  0  0
  143.5080   79.5528  222.6017 H   0  0  0  0  0  0  0  0  0  0  0  0
  142.8616   80.4803  223.9820 H   0  0  0  0  0  0  0  0  0  0  0  0
  142.3406   77.7423  223.1789 H   0  0  0  0  0  0  0  0  0  0  0  0
  141.8160   78.6640  224.6764 H   0  0  0  0  0  0  0  0  0  0  0  0
  139.2289   75.8695  222.6056 H   0  0  0  0  0  0  0  0  0  0  0  0
  137.6300   69.7140  222.6499 H   0  0  0  0  0  0  0  0  0  0  0  0
  138.9127   70.4632  221.6217 H   0  0  0  0  0  0  0  0  0  0  0  0
  140.1077   68.2035  222.7800 H   0  0  0  0  0  0  0  0  0  0  0  0
  137.9342   67.3472  223.4207 H   0  0  0  0  0  0  0  0  0  0  0  0
  137.3617   67.5109  221.7202 H   0  0  0  0  0  0  0  0  0  0  0  0
  139.5550   65.6831  222.8046 H   0  0  0  0  0  0  0  0  0  0  0  0
  138.0145   65.2237  221.9861 H   0  0  0  0  0  0  0  0  0  0  0  0
  140.5310   65.9930  220.8700 H   0  0  0  0  0  0  0  0  0  0  0  0
  139.5196   67.1186  218.9749 H   0  0  0  0  0  0  0  0  0  0  0  0
  138.0250   67.2669  219.9527 H   0  0  0  0  0  0  0  0  0  0  0  0
  140.7903   68.3496  220.6374 H   0  0  0  0  0  0  0  0  0  0  0  0
  139.3350   69.2994  220.1794 H   0  0  0  0  0  0  0  0  0  0  0  0
  1  2  2  0
  2  3  1  0
  3  4  2  0
  4  5  1  0
  5  6  2  0
  6  7  1  0
  7  8  2  0
  8  9  1  0
  9 10  2  0
 10 11  1  0
 11 12  2  0
 12 13  1  0
 13 14  2  0
 14 15  1  0
 15 16  2  0
 16 17  1  0
 17 18  1  0
 18 19  1  0
 19 20  1  0
 20 21  1  0
 21 22  1  0
 22 23  1  0
 23 24  1  0
 17 25  2  0
 10 26  1  0
 26 27  1  0
 27 28  1  0
 28 29  1  0
 29 30  1  0
 30 31  1  0
 31 32  1  0
 32 33  1  0
 26  2  1  0
 33 28  1  0
  8  3  1  0
 25 13  1  0
 24 19  1  0
  4 34  1  0
  5 35  1  0
  6 36  1  0
  7 37  1  0
 11 38  1  0
 12 39  1  0
 14 40  1  0
 15 41  1  0
 16 42  1  0
 18 43  1  0
 18 44  1  0
 20 45  1  0
 20 46  1  0
 21 47  1  0
 21 48  1  0
 23 49  1  0
 23 50  1  0
 24 51  1  0
 24 52  1  0
 25 53  1  0
 27 54  1  0
 27 55  1  0
 28 56  1  0
 29 57  1  0
 29 58  1  0
 30 59  1  0
 30 60  1  0
 31 61  1  0
 32 62  1  0
 32 63  1  0
 33 64  1  0
 33 65  1  0
M  END
>  <smiles>  (29) 
O=c1c2ccccc2nc(/C=C/c2cccc(CN3CCOCC3)c2)n1CC1CCNCC1

>  <score_type>  (29) 
oracle

>  <origin>  (29) 
autodockgpu

>  <m_score__min__energy>  (29) 
-9.6400000000000006

>  <m_primary>  (29) 
energy

>  <rmsd>  (29) 
12.654330396816423

>  <m_score__min__rmsd>  (29) 
12.654330396816423

>  <meeko>  (29) 
{"free_energy": -8.74, "intermolecular_energy": -10.83, "internal_energy": -1.43, "cluster_size": 8, "cluster_id": 3, "rank_in_cluster": 5}

>  <energy>  (29) 
-8.48

>  <cluster_rmsd>  (29) 
1.37

>  <cluster>  (29) 
3

$$$$

     RDKit          3D

 65 69  0  0  0  0  0  0  0  0999 V2000
  139.0610   67.3920  225.4430 O   0  0  0  0  0  0  0  0  0  0  0  0
  139.1510   68.6470  225.3460 C   0  0  0  0  0  0  0  0  0  0  0  0
  139.8820   69.2670  226.3590 C   0  0  0  0  0  0  0  0  0  0  0  0
  140.4600   68.5520  227.3850 C   0  0  0  0  0  0  0  0  0  0  0  0
  141.1800   69.1960  228.3780 C   0  0  0  0  0  0  0  0  0  0  0  0
  141.3190   70.5690  228.3350 C   0  0  0  0  0  0  0  0  0  0  0  0
  140.7360   71.2940  227.2990 C   0  0  0  0  0  0  0  0  0  0  0  0
  140.0270   70.6300  226.3280 C   0  0  0  0  0  0  0  0  0  0  0  0
  139.4490   71.2880  225.3120 N   0  0  0  0  0  0  0  0  0  0  0  0
  138.7470   70.6820  224.3390 C   0  0  0  0  0  0  0  0  0  0  0  0
  138.1730   71.5430  223.2890 C   0  0  0  0  0  0  0  0  0  0  0  0
  138.7790   71.6620  222.1260 C   0  0  0  0  0  0  0  0  0  0  0  0
  139.6950   72.7340  221.7790 C   0  0  0  0  0  0  0  0  0  0  0  0
  139.3900   74.0730  221.8810 C   0  0  0  0  0  0  0  0  0  0  0  0
  140.2910   75.0620  221.5440 C   0  0  0  0  0  0  0  0  0  0  0  0
  141.5560   74.7570  221.0830 C   0  0  0  0  0  0  0  0  0  0  0  0
  141.8720   73.4230  220.9760 C   0  0  0  0  0  0  0  0  0  0  0  0
  143.2350   73.0860  220.4830 C   0  0  0  0  0  0  0  0  0  0  0  0
  144.0360   74.2190  220.1480 N   0  0  0  0  0  0  0  0  0  0  0  0
  144.0840   74.4410  218.7150 C   0  0  0  0  0  0  0  0  0  0  0  0
  144.9100   73.3650  218.0880 C   0  0  0  0  0  0  0  0  0  0  0  0
  145.5640   72.5620  218.9880 O   0  0  0  0  0  0  0  0  0  0  0  0
  146.3180   73.2990  219.9020 C   0  0  0  0  0  0  0  0  0  0  0  0
  145.3750   74.2130  220.6470 C   0  0  0  0  0  0  0  0  0  0  0  0
  140.9710   72.4330  221.3130 C   0  0  0  0  0  0  0  0  0  0  0  0
  138.5870   69.3480  224.3400 N   0  0  0  0  0  0  0  0  0  0  0  0
  137.8270   68.6810  223.3110 C   0  0  0  0  0  0  0  0  0  0  0  0
  136.3350   68.7980  223.5780 C   0  0  0  0  0  0  0  0  0  0  0  0
  136.0490   69.3000  224.9610 C   0  0  0  0  0  0  0  0  0  0  0  0
  134.5410   69.3770  225.1930 C   0  0  0  0  0  0  0  0  0  0  0  0
  133.8900   70.0340  224.0790 N   0  0  0  0  0  0  0  0  0  0  0  0
  134.8540   70.7260  223.2480 C   0  0  0  0  0  0  0  0  0  0  0  0
  135.7160   69.7130  222.5580 C   0  0  0  0  0  0  0  0  0  0  0  0
  140.3486   67.4581  227.4161 H   0  0  0  0  0  0  0  0  0  0  0  0
  141.6374   68.6179  229.1945 H   0  0  0  0  0  0  0  0  0  0  0  0
  141.8896   71.0895  229.1182 H   0  0  0  0  0  0  0  0  0  0  0  0
  140.8422   72.3881  227.2586 H   0  0  0  0  0  0  0  0  0  0  0  0
  137.2360   72.0875  223.4775 H   0  0  0  0  0  0  0  0  0  0  0  0
  138.5771   70.8953  221.3635 H   0  0  0  0  0  0  0  0  0  0  0  0
  138.3932   74.3642  222.2438 H   0  0  0  0  0  0  0  0  0  0  0  0
  139.9949   76.1166  221.6449 H   0  0  0  0  0  0  0  0  0  0  0  0
  142.2766   75.5434  220.8141 H   0  0  0  0  0  0  0  0  0  0  0  0
  143.7544   72.5172  221.2683 H   0  0  0  0  0  0  0  0  0  0  0  0
  143.1007   72.5102  219.5554 H   0  0  0  0  0  0  0  0  0  0  0  0
  143.0648   74.4125  218.3022 H   0  0  0  0  0  0  0  0  0  0  0  0
  144.5292   75.4245  218.5040 H   0  0  0  0  0  0  0  0  0  0  0  0
  144.2477   72.7324  217.4788 H   0  0  0  0  0  0  0  0  0  0  0  0
  145.6852   73.8684  217.4916 H   0  0  0  0  0  0  0  0  0  0  0  0
  146.8175   72.6201  220.6087 H   0  0  0  0  0  0  0  0  0  0  0  0
  147.0891   73.8849  219.3803 H   0  0  0  0  0  0  0  0  0  0  0  0
  145.3478   73.8942  221.6994 H   0  0  0  0  0  0  0  0  0  0  0  0
  145.7616   75.2345  220.5162 H   0  0  0  0  0  0  0  0  0  0  0  0
  141.2694   71.3792  221.2105 H   0  0  0  0  0  0  0  0  0  0  0  0
  138.0562   69.1409  222.3384 H   0  0  0  0  0  0  0  0  0  0  0  0
  138.1011   67.6157  223.3058 H   0  0  0  0  0  0  0  0  0  0  0  0
  135.8954   67.7928  223.4983 H   0  0  0  0  0  0  0  0  0  0  0  0
  136.4951   68.6140  225.6961 H   0  0  0  0  0  0  0  0  0  0  0  0
  136.4814   70.3051  225.0746 H   0  0  0  0  0  0  0  0  0  0  0  0
  134.1384   68.3588  225.2984 H   0  0  0  0  0  0  0  0  0  0  0  0
  134.3508   69.9563  226.1085 H   0  0  0  0  0  0  0  0  0  0  0  0
  133.3790   69.3360  223.4930 H   0  0  0  0  0  0  0  0  0  0  0  0
  134.3263   71.3338  222.4983 H   0  0  0  0  0  0  0  0  0  0  0  0
  135.4780   71.3842  223.8704 H   0  0  0  0  0  0  0  0  0  0  0  0
  135.1016   69.1229  221.8620 H   0  0  0  0  0  0  0  0  0  0  0  0
  136.5113   70.2295  222.0005 H   0  0  0  0  0  0  0  0  0  0  0  0
  1  2  2  0
  2  3  1  0
  3  4  2  0
  4  5  1  0
  5  6  2  0
  6  7  1  0
  7  8  2  0
  8  9  1  0
  9 10  2  0
 10 11  1  0
 11 12  2  0
 12 13  1  0
 13 14  2  0
 14 15  1  0
 15 16  2  0
 16 17  1  0
 17 18  1  0
 18 19  1  0
 19 20  1  0
 20 21  1  0
 21 22  1  0
 22 23  1  0
 23 24  1  0
 17 25  2  0
 10 26  1  0
 26 27  1  0
 27 28  1  0
 28 29  1  0
 29 30  1  0
 30 31  1  0
 31 32  1  0
 32 33  1  0
 26  2  1  0
 33 28  1  0
  8  3  1  0
 25 13  1  0
 24 19  1  0
  4 34  1  0
  5 35  1  0
  6 36  1  0
  7 37  1  0
 11 38  1  0
 12 39  1  0
 14 40  1  0
 15 41  1  0
 16 42  1  0
 18 43  1  0
 18 44  1  0
 20 45  1  0
 20 46  1  0
 21 47  1  0
 21 48  1  0
 23 49  1  0
 23 50  1  0
 24 51  1  0
 24 52  1  0
 25 53  1  0
 27 54  1  0
 27 55  1  0
 28 56  1  0
 29 57  1  0
 29 58  1  0
 30 59  1  0
 30 60  1  0
 31 61  1  0
 32 62  1  0
 32 63  1  0
 33 64  1  0
 33 65  1  0
M  END
>  <smiles>  (30) 
O=c1c2ccccc2nc(/C=C/c2cccc(CN3CCOCC3)c2)n1CC1CCNCC1

>  <score_type>  (30) 
oracle

>  <origin>  (30) 
autodockgpu

>  <m_score__min__energy>  (30) 
-9.6400000000000006

>  <m_primary>  (30) 
energy

>  <rmsd>  (30) 
12.489853213317222

>  <m_score__min__rmsd>  (30) 
12.489853213317222

>  <meeko>  (30) 
{"free_energy": -8.26, "intermolecular_energy": -10.34, "internal_energy": -1.6, "cluster_size": 5, "cluster_id": 2, "rank_in_cluster": 5}

>  <energy>  (30) 
-8.39

>  <cluster_rmsd>  (30) 
1.48

>  <cluster>  (30) 
3

$$$$

     RDKit          3D

 65 69  0  0  0  0  0  0  0  0999 V2000
  138.7880   68.1370  225.2390 O   0  0  0  0  0  0  0  0  0  0  0  0
  139.3770   69.2030  224.9070 C   0  0  0  0  0  0  0  0  0  0  0  0
  139.8920   69.9470  225.9670 C   0  0  0  0  0  0  0  0  0  0  0  0
  139.7640   69.5390  227.2770 C   0  0  0  0  0  0  0  0  0  0  0  0
  140.2870   70.3010  228.3090 C   0  0  0  0  0  0  0  0  0  0  0  0
  140.9440   71.4800  228.0190 C   0  0  0  0  0  0  0  0  0  0  0  0
  141.0740   71.8950  226.6970 C   0  0  0  0  0  0  0  0  0  0  0  0
  140.5460   71.1210  225.6920 C   0  0  0  0  0  0  0  0  0  0  0  0
  140.6490   71.4820  224.4050 N   0  0  0  0  0  0  0  0  0  0  0  0
  140.1500   70.7580  223.3890 C   0  0  0  0  0  0  0  0  0  0  0  0
  140.3440   71.2870  222.0260 C   0  0  0  0  0  0  0  0  0  0  0  0
  140.4100   72.5870  221.8250 C   0  0  0  0  0  0  0  0  0  0  0  0
  139.2920   73.5030  221.9710 C   0  0  0  0  0  0  0  0  0  0  0  0
  139.4260   74.8630  222.1400 C   0  0  0  0  0  0  0  0  0  0  0  0
  138.3370   75.7000  222.2720 C   0  0  0  0  0  0  0  0  0  0  0  0
  137.0460   75.2110  222.2420 C   0  0  0  0  0  0  0  0  0  0  0  0
  136.9000   73.8540  222.0740 C   0  0  0  0  0  0  0  0  0  0  0  0
  135.5110   73.3210  222.0370 C   0  0  0  0  0  0  0  0  0  0  0  0
  134.8350   73.3540  223.2930 N   0  0  0  0  0  0  0  0  0  0  0  0
  135.6720   72.8610  224.3700 C   0  0  0  0  0  0  0  0  0  0  0  0
  135.8330   71.3820  224.2180 C   0  0  0  0  0  0  0  0  0  0  0  0
  135.0310   70.8270  223.2540 O   0  0  0  0  0  0  0  0  0  0  0  0
  133.6880   71.1660  223.4230 C   0  0  0  0  0  0  0  0  0  0  0  0
  133.5800   72.6710  223.3500 C   0  0  0  0  0  0  0  0  0  0  0  0
  137.9890   73.0160  221.9420 C   0  0  0  0  0  0  0  0  0  0  0  0
  139.5040   69.6030  223.6240 N   0  0  0  0  0  0  0  0  0  0  0  0
  138.9500   68.8180  222.5480 C   0  0  0  0  0  0  0  0  0  0  0  0
  137.6080   69.3770  222.1040 C   0  0  0  0  0  0  0  0  0  0  0  0
  137.6120   69.7690  220.6570 C   0  0  0  0  0  0  0  0  0  0  0  0
  136.2540   70.3480  220.2640 C   0  0  0  0  0  0  0  0  0  0  0  0
  135.1840   69.4970  220.7400 N   0  0  0  0  0  0  0  0  0  0  0  0
  135.6880   68.1980  221.1340 C   0  0  0  0  0  0  0  0  0  0  0  0
  136.5330   68.3570  222.3610 C   0  0  0  0  0  0  0  0  0  0  0  0
  139.2412   68.5986  227.5056 H   0  0  0  0  0  0  0  0  0  0  0  0
  140.1795   69.9689  229.3522 H   0  0  0  0  0  0  0  0  0  0  0  0
  141.3642   72.0906  228.8318 H   0  0  0  0  0  0  0  0  0  0  0  0
  141.5948   72.8342  226.4588 H   0  0  0  0  0  0  0  0  0  0  0  0
  140.4337   70.5947  221.1759 H   0  0  0  0  0  0  0  0  0  0  0  0
  141.3806   73.0091  221.5253 H   0  0  0  0  0  0  0  0  0  0  0  0
  140.4362   75.2972  222.1708 H   0  0  0  0  0  0  0  0  0  0  0  0
  138.5008   76.7797  222.4039 H   0  0  0  0  0  0  0  0  0  0  0  0
  136.1757   75.8754  222.3475 H   0  0  0  0  0  0  0  0  0  0  0  0
  134.9317   73.9192  221.3183 H   0  0  0  0  0  0  0  0  0  0  0  0
  135.5879   72.2622  221.7488 H   0  0  0  0  0  0  0  0  0  0  0  0
  136.6579   73.3467  224.3238 H   0  0  0  0  0  0  0  0  0  0  0  0
  135.2050   73.0881  225.3397 H   0  0  0  0  0  0  0  0  0  0  0  0
  136.8811   71.1738  223.9571 H   0  0  0  0  0  0  0  0  0  0  0  0
  135.5355   70.9308  225.1761 H   0  0  0  0  0  0  0  0  0  0  0  0
  133.0832   70.7082  222.6264 H   0  0  0  0  0  0  0  0  0  0  0  0
  133.3180   70.8004  224.3922 H   0  0  0  0  0  0  0  0  0  0  0  0
  133.0063   72.9308  222.4482 H   0  0  0  0  0  0  0  0  0  0  0  0
  133.0899   72.9947  224.2801 H   0  0  0  0  0  0  0  0  0  0  0  0
  137.8225   71.9366  221.8107 H   0  0  0  0  0  0  0  0  0  0  0  0
  139.6459   68.8326  221.6962 H   0  0  0  0  0  0  0  0  0  0  0  0
  138.8011   67.7882  222.9048 H   0  0  0  0  0  0  0  0  0  0  0  0
  137.4096   70.2882  222.6874 H   0  0  0  0  0  0  0  0  0  0  0  0
  138.3924   70.5255  220.4875 H   0  0  0  0  0  0  0  0  0  0  0  0
  137.8135   68.8781  220.0441 H   0  0  0  0  0  0  0  0  0  0  0  0
  136.1451   71.3489  220.7072 H   0  0  0  0  0  0  0  0  0  0  0  0
  136.1977   70.4112  219.1673 H   0  0  0  0  0  0  0  0  0  0  0  0
  134.7060   69.9370  221.5580 H   0  0  0  0  0  0  0  0  0  0  0  0
  134.8452   67.5251  221.3507 H   0  0  0  0  0  0  0  0  0  0  0  0
  136.2905   67.7693  220.3196 H   0  0  0  0  0  0  0  0  0  0  0  0
  135.9032   68.6918  223.1984 H   0  0  0  0  0  0  0  0  0  0  0  0
  136.9973   67.3921  222.6126 H   0  0  0  0  0  0  0  0  0  0  0  0
  1  2  2  0
  2  3  1  0
  3  4  2  0
  4  5  1  0
  5  6  2  0
  6  7  1  0
  7  8  2  0
  8  9  1  0
  9 10  2  0
 10 11  1  0
 11 12  2  0
 12 13  1  0
 13 14  2  0
 14 15  1  0
 15 16  2  0
 16 17  1  0
 17 18  1  0
 18 19  1  0
 19 20  1  0
 20 21  1  0
 21 22  1  0
 22 23  1  0
 23 24  1  0
 17 25  2  0
 10 26  1  0
 26 27  1  0
 27 28  1  0
 28 29  1  0
 29 30  1  0
 30 31  1  0
 31 32  1  0
 32 33  1  0
 26  2  1  0
 33 28  1  0
  8  3  1  0
 25 13  1  0
 24 19  1  0
  4 34  1  0
  5 35  1  0
  6 36  1  0
  7 37  1  0
 11 38  1  0
 12 39  1  0
 14 40  1  0
 15 41  1  0
 16 42  1  0
 18 43  1  0
 18 44  1  0
 20 45  1  0
 20 46  1  0
 21 47  1  0
 21 48  1  0
 23 49  1  0
 23 50  1  0
 24 51  1  0
 24 52  1  0
 25 53  1  0
 27 54  1  0
 27 55  1  0
 28 56  1  0
 29 57  1  0
 29 58  1  0
 30 59  1  0
 30 60  1  0
 31 61  1  0
 32 62  1  0
 32 63  1  0
 33 64  1  0
 33 65  1  0
M  END
>  <smiles>  (31) 
O=c1c2ccccc2nc(/C=C/c2cccc(CN3CCOCC3)c2)n1CC1CCNCC1

>  <score_type>  (31) 
oracle

>  <origin>  (31) 
autodockgpu

>  <m_score__min__energy>  (31) 
-9.6400000000000006

>  <m_primary>  (31) 
energy

>  <rmsd>  (31) 
11.783678485977124

>  <m_score__min__rmsd>  (31) 
11.783678485977124

>  <meeko>  (31) 
{"free_energy": -5.91, "intermolecular_energy": -8.0, "internal_energy": -3.9, "cluster_size": 2, "cluster_id": 12, "rank_in_cluster": 2}

>  <energy>  (31) 
-8.38

>  <cluster_rmsd>  (31) 
1.14

>  <cluster>  (31) 
3

$$$$

     RDKit          3D

 65 69  0  0  0  0  0  0  0  0999 V2000
  142.6650   77.5270  219.1010 O   0  0  0  0  0  0  0  0  0  0  0  0
  142.0940   77.0090  220.1000 C   0  0  0  0  0  0  0  0  0  0  0  0
  141.6520   77.9160  221.0630 C   0  0  0  0  0  0  0  0  0  0  0  0
  141.8310   79.2750  220.9250 C   0  0  0  0  0  0  0  0  0  0  0  0
  141.3820   80.1500  221.8990 C   0  0  0  0  0  0  0  0  0  0  0  0
  140.7480   79.6530  223.0200 C   0  0  0  0  0  0  0  0  0  0  0  0
  140.5660   78.2800  223.1630 C   0  0  0  0  0  0  0  0  0  0  0  0
  141.0210   77.4340  222.1810 C   0  0  0  0  0  0  0  0  0  0  0  0
  140.8670   76.1050  222.2780 N   0  0  0  0  0  0  0  0  0  0  0  0
  141.2950   75.2390  221.3430 C   0  0  0  0  0  0  0  0  0  0  0  0
  141.0510   73.8060  221.5920 C   0  0  0  0  0  0  0  0  0  0  0  0
  139.8780   73.2770  221.3130 C   0  0  0  0  0  0  0  0  0  0  0  0
  139.0440   72.5670  222.2680 C   0  0  0  0  0  0  0  0  0  0  0  0
  137.6780   72.7170  222.3610 C   0  0  0  0  0  0  0  0  0  0  0  0
  136.9210   72.0220  223.2810 C   0  0  0  0  0  0  0  0  0  0  0  0
  137.5000   71.1320  224.1630 C   0  0  0  0  0  0  0  0  0  0  0  0
  138.8640   70.9740  224.0800 C   0  0  0  0  0  0  0  0  0  0  0  0
  139.4940   70.0130  225.0260 C   0  0  0  0  0  0  0  0  0  0  0  0
  140.8140   70.3730  225.4370 N   0  0  0  0  0  0  0  0  0  0  0  0
  141.4640   69.2980  226.1620 C   0  0  0  0  0  0  0  0  0  0  0  0
  140.8190   69.1630  227.5040 C   0  0  0  0  0  0  0  0  0  0  0  0
  139.9310   70.1640  227.8040 O   0  0  0  0  0  0  0  0  0  0  0  0
  140.4920   71.4320  227.6480 C   0  0  0  0  0  0  0  0  0  0  0  0
  140.9270   71.5700  226.2080 C   0  0  0  0  0  0  0  0  0  0  0  0
  139.6220   71.6690  223.1600 C   0  0  0  0  0  0  0  0  0  0  0  0
  141.9170   75.6780  220.2360 N   0  0  0  0  0  0  0  0  0  0  0  0
  142.3940   74.7630  219.2280 C   0  0  0  0  0  0  0  0  0  0  0  0
  143.9030   74.6070  219.3090 C   0  0  0  0  0  0  0  0  0  0  0  0
  144.3280   73.8940  220.5580 C   0  0  0  0  0  0  0  0  0  0  0  0
  145.8510   73.7820  220.6090 C   0  0  0  0  0  0  0  0  0  0  0  0
  146.3680   73.3110  219.3420 N   0  0  0  0  0  0  0  0  0  0  0  0
  145.3100   72.7570  218.5230 C   0  0  0  0  0  0  0  0  0  0  0  0
  144.3950   73.8650  218.0970 C   0  0  0  0  0  0  0  0  0  0  0  0
  142.3363   79.6691  220.0309 H   0  0  0  0  0  0  0  0  0  0  0  0
  141.5293   81.2336  221.7806 H   0  0  0  0  0  0  0  0  0  0  0  0
  140.3871   80.3406  223.7991 H   0  0  0  0  0  0  0  0  0  0  0  0
  140.0626   77.8765  224.0539 H   0  0  0  0  0  0  0  0  0  0  0  0
  141.8506   73.1779  222.0116 H   0  0  0  0  0  0  0  0  0  0  0  0
  139.5028   73.3798  220.2841 H   0  0  0  0  0  0  0  0  0  0  0  0
  137.1731   73.4156  221.6776 H   0  0  0  0  0  0  0  0  0  0  0  0
  135.8329   72.1803  223.3125 H   0  0  0  0  0  0  0  0  0  0  0  0
  136.8992   70.5755  224.8974 H   0  0  0  0  0  0  0  0  0  0  0  0
  138.8601   69.9463  225.9225 H   0  0  0  0  0  0  0  0  0  0  0  0
  139.5804   69.0554  224.4916 H   0  0  0  0  0  0  0  0  0  0  0  0
  141.3554   68.3567  225.6033 H   0  0  0  0  0  0  0  0  0  0  0  0
  142.5342   69.5221  226.2825 H   0  0  0  0  0  0  0  0  0  0  0  0
  140.2807   68.2041  227.5332 H   0  0  0  0  0  0  0  0  0  0  0  0
  141.6255   69.2218  228.2497 H   0  0  0  0  0  0  0  0  0  0  0  0
  139.7460   72.2036  227.8892 H   0  0  0  0  0  0  0  0  0  0  0  0
  141.3514   71.5578  228.3229 H   0  0  0  0  0  0  0  0  0  0  0  0
  140.3051   72.3437  225.7341 H   0  0  0  0  0  0  0  0  0  0  0  0
  141.9959   71.8291  226.2279 H   0  0  0  0  0  0  0  0  0  0  0  0
  140.7099   71.5092  223.1310 H   0  0  0  0  0  0  0  0  0  0  0  0
  141.9216   73.7813  219.3800 H   0  0  0  0  0  0  0  0  0  0  0  0
  142.1345   75.1645  218.2373 H   0  0  0  0  0  0  0  0  0  0  0  0
  144.3474   75.6128  219.3397 H   0  0  0  0  0  0  0  0  0  0  0  0
  143.9754   74.4562  221.4353 H   0  0  0  0  0  0  0  0  0  0  0  0
  143.8934   72.8835  220.5602 H   0  0  0  0  0  0  0  0  0  0  0  0
  146.2794   74.7709  220.8295 H   0  0  0  0  0  0  0  0  0  0  0  0
  146.1285   73.0643  221.3950 H   0  0  0  0  0  0  0  0  0  0  0  0
  146.8240   74.0930  218.8210 H   0  0  0  0  0  0  0  0  0  0  0  0
  145.7445   72.2749  217.6349 H   0  0  0  0  0  0  0  0  0  0  0  0
  144.7460   72.0086  219.0990 H   0  0  0  0  0  0  0  0  0  0  0  0
  144.9406   74.5582  217.4399 H   0  0  0  0  0  0  0  0  0  0  0  0
  143.5368   73.4418  217.5544 H   0  0  0  0  0  0  0  0  0  0  0  0
  1  2  2  0
  2  3  1  0
  3  4  2  0
  4  5  1  0
  5  6  2  0
  6  7  1  0
  7  8  2  0
  8  9  1  0
  9 10  2  0
 10 11  1  0
 11 12  2  0
 12 13  1  0
 13 14  2  0
 14 15  1  0
 15 16  2  0
 16 17  1  0
 17 18  1  0
 18 19  1  0
 19 20  1  0
 20 21  1  0
 21 22  1  0
 22 23  1  0
 23 24  1  0
 17 25  2  0
 10 26  1  0
 26 27  1  0
 27 28  1  0
 28 29  1  0
 29 30  1  0
 30 31  1  0
 31 32  1  0
 32 33  1  0
 26  2  1  0
 33 28  1  0
  8  3  1  0
 25 13  1  0
 24 19  1  0
  4 34  1  0
  5 35  1  0
  6 36  1  0
  7 37  1  0
 11 38  1  0
 12 39  1  0
 14 40  1  0
 15 41  1  0
 16 42  1  0
 18 43  1  0
 18 44  1  0
 20 45  1  0
 20 46  1  0
 21 47  1  0
 21 48  1  0
 23 49  1  0
 23 50  1  0
 24 51  1  0
 24 52  1  0
 25 53  1  0
 27 54  1  0
 27 55  1  0
 28 56  1  0
 29 57  1  0
 29 58  1  0
 30 59  1  0
 30 60  1  0
 31 61  1  0
 32 62  1  0
 32 63  1  0
 33 64  1  0
 33 65  1  0
M  END
>  <smiles>  (32) 
O=c1c2ccccc2nc(/C=C/c2cccc(CN3CCOCC3)c2)n1CC1CCNCC1

>  <score_type>  (32) 
oracle

>  <origin>  (32) 
autodockgpu

>  <m_score__min__energy>  (32) 
-9.6400000000000006

>  <m_primary>  (32) 
energy

>  <rmsd>  (32) 
7.58844281350285

>  <m_score__min__rmsd>  (32) 
7.58844281350285

>  <meeko>  (32) 
{"free_energy": -9.31, "intermolecular_energy": -11.4, "internal_energy": -1.59, "cluster_size": 18, "cluster_id": 1, "rank_in_cluster": 8}

>  <energy>  (32) 
-8.96

>  <cluster_rmsd>  (32) 
0.0

>  <cluster>  (32) 
4

$$$$

     RDKit          3D

 65 69  0  0  0  0  0  0  0  0999 V2000
  137.8980   79.6830  222.8430 O   0  0  0  0  0  0  0  0  0  0  0  0
  138.8750   78.8880  222.7760 C   0  0  0  0  0  0  0  0  0  0  0  0
  140.1120   79.4420  223.1060 C   0  0  0  0  0  0  0  0  0  0  0  0
  140.2450   80.7620  223.4770 C   0  0  0  0  0  0  0  0  0  0  0  0
  141.4860   81.2840  223.7990 C   0  0  0  0  0  0  0  0  0  0  0  0
  142.6010   80.4710  223.7470 C   0  0  0  0  0  0  0  0  0  0  0  0
  142.4690   79.1380  223.3710 C   0  0  0  0  0  0  0  0  0  0  0  0
  141.2260   78.6450  223.0570 C   0  0  0  0  0  0  0  0  0  0  0  0
  141.0530   77.3660  222.6900 N   0  0  0  0  0  0  0  0  0  0  0  0
  139.8580   76.8400  222.3750 C   0  0  0  0  0  0  0  0  0  0  0  0
  139.8300   75.4160  221.9910 C   0  0  0  0  0  0  0  0  0  0  0  0
  140.2400   75.0450  220.7960 C   0  0  0  0  0  0  0  0  0  0  0  0
  141.3100   75.6890  220.0540 C   0  0  0  0  0  0  0  0  0  0  0  0
  142.5770   75.1670  219.9160 C   0  0  0  0  0  0  0  0  0  0  0  0
  143.5650   75.8100  219.1990 C   0  0  0  0  0  0  0  0  0  0  0  0
  143.3320   77.0200  218.5790 C   0  0  0  0  0  0  0  0  0  0  0  0
  142.0700   77.5520  218.7090 C   0  0  0  0  0  0  0  0  0  0  0  0
  141.8100   78.8550  218.0380 C   0  0  0  0  0  0  0  0  0  0  0  0
  142.3780   79.9830  218.7050 N   0  0  0  0  0  0  0  0  0  0  0  0
  141.8430   80.1430  220.0440 C   0  0  0  0  0  0  0  0  0  0  0  0
  140.4250   80.6070  219.9440 C   0  0  0  0  0  0  0  0  0  0  0  0
  140.0330   80.9450  218.6740 O   0  0  0  0  0  0  0  0  0  0  0  0
  140.8990   81.8640  218.0810 C   0  0  0  0  0  0  0  0  0  0  0  0
  142.2710   81.2350  218.0250 C   0  0  0  0  0  0  0  0  0  0  0  0
  141.0810   76.9100  219.4260 C   0  0  0  0  0  0  0  0  0  0  0  0
  138.7460   77.5940  222.4130 N   0  0  0  0  0  0  0  0  0  0  0  0
  137.4550   77.0500  222.0660 C   0  0  0  0  0  0  0  0  0  0  0  0
  137.0150   76.0100  223.0830 C   0  0  0  0  0  0  0  0  0  0  0  0
  135.7440   76.4020  223.7740 C   0  0  0  0  0  0  0  0  0  0  0  0
  135.3540   75.3420  224.8030 C   0  0  0  0  0  0  0  0  0  0  0  0
  135.4380   74.0180  224.2230 N   0  0  0  0  0  0  0  0  0  0  0  0
  135.5220   74.0880  222.7790 C   0  0  0  0  0  0  0  0  0  0  0  0
  136.8430   74.6830  222.3970 C   0  0  0  0  0  0  0  0  0  0  0  0
  139.3556   81.4081  223.5178 H   0  0  0  0  0  0  0  0  0  0  0  0
  141.5833   82.3392  224.0943 H   0  0  0  0  0  0  0  0  0  0  0  0
  143.5912   80.8763  224.0022 H   0  0  0  0  0  0  0  0  0  0  0  0
  143.3526   78.4844  223.3256 H   0  0  0  0  0  0  0  0  0  0  0  0
  139.4657   74.6623  222.7046 H   0  0  0  0  0  0  0  0  0  0  0  0
  139.7368   74.1869  220.3265 H   0  0  0  0  0  0  0  0  0  0  0  0
  142.8093   74.2039  220.3940 H   0  0  0  0  0  0  0  0  0  0  0  0
  144.5600   75.3477  219.1201 H   0  0  0  0  0  0  0  0  0  0  0  0
  144.1182   77.5352  218.0076 H   0  0  0  0  0  0  0  0  0  0  0  0
  142.2286   78.8088  217.0218 H   0  0  0  0  0  0  0  0  0  0  0  0
  140.7197   79.0010  218.0449 H   0  0  0  0  0  0  0  0  0  0  0  0
  141.8804   79.1801  220.5746 H   0  0  0  0  0  0  0  0  0  0  0  0
  142.4397   80.8817  220.5992 H   0  0  0  0  0  0  0  0  0  0  0  0
  139.7712   79.7986  220.3033 H   0  0  0  0  0  0  0  0  0  0  0  0
  140.3472   81.5199  220.5527 H   0  0  0  0  0  0  0  0  0  0  0  0
  140.5540   82.1008  217.0637 H   0  0  0  0  0  0  0  0  0  0  0  0
  140.9272   82.7968  218.6633 H   0  0  0  0  0  0  0  0  0  0  0  0
  142.5327   81.0754  216.9686 H   0  0  0  0  0  0  0  0  0  0  0  0
  142.9537   81.9284  218.5379 H   0  0  0  0  0  0  0  0  0  0  0  0
  140.0870   77.3747  219.5032 H   0  0  0  0  0  0  0  0  0  0  0  0
  136.7159   77.8643  222.0404 H   0  0  0  0  0  0  0  0  0  0  0  0
  137.5295   76.5684  221.0798 H   0  0  0  0  0  0  0  0  0  0  0  0
  137.7960   75.9364  223.8542 H   0  0  0  0  0  0  0  0  0  0  0  0
  135.8897   77.3662  224.2830 H   0  0  0  0  0  0  0  0  0  0  0  0
  134.9415   76.4891  223.0268 H   0  0  0  0  0  0  0  0  0  0  0  0
  136.0364   75.4043  225.6635 H   0  0  0  0  0  0  0  0  0  0  0  0
  134.3185   75.5239  225.1266 H   0  0  0  0  0  0  0  0  0  0  0  0
  136.2780   73.5150  224.5860 H   0  0  0  0  0  0  0  0  0  0  0  0
  135.4362   73.0767  222.3549 H   0  0  0  0  0  0  0  0  0  0  0  0
  134.7053   74.7129  222.3885 H   0  0  0  0  0  0  0  0  0  0  0  0
  137.6527   74.0045  222.7037 H   0  0  0  0  0  0  0  0  0  0  0  0
  136.8773   74.8277  221.3071 H   0  0  0  0  0  0  0  0  0  0  0  0
  1  2  2  0
  2  3  1  0
  3  4  2  0
  4  5  1  0
  5  6  2  0
  6  7  1  0
  7  8  2  0
  8  9  1  0
  9 10  2  0
 10 11  1  0
 11 12  2  0
 12 13  1  0
 13 14  2  0
 14 15  1  0
 15 16  2  0
 16 17  1  0
 17 18  1  0
 18 19  1  0
 19 20  1  0
 20 21  1  0
 21 22  1  0
 22 23  1  0
 23 24  1  0
 17 25  2  0
 10 26  1  0
 26 27  1  0
 27 28  1  0
 28 29  1  0
 29 30  1  0
 30 31  1  0
 31 32  1  0
 32 33  1  0
 26  2  1  0
 33 28  1  0
  8  3  1  0
 25 13  1  0
 24 19  1  0
  4 34  1  0
  5 35  1  0
  6 36  1  0
  7 37  1  0
 11 38  1  0
 12 39  1  0
 14 40  1  0
 15 41  1  0
 16 42  1  0
 18 43  1  0
 18 44  1  0
 20 45  1  0
 20 46  1  0
 21 47  1  0
 21 48  1  0
 23 49  1  0
 23 50  1  0
 24 51  1  0
 24 52  1  0
 25 53  1  0
 27 54  1  0
 27 55  1  0
 28 56  1  0
 29 57  1  0
 29 58  1  0
 30 59  1  0
 30 60  1  0
 31 61  1  0
 32 62  1  0
 32 63  1  0
 33 64  1  0
 33 65  1  0
M  END
>  <smiles>  (33) 
O=c1c2ccccc2nc(/C=C/c2cccc(CN3CCOCC3)c2)n1CC1CCNCC1

>  <score_type>  (33) 
oracle

>  <origin>  (33) 
autodockgpu

>  <m_score__min__energy>  (33) 
-9.6400000000000006

>  <m_primary>  (33) 
energy

>  <rmsd>  (33) 
7.354050546741583

>  <m_score__min__rmsd>  (33) 
7.354050546741583

>  <meeko>  (33) 
{"free_energy": -7.12, "intermolecular_energy": -9.21, "internal_energy": -2.61, "cluster_size": 2, "cluster_id": 11, "rank_in_cluster": 1}

>  <energy>  (33) 
-8.79

>  <cluster_rmsd>  (33) 
0.27

>  <cluster>  (33) 
4

$$$$

     RDKit          3D

 65 69  0  0  0  0  0  0  0  0999 V2000
  143.1500   76.5410  219.8920 O   0  0  0  0  0  0  0  0  0  0  0  0
  142.5660   75.5320  220.3740 C   0  0  0  0  0  0  0  0  0  0  0  0
  143.2970   74.3460  220.3240 C   0  0  0  0  0  0  0  0  0  0  0  0
  144.5640   74.2910  219.7850 C   0  0  0  0  0  0  0  0  0  0  0  0
  145.2660   73.0970  219.7480 C   0  0  0  0  0  0  0  0  0  0  0  0
  144.6870   71.9520  220.2590 C   0  0  0  0  0  0  0  0  0  0  0  0
  143.4070   72.0050  220.8030 C   0  0  0  0  0  0  0  0  0  0  0  0
  142.7330   73.2010  220.8270 C   0  0  0  0  0  0  0  0  0  0  0  0
  141.4990   73.2980  221.3430 N   0  0  0  0  0  0  0  0  0  0  0  0
  140.8020   74.4460  221.3880 C   0  0  0  0  0  0  0  0  0  0  0  0
  139.4550   74.3920  221.9870 C   0  0  0  0  0  0  0  0  0  0  0  0
  138.6480   73.3890  221.7090 C   0  0  0  0  0  0  0  0  0  0  0  0
  138.8720   72.0120  222.1130 C   0  0  0  0  0  0  0  0  0  0  0  0
  139.0390   70.9670  221.2320 C   0  0  0  0  0  0  0  0  0  0  0  0
  139.2540   69.6720  221.6570 C   0  0  0  0  0  0  0  0  0  0  0  0
  139.3120   69.3560  222.9990 C   0  0  0  0  0  0  0  0  0  0  0  0
  139.1460   70.3910  223.8890 C   0  0  0  0  0  0  0  0  0  0  0  0
  139.2110   70.0580  225.3380 C   0  0  0  0  0  0  0  0  0  0  0  0
  140.5230   69.7590  225.8140 N   0  0  0  0  0  0  0  0  0  0  0  0
  140.5100   69.3250  227.1980 C   0  0  0  0  0  0  0  0  0  0  0  0
  140.1970   70.5000  228.0680 C   0  0  0  0  0  0  0  0  0  0  0  0
  140.1870   71.7020  227.4070 O   0  0  0  0  0  0  0  0  0  0  0  0
  141.3600   71.9170  226.6840 C   0  0  0  0  0  0  0  0  0  0  0  0
  141.4940   70.7990  225.6770 C   0  0  0  0  0  0  0  0  0  0  0  0
  138.9310   71.6870  223.4640 C   0  0  0  0  0  0  0  0  0  0  0  0
  141.3250   75.5850  220.9040 N   0  0  0  0  0  0  0  0  0  0  0  0
  140.5880   76.8240  220.9330 C   0  0  0  0  0  0  0  0  0  0  0  0
  141.4110   77.9290  221.5740 C   0  0  0  0  0  0  0  0  0  0  0  0
  141.1340   79.2670  220.9570 C   0  0  0  0  0  0  0  0  0  0  0  0
  142.0000   80.3410  221.6140 C   0  0  0  0  0  0  0  0  0  0  0  0
  141.9430   80.2260  223.0560 N   0  0  0  0  0  0  0  0  0  0  0  0
  140.8400   79.3820  223.4660 C   0  0  0  0  0  0  0  0  0  0  0  0
  141.1270   77.9710  223.0500 C   0  0  0  0  0  0  0  0  0  0  0  0
  145.0230   75.2048  219.3798 H   0  0  0  0  0  0  0  0  0  0  0  0
  146.2766   73.0613  219.3150 H   0  0  0  0  0  0  0  0  0  0  0  0
  145.2367   70.9995  220.2361 H   0  0  0  0  0  0  0  0  0  0  0  0
  142.9393   71.0965  221.2102 H   0  0  0  0  0  0  0  0  0  0  0  0
  139.1240   75.1908  222.6670 H   0  0  0  0  0  0  0  0  0  0  0  0
  137.7395   73.6099  221.1295 H   0  0  0  0  0  0  0  0  0  0  0  0
  138.9997   71.1717  220.1519 H   0  0  0  0  0  0  0  0  0  0  0  0
  139.3819   68.8746  220.9102 H   0  0  0  0  0  0  0  0  0  0  0  0
  139.4830   68.3245  223.3408 H   0  0  0  0  0  0  0  0  0  0  0  0
  138.8259   70.9173  225.9065 H   0  0  0  0  0  0  0  0  0  0  0  0
  138.6098   69.1477  225.4791 H   0  0  0  0  0  0  0  0  0  0  0  0
  139.7428   68.5487  227.3349 H   0  0  0  0  0  0  0  0  0  0  0  0
  141.4920   68.9101  227.4690 H   0  0  0  0  0  0  0  0  0  0  0  0
  139.2041   70.3437  228.5148 H   0  0  0  0  0  0  0  0  0  0  0  0
  140.9979   70.5592  228.8197 H   0  0  0  0  0  0  0  0  0  0  0  0
  141.3067   72.8847  226.1637 H   0  0  0  0  0  0  0  0  0  0  0  0
  142.2291   71.9328  227.3581 H   0  0  0  0  0  0  0  0  0  0  0  0
  141.3960   71.2301  224.6698 H   0  0  0  0  0  0  0  0  0  0  0  0
  142.4760   70.3356  225.8526 H   0  0  0  0  0  0  0  0  0  0  0  0
  138.8032   72.4825  224.2129 H   0  0  0  0  0  0  0  0  0  0  0  0
  140.3331   77.1157  219.9035 H   0  0  0  0  0  0  0  0  0  0  0  0
  139.6744   76.6759  221.5275 H   0  0  0  0  0  0  0  0  0  0  0  0
  142.4740   77.7046  221.4018 H   0  0  0  0  0  0  0  0  0  0  0  0
  141.3609   79.2251  219.8815 H   0  0  0  0  0  0  0  0  0  0  0  0
  140.0739   79.5191  221.1078 H   0  0  0  0  0  0  0  0  0  0  0  0
  143.0416   80.2193  221.2820 H   0  0  0  0  0  0  0  0  0  0  0  0
  141.6219   81.3315  221.3208 H   0  0  0  0  0  0  0  0  0  0  0  0
  142.8320   79.8230  223.4250 H   0  0  0  0  0  0  0  0  0  0  0  0
  140.7259   79.4287  224.5591 H   0  0  0  0  0  0  0  0  0  0  0  0
  139.9098   79.7282  222.9918 H   0  0  0  0  0  0  0  0  0  0  0  0
  142.0019   77.5972  223.6021 H   0  0  0  0  0  0  0  0  0  0  0  0
  140.2543   77.3395  223.2726 H   0  0  0  0  0  0  0  0  0  0  0  0
  1  2  2  0
  2  3  1  0
  3  4  2  0
  4  5  1  0
  5  6  2  0
  6  7  1  0
  7  8  2  0
  8  9  1  0
  9 10  2  0
 10 11  1  0
 11 12  2  0
 12 13  1  0
 13 14  2  0
 14 15  1  0
 15 16  2  0
 16 17  1  0
 17 18  1  0
 18 19  1  0
 19 20  1  0
 20 21  1  0
 21 22  1  0
 22 23  1  0
 23 24  1  0
 17 25  2  0
 10 26  1  0
 26 27  1  0
 27 28  1  0
 28 29  1  0
 29 30  1  0
 30 31  1  0
 31 32  1  0
 32 33  1  0
 26  2  1  0
 33 28  1  0
  8  3  1  0
 25 13  1  0
 24 19  1  0
  4 34  1  0
  5 35  1  0
  6 36  1  0
  7 37  1  0
 11 38  1  0
 12 39  1  0
 14 40  1  0
 15 41  1  0
 16 42  1  0
 18 43  1  0
 18 44  1  0
 20 45  1  0
 20 46  1  0
 21 47  1  0
 21 48  1  0
 23 49  1  0
 23 50  1  0
 24 51  1  0
 24 52  1  0
 25 53  1  0
 27 54  1  0
 27 55  1  0
 28 56  1  0
 29 57  1  0
 29 58  1  0
 30 59  1  0
 30 60  1  0
 31 61  1  0
 32 62  1  0
 32 63  1  0
 33 64  1  0
 33 65  1  0
M  END
>  <smiles>  (34) 
O=c1c2ccccc2nc(/C=C/c2cccc(CN3CCOCC3)c2)n1CC1CCNCC1

>  <score_type>  (34) 
oracle

>  <origin>  (34) 
autodockgpu

>  <m_score__min__energy>  (34) 
-9.6400000000000006

>  <m_primary>  (34) 
energy

>  <rmsd>  (34) 
4.50651681166448

>  <m_score__min__rmsd>  (34) 
4.50651681166448

>  <meeko>  (34) 
{"free_energy": -7.83, "intermolecular_energy": -9.92, "internal_energy": -1.81, "cluster_size": 2, "cluster_id": 8, "rank_in_cluster": 2}

>  <energy>  (34) 
-8.56

>  <cluster_rmsd>  (34) 
0.0

>  <cluster>  (34) 
5

$$$$

     RDKit          3D

 65 69  0  0  0  0  0  0  0  0999 V2000
  139.1510   68.2710  224.8570 O   0  0  0  0  0  0  0  0  0  0  0  0
  139.6240   69.4390  224.7750 C   0  0  0  0  0  0  0  0  0  0  0  0
  140.0870   69.9740  225.9760 C   0  0  0  0  0  0  0  0  0  0  0  0
  140.0290   69.2730  227.1600 C   0  0  0  0  0  0  0  0  0  0  0  0
  140.4970   69.8320  228.3380 C   0  0  0  0  0  0  0  0  0  0  0  0
  141.0270   71.1070  228.3220 C   0  0  0  0  0  0  0  0  0  0  0  0
  141.0860   71.8180  227.1270 C   0  0  0  0  0  0  0  0  0  0  0  0
  140.6150   71.2400  225.9730 C   0  0  0  0  0  0  0  0  0  0  0  0
  140.6540   71.8890  224.8000 N   0  0  0  0  0  0  0  0  0  0  0  0
  140.2060   71.3640  223.6470 C   0  0  0  0  0  0  0  0  0  0  0  0
  140.3170   72.2020  222.4390 C   0  0  0  0  0  0  0  0  0  0  0  0
  139.2380   72.7350  221.9020 C   0  0  0  0  0  0  0  0  0  0  0  0
  138.8980   74.1460  221.9610 C   0  0  0  0  0  0  0  0  0  0  0  0
  137.6080   74.6280  221.9910 C   0  0  0  0  0  0  0  0  0  0  0  0
  137.3270   75.9780  222.0500 C   0  0  0  0  0  0  0  0  0  0  0  0
  138.3330   76.9210  222.0820 C   0  0  0  0  0  0  0  0  0  0  0  0
  139.6260   76.4520  222.0520 C   0  0  0  0  0  0  0  0  0  0  0  0
  140.7160   77.4640  222.0910 C   0  0  0  0  0  0  0  0  0  0  0  0
  140.5550   78.4640  223.0970 N   0  0  0  0  0  0  0  0  0  0  0  0
  139.8850   79.6440  222.5820 C   0  0  0  0  0  0  0  0  0  0  0  0
  140.8200   80.3670  221.6670 C   0  0  0  0  0  0  0  0  0  0  0  0
  142.1020   79.8800  221.6730 O   0  0  0  0  0  0  0  0  0  0  0  0
  142.6300   79.8010  222.9620 C   0  0  0  0  0  0  0  0  0  0  0  0
  141.7460   78.8790  223.7680 C   0  0  0  0  0  0  0  0  0  0  0  0
  139.9080   75.1020  221.9930 C   0  0  0  0  0  0  0  0  0  0  0  0
  139.6820   70.1270  223.6150 N   0  0  0  0  0  0  0  0  0  0  0  0
  139.1850   69.5510  222.3890 C   0  0  0  0  0  0  0  0  0  0  0  0
  137.6660   69.5260  222.3800 C   0  0  0  0  0  0  0  0  0  0  0  0
  137.1240   68.1650  222.7010 C   0  0  0  0  0  0  0  0  0  0  0  0
  135.5970   68.1810  222.6550 C   0  0  0  0  0  0  0  0  0  0  0  0
  135.0800   69.3150  223.3920 N   0  0  0  0  0  0  0  0  0  0  0  0
  136.1040   69.8970  224.2350 C   0  0  0  0  0  0  0  0  0  0  0  0
  137.1440   70.5350  223.3650 C   0  0  0  0  0  0  0  0  0  0  0  0
  139.6062   68.2576  227.1705 H   0  0  0  0  0  0  0  0  0  0  0  0
  140.4468   69.2645  229.2790 H   0  0  0  0  0  0  0  0  0  0  0  0
  141.4018   71.5598  229.2518 H   0  0  0  0  0  0  0  0  0  0  0  0
  141.5063   72.8343  227.1066 H   0  0  0  0  0  0  0  0  0  0  0  0
  141.3025   72.3827  221.9850 H   0  0  0  0  0  0  0  0  0  0  0  0
  138.5461   72.0641  221.3717 H   0  0  0  0  0  0  0  0  0  0  0  0
  136.7730   73.9123  221.9671 H   0  0  0  0  0  0  0  0  0  0  0  0
  136.2782   76.3090  222.0720 H   0  0  0  0  0  0  0  0  0  0  0  0
  138.1119   77.9975  222.1293 H   0  0  0  0  0  0  0  0  0  0  0  0
  141.6656   76.9402  222.2751 H   0  0  0  0  0  0  0  0  0  0  0  0
  140.6955   77.9857  221.1228 H   0  0  0  0  0  0  0  0  0  0  0  0
  138.9829   79.3450  222.0281 H   0  0  0  0  0  0  0  0  0  0  0  0
  139.5929   80.3014  223.4141 H   0  0  0  0  0  0  0  0  0  0  0  0
  140.4271   80.2913  220.6424 H   0  0  0  0  0  0  0  0  0  0  0  0
  140.8748   81.4049  222.0272 H   0  0  0  0  0  0  0  0  0  0  0  0
  143.6531   79.3989  222.9232 H   0  0  0  0  0  0  0  0  0  0  0  0
  142.6665   80.7987  223.4238 H   0  0  0  0  0  0  0  0  0  0  0  0
  142.3278   77.9808  224.0224 H   0  0  0  0  0  0  0  0  0  0  0  0
  141.4245   79.4481  224.6528 H   0  0  0  0  0  0  0  0  0  0  0  0
  140.9577   74.7740  221.9707 H   0  0  0  0  0  0  0  0  0  0  0  0
  139.5406   70.1514  221.5387 H   0  0  0  0  0  0  0  0  0  0  0  0
  139.5545   68.5179  222.3103 H   0  0  0  0  0  0  0  0  0  0  0  0
  137.3281   69.7812  221.3648 H   0  0  0  0  0  0  0  0  0  0  0  0
  137.5021   67.4404  221.9648 H   0  0  0  0  0  0  0  0  0  0  0  0
  137.4497   67.8781  223.7118 H   0  0  0  0  0  0  0  0  0  0  0  0
  135.2670   68.2487  221.6079 H   0  0  0  0  0  0  0  0  0  0  0  0
  135.2173   67.2557  223.1128 H   0  0  0  0  0  0  0  0  0  0  0  0
  134.7270   70.0460  222.7360 H   0  0  0  0  0  0  0  0  0  0  0  0
  135.6544   70.6570  224.8909 H   0  0  0  0  0  0  0  0  0  0  0  0
  136.5657   69.1144  224.8550 H   0  0  0  0  0  0  0  0  0  0  0  0
  136.6977   71.3806  222.8211 H   0  0  0  0  0  0  0  0  0  0  0  0
  137.9727   70.8963  223.9916 H   0  0  0  0  0  0  0  0  0  0  0  0
  1  2  2  0
  2  3  1  0
  3  4  2  0
  4  5  1  0
  5  6  2  0
  6  7  1  0
  7  8  2  0
  8  9  1  0
  9 10  2  0
 10 11  1  0
 11 12  2  0
 12 13  1  0
 13 14  2  0
 14 15  1  0
 15 16  2  0
 16 17  1  0
 17 18  1  0
 18 19  1  0
 19 20  1  0
 20 21  1  0
 21 22  1  0
 22 23  1  0
 23 24  1  0
 17 25  2  0
 10 26  1  0
 26 27  1  0
 27 28  1  0
 28 29  1  0
 29 30  1  0
 30 31  1  0
 31 32  1  0
 32 33  1  0
 26  2  1  0
 33 28  1  0
  8  3  1  0
 25 13  1  0
 24 19  1  0
  4 34  1  0
  5 35  1  0
  6 36  1  0
  7 37  1  0
 11 38  1  0
 12 39  1  0
 14 40  1  0
 15 41  1  0
 16 42  1  0
 18 43  1  0
 18 44  1  0
 20 45  1  0
 20 46  1  0
 21 47  1  0
 21 48  1  0
 23 49  1  0
 23 50  1  0
 24 51  1  0
 24 52  1  0
 25 53  1  0
 27 54  1  0
 27 55  1  0
 28 56  1  0
 29 57  1  0
 29 58  1  0
 30 59  1  0
 30 60  1  0
 31 61  1  0
 32 62  1  0
 32 63  1  0
 33 64  1  0
 33 65  1  0
M  END
>  <smiles>  (35) 
O=c1c2ccccc2nc(/C=C/c2cccc(CN3CCOCC3)c2)n1CC1CCNCC1

>  <score_type>  (35) 
oracle

>  <origin>  (35) 
autodockgpu

>  <m_score__min__energy>  (35) 
-9.6400000000000006

>  <m_primary>  (35) 
energy

>  <rmsd>  (35) 
11.967930610218813

>  <m_score__min__rmsd>  (35) 
11.967930610218813

>  <meeko>  (35) 
{"free_energy": -8.38, "intermolecular_energy": -10.47, "internal_energy": -1.66, "cluster_size": 8, "cluster_id": 3, "rank_in_cluster": 8}

>  <energy>  (35) 
-8.2

>  <cluster_rmsd>  (35) 
0.65

>  <cluster>  (35) 
5

$$$$

     RDKit          3D

 65 69  0  0  0  0  0  0  0  0999 V2000
  137.7380   78.8700  222.8650 O   0  0  0  0  0  0  0  0  0  0  0  0
  138.8060   78.2810  222.5380 C   0  0  0  0  0  0  0  0  0  0  0  0
  139.9790   78.9640  222.8590 C   0  0  0  0  0  0  0  0  0  0  0  0
  139.9620   80.1890  223.4880 C   0  0  0  0  0  0  0  0  0  0  0  0
  141.1440   80.8420  223.7950 C   0  0  0  0  0  0  0  0  0  0  0  0
  142.3510   80.2570  223.4640 C   0  0  0  0  0  0  0  0  0  0  0  0
  142.3700   79.0190  222.8280 C   0  0  0  0  0  0  0  0  0  0  0  0
  141.1830   78.3920  222.5360 C   0  0  0  0  0  0  0  0  0  0  0  0
  141.1550   77.1990  221.9240 N   0  0  0  0  0  0  0  0  0  0  0  0
  140.0190   76.5480  221.6190 C   0  0  0  0  0  0  0  0  0  0  0  0
  140.1520   75.2430  220.9460 C   0  0  0  0  0  0  0  0  0  0  0  0
  140.7680   74.2470  221.5500 C   0  0  0  0  0  0  0  0  0  0  0  0
  140.1300   73.0080  221.9570 C   0  0  0  0  0  0  0  0  0  0  0  0
  139.0800   72.4230  221.2850 C   0  0  0  0  0  0  0  0  0  0  0  0
  138.5030   71.2420  221.7030 C   0  0  0  0  0  0  0  0  0  0  0  0
  138.9530   70.5810  222.8280 C   0  0  0  0  0  0  0  0  0  0  0  0
  140.0000   71.1550  223.5090 C   0  0  0  0  0  0  0  0  0  0  0  0
  140.4930   70.4450  224.7210 C   0  0  0  0  0  0  0  0  0  0  0  0
  139.4820   70.1620  225.6880 N   0  0  0  0  0  0  0  0  0  0  0  0
  139.9720   70.3240  227.0440 C   0  0  0  0  0  0  0  0  0  0  0  0
  140.9210   69.2100  227.3490 C   0  0  0  0  0  0  0  0  0  0  0  0
  140.9610   68.2280  226.3920 O   0  0  0  0  0  0  0  0  0  0  0  0
  139.6920   67.7320  226.0910 C   0  0  0  0  0  0  0  0  0  0  0  0
  138.8550   68.8830  225.5850 C   0  0  0  0  0  0  0  0  0  0  0  0
  140.5790   72.3370  223.0900 C   0  0  0  0  0  0  0  0  0  0  0  0
  138.8230   77.0800  221.9220 N   0  0  0  0  0  0  0  0  0  0  0  0
  137.5930   76.4020  221.5920 C   0  0  0  0  0  0  0  0  0  0  0  0
  137.1050   75.5650  222.7630 C   0  0  0  0  0  0  0  0  0  0  0  0
  135.9200   76.1840  223.4420 C   0  0  0  0  0  0  0  0  0  0  0  0
  135.4810   75.3240  224.6250 C   0  0  0  0  0  0  0  0  0  0  0  0
  135.3970   73.9320  224.2360 N   0  0  0  0  0  0  0  0  0  0  0  0
  135.4070   73.7940  222.7940 C   0  0  0  0  0  0  0  0  0  0  0  0
  136.7600   74.1840  222.2790 C   0  0  0  0  0  0  0  0  0  0  0  0
  138.9997   80.6535  223.7492 H   0  0  0  0  0  0  0  0  0  0  0  0
  141.1220   81.8196  224.2988 H   0  0  0  0  0  0  0  0  0  0  0  0
  143.2951   80.7685  223.7026 H   0  0  0  0  0  0  0  0  0  0  0  0
  143.3271   78.5468  222.5615 H   0  0  0  0  0  0  0  0  0  0  0  0
  139.7362   75.1005  219.9376 H   0  0  0  0  0  0  0  0  0  0  0  0
  141.8414   74.3624  221.7607 H   0  0  0  0  0  0  0  0  0  0  0  0
  138.6875   72.9150  220.3829 H   0  0  0  0  0  0  0  0  0  0  0  0
  137.6667   70.8181  221.1278 H   0  0  0  0  0  0  0  0  0  0  0  0
  138.4952   69.6389  223.1639 H   0  0  0  0  0  0  0  0  0  0  0  0
  140.9422   69.4924  224.4034 H   0  0  0  0  0  0  0  0  0  0  0  0
  141.2151   71.1170  225.2078 H   0  0  0  0  0  0  0  0  0  0  0  0
  140.4923   71.2888  227.1364 H   0  0  0  0  0  0  0  0  0  0  0  0
  139.1297   70.3019  227.7512 H   0  0  0  0  0  0  0  0  0  0  0  0
  141.9307   69.6347  227.4499 H   0  0  0  0  0  0  0  0  0  0  0  0
  140.5642   68.7351  228.2748 H   0  0  0  0  0  0  0  0  0  0  0  0
  139.7679   66.9553  225.3158 H   0  0  0  0  0  0  0  0  0  0  0  0
  139.2317   67.2858  226.9849 H   0  0  0  0  0  0  0  0  0  0  0  0
  138.6223   68.6989  224.5258 H   0  0  0  0  0  0  0  0  0  0  0  0
  137.9591   68.9218  226.2221 H   0  0  0  0  0  0  0  0  0  0  0  0
  141.4158   72.7582  223.6664 H   0  0  0  0  0  0  0  0  0  0  0  0
  136.8264   77.1492  221.3390 H   0  0  0  0  0  0  0  0  0  0  0  0
  137.7771   75.7360  220.7361 H   0  0  0  0  0  0  0  0  0  0  0  0
  137.9155   75.5128  223.5049 H   0  0  0  0  0  0  0  0  0  0  0  0
  136.1911   77.1871  223.8029 H   0  0  0  0  0  0  0  0  0  0  0  0
  135.0908   76.2549  222.7227 H   0  0  0  0  0  0  0  0  0  0  0  0
  136.2124   75.4287  225.4399 H   0  0  0  0  0  0  0  0  0  0  0  0
  134.4889   75.6602  224.9607 H   0  0  0  0  0  0  0  0  0  0  0  0
  136.1990   73.3940  224.6330 H   0  0  0  0  0  0  0  0  0  0  0  0
  135.1949   72.7496  222.5214 H   0  0  0  0  0  0  0  0  0  0  0  0
  134.6378   74.4442  222.3517 H   0  0  0  0  0  0  0  0  0  0  0  0
  137.5113   73.4692  222.6458 H   0  0  0  0  0  0  0  0  0  0  0  0
  136.7489   74.1745  221.1791 H   0  0  0  0  0  0  0  0  0  0  0  0
  1  2  2  0
  2  3  1  0
  3  4  2  0
  4  5  1  0
  5  6  2  0
  6  7  1  0
  7  8  2  0
  8  9  1  0
  9 10  2  0
 10 11  1  0
 11 12  2  0
 12 13  1  0
 13 14  2  0
 14 15  1  0
 15 16  2  0
 16 17  1  0
 17 18  1  0
 18 19  1  0
 19 20  1  0
 20 21  1  0
 21 22  1  0
 22 23  1  0
 23 24  1  0
 17 25  2  0
 10 26  1  0
 26 27  1  0
 27 28  1  0
 28 29  1  0
 29 30  1  0
 30 31  1  0
 31 32  1  0
 32 33  1  0
 26  2  1  0
 33 28  1  0
  8  3  1  0
 25 13  1  0
 24 19  1  0
  4 34  1  0
  5 35  1  0
  6 36  1  0
  7 37  1  0
 11 38  1  0
 12 39  1  0
 14 40  1  0
 15 41  1  0
 16 42  1  0
 18 43  1  0
 18 44  1  0
 20 45  1  0
 20 46  1  0
 21 47  1  0
 21 48  1  0
 23 49  1  0
 23 50  1  0
 24 51  1  0
 24 52  1  0
 25 53  1  0
 27 54  1  0
 27 55  1  0
 28 56  1  0
 29 57  1  0
 29 58  1  0
 30 59  1  0
 30 60  1  0
 31 61  1  0
 32 62  1  0
 32 63  1  0
 33 64  1  0
 33 65  1  0
M  END
>  <smiles>  (36) 
O=c1c2ccccc2nc(/C=C/c2cccc(CN3CCOCC3)c2)n1CC1CCNCC1

>  <score_type>  (36) 
oracle

>  <origin>  (36) 
autodockgpu

>  <m_score__min__energy>  (36) 
-9.6400000000000006

>  <m_primary>  (36) 
energy

>  <rmsd>  (36) 
7.278212105499891

>  <m_score__min__rmsd>  (36) 
7.278212105499891

>  <meeko>  (36) 
{"free_energy": -8.03, "intermolecular_energy": -10.12, "internal_energy": -1.9, "cluster_size": 1, "cluster_id": 7, "rank_in_cluster": 1}

>  <energy>  (36) 
-8.24

>  <cluster_rmsd>  (36) 
0.0

>  <cluster>  (36) 
6

$$$$

     RDKit          3D

 65 69  0  0  0  0  0  0  0  0999 V2000
  142.9360   77.5800  219.2310 O   0  0  0  0  0  0  0  0  0  0  0  0
  142.1850   77.0180  220.0750 C   0  0  0  0  0  0  0  0  0  0  0  0
  141.7070   77.8500  221.0860 C   0  0  0  0  0  0  0  0  0  0  0  0
  142.0360   79.1870  221.1490 C   0  0  0  0  0  0  0  0  0  0  0  0
  141.5450   79.9880  222.1660 C   0  0  0  0  0  0  0  0  0  0  0  0
  140.7170   79.4400  223.1260 C   0  0  0  0  0  0  0  0  0  0  0  0
  140.3830   78.0900  223.0640 C   0  0  0  0  0  0  0  0  0  0  0  0
  140.8840   77.3170  222.0450 C   0  0  0  0  0  0  0  0  0  0  0  0
  140.5880   76.0120  221.9470 N   0  0  0  0  0  0  0  0  0  0  0  0
  141.0530   75.2180  220.9680 C   0  0  0  0  0  0  0  0  0  0  0  0
  140.6370   73.8030  220.9960 C   0  0  0  0  0  0  0  0  0  0  0  0
  141.0380   73.0150  221.9720 C   0  0  0  0  0  0  0  0  0  0  0  0
  140.1530   72.2290  222.8140 C   0  0  0  0  0  0  0  0  0  0  0  0
  138.8480   71.9260  222.4920 C   0  0  0  0  0  0  0  0  0  0  0  0
  138.0410   71.1730  223.3180 C   0  0  0  0  0  0  0  0  0  0  0  0
  138.5030   70.6800  224.5220 C   0  0  0  0  0  0  0  0  0  0  0  0
  139.8050   70.9760  224.8550 C   0  0  0  0  0  0  0  0  0  0  0  0
  140.3120   70.4440  226.1490 C   0  0  0  0  0  0  0  0  0  0  0  0
  139.4230   69.5370  226.8000 N   0  0  0  0  0  0  0  0  0  0  0  0
  139.7600   69.3620  228.2000 C   0  0  0  0  0  0  0  0  0  0  0  0
  141.0270   68.5740  228.2960 C   0  0  0  0  0  0  0  0  0  0  0  0
  141.4570   68.0550  227.1020 O   0  0  0  0  0  0  0  0  0  0  0  0
  140.4620   67.3190  226.4570 C   0  0  0  0  0  0  0  0  0  0  0  0
  139.2950   68.2450  226.2030 C   0  0  0  0  0  0  0  0  0  0  0  0
  140.6130   71.7300  224.0280 C   0  0  0  0  0  0  0  0  0  0  0  0
  141.8610   75.7080  220.0130 N   0  0  0  0  0  0  0  0  0  0  0  0
  142.3800   74.8690  218.9610 C   0  0  0  0  0  0  0  0  0  0  0  0
  143.8740   74.6510  219.1300 C   0  0  0  0  0  0  0  0  0  0  0  0
  144.1990   73.9490  220.4150 C   0  0  0  0  0  0  0  0  0  0  0  0
  145.7100   73.7750  220.5530 C   0  0  0  0  0  0  0  0  0  0  0  0
  146.2750   73.2530  219.3270 N   0  0  0  0  0  0  0  0  0  0  0  0
  145.2400   72.7250  218.4610 C   0  0  0  0  0  0  0  0  0  0  0  0
  144.3990   73.8610  217.9630 C   0  0  0  0  0  0  0  0  0  0  0  0
  142.6953   79.6221  220.3835 H   0  0  0  0  0  0  0  0  0  0  0  0
  141.8127   81.0541  222.2091 H   0  0  0  0  0  0  0  0  0  0  0  0
  140.3224   80.0688  223.9377 H   0  0  0  0  0  0  0  0  0  0  0  0
  139.7236   77.6461  223.8244 H   0  0  0  0  0  0  0  0  0  0  0  0
  139.9904   73.4052  220.1999 H   0  0  0  0  0  0  0  0  0  0  0  0
  142.1192   72.9473  222.1630 H   0  0  0  0  0  0  0  0  0  0  0  0
  138.4356   72.2980  221.5425 H   0  0  0  0  0  0  0  0  0  0  0  0
  137.0063   70.9603  223.0111 H   0  0  0  0  0  0  0  0  0  0  0  0
  137.8612   70.0794  225.1833 H   0  0  0  0  0  0  0  0  0  0  0  0
  141.2601   69.9198  225.9582 H   0  0  0  0  0  0  0  0  0  0  0  0
  140.4284   71.3074  226.8205 H   0  0  0  0  0  0  0  0  0  0  0  0
  139.8997   70.3456  228.6723 H   0  0  0  0  0  0  0  0  0  0  0  0
  138.9481   68.8284  228.7159 H   0  0  0  0  0  0  0  0  0  0  0  0
  141.8146   69.2335  228.6893 H   0  0  0  0  0  0  0  0  0  0  0  0
  140.8187   67.7190  228.9560 H   0  0  0  0  0  0  0  0  0  0  0  0
  140.8446   66.9284  225.5025 H   0  0  0  0  0  0  0  0  0  0  0  0
  140.1490   66.4676  227.0792 H   0  0  0  0  0  0  0  0  0  0  0  0
  139.1918   68.3775  225.1159 H   0  0  0  0  0  0  0  0  0  0  0  0
  138.4149   67.7730  226.6642 H   0  0  0  0  0  0  0  0  0  0  0  0
  141.6473   71.9417  224.3370 H   0  0  0  0  0  0  0  0  0  0  0  0
  141.8682   73.8958  218.9907 H   0  0  0  0  0  0  0  0  0  0  0  0
  142.2039   75.3658  217.9955 H   0  0  0  0  0  0  0  0  0  0  0  0
  144.3588   75.6377  219.1654 H   0  0  0  0  0  0  0  0  0  0  0  0
  143.8232   74.5449  221.2598 H   0  0  0  0  0  0  0  0  0  0  0  0
  143.7221   72.9578  220.4132 H   0  0  0  0  0  0  0  0  0  0  0  0
  146.1677   74.7501  220.7759 H   0  0  0  0  0  0  0  0  0  0  0  0
  145.9130   73.0651  221.3684 H   0  0  0  0  0  0  0  0  0  0  0  0
  146.7920   74.0030  218.8160 H   0  0  0  0  0  0  0  0  0  0  0  0
  145.7013   72.2053  217.6083 H   0  0  0  0  0  0  0  0  0  0  0  0
  144.6135   72.0136  219.0191 H   0  0  0  0  0  0  0  0  0  0  0  0
  145.0096   74.5152  217.3233 H   0  0  0  0  0  0  0  0  0  0  0  0
  143.5539   73.4622  217.3827 H   0  0  0  0  0  0  0  0  0  0  0  0
  1  2  2  0
  2  3  1  0
  3  4  2  0
  4  5  1  0
  5  6  2  0
  6  7  1  0
  7  8  2  0
  8  9  1  0
  9 10  2  0
 10 11  1  0
 11 12  2  0
 12 13  1  0
 13 14  2  0
 14 15  1  0
 15 16  2  0
 16 17  1  0
 17 18  1  0
 18 19  1  0
 19 20  1  0
 20 21  1  0
 21 22  1  0
 22 23  1  0
 23 24  1  0
 17 25  2  0
 10 26  1  0
 26 27  1  0
 27 28  1  0
 28 29  1  0
 29 30  1  0
 30 31  1  0
 31 32  1  0
 32 33  1  0
 26  2  1  0
 33 28  1  0
  8  3  1  0
 25 13  1  0
 24 19  1  0
  4 34  1  0
  5 35  1  0
  6 36  1  0
  7 37  1  0
 11 38  1  0
 12 39  1  0
 14 40  1  0
 15 41  1  0
 16 42  1  0
 18 43  1  0
 18 44  1  0
 20 45  1  0
 20 46  1  0
 21 47  1  0
 21 48  1  0
 23 49  1  0
 23 50  1  0
 24 51  1  0
 24 52  1  0
 25 53  1  0
 27 54  1  0
 27 55  1  0
 28 56  1  0
 29 57  1  0
 29 58  1  0
 30 59  1  0
 30 60  1  0
 31 61  1  0
 32 62  1  0
 32 63  1  0
 33 64  1  0
 33 65  1  0
M  END
>  <smiles>  (37) 
O=c1c2ccccc2nc(/C=C/c2cccc(CN3CCOCC3)c2)n1CC1CCNCC1

>  <score_type>  (37) 
oracle

>  <origin>  (37) 
autodockgpu

>  <m_score__min__energy>  (37) 
-9.6400000000000006

>  <m_primary>  (37) 
energy

>  <rmsd>  (37) 
7.611058042859261

>  <m_score__min__rmsd>  (37) 
7.611058042859261

>  <meeko>  (37) 
{"free_energy": -9.62, "intermolecular_energy": -11.71, "internal_energy": -1.5, "cluster_size": 18, "cluster_id": 1, "rank_in_cluster": 2}

>  <energy>  (37) 
-7.65

>  <cluster_rmsd>  (37) 
1.0

>  <cluster>  (37) 
6

$$$$

     RDKit          3D

 65 69  0  0  0  0  0  0  0  0999 V2000
  141.8040   72.0110  219.0220 O   0  0  0  0  0  0  0  0  0  0  0  0
  141.4030   72.6960  220.0040 C   0  0  0  0  0  0  0  0  0  0  0  0
  140.7230   71.9770  220.9870 C   0  0  0  0  0  0  0  0  0  0  0  0
  140.5110   70.6200  220.8850 C   0  0  0  0  0  0  0  0  0  0  0  0
  139.8320   69.9330  221.8780 C   0  0  0  0  0  0  0  0  0  0  0  0
  139.3650   70.6190  222.9810 C   0  0  0  0  0  0  0  0  0  0  0  0
  139.5770   71.9910  223.0870 C   0  0  0  0  0  0  0  0  0  0  0  0
  140.2540   72.6470  222.0870 C   0  0  0  0  0  0  0  0  0  0  0  0
  140.4810   73.9680  222.1480 N   0  0  0  0  0  0  0  0  0  0  0  0
  141.1380   74.6520  221.1960 C   0  0  0  0  0  0  0  0  0  0  0  0
  141.3100   76.1010  221.4070 C   0  0  0  0  0  0  0  0  0  0  0  0
  140.5560   76.7360  222.2810 C   0  0  0  0  0  0  0  0  0  0  0  0
  140.7560   78.1140  222.6950 C   0  0  0  0  0  0  0  0  0  0  0  0
  141.9510   78.7890  222.5810 C   0  0  0  0  0  0  0  0  0  0  0  0
  142.0980   80.1010  222.9840 C   0  0  0  0  0  0  0  0  0  0  0  0
  141.0460   80.8080  223.5270 C   0  0  0  0  0  0  0  0  0  0  0  0
  139.8470   80.1450  223.6470 C   0  0  0  0  0  0  0  0  0  0  0  0
  138.7070   80.9040  224.2290 C   0  0  0  0  0  0  0  0  0  0  0  0
  137.5280   80.9030  223.4230 N   0  0  0  0  0  0  0  0  0  0  0  0
  137.0930   82.2480  223.1020 C   0  0  0  0  0  0  0  0  0  0  0  0
  136.5430   82.8850  224.3380 C   0  0  0  0  0  0  0  0  0  0  0  0
  136.4030   82.0260  225.3980 O   0  0  0  0  0  0  0  0  0  0  0  0
  135.6750   80.8850  225.0600 C   0  0  0  0  0  0  0  0  0  0  0  0
  136.4110   80.1810  223.9450 C   0  0  0  0  0  0  0  0  0  0  0  0
  139.6990   78.8330  223.2440 C   0  0  0  0  0  0  0  0  0  0  0  0
  141.6110   74.0260  220.1060 N   0  0  0  0  0  0  0  0  0  0  0  0
  142.3080   74.7450  219.0670 C   0  0  0  0  0  0  0  0  0  0  0  0
  143.8120   74.5690  219.2020 C   0  0  0  0  0  0  0  0  0  0  0  0
  144.1860   73.8880  220.4840 C   0  0  0  0  0  0  0  0  0  0  0  0
  145.7040   73.7560  220.5890 C   0  0  0  0  0  0  0  0  0  0  0  0
  146.2530   73.2390  219.3530 N   0  0  0  0  0  0  0  0  0  0  0  0
  145.2130   72.6750  218.5170 C   0  0  0  0  0  0  0  0  0  0  0  0
  144.3300   73.7830  218.0300 C   0  0  0  0  0  0  0  0  0  0  0  0
  140.8850   70.0757  220.0053 H   0  0  0  0  0  0  0  0  0  0  0  0
  139.6663   68.8493  221.7882 H   0  0  0  0  0  0  0  0  0  0  0  0
  138.8259   70.0823  223.7755 H   0  0  0  0  0  0  0  0  0  0  0  0
  139.2063   72.5443  223.9624 H   0  0  0  0  0  0  0  0  0  0  0  0
  142.0693   76.6529  220.8336 H   0  0  0  0  0  0  0  0  0  0  0  0
  139.7163   76.1842  222.7286 H   0  0  0  0  0  0  0  0  0  0  0  0
  142.8184   78.2644  222.1540 H   0  0  0  0  0  0  0  0  0  0  0  0
  143.0752   80.5930  222.8695 H   0  0  0  0  0  0  0  0  0  0  0  0
  141.1604   81.8535  223.8492 H   0  0  0  0  0  0  0  0  0  0  0  0
  138.4584   80.4588  225.2037 H   0  0  0  0  0  0  0  0  0  0  0  0
  139.0336   81.9514  224.3084 H   0  0  0  0  0  0  0  0  0  0  0  0
  137.9472   82.8345  222.7327 H   0  0  0  0  0  0  0  0  0  0  0  0
  136.3175   82.2137  222.3227 H   0  0  0  0  0  0  0  0  0  0  0  0
  137.2215   83.6968  224.6390 H   0  0  0  0  0  0  0  0  0  0  0  0
  135.5342   83.2443  224.0866 H   0  0  0  0  0  0  0  0  0  0  0  0
  135.5942   80.2206  225.9329 H   0  0  0  0  0  0  0  0  0  0  0  0
  134.6597   81.1588  224.7372 H   0  0  0  0  0  0  0  0  0  0  0  0
  136.7746   79.2164  224.3289 H   0  0  0  0  0  0  0  0  0  0  0  0
  135.6946   80.0725  223.1174 H   0  0  0  0  0  0  0  0  0  0  0  0
  138.7207   78.3437  223.3599 H   0  0  0  0  0  0  0  0  0  0  0  0
  141.9870   74.3628  218.0868 H   0  0  0  0  0  0  0  0  0  0  0  0
  142.0693   75.8149  219.1586 H   0  0  0  0  0  0  0  0  0  0  0  0
  144.2707   75.5687  219.2174 H   0  0  0  0  0  0  0  0  0  0  0  0
  143.8135   74.4810  221.3323 H   0  0  0  0  0  0  0  0  0  0  0  0
  143.7368   72.8840  220.5009 H   0  0  0  0  0  0  0  0  0  0  0  0
  146.1404   74.7448  220.7937 H   0  0  0  0  0  0  0  0  0  0  0  0
  145.9457   73.0595  221.4054 H   0  0  0  0  0  0  0  0  0  0  0  0
  146.7380   73.9980  218.8240 H   0  0  0  0  0  0  0  0  0  0  0  0
  145.6680   72.1603  217.6579 H   0  0  0  0  0  0  0  0  0  0  0  0
  144.6198   71.9518  219.0958 H   0  0  0  0  0  0  0  0  0  0  0  0
  144.9071   74.4475  217.3702 H   0  0  0  0  0  0  0  0  0  0  0  0
  143.4824   73.3562  217.4738 H   0  0  0  0  0  0  0  0  0  0  0  0
  1  2  2  0
  2  3  1  0
  3  4  2  0
  4  5  1  0
  5  6  2  0
  6  7  1  0
  7  8  2  0
  8  9  1  0
  9 10  2  0
 10 11  1  0
 11 12  2  0
 12 13  1  0
 13 14  2  0
 14 15  1  0
 15 16  2  0
 16 17  1  0
 17 18  1  0
 18 19  1  0
 19 20  1  0
 20 21  1  0
 21 22  1  0
 22 23  1  0
 23 24  1  0
 17 25  2  0
 10 26  1  0
 26 27  1  0
 27 28  1  0
 28 29  1  0
 29 30  1  0
 30 31  1  0
 31 32  1  0
 32 33  1  0
 26  2  1  0
 33 28  1  0
  8  3  1  0
 25 13  1  0
 24 19  1  0
  4 34  1  0
  5 35  1  0
  6 36  1  0
  7 37  1  0
 11 38  1  0
 12 39  1  0
 14 40  1  0
 15 41  1  0
 16 42  1  0
 18 43  1  0
 18 44  1  0
 20 45  1  0
 20 46  1  0
 21 47  1  0
 21 48  1  0
 23 49  1  0
 23 50  1  0
 24 51  1  0
 24 52  1  0
 25 53  1  0
 27 54  1  0
 27 55  1  0
 28 56  1  0
 29 57  1  0
 29 58  1  0
 30 59  1  0
 30 60  1  0
 31 61  1  0
 32 62  1  0
 32 63  1  0
 33 64  1  0
 33 65  1  0
M  END
>  <smiles>  (38) 
O=c1c2ccccc2nc(/C=C/c2cccc(CN3CCOCC3)c2)n1CC1CCNCC1

>  <score_type>  (38) 
oracle

>  <origin>  (38) 
autodockgpu

>  <m_score__min__energy>  (38) 
-9.6400000000000006

>  <m_primary>  (38) 
energy

>  <rmsd>  (38) 
8.15652643285666

>  <m_score__min__rmsd>  (38) 
8.15652643285666

>  <meeko>  (38) 
{"free_energy": -8.2, "intermolecular_energy": -10.29, "internal_energy": -1.49, "cluster_size": 2, "cluster_id": 5, "rank_in_cluster": 2}

>  <energy>  (38) 
-8.03

>  <cluster_rmsd>  (38) 
0.0

>  <cluster>  (38) 
7

$$$$

     RDKit          3D

 65 69  0  0  0  0  0  0  0  0999 V2000
  139.1950   67.9370  225.0920 O   0  0  0  0  0  0  0  0  0  0  0  0
  139.5520   69.1310  224.8900 C   0  0  0  0  0  0  0  0  0  0  0  0
  140.0590   69.7920  226.0080 C   0  0  0  0  0  0  0  0  0  0  0  0
  140.1590   69.1790  227.2380 C   0  0  0  0  0  0  0  0  0  0  0  0
  140.6660   69.8630  228.3300 C   0  0  0  0  0  0  0  0  0  0  0  0
  141.0770   71.1730  228.1820 C   0  0  0  0  0  0  0  0  0  0  0  0
  140.9770   71.7950  226.9410 C   0  0  0  0  0  0  0  0  0  0  0  0
  140.4700   71.0940  225.8740 C   0  0  0  0  0  0  0  0  0  0  0  0
  140.3560   71.6540  224.6600 N   0  0  0  0  0  0  0  0  0  0  0  0
  139.8670   71.0080  223.5880 C   0  0  0  0  0  0  0  0  0  0  0  0
  139.8060   71.7590  222.3210 C   0  0  0  0  0  0  0  0  0  0  0  0
  139.4580   73.0290  222.3210 C   0  0  0  0  0  0  0  0  0  0  0  0
  140.2760   74.1090  221.7970 C   0  0  0  0  0  0  0  0  0  0  0  0
  141.4320   73.9200  221.0720 C   0  0  0  0  0  0  0  0  0  0  0  0
  142.1790   74.9740  220.5880 C   0  0  0  0  0  0  0  0  0  0  0  0
  141.8040   76.2830  220.8090 C   0  0  0  0  0  0  0  0  0  0  0  0
  140.6510   76.4850  221.5320 C   0  0  0  0  0  0  0  0  0  0  0  0
  140.2370   77.8950  221.7710 C   0  0  0  0  0  0  0  0  0  0  0  0
  140.4410   78.3490  223.1090 N   0  0  0  0  0  0  0  0  0  0  0  0
  139.7850   79.6190  223.3530 C   0  0  0  0  0  0  0  0  0  0  0  0
  140.5210   80.6920  222.6160 C   0  0  0  0  0  0  0  0  0  0  0  0
  141.7060   80.2800  222.0610 O   0  0  0  0  0  0  0  0  0  0  0  0
  142.5370   79.6570  222.9920 C   0  0  0  0  0  0  0  0  0  0  0  0
  141.8010   78.4550  223.5360 C   0  0  0  0  0  0  0  0  0  0  0  0
  139.9020   75.4310  222.0160 C   0  0  0  0  0  0  0  0  0  0  0  0
  139.4560   69.7320  223.6850 N   0  0  0  0  0  0  0  0  0  0  0  0
  138.9170   69.0260  222.5490 C   0  0  0  0  0  0  0  0  0  0  0  0
  137.4110   69.2090  222.4620 C   0  0  0  0  0  0  0  0  0  0  0  0
  136.6900   67.8990  222.3540 C   0  0  0  0  0  0  0  0  0  0  0  0
  135.1850   68.1330  222.2440 C   0  0  0  0  0  0  0  0  0  0  0  0
  134.7440   69.0750  223.2510 N   0  0  0  0  0  0  0  0  0  0  0  0
  135.7550   69.2570  224.2720 C   0  0  0  0  0  0  0  0  0  0  0  0
  136.9300   69.9650  223.6700 C   0  0  0  0  0  0  0  0  0  0  0  0
  139.8325   68.1350  227.3537 H   0  0  0  0  0  0  0  0  0  0  0  0
  140.7409   69.3663  229.3086 H   0  0  0  0  0  0  0  0  0  0  0  0
  141.4827   71.7239  229.0434 H   0  0  0  0  0  0  0  0  0  0  0  0
  141.3011   72.8387  226.8157 H   0  0  0  0  0  0  0  0  0  0  0  0
  140.0517   71.2574  221.3734 H   0  0  0  0  0  0  0  0  0  0  0  0
  138.4786   73.2906  222.7480 H   0  0  0  0  0  0  0  0  0  0  0  0
  141.7713   72.8929  220.8721 H   0  0  0  0  0  0  0  0  0  0  0  0
  143.0936   74.7661  220.0133 H   0  0  0  0  0  0  0  0  0  0  0  0
  142.3985   77.1253  220.4254 H   0  0  0  0  0  0  0  0  0  0  0  0
  140.8150   78.5428  221.0956 H   0  0  0  0  0  0  0  0  0  0  0  0
  139.1538   77.9409  221.5848 H   0  0  0  0  0  0  0  0  0  0  0  0
  138.7453   79.5724  222.9967 H   0  0  0  0  0  0  0  0  0  0  0  0
  139.7856   79.8386  224.4309 H   0  0  0  0  0  0  0  0  0  0  0  0
  139.8725   81.0636  221.8089 H   0  0  0  0  0  0  0  0  0  0  0  0
  140.7700   81.4692  223.3536 H   0  0  0  0  0  0  0  0  0  0  0  0
  143.4698   79.3360  222.5053 H   0  0  0  0  0  0  0  0  0  0  0  0
  142.7919   80.3522  223.8055 H   0  0  0  0  0  0  0  0  0  0  0  0
  142.3346   77.5496  223.2112 H   0  0  0  0  0  0  0  0  0  0  0  0
  141.7772   78.5715  224.6295 H   0  0  0  0  0  0  0  0  0  0  0  0
  138.9869   75.6417  222.5889 H   0  0  0  0  0  0  0  0  0  0  0  0
  139.3807   69.4145  221.6303 H   0  0  0  0  0  0  0  0  0  0  0  0
  139.1348   67.9541  222.6655 H   0  0  0  0  0  0  0  0  0  0  0  0
  137.1902   69.7792  221.5476 H   0  0  0  0  0  0  0  0  0  0  0  0
  137.0409   67.3638  221.4593 H   0  0  0  0  0  0  0  0  0  0  0  0
  136.8955   67.3009  223.2540 H   0  0  0  0  0  0  0  0  0  0  0  0
  134.9529   68.5342  221.2464 H   0  0  0  0  0  0  0  0  0  0  0  0
  134.6638   67.1767  222.3985 H   0  0  0  0  0  0  0  0  0  0  0  0
  134.5330   70.0010  222.8150 H   0  0  0  0  0  0  0  0  0  0  0  0
  135.3437   69.8587  225.0959 H   0  0  0  0  0  0  0  0  0  0  0  0
  136.0698   68.2785  224.6636 H   0  0  0  0  0  0  0  0  0  0  0  0
  136.6314   70.9806  223.3711 H   0  0  0  0  0  0  0  0  0  0  0  0
  137.7406   70.0222  224.4113 H   0  0  0  0  0  0  0  0  0  0  0  0
  1  2  2  0
  2  3  1  0
  3  4  2  0
  4  5  1  0
  5  6  2  0
  6  7  1  0
  7  8  2  0
  8  9  1  0
  9 10  2  0
 10 11  1  0
 11 12  2  0
 12 13  1  0
 13 14  2  0
 14 15  1  0
 15 16  2  0
 16 17  1  0
 17 18  1  0
 18 19  1  0
 19 20  1  0
 20 21  1  0
 21 22  1  0
 22 23  1  0
 23 24  1  0
 17 25  2  0
 10 26  1  0
 26 27  1  0
 27 28  1  0
 28 29  1  0
 29 30  1  0
 30 31  1  0
 31 32  1  0
 32 33  1  0
 26  2  1  0
 33 28  1  0
  8  3  1  0
 25 13  1  0
 24 19  1  0
  4 34  1  0
  5 35  1  0
  6 36  1  0
  7 37  1  0
 11 38  1  0
 12 39  1  0
 14 40  1  0
 15 41  1  0
 16 42  1  0
 18 43  1  0
 18 44  1  0
 20 45  1  0
 20 46  1  0
 21 47  1  0
 21 48  1  0
 23 49  1  0
 23 50  1  0
 24 51  1  0
 24 52  1  0
 25 53  1  0
 27 54  1  0
 27 55  1  0
 28 56  1  0
 29 57  1  0
 29 58  1  0
 30 59  1  0
 30 60  1  0
 31 61  1  0
 32 62  1  0
 32 63  1  0
 33 64  1  0
 33 65  1  0
M  END
>  <smiles>  (39) 
O=c1c2ccccc2nc(/C=C/c2cccc(CN3CCOCC3)c2)n1CC1CCNCC1

>  <score_type>  (39) 
oracle

>  <origin>  (39) 
autodockgpu

>  <m_score__min__energy>  (39) 
-9.6400000000000006

>  <m_primary>  (39) 
energy

>  <rmsd>  (39) 
12.224062277547821

>  <m_score__min__rmsd>  (39) 
12.224062277547821

>  <meeko>  (39) 
{"free_energy": -8.75, "intermolecular_energy": -10.84, "internal_energy": -1.52, "cluster_size": 8, "cluster_id": 3, "rank_in_cluster": 4}

>  <energy>  (39) 
-8.03

>  <cluster_rmsd>  (39) 
0.0

>  <cluster>  (39) 
8

$$$$

     RDKit          3D

 65 69  0  0  0  0  0  0  0  0999 V2000
  142.7470   76.9500  219.3990 O   0  0  0  0  0  0  0  0  0  0  0  0
  142.0140   76.5160  220.3310 C   0  0  0  0  0  0  0  0  0  0  0  0
  141.4920   77.4960  221.1750 C   0  0  0  0  0  0  0  0  0  0  0  0
  141.7620   78.8340  220.9970 C   0  0  0  0  0  0  0  0  0  0  0  0
  141.2290   79.7840  221.8530 C   0  0  0  0  0  0  0  0  0  0  0  0
  140.4180   79.3810  222.8950 C   0  0  0  0  0  0  0  0  0  0  0  0
  140.1430   78.0280  223.0780 C   0  0  0  0  0  0  0  0  0  0  0  0
  140.6850   77.1080  222.2140 C   0  0  0  0  0  0  0  0  0  0  0  0
  140.4460   75.7950  222.3530 N   0  0  0  0  0  0  0  0  0  0  0  0
  140.9530   74.8580  221.5330 C   0  0  0  0  0  0  0  0  0  0  0  0
  140.5990   73.4550  221.8150 C   0  0  0  0  0  0  0  0  0  0  0  0
  139.3540   73.0470  221.6800 C   0  0  0  0  0  0  0  0  0  0  0  0
  138.7830   71.8980  222.3620 C   0  0  0  0  0  0  0  0  0  0  0  0
  137.7590   71.1300  221.8550 C   0  0  0  0  0  0  0  0  0  0  0  0
  137.2470   70.0430  222.5330 C   0  0  0  0  0  0  0  0  0  0  0  0
  137.7400   69.6680  223.7660 C   0  0  0  0  0  0  0  0  0  0  0  0
  138.7630   70.4280  224.2840 C   0  0  0  0  0  0  0  0  0  0  0  0
  139.3020   70.0270  225.6120 C   0  0  0  0  0  0  0  0  0  0  0  0
  140.6920   70.3000  225.7880 N   0  0  0  0  0  0  0  0  0  0  0  0
  141.3680   69.2260  226.4920 C   0  0  0  0  0  0  0  0  0  0  0  0
  140.9320   69.2390  227.9220 C   0  0  0  0  0  0  0  0  0  0  0  0
  140.1790   70.3300  228.2700 O   0  0  0  0  0  0  0  0  0  0  0  0
  140.8000   71.5320  227.9290 C   0  0  0  0  0  0  0  0  0  0  0  0
  141.0130   71.5330  226.4340 C   0  0  0  0  0  0  0  0  0  0  0  0
  139.2760   71.5150  223.6050 C   0  0  0  0  0  0  0  0  0  0  0  0
  141.7470   75.2040  220.5060 N   0  0  0  0  0  0  0  0  0  0  0  0
  142.3100   74.2130  219.6220 C   0  0  0  0  0  0  0  0  0  0  0  0
  143.8290   74.2430  219.6730 C   0  0  0  0  0  0  0  0  0  0  0  0
  144.3680   73.4890  220.8510 C   0  0  0  0  0  0  0  0  0  0  0  0
  145.8930   73.5680  220.8750 C   0  0  0  0  0  0  0  0  0  0  0  0
  146.4370   73.2720  219.5660 N   0  0  0  0  0  0  0  0  0  0  0  0
  145.4380   72.6570  218.7160 C   0  0  0  0  0  0  0  0  0  0  0  0
  144.3820   73.6720  218.3960 C   0  0  0  0  0  0  0  0  0  0  0  0
  142.4082   79.1525  220.1657 H   0  0  0  0  0  0  0  0  0  0  0  0
  141.4503   80.8511  221.7036 H   0  0  0  0  0  0  0  0  0  0  0  0
  139.9895   80.1276  223.5799 H   0  0  0  0  0  0  0  0  0  0  0  0
  139.4981   77.6994  223.9063 H   0  0  0  0  0  0  0  0  0  0  0  0
  141.3764   72.7473  222.1389 H   0  0  0  0  0  0  0  0  0  0  0  0
  138.7002   73.6164  221.0030 H   0  0  0  0  0  0  0  0  0  0  0  0
  137.3341   71.3923  220.8748 H   0  0  0  0  0  0  0  0  0  0  0  0
  136.4287   69.4632  222.0812 H   0  0  0  0  0  0  0  0  0  0  0  0
  137.3341   68.8019  224.3093 H   0  0  0  0  0  0  0  0  0  0  0  0
  138.7432   70.5695  226.3888 H   0  0  0  0  0  0  0  0  0  0  0  0
  139.1835   68.9358  225.6839 H   0  0  0  0  0  0  0  0  0  0  0  0
  141.1055   68.2609  226.0341 H   0  0  0  0  0  0  0  0  0  0  0  0
  142.4573   69.3667  226.4317 H   0  0  0  0  0  0  0  0  0  0  0  0
  140.3351   68.3341  228.1089 H   0  0  0  0  0  0  0  0  0  0  0  0
  141.8471   69.2793  228.5310 H   0  0  0  0  0  0  0  0  0  0  0  0
  140.1596   72.3789  228.2164 H   0  0  0  0  0  0  0  0  0  0  0  0
  141.7614   71.6306  228.4544 H   0  0  0  0  0  0  0  0  0  0  0  0
  140.3838   72.3230  225.9981 H   0  0  0  0  0  0  0  0  0  0  0  0
  142.0881   71.6999  226.2718 H   0  0  0  0  0  0  0  0  0  0  0  0
  140.0951   72.0927  224.0583 H   0  0  0  0  0  0  0  0  0  0  0  0
  141.9587   73.2164  219.9275 H   0  0  0  0  0  0  0  0  0  0  0  0
  141.9878   74.4347  218.5939 H   0  0  0  0  0  0  0  0  0  0  0  0
  144.1448   75.2907  219.7852 H   0  0  0  0  0  0  0  0  0  0  0  0
  143.9669   73.9267  221.7770 H   0  0  0  0  0  0  0  0  0  0  0  0
  144.0644   72.4347  220.7717 H   0  0  0  0  0  0  0  0  0  0  0  0
  146.1983   74.5819  221.1730 H   0  0  0  0  0  0  0  0  0  0  0  0
  146.2761   72.8296  221.5947 H   0  0  0  0  0  0  0  0  0  0  0  0
  146.7790   74.1460  219.1080 H   0  0  0  0  0  0  0  0  0  0  0  0
  145.9091   72.3081  217.7852 H   0  0  0  0  0  0  0  0  0  0  0  0
  144.9854   71.7984  219.2336 H   0  0  0  0  0  0  0  0  0  0  0  0
  144.8217   74.4805  217.7934 H   0  0  0  0  0  0  0  0  0  0  0  0
  143.5714   73.1903  217.8295 H   0  0  0  0  0  0  0  0  0  0  0  0
  1  2  2  0
  2  3  1  0
  3  4  2  0
  4  5  1  0
  5  6  2  0
  6  7  1  0
  7  8  2  0
  8  9  1  0
  9 10  2  0
 10 11  1  0
 11 12  2  0
 12 13  1  0
 13 14  2  0
 14 15  1  0
 15 16  2  0
 16 17  1  0
 17 18  1  0
 18 19  1  0
 19 20  1  0
 20 21  1  0
 21 22  1  0
 22 23  1  0
 23 24  1  0
 17 25  2  0
 10 26  1  0
 26 27  1  0
 27 28  1  0
 28 29  1  0
 29 30  1  0
 30 31  1  0
 31 32  1  0
 32 33  1  0
 26  2  1  0
 33 28  1  0
  8  3  1  0
 25 13  1  0
 24 19  1  0
  4 34  1  0
  5 35  1  0
  6 36  1  0
  7 37  1  0
 11 38  1  0
 12 39  1  0
 14 40  1  0
 15 41  1  0
 16 42  1  0
 18 43  1  0
 18 44  1  0
 20 45  1  0
 20 46  1  0
 21 47  1  0
 21 48  1  0
 23 49  1  0
 23 50  1  0
 24 51  1  0
 24 52  1  0
 25 53  1  0
 27 54  1  0
 27 55  1  0
 28 56  1  0
 29 57  1  0
 29 58  1  0
 30 59  1  0
 30 60  1  0
 31 61  1  0
 32 62  1  0
 32 63  1  0
 33 64  1  0
 33 65  1  0
M  END
>  <smiles>  (40) 
O=c1c2ccccc2nc(/C=C/c2cccc(CN3CCOCC3)c2)n1CC1CCNCC1

>  <score_type>  (40) 
oracle

>  <origin>  (40) 
autodockgpu

>  <m_score__min__energy>  (40) 
-9.6400000000000006

>  <m_primary>  (40) 
energy

>  <rmsd>  (40) 
7.6367098296696

>  <m_score__min__rmsd>  (40) 
7.6367098296696

>  <meeko>  (40) 
{"free_energy": -9.3, "intermolecular_energy": -11.38, "internal_energy": -1.45, "cluster_size": 18, "cluster_id": 1, "rank_in_cluster": 9}

>  <energy>  (40) 
-7.83

>  <cluster_rmsd>  (40) 
0.4

>  <cluster>  (40) 
8

$$$$

     RDKit          3D

 65 69  0  0  0  0  0  0  0  0999 V2000
  138.9120   68.2050  225.3390 O   0  0  0  0  0  0  0  0  0  0  0  0
  139.4040   69.3200  225.0130 C   0  0  0  0  0  0  0  0  0  0  0  0
  139.9900   70.0350  226.0570 C   0  0  0  0  0  0  0  0  0  0  0  0
  140.0240   69.5500  227.3460 C   0  0  0  0  0  0  0  0  0  0  0  0
  140.6130   70.2830  228.3630 C   0  0  0  0  0  0  0  0  0  0  0  0
  141.1710   71.5140  228.0780 C   0  0  0  0  0  0  0  0  0  0  0  0
  141.1370   72.0070  226.7770 C   0  0  0  0  0  0  0  0  0  0  0  0
  140.5470   71.2590  225.7880 C   0  0  0  0  0  0  0  0  0  0  0  0
  140.4930   71.6950  224.5200 N   0  0  0  0  0  0  0  0  0  0  0  0
  139.9270   70.9990  223.5190 C   0  0  0  0  0  0  0  0  0  0  0  0
  139.9460   71.6120  222.1790 C   0  0  0  0  0  0  0  0  0  0  0  0
  139.4540   72.8200  221.9970 C   0  0  0  0  0  0  0  0  0  0  0  0
  140.2210   73.9620  221.5330 C   0  0  0  0  0  0  0  0  0  0  0  0
  141.2490   73.8830  220.6200 C   0  0  0  0  0  0  0  0  0  0  0  0
  141.9520   74.9940  220.2020 C   0  0  0  0  0  0  0  0  0  0  0  0
  141.6580   76.2540  220.6830 C   0  0  0  0  0  0  0  0  0  0  0  0
  140.6340   76.3460  221.5960 C   0  0  0  0  0  0  0  0  0  0  0  0
  140.3090   77.7020  222.1160 C   0  0  0  0  0  0  0  0  0  0  0  0
  141.4220   78.4000  222.6750 N   0  0  0  0  0  0  0  0  0  0  0  0
  141.0440   79.1720  223.8430 C   0  0  0  0  0  0  0  0  0  0  0  0
  140.2200   80.3390  223.4040 C   0  0  0  0  0  0  0  0  0  0  0  0
  140.1730   80.5140  222.0450 O   0  0  0  0  0  0  0  0  0  0  0  0
  141.4460   80.5620  221.4750 C   0  0  0  0  0  0  0  0  0  0  0  0
  142.1390   79.2560  221.7830 C   0  0  0  0  0  0  0  0  0  0  0  0
  139.9300   75.2350  222.0140 C   0  0  0  0  0  0  0  0  0  0  0  0
  139.3720   69.7970  223.7500 N   0  0  0  0  0  0  0  0  0  0  0  0
  138.7490   69.0400  222.6910 C   0  0  0  0  0  0  0  0  0  0  0  0
  137.4170   68.4680  223.1460 C   0  0  0  0  0  0  0  0  0  0  0  0
  136.4490   69.5430  223.5410 C   0  0  0  0  0  0  0  0  0  0  0  0
  135.1360   68.9230  224.0140 C   0  0  0  0  0  0  0  0  0  0  0  0
  134.6900   67.9090  223.0820 N   0  0  0  0  0  0  0  0  0  0  0  0
  135.4010   68.0090  221.8250 C   0  0  0  0  0  0  0  0  0  0  0  0
  136.8330   67.6260  222.0460 C   0  0  0  0  0  0  0  0  0  0  0  0
  139.5784   68.5696  227.5701 H   0  0  0  0  0  0  0  0  0  0  0  0
  140.6362   69.8880  229.3894 H   0  0  0  0  0  0  0  0  0  0  0  0
  141.6417   72.1039  228.8783 H   0  0  0  0  0  0  0  0  0  0  0  0
  141.5787   72.9869  226.5430 H   0  0  0  0  0  0  0  0  0  0  0  0
  140.3721   71.0593  221.3288 H   0  0  0  0  0  0  0  0  0  0  0  0
  138.3863   72.9747  222.2117 H   0  0  0  0  0  0  0  0  0  0  0  0
  141.5192   72.8989  220.2094 H   0  0  0  0  0  0  0  0  0  0  0  0
  142.7640   74.8732  219.4699 H   0  0  0  0  0  0  0  0  0  0  0  0
  142.2163   77.1420  220.3517 H   0  0  0  0  0  0  0  0  0  0  0  0
  139.9078   78.3021  221.2860 H   0  0  0  0  0  0  0  0  0  0  0  0
  139.5843   77.5609  222.9314 H   0  0  0  0  0  0  0  0  0  0  0  0
  140.4575   78.5423  224.5282 H   0  0  0  0  0  0  0  0  0  0  0  0
  141.9456   79.5264  224.3641 H   0  0  0  0  0  0  0  0  0  0  0  0
  139.1926   80.1926  223.7688 H   0  0  0  0  0  0  0  0  0  0  0  0
  140.6966   81.2378  223.8223 H   0  0  0  0  0  0  0  0  0  0  0  0
  141.3637   80.6943  220.3861 H   0  0  0  0  0  0  0  0  0  0  0  0
  142.0189   81.4070  221.8846 H   0  0  0  0  0  0  0  0  0  0  0  0
  142.2908   78.7162  220.8367 H   0  0  0  0  0  0  0  0  0  0  0  0
  143.0819   79.5138  222.2875 H   0  0  0  0  0  0  0  0  0  0  0  0
  139.1183   75.3589  222.7460 H   0  0  0  0  0  0  0  0  0  0  0  0
  138.5815   69.6998  221.8269 H   0  0  0  0  0  0  0  0  0  0  0  0
  139.4135   68.2079  222.4153 H   0  0  0  0  0  0  0  0  0  0  0  0
  137.5996   67.8492  224.0369 H   0  0  0  0  0  0  0  0  0  0  0  0
  136.8828   70.1409  224.3560 H   0  0  0  0  0  0  0  0  0  0  0  0
  136.2497   70.1841  222.6697 H   0  0  0  0  0  0  0  0  0  0  0  0
  135.2873   68.4648  225.0025 H   0  0  0  0  0  0  0  0  0  0  0  0
  134.3715   69.7116  224.0749 H   0  0  0  0  0  0  0  0  0  0  0  0
  134.8410   66.9560  223.4810 H   0  0  0  0  0  0  0  0  0  0  0  0
  134.9465   67.3300  221.0886 H   0  0  0  0  0  0  0  0  0  0  0  0
  135.3450   69.0401  221.4459 H   0  0  0  0  0  0  0  0  0  0  0  0
  136.8884   66.5645  222.3290 H   0  0  0  0  0  0  0  0  0  0  0  0
  137.4020   67.7905  221.1191 H   0  0  0  0  0  0  0  0  0  0  0  0
  1  2  2  0
  2  3  1  0
  3  4  2  0
  4  5  1  0
  5  6  2  0
  6  7  1  0
  7  8  2  0
  8  9  1  0
  9 10  2  0
 10 11  1  0
 11 12  2  0
 12 13  1  0
 13 14  2  0
 14 15  1  0
 15 16  2  0
 16 17  1  0
 17 18  1  0
 18 19  1  0
 19 20  1  0
 20 21  1  0
 21 22  1  0
 22 23  1  0
 23 24  1  0
 17 25  2  0
 10 26  1  0
 26 27  1  0
 27 28  1  0
 28 29  1  0
 29 30  1  0
 30 31  1  0
 31 32  1  0
 32 33  1  0
 26  2  1  0
 33 28  1  0
  8  3  1  0
 25 13  1  0
 24 19  1  0
  4 34  1  0
  5 35  1  0
  6 36  1  0
  7 37  1  0
 11 38  1  0
 12 39  1  0
 14 40  1  0
 15 41  1  0
 16 42  1  0
 18 43  1  0
 18 44  1  0
 20 45  1  0
 20 46  1  0
 21 47  1  0
 21 48  1  0
 23 49  1  0
 23 50  1  0
 24 51  1  0
 24 52  1  0
 25 53  1  0
 27 54  1  0
 27 55  1  0
 28 56  1  0
 29 57  1  0
 29 58  1  0
 30 59  1  0
 30 60  1  0
 31 61  1  0
 32 62  1  0
 32 63  1  0
 33 64  1  0
 33 65  1  0
M  END
>  <smiles>  (41) 
O=c1c2ccccc2nc(/C=C/c2cccc(CN3CCOCC3)c2)n1CC1CCNCC1

>  <score_type>  (41) 
oracle

>  <origin>  (41) 
autodockgpu

>  <m_score__min__energy>  (41) 
-9.6400000000000006

>  <m_primary>  (41) 
energy

>  <rmsd>  (41) 
12.366137158858894

>  <m_score__min__rmsd>  (41) 
12.366137158858894

>  <meeko>  (41) 
{"free_energy": -8.76, "intermolecular_energy": -10.85, "internal_energy": -1.32, "cluster_size": 8, "cluster_id": 3, "rank_in_cluster": 3}

>  <energy>  (41) 
-7.47

>  <cluster_rmsd>  (41) 
0.0

>  <cluster>  (41) 
9

$$$$

     RDKit          3D

 65 69  0  0  0  0  0  0  0  0999 V2000
  139.1590   68.1570  225.3800 O   0  0  0  0  0  0  0  0  0  0  0  0
  139.5270   69.3230  225.0680 C   0  0  0  0  0  0  0  0  0  0  0  0
  140.1530   70.0380  226.0880 C   0  0  0  0  0  0  0  0  0  0  0  0
  140.3500   69.5020  227.3420 C   0  0  0  0  0  0  0  0  0  0  0  0
  140.9750   70.2380  228.3350 C   0  0  0  0  0  0  0  0  0  0  0  0
  141.4040   71.5220  228.0630 C   0  0  0  0  0  0  0  0  0  0  0  0
  141.2050   72.0660  226.7980 C   0  0  0  0  0  0  0  0  0  0  0  0
  140.5830   71.3150  225.8310 C   0  0  0  0  0  0  0  0  0  0  0  0
  140.3710   71.8000  224.5980 N   0  0  0  0  0  0  0  0  0  0  0  0
  139.7680   71.1020  223.6200 C   0  0  0  0  0  0  0  0  0  0  0  0
  139.6090   71.7720  222.3160 C   0  0  0  0  0  0  0  0  0  0  0  0
  139.2940   73.0500  222.2640 C   0  0  0  0  0  0  0  0  0  0  0  0
  140.1660   74.0950  221.7550 C   0  0  0  0  0  0  0  0  0  0  0  0
  141.3040   73.8580  221.0160 C   0  0  0  0  0  0  0  0  0  0  0  0
  142.1050   74.8790  220.5470 C   0  0  0  0  0  0  0  0  0  0  0  0
  141.8030   76.2020  220.7990 C   0  0  0  0  0  0  0  0  0  0  0  0
  140.6700   76.4520  221.5370 C   0  0  0  0  0  0  0  0  0  0  0  0
  140.3360   77.8760  221.8090 C   0  0  0  0  0  0  0  0  0  0  0  0
  140.4800   78.2630  223.1750 N   0  0  0  0  0  0  0  0  0  0  0  0
  139.6740   79.4260  223.4950 C   0  0  0  0  0  0  0  0  0  0  0  0
  140.2760   80.6250  222.8370 C   0  0  0  0  0  0  0  0  0  0  0  0
  141.5030   80.3980  222.2690 O   0  0  0  0  0  0  0  0  0  0  0  0
  142.4020   79.8200  223.1660 C   0  0  0  0  0  0  0  0  0  0  0  0
  141.8160   78.5050  223.6230 C   0  0  0  0  0  0  0  0  0  0  0  0
  139.8680   75.4300  222.0050 C   0  0  0  0  0  0  0  0  0  0  0  0
  139.3350   69.8490  223.8390 N   0  0  0  0  0  0  0  0  0  0  0  0
  138.6740   69.0890  222.8060 C   0  0  0  0  0  0  0  0  0  0  0  0
  137.3640   68.5100  223.3140 C   0  0  0  0  0  0  0  0  0  0  0  0
  136.5090   69.5480  223.9760 C   0  0  0  0  0  0  0  0  0  0  0  0
  135.2180   68.9170  224.4920 C   0  0  0  0  0  0  0  0  0  0  0  0
  134.6170   68.0850  223.4710 N   0  0  0  0  0  0  0  0  0  0  0  0
  135.1980   68.3550  222.1720 C   0  0  0  0  0  0  0  0  0  0  0  0
  136.6200   67.8810  222.1690 C   0  0  0  0  0  0  0  0  0  0  0  0
  140.0074   68.4790  227.5567 H   0  0  0  0  0  0  0  0  0  0  0  0
  141.1286   69.8027  229.3335 H   0  0  0  0  0  0  0  0  0  0  0  0
  141.9022   72.1137  228.8451 H   0  0  0  0  0  0  0  0  0  0  0  0
  141.5429   73.0887  226.5744 H   0  0  0  0  0  0  0  0  0  0  0  0
  139.7536   71.2037  221.3853 H   0  0  0  0  0  0  0  0  0  0  0  0
  138.3008   73.3471  222.6319 H   0  0  0  0  0  0  0  0  0  0  0  0
  141.5841   72.8182  220.7918 H   0  0  0  0  0  0  0  0  0  0  0  0
  143.0025   74.6335  219.9603 H   0  0  0  0  0  0  0  0  0  0  0  0
  142.4391   77.0185  220.4267 H   0  0  0  0  0  0  0  0  0  0  0  0
  140.9996   78.5077  221.2003 H   0  0  0  0  0  0  0  0  0  0  0  0
  139.2731   78.0038  221.5561 H   0  0  0  0  0  0  0  0  0  0  0  0
  138.6483   79.2778  223.1262 H   0  0  0  0  0  0  0  0  0  0  0  0
  139.6455   79.5726  224.5848 H   0  0  0  0  0  0  0  0  0  0  0  0
  139.5891   80.9673  222.0489 H   0  0  0  0  0  0  0  0  0  0  0  0
  140.4273   81.3760  223.6264 H   0  0  0  0  0  0  0  0  0  0  0  0
  143.3678   79.6468  222.6687 H   0  0  0  0  0  0  0  0  0  0  0  0
  142.5693   80.4858  224.0255 H   0  0  0  0  0  0  0  0  0  0  0  0
  142.4567   77.6941  223.2464 H   0  0  0  0  0  0  0  0  0  0  0  0
  141.7747   78.5461  224.7215 H   0  0  0  0  0  0  0  0  0  0  0  0
  138.9705   75.6783  222.5905 H   0  0  0  0  0  0  0  0  0  0  0  0
  138.4686   69.7479  221.9495 H   0  0  0  0  0  0  0  0  0  0  0  0
  139.3312   68.2603  222.5038 H   0  0  0  0  0  0  0  0  0  0  0  0
  137.5999   67.7498  224.0732 H   0  0  0  0  0  0  0  0  0  0  0  0
  137.0604   69.9888  224.8196 H   0  0  0  0  0  0  0  0  0  0  0  0
  136.2588   70.3282  223.2421 H   0  0  0  0  0  0  0  0  0  0  0  0
  135.4439   68.3006  225.3746 H   0  0  0  0  0  0  0  0  0  0  0  0
  134.5127   69.7177  224.7592 H   0  0  0  0  0  0  0  0  0  0  0  0
  134.7520   67.0740  223.6980 H   0  0  0  0  0  0  0  0  0  0  0  0
  134.6295   67.8226  221.3952 H   0  0  0  0  0  0  0  0  0  0  0  0
  135.1643   69.4349  221.9655 H   0  0  0  0  0  0  0  0  0  0  0  0
  136.6412   66.7864  222.2760 H   0  0  0  0  0  0  0  0  0  0  0  0
  137.0985   68.1678  221.2210 H   0  0  0  0  0  0  0  0  0  0  0  0
  1  2  2  0
  2  3  1  0
  3  4  2  0
  4  5  1  0
  5  6  2  0
  6  7  1  0
  7  8  2  0
  8  9  1  0
  9 10  2  0
 10 11  1  0
 11 12  2  0
 12 13  1  0
 13 14  2  0
 14 15  1  0
 15 16  2  0
 16 17  1  0
 17 18  1  0
 18 19  1  0
 19 20  1  0
 20 21  1  0
 21 22  1  0
 22 23  1  0
 23 24  1  0
 17 25  2  0
 10 26  1  0
 26 27  1  0
 27 28  1  0
 28 29  1  0
 29 30  1  0
 30 31  1  0
 31 32  1  0
 32 33  1  0
 26  2  1  0
 33 28  1  0
  8  3  1  0
 25 13  1  0
 24 19  1  0
  4 34  1  0
  5 35  1  0
  6 36  1  0
  7 37  1  0
 11 38  1  0
 12 39  1  0
 14 40  1  0
 15 41  1  0
 16 42  1  0
 18 43  1  0
 18 44  1  0
 20 45  1  0
 20 46  1  0
 21 47  1  0
 21 48  1  0
 23 49  1  0
 23 50  1  0
 24 51  1  0
 24 52  1  0
 25 53  1  0
 27 54  1  0
 27 55  1  0
 28 56  1  0
 29 57  1  0
 29 58  1  0
 30 59  1  0
 30 60  1  0
 31 61  1  0
 32 62  1  0
 32 63  1  0
 33 64  1  0
 33 65  1  0
M  END
>  <smiles>  (42) 
O=c1c2ccccc2nc(/C=C/c2cccc(CN3CCOCC3)c2)n1CC1CCNCC1

>  <score_type>  (42) 
oracle

>  <origin>  (42) 
autodockgpu

>  <m_score__min__energy>  (42) 
-9.6400000000000006

>  <m_primary>  (42) 
energy

>  <rmsd>  (42) 
12.355102798450972

>  <m_score__min__rmsd>  (42) 
12.355102798450972

>  <meeko>  (42) 
{"free_energy": -9.0, "intermolecular_energy": -11.09, "internal_energy": -1.47, "cluster_size": 8, "cluster_id": 3, "rank_in_cluster": 1}

>  <energy>  (42) 
-7.05

>  <cluster_rmsd>  (42) 
1.15

>  <cluster>  (42) 
9

$$$$

     RDKit          3D

 65 69  0  0  0  0  0  0  0  0999 V2000
  142.8870   77.6260  219.4100 O   0  0  0  0  0  0  0  0  0  0  0  0
  142.0650   77.1980  220.2670 C   0  0  0  0  0  0  0  0  0  0  0  0
  141.6790   78.1280  221.2320 C   0  0  0  0  0  0  0  0  0  0  0  0
  142.1640   79.4170  221.2390 C   0  0  0  0  0  0  0  0  0  0  0  0
  141.7620   80.3190  222.2100 C   0  0  0  0  0  0  0  0  0  0  0  0
  140.8650   79.9180  223.1810 C   0  0  0  0  0  0  0  0  0  0  0  0
  140.3740   78.6160  223.1760 C   0  0  0  0  0  0  0  0  0  0  0  0
  140.7890   77.7420  222.2010 C   0  0  0  0  0  0  0  0  0  0  0  0
  140.3410   76.4780  222.1580 N   0  0  0  0  0  0  0  0  0  0  0  0
  140.7180   75.5880  221.2240 C   0  0  0  0  0  0  0  0  0  0  0  0
  140.1370   74.2360  221.3100 C   0  0  0  0  0  0  0  0  0  0  0  0
  140.8990   73.2070  221.6190 C   0  0  0  0  0  0  0  0  0  0  0  0
  140.4110   71.9530  222.1660 C   0  0  0  0  0  0  0  0  0  0  0  0
  140.0520   70.8650  221.4010 C   0  0  0  0  0  0  0  0  0  0  0  0
  139.5950   69.6900  221.9610 C   0  0  0  0  0  0  0  0  0  0  0  0
  139.4730   69.5440  223.3280 C   0  0  0  0  0  0  0  0  0  0  0  0
  139.8270   70.6240  224.1020 C   0  0  0  0  0  0  0  0  0  0  0  0
  139.7020   70.4720  225.5770 C   0  0  0  0  0  0  0  0  0  0  0  0
  140.9470   70.4750  226.2760 N   0  0  0  0  0  0  0  0  0  0  0  0
  141.0680   69.3380  227.1680 C   0  0  0  0  0  0  0  0  0  0  0  0
  140.1380   69.5300  228.3230 C   0  0  0  0  0  0  0  0  0  0  0  0
  139.5540   70.7700  228.3730 O   0  0  0  0  0  0  0  0  0  0  0  0
  140.4930   71.8000  228.3150 C   0  0  0  0  0  0  0  0  0  0  0  0
  141.2490   71.6610  227.0140 C   0  0  0  0  0  0  0  0  0  0  0  0
  140.2850   71.8000  223.5430 C   0  0  0  0  0  0  0  0  0  0  0  0
  141.5890   75.9340  220.2600 N   0  0  0  0  0  0  0  0  0  0  0  0
  142.0150   74.9900  219.2560 C   0  0  0  0  0  0  0  0  0  0  0  0
  143.5140   74.7550  219.3360 C   0  0  0  0  0  0  0  0  0  0  0  0
  143.8910   73.9280  220.5280 C   0  0  0  0  0  0  0  0  0  0  0  0
  145.4050   73.7380  220.5820 C   0  0  0  0  0  0  0  0  0  0  0  0
  145.9120   73.3410  219.2860 N   0  0  0  0  0  0  0  0  0  0  0  0
  144.8380   72.9040  218.4190 C   0  0  0  0  0  0  0  0  0  0  0  0
  143.9820   74.0850  218.0740 C   0  0  0  0  0  0  0  0  0  0  0  0
  142.8785   79.7336  220.4649 H   0  0  0  0  0  0  0  0  0  0  0  0
  142.1539   81.3468  222.2080 H   0  0  0  0  0  0  0  0  0  0  0  0
  140.5395   80.6267  223.9568 H   0  0  0  0  0  0  0  0  0  0  0  0
  139.6597   78.2895  223.9462 H   0  0  0  0  0  0  0  0  0  0  0  0
  139.0647   74.0861  221.1157 H   0  0  0  0  0  0  0  0  0  0  0  0
  141.9817   73.3042  221.4509 H   0  0  0  0  0  0  0  0  0  0  0  0
  140.1325   70.9356  220.3062 H   0  0  0  0  0  0  0  0  0  0  0  0
  139.3219   68.8513  221.3038 H   0  0  0  0  0  0  0  0  0  0  0  0
  139.1098   68.6079  223.7771 H   0  0  0  0  0  0  0  0  0  0  0  0
  139.0909   71.3033  225.9583 H   0  0  0  0  0  0  0  0  0  0  0  0
  139.2438   69.4878  225.7543 H   0  0  0  0  0  0  0  0  0  0  0  0
  140.8033   68.4160  226.6296 H   0  0  0  0  0  0  0  0  0  0  0  0
  142.1031   69.2567  227.5313 H   0  0  0  0  0  0  0  0  0  0  0  0
  139.3406   68.7754  228.2533 H   0  0  0  0  0  0  0  0  0  0  0  0
  140.7422   69.4275  229.2365 H   0  0  0  0  0  0  0  0  0  0  0  0
  139.9830   72.7740  228.3495 H   0  0  0  0  0  0  0  0  0  0  0  0
  141.1831   71.7402  229.1695 H   0  0  0  0  0  0  0  0  0  0  0  0
  141.0084   72.5290  226.3826 H   0  0  0  0  0  0  0  0  0  0  0  0
  142.3155   71.6023  227.2771 H   0  0  0  0  0  0  0  0  0  0  0  0
  140.5572   72.6371  224.2027 H   0  0  0  0  0  0  0  0  0  0  0  0
  141.4916   74.0354  219.4137 H   0  0  0  0  0  0  0  0  0  0  0  0
  141.7753   75.3994  218.2636 H   0  0  0  0  0  0  0  0  0  0  0  0
  144.0057   75.7326  219.4483 H   0  0  0  0  0  0  0  0  0  0  0  0
  143.5560   74.4371  221.4438 H   0  0  0  0  0  0  0  0  0  0  0  0
  143.4088   72.9426  220.4475 H   0  0  0  0  0  0  0  0  0  0  0  0
  145.8783   74.6847  220.8815 H   0  0  0  0  0  0  0  0  0  0  0  0
  145.6390   72.9496  221.3126 H   0  0  0  0  0  0  0  0  0  0  0  0
  146.4110   74.1380  218.8300 H   0  0  0  0  0  0  0  0  0  0  0  0
  145.2586   72.4715  217.4992 H   0  0  0  0  0  0  0  0  0  0  0  0
  144.2325   72.1415  218.9308 H   0  0  0  0  0  0  0  0  0  0  0  0
  144.5672   74.7990  217.4759 H   0  0  0  0  0  0  0  0  0  0  0  0
  143.1099   73.7472  217.4949 H   0  0  0  0  0  0  0  0  0  0  0  0
  1  2  2  0
  2  3  1  0
  3  4  2  0
  4  5  1  0
  5  6  2  0
  6  7  1  0
  7  8  2  0
  8  9  1  0
  9 10  2  0
 10 11  1  0
 11 12  2  0
 12 13  1  0
 13 14  2  0
 14 15  1  0
 15 16  2  0
 16 17  1  0
 17 18  1  0
 18 19  1  0
 19 20  1  0
 20 21  1  0
 21 22  1  0
 22 23  1  0
 23 24  1  0
 17 25  2  0
 10 26  1  0
 26 27  1  0
 27 28  1  0
 28 29  1  0
 29 30  1  0
 30 31  1  0
 31 32  1  0
 32 33  1  0
 26  2  1  0
 33 28  1  0
  8  3  1  0
 25 13  1  0
 24 19  1  0
  4 34  1  0
  5 35  1  0
  6 36  1  0
  7 37  1  0
 11 38  1  0
 12 39  1  0
 14 40  1  0
 15 41  1  0
 16 42  1  0
 18 43  1  0
 18 44  1  0
 20 45  1  0
 20 46  1  0
 21 47  1  0
 21 48  1  0
 23 49  1  0
 23 50  1  0
 24 51  1  0
 24 52  1  0
 25 53  1  0
 27 54  1  0
 27 55  1  0
 28 56  1  0
 29 57  1  0
 29 58  1  0
 30 59  1  0
 30 60  1  0
 31 61  1  0
 32 62  1  0
 32 63  1  0
 33 64  1  0
 33 65  1  0
M  END
>  <smiles>  (43) 
O=c1c2ccccc2nc(/C=C/c2cccc(CN3CCOCC3)c2)n1CC1CCNCC1

>  <score_type>  (43) 
oracle

>  <origin>  (43) 
autodockgpu

>  <m_score__min__energy>  (43) 
-9.6400000000000006

>  <m_primary>  (43) 
energy

>  <rmsd>  (43) 
7.529207139772087

>  <m_score__min__rmsd>  (43) 
7.529207139772087

>  <meeko>  (43) 
{"free_energy": -9.44, "intermolecular_energy": -11.52, "internal_energy": -1.53, "cluster_size": 18, "cluster_id": 1, "rank_in_cluster": 6}

>  <energy>  (43) 
-6.97

>  <cluster_rmsd>  (43) 
0.7

>  <cluster>  (43) 
9

$$$$

     RDKit          3D

 65 69  0  0  0  0  0  0  0  0999 V2000
  142.9420   77.3470  219.5210 O   0  0  0  0  0  0  0  0  0  0  0  0
  142.1010   76.9720  220.3840 C   0  0  0  0  0  0  0  0  0  0  0  0
  141.7050   77.9560  221.2900 C   0  0  0  0  0  0  0  0  0  0  0  0
  142.2010   79.2390  221.2380 C   0  0  0  0  0  0  0  0  0  0  0  0
  141.7890   80.1950  222.1520 C   0  0  0  0  0  0  0  0  0  0  0  0
  140.8710   79.8540  223.1250 C   0  0  0  0  0  0  0  0  0  0  0  0
  140.3680   78.5570  223.1800 C   0  0  0  0  0  0  0  0  0  0  0  0
  140.7940   77.6290  222.2620 C   0  0  0  0  0  0  0  0  0  0  0  0
  140.3350   76.3680  222.2780 N   0  0  0  0  0  0  0  0  0  0  0  0
  140.7210   75.4270  221.4000 C   0  0  0  0  0  0  0  0  0  0  0  0
  140.1270   74.0860  221.5470 C   0  0  0  0  0  0  0  0  0  0  0  0
  140.8690   73.0740  221.9470 C   0  0  0  0  0  0  0  0  0  0  0  0
  140.3470   71.8380  222.5060 C   0  0  0  0  0  0  0  0  0  0  0  0
  139.9590   70.7530  221.7520 C   0  0  0  0  0  0  0  0  0  0  0  0
  139.4710   69.5960  222.3220 C   0  0  0  0  0  0  0  0  0  0  0  0
  139.3460   69.4660  223.6900 C   0  0  0  0  0  0  0  0  0  0  0  0
  139.7300   70.5430  224.4540 C   0  0  0  0  0  0  0  0  0  0  0  0
  139.6010   70.4080  225.9310 C   0  0  0  0  0  0  0  0  0  0  0  0
  140.8310   70.1460  226.6060 N   0  0  0  0  0  0  0  0  0  0  0  0
  141.4410   68.9090  226.1560 C   0  0  0  0  0  0  0  0  0  0  0  0
  140.6330   67.7600  226.6660 C   0  0  0  0  0  0  0  0  0  0  0  0
  139.6560   68.1140  227.5620 O   0  0  0  0  0  0  0  0  0  0  0  0
  140.1590   68.8750  228.6180 C   0  0  0  0  0  0  0  0  0  0  0  0
  140.7720   70.1250  228.0340 C   0  0  0  0  0  0  0  0  0  0  0  0
  140.2180   71.7010  223.8840 C   0  0  0  0  0  0  0  0  0  0  0  0
  141.6130   75.7140  220.4360 N   0  0  0  0  0  0  0  0  0  0  0  0
  142.0490   74.7140  219.4920 C   0  0  0  0  0  0  0  0  0  0  0  0
  143.5560   74.5280  219.5580 C   0  0  0  0  0  0  0  0  0  0  0  0
  143.9510   73.4990  220.5740 C   0  0  0  0  0  0  0  0  0  0  0  0
  145.4720   73.3640  220.6240 C   0  0  0  0  0  0  0  0  0  0  0  0
  146.0140   73.2490  219.2870 N   0  0  0  0  0  0  0  0  0  0  0  0
  144.9720   72.9480  218.3270 C   0  0  0  0  0  0  0  0  0  0  0  0
  144.0700   74.1380  218.2000 C   0  0  0  0  0  0  0  0  0  0  0  0
  142.9327   79.5082  220.4620 H   0  0  0  0  0  0  0  0  0  0  0  0
  142.1903   81.2180  222.1028 H   0  0  0  0  0  0  0  0  0  0  0  0
  140.5375   80.6057  223.8556 H   0  0  0  0  0  0  0  0  0  0  0  0
  139.6358   78.2781  223.9520 H   0  0  0  0  0  0  0  0  0  0  0  0
  139.0616   73.9301  221.3221 H   0  0  0  0  0  0  0  0  0  0  0  0
  141.9605   73.1710  221.8513 H   0  0  0  0  0  0  0  0  0  0  0  0
  140.0412   70.8112  220.6566 H   0  0  0  0  0  0  0  0  0  0  0  0
  139.1751   68.7591  221.6724 H   0  0  0  0  0  0  0  0  0  0  0  0
  138.9575   68.5443  224.1478 H   0  0  0  0  0  0  0  0  0  0  0  0
  139.1831   71.3451  226.3275 H   0  0  0  0  0  0  0  0  0  0  0  0
  138.9506   69.5397  226.1126 H   0  0  0  0  0  0  0  0  0  0  0  0
  141.4630   68.8863  225.0565 H   0  0  0  0  0  0  0  0  0  0  0  0
  142.4706   68.8400  226.5369 H   0  0  0  0  0  0  0  0  0  0  0  0
  140.1522   67.2683  225.8075 H   0  0  0  0  0  0  0  0  0  0  0  0
  141.3285   67.0972  227.2017 H   0  0  0  0  0  0  0  0  0  0  0  0
  139.3446   69.1440  229.3067 H   0  0  0  0  0  0  0  0  0  0  0  0
  140.9126   68.3032  229.1793 H   0  0  0  0  0  0  0  0  0  0  0  0
  140.1752   70.9874  228.3657 H   0  0  0  0  0  0  0  0  0  0  0  0
  141.8122   70.1585  228.3901 H   0  0  0  0  0  0  0  0  0  0  0  0
  140.5124   72.5367  224.5358 H   0  0  0  0  0  0  0  0  0  0  0  0
  141.5573   73.7584  219.7266 H   0  0  0  0  0  0  0  0  0  0  0  0
  141.7793   75.0455  218.4784 H   0  0  0  0  0  0  0  0  0  0  0  0
  144.0039   75.4831  219.8699 H   0  0  0  0  0  0  0  0  0  0  0  0
  143.5806   73.8046  221.5637 H   0  0  0  0  0  0  0  0  0  0  0  0
  143.5136   72.5298  220.2922 H   0  0  0  0  0  0  0  0  0  0  0  0
  145.8986   74.2525  221.1125 H   0  0  0  0  0  0  0  0  0  0  0  0
  145.7307   72.4584  221.1923 H   0  0  0  0  0  0  0  0  0  0  0  0
  146.4840   74.1390  219.0060 H   0  0  0  0  0  0  0  0  0  0  0  0
  145.4242   72.7216  217.3501 H   0  0  0  0  0  0  0  0  0  0  0  0
  144.3932   72.0764  218.6664 H   0  0  0  0  0  0  0  0  0  0  0  0
  144.6315   74.9784  217.7658 H   0  0  0  0  0  0  0  0  0  0  0  0
  143.2217   73.8855  217.5468 H   0  0  0  0  0  0  0  0  0  0  0  0
  1  2  2  0
  2  3  1  0
  3  4  2  0
  4  5  1  0
  5  6  2  0
  6  7  1  0
  7  8  2  0
  8  9  1  0
  9 10  2  0
 10 11  1  0
 11 12  2  0
 12 13  1  0
 13 14  2  0
 14 15  1  0
 15 16  2  0
 16 17  1  0
 17 18  1  0
 18 19  1  0
 19 20  1  0
 20 21  1  0
 21 22  1  0
 22 23  1  0
 23 24  1  0
 17 25  2  0
 10 26  1  0
 26 27  1  0
 27 28  1  0
 28 29  1  0
 29 30  1  0
 30 31  1  0
 31 32  1  0
 32 33  1  0
 26  2  1  0
 33 28  1  0
  8  3  1  0
 25 13  1  0
 24 19  1  0
  4 34  1  0
  5 35  1  0
  6 36  1  0
  7 37  1  0
 11 38  1  0
 12 39  1  0
 14 40  1  0
 15 41  1  0
 16 42  1  0
 18 43  1  0
 18 44  1  0
 20 45  1  0
 20 46  1  0
 21 47  1  0
 21 48  1  0
 23 49  1  0
 23 50  1  0
 24 51  1  0
 24 52  1  0
 25 53  1  0
 27 54  1  0
 27 55  1  0
 28 56  1  0
 29 57  1  0
 29 58  1  0
 30 59  1  0
 30 60  1  0
 31 61  1  0
 32 62  1  0
 32 63  1  0
 33 64  1  0
 33 65  1  0
M  END
>  <smiles>  (44) 
O=c1c2ccccc2nc(/C=C/c2cccc(CN3CCOCC3)c2)n1CC1CCNCC1

>  <score_type>  (44) 
oracle

>  <origin>  (44) 
autodockgpu

>  <m_score__min__energy>  (44) 
-9.6400000000000006

>  <m_primary>  (44) 
energy

>  <rmsd>  (44) 
7.6220319169361614

>  <m_score__min__rmsd>  (44) 
7.6220319169361614

>  <meeko>  (44) 
{"free_energy": -9.35, "intermolecular_energy": -11.44, "internal_energy": -1.52, "cluster_size": 18, "cluster_id": 1, "rank_in_cluster": 7}

>  <energy>  (44) 
-6.44

>  <cluster_rmsd>  (44) 
1.32

>  <cluster>  (44) 
9

$$$$

     RDKit          3D

 65 69  0  0  0  0  0  0  0  0999 V2000
  142.5580   78.0300  219.2140 O   0  0  0  0  0  0  0  0  0  0  0  0
  141.9210   77.5080  220.1710 C   0  0  0  0  0  0  0  0  0  0  0  0
  141.7220   78.3410  221.2720 C   0  0  0  0  0  0  0  0  0  0  0  0
  142.1890   79.6360  221.3030 C   0  0  0  0  0  0  0  0  0  0  0  0
  141.9760   80.4390  222.4110 C   0  0  0  0  0  0  0  0  0  0  0  0
  141.2870   79.9330  223.4950 C   0  0  0  0  0  0  0  0  0  0  0  0
  140.8150   78.6240  223.4670 C   0  0  0  0  0  0  0  0  0  0  0  0
  141.0400   77.8490  222.3550 C   0  0  0  0  0  0  0  0  0  0  0  0
  140.6020   76.5830  222.2850 N   0  0  0  0  0  0  0  0  0  0  0  0
  140.7980   75.7880  221.2190 C   0  0  0  0  0  0  0  0  0  0  0  0
  140.2550   74.4190  221.2930 C   0  0  0  0  0  0  0  0  0  0  0  0
  140.9010   73.4860  221.9610 C   0  0  0  0  0  0  0  0  0  0  0  0
  140.3280   72.2150  222.3670 C   0  0  0  0  0  0  0  0  0  0  0  0
  139.8460   71.2700  221.4880 C   0  0  0  0  0  0  0  0  0  0  0  0
  139.3120   70.0710  221.9140 C   0  0  0  0  0  0  0  0  0  0  0  0
  139.2310   69.7570  223.2560 C   0  0  0  0  0  0  0  0  0  0  0  0
  139.7090   70.6930  224.1430 C   0  0  0  0  0  0  0  0  0  0  0  0
  139.6290   70.3580  225.5910 C   0  0  0  0  0  0  0  0  0  0  0  0
  140.8800   70.4110  226.2760 N   0  0  0  0  0  0  0  0  0  0  0  0
  141.0640   69.2720  227.1540 C   0  0  0  0  0  0  0  0  0  0  0  0
  140.1400   69.4090  228.3210 C   0  0  0  0  0  0  0  0  0  0  0  0
  139.4990   70.6190  228.3920 O   0  0  0  0  0  0  0  0  0  0  0  0
  140.3890   71.6920  228.3340 C   0  0  0  0  0  0  0  0  0  0  0  0
  141.1360   71.6020  227.0240 C   0  0  0  0  0  0  0  0  0  0  0  0
  140.2440   71.8910  223.7170 C   0  0  0  0  0  0  0  0  0  0  0  0
  141.4620   76.2390  220.1420 N   0  0  0  0  0  0  0  0  0  0  0  0
  141.6930   75.3970  218.9930 C   0  0  0  0  0  0  0  0  0  0  0  0
  143.0220   74.6700  219.1140 C   0  0  0  0  0  0  0  0  0  0  0  0
  143.6630   74.8860  220.4510 C   0  0  0  0  0  0  0  0  0  0  0  0
  145.0050   74.1590  220.5170 C   0  0  0  0  0  0  0  0  0  0  0  0
  144.8690   72.8000  220.0350 N   0  0  0  0  0  0  0  0  0  0  0  0
  143.4760   72.4120  219.9600 C   0  0  0  0  0  0  0  0  0  0  0  0
  142.8100   73.2010  218.8730 C   0  0  0  0  0  0  0  0  0  0  0  0
  142.7374   80.0372  220.4379 H   0  0  0  0  0  0  0  0  0  0  0  0
  142.3530   81.4723  222.4272 H   0  0  0  0  0  0  0  0  0  0  0  0
  141.1114   80.5632  224.3793 H   0  0  0  0  0  0  0  0  0  0  0  0
  140.2666   78.2135  224.3276 H   0  0  0  0  0  0  0  0  0  0  0  0
  139.3079   74.1765  220.7889 H   0  0  0  0  0  0  0  0  0  0  0  0
  141.9490   73.6834  222.2306 H   0  0  0  0  0  0  0  0  0  0  0  0
  139.8883   71.4785  220.4088 H   0  0  0  0  0  0  0  0  0  0  0  0
  138.9433   69.3506  221.1690 H   0  0  0  0  0  0  0  0  0  0  0  0
  138.8043   68.8031  223.5996 H   0  0  0  0  0  0  0  0  0  0  0  0
  138.9424   71.0702  226.0720 H   0  0  0  0  0  0  0  0  0  0  0  0
  139.2788   69.3172  225.6547 H   0  0  0  0  0  0  0  0  0  0  0  0
  140.8359   68.3443  226.6088 H   0  0  0  0  0  0  0  0  0  0  0  0
  142.1059   69.2350  227.5047 H   0  0  0  0  0  0  0  0  0  0  0  0
  139.3781   68.6186  228.2522 H   0  0  0  0  0  0  0  0  0  0  0  0
  140.7598   69.3263  229.2260 H   0  0  0  0  0  0  0  0  0  0  0  0
  139.8349   72.6409  228.3844 H   0  0  0  0  0  0  0  0  0  0  0  0
  141.0911   71.6550  229.1800 H   0  0  0  0  0  0  0  0  0  0  0  0
  140.8491   72.4648  226.4049 H   0  0  0  0  0  0  0  0  0  0  0  0
  142.2069   71.5896  227.2749 H   0  0  0  0  0  0  0  0  0  0  0  0
  140.6137   72.6086  224.4642 H   0  0  0  0  0  0  0  0  0  0  0  0
  140.8826   74.6568  218.9198 H   0  0  0  0  0  0  0  0  0  0  0  0
  141.7178   76.0287  218.0928 H   0  0  0  0  0  0  0  0  0  0  0  0
  143.7047   75.0817  218.3561 H   0  0  0  0  0  0  0  0  0  0  0  0
  143.8252   75.9628  220.6063 H   0  0  0  0  0  0  0  0  0  0  0  0
  143.0010   74.4888  221.2345 H   0  0  0  0  0  0  0  0  0  0  0  0
  145.7372   74.6929  219.8934 H   0  0  0  0  0  0  0  0  0  0  0  0
  145.3452   74.1336  221.5628 H   0  0  0  0  0  0  0  0  0  0  0  0
  145.2980   72.7060  219.0870 H   0  0  0  0  0  0  0  0  0  0  0  0
  143.4035   71.3379  219.7341 H   0  0  0  0  0  0  0  0  0  0  0  0
  142.9812   72.6115  220.9220 H   0  0  0  0  0  0  0  0  0  0  0  0
  143.2433   72.9232  217.9009 H   0  0  0  0  0  0  0  0  0  0  0  0
  141.7318   72.9829  218.8713 H   0  0  0  0  0  0  0  0  0  0  0  0
  1  2  2  0
  2  3  1  0
  3  4  2  0
  4  5  1  0
  5  6  2  0
  6  7  1  0
  7  8  2  0
  8  9  1  0
  9 10  2  0
 10 11  1  0
 11 12  2  0
 12 13  1  0
 13 14  2  0
 14 15  1  0
 15 16  2  0
 16 17  1  0
 17 18  1  0
 18 19  1  0
 19 20  1  0
 20 21  1  0
 21 22  1  0
 22 23  1  0
 23 24  1  0
 17 25  2  0
 10 26  1  0
 26 27  1  0
 27 28  1  0
 28 29  1  0
 29 30  1  0
 30 31  1  0
 31 32  1  0
 32 33  1  0
 26  2  1  0
 33 28  1  0
  8  3  1  0
 25 13  1  0
 24 19  1  0
  4 34  1  0
  5 35  1  0
  6 36  1  0
  7 37  1  0
 11 38  1  0
 12 39  1  0
 14 40  1  0
 15 41  1  0
 16 42  1  0
 18 43  1  0
 18 44  1  0
 20 45  1  0
 20 46  1  0
 21 47  1  0
 21 48  1  0
 23 49  1  0
 23 50  1  0
 24 51  1  0
 24 52  1  0
 25 53  1  0
 27 54  1  0
 27 55  1  0
 28 56  1  0
 29 57  1  0
 29 58  1  0
 30 59  1  0
 30 60  1  0
 31 61  1  0
 32 62  1  0
 32 63  1  0
 33 64  1  0
 33 65  1  0
M  END
>  <smiles>  (45) 
O=c1c2ccccc2nc(/C=C/c2cccc(CN3CCOCC3)c2)n1CC1CCNCC1

>  <score_type>  (45) 
oracle

>  <origin>  (45) 
autodockgpu

>  <m_score__min__energy>  (45) 
-9.6400000000000006

>  <m_primary>  (45) 
energy

>  <rmsd>  (45) 
7.299297849189271

>  <m_score__min__rmsd>  (45) 
7.299297849189271

>  <meeko>  (45) 
{"free_energy": -8.39, "intermolecular_energy": -10.48, "internal_energy": -1.8, "cluster_size": 18, "cluster_id": 1, "rank_in_cluster": 17}

>  <energy>  (45) 
-7.38

>  <cluster_rmsd>  (45) 
0.0

>  <cluster>  (45) 
10

$$$$

     RDKit          3D

 65 69  0  0  0  0  0  0  0  0999 V2000
  139.3800   67.3530  225.0260 O   0  0  0  0  0  0  0  0  0  0  0  0
  139.3020   68.6120  225.0340 C   0  0  0  0  0  0  0  0  0  0  0  0
  139.9240   69.2350  226.1170 C   0  0  0  0  0  0  0  0  0  0  0  0
  140.5730   68.5180  227.0980 C   0  0  0  0  0  0  0  0  0  0  0  0
  141.1810   69.1650  228.1610 C   0  0  0  0  0  0  0  0  0  0  0  0
  141.1350   70.5430  228.2350 C   0  0  0  0  0  0  0  0  0  0  0  0
  140.4790   71.2690  227.2450 C   0  0  0  0  0  0  0  0  0  0  0  0
  139.8850   70.6030  226.2020 C   0  0  0  0  0  0  0  0  0  0  0  0
  139.2430   71.2630  225.2260 N   0  0  0  0  0  0  0  0  0  0  0  0
  138.6470   70.6550  224.1860 C   0  0  0  0  0  0  0  0  0  0  0  0
  137.9820   71.5180  223.1930 C   0  0  0  0  0  0  0  0  0  0  0  0
  138.4680   71.6190  221.9730 C   0  0  0  0  0  0  0  0  0  0  0  0
  139.7350   72.2480  221.6390 C   0  0  0  0  0  0  0  0  0  0  0  0
  139.9170   73.6090  221.5330 C   0  0  0  0  0  0  0  0  0  0  0  0
  141.1380   74.1670  221.2160 C   0  0  0  0  0  0  0  0  0  0  0  0
  142.2500   73.3810  220.9880 C   0  0  0  0  0  0  0  0  0  0  0  0
  142.0810   72.0210  221.0910 C   0  0  0  0  0  0  0  0  0  0  0  0
  143.2770   71.1680  220.8500 C   0  0  0  0  0  0  0  0  0  0  0  0
  143.5960   70.9800  219.4710 N   0  0  0  0  0  0  0  0  0  0  0  0
  142.4050   70.8370  218.6560 C   0  0  0  0  0  0  0  0  0  0  0  0
  141.7800   69.5100  218.9450 C   0  0  0  0  0  0  0  0  0  0  0  0
  142.5440   68.6890  219.7330 O   0  0  0  0  0  0  0  0  0  0  0  0
  143.8370   68.5300  219.2330 C   0  0  0  0  0  0  0  0  0  0  0  0
  144.4790   69.8970  219.1730 C   0  0  0  0  0  0  0  0  0  0  0  0
  140.8590   71.4620  221.4080 C   0  0  0  0  0  0  0  0  0  0  0  0
  138.6670   69.3160  224.0730 N   0  0  0  0  0  0  0  0  0  0  0  0
  138.0240   68.6440  222.9700 C   0  0  0  0  0  0  0  0  0  0  0  0
  139.0510   68.0070  222.0500 C   0  0  0  0  0  0  0  0  0  0  0  0
  138.8640   66.5240  221.9380 C   0  0  0  0  0  0  0  0  0  0  0  0
  139.9320   65.9240  221.0260 C   0  0  0  0  0  0  0  0  0  0  0  0
  140.0460   66.6940  219.8050 N   0  0  0  0  0  0  0  0  0  0  0  0
  138.9090   67.5760  219.6390 C   0  0  0  0  0  0  0  0  0  0  0  0
  138.9660   68.6430  220.6900 C   0  0  0  0  0  0  0  0  0  0  0  0
  140.6087   67.4203  227.0365 H   0  0  0  0  0  0  0  0  0  0  0  0
  141.6968   68.5853  228.9406 H   0  0  0  0  0  0  0  0  0  0  0  0
  141.6158   71.0661  229.0747 H   0  0  0  0  0  0  0  0  0  0  0  0
  140.4370   72.3669  227.2980 H   0  0  0  0  0  0  0  0  0  0  0  0
  137.0777   72.0790  223.4716 H   0  0  0  0  0  0  0  0  0  0  0  0
  137.8733   71.1978  221.1491 H   0  0  0  0  0  0  0  0  0  0  0  0
  139.0586   74.2744  221.7072 H   0  0  0  0  0  0  0  0  0  0  0  0
  141.2276   75.2609  221.1433 H   0  0  0  0  0  0  0  0  0  0  0  0
  143.2254   73.8226  220.7358 H   0  0  0  0  0  0  0  0  0  0  0  0
  144.1407   71.6386  221.3424 H   0  0  0  0  0  0  0  0  0  0  0  0
  143.0422   70.1736  221.2576 H   0  0  0  0  0  0  0  0  0  0  0  0
  141.6937   71.6409  218.8965 H   0  0  0  0  0  0  0  0  0  0  0  0
  142.6713   70.9007  217.5906 H   0  0  0  0  0  0  0  0  0  0  0  0
  140.8214   69.6840  219.4557 H   0  0  0  0  0  0  0  0  0  0  0  0
  141.6611   68.9992  217.9781 H   0  0  0  0  0  0  0  0  0  0  0  0
  144.4172   67.8727  219.8973 H   0  0  0  0  0  0  0  0  0  0  0  0
  143.8093   68.0736  218.2325 H   0  0  0  0  0  0  0  0  0  0  0  0
  145.3070   69.9197  219.8968 H   0  0  0  0  0  0  0  0  0  0  0  0
  144.8114   70.0411  218.1344 H   0  0  0  0  0  0  0  0  0  0  0  0
  140.7722   70.3678  221.4797 H   0  0  0  0  0  0  0  0  0  0  0  0
  137.3587   67.8614  223.3636 H   0  0  0  0  0  0  0  0  0  0  0  0
  137.4485   69.3843  222.3949 H   0  0  0  0  0  0  0  0  0  0  0  0
  140.0473   68.1779  222.4839 H   0  0  0  0  0  0  0  0  0  0  0  0
  138.9439   66.0714  222.9374 H   0  0  0  0  0  0  0  0  0  0  0  0
  137.8714   66.3191  221.5106 H   0  0  0  0  0  0  0  0  0  0  0  0
  140.8996   65.9293  221.5492 H   0  0  0  0  0  0  0  0  0  0  0  0
  139.6447   64.8932  220.7714 H   0  0  0  0  0  0  0  0  0  0  0  0
  140.9190   67.2660  219.8150 H   0  0  0  0  0  0  0  0  0  0  0  0
  138.9424   68.0380  218.6413 H   0  0  0  0  0  0  0  0  0  0  0  0
  137.9750   67.0035  219.7388 H   0  0  0  0  0  0  0  0  0  0  0  0
  139.8523   69.2731  220.5244 H   0  0  0  0  0  0  0  0  0  0  0  0
  138.0585   69.2619  220.6321 H   0  0  0  0  0  0  0  0  0  0  0  0
  1  2  2  0
  2  3  1  0
  3  4  2  0
  4  5  1  0
  5  6  2  0
  6  7  1  0
  7  8  2  0
  8  9  1  0
  9 10  2  0
 10 11  1  0
 11 12  2  0
 12 13  1  0
 13 14  2  0
 14 15  1  0
 15 16  2  0
 16 17  1  0
 17 18  1  0
 18 19  1  0
 19 20  1  0
 20 21  1  0
 21 22  1  0
 22 23  1  0
 23 24  1  0
 17 25  2  0
 10 26  1  0
 26 27  1  0
 27 28  1  0
 28 29  1  0
 29 30  1  0
 30 31  1  0
 31 32  1  0
 32 33  1  0
 26  2  1  0
 33 28  1  0
  8  3  1  0
 25 13  1  0
 24 19  1  0
  4 34  1  0
  5 35  1  0
  6 36  1  0
  7 37  1  0
 11 38  1  0
 12 39  1  0
 14 40  1  0
 15 41  1  0
 16 42  1  0
 18 43  1  0
 18 44  1  0
 20 45  1  0
 20 46  1  0
 21 47  1  0
 21 48  1  0
 23 49  1  0
 23 50  1  0
 24 51  1  0
 24 52  1  0
 25 53  1  0
 27 54  1  0
 27 55  1  0
 28 56  1  0
 29 57  1  0
 29 58  1  0
 30 59  1  0
 30 60  1  0
 31 61  1  0
 32 62  1  0
 32 63  1  0
 33 64  1  0
 33 65  1  0
M  END
>  <smiles>  (46) 
O=c1c2ccccc2nc(/C=C/c2cccc(CN3CCOCC3)c2)n1CC1CCNCC1

>  <score_type>  (46) 
oracle

>  <origin>  (46) 
autodockgpu

>  <m_score__min__energy>  (46) 
-9.6400000000000006

>  <m_primary>  (46) 
energy

>  <rmsd>  (46) 
13.039737443894383

>  <m_score__min__rmsd>  (46) 
13.039737443894383

>  <meeko>  (46) 
{"free_energy": -6.44, "intermolecular_energy": -8.53, "internal_energy": -3.13, "cluster_size": 4, "cluster_id": 9, "rank_in_cluster": 4}

>  <energy>  (46) 
-7.12

>  <cluster_rmsd>  (46) 
0.0

>  <cluster>  (46) 
11

$$$$

     RDKit          3D

 65 69  0  0  0  0  0  0  0  0999 V2000
  142.8640   76.3740  218.9060 O   0  0  0  0  0  0  0  0  0  0  0  0
  142.1710   75.9570  219.8750 C   0  0  0  0  0  0  0  0  0  0  0  0
  141.7170   76.9470  220.7450 C   0  0  0  0  0  0  0  0  0  0  0  0
  142.0070   78.2790  220.5520 C   0  0  0  0  0  0  0  0  0  0  0  0
  141.5410   79.2400  221.4340 C   0  0  0  0  0  0  0  0  0  0  0  0
  140.7770   78.8550  222.5170 C   0  0  0  0  0  0  0  0  0  0  0  0
  140.4820   77.5100  222.7150 C   0  0  0  0  0  0  0  0  0  0  0  0
  140.9570   76.5770  221.8250 C   0  0  0  0  0  0  0  0  0  0  0  0
  140.6970   75.2700  221.9770 N   0  0  0  0  0  0  0  0  0  0  0  0
  141.1380   74.3220  221.1330 C   0  0  0  0  0  0  0  0  0  0  0  0
  140.7680   72.9280  221.4340 C   0  0  0  0  0  0  0  0  0  0  0  0
  139.5000   72.5780  221.4920 C   0  0  0  0  0  0  0  0  0  0  0  0
  138.9940   71.4260  222.2180 C   0  0  0  0  0  0  0  0  0  0  0  0
  138.1960   70.4520  221.6610 C   0  0  0  0  0  0  0  0  0  0  0  0
  137.7380   69.3700  222.3860 C   0  0  0  0  0  0  0  0  0  0  0  0
  138.0590   69.2090  223.7180 C   0  0  0  0  0  0  0  0  0  0  0  0
  138.8560   70.1760  224.2860 C   0  0  0  0  0  0  0  0  0  0  0  0
  139.2100   70.0060  225.7220 C   0  0  0  0  0  0  0  0  0  0  0  0
  140.6050   70.1260  226.0010 N   0  0  0  0  0  0  0  0  0  0  0  0
  141.0480   69.1410  226.9690 C   0  0  0  0  0  0  0  0  0  0  0  0
  140.4980   69.5040  228.3110 C   0  0  0  0  0  0  0  0  0  0  0  0
  139.8900   70.7330  228.3560 O   0  0  0  0  0  0  0  0  0  0  0  0
  140.7130   71.7470  227.8650 C   0  0  0  0  0  0  0  0  0  0  0  0
  141.0510   71.4130  226.4310 C   0  0  0  0  0  0  0  0  0  0  0  0
  139.3140   71.2580  223.5620 C   0  0  0  0  0  0  0  0  0  0  0  0
  141.8850   74.6510  220.0650 N   0  0  0  0  0  0  0  0  0  0  0  0
  142.3790   73.6470  219.1540 C   0  0  0  0  0  0  0  0  0  0  0  0
  143.5750   72.9200  219.7460 C   0  0  0  0  0  0  0  0  0  0  0  0
  144.3990   72.2420  218.6940 C   0  0  0  0  0  0  0  0  0  0  0  0
  145.5720   71.5050  219.3360 C   0  0  0  0  0  0  0  0  0  0  0  0
  146.2480   72.3600  220.2890 N   0  0  0  0  0  0  0  0  0  0  0  0
  145.8560   73.7440  220.1140 C   0  0  0  0  0  0  0  0  0  0  0  0
  144.4210   73.8960  220.5160 C   0  0  0  0  0  0  0  0  0  0  0  0
  142.6156   78.5834  219.6877 H   0  0  0  0  0  0  0  0  0  0  0  0
  141.7781   80.3019  221.2725 H   0  0  0  0  0  0  0  0  0  0  0  0
  140.4018   79.6108  223.2227 H   0  0  0  0  0  0  0  0  0  0  0  0
  139.8740   77.1962  223.5763 H   0  0  0  0  0  0  0  0  0  0  0  0
  141.5529   72.1779  221.6107 H   0  0  0  0  0  0  0  0  0  0  0  0
  138.7724   73.2021  220.9525 H   0  0  0  0  0  0  0  0  0  0  0  0
  137.9135   70.5390  220.6014 H   0  0  0  0  0  0  0  0  0  0  0  0
  137.1035   68.6202  221.8909 H   0  0  0  0  0  0  0  0  0  0  0  0
  137.6950   68.3484  224.2984 H   0  0  0  0  0  0  0  0  0  0  0  0
  138.6754   70.7728  226.3018 H   0  0  0  0  0  0  0  0  0  0  0  0
  138.9202   68.9816  225.9989 H   0  0  0  0  0  0  0  0  0  0  0  0
  140.6832   68.1452  226.6768 H   0  0  0  0  0  0  0  0  0  0  0  0
  142.1472   69.1227  227.0077 H   0  0  0  0  0  0  0  0  0  0  0  0
  139.7580   68.7424  228.5980 H   0  0  0  0  0  0  0  0  0  0  0  0
  141.3532   69.5490  229.0014 H   0  0  0  0  0  0  0  0  0  0  0  0
  140.1862   72.7116  227.9105 H   0  0  0  0  0  0  0  0  0  0  0  0
  141.6297   71.8240  228.4681 H   0  0  0  0  0  0  0  0  0  0  0  0
  140.5871   72.1714  225.7832 H   0  0  0  0  0  0  0  0  0  0  0  0
  142.1488   71.4021  226.3630 H   0  0  0  0  0  0  0  0  0  0  0  0
  139.9480   72.0065  224.0598 H   0  0  0  0  0  0  0  0  0  0  0  0
  141.5792   72.9195  218.9515 H   0  0  0  0  0  0  0  0  0  0  0  0
  142.6933   74.1411  218.2228 H   0  0  0  0  0  0  0  0  0  0  0  0
  143.1970   72.1362  220.4190 H   0  0  0  0  0  0  0  0  0  0  0  0
  143.7713   71.5212  218.1495 H   0  0  0  0  0  0  0  0  0  0  0  0
  144.7889   73.0007  217.9995 H   0  0  0  0  0  0  0  0  0  0  0  0
  145.1971   70.6103  219.8547 H   0  0  0  0  0  0  0  0  0  0  0  0
  146.2844   71.2166  218.5491 H   0  0  0  0  0  0  0  0  0  0  0  0
  146.0230   72.0670  221.2660 H   0  0  0  0  0  0  0  0  0  0  0  0
  146.4863   74.3889  220.7440 H   0  0  0  0  0  0  0  0  0  0  0  0
  145.9813   74.0367  219.0611 H   0  0  0  0  0  0  0  0  0  0  0  0
  144.3197   73.6979  221.5933 H   0  0  0  0  0  0  0  0  0  0  0  0
  144.0870   74.9209  220.2970 H   0  0  0  0  0  0  0  0  0  0  0  0
  1  2  2  0
  2  3  1  0
  3  4  2  0
  4  5  1  0
  5  6  2  0
  6  7  1  0
  7  8  2  0
  8  9  1  0
  9 10  2  0
 10 11  1  0
 11 12  2  0
 12 13  1  0
 13 14  2  0
 14 15  1  0
 15 16  2  0
 16 17  1  0
 17 18  1  0
 18 19  1  0
 19 20  1  0
 20 21  1  0
 21 22  1  0
 22 23  1  0
 23 24  1  0
 17 25  2  0
 10 26  1  0
 26 27  1  0
 27 28  1  0
 28 29  1  0
 29 30  1  0
 30 31  1  0
 31 32  1  0
 32 33  1  0
 26  2  1  0
 33 28  1  0
  8  3  1  0
 25 13  1  0
 24 19  1  0
  4 34  1  0
  5 35  1  0
  6 36  1  0
  7 37  1  0
 11 38  1  0
 12 39  1  0
 14 40  1  0
 15 41  1  0
 16 42  1  0
 18 43  1  0
 18 44  1  0
 20 45  1  0
 20 46  1  0
 21 47  1  0
 21 48  1  0
 23 49  1  0
 23 50  1  0
 24 51  1  0
 24 52  1  0
 25 53  1  0
 27 54  1  0
 27 55  1  0
 28 56  1  0
 29 57  1  0
 29 58  1  0
 30 59  1  0
 30 60  1  0
 31 61  1  0
 32 62  1  0
 32 63  1  0
 33 64  1  0
 33 65  1  0
M  END
>  <smiles>  (47) 
O=c1c2ccccc2nc(/C=C/c2cccc(CN3CCOCC3)c2)n1CC1CCNCC1

>  <score_type>  (47) 
oracle

>  <origin>  (47) 
autodockgpu

>  <m_score__min__energy>  (47) 
-9.6400000000000006

>  <m_primary>  (47) 
energy

>  <rmsd>  (47) 
7.947415553164357

>  <m_score__min__rmsd>  (47) 
7.947415553164357

>  <meeko>  (47) 
{"free_energy": -8.92, "intermolecular_energy": -11.01, "internal_energy": -1.46, "cluster_size": 18, "cluster_id": 1, "rank_in_cluster": 13}

>  <energy>  (47) 
-6.03

>  <cluster_rmsd>  (47) 
1.91

>  <cluster>  (47) 
11

$$$$

     RDKit          3D

 65 69  0  0  0  0  0  0  0  0999 V2000
  142.7120   75.7610  218.9260 O   0  0  0  0  0  0  0  0  0  0  0  0
  141.9980   75.4830  219.9290 C   0  0  0  0  0  0  0  0  0  0  0  0
  141.6980   76.5630  220.7580 C   0  0  0  0  0  0  0  0  0  0  0  0
  142.1520   77.8360  220.4930 C   0  0  0  0  0  0  0  0  0  0  0  0
  141.8380   78.8890  221.3360 C   0  0  0  0  0  0  0  0  0  0  0  0
  141.0610   78.6580  222.4530 C   0  0  0  0  0  0  0  0  0  0  0  0
  140.6010   77.3720  222.7240 C   0  0  0  0  0  0  0  0  0  0  0  0
  140.9270   76.3460  221.8710 C   0  0  0  0  0  0  0  0  0  0  0  0
  140.5050   75.0920  222.0940 N   0  0  0  0  0  0  0  0  0  0  0  0
  140.7980   74.0570  221.2880 C   0  0  0  0  0  0  0  0  0  0  0  0
  140.2590   72.7370  221.6660 C   0  0  0  0  0  0  0  0  0  0  0  0
  138.9580   72.5470  221.7290 C   0  0  0  0  0  0  0  0  0  0  0  0
  138.2980   71.6600  222.6710 C   0  0  0  0  0  0  0  0  0  0  0  0
  136.9690   71.3040  222.5950 C   0  0  0  0  0  0  0  0  0  0  0  0
  136.3810   70.4540  223.5090 C   0  0  0  0  0  0  0  0  0  0  0  0
  137.1000   69.9130  224.5550 C   0  0  0  0  0  0  0  0  0  0  0  0
  138.4280   70.2610  224.6420 C   0  0  0  0  0  0  0  0  0  0  0  0
  139.2110   69.6780  225.7650 C   0  0  0  0  0  0  0  0  0  0  0  0
  140.5700   70.1100  225.8200 N   0  0  0  0  0  0  0  0  0  0  0  0
  141.4100   69.1590  226.5220 C   0  0  0  0  0  0  0  0  0  0  0  0
  141.0790   69.2070  227.9790 C   0  0  0  0  0  0  0  0  0  0  0  0
  140.2350   70.2290  228.3300 O   0  0  0  0  0  0  0  0  0  0  0  0
  140.6920   71.4690  227.8820 C   0  0  0  0  0  0  0  0  0  0  0  0
  140.7960   71.4060  226.3770 C   0  0  0  0  0  0  0  0  0  0  0  0
  139.0170   71.1110  223.7280 C   0  0  0  0  0  0  0  0  0  0  0  0
  141.5510   74.2360  220.1900 N   0  0  0  0  0  0  0  0  0  0  0  0
  141.8860   73.1350  219.3200 C   0  0  0  0  0  0  0  0  0  0  0  0
  143.2610   72.5810  219.6530 C   0  0  0  0  0  0  0  0  0  0  0  0
  144.1900   72.6360  218.4780 C   0  0  0  0  0  0  0  0  0  0  0  0
  145.5490   72.0470  218.8510 C   0  0  0  0  0  0  0  0  0  0  0  0
  146.0080   72.5910  220.1120 N   0  0  0  0  0  0  0  0  0  0  0  0
  145.2450   73.7650  220.4800 C   0  0  0  0  0  0  0  0  0  0  0  0
  143.8420   73.3490  220.8080 C   0  0  0  0  0  0  0  0  0  0  0  0
  142.7708   78.0184  219.6020 H   0  0  0  0  0  0  0  0  0  0  0  0
  142.2053   79.9024  221.1168 H   0  0  0  0  0  0  0  0  0  0  0  0
  140.8056   79.4882  223.1279 H   0  0  0  0  0  0  0  0  0  0  0  0
  139.9823   77.1796  223.6129 H   0  0  0  0  0  0  0  0  0  0  0  0
  140.9460   71.9093  221.8958 H   0  0  0  0  0  0  0  0  0  0  0  0
  138.3259   73.0990  221.0179 H   0  0  0  0  0  0  0  0  0  0  0  0
  136.3559   71.7114  221.7776 H   0  0  0  0  0  0  0  0  0  0  0  0
  135.3156   70.2021  223.4014 H   0  0  0  0  0  0  0  0  0  0  0  0
  136.6333   69.2353  225.2850 H   0  0  0  0  0  0  0  0  0  0  0  0
  138.7215   69.9597  226.7090 H   0  0  0  0  0  0  0  0  0  0  0  0
  139.2326   68.5903  225.6025 H   0  0  0  0  0  0  0  0  0  0  0  0
  141.2256   68.1463  226.1342 H   0  0  0  0  0  0  0  0  0  0  0  0
  142.4694   69.4136  226.3710 H   0  0  0  0  0  0  0  0  0  0  0  0
  140.6022   68.2552  228.2560 H   0  0  0  0  0  0  0  0  0  0  0  0
  142.0251   69.3808  228.5126 H   0  0  0  0  0  0  0  0  0  0  0  0
  139.9833   72.2574  228.1755 H   0  0  0  0  0  0  0  0  0  0  0  0
  141.6715   71.7008  228.3256 H   0  0  0  0  0  0  0  0  0  0  0  0
  140.0526   72.0966  225.9523 H   0  0  0  0  0  0  0  0  0  0  0  0
  141.8312   71.6784  226.1239 H   0  0  0  0  0  0  0  0  0  0  0  0
  140.0826   71.3609  223.8381 H   0  0  0  0  0  0  0  0  0  0  0  0
  141.1373   72.3384  219.4423 H   0  0  0  0  0  0  0  0  0  0  0  0
  141.8947   73.4973  218.2814 H   0  0  0  0  0  0  0  0  0  0  0  0
  143.1435   71.5219  219.9259 H   0  0  0  0  0  0  0  0  0  0  0  0
  143.7593   72.0580  217.6471 H   0  0  0  0  0  0  0  0  0  0  0  0
  144.3246   73.6852  218.1761 H   0  0  0  0  0  0  0  0  0  0  0  0
  145.4581   70.9544  218.9397 H   0  0  0  0  0  0  0  0  0  0  0  0
  146.2759   72.3043  218.0666 H   0  0  0  0  0  0  0  0  0  0  0  0
  145.9180   71.8780  220.8700 H   0  0  0  0  0  0  0  0  0  0  0  0
  145.7034   74.2430  221.3583 H   0  0  0  0  0  0  0  0  0  0  0  0
  145.2360   74.4807  219.6447 H   0  0  0  0  0  0  0  0  0  0  0  0
  143.8491   72.7120  221.7047 H   0  0  0  0  0  0  0  0  0  0  0  0
  143.2302   74.2435  220.9969 H   0  0  0  0  0  0  0  0  0  0  0  0
  1  2  2  0
  2  3  1  0
  3  4  2  0
  4  5  1  0
  5  6  2  0
  6  7  1  0
  7  8  2  0
  8  9  1  0
  9 10  2  0
 10 11  1  0
 11 12  2  0
 12 13  1  0
 13 14  2  0
 14 15  1  0
 15 16  2  0
 16 17  1  0
 17 18  1  0
 18 19  1  0
 19 20  1  0
 20 21  1  0
 21 22  1  0
 22 23  1  0
 23 24  1  0
 17 25  2  0
 10 26  1  0
 26 27  1  0
 27 28  1  0
 28 29  1  0
 29 30  1  0
 30 31  1  0
 31 32  1  0
 32 33  1  0
 26  2  1  0
 33 28  1  0
  8  3  1  0
 25 13  1  0
 24 19  1  0
  4 34  1  0
  5 35  1  0
  6 36  1  0
  7 37  1  0
 11 38  1  0
 12 39  1  0
 14 40  1  0
 15 41  1  0
 16 42  1  0
 18 43  1  0
 18 44  1  0
 20 45  1  0
 20 46  1  0
 21 47  1  0
 21 48  1  0
 23 49  1  0
 23 50  1  0
 24 51  1  0
 24 52  1  0
 25 53  1  0
 27 54  1  0
 27 55  1  0
 28 56  1  0
 29 57  1  0
 29 58  1  0
 30 59  1  0
 30 60  1  0
 31 61  1  0
 32 62  1  0
 32 63  1  0
 33 64  1  0
 33 65  1  0
M  END
>  <smiles>  (48) 
O=c1c2ccccc2nc(/C=C/c2cccc(CN3CCOCC3)c2)n1CC1CCNCC1

>  <score_type>  (48) 
oracle

>  <origin>  (48) 
autodockgpu

>  <m_score__min__energy>  (48) 
-9.6400000000000006

>  <m_primary>  (48) 
energy

>  <rmsd>  (48) 
7.8025988332614995

>  <m_score__min__rmsd>  (48) 
7.8025988332614995

>  <meeko>  (48) 
{"free_energy": -8.53, "intermolecular_energy": -10.62, "internal_energy": -1.44, "cluster_size": 18, "cluster_id": 1, "rank_in_cluster": 16}

>  <energy>  (48) 
-6.87

>  <cluster_rmsd>  (48) 
0.0

>  <cluster>  (48) 
12

$$$$

     RDKit          3D

 65 69  0  0  0  0  0  0  0  0999 V2000
  141.0410   71.5340  224.6400 O   0  0  0  0  0  0  0  0  0  0  0  0
  140.3030   70.5120  224.6930 C   0  0  0  0  0  0  0  0  0  0  0  0
  140.3250   69.8300  225.9100 C   0  0  0  0  0  0  0  0  0  0  0  0
  141.0980   70.2500  226.9690 C   0  0  0  0  0  0  0  0  0  0  0  0
  141.0990   69.5520  228.1650 C   0  0  0  0  0  0  0  0  0  0  0  0
  140.3150   68.4230  228.2940 C   0  0  0  0  0  0  0  0  0  0  0  0
  139.5330   67.9960  227.2250 C   0  0  0  0  0  0  0  0  0  0  0  0
  139.5500   68.7070  226.0500 C   0  0  0  0  0  0  0  0  0  0  0  0
  138.8120   68.3320  224.9950 N   0  0  0  0  0  0  0  0  0  0  0  0
  138.7960   68.9960  223.8260 C   0  0  0  0  0  0  0  0  0  0  0  0
  137.9320   68.4590  222.7590 C   0  0  0  0  0  0  0  0  0  0  0  0
  136.6370   68.3260  222.9610 C   0  0  0  0  0  0  0  0  0  0  0  0
  135.8470   69.1760  223.8350 C   0  0  0  0  0  0  0  0  0  0  0  0
  134.9000   68.7060  224.7180 C   0  0  0  0  0  0  0  0  0  0  0  0
  134.1730   69.5470  225.5350 C   0  0  0  0  0  0  0  0  0  0  0  0
  134.3580   70.9140  225.5070 C   0  0  0  0  0  0  0  0  0  0  0  0
  135.3000   71.3950  224.6290 C   0  0  0  0  0  0  0  0  0  0  0  0
  135.5080   72.8690  224.5960 C   0  0  0  0  0  0  0  0  0  0  0  0
  134.3030   73.6320  224.5430 N   0  0  0  0  0  0  0  0  0  0  0  0
  133.9440   73.9790  223.1810 C   0  0  0  0  0  0  0  0  0  0  0  0
  134.9060   75.0070  222.6770 C   0  0  0  0  0  0  0  0  0  0  0  0
  135.7500   75.5050  223.6370 O   0  0  0  0  0  0  0  0  0  0  0  0
  135.0590   75.9770  224.7540 C   0  0  0  0  0  0  0  0  0  0  0  0
  134.2770   74.8220  225.3330 C   0  0  0  0  0  0  0  0  0  0  0  0
  136.0290   70.5550  223.8120 C   0  0  0  0  0  0  0  0  0  0  0  0
  139.5430   70.1000  223.6560 N   0  0  0  0  0  0  0  0  0  0  0  0
  139.5490   70.8190  222.4050 C   0  0  0  0  0  0  0  0  0  0  0  0
  139.1380   72.2670  222.6120 C   0  0  0  0  0  0  0  0  0  0  0  0
  140.0200   73.2160  221.8580 C   0  0  0  0  0  0  0  0  0  0  0  0
  139.5860   74.6580  222.1150 C   0  0  0  0  0  0  0  0  0  0  0  0
  138.1520   74.7900  221.9650 N   0  0  0  0  0  0  0  0  0  0  0  0
  137.5910   73.6380  221.2890 C   0  0  0  0  0  0  0  0  0  0  0  0
  137.7060   72.4450  222.1890 C   0  0  0  0  0  0  0  0  0  0  0  0
  141.7217   71.1500  226.8639 H   0  0  0  0  0  0  0  0  0  0  0  0
  141.7198   69.8946  229.0060 H   0  0  0  0  0  0  0  0  0  0  0  0
  140.3085   67.8619  229.2401 H   0  0  0  0  0  0  0  0  0  0  0  0
  138.9066   67.0968  227.3202 H   0  0  0  0  0  0  0  0  0  0  0  0
  138.3695   68.1688  221.7924 H   0  0  0  0  0  0  0  0  0  0  0  0
  136.1174   67.5144  222.4307 H   0  0  0  0  0  0  0  0  0  0  0  0
  134.7171   67.6227  224.7736 H   0  0  0  0  0  0  0  0  0  0  0  0
  133.4299   69.1185  226.2236 H   0  0  0  0  0  0  0  0  0  0  0  0
  133.7791   71.5871  226.1565 H   0  0  0  0  0  0  0  0  0  0  0  0
  136.0598   73.1593  225.5023 H   0  0  0  0  0  0  0  0  0  0  0  0
  136.0601   73.0882  223.6702 H   0  0  0  0  0  0  0  0  0  0  0  0
  133.9941   73.0825  222.5455 H   0  0  0  0  0  0  0  0  0  0  0  0
  132.9201   74.3800  223.1546 H   0  0  0  0  0  0  0  0  0  0  0  0
  135.5164   74.5493  221.8846 H   0  0  0  0  0  0  0  0  0  0  0  0
  134.3038   75.8534  222.3153 H   0  0  0  0  0  0  0  0  0  0  0  0
  135.7706   76.3592  225.5007 H   0  0  0  0  0  0  0  0  0  0  0  0
  134.3821   76.7963  224.4701 H   0  0  0  0  0  0  0  0  0  0  0  0
  134.6951   74.5862  226.3227 H   0  0  0  0  0  0  0  0  0  0  0  0
  133.2266   75.1460  225.3750 H   0  0  0  0  0  0  0  0  0  0  0  0
  136.7724   70.9865  223.1256 H   0  0  0  0  0  0  0  0  0  0  0  0
  140.5619   70.7894  221.9771 H   0  0  0  0  0  0  0  0  0  0  0  0
  138.8302   70.3431  221.7218 H   0  0  0  0  0  0  0  0  0  0  0  0
  139.2465   72.5011  223.6813 H   0  0  0  0  0  0  0  0  0  0  0  0
  141.0608   73.0855  222.1891 H   0  0  0  0  0  0  0  0  0  0  0  0
  139.9384   73.0033  220.7819 H   0  0  0  0  0  0  0  0  0  0  0  0
  139.8710   74.9450  223.1380 H   0  0  0  0  0  0  0  0  0  0  0  0
  140.0821   75.3145  221.3850 H   0  0  0  0  0  0  0  0  0  0  0  0
  137.6950   74.8880  222.8990 H   0  0  0  0  0  0  0  0  0  0  0  0
  136.5322   73.8251  221.0570 H   0  0  0  0  0  0  0  0  0  0  0  0
  138.1367   73.4527  220.3520 H   0  0  0  0  0  0  0  0  0  0  0  0
  137.0777   72.5963  223.0791 H   0  0  0  0  0  0  0  0  0  0  0  0
  137.3707   71.5471  221.6492 H   0  0  0  0  0  0  0  0  0  0  0  0
  1  2  2  0
  2  3  1  0
  3  4  2  0
  4  5  1  0
  5  6  2  0
  6  7  1  0
  7  8  2  0
  8  9  1  0
  9 10  2  0
 10 11  1  0
 11 12  2  0
 12 13  1  0
 13 14  2  0
 14 15  1  0
 15 16  2  0
 16 17  1  0
 17 18  1  0
 18 19  1  0
 19 20  1  0
 20 21  1  0
 21 22  1  0
 22 23  1  0
 23 24  1  0
 17 25  2  0
 10 26  1  0
 26 27  1  0
 27 28  1  0
 28 29  1  0
 29 30  1  0
 30 31  1  0
 31 32  1  0
 32 33  1  0
 26  2  1  0
 33 28  1  0
  8  3  1  0
 25 13  1  0
 24 19  1  0
  4 34  1  0
  5 35  1  0
  6 36  1  0
  7 37  1  0
 11 38  1  0
 12 39  1  0
 14 40  1  0
 15 41  1  0
 16 42  1  0
 18 43  1  0
 18 44  1  0
 20 45  1  0
 20 46  1  0
 21 47  1  0
 21 48  1  0
 23 49  1  0
 23 50  1  0
 24 51  1  0
 24 52  1  0
 25 53  1  0
 27 54  1  0
 27 55  1  0
 28 56  1  0
 29 57  1  0
 29 58  1  0
 30 59  1  0
 30 60  1  0
 31 61  1  0
 32 62  1  0
 32 63  1  0
 33 64  1  0
 33 65  1  0
M  END
>  <smiles>  (49) 
O=c1c2ccccc2nc(/C=C/c2cccc(CN3CCOCC3)c2)n1CC1CCNCC1

>  <score_type>  (49) 
oracle

>  <origin>  (49) 
autodockgpu

>  <m_score__min__energy>  (49) 
-9.6400000000000006

>  <m_primary>  (49) 
energy

>  <rmsd>  (49) 
9.701186508735514

>  <m_score__min__rmsd>  (49) 
9.701186508735514

>  <meeko>  (49) 
{"free_energy": -6.76, "intermolecular_energy": -8.85, "internal_energy": -3.25, "cluster_size": 1, "cluster_id": 13, "rank_in_cluster": 1}

>  <energy>  (49) 
-5.91

>  <cluster_rmsd>  (49) 
1.91

>  <cluster>  (49) 
12

$$$$

     RDKit          3D

 65 69  0  0  0  0  0  0  0  0999 V2000
  142.6360   77.4910  219.0870 O   0  0  0  0  0  0  0  0  0  0  0  0
  142.0470   76.9810  220.0790 C   0  0  0  0  0  0  0  0  0  0  0  0
  141.6030   77.8930  221.0360 C   0  0  0  0  0  0  0  0  0  0  0  0
  141.7960   79.2500  220.8970 C   0  0  0  0  0  0  0  0  0  0  0  0
  141.3430   80.1320  221.8640 C   0  0  0  0  0  0  0  0  0  0  0  0
  140.6900   79.6420  222.9780 C   0  0  0  0  0  0  0  0  0  0  0  0
  140.4940   78.2720  223.1210 C   0  0  0  0  0  0  0  0  0  0  0  0
  140.9530   77.4190  222.1470 C   0  0  0  0  0  0  0  0  0  0  0  0
  140.7850   76.0920  222.2440 N   0  0  0  0  0  0  0  0  0  0  0  0
  141.2160   75.2200  221.3160 C   0  0  0  0  0  0  0  0  0  0  0  0
  140.9560   73.7910  221.5650 C   0  0  0  0  0  0  0  0  0  0  0  0
  139.7690   73.2800  221.3070 C   0  0  0  0  0  0  0  0  0  0  0  0
  138.9320   72.6040  222.2820 C   0  0  0  0  0  0  0  0  0  0  0  0
  137.5580   72.6960  222.3160 C   0  0  0  0  0  0  0  0  0  0  0  0
  136.7970   72.0350  223.2580 C   0  0  0  0  0  0  0  0  0  0  0  0
  137.3810   71.2410  224.2250 C   0  0  0  0  0  0  0  0  0  0  0  0
  138.7520   71.1420  224.2020 C   0  0  0  0  0  0  0  0  0  0  0  0
  139.3880   70.2840  225.2390 C   0  0  0  0  0  0  0  0  0  0  0  0
  140.7440   70.6220  225.5310 N   0  0  0  0  0  0  0  0  0  0  0  0
  141.4480   69.5250  226.1680 C   0  0  0  0  0  0  0  0  0  0  0  0
  140.9300   69.3650  227.5610 C   0  0  0  0  0  0  0  0  0  0  0  0
  140.0860   70.3670  227.9660 O   0  0  0  0  0  0  0  0  0  0  0  0
  140.6440   71.6330  227.7860 C   0  0  0  0  0  0  0  0  0  0  0  0
  140.9420   71.8000  226.3150 C   0  0  0  0  0  0  0  0  0  0  0  0
  139.5140   71.8030  223.2590 C   0  0  0  0  0  0  0  0  0  0  0  0
  141.8560   75.6510  220.2160 N   0  0  0  0  0  0  0  0  0  0  0  0
  142.3370   74.7300  219.2150 C   0  0  0  0  0  0  0  0  0  0  0  0
  143.8450   74.5680  219.3090 C   0  0  0  0  0  0  0  0  0  0  0  0
  144.2570   73.8510  220.5600 C   0  0  0  0  0  0  0  0  0  0  0  0
  145.7790   73.7340  220.6240 C   0  0  0  0  0  0  0  0  0  0  0  0
  146.3040   73.2620  219.3600 N   0  0  0  0  0  0  0  0  0  0  0  0
  145.2500   72.7130  218.5320 C   0  0  0  0  0  0  0  0  0  0  0  0
  144.3430   73.8250  218.1000 C   0  0  0  0  0  0  0  0  0  0  0  0
  142.3156   79.6373  220.0082 H   0  0  0  0  0  0  0  0  0  0  0  0
  141.5020   81.2140  221.7457 H   0  0  0  0  0  0  0  0  0  0  0  0
  140.3253   80.3341  223.7513 H   0  0  0  0  0  0  0  0  0  0  0  0
  139.9759   77.8753  224.0065 H   0  0  0  0  0  0  0  0  0  0  0  0
  141.7542   73.1497  221.9670 H   0  0  0  0  0  0  0  0  0  0  0  0
  139.3851   73.3721  220.2803 H   0  0  0  0  0  0  0  0  0  0  0  0
  137.0494   73.3187  221.5653 H   0  0  0  0  0  0  0  0  0  0  0  0
  135.7025   72.1427  223.2383 H   0  0  0  0  0  0  0  0  0  0  0  0
  136.7778   70.7127  224.9781 H   0  0  0  0  0  0  0  0  0  0  0  0
  138.8033   70.3739  226.1664 H   0  0  0  0  0  0  0  0  0  0  0  0
  139.3983   69.2600  224.8373 H   0  0  0  0  0  0  0  0  0  0  0  0
  141.2777   68.5977  225.6014 H   0  0  0  0  0  0  0  0  0  0  0  0
  142.5271   69.7371  226.1924 H   0  0  0  0  0  0  0  0  0  0  0  0
  140.3855   68.4110  227.6190 H   0  0  0  0  0  0  0  0  0  0  0  0
  141.8036   69.3988  228.2286 H   0  0  0  0  0  0  0  0  0  0  0  0
  139.9330   72.4056  228.1140 H   0  0  0  0  0  0  0  0  0  0  0  0
  141.5647   71.7355  228.3791 H   0  0  0  0  0  0  0  0  0  0  0  0
  140.2863   72.5897  225.9195 H   0  0  0  0  0  0  0  0  0  0  0  0
  142.0108   72.0490  226.2395 H   0  0  0  0  0  0  0  0  0  0  0  0
  140.6083   71.6934  223.2810 H   0  0  0  0  0  0  0  0  0  0  0  0
  141.8592   73.7509  219.3668 H   0  0  0  0  0  0  0  0  0  0  0  0
  142.0871   75.1287  218.2207 H   0  0  0  0  0  0  0  0  0  0  0  0
  144.2932   75.5719  219.3456 H   0  0  0  0  0  0  0  0  0  0  0  0
  143.8986   74.4124  221.4354 H   0  0  0  0  0  0  0  0  0  0  0  0
  143.8192   72.8419  220.5561 H   0  0  0  0  0  0  0  0  0  0  0  0
  146.2090   74.7212  220.8488 H   0  0  0  0  0  0  0  0  0  0  0  0
  146.0481   73.0153  221.4121 H   0  0  0  0  0  0  0  0  0  0  0  0
  146.7670   74.0430  218.8440 H   0  0  0  0  0  0  0  0  0  0  0  0
  145.6895   72.2300  217.6468 H   0  0  0  0  0  0  0  0  0  0  0  0
  144.6784   71.9663  219.1028 H   0  0  0  0  0  0  0  0  0  0  0  0
  144.8965   74.5164  217.4476 H   0  0  0  0  0  0  0  0  0  0  0  0
  143.4872   73.4059  217.5505 H   0  0  0  0  0  0  0  0  0  0  0  0
  1  2  2  0
  2  3  1  0
  3  4  2  0
  4  5  1  0
  5  6  2  0
  6  7  1  0
  7  8  2  0
  8  9  1  0
  9 10  2  0
 10 11  1  0
 11 12  2  0
 12 13  1  0
 13 14  2  0
 14 15  1  0
 15 16  2  0
 16 17  1  0
 17 18  1  0
 18 19  1  0
 19 20  1  0
 20 21  1  0
 21 22  1  0
 22 23  1  0
 23 24  1  0
 17 25  2  0
 10 26  1  0
 26 27  1  0
 27 28  1  0
 28 29  1  0
 29 30  1  0
 30 31  1  0
 31 32  1  0
 32 33  1  0
 26  2  1  0
 33 28  1  0
  8  3  1  0
 25 13  1  0
 24 19  1  0
  4 34  1  0
  5 35  1  0
  6 36  1  0
  7 37  1  0
 11 38  1  0
 12 39  1  0
 14 40  1  0
 15 41  1  0
 16 42  1  0
 18 43  1  0
 18 44  1  0
 20 45  1  0
 20 46  1  0
 21 47  1  0
 21 48  1  0
 23 49  1  0
 23 50  1  0
 24 51  1  0
 24 52  1  0
 25 53  1  0
 27 54  1  0
 27 55  1  0
 28 56  1  0
 29 57  1  0
 29 58  1  0
 30 59  1  0
 30 60  1  0
 31 61  1  0
 32 62  1  0
 32 63  1  0
 33 64  1  0
 33 65  1  0
M  END
>  <smiles>  (50) 
O=c1c2ccccc2nc(/C=C/c2cccc(CN3CCOCC3)c2)n1CC1CCNCC1

>  <score_type>  (50) 
oracle

>  <origin>  (50) 
autodockgpu

>  <m_score__min__energy>  (50) 
-9.6400000000000006

>  <m_primary>  (50) 
energy

>  <rmsd>  (50) 
7.580384336532786

>  <m_score__min__rmsd>  (50) 
7.580384336532786

>  <meeko>  (50) 
{"free_energy": -9.29, "intermolecular_energy": -11.38, "internal_energy": -1.58, "cluster_size": 18, "cluster_id": 1, "rank_in_cluster": 10}

>  <energy>  (50) 
-6.76

>  <cluster_rmsd>  (50) 
0.0

>  <cluster>  (50) 
13

$$$$
