
     RDKit          3D

 45 48  0  0  0  0  0  0  0  0999 V2000
  142.8030   77.4460  219.6200 O   0  0  0  0  0  0  0  0  0  0  0  0
  141.9510   77.0850  220.4730 C   0  0  0  0  0  0  0  0  0  0  0  0
  141.6190   78.0380  221.4300 C   0  0  0  0  0  0  0  0  0  0  0  0
  142.2000   79.2900  221.4220 C   0  0  0  0  0  0  0  0  0  0  0  0
  141.8510   80.2200  222.3880 C   0  0  0  0  0  0  0  0  0  0  0  0
  140.9250   79.8900  223.3510 C   0  0  0  0  0  0  0  0  0  0  0  0
  140.3250   78.6430  223.3870 C   0  0  0  0  0  0  0  0  0  0  0  0
  140.6920   77.7470  222.4180 C   0  0  0  0  0  0  0  0  0  0  0  0
  140.1570   76.5150  222.3810 N   0  0  0  0  0  0  0  0  0  0  0  0
  140.4940   75.6100  221.4450 C   0  0  0  0  0  0  0  0  0  0  0  0
  139.8470   74.3000  221.5470 C   0  0  0  0  0  0  0  0  0  0  0  0
  140.5010   73.2510  222.0040 C   0  0  0  0  0  0  0  0  0  0  0  0
  139.9390   72.2670  222.9120 C   0  0  0  0  0  0  0  0  0  0  0  0
  138.6970   71.7140  222.7920 C   0  0  0  0  0  0  0  0  0  0  0  0
  138.2110   70.7770  223.6880 C   0  0  0  0  0  0  0  0  0  0  0  0
  138.9710   70.3550  224.7590 C   0  0  0  0  0  0  0  0  0  0  0  0
  140.2280   70.9010  224.8980 C   0  0  0  0  0  0  0  0  0  0  0  0
  140.7040   71.8340  224.0010 C   0  0  0  0  0  0  0  0  0  0  0  0
  141.3870   75.8480  220.4670 N   0  0  0  0  0  0  0  0  0  0  0  0
  141.7420   74.9150  219.4410 C   0  0  0  0  0  0  0  0  0  0  0  0
  142.8330   73.9740  219.7980 C   0  0  0  0  0  0  0  0  0  0  0  0
  142.6640   72.6280  220.0020 C   0  0  0  0  0  0  0  0  0  0  0  0
  143.7250   71.7800  220.3430 C   0  0  0  0  0  0  0  0  0  0  0  0
  145.0020   72.2710  220.4910 C   0  0  0  0  0  0  0  0  0  0  0  0
  145.1870   73.6180  220.2890 C   0  0  0  0  0  0  0  0  0  0  0  0
  146.4820   74.1370  220.4340 O   0  0  0  0  0  0  0  0  0  0  0  0
  144.1360   74.4580  219.9500 C   0  0  0  0  0  0  0  0  0  0  0  0
  142.9392   79.5491  220.6497 H   0  0  0  0  0  0  0  0  0  0  0  0
  142.3125   81.2185  222.3851 H   0  0  0  0  0  0  0  0  0  0  0  0
  140.6545   80.6367  224.1121 H   0  0  0  0  0  0  0  0  0  0  0  0
  139.5863   78.3831  224.1595 H   0  0  0  0  0  0  0  0  0  0  0  0
  138.7974   74.1898  221.2369 H   0  0  0  0  0  0  0  0  0  0  0  0
  141.5416   73.1116  221.6758 H   0  0  0  0  0  0  0  0  0  0  0  0
  138.0582   72.0243  221.9520 H   0  0  0  0  0  0  0  0  0  0  0  0
  137.2024   70.3624  223.5434 H   0  0  0  0  0  0  0  0  0  0  0  0
  138.5883   69.6117  225.4739 H   0  0  0  0  0  0  0  0  0  0  0  0
  140.8633   70.5872  225.7394 H   0  0  0  0  0  0  0  0  0  0  0  0
  141.7124   72.2492  224.1454 H   0  0  0  0  0  0  0  0  0  0  0  0
  140.8483   74.3232  219.1940 H   0  0  0  0  0  0  0  0  0  0  0  0
  142.1166   75.5137  218.5977 H   0  0  0  0  0  0  0  0  0  0  0  0
  141.6571   72.1986  219.8936 H   0  0  0  0  0  0  0  0  0  0  0  0
  143.5351   70.7072  220.4946 H   0  0  0  0  0  0  0  0  0  0  0  0
  145.8408   71.6122  220.7601 H   0  0  0  0  0  0  0  0  0  0  0  0
  146.8170   74.8390  219.7900 H   0  0  0  0  0  0  0  0  0  0  0  0
  144.3324   75.5295  219.7973 H   0  0  0  0  0  0  0  0  0  0  0  0
  1  2  2  0
  2  3  1  0
  3  4  2  0
  4  5  1  0
  5  6  2  0
  6  7  1  0
  7  8  2  0
  8  9  1  0
  9 10  2  0
 10 11  1  0
 11 12  2  0
 12 13  1  0
 13 14  2  0
 14 15  1  0
 15 16  2  0
 16 17  1  0
 17 18  2  0
 10 19  1  0
 19 20  1  0
 20 21  1  0
 21 22  2  0
 22 23  1  0
 23 24  2  0
 24 25  1  0
 25 26  1  0
 25 27  2  0
 19  2  1  0
 27 21  1  0
  8  3  1  0
 18 13  1  0
  4 28  1  0
  5 29  1  0
  6 30  1  0
  7 31  1  0
 11 32  1  0
 12 33  1  0
 14 34  1  0
 15 35  1  0
 16 36  1  0
 17 37  1  0
 18 38  1  0
 20 39  1  0
 20 40  1  0
 22 41  1  0
 23 42  1  0
 24 43  1  0
 26 44  1  0
 27 45  1  0
M  END
>  <smiles>  (1) 
O=c1c2ccccc2nc(/C=C/c2ccccc2)n1Cc1cccc(O)c1

>  <score_type>  (1) 
oracle

>  <origin>  (1) 
autodockgpu

>  <m_score__min__energy>  (1) 
-8.5899999999999999

>  <m_primary>  (1) 
energy

>  <rmsd>  (1) 
7.653260260016841

>  <m_score__min__rmsd>  (1) 
7.653260260016841

>  <meeko>  (1) 
{"free_energy": -7.0, "intermolecular_energy": -8.79, "internal_energy": -1.08, "cluster_size": 1, "cluster_id": 6, "rank_in_cluster": 1}

>  <energy>  (1) 
-8.59

>  <cluster_rmsd>  (1) 
0.0

>  <cluster>  (1) 
1

$$$$

     RDKit          3D

 45 48  0  0  0  0  0  0  0  0999 V2000
  138.8750   68.1460  225.0460 O   0  0  0  0  0  0  0  0  0  0  0  0
  139.3580   69.2960  224.8810 C   0  0  0  0  0  0  0  0  0  0  0  0
  139.9210   69.8780  226.0120 C   0  0  0  0  0  0  0  0  0  0  0  0
  139.9360   69.2170  227.2230 C   0  0  0  0  0  0  0  0  0  0  0  0
  140.5030   69.8210  228.3340 C   0  0  0  0  0  0  0  0  0  0  0  0
  141.0490   71.0790  228.2240 C   0  0  0  0  0  0  0  0  0  0  0  0
  141.0490   71.7690  227.0230 C   0  0  0  0  0  0  0  0  0  0  0  0
  140.4810   71.1440  225.9450 C   0  0  0  0  0  0  0  0  0  0  0  0
  140.4410   71.7440  224.7440 N   0  0  0  0  0  0  0  0  0  0  0  0
  139.8910   71.1610  223.6640 C   0  0  0  0  0  0  0  0  0  0  0  0
  139.8970   71.9470  222.4280 C   0  0  0  0  0  0  0  0  0  0  0  0
  140.7060   71.6430  221.4320 C   0  0  0  0  0  0  0  0  0  0  0  0
  141.9010   72.3930  221.0900 C   0  0  0  0  0  0  0  0  0  0  0  0
  143.1530   71.8600  220.9790 C   0  0  0  0  0  0  0  0  0  0  0  0
  144.2590   72.6240  220.6480 C   0  0  0  0  0  0  0  0  0  0  0  0
  144.1450   73.9780  220.4130 C   0  0  0  0  0  0  0  0  0  0  0  0
  142.8900   74.5360  220.5200 C   0  0  0  0  0  0  0  0  0  0  0  0
  141.7930   73.7680  220.8490 C   0  0  0  0  0  0  0  0  0  0  0  0
  139.3370   69.9350  223.6810 N   0  0  0  0  0  0  0  0  0  0  0  0
  138.7720   69.2770  222.5410 C   0  0  0  0  0  0  0  0  0  0  0  0
  137.2930   69.3480  222.4450 C   0  0  0  0  0  0  0  0  0  0  0  0
  136.6030   70.3240  221.7720 C   0  0  0  0  0  0  0  0  0  0  0  0
  135.2040   70.3520  221.7130 C   0  0  0  0  0  0  0  0  0  0  0  0
  134.4520   69.3850  222.3400 C   0  0  0  0  0  0  0  0  0  0  0  0
  135.1290   68.4000  223.0180 C   0  0  0  0  0  0  0  0  0  0  0  0
  134.3800   67.4050  223.6630 O   0  0  0  0  0  0  0  0  0  0  0  0
  136.5150   68.3720  223.0760 C   0  0  0  0  0  0  0  0  0  0  0  0
  139.4982   68.2113  227.3066 H   0  0  0  0  0  0  0  0  0  0  0  0
  140.5165   69.2963  229.3007 H   0  0  0  0  0  0  0  0  0  0  0  0
  141.4968   71.5487  229.1122 H   0  0  0  0  0  0  0  0  0  0  0  0
  141.4861   72.7749  226.9388 H   0  0  0  0  0  0  0  0  0  0  0  0
  139.2156   72.8048  222.3290 H   0  0  0  0  0  0  0  0  0  0  0  0
  140.4591   70.7630  220.8199 H   0  0  0  0  0  0  0  0  0  0  0  0
  143.2880   70.7833  221.1593 H   0  0  0  0  0  0  0  0  0  0  0  0
  145.2452   72.1429  220.5712 H   0  0  0  0  0  0  0  0  0  0  0  0
  145.0216   74.5885  220.1504 H   0  0  0  0  0  0  0  0  0  0  0  0
  142.7607   75.6134  220.3398 H   0  0  0  0  0  0  0  0  0  0  0  0
  140.8064   74.2486  220.9241 H   0  0  0  0  0  0  0  0  0  0  0  0
  139.1952   69.7381  221.6364 H   0  0  0  0  0  0  0  0  0  0  0  0
  139.0224   68.2110  222.6459 H   0  0  0  0  0  0  0  0  0  0  0  0
  137.1701   71.1148  221.2591 H   0  0  0  0  0  0  0  0  0  0  0  0
  134.6999   71.1572  221.1584 H   0  0  0  0  0  0  0  0  0  0  0  0
  133.3528   69.3999  222.3000 H   0  0  0  0  0  0  0  0  0  0  0  0
  134.6610   66.4390  223.5920 H   0  0  0  0  0  0  0  0  0  0  0  0
  137.0134   67.5636  223.6310 H   0  0  0  0  0  0  0  0  0  0  0  0
  1  2  2  0
  2  3  1  0
  3  4  2  0
  4  5  1  0
  5  6  2  0
  6  7  1  0
  7  8  2  0
  8  9  1  0
  9 10  2  0
 10 11  1  0
 11 12  2  0
 12 13  1  0
 13 14  2  0
 14 15  1  0
 15 16  2  0
 16 17  1  0
 17 18  2  0
 10 19  1  0
 19 20  1  0
 20 21  1  0
 21 22  2  0
 22 23  1  0
 23 24  2  0
 24 25  1  0
 25 26  1  0
 25 27  2  0
 19  2  1  0
 27 21  1  0
  8  3  1  0
 18 13  1  0
  4 28  1  0
  5 29  1  0
  6 30  1  0
  7 31  1  0
 11 32  1  0
 12 33  1  0
 14 34  1  0
 15 35  1  0
 16 36  1  0
 17 37  1  0
 18 38  1  0
 20 39  1  0
 20 40  1  0
 22 41  1  0
 23 42  1  0
 24 43  1  0
 26 44  1  0
 27 45  1  0
M  END
>  <smiles>  (2) 
O=c1c2ccccc2nc(/C=C/c2ccccc2)n1Cc1cccc(O)c1

>  <score_type>  (2) 
oracle

>  <origin>  (2) 
autodockgpu

>  <m_score__min__energy>  (2) 
-8.5899999999999999

>  <m_primary>  (2) 
energy

>  <rmsd>  (2) 
11.94643746351405

>  <m_score__min__rmsd>  (2) 
11.94643746351405

>  <meeko>  (2) 
{"free_energy": -7.3, "intermolecular_energy": -9.09, "internal_energy": -1.05, "cluster_size": 2, "cluster_id": 3, "rank_in_cluster": 1}

>  <energy>  (2) 
-8.36

>  <cluster_rmsd>  (2) 
0.29

>  <cluster>  (2) 
1

$$$$

     RDKit          3D

 45 48  0  0  0  0  0  0  0  0999 V2000
  140.3250   71.9090  225.1370 O   0  0  0  0  0  0  0  0  0  0  0  0
  139.7260   70.8020  225.1020 C   0  0  0  0  0  0  0  0  0  0  0  0
  140.0250   69.9260  226.1380 C   0  0  0  0  0  0  0  0  0  0  0  0
  140.9230   70.2700  227.1280 C   0  0  0  0  0  0  0  0  0  0  0  0
  141.2030   69.3760  228.1500 C   0  0  0  0  0  0  0  0  0  0  0  0
  140.5830   68.1470  228.1710 C   0  0  0  0  0  0  0  0  0  0  0  0
  139.6780   67.7720  227.1930 C   0  0  0  0  0  0  0  0  0  0  0  0
  139.4240   68.6780  226.1980 C   0  0  0  0  0  0  0  0  0  0  0  0
  138.5590   68.3920  225.2110 N   0  0  0  0  0  0  0  0  0  0  0  0
  138.2850   69.2580  224.2180 C   0  0  0  0  0  0  0  0  0  0  0  0
  137.3400   68.7980  223.1980 C   0  0  0  0  0  0  0  0  0  0  0  0
  136.0390   68.9090  223.3770 C   0  0  0  0  0  0  0  0  0  0  0  0
  135.4160   69.8230  224.3180 C   0  0  0  0  0  0  0  0  0  0  0  0
  135.3040   71.1720  224.1380 C   0  0  0  0  0  0  0  0  0  0  0  0
  134.6990   71.9970  225.0710 C   0  0  0  0  0  0  0  0  0  0  0  0
  134.1760   71.4880  226.2410 C   0  0  0  0  0  0  0  0  0  0  0  0
  134.2800   70.1290  226.4420 C   0  0  0  0  0  0  0  0  0  0  0  0
  134.8840   69.3130  225.5080 C   0  0  0  0  0  0  0  0  0  0  0  0
  138.8430   70.4780  224.1200 N   0  0  0  0  0  0  0  0  0  0  0  0
  138.5480   71.4310  223.0920 C   0  0  0  0  0  0  0  0  0  0  0  0
  139.7270   71.9290  222.3420 C   0  0  0  0  0  0  0  0  0  0  0  0
  140.6030   71.1320  221.6500 C   0  0  0  0  0  0  0  0  0  0  0  0
  141.7070   71.6490  220.9600 C   0  0  0  0  0  0  0  0  0  0  0  0
  141.9620   73.0020  220.9480 C   0  0  0  0  0  0  0  0  0  0  0  0
  141.0930   73.8130  221.6360 C   0  0  0  0  0  0  0  0  0  0  0  0
  141.3350   75.1950  221.6350 O   0  0  0  0  0  0  0  0  0  0  0  0
  139.9990   73.3010  222.3190 C   0  0  0  0  0  0  0  0  0  0  0  0
  141.4163   71.2529  227.1062 H   0  0  0  0  0  0  0  0  0  0  0  0
  141.9177   69.6476  228.9409 H   0  0  0  0  0  0  0  0  0  0  0  0
  140.8127   67.4449  228.9860 H   0  0  0  0  0  0  0  0  0  0  0  0
  139.1844   66.7892  227.2141 H   0  0  0  0  0  0  0  0  0  0  0  0
  137.7222   68.3527  222.2676 H   0  0  0  0  0  0  0  0  0  0  0  0
  135.3811   68.2665  222.7734 H   0  0  0  0  0  0  0  0  0  0  0  0
  135.7091   71.6195  223.2184 H   0  0  0  0  0  0  0  0  0  0  0  0
  134.6344   73.0776  224.8754 H   0  0  0  0  0  0  0  0  0  0  0  0
  133.6950   72.1409  226.9841 H   0  0  0  0  0  0  0  0  0  0  0  0
  133.8741   69.6867  227.3638 H   0  0  0  0  0  0  0  0  0  0  0  0
  134.9493   68.2325  225.7037 H   0  0  0  0  0  0  0  0  0  0  0  0
  137.8621   70.9574  222.3742 H   0  0  0  0  0  0  0  0  0  0  0  0
  138.1141   72.3056  223.5988 H   0  0  0  0  0  0  0  0  0  0  0  0
  140.4320   70.0455  221.6364 H   0  0  0  0  0  0  0  0  0  0  0  0
  142.3790   70.9652  220.4207 H   0  0  0  0  0  0  0  0  0  0  0  0
  142.8267   73.4166  220.4092 H   0  0  0  0  0  0  0  0  0  0  0  0
  142.2120   75.5510  221.9830 H   0  0  0  0  0  0  0  0  0  0  0  0
  139.3299   73.9902  222.8550 H   0  0  0  0  0  0  0  0  0  0  0  0
  1  2  2  0
  2  3  1  0
  3  4  2  0
  4  5  1  0
  5  6  2  0
  6  7  1  0
  7  8  2  0
  8  9  1  0
  9 10  2  0
 10 11  1  0
 11 12  2  0
 12 13  1  0
 13 14  2  0
 14 15  1  0
 15 16  2  0
 16 17  1  0
 17 18  2  0
 10 19  1  0
 19 20  1  0
 20 21  1  0
 21 22  2  0
 22 23  1  0
 23 24  2  0
 24 25  1  0
 25 26  1  0
 25 27  2  0
 19  2  1  0
 27 21  1  0
  8  3  1  0
 18 13  1  0
  4 28  1  0
  5 29  1  0
  6 30  1  0
  7 31  1  0
 11 32  1  0
 12 33  1  0
 14 34  1  0
 15 35  1  0
 16 36  1  0
 17 37  1  0
 18 38  1  0
 20 39  1  0
 20 40  1  0
 22 41  1  0
 23 42  1  0
 24 43  1  0
 26 44  1  0
 27 45  1  0
M  END
>  <smiles>  (3) 
O=c1c2ccccc2nc(/C=C/c2ccccc2)n1Cc1cccc(O)c1

>  <score_type>  (3) 
oracle

>  <origin>  (3) 
autodockgpu

>  <m_score__min__energy>  (3) 
-8.5899999999999999

>  <m_primary>  (3) 
energy

>  <rmsd>  (3) 
10.209063258363587

>  <m_score__min__rmsd>  (3) 
10.209063258363587

>  <meeko>  (3) 
{"free_energy": -7.17, "intermolecular_energy": -8.96, "internal_energy": -1.49, "cluster_size": 21, "cluster_id": 4, "rank_in_cluster": 15}

>  <energy>  (3) 
-8.29

>  <cluster_rmsd>  (3) 
0.35

>  <cluster>  (3) 
1

$$$$

     RDKit          3D

 45 48  0  0  0  0  0  0  0  0999 V2000
  140.2930   71.8750  224.9360 O   0  0  0  0  0  0  0  0  0  0  0  0
  139.7250   70.7530  224.9430 C   0  0  0  0  0  0  0  0  0  0  0  0
  140.0220   69.9360  226.0280 C   0  0  0  0  0  0  0  0  0  0  0  0
  140.8870   70.3530  227.0200 C   0  0  0  0  0  0  0  0  0  0  0  0
  141.1660   69.5190  228.0910 C   0  0  0  0  0  0  0  0  0  0  0  0
  140.5780   68.2760  228.1600 C   0  0  0  0  0  0  0  0  0  0  0  0
  139.7070   67.8290  227.1810 C   0  0  0  0  0  0  0  0  0  0  0  0
  139.4530   68.6770  226.1370 C   0  0  0  0  0  0  0  0  0  0  0  0
  138.6190   68.3190  225.1460 N   0  0  0  0  0  0  0  0  0  0  0  0
  138.3470   69.1280  224.1050 C   0  0  0  0  0  0  0  0  0  0  0  0
  137.4390   68.5920  223.0890 C   0  0  0  0  0  0  0  0  0  0  0  0
  136.1490   68.8630  223.1180 C   0  0  0  0  0  0  0  0  0  0  0  0
  135.4960   69.6280  224.1660 C   0  0  0  0  0  0  0  0  0  0  0  0
  134.9630   69.0950  225.3050 C   0  0  0  0  0  0  0  0  0  0  0  0
  134.3520   69.8720  226.2730 C   0  0  0  0  0  0  0  0  0  0  0  0
  134.2500   71.2410  226.1290 C   0  0  0  0  0  0  0  0  0  0  0  0
  134.7810   71.7980  224.9860 C   0  0  0  0  0  0  0  0  0  0  0  0
  135.3890   71.0160  224.0270 C   0  0  0  0  0  0  0  0  0  0  0  0
  138.8750   70.3560  223.9590 N   0  0  0  0  0  0  0  0  0  0  0  0
  138.5790   71.2490  222.8790 C   0  0  0  0  0  0  0  0  0  0  0  0
  139.7650   71.8550  222.2240 C   0  0  0  0  0  0  0  0  0  0  0  0
  140.6990   71.1550  221.5040 C   0  0  0  0  0  0  0  0  0  0  0  0
  141.8060   71.7710  220.9080 C   0  0  0  0  0  0  0  0  0  0  0  0
  142.0050   73.1290  221.0220 C   0  0  0  0  0  0  0  0  0  0  0  0
  141.0770   73.8430  221.7400 C   0  0  0  0  0  0  0  0  0  0  0  0
  141.2620   75.2280  221.8670 O   0  0  0  0  0  0  0  0  0  0  0  0
  139.9800   73.2330  222.3300 C   0  0  0  0  0  0  0  0  0  0  0  0
  141.3545   71.3469  226.9603 H   0  0  0  0  0  0  0  0  0  0  0  0
  141.8546   69.8488  228.8829 H   0  0  0  0  0  0  0  0  0  0  0  0
  140.8059   67.6217  229.0143 H   0  0  0  0  0  0  0  0  0  0  0  0
  139.2392   66.8351  227.2397 H   0  0  0  0  0  0  0  0  0  0  0  0
  137.8397   67.9528  222.2885 H   0  0  0  0  0  0  0  0  0  0  0  0
  135.5261   68.4848  222.2941 H   0  0  0  0  0  0  0  0  0  0  0  0
  135.0217   68.0073  225.4584 H   0  0  0  0  0  0  0  0  0  0  0  0
  133.9406   69.3907  227.1725 H   0  0  0  0  0  0  0  0  0  0  0  0
  133.7643   71.8623  226.8959 H   0  0  0  0  0  0  0  0  0  0  0  0
  134.7187   72.8859  224.8360 H   0  0  0  0  0  0  0  0  0  0  0  0
  135.8014   71.4967  223.1276 H   0  0  0  0  0  0  0  0  0  0  0  0
  138.0172   70.6888  222.1170 H   0  0  0  0  0  0  0  0  0  0  0  0
  138.0095   72.0824  223.3161 H   0  0  0  0  0  0  0  0  0  0  0  0
  140.5736   70.0681  221.3904 H   0  0  0  0  0  0  0  0  0  0  0  0
  142.5261   71.1625  220.3413 H   0  0  0  0  0  0  0  0  0  0  0  0
  142.8717   73.6216  220.5571 H   0  0  0  0  0  0  0  0  0  0  0  0
  142.1940   75.6060  221.9380 H   0  0  0  0  0  0  0  0  0  0  0  0
  139.2626   73.8470  222.8942 H   0  0  0  0  0  0  0  0  0  0  0  0
  1  2  2  0
  2  3  1  0
  3  4  2  0
  4  5  1  0
  5  6  2  0
  6  7  1  0
  7  8  2  0
  8  9  1  0
  9 10  2  0
 10 11  1  0
 11 12  2  0
 12 13  1  0
 13 14  2  0
 14 15  1  0
 15 16  2  0
 16 17  1  0
 17 18  2  0
 10 19  1  0
 19 20  1  0
 20 21  1  0
 21 22  2  0
 22 23  1  0
 23 24  2  0
 24 25  1  0
 25 26  1  0
 25 27  2  0
 19  2  1  0
 27 21  1  0
  8  3  1  0
 18 13  1  0
  4 28  1  0
  5 29  1  0
  6 30  1  0
  7 31  1  0
 11 32  1  0
 12 33  1  0
 14 34  1  0
 15 35  1  0
 16 36  1  0
 17 37  1  0
 18 38  1  0
 20 39  1  0
 20 40  1  0
 22 41  1  0
 23 42  1  0
 24 43  1  0
 26 44  1  0
 27 45  1  0
M  END
>  <smiles>  (4) 
O=c1c2ccccc2nc(/C=C/c2ccccc2)n1Cc1cccc(O)c1

>  <score_type>  (4) 
oracle

>  <origin>  (4) 
autodockgpu

>  <m_score__min__energy>  (4) 
-8.5899999999999999

>  <m_primary>  (4) 
energy

>  <rmsd>  (4) 
10.16957108115489

>  <m_score__min__rmsd>  (4) 
10.16957108115489

>  <meeko>  (4) 
{"free_energy": -7.21, "intermolecular_energy": -9.0, "internal_energy": -1.45, "cluster_size": 21, "cluster_id": 4, "rank_in_cluster": 9}

>  <energy>  (4) 
-8.25

>  <cluster_rmsd>  (4) 
0.37

>  <cluster>  (4) 
1

$$$$

     RDKit          3D

 45 48  0  0  0  0  0  0  0  0999 V2000
  140.2650   71.8640  224.9880 O   0  0  0  0  0  0  0  0  0  0  0  0
  139.7600   70.7110  224.9790 C   0  0  0  0  0  0  0  0  0  0  0  0
  140.0920   69.9030  226.0600 C   0  0  0  0  0  0  0  0  0  0  0  0
  140.9210   70.3590  227.0650 C   0  0  0  0  0  0  0  0  0  0  0  0
  141.2350   69.5320  228.1320 C   0  0  0  0  0  0  0  0  0  0  0  0
  140.7170   68.2580  228.1840 C   0  0  0  0  0  0  0  0  0  0  0  0
  139.8830   67.7710  227.1920 C   0  0  0  0  0  0  0  0  0  0  0  0
  139.5930   68.6140  226.1520 C   0  0  0  0  0  0  0  0  0  0  0  0
  138.7910   68.2180  225.1490 N   0  0  0  0  0  0  0  0  0  0  0  0
  138.4850   69.0200  224.1120 C   0  0  0  0  0  0  0  0  0  0  0  0
  137.6190   68.4430  223.0810 C   0  0  0  0  0  0  0  0  0  0  0  0
  136.3190   68.6610  223.0840 C   0  0  0  0  0  0  0  0  0  0  0  0
  135.6310   69.5000  224.0510 C   0  0  0  0  0  0  0  0  0  0  0  0
  135.5280   70.8590  223.9710 C   0  0  0  0  0  0  0  0  0  0  0  0
  134.8590   71.6090  224.9230 C   0  0  0  0  0  0  0  0  0  0  0  0
  134.2580   71.0100  226.0100 C   0  0  0  0  0  0  0  0  0  0  0  0
  134.3520   69.6390  226.1090 C   0  0  0  0  0  0  0  0  0  0  0  0
  135.0200   68.8980  225.1560 C   0  0  0  0  0  0  0  0  0  0  0  0
  138.9440   70.2770  223.9820 N   0  0  0  0  0  0  0  0  0  0  0  0
  138.6110   71.1620  222.9060 C   0  0  0  0  0  0  0  0  0  0  0  0
  139.7710   71.7880  222.2260 C   0  0  0  0  0  0  0  0  0  0  0  0
  140.6930   71.1060  221.4720 C   0  0  0  0  0  0  0  0  0  0  0  0
  141.7760   71.7420  220.8540 C   0  0  0  0  0  0  0  0  0  0  0  0
  141.9640   73.0990  220.9780 C   0  0  0  0  0  0  0  0  0  0  0  0
  141.0490   73.7960  221.7300 C   0  0  0  0  0  0  0  0  0  0  0  0
  141.2230   75.1810  221.8690 O   0  0  0  0  0  0  0  0  0  0  0  0
  139.9750   73.1670  222.3430 C   0  0  0  0  0  0  0  0  0  0  0  0
  141.3322   71.3782  227.0191 H   0  0  0  0  0  0  0  0  0  0  0  0
  141.8957   69.8925  228.9342 H   0  0  0  0  0  0  0  0  0  0  0  0
  140.9721   67.6101  229.0355 H   0  0  0  0  0  0  0  0  0  0  0  0
  139.4713   66.7519  227.2370 H   0  0  0  0  0  0  0  0  0  0  0  0
  138.0608   67.8175  222.2913 H   0  0  0  0  0  0  0  0  0  0  0  0
  135.7150   68.1759  222.3031 H   0  0  0  0  0  0  0  0  0  0  0  0
  135.9934   71.3767  223.1193 H   0  0  0  0  0  0  0  0  0  0  0  0
  134.8059   72.7019  224.8104 H   0  0  0  0  0  0  0  0  0  0  0  0
  133.7249   71.6030  226.7677 H   0  0  0  0  0  0  0  0  0  0  0  0
  133.8861   69.1260  226.9632 H   0  0  0  0  0  0  0  0  0  0  0  0
  135.0735   67.8050  225.2681 H   0  0  0  0  0  0  0  0  0  0  0  0
  138.0445   70.5897  222.1566 H   0  0  0  0  0  0  0  0  0  0  0  0
  138.0360   71.9862  223.3533 H   0  0  0  0  0  0  0  0  0  0  0  0
  140.5765   70.0192  221.3488 H   0  0  0  0  0  0  0  0  0  0  0  0
  142.4869   71.1482  220.2607 H   0  0  0  0  0  0  0  0  0  0  0  0
  142.8124   73.6057  220.4948 H   0  0  0  0  0  0  0  0  0  0  0  0
  142.1530   75.5660  221.9410 H   0  0  0  0  0  0  0  0  0  0  0  0
  139.2676   73.7665  222.9347 H   0  0  0  0  0  0  0  0  0  0  0  0
  1  2  2  0
  2  3  1  0
  3  4  2  0
  4  5  1  0
  5  6  2  0
  6  7  1  0
  7  8  2  0
  8  9  1  0
  9 10  2  0
 10 11  1  0
 11 12  2  0
 12 13  1  0
 13 14  2  0
 14 15  1  0
 15 16  2  0
 16 17  1  0
 17 18  2  0
 10 19  1  0
 19 20  1  0
 20 21  1  0
 21 22  2  0
 22 23  1  0
 23 24  2  0
 24 25  1  0
 25 26  1  0
 25 27  2  0
 19  2  1  0
 27 21  1  0
  8  3  1  0
 18 13  1  0
  4 28  1  0
  5 29  1  0
  6 30  1  0
  7 31  1  0
 11 32  1  0
 12 33  1  0
 14 34  1  0
 15 35  1  0
 16 36  1  0
 17 37  1  0
 18 38  1  0
 20 39  1  0
 20 40  1  0
 22 41  1  0
 23 42  1  0
 24 43  1  0
 26 44  1  0
 27 45  1  0
M  END
>  <smiles>  (5) 
O=c1c2ccccc2nc(/C=C/c2ccccc2)n1Cc1cccc(O)c1

>  <score_type>  (5) 
oracle

>  <origin>  (5) 
autodockgpu

>  <m_score__min__energy>  (5) 
-8.5899999999999999

>  <m_primary>  (5) 
energy

>  <rmsd>  (5) 
10.211928866402467

>  <m_score__min__rmsd>  (5) 
10.211928866402467

>  <meeko>  (5) 
{"free_energy": -7.25, "intermolecular_energy": -9.04, "internal_energy": -1.46, "cluster_size": 21, "cluster_id": 4, "rank_in_cluster": 1}

>  <energy>  (5) 
-7.99

>  <cluster_rmsd>  (5) 
0.85

>  <cluster>  (5) 
1

$$$$

     RDKit          3D

 45 48  0  0  0  0  0  0  0  0999 V2000
  140.2460   71.8910  225.0830 O   0  0  0  0  0  0  0  0  0  0  0  0
  139.7430   70.7390  225.0360 C   0  0  0  0  0  0  0  0  0  0  0  0
  140.0700   69.8990  226.0950 C   0  0  0  0  0  0  0  0  0  0  0  0
  140.8920   70.3250  227.1180 C   0  0  0  0  0  0  0  0  0  0  0  0
  141.2020   69.4660  228.1610 C   0  0  0  0  0  0  0  0  0  0  0  0
  140.6850   68.1900  228.1710 C   0  0  0  0  0  0  0  0  0  0  0  0
  139.8570   67.7330  227.1600 C   0  0  0  0  0  0  0  0  0  0  0  0
  139.5720   68.6060  226.1450 C   0  0  0  0  0  0  0  0  0  0  0  0
  138.7760   68.2400  225.1260 N   0  0  0  0  0  0  0  0  0  0  0  0
  138.4750   69.0720  224.1120 C   0  0  0  0  0  0  0  0  0  0  0  0
  137.6160   68.5260  223.0590 C   0  0  0  0  0  0  0  0  0  0  0  0
  136.3070   68.6790  223.1010 C   0  0  0  0  0  0  0  0  0  0  0  0
  135.6030   69.4420  224.1180 C   0  0  0  0  0  0  0  0  0  0  0  0
  135.0040   68.9050  225.2210 C   0  0  0  0  0  0  0  0  0  0  0  0
  134.3470   69.6810  226.1600 C   0  0  0  0  0  0  0  0  0  0  0  0
  134.2650   71.0510  226.0210 C   0  0  0  0  0  0  0  0  0  0  0  0
  134.8630   71.6120  224.9140 C   0  0  0  0  0  0  0  0  0  0  0  0
  135.5160   70.8320  223.9840 C   0  0  0  0  0  0  0  0  0  0  0  0
  138.9330   70.3340  224.0230 N   0  0  0  0  0  0  0  0  0  0  0  0
  138.6050   71.2500  222.9720 C   0  0  0  0  0  0  0  0  0  0  0  0
  139.7700   71.8570  222.2820 C   0  0  0  0  0  0  0  0  0  0  0  0
  140.7230   71.1490  221.5950 C   0  0  0  0  0  0  0  0  0  0  0  0
  141.8100   71.7670  220.9640 C   0  0  0  0  0  0  0  0  0  0  0  0
  141.9670   73.1340  221.0070 C   0  0  0  0  0  0  0  0  0  0  0  0
  141.0200   73.8560  221.6910 C   0  0  0  0  0  0  0  0  0  0  0  0
  141.1620   75.2510  221.7450 O   0  0  0  0  0  0  0  0  0  0  0  0
  139.9430   73.2440  222.3160 C   0  0  0  0  0  0  0  0  0  0  0  0
  141.3013   71.3460  227.1060 H   0  0  0  0  0  0  0  0  0  0  0  0
  141.8583   69.8025  228.9772 H   0  0  0  0  0  0  0  0  0  0  0  0
  140.9363   67.5164  229.0036 H   0  0  0  0  0  0  0  0  0  0  0  0
  139.4460   66.7127  227.1719 H   0  0  0  0  0  0  0  0  0  0  0  0
  138.0702   67.9794  222.2194 H   0  0  0  0  0  0  0  0  0  0  0  0
  135.7082   68.1972  222.3141 H   0  0  0  0  0  0  0  0  0  0  0  0
  135.0450   67.8158  225.3688 H   0  0  0  0  0  0  0  0  0  0  0  0
  133.8824   69.1972  227.0318 H   0  0  0  0  0  0  0  0  0  0  0  0
  133.7428   71.6709  226.7646 H   0  0  0  0  0  0  0  0  0  0  0  0
  134.8186   72.7016  224.7698 H   0  0  0  0  0  0  0  0  0  0  0  0
  135.9815   71.3156  223.1125 H   0  0  0  0  0  0  0  0  0  0  0  0
  138.0082   70.7096  222.2225 H   0  0  0  0  0  0  0  0  0  0  0  0
  138.0623   72.0807  223.4468 H   0  0  0  0  0  0  0  0  0  0  0  0
  140.6300   70.0544  221.5375 H   0  0  0  0  0  0  0  0  0  0  0  0
  142.5476   71.1523  220.4273 H   0  0  0  0  0  0  0  0  0  0  0  0
  142.8168   73.6281  220.5133 H   0  0  0  0  0  0  0  0  0  0  0  0
  141.9970   75.6550  222.1420 H   0  0  0  0  0  0  0  0  0  0  0  0
  139.2084   73.8642  222.8505 H   0  0  0  0  0  0  0  0  0  0  0  0
  1  2  2  0
  2  3  1  0
  3  4  2  0
  4  5  1  0
  5  6  2  0
  6  7  1  0
  7  8  2  0
  8  9  1  0
  9 10  2  0
 10 11  1  0
 11 12  2  0
 12 13  1  0
 13 14  2  0
 14 15  1  0
 15 16  2  0
 16 17  1  0
 17 18  2  0
 10 19  1  0
 19 20  1  0
 20 21  1  0
 21 22  2  0
 22 23  1  0
 23 24  2  0
 24 25  1  0
 25 26  1  0
 25 27  2  0
 19  2  1  0
 27 21  1  0
  8  3  1  0
 18 13  1  0
  4 28  1  0
  5 29  1  0
  6 30  1  0
  7 31  1  0
 11 32  1  0
 12 33  1  0
 14 34  1  0
 15 35  1  0
 16 36  1  0
 17 37  1  0
 18 38  1  0
 20 39  1  0
 20 40  1  0
 22 41  1  0
 23 42  1  0
 24 43  1  0
 26 44  1  0
 27 45  1  0
M  END
>  <smiles>  (6) 
O=c1c2ccccc2nc(/C=C/c2ccccc2)n1Cc1cccc(O)c1

>  <score_type>  (6) 
oracle

>  <origin>  (6) 
autodockgpu

>  <m_score__min__energy>  (6) 
-8.5899999999999999

>  <m_primary>  (6) 
energy

>  <rmsd>  (6) 
10.205420838574131

>  <m_score__min__rmsd>  (6) 
10.205420838574131

>  <meeko>  (6) 
{"free_energy": -7.19, "intermolecular_energy": -8.98, "internal_energy": -1.5, "cluster_size": 21, "cluster_id": 4, "rank_in_cluster": 11}

>  <energy>  (6) 
-7.89

>  <cluster_rmsd>  (6) 
0.83

>  <cluster>  (6) 
1

$$$$

     RDKit          3D

 45 48  0  0  0  0  0  0  0  0999 V2000
  140.2360   71.8910  225.0150 O   0  0  0  0  0  0  0  0  0  0  0  0
  139.7320   70.7390  224.9990 C   0  0  0  0  0  0  0  0  0  0  0  0
  140.0720   69.9210  226.0710 C   0  0  0  0  0  0  0  0  0  0  0  0
  140.9090   70.3680  227.0730 C   0  0  0  0  0  0  0  0  0  0  0  0
  141.2320   69.5310  228.1300 C   0  0  0  0  0  0  0  0  0  0  0  0
  140.7150   68.2560  228.1740 C   0  0  0  0  0  0  0  0  0  0  0  0
  139.8740   67.7780  227.1840 C   0  0  0  0  0  0  0  0  0  0  0  0
  139.5750   68.6300  226.1550 C   0  0  0  0  0  0  0  0  0  0  0  0
  138.7650   68.2440  225.1540 N   0  0  0  0  0  0  0  0  0  0  0  0
  138.4500   69.0540  224.1270 C   0  0  0  0  0  0  0  0  0  0  0  0
  137.5770   68.4860  223.0980 C   0  0  0  0  0  0  0  0  0  0  0  0
  136.2880   68.7660  223.0690 C   0  0  0  0  0  0  0  0  0  0  0  0
  135.5880   69.5090  224.1020 C   0  0  0  0  0  0  0  0  0  0  0  0
  135.0100   68.9540  225.2070 C   0  0  0  0  0  0  0  0  0  0  0  0
  134.3540   69.7120  226.1620 C   0  0  0  0  0  0  0  0  0  0  0  0
  134.2520   71.0820  226.0370 C   0  0  0  0  0  0  0  0  0  0  0  0
  134.8290   71.6620  224.9290 C   0  0  0  0  0  0  0  0  0  0  0  0
  135.4810   70.8990  223.9820 C   0  0  0  0  0  0  0  0  0  0  0  0
  138.9080   70.3130  224.0060 N   0  0  0  0  0  0  0  0  0  0  0  0
  138.5650   71.2070  222.9400 C   0  0  0  0  0  0  0  0  0  0  0  0
  139.7200   71.8470  222.2620 C   0  0  0  0  0  0  0  0  0  0  0  0
  140.6860   71.1680  221.5640 C   0  0  0  0  0  0  0  0  0  0  0  0
  141.7620   71.8160  220.9440 C   0  0  0  0  0  0  0  0  0  0  0  0
  141.8950   73.1840  221.0120 C   0  0  0  0  0  0  0  0  0  0  0  0
  140.9350   73.8780  221.7080 C   0  0  0  0  0  0  0  0  0  0  0  0
  141.0530   75.2730  221.7870 O   0  0  0  0  0  0  0  0  0  0  0  0
  139.8690   73.2360  222.3210 C   0  0  0  0  0  0  0  0  0  0  0  0
  141.3196   71.3877  227.0331 H   0  0  0  0  0  0  0  0  0  0  0  0
  141.8988   69.8844  228.9303 H   0  0  0  0  0  0  0  0  0  0  0  0
  140.9769   67.6003  229.0174 H   0  0  0  0  0  0  0  0  0  0  0  0
  139.4638   66.7581  227.2224 H   0  0  0  0  0  0  0  0  0  0  0  0
  138.0025   67.8152  222.3371 H   0  0  0  0  0  0  0  0  0  0  0  0
  135.7050   68.4134  222.2054 H   0  0  0  0  0  0  0  0  0  0  0  0
  135.0675   67.8641  225.3438 H   0  0  0  0  0  0  0  0  0  0  0  0
  133.9068   69.2136  227.0347 H   0  0  0  0  0  0  0  0  0  0  0  0
  133.7302   71.6876  226.7927 H   0  0  0  0  0  0  0  0  0  0  0  0
  134.7690   72.7524  224.7967 H   0  0  0  0  0  0  0  0  0  0  0  0
  135.9287   71.3969  223.1092 H   0  0  0  0  0  0  0  0  0  0  0  0
  137.9992   70.6389  222.1869 H   0  0  0  0  0  0  0  0  0  0  0  0
  137.9862   72.0230  223.3973 H   0  0  0  0  0  0  0  0  0  0  0  0
  140.6129   70.0730  221.4882 H   0  0  0  0  0  0  0  0  0  0  0  0
  142.5099   71.2241  220.3960 H   0  0  0  0  0  0  0  0  0  0  0  0
  142.7366   73.7014  220.5283 H   0  0  0  0  0  0  0  0  0  0  0  0
  140.5190   75.8590  221.1630 H   0  0  0  0  0  0  0  0  0  0  0  0
  139.1236   73.8336  222.8662 H   0  0  0  0  0  0  0  0  0  0  0  0
  1  2  2  0
  2  3  1  0
  3  4  2  0
  4  5  1  0
  5  6  2  0
  6  7  1  0
  7  8  2  0
  8  9  1  0
  9 10  2  0
 10 11  1  0
 11 12  2  0
 12 13  1  0
 13 14  2  0
 14 15  1  0
 15 16  2  0
 16 17  1  0
 17 18  2  0
 10 19  1  0
 19 20  1  0
 20 21  1  0
 21 22  2  0
 22 23  1  0
 23 24  2  0
 24 25  1  0
 25 26  1  0
 25 27  2  0
 19  2  1  0
 27 21  1  0
  8  3  1  0
 18 13  1  0
  4 28  1  0
  5 29  1  0
  6 30  1  0
  7 31  1  0
 11 32  1  0
 12 33  1  0
 14 34  1  0
 15 35  1  0
 16 36  1  0
 17 37  1  0
 18 38  1  0
 20 39  1  0
 20 40  1  0
 22 41  1  0
 23 42  1  0
 24 43  1  0
 26 44  1  0
 27 45  1  0
M  END
>  <smiles>  (7) 
O=c1c2ccccc2nc(/C=C/c2ccccc2)n1Cc1cccc(O)c1

>  <score_type>  (7) 
oracle

>  <origin>  (7) 
autodockgpu

>  <m_score__min__energy>  (7) 
-8.5899999999999999

>  <m_primary>  (7) 
energy

>  <rmsd>  (7) 
10.178680517624063

>  <m_score__min__rmsd>  (7) 
10.178680517624063

>  <meeko>  (7) 
{"free_energy": -6.68, "intermolecular_energy": -8.47, "internal_energy": -1.47, "cluster_size": 21, "cluster_id": 4, "rank_in_cluster": 21}

>  <energy>  (7) 
-7.81

>  <cluster_rmsd>  (7) 
0.77

>  <cluster>  (7) 
1

$$$$

     RDKit          3D

 45 48  0  0  0  0  0  0  0  0999 V2000
  140.2830   71.9000  225.0500 O   0  0  0  0  0  0  0  0  0  0  0  0
  139.7700   70.7510  225.0150 C   0  0  0  0  0  0  0  0  0  0  0  0
  140.0930   69.9190  226.0810 C   0  0  0  0  0  0  0  0  0  0  0  0
  140.9230   70.3480  227.0970 C   0  0  0  0  0  0  0  0  0  0  0  0
  141.2290   69.4960  228.1470 C   0  0  0  0  0  0  0  0  0  0  0  0
  140.7020   68.2250  228.1710 C   0  0  0  0  0  0  0  0  0  0  0  0
  139.8670   67.7650  227.1670 C   0  0  0  0  0  0  0  0  0  0  0  0
  139.5860   68.6310  226.1440 C   0  0  0  0  0  0  0  0  0  0  0  0
  138.7840   68.2620  225.1310 N   0  0  0  0  0  0  0  0  0  0  0  0
  138.4860   69.0860  224.1100 C   0  0  0  0  0  0  0  0  0  0  0  0
  137.6190   68.5370  223.0660 C   0  0  0  0  0  0  0  0  0  0  0  0
  136.3120   68.7110  223.1040 C   0  0  0  0  0  0  0  0  0  0  0  0
  135.6250   69.5430  224.0770 C   0  0  0  0  0  0  0  0  0  0  0  0
  135.5010   70.9000  223.9950 C   0  0  0  0  0  0  0  0  0  0  0  0
  134.8340   71.6440  224.9520 C   0  0  0  0  0  0  0  0  0  0  0  0
  134.2560   71.0390  226.0500 C   0  0  0  0  0  0  0  0  0  0  0  0
  134.3700   69.6700  226.1510 C   0  0  0  0  0  0  0  0  0  0  0  0
  135.0370   68.9360  225.1920 C   0  0  0  0  0  0  0  0  0  0  0  0
  138.9540   70.3430  224.0080 N   0  0  0  0  0  0  0  0  0  0  0  0
  138.6290   71.2520  222.9500 C   0  0  0  0  0  0  0  0  0  0  0  0
  139.7960   71.8640  222.2680 C   0  0  0  0  0  0  0  0  0  0  0  0
  140.7320   71.1650  221.5480 C   0  0  0  0  0  0  0  0  0  0  0  0
  141.8210   71.7880  220.9260 C   0  0  0  0  0  0  0  0  0  0  0  0
  142.0010   73.1490  221.0130 C   0  0  0  0  0  0  0  0  0  0  0  0
  141.0720   73.8630  221.7310 C   0  0  0  0  0  0  0  0  0  0  0  0
  141.2370   75.2520  221.8310 O   0  0  0  0  0  0  0  0  0  0  0  0
  139.9920   73.2460  222.3470 C   0  0  0  0  0  0  0  0  0  0  0  0
  141.3413   71.3651  227.0736 H   0  0  0  0  0  0  0  0  0  0  0  0
  141.8906   69.8347  228.9579 H   0  0  0  0  0  0  0  0  0  0  0  0
  140.9505   67.5575  229.0093 H   0  0  0  0  0  0  0  0  0  0  0  0
  139.4476   66.7483  227.1900 H   0  0  0  0  0  0  0  0  0  0  0  0
  138.0650   67.9698  222.2357 H   0  0  0  0  0  0  0  0  0  0  0  0
  135.7023   68.1922  222.3496 H   0  0  0  0  0  0  0  0  0  0  0  0
  135.9482   71.4215  223.1359 H   0  0  0  0  0  0  0  0  0  0  0  0
  134.7631   72.7356  224.8360 H   0  0  0  0  0  0  0  0  0  0  0  0
  133.7256   71.6267  226.8137 H   0  0  0  0  0  0  0  0  0  0  0  0
  133.9211   69.1527  227.0118 H   0  0  0  0  0  0  0  0  0  0  0  0
  135.1084   67.8444  225.3071 H   0  0  0  0  0  0  0  0  0  0  0  0
  138.0428   70.7041  222.1975 H   0  0  0  0  0  0  0  0  0  0  0  0
  138.0760   72.0809  223.4160 H   0  0  0  0  0  0  0  0  0  0  0  0
  140.6227   70.0743  221.4560 H   0  0  0  0  0  0  0  0  0  0  0  0
  142.5425   71.1806  220.3599 H   0  0  0  0  0  0  0  0  0  0  0  0
  142.8540   73.6457  220.5275 H   0  0  0  0  0  0  0  0  0  0  0  0
  142.1600   75.6410  221.9540 H   0  0  0  0  0  0  0  0  0  0  0  0
  139.2733   73.8589  222.9107 H   0  0  0  0  0  0  0  0  0  0  0  0
  1  2  2  0
  2  3  1  0
  3  4  2  0
  4  5  1  0
  5  6  2  0
  6  7  1  0
  7  8  2  0
  8  9  1  0
  9 10  2  0
 10 11  1  0
 11 12  2  0
 12 13  1  0
 13 14  2  0
 14 15  1  0
 15 16  2  0
 16 17  1  0
 17 18  2  0
 10 19  1  0
 19 20  1  0
 20 21  1  0
 21 22  2  0
 22 23  1  0
 23 24  2  0
 24 25  1  0
 25 26  1  0
 25 27  2  0
 19  2  1  0
 27 21  1  0
  8  3  1  0
 18 13  1  0
  4 28  1  0
  5 29  1  0
  6 30  1  0
  7 31  1  0
 11 32  1  0
 12 33  1  0
 14 34  1  0
 15 35  1  0
 16 36  1  0
 17 37  1  0
 18 38  1  0
 20 39  1  0
 20 40  1  0
 22 41  1  0
 23 42  1  0
 24 43  1  0
 26 44  1  0
 27 45  1  0
M  END
>  <smiles>  (8) 
O=c1c2ccccc2nc(/C=C/c2ccccc2)n1Cc1cccc(O)c1

>  <score_type>  (8) 
oracle

>  <origin>  (8) 
autodockgpu

>  <m_score__min__energy>  (8) 
-8.5899999999999999

>  <m_primary>  (8) 
energy

>  <rmsd>  (8) 
10.190034189722189

>  <m_score__min__rmsd>  (8) 
10.190034189722189

>  <meeko>  (8) 
{"free_energy": -7.23, "intermolecular_energy": -9.02, "internal_energy": -1.49, "cluster_size": 21, "cluster_id": 4, "rank_in_cluster": 7}

>  <energy>  (8) 
-7.68

>  <cluster_rmsd>  (8) 
1.24

>  <cluster>  (8) 
1

$$$$

     RDKit          3D

 45 48  0  0  0  0  0  0  0  0999 V2000
  142.7160   75.0980  219.8970 O   0  0  0  0  0  0  0  0  0  0  0  0
  141.8230   74.6710  220.6740 C   0  0  0  0  0  0  0  0  0  0  0  0
  140.9890   75.6400  221.2190 C   0  0  0  0  0  0  0  0  0  0  0  0
  141.1510   76.9760  220.9130 C   0  0  0  0  0  0  0  0  0  0  0  0
  140.3050   77.9210  221.4720 C   0  0  0  0  0  0  0  0  0  0  0  0
  139.3060   77.5220  222.3300 C   0  0  0  0  0  0  0  0  0  0  0  0
  139.1180   76.1900  222.6580 C   0  0  0  0  0  0  0  0  0  0  0  0
  139.9710   75.2820  222.0890 C   0  0  0  0  0  0  0  0  0  0  0  0
  139.8560   73.9700  222.3540 N   0  0  0  0  0  0  0  0  0  0  0  0
  140.6760   73.0500  221.8130 C   0  0  0  0  0  0  0  0  0  0  0  0
  140.4460   71.6600  222.2150 C   0  0  0  0  0  0  0  0  0  0  0  0
  139.6080   71.3630  223.1880 C   0  0  0  0  0  0  0  0  0  0  0  0
  140.0100   71.0570  224.5500 C   0  0  0  0  0  0  0  0  0  0  0  0
  140.7370   71.8870  225.3540 C   0  0  0  0  0  0  0  0  0  0  0  0
  141.0920   71.5440  226.6470 C   0  0  0  0  0  0  0  0  0  0  0  0
  140.7230   70.3300  227.1900 C   0  0  0  0  0  0  0  0  0  0  0  0
  139.9890   69.4780  226.3940 C   0  0  0  0  0  0  0  0  0  0  0  0
  139.6390   69.8280  225.1070 C   0  0  0  0  0  0  0  0  0  0  0  0
  141.6750   73.3510  220.9650 N   0  0  0  0  0  0  0  0  0  0  0  0
  142.5430   72.3910  220.3510 C   0  0  0  0  0  0  0  0  0  0  0  0
  143.9720   72.7870  220.2880 C   0  0  0  0  0  0  0  0  0  0  0  0
  144.7630   73.0250  221.3840 C   0  0  0  0  0  0  0  0  0  0  0  0
  146.1070   73.4020  221.2740 C   0  0  0  0  0  0  0  0  0  0  0  0
  146.7000   73.5510  220.0410 C   0  0  0  0  0  0  0  0  0  0  0  0
  145.9210   73.3150  218.9340 C   0  0  0  0  0  0  0  0  0  0  0  0
  146.5070   73.4610  217.6680 O   0  0  0  0  0  0  0  0  0  0  0  0
  144.5890   72.9420  219.0430 C   0  0  0  0  0  0  0  0  0  0  0  0
  141.9506   77.2905  220.2262 H   0  0  0  0  0  0  0  0  0  0  0  0
  140.4318   78.9866  221.2305 H   0  0  0  0  0  0  0  0  0  0  0  0
  138.6397   78.2806  222.7665 H   0  0  0  0  0  0  0  0  0  0  0  0
  138.3189   75.8750  223.3452 H   0  0  0  0  0  0  0  0  0  0  0  0
  140.9814   70.8511  221.6963 H   0  0  0  0  0  0  0  0  0  0  0  0
  138.5335   71.3457  222.9533 H   0  0  0  0  0  0  0  0  0  0  0  0
  141.0522   72.8643  224.9596 H   0  0  0  0  0  0  0  0  0  0  0  0
  141.6783   72.2511  227.2522 H   0  0  0  0  0  0  0  0  0  0  0  0
  141.0037   70.0537  228.2171 H   0  0  0  0  0  0  0  0  0  0  0  0
  139.6767   68.5013  226.7922 H   0  0  0  0  0  0  0  0  0  0  0  0
  139.0520   69.1217  224.5015 H   0  0  0  0  0  0  0  0  0  0  0  0
  142.4736   71.4537  220.9225 H   0  0  0  0  0  0  0  0  0  0  0  0
  142.2049   72.2934  219.3088 H   0  0  0  0  0  0  0  0  0  0  0  0
  144.3245   72.9154  222.3869 H   0  0  0  0  0  0  0  0  0  0  0  0
  146.6967   73.5814  222.1851 H   0  0  0  0  0  0  0  0  0  0  0  0
  147.7551   73.8471  219.9456 H   0  0  0  0  0  0  0  0  0  0  0  0
  146.5230   74.3670  217.2230 H   0  0  0  0  0  0  0  0  0  0  0  0
  144.0046   72.7640  218.1282 H   0  0  0  0  0  0  0  0  0  0  0  0
  1  2  2  0
  2  3  1  0
  3  4  2  0
  4  5  1  0
  5  6  2  0
  6  7  1  0
  7  8  2  0
  8  9  1  0
  9 10  2  0
 10 11  1  0
 11 12  2  0
 12 13  1  0
 13 14  2  0
 14 15  1  0
 15 16  2  0
 16 17  1  0
 17 18  2  0
 10 19  1  0
 19 20  1  0
 20 21  1  0
 21 22  2  0
 22 23  1  0
 23 24  2  0
 24 25  1  0
 25 26  1  0
 25 27  2  0
 19  2  1  0
 27 21  1  0
  8  3  1  0
 18 13  1  0
  4 28  1  0
  5 29  1  0
  6 30  1  0
  7 31  1  0
 11 32  1  0
 12 33  1  0
 14 34  1  0
 15 35  1  0
 16 36  1  0
 17 37  1  0
 18 38  1  0
 20 39  1  0
 20 40  1  0
 22 41  1  0
 23 42  1  0
 24 43  1  0
 26 44  1  0
 27 45  1  0
M  END
>  <smiles>  (9) 
O=c1c2ccccc2nc(/C=C/c2ccccc2)n1Cc1cccc(O)c1

>  <score_type>  (9) 
oracle

>  <origin>  (9) 
autodockgpu

>  <m_score__min__energy>  (9) 
-8.5899999999999999

>  <m_primary>  (9) 
energy

>  <rmsd>  (9) 
7.740950190762532

>  <m_score__min__rmsd>  (9) 
7.740950190762532

>  <meeko>  (9) 
{"free_energy": -8.36, "intermolecular_energy": -10.15, "internal_energy": -0.94, "cluster_size": 14, "cluster_id": 1, "rank_in_cluster": 2}

>  <energy>  (9) 
-7.66

>  <cluster_rmsd>  (9) 
0.95

>  <cluster>  (9) 
1

$$$$

     RDKit          3D

 45 48  0  0  0  0  0  0  0  0999 V2000
  142.6540   75.6770  219.7430 O   0  0  0  0  0  0  0  0  0  0  0  0
  141.7260   75.3590  220.5320 C   0  0  0  0  0  0  0  0  0  0  0  0
  141.0990   76.4190  221.1770 C   0  0  0  0  0  0  0  0  0  0  0  0
  141.4860   77.7240  220.9490 C   0  0  0  0  0  0  0  0  0  0  0  0
  140.8430   78.7610  221.6060 C   0  0  0  0  0  0  0  0  0  0  0  0
  139.8200   78.4840  222.4840 C   0  0  0  0  0  0  0  0  0  0  0  0
  139.4080   77.1860  222.7340 C   0  0  0  0  0  0  0  0  0  0  0  0
  140.0640   76.1850  222.0690 C   0  0  0  0  0  0  0  0  0  0  0  0
  139.7260   74.8980  222.2550 N   0  0  0  0  0  0  0  0  0  0  0  0
  140.3480   73.8890  221.6180 C   0  0  0  0  0  0  0  0  0  0  0  0
  139.8880   72.5370  221.9400 C   0  0  0  0  0  0  0  0  0  0  0  0
  140.6540   71.6990  222.6110 C   0  0  0  0  0  0  0  0  0  0  0  0
  140.3270   71.1570  223.9180 C   0  0  0  0  0  0  0  0  0  0  0  0
  140.7430   71.6850  225.1070 C   0  0  0  0  0  0  0  0  0  0  0  0
  140.4000   71.1270  226.3270 C   0  0  0  0  0  0  0  0  0  0  0  0
  139.6140   69.9950  226.3980 C   0  0  0  0  0  0  0  0  0  0  0  0
  139.1850   69.4470  225.2090 C   0  0  0  0  0  0  0  0  0  0  0  0
  139.5300   70.0100  223.9980 C   0  0  0  0  0  0  0  0  0  0  0  0
  141.3550   74.0690  220.7440 N   0  0  0  0  0  0  0  0  0  0  0  0
  142.0150   73.0180  220.0300 C   0  0  0  0  0  0  0  0  0  0  0  0
  143.4970   73.0620  220.0760 C   0  0  0  0  0  0  0  0  0  0  0  0
  144.2440   72.9800  221.2250 C   0  0  0  0  0  0  0  0  0  0  0  0
  145.6430   73.0320  221.2180 C   0  0  0  0  0  0  0  0  0  0  0  0
  146.3390   73.1700  220.0390 C   0  0  0  0  0  0  0  0  0  0  0  0
  145.6050   73.2540  218.8800 C   0  0  0  0  0  0  0  0  0  0  0  0
  146.2960   73.3940  217.6670 O   0  0  0  0  0  0  0  0  0  0  0  0
  144.2190   73.2020  218.8860 C   0  0  0  0  0  0  0  0  0  0  0  0
  142.3041   77.9408  220.2464 H   0  0  0  0  0  0  0  0  0  0  0  0
  141.1493   79.8021  221.4263 H   0  0  0  0  0  0  0  0  0  0  0  0
  139.3169   79.3149  223.0002 H   0  0  0  0  0  0  0  0  0  0  0  0
  138.5896   76.9686  223.4361 H   0  0  0  0  0  0  0  0  0  0  0  0
  138.8871   72.2148  221.6170 H   0  0  0  0  0  0  0  0  0  0  0  0
  141.6038   71.3900  222.1500 H   0  0  0  0  0  0  0  0  0  0  0  0
  141.3735   72.5863  225.0950 H   0  0  0  0  0  0  0  0  0  0  0  0
  140.7602   71.5941  227.2555 H   0  0  0  0  0  0  0  0  0  0  0  0
  139.3409   69.5480  227.3653 H   0  0  0  0  0  0  0  0  0  0  0  0
  138.5563   68.5446  225.2257 H   0  0  0  0  0  0  0  0  0  0  0  0
  139.1684   69.5442  223.0694 H   0  0  0  0  0  0  0  0  0  0  0  0
  141.6889   72.0583  220.4573 H   0  0  0  0  0  0  0  0  0  0  0  0
  141.7369   73.1432  218.9731 H   0  0  0  0  0  0  0  0  0  0  0  0
  143.7235   72.8692  222.1877 H   0  0  0  0  0  0  0  0  0  0  0  0
  146.1933   72.9616  222.1678 H   0  0  0  0  0  0  0  0  0  0  0  0
  147.4381   73.2114  220.0247 H   0  0  0  0  0  0  0  0  0  0  0  0
  146.4200   74.3100  217.2620 H   0  0  0  0  0  0  0  0  0  0  0  0
  143.6747   73.2725  217.9327 H   0  0  0  0  0  0  0  0  0  0  0  0
  1  2  2  0
  2  3  1  0
  3  4  2  0
  4  5  1  0
  5  6  2  0
  6  7  1  0
  7  8  2  0
  8  9  1  0
  9 10  2  0
 10 11  1  0
 11 12  2  0
 12 13  1  0
 13 14  2  0
 14 15  1  0
 15 16  2  0
 16 17  1  0
 17 18  2  0
 10 19  1  0
 19 20  1  0
 20 21  1  0
 21 22  2  0
 22 23  1  0
 23 24  2  0
 24 25  1  0
 25 26  1  0
 25 27  2  0
 19  2  1  0
 27 21  1  0
  8  3  1  0
 18 13  1  0
  4 28  1  0
  5 29  1  0
  6 30  1  0
  7 31  1  0
 11 32  1  0
 12 33  1  0
 14 34  1  0
 15 35  1  0
 16 36  1  0
 17 37  1  0
 18 38  1  0
 20 39  1  0
 20 40  1  0
 22 41  1  0
 23 42  1  0
 24 43  1  0
 26 44  1  0
 27 45  1  0
M  END
>  <smiles>  (10) 
O=c1c2ccccc2nc(/C=C/c2ccccc2)n1Cc1cccc(O)c1

>  <score_type>  (10) 
oracle

>  <origin>  (10) 
autodockgpu

>  <m_score__min__energy>  (10) 
-8.5899999999999999

>  <m_primary>  (10) 
energy

>  <rmsd>  (10) 
7.675772079973675

>  <m_score__min__rmsd>  (10) 
7.675772079973675

>  <meeko>  (10) 
{"free_energy": -7.99, "intermolecular_energy": -9.78, "internal_energy": -1.02, "cluster_size": 14, "cluster_id": 1, "rank_in_cluster": 5}

>  <energy>  (10) 
-7.52

>  <cluster_rmsd>  (10) 
1.03

>  <cluster>  (10) 
1

$$$$

     RDKit          3D

 45 48  0  0  0  0  0  0  0  0999 V2000
  139.8670   74.9030  222.0210 O   0  0  0  0  0  0  0  0  0  0  0  0
  140.4580   75.7010  221.2490 C   0  0  0  0  0  0  0  0  0  0  0  0
  141.6930   75.2730  220.7750 C   0  0  0  0  0  0  0  0  0  0  0  0
  142.2140   74.0490  221.1420 C   0  0  0  0  0  0  0  0  0  0  0  0
  143.4480   73.6470  220.6550 C   0  0  0  0  0  0  0  0  0  0  0  0
  144.1490   74.4730  219.8060 C   0  0  0  0  0  0  0  0  0  0  0  0
  143.6540   75.7070  219.4190 C   0  0  0  0  0  0  0  0  0  0  0  0
  142.4330   76.0740  219.9190 C   0  0  0  0  0  0  0  0  0  0  0  0
  141.8820   77.2550  219.5920 N   0  0  0  0  0  0  0  0  0  0  0  0
  140.6850   77.6470  220.0640 C   0  0  0  0  0  0  0  0  0  0  0  0
  140.2240   78.9720  219.6420 C   0  0  0  0  0  0  0  0  0  0  0  0
  140.9060   80.0580  219.9440 C   0  0  0  0  0  0  0  0  0  0  0  0
  141.4570   80.3400  221.2580 C   0  0  0  0  0  0  0  0  0  0  0  0
  141.2770   81.5060  221.9460 C   0  0  0  0  0  0  0  0  0  0  0  0
  141.8260   81.7210  223.1990 C   0  0  0  0  0  0  0  0  0  0  0  0
  142.5920   80.7540  223.8170 C   0  0  0  0  0  0  0  0  0  0  0  0
  142.7860   79.5710  223.1390 C   0  0  0  0  0  0  0  0  0  0  0  0
  142.2350   79.3640  221.8920 C   0  0  0  0  0  0  0  0  0  0  0  0
  139.9320   76.9040  220.8950 N   0  0  0  0  0  0  0  0  0  0  0  0
  138.6420   77.2830  221.3880 C   0  0  0  0  0  0  0  0  0  0  0  0
  138.6350   78.4640  222.2860 C   0  0  0  0  0  0  0  0  0  0  0  0
  139.4440   78.6120  223.3840 C   0  0  0  0  0  0  0  0  0  0  0  0
  139.3970   79.7450  224.2060 C   0  0  0  0  0  0  0  0  0  0  0  0
  138.5230   80.7750  223.9390 C   0  0  0  0  0  0  0  0  0  0  0  0
  137.7080   80.6420  222.8420 C   0  0  0  0  0  0  0  0  0  0  0  0
  136.8110   81.6810  222.5530 O   0  0  0  0  0  0  0  0  0  0  0  0
  137.7540   79.5190  222.0280 C   0  0  0  0  0  0  0  0  0  0  0  0
  141.6501   73.3924  221.8209 H   0  0  0  0  0  0  0  0  0  0  0  0
  143.8653   72.6717  220.9459 H   0  0  0  0  0  0  0  0  0  0  0  0
  145.1273   74.1445  219.4252 H   0  0  0  0  0  0  0  0  0  0  0  0
  144.2170   76.3638  218.7396 H   0  0  0  0  0  0  0  0  0  0  0  0
  139.2928   79.0616  219.0633 H   0  0  0  0  0  0  0  0  0  0  0  0
  141.0689   80.8001  219.1486 H   0  0  0  0  0  0  0  0  0  0  0  0
  140.6737   82.3037  221.4880 H   0  0  0  0  0  0  0  0  0  0  0  0
  141.6485   82.6787  223.7102 H   0  0  0  0  0  0  0  0  0  0  0  0
  143.0304   80.9213  224.8119 H   0  0  0  0  0  0  0  0  0  0  0  0
  143.3914   78.7770  223.6006 H   0  0  0  0  0  0  0  0  0  0  0  0
  142.4116   78.4058  221.3815 H   0  0  0  0  0  0  0  0  0  0  0  0
  137.9992   77.5077  220.5241 H   0  0  0  0  0  0  0  0  0  0  0  0
  138.2831   76.4363  221.9916 H   0  0  0  0  0  0  0  0  0  0  0  0
  140.1566   77.8104  223.6281 H   0  0  0  0  0  0  0  0  0  0  0  0
  140.0668   79.8129  225.0759 H   0  0  0  0  0  0  0  0  0  0  0  0
  138.4795   81.6686  224.5789 H   0  0  0  0  0  0  0  0  0  0  0  0
  136.3990   81.7490  221.6340 H   0  0  0  0  0  0  0  0  0  0  0  0
  137.0818   79.4572  221.1595 H   0  0  0  0  0  0  0  0  0  0  0  0
  1  2  2  0
  2  3  1  0
  3  4  2  0
  4  5  1  0
  5  6  2  0
  6  7  1  0
  7  8  2  0
  8  9  1  0
  9 10  2  0
 10 11  1  0
 11 12  2  0
 12 13  1  0
 13 14  2  0
 14 15  1  0
 15 16  2  0
 16 17  1  0
 17 18  2  0
 10 19  1  0
 19 20  1  0
 20 21  1  0
 21 22  2  0
 22 23  1  0
 23 24  2  0
 24 25  1  0
 25 26  1  0
 25 27  2  0
 19  2  1  0
 27 21  1  0
  8  3  1  0
 18 13  1  0
  4 28  1  0
  5 29  1  0
  6 30  1  0
  7 31  1  0
 11 32  1  0
 12 33  1  0
 14 34  1  0
 15 35  1  0
 16 36  1  0
 17 37  1  0
 18 38  1  0
 20 39  1  0
 20 40  1  0
 22 41  1  0
 23 42  1  0
 24 43  1  0
 26 44  1  0
 27 45  1  0
M  END
>  <smiles>  (11) 
O=c1c2ccccc2nc(/C=C/c2ccccc2)n1Cc1cccc(O)c1

>  <score_type>  (11) 
oracle

>  <origin>  (11) 
autodockgpu

>  <m_score__min__energy>  (11) 
-8.5899999999999999

>  <m_primary>  (11) 
energy

>  <rmsd>  (11) 
4.202414030597035

>  <m_score__min__rmsd>  (11) 
4.202414030597035

>  <meeko>  (11) 
{"free_energy": -6.27, "intermolecular_energy": -8.06, "internal_energy": -1.95, "cluster_size": 3, "cluster_id": 9, "rank_in_cluster": 3}

>  <energy>  (11) 
-7.46

>  <cluster_rmsd>  (11) 
1.34

>  <cluster>  (11) 
1

$$$$

     RDKit          3D

 45 48  0  0  0  0  0  0  0  0999 V2000
  142.5670   77.0800  217.1800 O   0  0  0  0  0  0  0  0  0  0  0  0
  142.1200   77.5770  218.2460 C   0  0  0  0  0  0  0  0  0  0  0  0
  142.1110   78.9670  218.3010 C   0  0  0  0  0  0  0  0  0  0  0  0
  142.5660   79.7270  217.2430 C   0  0  0  0  0  0  0  0  0  0  0  0
  142.5450   81.1100  217.3250 C   0  0  0  0  0  0  0  0  0  0  0  0
  142.0700   81.7190  218.4640 C   0  0  0  0  0  0  0  0  0  0  0  0
  141.6070   80.9850  219.5430 C   0  0  0  0  0  0  0  0  0  0  0  0
  141.6410   79.6210  219.4290 C   0  0  0  0  0  0  0  0  0  0  0  0
  141.2100   78.8360  220.4300 N   0  0  0  0  0  0  0  0  0  0  0  0
  141.2290   77.4930  220.3530 C   0  0  0  0  0  0  0  0  0  0  0  0
  140.7500   76.7690  221.5330 C   0  0  0  0  0  0  0  0  0  0  0  0
  141.0420   77.1830  222.7500 C   0  0  0  0  0  0  0  0  0  0  0  0
  141.2660   78.5720  223.1110 C   0  0  0  0  0  0  0  0  0  0  0  0
  140.2840   79.4580  223.4500 C   0  0  0  0  0  0  0  0  0  0  0  0
  140.5550   80.7730  223.7870 C   0  0  0  0  0  0  0  0  0  0  0  0
  141.8480   81.2550  223.7940 C   0  0  0  0  0  0  0  0  0  0  0  0
  142.8530   80.3770  223.4540 C   0  0  0  0  0  0  0  0  0  0  0  0
  142.5740   79.0680  223.1200 C   0  0  0  0  0  0  0  0  0  0  0  0
  141.6740   76.8150  219.2800 N   0  0  0  0  0  0  0  0  0  0  0  0
  141.6780   75.3880  219.1580 C   0  0  0  0  0  0  0  0  0  0  0  0
  142.8520   74.7100  219.7620 C   0  0  0  0  0  0  0  0  0  0  0  0
  144.0800   75.2950  219.9440 C   0  0  0  0  0  0  0  0  0  0  0  0
  145.1610   74.6120  220.5140 C   0  0  0  0  0  0  0  0  0  0  0  0
  145.0340   73.3030  220.9220 C   0  0  0  0  0  0  0  0  0  0  0  0
  143.8100   72.7040  220.7460 C   0  0  0  0  0  0  0  0  0  0  0  0
  143.6600   71.3710  221.1560 O   0  0  0  0  0  0  0  0  0  0  0  0
  142.7390   73.3810  220.1810 C   0  0  0  0  0  0  0  0  0  0  0  0
  142.9452   79.2352  216.3350 H   0  0  0  0  0  0  0  0  0  0  0  0
  142.9065   81.7187  216.4831 H   0  0  0  0  0  0  0  0  0  0  0  0
  142.0578   82.8176  218.5187 H   0  0  0  0  0  0  0  0  0  0  0  0
  141.2286   81.4761  220.4516 H   0  0  0  0  0  0  0  0  0  0  0  0
  140.1368   75.8653  221.4014 H   0  0  0  0  0  0  0  0  0  0  0  0
  141.1213   76.4266  223.5447 H   0  0  0  0  0  0  0  0  0  0  0  0
  139.2391   79.1142  223.4555 H   0  0  0  0  0  0  0  0  0  0  0  0
  139.7259   81.4449  224.0536 H   0  0  0  0  0  0  0  0  0  0  0  0
  142.0673   82.2994  224.0607 H   0  0  0  0  0  0  0  0  0  0  0  0
  143.8963   80.7256  223.4487 H   0  0  0  0  0  0  0  0  0  0  0  0
  143.4028   78.3957  222.8534 H   0  0  0  0  0  0  0  0  0  0  0  0
  140.7717   75.0012  219.6469 H   0  0  0  0  0  0  0  0  0  0  0  0
  141.7190   75.1718  218.0802 H   0  0  0  0  0  0  0  0  0  0  0  0
  144.2202   76.3399  219.6302 H   0  0  0  0  0  0  0  0  0  0  0  0
  146.1246   75.1279  220.6376 H   0  0  0  0  0  0  0  0  0  0  0  0
  145.8782   72.7589  221.3706 H   0  0  0  0  0  0  0  0  0  0  0  0
  144.2970   70.9790  221.8330 H   0  0  0  0  0  0  0  0  0  0  0  0
  141.7780   72.8597  220.0598 H   0  0  0  0  0  0  0  0  0  0  0  0
  1  2  2  0
  2  3  1  0
  3  4  2  0
  4  5  1  0
  5  6  2  0
  6  7  1  0
  7  8  2  0
  8  9  1  0
  9 10  2  0
 10 11  1  0
 11 12  2  0
 12 13  1  0
 13 14  2  0
 14 15  1  0
 15 16  2  0
 16 17  1  0
 17 18  2  0
 10 19  1  0
 19 20  1  0
 20 21  1  0
 21 22  2  0
 22 23  1  0
 23 24  2  0
 24 25  1  0
 25 26  1  0
 25 27  2  0
 19  2  1  0
 27 21  1  0
  8  3  1  0
 18 13  1  0
  4 28  1  0
  5 29  1  0
  6 30  1  0
  7 31  1  0
 11 32  1  0
 12 33  1  0
 14 34  1  0
 15 35  1  0
 16 36  1  0
 17 37  1  0
 18 38  1  0
 20 39  1  0
 20 40  1  0
 22 41  1  0
 23 42  1  0
 24 43  1  0
 26 44  1  0
 27 45  1  0
M  END
>  <smiles>  (12) 
O=c1c2ccccc2nc(/C=C/c2ccccc2)n1Cc1cccc(O)c1

>  <score_type>  (12) 
oracle

>  <origin>  (12) 
autodockgpu

>  <m_score__min__energy>  (12) 
-8.5899999999999999

>  <m_primary>  (12) 
energy

>  <rmsd>  (12) 
7.261710918222195

>  <m_score__min__rmsd>  (12) 
7.261710918222195

>  <meeko>  (12) 
{"free_energy": -7.08, "intermolecular_energy": -8.87, "internal_energy": -1.38, "cluster_size": 4, "cluster_id": 2, "rank_in_cluster": 3}

>  <energy>  (12) 
-7.4

>  <cluster_rmsd>  (12) 
1.38

>  <cluster>  (12) 
1

$$$$

     RDKit          3D

 45 48  0  0  0  0  0  0  0  0999 V2000
  139.9630   74.4210  221.9100 O   0  0  0  0  0  0  0  0  0  0  0  0
  140.6460   75.2370  221.2390 C   0  0  0  0  0  0  0  0  0  0  0  0
  141.9090   74.7950  220.8620 C   0  0  0  0  0  0  0  0  0  0  0  0
  142.3610   73.5400  221.2140 C   0  0  0  0  0  0  0  0  0  0  0  0
  143.6250   73.1250  220.8260 C   0  0  0  0  0  0  0  0  0  0  0  0
  144.4250   73.9690  220.0890 C   0  0  0  0  0  0  0  0  0  0  0  0
  144.0010   75.2350  219.7210 C   0  0  0  0  0  0  0  0  0  0  0  0
  142.7470   75.6130  220.1210 C   0  0  0  0  0  0  0  0  0  0  0  0
  142.2600   76.8250  219.8050 N   0  0  0  0  0  0  0  0  0  0  0  0
  141.0330   77.2300  220.1810 C   0  0  0  0  0  0  0  0  0  0  0  0
  140.6490   78.5870  219.7840 C   0  0  0  0  0  0  0  0  0  0  0  0
  141.4600   79.6080  219.9780 C   0  0  0  0  0  0  0  0  0  0  0  0
  141.8400   80.1160  221.2840 C   0  0  0  0  0  0  0  0  0  0  0  0
  142.5830   79.4310  222.2020 C   0  0  0  0  0  0  0  0  0  0  0  0
  142.9180   79.9650  223.4340 C   0  0  0  0  0  0  0  0  0  0  0  0
  142.5090   81.2320  223.7960 C   0  0  0  0  0  0  0  0  0  0  0  0
  141.7580   81.9400  222.8840 C   0  0  0  0  0  0  0  0  0  0  0  0
  141.4300   81.4000  221.6580 C   0  0  0  0  0  0  0  0  0  0  0  0
  140.1860   76.4710  220.8990 N   0  0  0  0  0  0  0  0  0  0  0  0
  138.8650   76.8640  221.2870 C   0  0  0  0  0  0  0  0  0  0  0  0
  138.8030   78.0020  222.2370 C   0  0  0  0  0  0  0  0  0  0  0  0
  139.8060   78.3440  223.1090 C   0  0  0  0  0  0  0  0  0  0  0  0
  139.6990   79.4250  223.9920 C   0  0  0  0  0  0  0  0  0  0  0  0
  138.5620   80.2010  224.0230 C   0  0  0  0  0  0  0  0  0  0  0  0
  137.5490   79.8710  223.1560 C   0  0  0  0  0  0  0  0  0  0  0  0
  136.3830   80.6510  223.1720 O   0  0  0  0  0  0  0  0  0  0  0  0
  137.6560   78.8000  222.2810 C   0  0  0  0  0  0  0  0  0  0  0  0
  141.7182   72.8689  221.8025 H   0  0  0  0  0  0  0  0  0  0  0  0
  143.9878   72.1250  221.1058 H   0  0  0  0  0  0  0  0  0  0  0  0
  145.4260   73.6293  219.7848 H   0  0  0  0  0  0  0  0  0  0  0  0
  144.6433   75.9074  219.1332 H   0  0  0  0  0  0  0  0  0  0  0  0
  139.6679   78.7567  219.3164 H   0  0  0  0  0  0  0  0  0  0  0  0
  141.8766   80.1084  219.0914 H   0  0  0  0  0  0  0  0  0  0  0  0
  142.9283   78.4167  221.9531 H   0  0  0  0  0  0  0  0  0  0  0  0
  143.5202   79.3696  224.1361 H   0  0  0  0  0  0  0  0  0  0  0  0
  142.7724   81.6599  224.7745 H   0  0  0  0  0  0  0  0  0  0  0  0
  141.4139   82.9535  223.1378 H   0  0  0  0  0  0  0  0  0  0  0  0
  140.8293   81.9956  220.9548 H   0  0  0  0  0  0  0  0  0  0  0  0
  138.3126   77.1471  220.3789 H   0  0  0  0  0  0  0  0  0  0  0  0
  138.4293   76.0011  221.8120 H   0  0  0  0  0  0  0  0  0  0  0  0
  140.7292   77.7459  223.1143 H   0  0  0  0  0  0  0  0  0  0  0  0
  140.5338   79.6574  224.6696 H   0  0  0  0  0  0  0  0  0  0  0  0
  138.4686   81.0513  224.7145 H   0  0  0  0  0  0  0  0  0  0  0  0
  135.7380   80.6060  222.3980 H   0  0  0  0  0  0  0  0  0  0  0  0
  136.8181   78.5731  221.6054 H   0  0  0  0  0  0  0  0  0  0  0  0
  1  2  2  0
  2  3  1  0
  3  4  2  0
  4  5  1  0
  5  6  2  0
  6  7  1  0
  7  8  2  0
  8  9  1  0
  9 10  2  0
 10 11  1  0
 11 12  2  0
 12 13  1  0
 13 14  2  0
 14 15  1  0
 15 16  2  0
 16 17  1  0
 17 18  2  0
 10 19  1  0
 19 20  1  0
 20 21  1  0
 21 22  2  0
 22 23  1  0
 23 24  2  0
 24 25  1  0
 25 26  1  0
 25 27  2  0
 19  2  1  0
 27 21  1  0
  8  3  1  0
 18 13  1  0
  4 28  1  0
  5 29  1  0
  6 30  1  0
  7 31  1  0
 11 32  1  0
 12 33  1  0
 14 34  1  0
 15 35  1  0
 16 36  1  0
 17 37  1  0
 18 38  1  0
 20 39  1  0
 20 40  1  0
 22 41  1  0
 23 42  1  0
 24 43  1  0
 26 44  1  0
 27 45  1  0
M  END
>  <smiles>  (13) 
O=c1c2ccccc2nc(/C=C/c2ccccc2)n1Cc1cccc(O)c1

>  <score_type>  (13) 
oracle

>  <origin>  (13) 
autodockgpu

>  <m_score__min__energy>  (13) 
-8.5899999999999999

>  <m_primary>  (13) 
energy

>  <rmsd>  (13) 
4.5686735666359155

>  <m_score__min__rmsd>  (13) 
4.5686735666359155

>  <meeko>  (13) 
{"free_energy": -6.59, "intermolecular_energy": -8.38, "internal_energy": -1.81, "cluster_size": 3, "cluster_id": 9, "rank_in_cluster": 1}

>  <energy>  (13) 
-7.39

>  <cluster_rmsd>  (13) 
1.44

>  <cluster>  (13) 
1

$$$$

     RDKit          3D

 45 48  0  0  0  0  0  0  0  0999 V2000
  142.7770   74.6860  220.8450 O   0  0  0  0  0  0  0  0  0  0  0  0
  141.6670   74.3350  221.3230 C   0  0  0  0  0  0  0  0  0  0  0  0
  140.7920   75.3710  221.6300 C   0  0  0  0  0  0  0  0  0  0  0  0
  141.1410   76.6880  221.4150 C   0  0  0  0  0  0  0  0  0  0  0  0
  140.2490   77.7010  221.7300 C   0  0  0  0  0  0  0  0  0  0  0  0
  139.0170   77.3860  222.2570 C   0  0  0  0  0  0  0  0  0  0  0  0
  138.6370   76.0750  222.4850 C   0  0  0  0  0  0  0  0  0  0  0  0
  139.5420   75.0990  222.1630 C   0  0  0  0  0  0  0  0  0  0  0  0
  139.2510   73.8010  222.3530 N   0  0  0  0  0  0  0  0  0  0  0  0
  140.1150   72.8160  222.0480 C   0  0  0  0  0  0  0  0  0  0  0  0
  139.6690   71.4500  222.3340 C   0  0  0  0  0  0  0  0  0  0  0  0
  139.0690   71.1540  223.4710 C   0  0  0  0  0  0  0  0  0  0  0  0
  139.7490   71.0360  224.7490 C   0  0  0  0  0  0  0  0  0  0  0  0
  140.7270   71.8780  225.1930 C   0  0  0  0  0  0  0  0  0  0  0  0
  141.3420   71.7190  226.4230 C   0  0  0  0  0  0  0  0  0  0  0  0
  140.9900   70.6860  227.2670 C   0  0  0  0  0  0  0  0  0  0  0  0
  140.0050   69.8250  226.8370 C   0  0  0  0  0  0  0  0  0  0  0  0
  139.3970   69.9910  225.6100 C   0  0  0  0  0  0  0  0  0  0  0  0
  141.3370   73.0320  221.5280 N   0  0  0  0  0  0  0  0  0  0  0  0
  142.2640   72.0030  221.1660 C   0  0  0  0  0  0  0  0  0  0  0  0
  142.9340   72.1940  219.8560 C   0  0  0  0  0  0  0  0  0  0  0  0
  142.3280   72.0160  218.6390 C   0  0  0  0  0  0  0  0  0  0  0  0
  143.0040   72.2040  217.4270 C   0  0  0  0  0  0  0  0  0  0  0  0
  144.3280   72.5810  217.4080 C   0  0  0  0  0  0  0  0  0  0  0  0
  144.9490   72.7630  218.6200 C   0  0  0  0  0  0  0  0  0  0  0  0
  146.2980   73.1490  218.6220 O   0  0  0  0  0  0  0  0  0  0  0  0
  144.2780   72.5780  219.8210 C   0  0  0  0  0  0  0  0  0  0  0  0
  142.1268   76.9343  220.9937 H   0  0  0  0  0  0  0  0  0  0  0  0
  140.5244   78.7522  221.5596 H   0  0  0  0  0  0  0  0  0  0  0  0
  138.3163   78.1974  222.5033 H   0  0  0  0  0  0  0  0  0  0  0  0
  137.6514   75.8278  222.9063 H   0  0  0  0  0  0  0  0  0  0  0  0
  139.8371   70.6586  221.5888 H   0  0  0  0  0  0  0  0  0  0  0  0
  137.9822   70.9855  223.4498 H   0  0  0  0  0  0  0  0  0  0  0  0
  141.0382   72.7141  224.5495 H   0  0  0  0  0  0  0  0  0  0  0  0
  142.1241   72.4279  226.7325 H   0  0  0  0  0  0  0  0  0  0  0  0
  141.4769   70.5553  228.2447 H   0  0  0  0  0  0  0  0  0  0  0  0
  139.6975   68.9899  227.4836 H   0  0  0  0  0  0  0  0  0  0  0  0
  138.6144   69.2827  225.3002 H   0  0  0  0  0  0  0  0  0  0  0  0
  143.0413   71.9554  221.9429 H   0  0  0  0  0  0  0  0  0  0  0  0
  141.6763   71.0773  221.0782 H   0  0  0  0  0  0  0  0  0  0  0  0
  141.2706   71.7140  218.6137 H   0  0  0  0  0  0  0  0  0  0  0  0
  142.4702   72.0484  216.4779 H   0  0  0  0  0  0  0  0  0  0  0  0
  144.8669   72.7305  216.4608 H   0  0  0  0  0  0  0  0  0  0  0  0
  146.5410   74.1280  218.6400 H   0  0  0  0  0  0  0  0  0  0  0  0
  144.8161   72.7372  220.7671 H   0  0  0  0  0  0  0  0  0  0  0  0
  1  2  2  0
  2  3  1  0
  3  4  2  0
  4  5  1  0
  5  6  2  0
  6  7  1  0
  7  8  2  0
  8  9  1  0
  9 10  2  0
 10 11  1  0
 11 12  2  0
 12 13  1  0
 13 14  2  0
 14 15  1  0
 15 16  2  0
 16 17  1  0
 17 18  2  0
 10 19  1  0
 19 20  1  0
 20 21  1  0
 21 22  2  0
 22 23  1  0
 23 24  2  0
 24 25  1  0
 25 26  1  0
 25 27  2  0
 19  2  1  0
 27 21  1  0
  8  3  1  0
 18 13  1  0
  4 28  1  0
  5 29  1  0
  6 30  1  0
  7 31  1  0
 11 32  1  0
 12 33  1  0
 14 34  1  0
 15 35  1  0
 16 36  1  0
 17 37  1  0
 18 38  1  0
 20 39  1  0
 20 40  1  0
 22 41  1  0
 23 42  1  0
 24 43  1  0
 26 44  1  0
 27 45  1  0
M  END
>  <smiles>  (14) 
O=c1c2ccccc2nc(/C=C/c2ccccc2)n1Cc1cccc(O)c1

>  <score_type>  (14) 
oracle

>  <origin>  (14) 
autodockgpu

>  <m_score__min__energy>  (14) 
-8.5899999999999999

>  <m_primary>  (14) 
energy

>  <rmsd>  (14) 
7.843911913466462

>  <m_score__min__rmsd>  (14) 
7.843911913466462

>  <meeko>  (14) 
{"free_energy": -7.52, "intermolecular_energy": -9.31, "internal_energy": -1.0, "cluster_size": 14, "cluster_id": 1, "rank_in_cluster": 10}

>  <energy>  (14) 
-7.24

>  <cluster_rmsd>  (14) 
1.68

>  <cluster>  (14) 
1

$$$$

     RDKit          3D

 45 48  0  0  0  0  0  0  0  0999 V2000
  137.8550   76.7730  222.0230 O   0  0  0  0  0  0  0  0  0  0  0  0
  138.5380   77.6700  222.5820 C   0  0  0  0  0  0  0  0  0  0  0  0
  137.8160   78.7410  223.0960 C   0  0  0  0  0  0  0  0  0  0  0  0
  136.4420   78.7930  222.9880 C   0  0  0  0  0  0  0  0  0  0  0  0
  135.7470   79.8730  223.5100 C   0  0  0  0  0  0  0  0  0  0  0  0
  136.4330   80.8900  224.1340 C   0  0  0  0  0  0  0  0  0  0  0  0
  137.8120   80.8670  224.2580 C   0  0  0  0  0  0  0  0  0  0  0  0
  138.4680   79.7860  223.7310 C   0  0  0  0  0  0  0  0  0  0  0  0
  139.8050   79.6870  223.8100 N   0  0  0  0  0  0  0  0  0  0  0  0
  140.4820   78.6400  223.3040 C   0  0  0  0  0  0  0  0  0  0  0  0
  141.9390   78.6830  223.4420 C   0  0  0  0  0  0  0  0  0  0  0  0
  142.6390   79.6960  222.9710 C   0  0  0  0  0  0  0  0  0  0  0  0
  142.1090   80.7110  222.0770 C   0  0  0  0  0  0  0  0  0  0  0  0
  141.5380   81.8840  222.4800 C   0  0  0  0  0  0  0  0  0  0  0  0
  141.0490   82.8180  221.5830 C   0  0  0  0  0  0  0  0  0  0  0  0
  141.1160   82.6030  220.2220 C   0  0  0  0  0  0  0  0  0  0  0  0
  141.6880   81.4250  219.7950 C   0  0  0  0  0  0  0  0  0  0  0  0
  142.1730   80.5000  220.6960 C   0  0  0  0  0  0  0  0  0  0  0  0
  139.8920   77.6040  222.6810 N   0  0  0  0  0  0  0  0  0  0  0  0
  140.5840   76.4630  222.1610 C   0  0  0  0  0  0  0  0  0  0  0  0
  141.2660   76.6820  220.8610 C   0  0  0  0  0  0  0  0  0  0  0  0
  140.9740   77.7010  219.9900 C   0  0  0  0  0  0  0  0  0  0  0  0
  141.6420   77.8630  218.7710 C   0  0  0  0  0  0  0  0  0  0  0  0
  142.6370   76.9920  218.3900 C   0  0  0  0  0  0  0  0  0  0  0  0
  142.9420   75.9670  219.2520 C   0  0  0  0  0  0  0  0  0  0  0  0
  143.9540   75.0690  218.8810 O   0  0  0  0  0  0  0  0  0  0  0  0
  142.2800   75.8060  220.4600 C   0  0  0  0  0  0  0  0  0  0  0  0
  135.8980   77.9781  222.4880 H   0  0  0  0  0  0  0  0  0  0  0  0
  134.6511   79.9170  223.4257 H   0  0  0  0  0  0  0  0  0  0  0  0
  135.8718   81.7424  224.5445 H   0  0  0  0  0  0  0  0  0  0  0  0
  138.3570   81.6813  224.7579 H   0  0  0  0  0  0  0  0  0  0  0  0
  142.4586   77.8557  223.9475 H   0  0  0  0  0  0  0  0  0  0  0  0
  143.6931   79.7780  223.2747 H   0  0  0  0  0  0  0  0  0  0  0  0
  141.4639   82.0945  223.5571 H   0  0  0  0  0  0  0  0  0  0  0  0
  140.5993   83.7476  221.9619 H   0  0  0  0  0  0  0  0  0  0  0  0
  140.7281   83.3428  219.5063 H   0  0  0  0  0  0  0  0  0  0  0  0
  141.7593   81.2183  218.7169 H   0  0  0  0  0  0  0  0  0  0  0  0
  142.6228   79.5702  220.3176 H   0  0  0  0  0  0  0  0  0  0  0  0
  141.3425   76.1591  222.8974 H   0  0  0  0  0  0  0  0  0  0  0  0
  139.8179   75.6945  221.9807 H   0  0  0  0  0  0  0  0  0  0  0  0
  140.1847   78.4180  220.2601 H   0  0  0  0  0  0  0  0  0  0  0  0
  141.3682   78.6975  218.1087 H   0  0  0  0  0  0  0  0  0  0  0  0
  143.1668   77.1118  217.4335 H   0  0  0  0  0  0  0  0  0  0  0  0
  144.6660   75.3560  218.2270 H   0  0  0  0  0  0  0  0  0  0  0  0
  142.5589   74.9699  221.1181 H   0  0  0  0  0  0  0  0  0  0  0  0
  1  2  2  0
  2  3  1  0
  3  4  2  0
  4  5  1  0
  5  6  2  0
  6  7  1  0
  7  8  2  0
  8  9  1  0
  9 10  2  0
 10 11  1  0
 11 12  2  0
 12 13  1  0
 13 14  2  0
 14 15  1  0
 15 16  2  0
 16 17  1  0
 17 18  2  0
 10 19  1  0
 19 20  1  0
 20 21  1  0
 21 22  2  0
 22 23  1  0
 23 24  2  0
 24 25  1  0
 25 26  1  0
 25 27  2  0
 19  2  1  0
 27 21  1  0
  8  3  1  0
 18 13  1  0
  4 28  1  0
  5 29  1  0
  6 30  1  0
  7 31  1  0
 11 32  1  0
 12 33  1  0
 14 34  1  0
 15 35  1  0
 16 36  1  0
 17 37  1  0
 18 38  1  0
 20 39  1  0
 20 40  1  0
 22 41  1  0
 23 42  1  0
 24 43  1  0
 26 44  1  0
 27 45  1  0
M  END
>  <smiles>  (15) 
O=c1c2ccccc2nc(/C=C/c2ccccc2)n1Cc1cccc(O)c1

>  <score_type>  (15) 
oracle

>  <origin>  (15) 
autodockgpu

>  <m_score__min__energy>  (15) 
-8.5899999999999999

>  <m_primary>  (15) 
energy

>  <rmsd>  (15) 
6.197074392998138

>  <m_score__min__rmsd>  (15) 
6.197074392998138

>  <meeko>  (15) 
{"free_energy": -6.36, "intermolecular_energy": -8.15, "internal_energy": -1.89, "cluster_size": 1, "cluster_id": 10, "rank_in_cluster": 1}

>  <energy>  (15) 
-7.36

>  <cluster_rmsd>  (15) 
0.0

>  <cluster>  (15) 
2

$$$$

     RDKit          3D

 45 48  0  0  0  0  0  0  0  0999 V2000
  140.2610   71.8730  225.0200 O   0  0  0  0  0  0  0  0  0  0  0  0
  139.7510   70.7220  225.0060 C   0  0  0  0  0  0  0  0  0  0  0  0
  140.0810   69.9070  226.0820 C   0  0  0  0  0  0  0  0  0  0  0  0
  140.9150   70.3530  227.0870 C   0  0  0  0  0  0  0  0  0  0  0  0
  141.2270   69.5180  228.1480 C   0  0  0  0  0  0  0  0  0  0  0  0
  140.7040   68.2460  228.1940 C   0  0  0  0  0  0  0  0  0  0  0  0
  139.8650   67.7690  227.2010 C   0  0  0  0  0  0  0  0  0  0  0  0
  139.5760   68.6190  226.1670 C   0  0  0  0  0  0  0  0  0  0  0  0
  138.7700   68.2330  225.1640 N   0  0  0  0  0  0  0  0  0  0  0  0
  138.4650   69.0410  224.1320 C   0  0  0  0  0  0  0  0  0  0  0  0
  137.5940   68.4750  223.1000 C   0  0  0  0  0  0  0  0  0  0  0  0
  136.3230   68.8160  223.0200 C   0  0  0  0  0  0  0  0  0  0  0  0
  135.6170   69.5890  224.0270 C   0  0  0  0  0  0  0  0  0  0  0  0
  135.4580   70.9440  224.0010 C   0  0  0  0  0  0  0  0  0  0  0  0
  134.7740   71.6310  224.9890 C   0  0  0  0  0  0  0  0  0  0  0  0
  134.2150   70.9680  226.0610 C   0  0  0  0  0  0  0  0  0  0  0  0
  134.3640   69.5990  226.1060 C   0  0  0  0  0  0  0  0  0  0  0  0
  135.0470   68.9220  225.1170 C   0  0  0  0  0  0  0  0  0  0  0  0
  138.9300   70.2980  224.0090 N   0  0  0  0  0  0  0  0  0  0  0  0
  138.5980   71.1900  222.9390 C   0  0  0  0  0  0  0  0  0  0  0  0
  139.7600   71.8140  222.2590 C   0  0  0  0  0  0  0  0  0  0  0  0
  140.6830   71.1300  221.5090 C   0  0  0  0  0  0  0  0  0  0  0  0
  141.7680   71.7630  220.8900 C   0  0  0  0  0  0  0  0  0  0  0  0
  141.9550   73.1210  221.0110 C   0  0  0  0  0  0  0  0  0  0  0  0
  141.0380   73.8200  221.7580 C   0  0  0  0  0  0  0  0  0  0  0  0
  141.2110   75.2060  221.8920 O   0  0  0  0  0  0  0  0  0  0  0  0
  139.9630   73.1930  222.3710 C   0  0  0  0  0  0  0  0  0  0  0  0
  141.3316   71.3702  227.0459 H   0  0  0  0  0  0  0  0  0  0  0  0
  141.8908   69.8709  228.9510 H   0  0  0  0  0  0  0  0  0  0  0  0
  140.9588   67.5918  229.0408 H   0  0  0  0  0  0  0  0  0  0  0  0
  139.4488   66.7516  227.2410 H   0  0  0  0  0  0  0  0  0  0  0  0
  138.0069   67.7535  222.3797 H   0  0  0  0  0  0  0  0  0  0  0  0
  135.7598   68.4938  222.1318 H   0  0  0  0  0  0  0  0  0  0  0  0
  135.8896   71.5117  223.1635 H   0  0  0  0  0  0  0  0  0  0  0  0
  134.6747   72.7242  224.9178 H   0  0  0  0  0  0  0  0  0  0  0  0
  133.6718   71.5104  226.8488 H   0  0  0  0  0  0  0  0  0  0  0  0
  133.9306   69.0358  226.9456 H   0  0  0  0  0  0  0  0  0  0  0  0
  135.1462   67.8287  225.1871 H   0  0  0  0  0  0  0  0  0  0  0  0
  138.0266   70.6245  222.1882 H   0  0  0  0  0  0  0  0  0  0  0  0
  138.0279   72.0145  223.3919 H   0  0  0  0  0  0  0  0  0  0  0  0
  140.5663   70.0428  221.3893 H   0  0  0  0  0  0  0  0  0  0  0  0
  142.4797   71.1672  220.2996 H   0  0  0  0  0  0  0  0  0  0  0  0
  142.8047   73.6266  220.5289 H   0  0  0  0  0  0  0  0  0  0  0  0
  142.1360   75.6050  221.8290 H   0  0  0  0  0  0  0  0  0  0  0  0
  139.2539   73.7945  222.9587 H   0  0  0  0  0  0  0  0  0  0  0  0
  1  2  2  0
  2  3  1  0
  3  4  2  0
  4  5  1  0
  5  6  2  0
  6  7  1  0
  7  8  2  0
  8  9  1  0
  9 10  2  0
 10 11  1  0
 11 12  2  0
 12 13  1  0
 13 14  2  0
 14 15  1  0
 15 16  2  0
 16 17  1  0
 17 18  2  0
 10 19  1  0
 19 20  1  0
 20 21  1  0
 21 22  2  0
 22 23  1  0
 23 24  2  0
 24 25  1  0
 25 26  1  0
 25 27  2  0
 19  2  1  0
 27 21  1  0
  8  3  1  0
 18 13  1  0
  4 28  1  0
  5 29  1  0
  6 30  1  0
  7 31  1  0
 11 32  1  0
 12 33  1  0
 14 34  1  0
 15 35  1  0
 16 36  1  0
 17 37  1  0
 18 38  1  0
 20 39  1  0
 20 40  1  0
 22 41  1  0
 23 42  1  0
 24 43  1  0
 26 44  1  0
 27 45  1  0
M  END
>  <smiles>  (16) 
O=c1c2ccccc2nc(/C=C/c2ccccc2)n1Cc1cccc(O)c1

>  <score_type>  (16) 
oracle

>  <origin>  (16) 
autodockgpu

>  <m_score__min__energy>  (16) 
-8.5899999999999999

>  <m_primary>  (16) 
energy

>  <rmsd>  (16) 
10.20890756576043

>  <m_score__min__rmsd>  (16) 
10.20890756576043

>  <meeko>  (16) 
{"free_energy": -7.24, "intermolecular_energy": -9.03, "internal_energy": -1.46, "cluster_size": 21, "cluster_id": 4, "rank_in_cluster": 3}

>  <energy>  (16) 
-7.09

>  <cluster_rmsd>  (16) 
1.55

>  <cluster>  (16) 
2

$$$$

     RDKit          3D

 45 48  0  0  0  0  0  0  0  0999 V2000
  140.3880   71.8400  224.9710 O   0  0  0  0  0  0  0  0  0  0  0  0
  139.7320   70.7670  224.9970 C   0  0  0  0  0  0  0  0  0  0  0  0
  140.0330   69.9050  226.0460 C   0  0  0  0  0  0  0  0  0  0  0  0
  140.9920   70.2290  226.9830 C   0  0  0  0  0  0  0  0  0  0  0  0
  141.2720   69.3510  228.0190 C   0  0  0  0  0  0  0  0  0  0  0  0
  140.5910   68.1580  228.1060 C   0  0  0  0  0  0  0  0  0  0  0  0
  139.6250   67.8040  227.1800 C   0  0  0  0  0  0  0  0  0  0  0  0
  139.3720   68.6930  226.1700 C   0  0  0  0  0  0  0  0  0  0  0  0
  138.4490   68.4250  225.2320 N   0  0  0  0  0  0  0  0  0  0  0  0
  138.1750   69.2760  224.2260 C   0  0  0  0  0  0  0  0  0  0  0  0
  137.1620   68.8370  223.2640 C   0  0  0  0  0  0  0  0  0  0  0  0
  135.8770   68.8980  223.5540 C   0  0  0  0  0  0  0  0  0  0  0  0
  135.2870   69.8640  224.4640 C   0  0  0  0  0  0  0  0  0  0  0  0
  135.2420   71.2120  224.2500 C   0  0  0  0  0  0  0  0  0  0  0  0
  134.6660   72.0880  225.1530 C   0  0  0  0  0  0  0  0  0  0  0  0
  134.1040   71.6340  226.3280 C   0  0  0  0  0  0  0  0  0  0  0  0
  134.1400   70.2770  226.5630 C   0  0  0  0  0  0  0  0  0  0  0  0
  134.7150   69.4100  225.6580 C   0  0  0  0  0  0  0  0  0  0  0  0
  138.7900   70.4620  224.0660 N   0  0  0  0  0  0  0  0  0  0  0  0
  138.4970   71.3990  223.0230 C   0  0  0  0  0  0  0  0  0  0  0  0
  139.6830   71.9270  222.3040 C   0  0  0  0  0  0  0  0  0  0  0  0
  140.5570   71.1600  221.5760 C   0  0  0  0  0  0  0  0  0  0  0  0
  141.6670   71.7040  220.9180 C   0  0  0  0  0  0  0  0  0  0  0  0
  141.9300   73.0540  220.9750 C   0  0  0  0  0  0  0  0  0  0  0  0
  141.0630   73.8350  221.7000 C   0  0  0  0  0  0  0  0  0  0  0  0
  141.3140   75.2140  221.7700 O   0  0  0  0  0  0  0  0  0  0  0  0
  139.9630   73.2960  222.3520 C   0  0  0  0  0  0  0  0  0  0  0  0
  141.5342   71.1832  226.9084 H   0  0  0  0  0  0  0  0  0  0  0  0
  142.0354   69.6069  228.7685 H   0  0  0  0  0  0  0  0  0  0  0  0
  140.8202   67.4687  228.9321 H   0  0  0  0  0  0  0  0  0  0  0  0
  139.0837   66.8492  227.2525 H   0  0  0  0  0  0  0  0  0  0  0  0
  137.4779   68.4502  222.2839 H   0  0  0  0  0  0  0  0  0  0  0  0
  135.2074   68.1687  223.0747 H   0  0  0  0  0  0  0  0  0  0  0  0
  135.6799   71.6164  223.3255 H   0  0  0  0  0  0  0  0  0  0  0  0
  134.6561   73.1651  224.9300 H   0  0  0  0  0  0  0  0  0  0  0  0
  133.6456   72.3275  227.0484 H   0  0  0  0  0  0  0  0  0  0  0  0
  133.7020   69.8778  227.4897 H   0  0  0  0  0  0  0  0  0  0  0  0
  134.7244   68.3328  225.8804 H   0  0  0  0  0  0  0  0  0  0  0  0
  137.8468   70.9005  222.2890 H   0  0  0  0  0  0  0  0  0  0  0  0
  138.0224   72.2635  223.5102 H   0  0  0  0  0  0  0  0  0  0  0  0
  140.3791   70.0767  221.5065 H   0  0  0  0  0  0  0  0  0  0  0  0
  142.3375   71.0439  220.3481 H   0  0  0  0  0  0  0  0  0  0  0  0
  142.7993   73.4898  220.4608 H   0  0  0  0  0  0  0  0  0  0  0  0
  142.2620   75.5550  221.7250 H   0  0  0  0  0  0  0  0  0  0  0  0
  139.2958   73.9612  222.9198 H   0  0  0  0  0  0  0  0  0  0  0  0
  1  2  2  0
  2  3  1  0
  3  4  2  0
  4  5  1  0
  5  6  2  0
  6  7  1  0
  7  8  2  0
  8  9  1  0
  9 10  2  0
 10 11  1  0
 11 12  2  0
 12 13  1  0
 13 14  2  0
 14 15  1  0
 15 16  2  0
 16 17  1  0
 17 18  2  0
 10 19  1  0
 19 20  1  0
 20 21  1  0
 21 22  2  0
 22 23  1  0
 23 24  2  0
 24 25  1  0
 25 26  1  0
 25 27  2  0
 19  2  1  0
 27 21  1  0
  8  3  1  0
 18 13  1  0
  4 28  1  0
  5 29  1  0
  6 30  1  0
  7 31  1  0
 11 32  1  0
 12 33  1  0
 14 34  1  0
 15 35  1  0
 16 36  1  0
 17 37  1  0
 18 38  1  0
 20 39  1  0
 20 40  1  0
 22 41  1  0
 23 42  1  0
 24 43  1  0
 26 44  1  0
 27 45  1  0
M  END
>  <smiles>  (17) 
O=c1c2ccccc2nc(/C=C/c2ccccc2)n1Cc1cccc(O)c1

>  <score_type>  (17) 
oracle

>  <origin>  (17) 
autodockgpu

>  <m_score__min__energy>  (17) 
-8.5899999999999999

>  <m_primary>  (17) 
energy

>  <rmsd>  (17) 
10.169928849336578

>  <m_score__min__rmsd>  (17) 
10.169928849336578

>  <meeko>  (17) 
{"free_energy": -7.16, "intermolecular_energy": -8.95, "internal_energy": -1.4, "cluster_size": 21, "cluster_id": 4, "rank_in_cluster": 16}

>  <energy>  (17) 
-7.08

>  <cluster_rmsd>  (17) 
1.54

>  <cluster>  (17) 
2

$$$$

     RDKit          3D

 45 48  0  0  0  0  0  0  0  0999 V2000
  136.9380   70.4600  221.6390 O   0  0  0  0  0  0  0  0  0  0  0  0
  137.0410   70.0030  222.8060 C   0  0  0  0  0  0  0  0  0  0  0  0
  135.9590   70.2510  223.6440 C   0  0  0  0  0  0  0  0  0  0  0  0
  134.8570   70.9530  223.2000 C   0  0  0  0  0  0  0  0  0  0  0  0
  133.7930   71.1860  224.0570 C   0  0  0  0  0  0  0  0  0  0  0  0
  133.8410   70.7140  225.3490 C   0  0  0  0  0  0  0  0  0  0  0  0
  134.9320   70.0070  225.8250 C   0  0  0  0  0  0  0  0  0  0  0  0
  135.9660   69.7940  224.9530 C   0  0  0  0  0  0  0  0  0  0  0  0
  137.0610   69.1170  225.3360 N   0  0  0  0  0  0  0  0  0  0  0  0
  138.0960   68.8890  224.5060 C   0  0  0  0  0  0  0  0  0  0  0  0
  139.2310   68.1580  225.0710 C   0  0  0  0  0  0  0  0  0  0  0  0
  139.6710   68.4180  226.2870 C   0  0  0  0  0  0  0  0  0  0  0  0
  140.1580   69.7140  226.7230 C   0  0  0  0  0  0  0  0  0  0  0  0
  139.9690   70.2420  227.9680 C   0  0  0  0  0  0  0  0  0  0  0  0
  140.4580   71.4850  228.3300 C   0  0  0  0  0  0  0  0  0  0  0  0
  141.1670   72.2600  227.4350 C   0  0  0  0  0  0  0  0  0  0  0  0
  141.3680   71.7460  226.1730 C   0  0  0  0  0  0  0  0  0  0  0  0
  140.8790   70.5060  225.8210 C   0  0  0  0  0  0  0  0  0  0  0  0
  138.1320   69.3120  223.2290 N   0  0  0  0  0  0  0  0  0  0  0  0
  139.2050   69.0590  222.3160 C   0  0  0  0  0  0  0  0  0  0  0  0
  139.8180   70.2700  221.7160 C   0  0  0  0  0  0  0  0  0  0  0  0
  140.5970   70.2700  220.5870 C   0  0  0  0  0  0  0  0  0  0  0  0
  141.1590   71.4400  220.0610 C   0  0  0  0  0  0  0  0  0  0  0  0
  140.9490   72.6580  220.6660 C   0  0  0  0  0  0  0  0  0  0  0  0
  140.1700   72.6740  221.7980 C   0  0  0  0  0  0  0  0  0  0  0  0
  139.9440   73.9060  222.4300 O   0  0  0  0  0  0  0  0  0  0  0  0
  139.6130   71.5150  222.3190 C   0  0  0  0  0  0  0  0  0  0  0  0
  134.8231   71.3275  222.1663 H   0  0  0  0  0  0  0  0  0  0  0  0
  132.9136   71.7459  223.7060 H   0  0  0  0  0  0  0  0  0  0  0  0
  132.9907   70.9034  226.0206 H   0  0  0  0  0  0  0  0  0  0  0  0
  134.9667   69.6327  226.8588 H   0  0  0  0  0  0  0  0  0  0  0  0
  139.7252   67.3790  224.4718 H   0  0  0  0  0  0  0  0  0  0  0  0
  139.6687   67.5976  227.0198 H   0  0  0  0  0  0  0  0  0  0  0  0
  139.4069   69.6574  228.7112 H   0  0  0  0  0  0  0  0  0  0  0  0
  140.2786   71.8614  229.3479 H   0  0  0  0  0  0  0  0  0  0  0  0
  141.5562   73.2491  227.7182 H   0  0  0  0  0  0  0  0  0  0  0  0
  141.9288   72.3355  225.4327 H   0  0  0  0  0  0  0  0  0  0  0  0
  141.0602   70.1285  224.8038 H   0  0  0  0  0  0  0  0  0  0  0  0
  139.9908   68.5112  222.8567 H   0  0  0  0  0  0  0  0  0  0  0  0
  138.7701   68.4895  221.4814 H   0  0  0  0  0  0  0  0  0  0  0  0
  140.7875   69.3150  220.0754 H   0  0  0  0  0  0  0  0  0  0  0  0
  141.7764   71.3846  219.1523 H   0  0  0  0  0  0  0  0  0  0  0  0
  141.3871   73.5817  220.2598 H   0  0  0  0  0  0  0  0  0  0  0  0
  139.1080   74.0440  222.9780 H   0  0  0  0  0  0  0  0  0  0  0  0
  138.9958   71.5768  223.2275 H   0  0  0  0  0  0  0  0  0  0  0  0
  1  2  2  0
  2  3  1  0
  3  4  2  0
  4  5  1  0
  5  6  2  0
  6  7  1  0
  7  8  2  0
  8  9  1  0
  9 10  2  0
 10 11  1  0
 11 12  2  0
 12 13  1  0
 13 14  2  0
 14 15  1  0
 15 16  2  0
 16 17  1  0
 17 18  2  0
 10 19  1  0
 19 20  1  0
 20 21  1  0
 21 22  2  0
 22 23  1  0
 23 24  2  0
 24 25  1  0
 25 26  1  0
 25 27  2  0
 19  2  1  0
 27 21  1  0
  8  3  1  0
 18 13  1  0
  4 28  1  0
  5 29  1  0
  6 30  1  0
  7 31  1  0
 11 32  1  0
 12 33  1  0
 14 34  1  0
 15 35  1  0
 16 36  1  0
 17 37  1  0
 18 38  1  0
 20 39  1  0
 20 40  1  0
 22 41  1  0
 23 42  1  0
 24 43  1  0
 26 44  1  0
 27 45  1  0
M  END
>  <smiles>  (18) 
O=c1c2ccccc2nc(/C=C/c2ccccc2)n1Cc1cccc(O)c1

>  <score_type>  (18) 
oracle

>  <origin>  (18) 
autodockgpu

>  <m_score__min__energy>  (18) 
-8.5899999999999999

>  <m_primary>  (18) 
energy

>  <rmsd>  (18) 
10.12154414609221

>  <m_score__min__rmsd>  (18) 
10.12154414609221

>  <meeko>  (18) 
{"free_energy": -7.16, "intermolecular_energy": -8.95, "internal_energy": -1.4, "cluster_size": 21, "cluster_id": 4, "rank_in_cluster": 17}

>  <energy>  (18) 
-7.03

>  <cluster_rmsd>  (18) 
1.52

>  <cluster>  (18) 
2

$$$$

     RDKit          3D

 45 48  0  0  0  0  0  0  0  0999 V2000
  139.2050   67.8230  225.0730 O   0  0  0  0  0  0  0  0  0  0  0  0
  139.5260   69.0220  224.8670 C   0  0  0  0  0  0  0  0  0  0  0  0
  139.9460   69.7310  225.9870 C   0  0  0  0  0  0  0  0  0  0  0  0
  139.9990   69.1360  227.2310 C   0  0  0  0  0  0  0  0  0  0  0  0
  140.4220   69.8660  228.3300 C   0  0  0  0  0  0  0  0  0  0  0  0
  140.7870   71.1840  228.1750 C   0  0  0  0  0  0  0  0  0  0  0  0
  140.7450   71.8100  226.9410 C   0  0  0  0  0  0  0  0  0  0  0  0
  140.3220   71.0600  225.8760 C   0  0  0  0  0  0  0  0  0  0  0  0
  140.2530   71.5930  224.6440 N   0  0  0  0  0  0  0  0  0  0  0  0
  139.8430   70.8860  223.5750 C   0  0  0  0  0  0  0  0  0  0  0  0
  139.7940   71.6060  222.3010 C   0  0  0  0  0  0  0  0  0  0  0  0
  138.6430   71.9520  221.7580 C   0  0  0  0  0  0  0  0  0  0  0  0
  137.5380   72.5470  222.4890 C   0  0  0  0  0  0  0  0  0  0  0  0
  137.0670   73.8130  222.2970 C   0  0  0  0  0  0  0  0  0  0  0  0
  136.0080   74.3300  223.0230 C   0  0  0  0  0  0  0  0  0  0  0  0
  135.3720   73.5780  223.9900 C   0  0  0  0  0  0  0  0  0  0  0  0
  135.8330   72.2970  224.1990 C   0  0  0  0  0  0  0  0  0  0  0  0
  136.8890   71.7900  223.4710 C   0  0  0  0  0  0  0  0  0  0  0  0
  139.4700   69.5950  223.6360 N   0  0  0  0  0  0  0  0  0  0  0  0
  139.0580   68.8100  222.5100 C   0  0  0  0  0  0  0  0  0  0  0  0
  137.6000   68.8260  222.2330 C   0  0  0  0  0  0  0  0  0  0  0  0
  137.0410   69.1690  221.0280 C   0  0  0  0  0  0  0  0  0  0  0  0
  135.6570   69.1750  220.8160 C   0  0  0  0  0  0  0  0  0  0  0  0
  134.7860   68.8310  221.8250 C   0  0  0  0  0  0  0  0  0  0  0  0
  135.3320   68.4850  223.0380 C   0  0  0  0  0  0  0  0  0  0  0  0
  134.4610   68.1300  224.0790 O   0  0  0  0  0  0  0  0  0  0  0  0
  136.7030   68.4790  223.2480 C   0  0  0  0  0  0  0  0  0  0  0  0
  139.7055   68.0826  227.3500 H   0  0  0  0  0  0  0  0  0  0  0  0
  140.4660   69.3940  229.3226 H   0  0  0  0  0  0  0  0  0  0  0  0
  141.1207   71.7546  229.0543 H   0  0  0  0  0  0  0  0  0  0  0  0
  141.0384   72.8633  226.8211 H   0  0  0  0  0  0  0  0  0  0  0  0
  140.7328   71.8626  221.7883 H   0  0  0  0  0  0  0  0  0  0  0  0
  138.5111   71.7784  220.6798 H   0  0  0  0  0  0  0  0  0  0  0  0
  137.5469   74.4467  221.5366 H   0  0  0  0  0  0  0  0  0  0  0  0
  135.6676   75.3573  222.8260 H   0  0  0  0  0  0  0  0  0  0  0  0
  134.5309   73.9853  224.5703 H   0  0  0  0  0  0  0  0  0  0  0  0
  135.3501   71.6668  224.9604 H   0  0  0  0  0  0  0  0  0  0  0  0
  137.2303   70.7629  223.6675 H   0  0  0  0  0  0  0  0  0  0  0  0
  139.5786   69.1917  221.6193 H   0  0  0  0  0  0  0  0  0  0  0  0
  139.3131   67.7678  222.7524 H   0  0  0  0  0  0  0  0  0  0  0  0
  137.7050   69.4498  220.1972 H   0  0  0  0  0  0  0  0  0  0  0  0
  135.2603   69.4584  219.8299 H   0  0  0  0  0  0  0  0  0  0  0  0
  133.6974   68.8329  221.6669 H   0  0  0  0  0  0  0  0  0  0  0  0
  134.1630   67.1710  224.1800 H   0  0  0  0  0  0  0  0  0  0  0  0
  137.0938   68.1946  224.2361 H   0  0  0  0  0  0  0  0  0  0  0  0
  1  2  2  0
  2  3  1  0
  3  4  2  0
  4  5  1  0
  5  6  2  0
  6  7  1  0
  7  8  2  0
  8  9  1  0
  9 10  2  0
 10 11  1  0
 11 12  2  0
 12 13  1  0
 13 14  2  0
 14 15  1  0
 15 16  2  0
 16 17  1  0
 17 18  2  0
 10 19  1  0
 19 20  1  0
 20 21  1  0
 21 22  2  0
 22 23  1  0
 23 24  2  0
 24 25  1  0
 25 26  1  0
 25 27  2  0
 19  2  1  0
 27 21  1  0
  8  3  1  0
 18 13  1  0
  4 28  1  0
  5 29  1  0
  6 30  1  0
  7 31  1  0
 11 32  1  0
 12 33  1  0
 14 34  1  0
 15 35  1  0
 16 36  1  0
 17 37  1  0
 18 38  1  0
 20 39  1  0
 20 40  1  0
 22 41  1  0
 23 42  1  0
 24 43  1  0
 26 44  1  0
 27 45  1  0
M  END
>  <smiles>  (19) 
O=c1c2ccccc2nc(/C=C/c2ccccc2)n1Cc1cccc(O)c1

>  <score_type>  (19) 
oracle

>  <origin>  (19) 
autodockgpu

>  <m_score__min__energy>  (19) 
-8.5899999999999999

>  <m_primary>  (19) 
energy

>  <rmsd>  (19) 
12.213818324053829

>  <m_score__min__rmsd>  (19) 
12.213818324053829

>  <meeko>  (19) 
{"free_energy": -6.26, "intermolecular_energy": -8.05, "internal_energy": -1.87, "cluster_size": 2, "cluster_id": 3, "rank_in_cluster": 2}

>  <energy>  (19) 
-7.3

>  <cluster_rmsd>  (19) 
0.0

>  <cluster>  (19) 
3

$$$$

     RDKit          3D

 45 48  0  0  0  0  0  0  0  0999 V2000
  142.5030   76.6860  217.0800 O   0  0  0  0  0  0  0  0  0  0  0  0
  142.1690   77.2060  218.1760 C   0  0  0  0  0  0  0  0  0  0  0  0
  142.1780   78.5960  218.2060 C   0  0  0  0  0  0  0  0  0  0  0  0
  142.5330   79.3330  217.0950 C   0  0  0  0  0  0  0  0  0  0  0  0
  142.5330   80.7180  217.1530 C   0  0  0  0  0  0  0  0  0  0  0  0
  142.1790   81.3520  218.3230 C   0  0  0  0  0  0  0  0  0  0  0  0
  141.8190   80.6410  219.4550 C   0  0  0  0  0  0  0  0  0  0  0  0
  141.8300   79.2750  219.3630 C   0  0  0  0  0  0  0  0  0  0  0  0
  141.4930   78.5120  220.4170 N   0  0  0  0  0  0  0  0  0  0  0  0
  141.4920   77.1680  220.3620 C   0  0  0  0  0  0  0  0  0  0  0  0
  141.1270   76.4690  221.5970 C   0  0  0  0  0  0  0  0  0  0  0  0
  140.5670   77.1120  222.6020 C   0  0  0  0  0  0  0  0  0  0  0  0
  140.9350   78.4520  223.0250 C   0  0  0  0  0  0  0  0  0  0  0  0
  142.1910   78.8340  223.4020 C   0  0  0  0  0  0  0  0  0  0  0  0
  142.4870   80.1280  223.7950 C   0  0  0  0  0  0  0  0  0  0  0  0
  141.5120   81.1040  223.8260 C   0  0  0  0  0  0  0  0  0  0  0  0
  140.2380   80.7380  223.4500 C   0  0  0  0  0  0  0  0  0  0  0  0
  139.9520   79.4470  223.0580 C   0  0  0  0  0  0  0  0  0  0  0  0
  141.8210   76.4670  219.2620 N   0  0  0  0  0  0  0  0  0  0  0  0
  141.8000   75.0380  219.1670 C   0  0  0  0  0  0  0  0  0  0  0  0
  143.0640   74.3640  219.5530 C   0  0  0  0  0  0  0  0  0  0  0  0
  143.3500   73.9100  220.8160 C   0  0  0  0  0  0  0  0  0  0  0  0
  144.5610   73.2840  221.1340 C   0  0  0  0  0  0  0  0  0  0  0  0
  145.5310   73.0960  220.1760 C   0  0  0  0  0  0  0  0  0  0  0  0
  145.2600   73.5450  218.9070 C   0  0  0  0  0  0  0  0  0  0  0  0
  146.2360   73.3610  217.9160 O   0  0  0  0  0  0  0  0  0  0  0  0
  144.0590   74.1650  218.5910 C   0  0  0  0  0  0  0  0  0  0  0  0
  142.8161   78.8216  216.1632 H   0  0  0  0  0  0  0  0  0  0  0  0
  142.8145   81.3080  216.2683 H   0  0  0  0  0  0  0  0  0  0  0  0
  142.1823   82.4514  218.3591 H   0  0  0  0  0  0  0  0  0  0  0  0
  141.5365   81.1513  220.3876 H   0  0  0  0  0  0  0  0  0  0  0  0
  141.3235   75.3904  221.6868 H   0  0  0  0  0  0  0  0  0  0  0  0
  139.7676   76.5997  223.1575 H   0  0  0  0  0  0  0  0  0  0  0  0
  142.9972   78.0857  223.3930 H   0  0  0  0  0  0  0  0  0  0  0  0
  143.5165   80.3824  224.0874 H   0  0  0  0  0  0  0  0  0  0  0  0
  141.7427   82.1332  224.1384 H   0  0  0  0  0  0  0  0  0  0  0  0
  139.4344   81.4891  223.4627 H   0  0  0  0  0  0  0  0  0  0  0  0
  138.9232   79.1927  222.7633 H   0  0  0  0  0  0  0  0  0  0  0  0
  141.0002   74.6644  219.8233 H   0  0  0  0  0  0  0  0  0  0  0  0
  141.6394   74.8035  218.1044 H   0  0  0  0  0  0  0  0  0  0  0  0
  142.5991   74.0431  221.6087 H   0  0  0  0  0  0  0  0  0  0  0  0
  144.7396   72.9379  222.1628 H   0  0  0  0  0  0  0  0  0  0  0  0
  146.4856   72.6055  220.4173 H   0  0  0  0  0  0  0  0  0  0  0  0
  146.6520   74.1630  217.4660 H   0  0  0  0  0  0  0  0  0  0  0  0
  143.8860   74.5077  217.5601 H   0  0  0  0  0  0  0  0  0  0  0  0
  1  2  2  0
  2  3  1  0
  3  4  2  0
  4  5  1  0
  5  6  2  0
  6  7  1  0
  7  8  2  0
  8  9  1  0
  9 10  2  0
 10 11  1  0
 11 12  2  0
 12 13  1  0
 13 14  2  0
 14 15  1  0
 15 16  2  0
 16 17  1  0
 17 18  2  0
 10 19  1  0
 19 20  1  0
 20 21  1  0
 21 22  2  0
 22 23  1  0
 23 24  2  0
 24 25  1  0
 25 26  1  0
 25 27  2  0
 19  2  1  0
 27 21  1  0
  8  3  1  0
 18 13  1  0
  4 28  1  0
  5 29  1  0
  6 30  1  0
  7 31  1  0
 11 32  1  0
 12 33  1  0
 14 34  1  0
 15 35  1  0
 16 36  1  0
 17 37  1  0
 18 38  1  0
 20 39  1  0
 20 40  1  0
 22 41  1  0
 23 42  1  0
 24 43  1  0
 26 44  1  0
 27 45  1  0
M  END
>  <smiles>  (20) 
O=c1c2ccccc2nc(/C=C/c2ccccc2)n1Cc1cccc(O)c1

>  <score_type>  (20) 
oracle

>  <origin>  (20) 
autodockgpu

>  <m_score__min__energy>  (20) 
-8.5899999999999999

>  <m_primary>  (20) 
energy

>  <rmsd>  (20) 
7.331766420591273

>  <m_score__min__rmsd>  (20) 
7.331766420591273

>  <meeko>  (20) 
{"free_energy": -7.36, "intermolecular_energy": -9.15, "internal_energy": -1.2, "cluster_size": 4, "cluster_id": 2, "rank_in_cluster": 1}

>  <energy>  (20) 
-6.26

>  <cluster_rmsd>  (20) 
1.68

>  <cluster>  (20) 
3

$$$$

     RDKit          3D

 45 48  0  0  0  0  0  0  0  0999 V2000
  140.2840   71.8830  225.1210 O   0  0  0  0  0  0  0  0  0  0  0  0
  139.7480   70.7460  225.0800 C   0  0  0  0  0  0  0  0  0  0  0  0
  140.0660   69.8950  226.1320 C   0  0  0  0  0  0  0  0  0  0  0  0
  140.9170   70.2950  227.1420 C   0  0  0  0  0  0  0  0  0  0  0  0
  141.2180   69.4250  228.1780 C   0  0  0  0  0  0  0  0  0  0  0  0
  140.6650   68.1650  228.1950 C   0  0  0  0  0  0  0  0  0  0  0  0
  139.8090   67.7330  227.1960 C   0  0  0  0  0  0  0  0  0  0  0  0
  139.5330   68.6170  226.1870 C   0  0  0  0  0  0  0  0  0  0  0  0
  138.7110   68.2770  225.1800 N   0  0  0  0  0  0  0  0  0  0  0  0
  138.4170   69.1190  224.1720 C   0  0  0  0  0  0  0  0  0  0  0  0
  137.5270   68.6000  223.1320 C   0  0  0  0  0  0  0  0  0  0  0  0
  136.2280   68.8280  223.1720 C   0  0  0  0  0  0  0  0  0  0  0  0
  135.5790   69.6970  224.1370 C   0  0  0  0  0  0  0  0  0  0  0  0
  135.4440   71.0490  224.0030 C   0  0  0  0  0  0  0  0  0  0  0  0
  134.8130   71.8300  224.9560 C   0  0  0  0  0  0  0  0  0  0  0  0
  134.2860   71.2710  226.1020 C   0  0  0  0  0  0  0  0  0  0  0  0
  134.4130   69.9080  226.2560 C   0  0  0  0  0  0  0  0  0  0  0  0
  135.0420   69.1360  225.3010 C   0  0  0  0  0  0  0  0  0  0  0  0
  138.9100   70.3670  224.0780 N   0  0  0  0  0  0  0  0  0  0  0  0
  138.5920   71.2940  223.0340 C   0  0  0  0  0  0  0  0  0  0  0  0
  139.7620   71.8510  222.3110 C   0  0  0  0  0  0  0  0  0  0  0  0
  140.6690   71.1020  221.6050 C   0  0  0  0  0  0  0  0  0  0  0  0
  141.7620   71.6730  220.9420 C   0  0  0  0  0  0  0  0  0  0  0  0
  141.9750   73.0330  220.9720 C   0  0  0  0  0  0  0  0  0  0  0  0
  141.0740   73.7960  221.6750 C   0  0  0  0  0  0  0  0  0  0  0  0
  141.2730   75.1840  221.7180 O   0  0  0  0  0  0  0  0  0  0  0  0
  139.9910   73.2300  222.3320 C   0  0  0  0  0  0  0  0  0  0  0  0
  141.3561   71.3034  227.1248 H   0  0  0  0  0  0  0  0  0  0  0  0
  141.8967   69.7406  228.9840 H   0  0  0  0  0  0  0  0  0  0  0  0
  140.9092   67.4836  229.0233 H   0  0  0  0  0  0  0  0  0  0  0  0
  139.3701   66.7245  227.2121 H   0  0  0  0  0  0  0  0  0  0  0  0
  137.9478   68.0106  222.3041 H   0  0  0  0  0  0  0  0  0  0  0  0
  135.5951   68.3266  222.4249 H   0  0  0  0  0  0  0  0  0  0  0  0
  135.8517   71.5356  223.1047 H   0  0  0  0  0  0  0  0  0  0  0  0
  134.7303   72.9153  224.7968 H   0  0  0  0  0  0  0  0  0  0  0  0
  133.7848   71.8886  226.8618 H   0  0  0  0  0  0  0  0  0  0  0  0
  134.0054   69.4262  227.1570 H   0  0  0  0  0  0  0  0  0  0  0  0
  135.1235   68.0504  225.4589 H   0  0  0  0  0  0  0  0  0  0  0  0
  137.9531   70.7777  222.3024 H   0  0  0  0  0  0  0  0  0  0  0  0
  138.0974   72.1473  223.5211 H   0  0  0  0  0  0  0  0  0  0  0  0
  140.5324   70.0115  221.5580 H   0  0  0  0  0  0  0  0  0  0  0  0
  142.4599   71.0265  220.3898 H   0  0  0  0  0  0  0  0  0  0  0  0
  142.8313   73.4900  220.4544 H   0  0  0  0  0  0  0  0  0  0  0  0
  142.1730   75.5550  221.9840 H   0  0  0  0  0  0  0  0  0  0  0  0
  139.2963   73.8815  222.8823 H   0  0  0  0  0  0  0  0  0  0  0  0
  1  2  2  0
  2  3  1  0
  3  4  2  0
  4  5  1  0
  5  6  2  0
  6  7  1  0
  7  8  2  0
  8  9  1  0
  9 10  2  0
 10 11  1  0
 11 12  2  0
 12 13  1  0
 13 14  2  0
 14 15  1  0
 15 16  2  0
 16 17  1  0
 17 18  2  0
 10 19  1  0
 19 20  1  0
 20 21  1  0
 21 22  2  0
 22 23  1  0
 23 24  2  0
 24 25  1  0
 25 26  1  0
 25 27  2  0
 19  2  1  0
 27 21  1  0
  8  3  1  0
 18 13  1  0
  4 28  1  0
  5 29  1  0
  6 30  1  0
  7 31  1  0
 11 32  1  0
 12 33  1  0
 14 34  1  0
 15 35  1  0
 16 36  1  0
 17 37  1  0
 18 38  1  0
 20 39  1  0
 20 40  1  0
 22 41  1  0
 23 42  1  0
 24 43  1  0
 26 44  1  0
 27 45  1  0
M  END
>  <smiles>  (21) 
O=c1c2ccccc2nc(/C=C/c2ccccc2)n1Cc1cccc(O)c1

>  <score_type>  (21) 
oracle

>  <origin>  (21) 
autodockgpu

>  <m_score__min__energy>  (21) 
-8.5899999999999999

>  <m_primary>  (21) 
energy

>  <rmsd>  (21) 
10.236064176445943

>  <m_score__min__rmsd>  (21) 
10.236064176445943

>  <meeko>  (21) 
{"free_energy": -7.18, "intermolecular_energy": -8.97, "internal_energy": -1.51, "cluster_size": 21, "cluster_id": 4, "rank_in_cluster": 14}

>  <energy>  (21) 
-7.25

>  <cluster_rmsd>  (21) 
0.0

>  <cluster>  (21) 
4

$$$$

     RDKit          3D

 45 48  0  0  0  0  0  0  0  0999 V2000
  138.8130   67.7690  225.2150 O   0  0  0  0  0  0  0  0  0  0  0  0
  139.1410   68.9650  225.0030 C   0  0  0  0  0  0  0  0  0  0  0  0
  139.8440   69.5850  226.0300 C   0  0  0  0  0  0  0  0  0  0  0  0
  140.1500   68.9110  227.1940 C   0  0  0  0  0  0  0  0  0  0  0  0
  140.8520   69.5530  228.2020 C   0  0  0  0  0  0  0  0  0  0  0  0
  141.2420   70.8620  228.0350 C   0  0  0  0  0  0  0  0  0  0  0  0
  140.9500   71.5660  226.8790 C   0  0  0  0  0  0  0  0  0  0  0  0
  140.2550   70.9030  225.9040 C   0  0  0  0  0  0  0  0  0  0  0  0
  139.9330   71.5140  224.7520 N   0  0  0  0  0  0  0  0  0  0  0  0
  139.2510   70.8930  223.7720 C   0  0  0  0  0  0  0  0  0  0  0  0
  138.9500   71.6940  222.5830 C   0  0  0  0  0  0  0  0  0  0  0  0
  139.5900   72.8210  222.3420 C   0  0  0  0  0  0  0  0  0  0  0  0
  140.8810   72.9050  221.6840 C   0  0  0  0  0  0  0  0  0  0  0  0
  141.7190   71.8480  221.4700 C   0  0  0  0  0  0  0  0  0  0  0  0
  142.9410   71.9850  220.8350 C   0  0  0  0  0  0  0  0  0  0  0  0
  143.3750   73.2140  220.3830 C   0  0  0  0  0  0  0  0  0  0  0  0
  142.5450   74.2930  220.5890 C   0  0  0  0  0  0  0  0  0  0  0  0
  141.3290   74.1480  221.2230 C   0  0  0  0  0  0  0  0  0  0  0  0
  138.8340   69.6160  223.8500 N   0  0  0  0  0  0  0  0  0  0  0  0
  138.1340   68.9210  222.8110 C   0  0  0  0  0  0  0  0  0  0  0  0
  138.9950   68.1500  221.8810 C   0  0  0  0  0  0  0  0  0  0  0  0
  139.0720   66.7810  221.8460 C   0  0  0  0  0  0  0  0  0  0  0  0
  139.9050   66.0970  220.9520 C   0  0  0  0  0  0  0  0  0  0  0  0
  140.6950   66.7830  220.0570 C   0  0  0  0  0  0  0  0  0  0  0  0
  140.6280   68.1550  220.0800 C   0  0  0  0  0  0  0  0  0  0  0  0
  141.4250   68.8720  219.1750 O   0  0  0  0  0  0  0  0  0  0  0  0
  139.8020   68.8320  220.9650 C   0  0  0  0  0  0  0  0  0  0  0  0
  139.8369   67.8643  227.3222 H   0  0  0  0  0  0  0  0  0  0  0  0
  141.0964   69.0183  229.1317 H   0  0  0  0  0  0  0  0  0  0  0  0
  141.8000   71.3619  228.8404 H   0  0  0  0  0  0  0  0  0  0  0  0
  141.2630   72.6126  226.7499 H   0  0  0  0  0  0  0  0  0  0  0  0
  138.1774   71.3495  221.8799 H   0  0  0  0  0  0  0  0  0  0  0  0
  139.1140   73.7601  222.6607 H   0  0  0  0  0  0  0  0  0  0  0  0
  141.4110   70.8501  221.8154 H   0  0  0  0  0  0  0  0  0  0  0  0
  143.5767   71.0994  220.6883 H   0  0  0  0  0  0  0  0  0  0  0  0
  144.3456   73.3274  219.8780 H   0  0  0  0  0  0  0  0  0  0  0  0
  142.8575   75.2888  220.2416 H   0  0  0  0  0  0  0  0  0  0  0  0
  140.6937   75.0338  221.3704 H   0  0  0  0  0  0  0  0  0  0  0  0
  137.4298   68.2206  223.2837 H   0  0  0  0  0  0  0  0  0  0  0  0
  137.6405   69.6937  222.2033 H   0  0  0  0  0  0  0  0  0  0  0  0
  138.4561   66.1983  222.5468 H   0  0  0  0  0  0  0  0  0  0  0  0
  139.9285   64.9973  220.9649 H   0  0  0  0  0  0  0  0  0  0  0  0
  141.3532   66.2539  219.3521 H   0  0  0  0  0  0  0  0  0  0  0  0
  141.4580   68.5950  218.2050 H   0  0  0  0  0  0  0  0  0  0  0  0
  139.7812   69.9316  220.9458 H   0  0  0  0  0  0  0  0  0  0  0  0
  1  2  2  0
  2  3  1  0
  3  4  2  0
  4  5  1  0
  5  6  2  0
  6  7  1  0
  7  8  2  0
  8  9  1  0
  9 10  2  0
 10 11  1  0
 11 12  2  0
 12 13  1  0
 13 14  2  0
 14 15  1  0
 15 16  2  0
 16 17  1  0
 17 18  2  0
 10 19  1  0
 19 20  1  0
 20 21  1  0
 21 22  2  0
 22 23  1  0
 23 24  2  0
 24 25  1  0
 25 26  1  0
 25 27  2  0
 19  2  1  0
 27 21  1  0
  8  3  1  0
 18 13  1  0
  4 28  1  0
  5 29  1  0
  6 30  1  0
  7 31  1  0
 11 32  1  0
 12 33  1  0
 14 34  1  0
 15 35  1  0
 16 36  1  0
 17 37  1  0
 18 38  1  0
 20 39  1  0
 20 40  1  0
 22 41  1  0
 23 42  1  0
 24 43  1  0
 26 44  1  0
 27 45  1  0
M  END
>  <smiles>  (22) 
O=c1c2ccccc2nc(/C=C/c2ccccc2)n1Cc1cccc(O)c1

>  <score_type>  (22) 
oracle

>  <origin>  (22) 
autodockgpu

>  <m_score__min__energy>  (22) 
-8.5899999999999999

>  <m_primary>  (22) 
energy

>  <rmsd>  (22) 
12.71454643396899

>  <m_score__min__rmsd>  (22) 
12.71454643396899

>  <meeko>  (22) 
{"free_energy": -6.81, "intermolecular_energy": -8.6, "internal_energy": -1.46, "cluster_size": 1, "cluster_id": 7, "rank_in_cluster": 1}

>  <energy>  (22) 
-7.24

>  <cluster_rmsd>  (22) 
0.05

>  <cluster>  (22) 
4

$$$$

     RDKit          3D

 45 48  0  0  0  0  0  0  0  0999 V2000
  136.4680   70.2950  221.6220 O   0  0  0  0  0  0  0  0  0  0  0  0
  136.7100   69.9050  222.7930 C   0  0  0  0  0  0  0  0  0  0  0  0
  135.7110   70.1570  223.7270 C   0  0  0  0  0  0  0  0  0  0  0  0
  134.5410   70.7940  223.3670 C   0  0  0  0  0  0  0  0  0  0  0  0
  133.5620   71.0330  224.3190 C   0  0  0  0  0  0  0  0  0  0  0  0
  133.7630   70.6320  225.6200 C   0  0  0  0  0  0  0  0  0  0  0  0
  134.9250   69.9920  226.0130 C   0  0  0  0  0  0  0  0  0  0  0  0
  135.8720   69.7710  225.0480 C   0  0  0  0  0  0  0  0  0  0  0  0
  137.0280   69.1550  225.3470 N   0  0  0  0  0  0  0  0  0  0  0  0
  137.9800   68.9220  224.4250 C   0  0  0  0  0  0  0  0  0  0  0  0
  139.1980   68.2640  224.9020 C   0  0  0  0  0  0  0  0  0  0  0  0
  139.6450   68.4650  226.1270 C   0  0  0  0  0  0  0  0  0  0  0  0
  140.1300   69.7410  226.6220 C   0  0  0  0  0  0  0  0  0  0  0  0
  139.9800   70.1890  227.9030 C   0  0  0  0  0  0  0  0  0  0  0  0
  140.4640   71.4160  228.3220 C   0  0  0  0  0  0  0  0  0  0  0  0
  141.1280   72.2550  227.4510 C   0  0  0  0  0  0  0  0  0  0  0  0
  141.2890   71.8220  226.1540 C   0  0  0  0  0  0  0  0  0  0  0  0
  140.8040   70.5970  225.7450 C   0  0  0  0  0  0  0  0  0  0  0  0
  137.8670   69.2770  223.1320 N   0  0  0  0  0  0  0  0  0  0  0  0
  138.8500   69.0150  222.1240 C   0  0  0  0  0  0  0  0  0  0  0  0
  139.6700   70.1870  221.7280 C   0  0  0  0  0  0  0  0  0  0  0  0
  140.6630   70.1580  220.7820 C   0  0  0  0  0  0  0  0  0  0  0  0
  141.4150   71.2900  220.4450 C   0  0  0  0  0  0  0  0  0  0  0  0
  141.1860   72.4990  221.0620 C   0  0  0  0  0  0  0  0  0  0  0  0
  140.1950   72.5440  222.0120 C   0  0  0  0  0  0  0  0  0  0  0  0
  139.9450   73.7670  222.6520 O   0  0  0  0  0  0  0  0  0  0  0  0
  139.4490   71.4220  222.3450 C   0  0  0  0  0  0  0  0  0  0  0  0
  134.3853   71.1119  222.3255 H   0  0  0  0  0  0  0  0  0  0  0  0
  132.6284   71.5410  224.0356 H   0  0  0  0  0  0  0  0  0  0  0  0
  132.9792   70.8254  226.3671 H   0  0  0  0  0  0  0  0  0  0  0  0
  135.0816   69.6746  227.0545 H   0  0  0  0  0  0  0  0  0  0  0  0
  139.7491   67.5914  224.2283 H   0  0  0  0  0  0  0  0  0  0  0  0
  139.6506   67.6097  226.8187 H   0  0  0  0  0  0  0  0  0  0  0  0
  139.4549   69.5509  228.6290 H   0  0  0  0  0  0  0  0  0  0  0  0
  140.3169   71.7274  229.3667 H   0  0  0  0  0  0  0  0  0  0  0  0
  141.5136   73.2313  227.7798 H   0  0  0  0  0  0  0  0  0  0  0  0
  141.8136   72.4641  225.4312 H   0  0  0  0  0  0  0  0  0  0  0  0
  140.9514   70.2849  224.7005 H   0  0  0  0  0  0  0  0  0  0  0  0
  139.5283   68.2363  222.5030 H   0  0  0  0  0  0  0  0  0  0  0  0
  138.2946   68.7104  221.2247 H   0  0  0  0  0  0  0  0  0  0  0  0
  140.8767   69.2090  220.2685 H   0  0  0  0  0  0  0  0  0  0  0  0
  142.1989   71.2122  219.6773 H   0  0  0  0  0  0  0  0  0  0  0  0
  141.7730   73.3930  220.8046 H   0  0  0  0  0  0  0  0  0  0  0  0
  139.0170   73.9780  222.9880 H   0  0  0  0  0  0  0  0  0  0  0  0
  138.6655   71.5064  223.1124 H   0  0  0  0  0  0  0  0  0  0  0  0
  1  2  2  0
  2  3  1  0
  3  4  2  0
  4  5  1  0
  5  6  2  0
  6  7  1  0
  7  8  2  0
  8  9  1  0
  9 10  2  0
 10 11  1  0
 11 12  2  0
 12 13  1  0
 13 14  2  0
 14 15  1  0
 15 16  2  0
 16 17  1  0
 17 18  2  0
 10 19  1  0
 19 20  1  0
 20 21  1  0
 21 22  2  0
 22 23  1  0
 23 24  2  0
 24 25  1  0
 25 26  1  0
 25 27  2  0
 19  2  1  0
 27 21  1  0
  8  3  1  0
 18 13  1  0
  4 28  1  0
  5 29  1  0
  6 30  1  0
  7 31  1  0
 11 32  1  0
 12 33  1  0
 14 34  1  0
 15 35  1  0
 16 36  1  0
 17 37  1  0
 18 38  1  0
 20 39  1  0
 20 40  1  0
 22 41  1  0
 23 42  1  0
 24 43  1  0
 26 44  1  0
 27 45  1  0
M  END
>  <smiles>  (23) 
O=c1c2ccccc2nc(/C=C/c2ccccc2)n1Cc1cccc(O)c1

>  <score_type>  (23) 
oracle

>  <origin>  (23) 
autodockgpu

>  <m_score__min__energy>  (23) 
-8.5899999999999999

>  <m_primary>  (23) 
energy

>  <rmsd>  (23) 
10.354224940101767

>  <m_score__min__rmsd>  (23) 
10.354224940101767

>  <meeko>  (23) 
{"free_energy": -7.12, "intermolecular_energy": -8.91, "internal_energy": -1.56, "cluster_size": 21, "cluster_id": 4, "rank_in_cluster": 18}

>  <energy>  (23) 
-7.24

>  <cluster_rmsd>  (23) 
0.06

>  <cluster>  (23) 
4

$$$$

     RDKit          3D

 45 48  0  0  0  0  0  0  0  0999 V2000
  140.2670   71.8740  224.9710 O   0  0  0  0  0  0  0  0  0  0  0  0
  139.7730   70.7170  224.9620 C   0  0  0  0  0  0  0  0  0  0  0  0
  140.1080   69.9140  226.0460 C   0  0  0  0  0  0  0  0  0  0  0  0
  140.9300   70.3790  227.0530 C   0  0  0  0  0  0  0  0  0  0  0  0
  141.2480   69.5570  228.1220 C   0  0  0  0  0  0  0  0  0  0  0  0
  140.7420   68.2780  228.1750 C   0  0  0  0  0  0  0  0  0  0  0  0
  139.9150   67.7820  227.1810 C   0  0  0  0  0  0  0  0  0  0  0  0
  139.6210   68.6200  226.1390 C   0  0  0  0  0  0  0  0  0  0  0  0
  138.8260   68.2160  225.1340 N   0  0  0  0  0  0  0  0  0  0  0  0
  138.5160   69.0120  224.0940 C   0  0  0  0  0  0  0  0  0  0  0  0
  137.6590   68.4250  223.0620 C   0  0  0  0  0  0  0  0  0  0  0  0
  136.3660   68.6820  223.0240 C   0  0  0  0  0  0  0  0  0  0  0  0
  135.6510   69.4400  224.0360 C   0  0  0  0  0  0  0  0  0  0  0  0
  135.0600   68.9000  225.1420 C   0  0  0  0  0  0  0  0  0  0  0  0
  134.3910   69.6710  226.0760 C   0  0  0  0  0  0  0  0  0  0  0  0
  134.2890   71.0400  225.9310 C   0  0  0  0  0  0  0  0  0  0  0  0
  134.8790   71.6030  224.8210 C   0  0  0  0  0  0  0  0  0  0  0  0
  135.5440   70.8280  223.8950 C   0  0  0  0  0  0  0  0  0  0  0  0
  138.9640   70.2730  223.9640 N   0  0  0  0  0  0  0  0  0  0  0  0
  138.6260   71.1530  222.8850 C   0  0  0  0  0  0  0  0  0  0  0  0
  139.7840   71.7780  222.1990 C   0  0  0  0  0  0  0  0  0  0  0  0
  140.6920   71.0980  221.4270 C   0  0  0  0  0  0  0  0  0  0  0  0
  141.7730   71.7320  220.8030 C   0  0  0  0  0  0  0  0  0  0  0  0
  141.9730   73.0870  220.9420 C   0  0  0  0  0  0  0  0  0  0  0  0
  141.0720   73.7820  221.7120 C   0  0  0  0  0  0  0  0  0  0  0  0
  141.2580   75.1640  221.8650 O   0  0  0  0  0  0  0  0  0  0  0  0
  140.0000   73.1540  222.3300 C   0  0  0  0  0  0  0  0  0  0  0  0
  141.3323   71.4017  227.0066 H   0  0  0  0  0  0  0  0  0  0  0  0
  141.9026   69.9252  228.9256 H   0  0  0  0  0  0  0  0  0  0  0  0
  141.0010   67.6338  229.0282 H   0  0  0  0  0  0  0  0  0  0  0  0
  139.5120   66.7595  227.2267 H   0  0  0  0  0  0  0  0  0  0  0  0
  138.1008   67.7589  222.3062 H   0  0  0  0  0  0  0  0  0  0  0  0
  135.7908   68.2967  222.1692 H   0  0  0  0  0  0  0  0  0  0  0  0
  135.1178   67.8124  225.2961 H   0  0  0  0  0  0  0  0  0  0  0  0
  133.9324   69.1845  226.9495 H   0  0  0  0  0  0  0  0  0  0  0  0
  133.7582   71.6561  226.6717 H   0  0  0  0  0  0  0  0  0  0  0  0
  134.8184   72.6910  224.6707 H   0  0  0  0  0  0  0  0  0  0  0  0
  136.0031   71.3140  223.0215 H   0  0  0  0  0  0  0  0  0  0  0  0
  138.0583   70.5766  222.1397 H   0  0  0  0  0  0  0  0  0  0  0  0
  138.0505   71.9780  223.3300 H   0  0  0  0  0  0  0  0  0  0  0  0
  140.5657   70.0135  221.2934 H   0  0  0  0  0  0  0  0  0  0  0  0
  142.4716   71.1398  220.1937 H   0  0  0  0  0  0  0  0  0  0  0  0
  142.8203   73.5930  220.4560 H   0  0  0  0  0  0  0  0  0  0  0  0
  142.1920   75.5440  221.8980 H   0  0  0  0  0  0  0  0  0  0  0  0
  139.3040   73.7518  222.9368 H   0  0  0  0  0  0  0  0  0  0  0  0
  1  2  2  0
  2  3  1  0
  3  4  2  0
  4  5  1  0
  5  6  2  0
  6  7  1  0
  7  8  2  0
  8  9  1  0
  9 10  2  0
 10 11  1  0
 11 12  2  0
 12 13  1  0
 13 14  2  0
 14 15  1  0
 15 16  2  0
 16 17  1  0
 17 18  2  0
 10 19  1  0
 19 20  1  0
 20 21  1  0
 21 22  2  0
 22 23  1  0
 23 24  2  0
 24 25  1  0
 25 26  1  0
 25 27  2  0
 19  2  1  0
 27 21  1  0
  8  3  1  0
 18 13  1  0
  4 28  1  0
  5 29  1  0
  6 30  1  0
  7 31  1  0
 11 32  1  0
 12 33  1  0
 14 34  1  0
 15 35  1  0
 16 36  1  0
 17 37  1  0
 18 38  1  0
 20 39  1  0
 20 40  1  0
 22 41  1  0
 23 42  1  0
 24 43  1  0
 26 44  1  0
 27 45  1  0
M  END
>  <smiles>  (24) 
O=c1c2ccccc2nc(/C=C/c2ccccc2)n1Cc1cccc(O)c1

>  <score_type>  (24) 
oracle

>  <origin>  (24) 
autodockgpu

>  <m_score__min__energy>  (24) 
-8.5899999999999999

>  <m_primary>  (24) 
energy

>  <rmsd>  (24) 
10.207139505036977

>  <m_score__min__rmsd>  (24) 
10.207139505036977

>  <meeko>  (24) 
{"free_energy": -7.24, "intermolecular_energy": -9.03, "internal_energy": -1.46, "cluster_size": 21, "cluster_id": 4, "rank_in_cluster": 2}

>  <energy>  (24) 
-7.24

>  <cluster_rmsd>  (24) 
0.07

>  <cluster>  (24) 
4

$$$$

     RDKit          3D

 45 48  0  0  0  0  0  0  0  0999 V2000
  141.6790   79.8100  218.6170 O   0  0  0  0  0  0  0  0  0  0  0  0
  141.6150   80.3290  219.7610 C   0  0  0  0  0  0  0  0  0  0  0  0
  141.3000   81.6830  219.7890 C   0  0  0  0  0  0  0  0  0  0  0  0
  141.0750   82.3880  218.6240 C   0  0  0  0  0  0  0  0  0  0  0  0
  140.7630   83.7370  218.6810 C   0  0  0  0  0  0  0  0  0  0  0  0
  140.6780   84.3670  219.9020 C   0  0  0  0  0  0  0  0  0  0  0  0
  140.8980   83.6880  221.0880 C   0  0  0  0  0  0  0  0  0  0  0  0
  141.2050   82.3570  220.9960 C   0  0  0  0  0  0  0  0  0  0  0  0
  141.4330   81.6260  222.1000 N   0  0  0  0  0  0  0  0  0  0  0  0
  141.7370   80.3160  222.0480 C   0  0  0  0  0  0  0  0  0  0  0  0
  141.9840   79.6560  223.3310 C   0  0  0  0  0  0  0  0  0  0  0  0
  141.0000   79.1030  224.0130 C   0  0  0  0  0  0  0  0  0  0  0  0
  139.5920   79.3840  223.7920 C   0  0  0  0  0  0  0  0  0  0  0  0
  138.9450   80.5100  224.2130 C   0  0  0  0  0  0  0  0  0  0  0  0
  137.5990   80.7260  223.9740 C   0  0  0  0  0  0  0  0  0  0  0  0
  136.8390   79.8000  223.2900 C   0  0  0  0  0  0  0  0  0  0  0  0
  137.4730   78.6560  222.8580 C   0  0  0  0  0  0  0  0  0  0  0  0
  138.8150   78.4490  223.1000 C   0  0  0  0  0  0  0  0  0  0  0  0
  141.8390   79.6210  220.9000 N   0  0  0  0  0  0  0  0  0  0  0  0
  142.1300   78.2210  220.8160 C   0  0  0  0  0  0  0  0  0  0  0  0
  140.9420   77.3330  220.7950 C   0  0  0  0  0  0  0  0  0  0  0  0
  139.7980   77.5800  220.0800 C   0  0  0  0  0  0  0  0  0  0  0  0
  138.6980   76.7130  220.0950 C   0  0  0  0  0  0  0  0  0  0  0  0
  138.7220   75.5570  220.8420 C   0  0  0  0  0  0  0  0  0  0  0  0
  139.8610   75.2950  221.5630 C   0  0  0  0  0  0  0  0  0  0  0  0
  139.9050   74.1210  222.3300 O   0  0  0  0  0  0  0  0  0  0  0  0
  140.9510   76.1540  221.5470 C   0  0  0  0  0  0  0  0  0  0  0  0
  141.1433   81.8795  217.6510 H   0  0  0  0  0  0  0  0  0  0  0  0
  140.5840   84.3021  217.7544 H   0  0  0  0  0  0  0  0  0  0  0  0
  140.4288   85.4378  219.9361 H   0  0  0  0  0  0  0  0  0  0  0  0
  140.8292   84.1955  222.0615 H   0  0  0  0  0  0  0  0  0  0  0  0
  143.0073   79.6207  223.7329 H   0  0  0  0  0  0  0  0  0  0  0  0
  141.2626   78.3817  224.8009 H   0  0  0  0  0  0  0  0  0  0  0  0
  139.5146   81.2739  224.7625 H   0  0  0  0  0  0  0  0  0  0  0  0
  137.1273   81.6516  224.3356 H   0  0  0  0  0  0  0  0  0  0  0  0
  135.7692   79.9685  223.0972 H   0  0  0  0  0  0  0  0  0  0  0  0
  136.8989   77.8941  222.3104 H   0  0  0  0  0  0  0  0  0  0  0  0
  139.2872   77.5234  222.7390 H   0  0  0  0  0  0  0  0  0  0  0  0
  142.7026   78.0465  219.8932 H   0  0  0  0  0  0  0  0  0  0  0  0
  142.6865   77.9677  221.7304 H   0  0  0  0  0  0  0  0  0  0  0  0
  139.7422   78.4944  219.4712 H   0  0  0  0  0  0  0  0  0  0  0  0
  137.8042   76.9588  219.5028 H   0  0  0  0  0  0  0  0  0  0  0  0
  137.8629   74.8703  220.8606 H   0  0  0  0  0  0  0  0  0  0  0  0
  139.1580   73.9160  222.9770 H   0  0  0  0  0  0  0  0  0  0  0  0
  141.8427   75.9016  222.1396 H   0  0  0  0  0  0  0  0  0  0  0  0
  1  2  2  0
  2  3  1  0
  3  4  2  0
  4  5  1  0
  5  6  2  0
  6  7  1  0
  7  8  2  0
  8  9  1  0
  9 10  2  0
 10 11  1  0
 11 12  2  0
 12 13  1  0
 13 14  2  0
 14 15  1  0
 15 16  2  0
 16 17  1  0
 17 18  2  0
 10 19  1  0
 19 20  1  0
 20 21  1  0
 21 22  2  0
 22 23  1  0
 23 24  2  0
 24 25  1  0
 25 26  1  0
 25 27  2  0
 19  2  1  0
 27 21  1  0
  8  3  1  0
 18 13  1  0
  4 28  1  0
  5 29  1  0
  6 30  1  0
  7 31  1  0
 11 32  1  0
 12 33  1  0
 14 34  1  0
 15 35  1  0
 16 36  1  0
 17 37  1  0
 18 38  1  0
 20 39  1  0
 20 40  1  0
 22 41  1  0
 23 42  1  0
 24 43  1  0
 26 44  1  0
 27 45  1  0
M  END
>  <smiles>  (25) 
O=c1c2ccccc2nc(/C=C/c2ccccc2)n1Cc1cccc(O)c1

>  <score_type>  (25) 
oracle

>  <origin>  (25) 
autodockgpu

>  <m_score__min__energy>  (25) 
-8.5899999999999999

>  <m_primary>  (25) 
energy

>  <rmsd>  (25) 
6.108110049908419

>  <m_score__min__rmsd>  (25) 
6.108110049908419

>  <meeko>  (25) 
{"free_energy": -6.1, "intermolecular_energy": -7.89, "internal_energy": -2.06, "cluster_size": 1, "cluster_id": 11, "rank_in_cluster": 1}

>  <energy>  (25) 
-7.23

>  <cluster_rmsd>  (25) 
0.07

>  <cluster>  (25) 
4

$$$$

     RDKit          3D

 45 48  0  0  0  0  0  0  0  0999 V2000
  140.3960   71.8880  225.1010 O   0  0  0  0  0  0  0  0  0  0  0  0
  139.7420   70.8130  225.1000 C   0  0  0  0  0  0  0  0  0  0  0  0
  140.0300   69.9350  226.1390 C   0  0  0  0  0  0  0  0  0  0  0  0
  140.9740   70.2460  227.0960 C   0  0  0  0  0  0  0  0  0  0  0  0
  141.2420   69.3520  228.1210 C   0  0  0  0  0  0  0  0  0  0  0  0
  140.5620   68.1560  228.1780 C   0  0  0  0  0  0  0  0  0  0  0  0
  139.6100   67.8150  227.2340 C   0  0  0  0  0  0  0  0  0  0  0  0
  139.3700   68.7200  226.2350 C   0  0  0  0  0  0  0  0  0  0  0  0
  138.4610   68.4660  225.2790 N   0  0  0  0  0  0  0  0  0  0  0  0
  138.2000   69.3320  224.2830 C   0  0  0  0  0  0  0  0  0  0  0  0
  137.2010   68.9070  223.2990 C   0  0  0  0  0  0  0  0  0  0  0  0
  135.9180   68.8790  223.6000 C   0  0  0  0  0  0  0  0  0  0  0  0
  135.2760   69.7860  224.5350 C   0  0  0  0  0  0  0  0  0  0  0  0
  134.6850   69.4110  225.7070 C   0  0  0  0  0  0  0  0  0  0  0  0
  134.0870   70.3200  226.5620 C   0  0  0  0  0  0  0  0  0  0  0  0
  134.0600   71.6670  226.2640 C   0  0  0  0  0  0  0  0  0  0  0  0
  134.6510   72.0670  225.0850 C   0  0  0  0  0  0  0  0  0  0  0  0
  135.2450   71.1540  224.2390 C   0  0  0  0  0  0  0  0  0  0  0  0
  138.8140   70.5210  224.1510 N   0  0  0  0  0  0  0  0  0  0  0  0
  138.5350   71.4750  223.1200 C   0  0  0  0  0  0  0  0  0  0  0  0
  139.7220   71.9530  222.3690 C   0  0  0  0  0  0  0  0  0  0  0  0
  140.6160   71.1360  221.7250 C   0  0  0  0  0  0  0  0  0  0  0  0
  141.7270   71.6340  221.0320 C   0  0  0  0  0  0  0  0  0  0  0  0
  141.9700   72.9880  220.9680 C   0  0  0  0  0  0  0  0  0  0  0  0
  141.0820   73.8190  221.6080 C   0  0  0  0  0  0  0  0  0  0  0  0
  141.3120   75.2010  221.5540 O   0  0  0  0  0  0  0  0  0  0  0  0
  139.9820   73.3250  222.2940 C   0  0  0  0  0  0  0  0  0  0  0  0
  141.5138   71.2031  227.0456 H   0  0  0  0  0  0  0  0  0  0  0  0
  141.9943   69.5969  228.8852 H   0  0  0  0  0  0  0  0  0  0  0  0
  140.7815   67.4534  228.9954 H   0  0  0  0  0  0  0  0  0  0  0  0
  139.0693   66.8583  227.2838 H   0  0  0  0  0  0  0  0  0  0  0  0
  137.5271   68.6063  222.2924 H   0  0  0  0  0  0  0  0  0  0  0  0
  135.2921   68.1182  223.1106 H   0  0  0  0  0  0  0  0  0  0  0  0
  134.6841   68.3460  225.9822 H   0  0  0  0  0  0  0  0  0  0  0  0
  133.6256   69.9629  227.4945 H   0  0  0  0  0  0  0  0  0  0  0  0
  133.5855   72.3929  226.9407 H   0  0  0  0  0  0  0  0  0  0  0  0
  134.6489   73.1331  224.8140 H   0  0  0  0  0  0  0  0  0  0  0  0
  135.7069   71.5103  223.3064 H   0  0  0  0  0  0  0  0  0  0  0  0
  137.8425   71.0097  222.4031 H   0  0  0  0  0  0  0  0  0  0  0  0
  138.1146   72.3577  223.6240 H   0  0  0  0  0  0  0  0  0  0  0  0
  140.4544   70.0483  221.7538 H   0  0  0  0  0  0  0  0  0  0  0  0
  142.4139   70.9347  220.5327 H   0  0  0  0  0  0  0  0  0  0  0  0
  142.8398   73.3883  220.4265 H   0  0  0  0  0  0  0  0  0  0  0  0
  142.2050   75.5740  221.8420 H   0  0  0  0  0  0  0  0  0  0  0  0
  139.2982   74.0291  222.7906 H   0  0  0  0  0  0  0  0  0  0  0  0
  1  2  2  0
  2  3  1  0
  3  4  2  0
  4  5  1  0
  5  6  2  0
  6  7  1  0
  7  8  2  0
  8  9  1  0
  9 10  2  0
 10 11  1  0
 11 12  2  0
 12 13  1  0
 13 14  2  0
 14 15  1  0
 15 16  2  0
 16 17  1  0
 17 18  2  0
 10 19  1  0
 19 20  1  0
 20 21  1  0
 21 22  2  0
 22 23  1  0
 23 24  2  0
 24 25  1  0
 25 26  1  0
 25 27  2  0
 19  2  1  0
 27 21  1  0
  8  3  1  0
 18 13  1  0
  4 28  1  0
  5 29  1  0
  6 30  1  0
  7 31  1  0
 11 32  1  0
 12 33  1  0
 14 34  1  0
 15 35  1  0
 16 36  1  0
 17 37  1  0
 18 38  1  0
 20 39  1  0
 20 40  1  0
 22 41  1  0
 23 42  1  0
 24 43  1  0
 26 44  1  0
 27 45  1  0
M  END
>  <smiles>  (26) 
O=c1c2ccccc2nc(/C=C/c2ccccc2)n1Cc1cccc(O)c1

>  <score_type>  (26) 
oracle

>  <origin>  (26) 
autodockgpu

>  <m_score__min__energy>  (26) 
-8.5899999999999999

>  <m_primary>  (26) 
energy

>  <rmsd>  (26) 
10.200769906364789

>  <m_score__min__rmsd>  (26) 
10.200769906364789

>  <meeko>  (26) 
{"free_energy": -7.19, "intermolecular_energy": -8.98, "internal_energy": -1.43, "cluster_size": 21, "cluster_id": 4, "rank_in_cluster": 10}

>  <energy>  (26) 
-7.23

>  <cluster_rmsd>  (26) 
0.07

>  <cluster>  (26) 
4

$$$$

     RDKit          3D

 45 48  0  0  0  0  0  0  0  0999 V2000
  142.7070   76.4550  219.6490 O   0  0  0  0  0  0  0  0  0  0  0  0
  141.8240   76.1340  220.4850 C   0  0  0  0  0  0  0  0  0  0  0  0
  141.3210   77.1770  221.2560 C   0  0  0  0  0  0  0  0  0  0  0  0
  141.7760   78.4690  221.0940 C   0  0  0  0  0  0  0  0  0  0  0  0
  141.2570   79.4890  221.8760 C   0  0  0  0  0  0  0  0  0  0  0  0
  140.2880   79.2060  222.8120 C   0  0  0  0  0  0  0  0  0  0  0  0
  139.8110   77.9200  222.9990 C   0  0  0  0  0  0  0  0  0  0  0  0
  140.3450   76.9360  222.2100 C   0  0  0  0  0  0  0  0  0  0  0  0
  139.9360   75.6620  222.3280 N   0  0  0  0  0  0  0  0  0  0  0  0
  140.4380   74.6700  221.5710 C   0  0  0  0  0  0  0  0  0  0  0  0
  139.9140   73.3270  221.8290 C   0  0  0  0  0  0  0  0  0  0  0  0
  140.6620   72.4020  222.3970 C   0  0  0  0  0  0  0  0  0  0  0  0
  140.2310   71.5620  223.5000 C   0  0  0  0  0  0  0  0  0  0  0  0
  139.3350   70.5370  223.3960 C   0  0  0  0  0  0  0  0  0  0  0  0
  138.9590   69.7660  224.4830 C   0  0  0  0  0  0  0  0  0  0  0  0
  139.4780   70.0040  225.7390 C   0  0  0  0  0  0  0  0  0  0  0  0
  140.3830   71.0350  225.8650 C   0  0  0  0  0  0  0  0  0  0  0  0
  140.7530   71.7970  224.7770 C   0  0  0  0  0  0  0  0  0  0  0  0
  141.3840   74.8570  220.6320 N   0  0  0  0  0  0  0  0  0  0  0  0
  141.9150   73.8260  219.7910 C   0  0  0  0  0  0  0  0  0  0  0  0
  143.3730   73.5910  219.9310 C   0  0  0  0  0  0  0  0  0  0  0  0
  144.0180   73.3850  221.1250 C   0  0  0  0  0  0  0  0  0  0  0  0
  145.3990   73.1730  221.2070 C   0  0  0  0  0  0  0  0  0  0  0  0
  146.1800   73.1600  220.0730 C   0  0  0  0  0  0  0  0  0  0  0  0
  145.5490   73.3640  218.8700 C   0  0  0  0  0  0  0  0  0  0  0  0
  146.3270   73.3540  217.7030 O   0  0  0  0  0  0  0  0  0  0  0  0
  144.1800   73.5740  218.7890 C   0  0  0  0  0  0  0  0  0  0  0  0
  142.5503   78.6898  220.3446 H   0  0  0  0  0  0  0  0  0  0  0  0
  141.6179   80.5203  221.7492 H   0  0  0  0  0  0  0  0  0  0  0  0
  139.8823   80.0227  223.4271 H   0  0  0  0  0  0  0  0  0  0  0  0
  139.0370   77.6981  223.7484 H   0  0  0  0  0  0  0  0  0  0  0  0
  138.8792   73.0862  221.5441 H   0  0  0  0  0  0  0  0  0  0  0  0
  141.6811   72.2568  222.0093 H   0  0  0  0  0  0  0  0  0  0  0  0
  138.8956   70.3155  222.4122 H   0  0  0  0  0  0  0  0  0  0  0  0
  138.2345   68.9502  224.3428 H   0  0  0  0  0  0  0  0  0  0  0  0
  139.1810   69.3947  226.6054 H   0  0  0  0  0  0  0  0  0  0  0  0
  140.8182   71.2543  226.8512 H   0  0  0  0  0  0  0  0  0  0  0  0
  141.4784   72.6120  224.9166 H   0  0  0  0  0  0  0  0  0  0  0  0
  141.3936   72.8876  220.0311 H   0  0  0  0  0  0  0  0  0  0  0  0
  141.7559   74.1618  218.7556 H   0  0  0  0  0  0  0  0  0  0  0  0
  143.4270   73.3866  222.0527 H   0  0  0  0  0  0  0  0  0  0  0  0
  145.8665   73.0147  222.1900 H   0  0  0  0  0  0  0  0  0  0  0  0
  147.2658   72.9929  220.1282 H   0  0  0  0  0  0  0  0  0  0  0  0
  146.4700   74.2090  217.1870 H   0  0  0  0  0  0  0  0  0  0  0  0
  143.7183   73.7309  217.8030 H   0  0  0  0  0  0  0  0  0  0  0  0
  1  2  2  0
  2  3  1  0
  3  4  2  0
  4  5  1  0
  5  6  2  0
  6  7  1  0
  7  8  2  0
  8  9  1  0
  9 10  2  0
 10 11  1  0
 11 12  2  0
 12 13  1  0
 13 14  2  0
 14 15  1  0
 15 16  2  0
 16 17  1  0
 17 18  2  0
 10 19  1  0
 19 20  1  0
 20 21  1  0
 21 22  2  0
 22 23  1  0
 23 24  2  0
 24 25  1  0
 25 26  1  0
 25 27  2  0
 19  2  1  0
 27 21  1  0
  8  3  1  0
 18 13  1  0
  4 28  1  0
  5 29  1  0
  6 30  1  0
  7 31  1  0
 11 32  1  0
 12 33  1  0
 14 34  1  0
 15 35  1  0
 16 36  1  0
 17 37  1  0
 18 38  1  0
 20 39  1  0
 20 40  1  0
 22 41  1  0
 23 42  1  0
 24 43  1  0
 26 44  1  0
 27 45  1  0
M  END
>  <smiles>  (27) 
O=c1c2ccccc2nc(/C=C/c2ccccc2)n1Cc1cccc(O)c1

>  <score_type>  (27) 
oracle

>  <origin>  (27) 
autodockgpu

>  <m_score__min__energy>  (27) 
-8.5899999999999999

>  <m_primary>  (27) 
energy

>  <rmsd>  (27) 
7.58214656741406

>  <m_score__min__rmsd>  (27) 
7.58214656741406

>  <meeko>  (27) 
{"free_energy": -7.68, "intermolecular_energy": -9.47, "internal_energy": -1.09, "cluster_size": 14, "cluster_id": 1, "rank_in_cluster": 8}

>  <energy>  (27) 
-7.23

>  <cluster_rmsd>  (27) 
0.07

>  <cluster>  (27) 
4

$$$$

     RDKit          3D

 45 48  0  0  0  0  0  0  0  0999 V2000
  140.2880   71.8820  225.0460 O   0  0  0  0  0  0  0  0  0  0  0  0
  139.6860   70.7770  225.0180 C   0  0  0  0  0  0  0  0  0  0  0  0
  139.9790   69.9080  226.0630 C   0  0  0  0  0  0  0  0  0  0  0  0
  140.8750   70.2580  227.0530 C   0  0  0  0  0  0  0  0  0  0  0  0
  141.1490   69.3720  228.0830 C   0  0  0  0  0  0  0  0  0  0  0  0
  140.5250   68.1450  228.1130 C   0  0  0  0  0  0  0  0  0  0  0  0
  139.6220   67.7650  227.1350 C   0  0  0  0  0  0  0  0  0  0  0  0
  139.3740   68.6630  226.1310 C   0  0  0  0  0  0  0  0  0  0  0  0
  138.5100   68.3720  225.1440 N   0  0  0  0  0  0  0  0  0  0  0  0
  138.2430   69.2300  224.1430 C   0  0  0  0  0  0  0  0  0  0  0  0
  137.2990   68.7640  223.1240 C   0  0  0  0  0  0  0  0  0  0  0  0
  135.9970   68.8610  223.3080 C   0  0  0  0  0  0  0  0  0  0  0  0
  135.3720   69.7020  224.3140 C   0  0  0  0  0  0  0  0  0  0  0  0
  134.8290   69.2490  225.4820 C   0  0  0  0  0  0  0  0  0  0  0  0
  134.2450   70.0960  226.4070 C   0  0  0  0  0  0  0  0  0  0  0  0
  134.1830   71.4570  226.1880 C   0  0  0  0  0  0  0  0  0  0  0  0
  134.7250   71.9340  225.0140 C   0  0  0  0  0  0  0  0  0  0  0  0
  135.3050   71.0830  224.0980 C   0  0  0  0  0  0  0  0  0  0  0  0
  138.8050   70.4480  224.0370 N   0  0  0  0  0  0  0  0  0  0  0  0
  138.5160   71.3930  223.0000 C   0  0  0  0  0  0  0  0  0  0  0  0
  139.7050   71.9380  222.2990 C   0  0  0  0  0  0  0  0  0  0  0  0
  140.6150   71.1810  221.6070 C   0  0  0  0  0  0  0  0  0  0  0  0
  141.7270   71.7410  220.9650 C   0  0  0  0  0  0  0  0  0  0  0  0
  141.9540   73.0980  221.0030 C   0  0  0  0  0  0  0  0  0  0  0  0
  141.0510   73.8690  221.6930 C   0  0  0  0  0  0  0  0  0  0  0  0
  141.2650   75.2550  221.7430 O   0  0  0  0  0  0  0  0  0  0  0  0
  139.9490   73.3140  222.3280 C   0  0  0  0  0  0  0  0  0  0  0  0
  141.3712   71.2393  227.0245 H   0  0  0  0  0  0  0  0  0  0  0  0
  141.8623   69.6481  228.8735 H   0  0  0  0  0  0  0  0  0  0  0  0
  140.7497   67.4492  228.9348 H   0  0  0  0  0  0  0  0  0  0  0  0
  139.1250   66.7841  227.1630 H   0  0  0  0  0  0  0  0  0  0  0  0
  137.6826   68.3263  222.1906 H   0  0  0  0  0  0  0  0  0  0  0  0
  135.3405   68.2656  222.6565 H   0  0  0  0  0  0  0  0  0  0  0  0
  134.8569   68.1703  225.6955 H   0  0  0  0  0  0  0  0  0  0  0  0
  133.8230   69.6775  227.3326 H   0  0  0  0  0  0  0  0  0  0  0  0
  133.7197   72.1339  226.9209 H   0  0  0  0  0  0  0  0  0  0  0  0
  134.6941   73.0134  224.8043 H   0  0  0  0  0  0  0  0  0  0  0  0
  135.7267   71.5008  223.1719 H   0  0  0  0  0  0  0  0  0  0  0  0
  137.8779   70.8966  222.2541 H   0  0  0  0  0  0  0  0  0  0  0  0
  138.0294   72.2488  223.4908 H   0  0  0  0  0  0  0  0  0  0  0  0
  140.4662   70.0924  221.5539 H   0  0  0  0  0  0  0  0  0  0  0  0
  142.4275   71.0881  220.4237 H   0  0  0  0  0  0  0  0  0  0  0  0
  142.8237   73.5469  220.5009 H   0  0  0  0  0  0  0  0  0  0  0  0
  142.2060   75.6190  221.7260 H   0  0  0  0  0  0  0  0  0  0  0  0
  139.2514   73.9721  222.8667 H   0  0  0  0  0  0  0  0  0  0  0  0
  1  2  2  0
  2  3  1  0
  3  4  2  0
  4  5  1  0
  5  6  2  0
  6  7  1  0
  7  8  2  0
  8  9  1  0
  9 10  2  0
 10 11  1  0
 11 12  2  0
 12 13  1  0
 13 14  2  0
 14 15  1  0
 15 16  2  0
 16 17  1  0
 17 18  2  0
 10 19  1  0
 19 20  1  0
 20 21  1  0
 21 22  2  0
 22 23  1  0
 23 24  2  0
 24 25  1  0
 25 26  1  0
 25 27  2  0
 19  2  1  0
 27 21  1  0
  8  3  1  0
 18 13  1  0
  4 28  1  0
  5 29  1  0
  6 30  1  0
  7 31  1  0
 11 32  1  0
 12 33  1  0
 14 34  1  0
 15 35  1  0
 16 36  1  0
 17 37  1  0
 18 38  1  0
 20 39  1  0
 20 40  1  0
 22 41  1  0
 23 42  1  0
 24 43  1  0
 26 44  1  0
 27 45  1  0
M  END
>  <smiles>  (28) 
O=c1c2ccccc2nc(/C=C/c2ccccc2)n1Cc1cccc(O)c1

>  <score_type>  (28) 
oracle

>  <origin>  (28) 
autodockgpu

>  <m_score__min__energy>  (28) 
-8.5899999999999999

>  <m_primary>  (28) 
energy

>  <rmsd>  (28) 
10.171746822031258

>  <m_score__min__rmsd>  (28) 
10.171746822031258

>  <meeko>  (28) 
{"free_energy": -7.18, "intermolecular_energy": -8.97, "internal_energy": -1.48, "cluster_size": 21, "cluster_id": 4, "rank_in_cluster": 13}

>  <energy>  (28) 
-7.22

>  <cluster_rmsd>  (28) 
0.12

>  <cluster>  (28) 
4

$$$$

     RDKit          3D

 45 48  0  0  0  0  0  0  0  0999 V2000
  140.2830   71.8870  225.0550 O   0  0  0  0  0  0  0  0  0  0  0  0
  139.7730   70.7370  225.0350 C   0  0  0  0  0  0  0  0  0  0  0  0
  140.1020   69.9170  226.1090 C   0  0  0  0  0  0  0  0  0  0  0  0
  140.9340   70.3590  227.1170 C   0  0  0  0  0  0  0  0  0  0  0  0
  141.2450   69.5200  228.1750 C   0  0  0  0  0  0  0  0  0  0  0  0
  140.7220   68.2480  228.2150 C   0  0  0  0  0  0  0  0  0  0  0  0
  139.8850   67.7750  227.2200 C   0  0  0  0  0  0  0  0  0  0  0  0
  139.5980   68.6290  226.1880 C   0  0  0  0  0  0  0  0  0  0  0  0
  138.7930   68.2470  225.1820 N   0  0  0  0  0  0  0  0  0  0  0  0
  138.4890   69.0590  224.1540 C   0  0  0  0  0  0  0  0  0  0  0  0
  137.6200   68.4960  223.1180 C   0  0  0  0  0  0  0  0  0  0  0  0
  136.3310   68.7710  223.0880 C   0  0  0  0  0  0  0  0  0  0  0  0
  135.6310   69.5280  224.1110 C   0  0  0  0  0  0  0  0  0  0  0  0
  135.0480   68.9880  225.2210 C   0  0  0  0  0  0  0  0  0  0  0  0
  134.3930   69.7590  226.1660 C   0  0  0  0  0  0  0  0  0  0  0  0
  134.2970   71.1280  226.0260 C   0  0  0  0  0  0  0  0  0  0  0  0
  134.8780   71.6930  224.9130 C   0  0  0  0  0  0  0  0  0  0  0  0
  135.5300   70.9170  223.9760 C   0  0  0  0  0  0  0  0  0  0  0  0
  138.9540   70.3160  224.0360 N   0  0  0  0  0  0  0  0  0  0  0  0
  138.6230   71.2120  222.9680 C   0  0  0  0  0  0  0  0  0  0  0  0
  139.7870   71.8250  222.2810 C   0  0  0  0  0  0  0  0  0  0  0  0
  140.7250   71.1260  221.5640 C   0  0  0  0  0  0  0  0  0  0  0  0
  141.8100   71.7490  220.9370 C   0  0  0  0  0  0  0  0  0  0  0  0
  141.9830   73.1130  221.0140 C   0  0  0  0  0  0  0  0  0  0  0  0
  141.0510   73.8270  221.7280 C   0  0  0  0  0  0  0  0  0  0  0  0
  141.2090   75.2180  221.8180 O   0  0  0  0  0  0  0  0  0  0  0  0
  139.9750   73.2090  222.3490 C   0  0  0  0  0  0  0  0  0  0  0  0
  141.3501   71.3766  227.0808 H   0  0  0  0  0  0  0  0  0  0  0  0
  141.9078   69.8697  228.9802 H   0  0  0  0  0  0  0  0  0  0  0  0
  140.9758   67.5904  229.0595 H   0  0  0  0  0  0  0  0  0  0  0  0
  139.4682   66.7577  227.2560 H   0  0  0  0  0  0  0  0  0  0  0  0
  138.0498   67.8331  222.3527 H   0  0  0  0  0  0  0  0  0  0  0  0
  135.7470   68.4028  222.2316 H   0  0  0  0  0  0  0  0  0  0  0  0
  135.1007   67.8994  225.3701 H   0  0  0  0  0  0  0  0  0  0  0  0
  133.9417   69.2720  227.0430 H   0  0  0  0  0  0  0  0  0  0  0  0
  133.7767   71.7440  226.7742 H   0  0  0  0  0  0  0  0  0  0  0  0
  134.8216   72.7819  224.7679 H   0  0  0  0  0  0  0  0  0  0  0  0
  135.9824   71.4037  223.0994 H   0  0  0  0  0  0  0  0  0  0  0  0
  138.0414   70.6523  222.2207 H   0  0  0  0  0  0  0  0  0  0  0  0
  138.0632   72.0416  223.4246 H   0  0  0  0  0  0  0  0  0  0  0  0
  140.6202   70.0343  221.4787 H   0  0  0  0  0  0  0  0  0  0  0  0
  142.5343   71.1410  220.3751 H   0  0  0  0  0  0  0  0  0  0  0  0
  142.8327   73.6107  220.5239 H   0  0  0  0  0  0  0  0  0  0  0  0
  142.1170   75.6080  222.0190 H   0  0  0  0  0  0  0  0  0  0  0  0
  139.2529   73.8222  222.9080 H   0  0  0  0  0  0  0  0  0  0  0  0
  1  2  2  0
  2  3  1  0
  3  4  2  0
  4  5  1  0
  5  6  2  0
  6  7  1  0
  7  8  2  0
  8  9  1  0
  9 10  2  0
 10 11  1  0
 11 12  2  0
 12 13  1  0
 13 14  2  0
 14 15  1  0
 15 16  2  0
 16 17  1  0
 17 18  2  0
 10 19  1  0
 19 20  1  0
 20 21  1  0
 21 22  2  0
 22 23  1  0
 23 24  2  0
 24 25  1  0
 25 26  1  0
 25 27  2  0
 19  2  1  0
 27 21  1  0
  8  3  1  0
 18 13  1  0
  4 28  1  0
  5 29  1  0
  6 30  1  0
  7 31  1  0
 11 32  1  0
 12 33  1  0
 14 34  1  0
 15 35  1  0
 16 36  1  0
 17 37  1  0
 18 38  1  0
 20 39  1  0
 20 40  1  0
 22 41  1  0
 23 42  1  0
 24 43  1  0
 26 44  1  0
 27 45  1  0
M  END
>  <smiles>  (29) 
O=c1c2ccccc2nc(/C=C/c2ccccc2)n1Cc1cccc(O)c1

>  <score_type>  (29) 
oracle

>  <origin>  (29) 
autodockgpu

>  <m_score__min__energy>  (29) 
-8.5899999999999999

>  <m_primary>  (29) 
energy

>  <rmsd>  (29) 
10.215459042168195

>  <m_score__min__rmsd>  (29) 
10.215459042168195

>  <meeko>  (29) 
{"free_energy": -7.24, "intermolecular_energy": -9.03, "internal_energy": -1.48, "cluster_size": 21, "cluster_id": 4, "rank_in_cluster": 4}

>  <energy>  (29) 
-7.21

>  <cluster_rmsd>  (29) 
0.16

>  <cluster>  (29) 
4

$$$$

     RDKit          3D

 45 48  0  0  0  0  0  0  0  0999 V2000
  142.6890   76.4740  219.5750 O   0  0  0  0  0  0  0  0  0  0  0  0
  141.8270   76.1750  220.4420 C   0  0  0  0  0  0  0  0  0  0  0  0
  141.3680   77.2320  221.2200 C   0  0  0  0  0  0  0  0  0  0  0  0
  141.8420   78.5150  221.0340 C   0  0  0  0  0  0  0  0  0  0  0  0
  141.3680   79.5490  221.8250 C   0  0  0  0  0  0  0  0  0  0  0  0
  140.4240   79.2920  222.7930 C   0  0  0  0  0  0  0  0  0  0  0  0
  139.9290   78.0160  223.0040 C   0  0  0  0  0  0  0  0  0  0  0  0
  140.4190   77.0170  222.2070 C   0  0  0  0  0  0  0  0  0  0  0  0
  139.9910   75.7510  222.3470 N   0  0  0  0  0  0  0  0  0  0  0  0
  140.4500   74.7450  221.5810 C   0  0  0  0  0  0  0  0  0  0  0  0
  139.9090   73.4140  221.8670 C   0  0  0  0  0  0  0  0  0  0  0  0
  140.6790   72.4540  222.3410 C   0  0  0  0  0  0  0  0  0  0  0  0
  140.3320   71.6080  223.4690 C   0  0  0  0  0  0  0  0  0  0  0  0
  140.7250   71.8240  224.7580 C   0  0  0  0  0  0  0  0  0  0  0  0
  140.3630   70.9830  225.7960 C   0  0  0  0  0  0  0  0  0  0  0  0
  139.5780   69.8710  225.5720 C   0  0  0  0  0  0  0  0  0  0  0  0
  139.1710   69.6340  224.2770 C   0  0  0  0  0  0  0  0  0  0  0  0
  139.5360   70.4780  223.2490 C   0  0  0  0  0  0  0  0  0  0  0  0
  141.3690   74.9070  220.6120 N   0  0  0  0  0  0  0  0  0  0  0  0
  141.8530   73.8610  219.7630 C   0  0  0  0  0  0  0  0  0  0  0  0
  143.3210   73.6460  219.8060 C   0  0  0  0  0  0  0  0  0  0  0  0
  144.1260   73.9840  220.8640 C   0  0  0  0  0  0  0  0  0  0  0  0
  145.5090   73.7660  220.8560 C   0  0  0  0  0  0  0  0  0  0  0  0
  146.1280   73.1940  219.7680 C   0  0  0  0  0  0  0  0  0  0  0  0
  145.3340   72.8490  218.7010 C   0  0  0  0  0  0  0  0  0  0  0  0
  145.9460   72.2630  217.5830 O   0  0  0  0  0  0  0  0  0  0  0  0
  143.9640   73.0640  218.7090 C   0  0  0  0  0  0  0  0  0  0  0  0
  142.5955   78.7163  220.2583 H   0  0  0  0  0  0  0  0  0  0  0  0
  141.7450   80.5721  221.6798 H   0  0  0  0  0  0  0  0  0  0  0  0
  140.0536   80.1206  223.4144 H   0  0  0  0  0  0  0  0  0  0  0  0
  139.1746   77.8140  223.7787 H   0  0  0  0  0  0  0  0  0  0  0  0
  138.8434   73.2121  221.6835 H   0  0  0  0  0  0  0  0  0  0  0  0
  141.6481   72.2829  221.8494 H   0  0  0  0  0  0  0  0  0  0  0  0
  141.3530   72.6993  224.9803 H   0  0  0  0  0  0  0  0  0  0  0  0
  140.7071   71.2051  226.8169 H   0  0  0  0  0  0  0  0  0  0  0  0
  139.2885   69.2002  226.3943 H   0  0  0  0  0  0  0  0  0  0  0  0
  138.5442   68.7566  224.0594 H   0  0  0  0  0  0  0  0  0  0  0  0
  139.1919   70.2569  222.2279 H   0  0  0  0  0  0  0  0  0  0  0  0
  141.3620   72.9235  220.0630 H   0  0  0  0  0  0  0  0  0  0  0  0
  141.6175   74.1676  218.7332 H   0  0  0  0  0  0  0  0  0  0  0  0
  143.6677   74.4436  221.7521 H   0  0  0  0  0  0  0  0  0  0  0  0
  146.1090   74.0558  221.7312 H   0  0  0  0  0  0  0  0  0  0  0  0
  147.2141   73.0201  219.7532 H   0  0  0  0  0  0  0  0  0  0  0  0
  145.5340   72.3750  216.6680 H   0  0  0  0  0  0  0  0  0  0  0  0
  143.3691   72.7698  217.8318 H   0  0  0  0  0  0  0  0  0  0  0  0
  1  2  2  0
  2  3  1  0
  3  4  2  0
  4  5  1  0
  5  6  2  0
  6  7  1  0
  7  8  2  0
  8  9  1  0
  9 10  2  0
 10 11  1  0
 11 12  2  0
 12 13  1  0
 13 14  2  0
 14 15  1  0
 15 16  2  0
 16 17  1  0
 17 18  2  0
 10 19  1  0
 19 20  1  0
 20 21  1  0
 21 22  2  0
 22 23  1  0
 23 24  2  0
 24 25  1  0
 25 26  1  0
 25 27  2  0
 19  2  1  0
 27 21  1  0
  8  3  1  0
 18 13  1  0
  4 28  1  0
  5 29  1  0
  6 30  1  0
  7 31  1  0
 11 32  1  0
 12 33  1  0
 14 34  1  0
 15 35  1  0
 16 36  1  0
 17 37  1  0
 18 38  1  0
 20 39  1  0
 20 40  1  0
 22 41  1  0
 23 42  1  0
 24 43  1  0
 26 44  1  0
 27 45  1  0
M  END
>  <smiles>  (30) 
O=c1c2ccccc2nc(/C=C/c2ccccc2)n1Cc1cccc(O)c1

>  <score_type>  (30) 
oracle

>  <origin>  (30) 
autodockgpu

>  <m_score__min__energy>  (30) 
-8.5899999999999999

>  <m_primary>  (30) 
energy

>  <rmsd>  (30) 
7.572469064975405

>  <m_score__min__rmsd>  (30) 
7.572469064975405

>  <meeko>  (30) 
{"free_energy": -7.4, "intermolecular_energy": -9.19, "internal_energy": -1.0, "cluster_size": 14, "cluster_id": 1, "rank_in_cluster": 12}

>  <energy>  (30) 
-7.19

>  <cluster_rmsd>  (30) 
0.41

>  <cluster>  (30) 
4

$$$$

     RDKit          3D

 45 48  0  0  0  0  0  0  0  0999 V2000
  141.5190   75.1860  219.0940 O   0  0  0  0  0  0  0  0  0  0  0  0
  140.9950   74.7270  220.1420 C   0  0  0  0  0  0  0  0  0  0  0  0
  140.1640   75.6040  220.8300 C   0  0  0  0  0  0  0  0  0  0  0  0
  139.9440   76.8870  220.3720 C   0  0  0  0  0  0  0  0  0  0  0  0
  139.1110   77.7410  221.0780 C   0  0  0  0  0  0  0  0  0  0  0  0
  138.5050   77.3030  222.2340 C   0  0  0  0  0  0  0  0  0  0  0  0
  138.7060   76.0220  222.7190 C   0  0  0  0  0  0  0  0  0  0  0  0
  139.5350   75.2050  221.9980 C   0  0  0  0  0  0  0  0  0  0  0  0
  139.7820   73.9460  222.4010 N   0  0  0  0  0  0  0  0  0  0  0  0
  140.5910   73.1160  221.7180 C   0  0  0  0  0  0  0  0  0  0  0  0
  140.7850   71.7830  222.2910 C   0  0  0  0  0  0  0  0  0  0  0  0
  139.8930   71.2570  223.1070 C   0  0  0  0  0  0  0  0  0  0  0  0
  140.1190   71.0130  224.5210 C   0  0  0  0  0  0  0  0  0  0  0  0
  140.8780   71.8020  225.3370 C   0  0  0  0  0  0  0  0  0  0  0  0
  141.0600   71.5220  226.6810 C   0  0  0  0  0  0  0  0  0  0  0  0
  140.4760   70.4160  227.2640 C   0  0  0  0  0  0  0  0  0  0  0  0
  139.7070   69.6070  226.4570 C   0  0  0  0  0  0  0  0  0  0  0  0
  139.5300   69.8930  225.1190 C   0  0  0  0  0  0  0  0  0  0  0  0
  141.2200   73.4600  220.5800 N   0  0  0  0  0  0  0  0  0  0  0  0
  142.0620   72.5890  219.8160 C   0  0  0  0  0  0  0  0  0  0  0  0
  143.5180   72.8000  220.0030 C   0  0  0  0  0  0  0  0  0  0  0  0
  144.1520   72.8210  221.2200 C   0  0  0  0  0  0  0  0  0  0  0  0
  145.5310   73.0300  221.3470 C   0  0  0  0  0  0  0  0  0  0  0  0
  146.3200   73.2260  220.2360 C   0  0  0  0  0  0  0  0  0  0  0  0
  145.7000   73.2080  219.0110 C   0  0  0  0  0  0  0  0  0  0  0  0
  146.4870   73.4050  217.8670 O   0  0  0  0  0  0  0  0  0  0  0  0
  144.3340   73.0000  218.8850 C   0  0  0  0  0  0  0  0  0  0  0  0
  140.4294   77.2319  219.4471 H   0  0  0  0  0  0  0  0  0  0  0  0
  138.9348   78.7647  220.7160 H   0  0  0  0  0  0  0  0  0  0  0  0
  137.8446   77.9880  222.7860 H   0  0  0  0  0  0  0  0  0  0  0  0
  138.2208   75.6756  223.6434 H   0  0  0  0  0  0  0  0  0  0  0  0
  141.6895   71.2110  222.0367 H   0  0  0  0  0  0  0  0  0  0  0  0
  138.9125   70.9848  222.6893 H   0  0  0  0  0  0  0  0  0  0  0  0
  141.3628   72.6929  224.9111 H   0  0  0  0  0  0  0  0  0  0  0  0
  141.6804   72.1924  227.2940 H   0  0  0  0  0  0  0  0  0  0  0  0
  140.6189   70.1894  228.3309 H   0  0  0  0  0  0  0  0  0  0  0  0
  139.2252   68.7166  226.8872 H   0  0  0  0  0  0  0  0  0  0  0  0
  138.9094   69.2230  224.5059 H   0  0  0  0  0  0  0  0  0  0  0  0
  141.8283   71.5525  220.1008 H   0  0  0  0  0  0  0  0  0  0  0  0
  141.8532   72.8098  218.7588 H   0  0  0  0  0  0  0  0  0  0  0  0
  143.5542   72.6678  222.1306 H   0  0  0  0  0  0  0  0  0  0  0  0
  145.9894   73.0376  222.3469 H   0  0  0  0  0  0  0  0  0  0  0  0
  147.4039   73.3905  220.3261 H   0  0  0  0  0  0  0  0  0  0  0  0
  146.5550   74.3240  217.4550 H   0  0  0  0  0  0  0  0  0  0  0  0
  143.8822   72.9922  217.8821 H   0  0  0  0  0  0  0  0  0  0  0  0
  1  2  2  0
  2  3  1  0
  3  4  2  0
  4  5  1  0
  5  6  2  0
  6  7  1  0
  7  8  2  0
  8  9  1  0
  9 10  2  0
 10 11  1  0
 11 12  2  0
 12 13  1  0
 13 14  2  0
 14 15  1  0
 15 16  2  0
 16 17  1  0
 17 18  2  0
 10 19  1  0
 19 20  1  0
 20 21  1  0
 21 22  2  0
 22 23  1  0
 23 24  2  0
 24 25  1  0
 25 26  1  0
 25 27  2  0
 19  2  1  0
 27 21  1  0
  8  3  1  0
 18 13  1  0
  4 28  1  0
  5 29  1  0
  6 30  1  0
  7 31  1  0
 11 32  1  0
 12 33  1  0
 14 34  1  0
 15 35  1  0
 16 36  1  0
 17 37  1  0
 18 38  1  0
 20 39  1  0
 20 40  1  0
 22 41  1  0
 23 42  1  0
 24 43  1  0
 26 44  1  0
 27 45  1  0
M  END
>  <smiles>  (31) 
O=c1c2ccccc2nc(/C=C/c2ccccc2)n1Cc1cccc(O)c1

>  <score_type>  (31) 
oracle

>  <origin>  (31) 
autodockgpu

>  <m_score__min__energy>  (31) 
-8.5899999999999999

>  <m_primary>  (31) 
energy

>  <rmsd>  (31) 
7.611132250345997

>  <m_score__min__rmsd>  (31) 
7.611132250345997

>  <meeko>  (31) 
{"free_energy": -7.81, "intermolecular_energy": -9.6, "internal_energy": -1.1, "cluster_size": 14, "cluster_id": 1, "rank_in_cluster": 7}

>  <energy>  (31) 
-7.19

>  <cluster_rmsd>  (31) 
0.09

>  <cluster>  (31) 
4

$$$$

     RDKit          3D

 45 48  0  0  0  0  0  0  0  0999 V2000
  142.7270   75.1660  219.9460 O   0  0  0  0  0  0  0  0  0  0  0  0
  141.7960   74.7580  220.6880 C   0  0  0  0  0  0  0  0  0  0  0  0
  141.0140   75.7500  221.2700 C   0  0  0  0  0  0  0  0  0  0  0  0
  141.2630   77.0860  221.0320 C   0  0  0  0  0  0  0  0  0  0  0  0
  140.4680   78.0540  221.6260 C   0  0  0  0  0  0  0  0  0  0  0  0
  139.4320   77.6760  222.4500 C   0  0  0  0  0  0  0  0  0  0  0  0
  139.1570   76.3440  222.7080 C   0  0  0  0  0  0  0  0  0  0  0  0
  139.9620   75.4130  222.1070 C   0  0  0  0  0  0  0  0  0  0  0  0
  139.7620   74.1000  222.3050 N   0  0  0  0  0  0  0  0  0  0  0  0
  140.5330   73.1580  221.7300 C   0  0  0  0  0  0  0  0  0  0  0  0
  140.2110   71.7680  222.0590 C   0  0  0  0  0  0  0  0  0  0  0  0
  139.4660   71.4710  223.1060 C   0  0  0  0  0  0  0  0  0  0  0  0
  139.9920   71.0630  224.3970 C   0  0  0  0  0  0  0  0  0  0  0  0
  140.6970   71.8690  225.2430 C   0  0  0  0  0  0  0  0  0  0  0  0
  141.1750   71.4270  226.4640 C   0  0  0  0  0  0  0  0  0  0  0  0
  140.9580   70.1320  226.8880 C   0  0  0  0  0  0  0  0  0  0  0  0
  140.2490   69.3020  226.0480 C   0  0  0  0  0  0  0  0  0  0  0  0
  139.7760   69.7510  224.8330 C   0  0  0  0  0  0  0  0  0  0  0  0
  141.5630   73.4370  220.9110 N   0  0  0  0  0  0  0  0  0  0  0  0
  142.3800   72.4560  220.2630 C   0  0  0  0  0  0  0  0  0  0  0  0
  143.8220   72.7950  220.1810 C   0  0  0  0  0  0  0  0  0  0  0  0
  144.6450   72.9630  221.2660 C   0  0  0  0  0  0  0  0  0  0  0  0
  146.0010   73.2890  221.1380 C   0  0  0  0  0  0  0  0  0  0  0  0
  146.5730   73.4570  219.8980 C   0  0  0  0  0  0  0  0  0  0  0  0
  145.7620   73.2920  218.8020 C   0  0  0  0  0  0  0  0  0  0  0  0
  146.3260   73.4580  217.5280 O   0  0  0  0  0  0  0  0  0  0  0  0
  144.4180   72.9680  218.9280 C   0  0  0  0  0  0  0  0  0  0  0  0
  142.0913   77.3827  220.3718 H   0  0  0  0  0  0  0  0  0  0  0  0
  140.6643   79.1202  221.4396 H   0  0  0  0  0  0  0  0  0  0  0  0
  138.8067   78.4522  222.9153 H   0  0  0  0  0  0  0  0  0  0  0  0
  138.3281   76.0463  223.3670 H   0  0  0  0  0  0  0  0  0  0  0  0
  140.5968   70.9581  221.4224 H   0  0  0  0  0  0  0  0  0  0  0  0
  138.3737   71.5366  222.9941 H   0  0  0  0  0  0  0  0  0  0  0  0
  140.8926   72.9091  224.9430 H   0  0  0  0  0  0  0  0  0  0  0  0
  141.7374   72.1196  227.1074 H   0  0  0  0  0  0  0  0  0  0  0  0
  141.3361   69.7767  227.8580 H   0  0  0  0  0  0  0  0  0  0  0  0
  140.0566   68.2624  226.3518 H   0  0  0  0  0  0  0  0  0  0  0  0
  139.2136   69.0590  224.1890 H   0  0  0  0  0  0  0  0  0  0  0  0
  142.2828   71.5110  220.8175 H   0  0  0  0  0  0  0  0  0  0  0  0
  142.0198   72.3932  219.2255 H   0  0  0  0  0  0  0  0  0  0  0  0
  144.2239   72.8369  222.2743 H   0  0  0  0  0  0  0  0  0  0  0  0
  146.6170   73.4124  222.0409 H   0  0  0  0  0  0  0  0  0  0  0  0
  147.6372   73.7132  219.7888 H   0  0  0  0  0  0  0  0  0  0  0  0
  146.3700   74.3770  217.1140 H   0  0  0  0  0  0  0  0  0  0  0  0
  143.8078   72.8445  218.0211 H   0  0  0  0  0  0  0  0  0  0  0  0
  1  2  2  0
  2  3  1  0
  3  4  2  0
  4  5  1  0
  5  6  2  0
  6  7  1  0
  7  8  2  0
  8  9  1  0
  9 10  2  0
 10 11  1  0
 11 12  2  0
 12 13  1  0
 13 14  2  0
 14 15  1  0
 15 16  2  0
 16 17  1  0
 17 18  2  0
 10 19  1  0
 19 20  1  0
 20 21  1  0
 21 22  2  0
 22 23  1  0
 23 24  2  0
 24 25  1  0
 25 26  1  0
 25 27  2  0
 19  2  1  0
 27 21  1  0
  8  3  1  0
 18 13  1  0
  4 28  1  0
  5 29  1  0
  6 30  1  0
  7 31  1  0
 11 32  1  0
 12 33  1  0
 14 34  1  0
 15 35  1  0
 16 36  1  0
 17 37  1  0
 18 38  1  0
 20 39  1  0
 20 40  1  0
 22 41  1  0
 23 42  1  0
 24 43  1  0
 26 44  1  0
 27 45  1  0
M  END
>  <smiles>  (32) 
O=c1c2ccccc2nc(/C=C/c2ccccc2)n1Cc1cccc(O)c1

>  <score_type>  (32) 
oracle

>  <origin>  (32) 
autodockgpu

>  <m_score__min__energy>  (32) 
-8.5899999999999999

>  <m_primary>  (32) 
energy

>  <rmsd>  (32) 
7.754416914387697

>  <m_score__min__rmsd>  (32) 
7.754416914387697

>  <meeko>  (32) 
{"free_energy": -8.29, "intermolecular_energy": -10.08, "internal_energy": -0.9, "cluster_size": 14, "cluster_id": 1, "rank_in_cluster": 3}

>  <energy>  (32) 
-7.18

>  <cluster_rmsd>  (32) 
0.54

>  <cluster>  (32) 
4

$$$$

     RDKit          3D

 45 48  0  0  0  0  0  0  0  0999 V2000
  142.4430   75.1990  219.5450 O   0  0  0  0  0  0  0  0  0  0  0  0
  141.6510   74.7880  220.4320 C   0  0  0  0  0  0  0  0  0  0  0  0
  140.8490   75.7620  221.0170 C   0  0  0  0  0  0  0  0  0  0  0  0
  140.9340   77.0840  220.6320 C   0  0  0  0  0  0  0  0  0  0  0  0
  140.1220   78.0340  221.2310 C   0  0  0  0  0  0  0  0  0  0  0  0
  139.2330   77.6520  222.2100 C   0  0  0  0  0  0  0  0  0  0  0  0
  139.1230   76.3340  222.6190 C   0  0  0  0  0  0  0  0  0  0  0  0
  139.9400   75.4210  222.0060 C   0  0  0  0  0  0  0  0  0  0  0  0
  139.8960   74.1210  222.3450 N   0  0  0  0  0  0  0  0  0  0  0  0
  140.6830   73.1980  221.7640 C   0  0  0  0  0  0  0  0  0  0  0  0
  140.5420   71.8250  222.2540 C   0  0  0  0  0  0  0  0  0  0  0  0
  139.6980   71.5320  223.2240 C   0  0  0  0  0  0  0  0  0  0  0  0
  140.0930   71.0470  224.5350 C   0  0  0  0  0  0  0  0  0  0  0  0
  140.7380   71.7910  225.4800 C   0  0  0  0  0  0  0  0  0  0  0  0
  141.0910   71.2770  226.7160 C   0  0  0  0  0  0  0  0  0  0  0  0
  140.8040   69.9700  227.0530 C   0  0  0  0  0  0  0  0  0  0  0  0
  140.1530   69.2030  226.1120 C   0  0  0  0  0  0  0  0  0  0  0  0
  139.8040   69.7230  224.8840 C   0  0  0  0  0  0  0  0  0  0  0  0
  141.5770   73.4820  220.8000 N   0  0  0  0  0  0  0  0  0  0  0  0
  142.4060   72.5150  220.1440 C   0  0  0  0  0  0  0  0  0  0  0  0
  143.8530   72.8420  220.1200 C   0  0  0  0  0  0  0  0  0  0  0  0
  144.6300   73.0200  221.2370 C   0  0  0  0  0  0  0  0  0  0  0  0
  145.9920   73.3340  221.1640 C   0  0  0  0  0  0  0  0  0  0  0  0
  146.6190   73.4780  219.9470 C   0  0  0  0  0  0  0  0  0  0  0  0
  145.8550   73.3030  218.8190 C   0  0  0  0  0  0  0  0  0  0  0  0
  146.4750   73.4450  217.5690 O   0  0  0  0  0  0  0  0  0  0  0  0
  144.5040   72.9920  218.8920 C   0  0  0  0  0  0  0  0  0  0  0  0
  141.6464   77.3841  219.8495 H   0  0  0  0  0  0  0  0  0  0  0  0
  140.1876   79.0887  220.9254 H   0  0  0  0  0  0  0  0  0  0  0  0
  138.5933   78.4138  222.6796 H   0  0  0  0  0  0  0  0  0  0  0  0
  138.4110   76.0331  223.4017 H   0  0  0  0  0  0  0  0  0  0  0  0
  141.1499   71.0253  221.8057 H   0  0  0  0  0  0  0  0  0  0  0  0
  138.6238   71.6636  223.0273 H   0  0  0  0  0  0  0  0  0  0  0  0
  140.9866   72.8378  225.2511 H   0  0  0  0  0  0  0  0  0  0  0  0
  141.6090   71.9213  227.4417 H   0  0  0  0  0  0  0  0  0  0  0  0
  141.0838   69.5573  228.0335 H   0  0  0  0  0  0  0  0  0  0  0  0
  139.9071   68.1564  226.3448 H   0  0  0  0  0  0  0  0  0  0  0  0
  139.2842   69.0797  224.1587 H   0  0  0  0  0  0  0  0  0  0  0  0
  142.2824   71.5524  220.6617 H   0  0  0  0  0  0  0  0  0  0  0  0
  142.0789   72.4917  219.0940 H   0  0  0  0  0  0  0  0  0  0  0  0
  144.1646   72.9117  222.2278 H   0  0  0  0  0  0  0  0  0  0  0  0
  146.5688   73.4674  222.0911 H   0  0  0  0  0  0  0  0  0  0  0  0
  147.6892   73.7234  219.8805 H   0  0  0  0  0  0  0  0  0  0  0  0
  146.5140   74.3510  217.1270 H   0  0  0  0  0  0  0  0  0  0  0  0
  143.9322   72.8605  217.9615 H   0  0  0  0  0  0  0  0  0  0  0  0
  1  2  2  0
  2  3  1  0
  3  4  2  0
  4  5  1  0
  5  6  2  0
  6  7  1  0
  7  8  2  0
  8  9  1  0
  9 10  2  0
 10 11  1  0
 11 12  2  0
 12 13  1  0
 13 14  2  0
 14 15  1  0
 15 16  2  0
 16 17  1  0
 17 18  2  0
 10 19  1  0
 19 20  1  0
 20 21  1  0
 21 22  2  0
 22 23  1  0
 23 24  2  0
 24 25  1  0
 25 26  1  0
 25 27  2  0
 19  2  1  0
 27 21  1  0
  8  3  1  0
 18 13  1  0
  4 28  1  0
  5 29  1  0
  6 30  1  0
  7 31  1  0
 11 32  1  0
 12 33  1  0
 14 34  1  0
 15 35  1  0
 16 36  1  0
 17 37  1  0
 18 38  1  0
 20 39  1  0
 20 40  1  0
 22 41  1  0
 23 42  1  0
 24 43  1  0
 26 44  1  0
 27 45  1  0
M  END
>  <smiles>  (33) 
O=c1c2ccccc2nc(/C=C/c2ccccc2)n1Cc1cccc(O)c1

>  <score_type>  (33) 
oracle

>  <origin>  (33) 
autodockgpu

>  <m_score__min__energy>  (33) 
-8.5899999999999999

>  <m_primary>  (33) 
energy

>  <rmsd>  (33) 
7.679578347756782

>  <m_score__min__rmsd>  (33) 
7.679578347756782

>  <meeko>  (33) 
{"free_energy": -8.25, "intermolecular_energy": -10.04, "internal_energy": -1.01, "cluster_size": 14, "cluster_id": 1, "rank_in_cluster": 4}

>  <energy>  (33) 
-7.18

>  <cluster_rmsd>  (33) 
0.29

>  <cluster>  (33) 
4

$$$$

     RDKit          3D

 45 48  0  0  0  0  0  0  0  0999 V2000
  135.8160   70.1580  221.6470 O   0  0  0  0  0  0  0  0  0  0  0  0
  136.2180   69.8660  222.8030 C   0  0  0  0  0  0  0  0  0  0  0  0
  135.3220   70.1300  223.8330 C   0  0  0  0  0  0  0  0  0  0  0  0
  134.0800   70.6750  223.5780 C   0  0  0  0  0  0  0  0  0  0  0  0
  133.2070   70.9270  224.6240 C   0  0  0  0  0  0  0  0  0  0  0  0
  133.5830   70.6320  225.9150 C   0  0  0  0  0  0  0  0  0  0  0  0
  134.8220   70.0850  226.2040 C   0  0  0  0  0  0  0  0  0  0  0  0
  135.6610   69.8490  225.1470 C   0  0  0  0  0  0  0  0  0  0  0  0
  136.8800   69.3190  225.3420 N   0  0  0  0  0  0  0  0  0  0  0  0
  137.7300   69.0730  224.3280 C   0  0  0  0  0  0  0  0  0  0  0  0
  139.0340   68.5180  224.6960 C   0  0  0  0  0  0  0  0  0  0  0  0
  139.4910   68.6130  225.9290 C   0  0  0  0  0  0  0  0  0  0  0  0
  140.0270   69.8310  226.5120 C   0  0  0  0  0  0  0  0  0  0  0  0
  139.9080   70.1850  227.8250 C   0  0  0  0  0  0  0  0  0  0  0  0
  140.4390   71.3600  228.3290 C   0  0  0  0  0  0  0  0  0  0  0  0
  141.1220   72.2400  227.5140 C   0  0  0  0  0  0  0  0  0  0  0  0
  141.2520   71.9010  226.1850 C   0  0  0  0  0  0  0  0  0  0  0  0
  140.7200   70.7280  225.6920 C   0  0  0  0  0  0  0  0  0  0  0  0
  137.4440   69.3280  223.0390 N   0  0  0  0  0  0  0  0  0  0  0  0
  138.3160   69.0490  221.9380 C   0  0  0  0  0  0  0  0  0  0  0  0
  139.3090   70.1100  221.6390 C   0  0  0  0  0  0  0  0  0  0  0  0
  140.3860   69.9560  220.8030 C   0  0  0  0  0  0  0  0  0  0  0  0
  141.3010   70.9870  220.5560 C   0  0  0  0  0  0  0  0  0  0  0  0
  141.1540   72.2190  221.1530 C   0  0  0  0  0  0  0  0  0  0  0  0
  140.0810   72.3890  221.9930 C   0  0  0  0  0  0  0  0  0  0  0  0
  139.9140   73.6370  222.6100 O   0  0  0  0  0  0  0  0  0  0  0  0
  139.1740   71.3670  222.2370 C   0  0  0  0  0  0  0  0  0  0  0  0
  133.7833   70.9092  222.5450 H   0  0  0  0  0  0  0  0  0  0  0  0
  132.2165   71.3614  224.4234 H   0  0  0  0  0  0  0  0  0  0  0  0
  132.8817   70.8359  226.7376 H   0  0  0  0  0  0  0  0  0  0  0  0
  135.1194   69.8504  227.2367 H   0  0  0  0  0  0  0  0  0  0  0  0
  139.6424   68.0134  223.9310 H   0  0  0  0  0  0  0  0  0  0  0  0
  139.4647   67.7107  226.5577 H   0  0  0  0  0  0  0  0  0  0  0  0
  139.3700   69.5114  228.5082 H   0  0  0  0  0  0  0  0  0  0  0  0
  140.3146   71.5961  229.3961 H   0  0  0  0  0  0  0  0  0  0  0  0
  141.5457   73.1748  227.9099 H   0  0  0  0  0  0  0  0  0  0  0  0
  141.7897   72.5780  225.5049 H   0  0  0  0  0  0  0  0  0  0  0  0
  140.8439   70.4912  224.6250 H   0  0  0  0  0  0  0  0  0  0  0  0
  138.8643   68.1224  222.1635 H   0  0  0  0  0  0  0  0  0  0  0  0
  137.6728   68.9711  221.0490 H   0  0  0  0  0  0  0  0  0  0  0  0
  140.5365   68.9854  220.3077 H   0  0  0  0  0  0  0  0  0  0  0  0
  142.1478   70.8104  219.8765 H   0  0  0  0  0  0  0  0  0  0  0  0
  141.8677   73.0346  220.9646 H   0  0  0  0  0  0  0  0  0  0  0  0
  139.2970   73.7270  223.4040 H   0  0  0  0  0  0  0  0  0  0  0  0
  138.3289   71.5501  222.9169 H   0  0  0  0  0  0  0  0  0  0  0  0
  1  2  2  0
  2  3  1  0
  3  4  2  0
  4  5  1  0
  5  6  2  0
  6  7  1  0
  7  8  2  0
  8  9  1  0
  9 10  2  0
 10 11  1  0
 11 12  2  0
 12 13  1  0
 13 14  2  0
 14 15  1  0
 15 16  2  0
 16 17  1  0
 17 18  2  0
 10 19  1  0
 19 20  1  0
 20 21  1  0
 21 22  2  0
 22 23  1  0
 23 24  2  0
 24 25  1  0
 25 26  1  0
 25 27  2  0
 19  2  1  0
 27 21  1  0
  8  3  1  0
 18 13  1  0
  4 28  1  0
  5 29  1  0
  6 30  1  0
  7 31  1  0
 11 32  1  0
 12 33  1  0
 14 34  1  0
 15 35  1  0
 16 36  1  0
 17 37  1  0
 18 38  1  0
 20 39  1  0
 20 40  1  0
 22 41  1  0
 23 42  1  0
 24 43  1  0
 26 44  1  0
 27 45  1  0
M  END
>  <smiles>  (34) 
O=c1c2ccccc2nc(/C=C/c2ccccc2)n1Cc1cccc(O)c1

>  <score_type>  (34) 
oracle

>  <origin>  (34) 
autodockgpu

>  <m_score__min__energy>  (34) 
-8.5899999999999999

>  <m_primary>  (34) 
energy

>  <rmsd>  (34) 
10.624851658887875

>  <m_score__min__rmsd>  (34) 
10.624851658887875

>  <meeko>  (34) 
{"free_energy": -6.83, "intermolecular_energy": -8.62, "internal_energy": -1.55, "cluster_size": 21, "cluster_id": 4, "rank_in_cluster": 20}

>  <energy>  (34) 
-7.18

>  <cluster_rmsd>  (34) 
0.16

>  <cluster>  (34) 
4

$$$$

     RDKit          3D

 45 48  0  0  0  0  0  0  0  0999 V2000
  138.9880   76.8330  222.7090 O   0  0  0  0  0  0  0  0  0  0  0  0
  139.9980   77.1160  222.0140 C   0  0  0  0  0  0  0  0  0  0  0  0
  140.6940   78.2550  222.4030 C   0  0  0  0  0  0  0  0  0  0  0  0
  140.2840   79.0090  223.4830 C   0  0  0  0  0  0  0  0  0  0  0  0
  140.9960   80.1400  223.8490 C   0  0  0  0  0  0  0  0  0  0  0  0
  142.1110   80.5070  223.1300 C   0  0  0  0  0  0  0  0  0  0  0  0
  142.5480   79.7730  222.0410 C   0  0  0  0  0  0  0  0  0  0  0  0
  141.8210   78.6610  221.7060 C   0  0  0  0  0  0  0  0  0  0  0  0
  142.1780   77.8930  220.6630 N   0  0  0  0  0  0  0  0  0  0  0  0
  141.4890   76.7950  220.3060 C   0  0  0  0  0  0  0  0  0  0  0  0
  141.9820   76.0720  219.1320 C   0  0  0  0  0  0  0  0  0  0  0  0
  143.2750   75.9350  218.9110 C   0  0  0  0  0  0  0  0  0  0  0  0
  144.0540   74.7720  219.2980 C   0  0  0  0  0  0  0  0  0  0  0  0
  144.1100   73.6020  218.5960 C   0  0  0  0  0  0  0  0  0  0  0  0
  144.8710   72.5230  219.0120 C   0  0  0  0  0  0  0  0  0  0  0  0
  145.6170   72.5810  220.1720 C   0  0  0  0  0  0  0  0  0  0  0  0
  145.5730   73.7530  220.8940 C   0  0  0  0  0  0  0  0  0  0  0  0
  144.8120   74.8240  220.4730 C   0  0  0  0  0  0  0  0  0  0  0  0
  140.3900   76.3630  220.9520 N   0  0  0  0  0  0  0  0  0  0  0  0
  139.6550   75.1820  220.6140 C   0  0  0  0  0  0  0  0  0  0  0  0
  140.1810   73.9250  221.2020 C   0  0  0  0  0  0  0  0  0  0  0  0
  141.3150   73.2810  220.7760 C   0  0  0  0  0  0  0  0  0  0  0  0
  141.7690   72.0920  221.3600 C   0  0  0  0  0  0  0  0  0  0  0  0
  141.0840   71.5110  222.4030 C   0  0  0  0  0  0  0  0  0  0  0  0
  139.9460   72.1450  222.8410 C   0  0  0  0  0  0  0  0  0  0  0  0
  139.2350   71.5680  223.9030 O   0  0  0  0  0  0  0  0  0  0  0  0
  139.4970   73.3230  222.2620 C   0  0  0  0  0  0  0  0  0  0  0  0
  139.3917   78.7123  224.0537 H   0  0  0  0  0  0  0  0  0  0  0  0
  140.6716   80.7421  224.7105 H   0  0  0  0  0  0  0  0  0  0  0  0
  142.6690   81.4067  223.4286 H   0  0  0  0  0  0  0  0  0  0  0  0
  143.4399   80.0694  221.4695 H   0  0  0  0  0  0  0  0  0  0  0  0
  141.2625   75.6362  218.4232 H   0  0  0  0  0  0  0  0  0  0  0  0
  143.7982   76.7563  218.3995 H   0  0  0  0  0  0  0  0  0  0  0  0
  143.5292   73.5137  217.6660 H   0  0  0  0  0  0  0  0  0  0  0  0
  144.8814   71.6038  218.4079 H   0  0  0  0  0  0  0  0  0  0  0  0
  146.2223   71.7255  220.5063 H   0  0  0  0  0  0  0  0  0  0  0  0
  146.1553   73.8367  221.8234 H   0  0  0  0  0  0  0  0  0  0  0  0
  144.8008   75.7432  221.0771 H   0  0  0  0  0  0  0  0  0  0  0  0
  138.6195   75.3137  220.9611 H   0  0  0  0  0  0  0  0  0  0  0  0
  139.7396   75.0695  219.5230 H   0  0  0  0  0  0  0  0  0  0  0  0
  141.8893   73.7150  219.9443 H   0  0  0  0  0  0  0  0  0  0  0  0
  142.6851   71.6160  220.9802 H   0  0  0  0  0  0  0  0  0  0  0  0
  141.4333   70.5769  222.8672 H   0  0  0  0  0  0  0  0  0  0  0  0
  138.3300   71.9340  224.1590 H   0  0  0  0  0  0  0  0  0  0  0  0
  138.5806   73.7947  222.6463 H   0  0  0  0  0  0  0  0  0  0  0  0
  1  2  2  0
  2  3  1  0
  3  4  2  0
  4  5  1  0
  5  6  2  0
  6  7  1  0
  7  8  2  0
  8  9  1  0
  9 10  2  0
 10 11  1  0
 11 12  2  0
 12 13  1  0
 13 14  2  0
 14 15  1  0
 15 16  2  0
 16 17  1  0
 17 18  2  0
 10 19  1  0
 19 20  1  0
 20 21  1  0
 21 22  2  0
 22 23  1  0
 23 24  2  0
 24 25  1  0
 25 26  1  0
 25 27  2  0
 19  2  1  0
 27 21  1  0
  8  3  1  0
 18 13  1  0
  4 28  1  0
  5 29  1  0
  6 30  1  0
  7 31  1  0
 11 32  1  0
 12 33  1  0
 14 34  1  0
 15 35  1  0
 16 36  1  0
 17 37  1  0
 18 38  1  0
 20 39  1  0
 20 40  1  0
 22 41  1  0
 23 42  1  0
 24 43  1  0
 26 44  1  0
 27 45  1  0
M  END
>  <smiles>  (35) 
O=c1c2ccccc2nc(/C=C/c2ccccc2)n1Cc1cccc(O)c1

>  <score_type>  (35) 
oracle

>  <origin>  (35) 
autodockgpu

>  <m_score__min__energy>  (35) 
-8.5899999999999999

>  <m_primary>  (35) 
energy

>  <rmsd>  (35) 
7.684413791840774

>  <m_score__min__rmsd>  (35) 
7.684413791840774

>  <meeko>  (35) 
{"free_energy": -6.61, "intermolecular_energy": -8.4, "internal_energy": -1.62, "cluster_size": 1, "cluster_id": 8, "rank_in_cluster": 1}

>  <energy>  (35) 
-7.17

>  <cluster_rmsd>  (35) 
0.32

>  <cluster>  (35) 
4

$$$$

     RDKit          3D

 45 48  0  0  0  0  0  0  0  0999 V2000
  140.2570   71.8950  225.0660 O   0  0  0  0  0  0  0  0  0  0  0  0
  139.7250   70.7550  225.0380 C   0  0  0  0  0  0  0  0  0  0  0  0
  140.0390   69.9200  226.1050 C   0  0  0  0  0  0  0  0  0  0  0  0
  140.8810   70.3390  227.1150 C   0  0  0  0  0  0  0  0  0  0  0  0
  141.1780   69.4860  228.1660 C   0  0  0  0  0  0  0  0  0  0  0  0
  140.6300   68.2230  228.1970 C   0  0  0  0  0  0  0  0  0  0  0  0
  139.7820   67.7740  227.1990 C   0  0  0  0  0  0  0  0  0  0  0  0
  139.5100   68.6410  226.1750 C   0  0  0  0  0  0  0  0  0  0  0  0
  138.6970   68.2830  225.1670 N   0  0  0  0  0  0  0  0  0  0  0  0
  138.4070   69.1090  224.1450 C   0  0  0  0  0  0  0  0  0  0  0  0
  137.5260   68.5710  223.1070 C   0  0  0  0  0  0  0  0  0  0  0  0
  136.2310   68.8190  223.1180 C   0  0  0  0  0  0  0  0  0  0  0  0
  135.5490   69.5680  224.1590 C   0  0  0  0  0  0  0  0  0  0  0  0
  135.0030   69.0200  225.2840 C   0  0  0  0  0  0  0  0  0  0  0  0
  134.3640   69.7830  226.2460 C   0  0  0  0  0  0  0  0  0  0  0  0
  134.2470   71.1510  226.1090 C   0  0  0  0  0  0  0  0  0  0  0  0
  134.7910   71.7230  224.9810 C   0  0  0  0  0  0  0  0  0  0  0  0
  135.4270   70.9560  224.0270 C   0  0  0  0  0  0  0  0  0  0  0  0
  138.8960   70.3580  224.0360 N   0  0  0  0  0  0  0  0  0  0  0  0
  138.5820   71.2680  222.9770 C   0  0  0  0  0  0  0  0  0  0  0  0
  139.7560   71.8550  222.2840 C   0  0  0  0  0  0  0  0  0  0  0  0
  140.6840   71.1330  221.5770 C   0  0  0  0  0  0  0  0  0  0  0  0
  141.7800   71.7320  220.9440 C   0  0  0  0  0  0  0  0  0  0  0  0
  141.9740   73.0930  221.0070 C   0  0  0  0  0  0  0  0  0  0  0  0
  141.0530   73.8300  221.7110 C   0  0  0  0  0  0  0  0  0  0  0  0
  141.2330   75.2190  221.7850 O   0  0  0  0  0  0  0  0  0  0  0  0
  139.9670   73.2360  222.3380 C   0  0  0  0  0  0  0  0  0  0  0  0
  141.3159   71.3490  227.0858 H   0  0  0  0  0  0  0  0  0  0  0  0
  141.8490   69.8166  228.9725 H   0  0  0  0  0  0  0  0  0  0  0  0
  140.8722   67.5540  229.0359 H   0  0  0  0  0  0  0  0  0  0  0  0
  139.3458   66.7646  227.2276 H   0  0  0  0  0  0  0  0  0  0  0  0
  137.9512   67.9498  222.3049 H   0  0  0  0  0  0  0  0  0  0  0  0
  135.6271   68.4331  222.2835 H   0  0  0  0  0  0  0  0  0  0  0  0
  135.0735   67.9322  225.4313 H   0  0  0  0  0  0  0  0  0  0  0  0
  133.9424   69.2905  227.1346 H   0  0  0  0  0  0  0  0  0  0  0  0
  133.7391   71.7605  226.8709 H   0  0  0  0  0  0  0  0  0  0  0  0
  134.7172   72.8112  224.8379 H   0  0  0  0  0  0  0  0  0  0  0  0
  135.8496   71.4484  223.1388 H   0  0  0  0  0  0  0  0  0  0  0  0
  137.9803   70.7284  222.2309 H   0  0  0  0  0  0  0  0  0  0  0  0
  138.0487   72.1094  223.4435 H   0  0  0  0  0  0  0  0  0  0  0  0
  140.5624   70.0421  221.5047 H   0  0  0  0  0  0  0  0  0  0  0  0
  142.4951   71.1067  220.3893 H   0  0  0  0  0  0  0  0  0  0  0  0
  142.8325   73.5717  220.5132 H   0  0  0  0  0  0  0  0  0  0  0  0
  142.1530   75.5980  221.9560 H   0  0  0  0  0  0  0  0  0  0  0  0
  139.2551   73.8667  222.8907 H   0  0  0  0  0  0  0  0  0  0  0  0
  1  2  2  0
  2  3  1  0
  3  4  2  0
  4  5  1  0
  5  6  2  0
  6  7  1  0
  7  8  2  0
  8  9  1  0
  9 10  2  0
 10 11  1  0
 11 12  2  0
 12 13  1  0
 13 14  2  0
 14 15  1  0
 15 16  2  0
 16 17  1  0
 17 18  2  0
 10 19  1  0
 19 20  1  0
 20 21  1  0
 21 22  2  0
 22 23  1  0
 23 24  2  0
 24 25  1  0
 25 26  1  0
 25 27  2  0
 19  2  1  0
 27 21  1  0
  8  3  1  0
 18 13  1  0
  4 28  1  0
  5 29  1  0
  6 30  1  0
  7 31  1  0
 11 32  1  0
 12 33  1  0
 14 34  1  0
 15 35  1  0
 16 36  1  0
 17 37  1  0
 18 38  1  0
 20 39  1  0
 20 40  1  0
 22 41  1  0
 23 42  1  0
 24 43  1  0
 26 44  1  0
 27 45  1  0
M  END
>  <smiles>  (36) 
O=c1c2ccccc2nc(/C=C/c2ccccc2)n1Cc1cccc(O)c1

>  <score_type>  (36) 
oracle

>  <origin>  (36) 
autodockgpu

>  <m_score__min__energy>  (36) 
-8.5899999999999999

>  <m_primary>  (36) 
energy

>  <rmsd>  (36) 
10.207713927064999

>  <m_score__min__rmsd>  (36) 
10.207713927064999

>  <meeko>  (36) 
{"free_energy": -7.22, "intermolecular_energy": -9.01, "internal_energy": -1.5, "cluster_size": 21, "cluster_id": 4, "rank_in_cluster": 8}

>  <energy>  (36) 
-7.16

>  <cluster_rmsd>  (36) 
0.4

>  <cluster>  (36) 
4

$$$$

     RDKit          3D

 45 48  0  0  0  0  0  0  0  0999 V2000
  140.2680   71.9110  225.0540 O   0  0  0  0  0  0  0  0  0  0  0  0
  139.7630   70.7590  225.0220 C   0  0  0  0  0  0  0  0  0  0  0  0
  140.0890   69.9320  226.0910 C   0  0  0  0  0  0  0  0  0  0  0  0
  140.9120   70.3700  227.1080 C   0  0  0  0  0  0  0  0  0  0  0  0
  141.2210   69.5240  228.1620 C   0  0  0  0  0  0  0  0  0  0  0  0
  140.7020   68.2490  228.1880 C   0  0  0  0  0  0  0  0  0  0  0  0
  139.8730   67.7800  227.1830 C   0  0  0  0  0  0  0  0  0  0  0  0
  139.5890   68.6410  226.1570 C   0  0  0  0  0  0  0  0  0  0  0  0
  138.7920   68.2640  225.1430 N   0  0  0  0  0  0  0  0  0  0  0  0
  138.4920   69.0830  224.1190 C   0  0  0  0  0  0  0  0  0  0  0  0
  137.6320   68.5250  223.0730 C   0  0  0  0  0  0  0  0  0  0  0  0
  136.3290   68.7300  223.0830 C   0  0  0  0  0  0  0  0  0  0  0  0
  135.6390   69.5710  224.0440 C   0  0  0  0  0  0  0  0  0  0  0  0
  135.5390   70.9300  223.9620 C   0  0  0  0  0  0  0  0  0  0  0  0
  134.8670   71.6840  224.9080 C   0  0  0  0  0  0  0  0  0  0  0  0
  134.2600   71.0880  225.9950 C   0  0  0  0  0  0  0  0  0  0  0  0
  134.3510   69.7170  226.0970 C   0  0  0  0  0  0  0  0  0  0  0  0
  135.0210   68.9730  225.1480 C   0  0  0  0  0  0  0  0  0  0  0  0
  138.9520   70.3430  224.0140 N   0  0  0  0  0  0  0  0  0  0  0  0
  138.6250   71.2460  222.9520 C   0  0  0  0  0  0  0  0  0  0  0  0
  139.7910   71.8550  222.2630 C   0  0  0  0  0  0  0  0  0  0  0  0
  140.7140   71.1540  221.5300 C   0  0  0  0  0  0  0  0  0  0  0  0
  141.8020   71.7720  220.9020 C   0  0  0  0  0  0  0  0  0  0  0  0
  141.9930   73.1320  220.9970 C   0  0  0  0  0  0  0  0  0  0  0  0
  141.0760   73.8470  221.7280 C   0  0  0  0  0  0  0  0  0  0  0  0
  141.2520   75.2350  221.8370 O   0  0  0  0  0  0  0  0  0  0  0  0
  139.9980   73.2350  222.3500 C   0  0  0  0  0  0  0  0  0  0  0  0
  141.3229   71.3901  227.0826 H   0  0  0  0  0  0  0  0  0  0  0  0
  141.8778   69.8698  228.9738 H   0  0  0  0  0  0  0  0  0  0  0  0
  140.9524   67.5857  229.0290 H   0  0  0  0  0  0  0  0  0  0  0  0
  139.4607   66.7605  227.2078 H   0  0  0  0  0  0  0  0  0  0  0  0
  138.0797   67.9257  222.2665 H   0  0  0  0  0  0  0  0  0  0  0  0
  135.7249   68.2302  222.3115 H   0  0  0  0  0  0  0  0  0  0  0  0
  136.0103   71.4451  223.1120 H   0  0  0  0  0  0  0  0  0  0  0  0
  134.8157   72.7766  224.7918 H   0  0  0  0  0  0  0  0  0  0  0  0
  133.7251   71.6836  226.7494 H   0  0  0  0  0  0  0  0  0  0  0  0
  133.8810   69.2065  226.9505 H   0  0  0  0  0  0  0  0  0  0  0  0
  135.0708   67.8801  225.2622 H   0  0  0  0  0  0  0  0  0  0  0  0
  138.0370   70.6940  222.2040 H   0  0  0  0  0  0  0  0  0  0  0  0
  138.0736   72.0775  223.4151 H   0  0  0  0  0  0  0  0  0  0  0  0
  140.5950   70.0649  221.4317 H   0  0  0  0  0  0  0  0  0  0  0  0
  142.5135   71.1629  220.3251 H   0  0  0  0  0  0  0  0  0  0  0  0
  142.8453   73.6259  220.5074 H   0  0  0  0  0  0  0  0  0  0  0  0
  142.1800   75.6160  221.9470 H   0  0  0  0  0  0  0  0  0  0  0  0
  139.2896   73.8494  222.9250 H   0  0  0  0  0  0  0  0  0  0  0  0
  1  2  2  0
  2  3  1  0
  3  4  2  0
  4  5  1  0
  5  6  2  0
  6  7  1  0
  7  8  2  0
  8  9  1  0
  9 10  2  0
 10 11  1  0
 11 12  2  0
 12 13  1  0
 13 14  2  0
 14 15  1  0
 15 16  2  0
 16 17  1  0
 17 18  2  0
 10 19  1  0
 19 20  1  0
 20 21  1  0
 21 22  2  0
 22 23  1  0
 23 24  2  0
 24 25  1  0
 25 26  1  0
 25 27  2  0
 19  2  1  0
 27 21  1  0
  8  3  1  0
 18 13  1  0
  4 28  1  0
  5 29  1  0
  6 30  1  0
  7 31  1  0
 11 32  1  0
 12 33  1  0
 14 34  1  0
 15 35  1  0
 16 36  1  0
 17 37  1  0
 18 38  1  0
 20 39  1  0
 20 40  1  0
 22 41  1  0
 23 42  1  0
 24 43  1  0
 26 44  1  0
 27 45  1  0
M  END
>  <smiles>  (37) 
O=c1c2ccccc2nc(/C=C/c2ccccc2)n1Cc1cccc(O)c1

>  <score_type>  (37) 
oracle

>  <origin>  (37) 
autodockgpu

>  <m_score__min__energy>  (37) 
-8.5899999999999999

>  <m_primary>  (37) 
energy

>  <rmsd>  (37) 
10.193499310603555

>  <m_score__min__rmsd>  (37) 
10.193499310603555

>  <meeko>  (37) 
{"free_energy": -7.23, "intermolecular_energy": -9.02, "internal_energy": -1.48, "cluster_size": 21, "cluster_id": 4, "rank_in_cluster": 5}

>  <energy>  (37) 
-7.16

>  <cluster_rmsd>  (37) 
1.89

>  <cluster>  (37) 
4

$$$$

     RDKit          3D

 45 48  0  0  0  0  0  0  0  0999 V2000
  140.1130   71.8600  225.0760 O   0  0  0  0  0  0  0  0  0  0  0  0
  139.6570   70.6900  225.0060 C   0  0  0  0  0  0  0  0  0  0  0  0
  139.9920   69.8520  226.0630 C   0  0  0  0  0  0  0  0  0  0  0  0
  140.7730   70.2990  227.1090 C   0  0  0  0  0  0  0  0  0  0  0  0
  141.0920   69.4410  228.1510 C   0  0  0  0  0  0  0  0  0  0  0  0
  140.6260   68.1460  228.1360 C   0  0  0  0  0  0  0  0  0  0  0  0
  139.8420   67.6670  227.1010 C   0  0  0  0  0  0  0  0  0  0  0  0
  139.5460   68.5400  226.0880 C   0  0  0  0  0  0  0  0  0  0  0  0
  138.7890   68.1540  225.0460 N   0  0  0  0  0  0  0  0  0  0  0  0
  138.4780   68.9840  224.0340 C   0  0  0  0  0  0  0  0  0  0  0  0
  137.6670   68.4160  222.9560 C   0  0  0  0  0  0  0  0  0  0  0  0
  136.3940   68.7330  222.8230 C   0  0  0  0  0  0  0  0  0  0  0  0
  135.4840   68.9510  223.9340 C   0  0  0  0  0  0  0  0  0  0  0  0
  135.6630   69.8780  224.9190 C   0  0  0  0  0  0  0  0  0  0  0  0
  134.7620   70.0440  225.9560 C   0  0  0  0  0  0  0  0  0  0  0  0
  133.6250   69.2670  226.0430 C   0  0  0  0  0  0  0  0  0  0  0  0
  133.4250   68.3250  225.0580 C   0  0  0  0  0  0  0  0  0  0  0  0
  134.3290   68.1670  224.0280 C   0  0  0  0  0  0  0  0  0  0  0  0
  138.8880   70.2640  223.9690 N   0  0  0  0  0  0  0  0  0  0  0  0
  138.5480   71.1780  222.9200 C   0  0  0  0  0  0  0  0  0  0  0  0
  139.7040   71.8240  222.2510 C   0  0  0  0  0  0  0  0  0  0  0  0
  140.6620   71.1530  221.5320 C   0  0  0  0  0  0  0  0  0  0  0  0
  141.7390   71.8070  220.9220 C   0  0  0  0  0  0  0  0  0  0  0  0
  141.8850   73.1720  221.0200 C   0  0  0  0  0  0  0  0  0  0  0  0
  140.9330   73.8570  221.7370 C   0  0  0  0  0  0  0  0  0  0  0  0
  141.0630   75.2500  221.8480 O   0  0  0  0  0  0  0  0  0  0  0  0
  139.8650   73.2100  222.3410 C   0  0  0  0  0  0  0  0  0  0  0  0
  141.1424   71.3351  227.1165 H   0  0  0  0  0  0  0  0  0  0  0  0
  141.7149   69.7941  228.9860 H   0  0  0  0  0  0  0  0  0  0  0  0
  140.8834   67.4743  228.9682 H   0  0  0  0  0  0  0  0  0  0  0  0
  139.4728   66.6308  227.0923 H   0  0  0  0  0  0  0  0  0  0  0  0
  138.1269   67.7134  222.2454 H   0  0  0  0  0  0  0  0  0  0  0  0
  135.9949   68.8394  221.8035 H   0  0  0  0  0  0  0  0  0  0  0  0
  136.5574   70.5176  224.8876 H   0  0  0  0  0  0  0  0  0  0  0  0
  134.9553   70.8079  226.7236 H   0  0  0  0  0  0  0  0  0  0  0  0
  132.9068   69.3948  226.8663 H   0  0  0  0  0  0  0  0  0  0  0  0
  132.5291   67.6878  225.0934 H   0  0  0  0  0  0  0  0  0  0  0  0
  134.1365   67.4038  223.2596 H   0  0  0  0  0  0  0  0  0  0  0  0
  137.9778   70.6261  222.1582 H   0  0  0  0  0  0  0  0  0  0  0  0
  137.9746   71.9888  223.3931 H   0  0  0  0  0  0  0  0  0  0  0  0
  140.5802   70.0607  221.4315 H   0  0  0  0  0  0  0  0  0  0  0  0
  142.4790   71.2217  220.3564 H   0  0  0  0  0  0  0  0  0  0  0  0
  142.7287   73.6933  220.5442 H   0  0  0  0  0  0  0  0  0  0  0  0
  141.8670   75.6440  222.3130 H   0  0  0  0  0  0  0  0  0  0  0  0
  139.1276   73.8011  222.9039 H   0  0  0  0  0  0  0  0  0  0  0  0
  1  2  2  0
  2  3  1  0
  3  4  2  0
  4  5  1  0
  5  6  2  0
  6  7  1  0
  7  8  2  0
  8  9  1  0
  9 10  2  0
 10 11  1  0
 11 12  2  0
 12 13  1  0
 13 14  2  0
 14 15  1  0
 15 16  2  0
 16 17  1  0
 17 18  2  0
 10 19  1  0
 19 20  1  0
 20 21  1  0
 21 22  2  0
 22 23  1  0
 23 24  2  0
 24 25  1  0
 25 26  1  0
 25 27  2  0
 19  2  1  0
 27 21  1  0
  8  3  1  0
 18 13  1  0
  4 28  1  0
  5 29  1  0
  6 30  1  0
  7 31  1  0
 11 32  1  0
 12 33  1  0
 14 34  1  0
 15 35  1  0
 16 36  1  0
 17 37  1  0
 18 38  1  0
 20 39  1  0
 20 40  1  0
 22 41  1  0
 23 42  1  0
 24 43  1  0
 26 44  1  0
 27 45  1  0
M  END
>  <smiles>  (38) 
O=c1c2ccccc2nc(/C=C/c2ccccc2)n1Cc1cccc(O)c1

>  <score_type>  (38) 
oracle

>  <origin>  (38) 
autodockgpu

>  <m_score__min__energy>  (38) 
-8.5899999999999999

>  <m_primary>  (38) 
energy

>  <rmsd>  (38) 
10.212035647923214

>  <m_score__min__rmsd>  (38) 
10.212035647923214

>  <meeko>  (38) 
{"free_energy": -7.18, "intermolecular_energy": -8.97, "internal_energy": -1.29, "cluster_size": 21, "cluster_id": 4, "rank_in_cluster": 12}

>  <energy>  (38) 
-7.12

>  <cluster_rmsd>  (38) 
1.92

>  <cluster>  (38) 
4

$$$$

     RDKit          3D

 45 48  0  0  0  0  0  0  0  0999 V2000
  140.2820   71.8810  225.0370 O   0  0  0  0  0  0  0  0  0  0  0  0
  139.7670   70.7340  225.0100 C   0  0  0  0  0  0  0  0  0  0  0  0
  140.0890   69.9070  226.0800 C   0  0  0  0  0  0  0  0  0  0  0  0
  140.9200   70.3400  227.0920 C   0  0  0  0  0  0  0  0  0  0  0  0
  141.2250   69.4940  228.1470 C   0  0  0  0  0  0  0  0  0  0  0  0
  140.6950   68.2240  228.1800 C   0  0  0  0  0  0  0  0  0  0  0  0
  139.8580   67.7600  227.1790 C   0  0  0  0  0  0  0  0  0  0  0  0
  139.5780   68.6200  226.1520 C   0  0  0  0  0  0  0  0  0  0  0  0
  138.7740   68.2480  225.1410 N   0  0  0  0  0  0  0  0  0  0  0  0
  138.4770   69.0670  224.1160 C   0  0  0  0  0  0  0  0  0  0  0  0
  137.6080   68.5130  223.0750 C   0  0  0  0  0  0  0  0  0  0  0  0
  136.3100   68.7460  223.0780 C   0  0  0  0  0  0  0  0  0  0  0  0
  135.6130   69.4860  224.1150 C   0  0  0  0  0  0  0  0  0  0  0  0
  135.0170   68.9260  225.2080 C   0  0  0  0  0  0  0  0  0  0  0  0
  134.3660   69.6810  226.1670 C   0  0  0  0  0  0  0  0  0  0  0  0
  134.2850   71.0540  226.0600 C   0  0  0  0  0  0  0  0  0  0  0  0
  134.8790   71.6390  224.9640 C   0  0  0  0  0  0  0  0  0  0  0  0
  135.5270   70.8790  224.0130 C   0  0  0  0  0  0  0  0  0  0  0  0
  138.9480   70.3220  224.0060 N   0  0  0  0  0  0  0  0  0  0  0  0
  138.6250   71.2250  222.9420 C   0  0  0  0  0  0  0  0  0  0  0  0
  139.7930   71.8440  222.2680 C   0  0  0  0  0  0  0  0  0  0  0  0
  140.7430   71.1490  221.5630 C   0  0  0  0  0  0  0  0  0  0  0  0
  141.8320   71.7780  220.9470 C   0  0  0  0  0  0  0  0  0  0  0  0
  141.9970   73.1420  221.0250 C   0  0  0  0  0  0  0  0  0  0  0  0
  141.0530   73.8520  221.7280 C   0  0  0  0  0  0  0  0  0  0  0  0
  141.2020   75.2430  221.8180 O   0  0  0  0  0  0  0  0  0  0  0  0
  139.9730   73.2290  222.3370 C   0  0  0  0  0  0  0  0  0  0  0  0
  141.3405   71.3560  227.0620 H   0  0  0  0  0  0  0  0  0  0  0  0
  141.8883   69.8364  228.9550 H   0  0  0  0  0  0  0  0  0  0  0  0
  140.9425   67.5613  229.0223 H   0  0  0  0  0  0  0  0  0  0  0  0
  139.4366   66.7444  227.2082 H   0  0  0  0  0  0  0  0  0  0  0  0
  138.0449   67.8930  222.2784 H   0  0  0  0  0  0  0  0  0  0  0  0
  135.7159   68.3538  222.2394 H   0  0  0  0  0  0  0  0  0  0  0  0
  135.0559   67.8336  225.3307 H   0  0  0  0  0  0  0  0  0  0  0  0
  133.9050   69.1779  227.0298 H   0  0  0  0  0  0  0  0  0  0  0  0
  133.7667   71.6574  226.8198 H   0  0  0  0  0  0  0  0  0  0  0  0
  134.8359   72.7317  224.8450 H   0  0  0  0  0  0  0  0  0  0  0  0
  135.9890   71.3816  223.1505 H   0  0  0  0  0  0  0  0  0  0  0  0
  138.0497   70.6700  222.1864 H   0  0  0  0  0  0  0  0  0  0  0  0
  138.0615   72.0510  223.4005 H   0  0  0  0  0  0  0  0  0  0  0  0
  140.6455   70.0566  221.4785 H   0  0  0  0  0  0  0  0  0  0  0  0
  142.5655   71.1736  220.3933 H   0  0  0  0  0  0  0  0  0  0  0  0
  142.8497   73.6438  220.5443 H   0  0  0  0  0  0  0  0  0  0  0  0
  142.1020   75.6380  222.0470 H   0  0  0  0  0  0  0  0  0  0  0  0
  139.2413   73.8390  222.8870 H   0  0  0  0  0  0  0  0  0  0  0  0
  1  2  2  0
  2  3  1  0
  3  4  2  0
  4  5  1  0
  5  6  2  0
  6  7  1  0
  7  8  2  0
  8  9  1  0
  9 10  2  0
 10 11  1  0
 11 12  2  0
 12 13  1  0
 13 14  2  0
 14 15  1  0
 15 16  2  0
 16 17  1  0
 17 18  2  0
 10 19  1  0
 19 20  1  0
 20 21  1  0
 21 22  2  0
 22 23  1  0
 23 24  2  0
 24 25  1  0
 25 26  1  0
 25 27  2  0
 19  2  1  0
 27 21  1  0
  8  3  1  0
 18 13  1  0
  4 28  1  0
  5 29  1  0
  6 30  1  0
  7 31  1  0
 11 32  1  0
 12 33  1  0
 14 34  1  0
 15 35  1  0
 16 36  1  0
 17 37  1  0
 18 38  1  0
 20 39  1  0
 20 40  1  0
 22 41  1  0
 23 42  1  0
 24 43  1  0
 26 44  1  0
 27 45  1  0
M  END
>  <smiles>  (39) 
O=c1c2ccccc2nc(/C=C/c2ccccc2)n1Cc1cccc(O)c1

>  <score_type>  (39) 
oracle

>  <origin>  (39) 
autodockgpu

>  <m_score__min__energy>  (39) 
-8.5899999999999999

>  <m_primary>  (39) 
energy

>  <rmsd>  (39) 
10.200083133697873

>  <m_score__min__rmsd>  (39) 
10.200083133697873

>  <meeko>  (39) 
{"free_energy": -7.23, "intermolecular_energy": -9.02, "internal_energy": -1.48, "cluster_size": 21, "cluster_id": 4, "rank_in_cluster": 6}

>  <energy>  (39) 
-6.9

>  <cluster_rmsd>  (39) 
1.99

>  <cluster>  (39) 
4

$$$$

     RDKit          3D

 45 48  0  0  0  0  0  0  0  0999 V2000
  142.2050   75.4380  218.8660 O   0  0  0  0  0  0  0  0  0  0  0  0
  141.5920   75.2750  219.9530 C   0  0  0  0  0  0  0  0  0  0  0  0
  141.4410   76.4150  220.7330 C   0  0  0  0  0  0  0  0  0  0  0  0
  141.9400   77.6340  220.3210 C   0  0  0  0  0  0  0  0  0  0  0  0
  141.7760   78.7550  221.1190 C   0  0  0  0  0  0  0  0  0  0  0  0
  141.1150   78.6470  222.3210 C   0  0  0  0  0  0  0  0  0  0  0  0
  140.6030   77.4390  222.7630 C   0  0  0  0  0  0  0  0  0  0  0  0
  140.7830   76.3510  221.9510 C   0  0  0  0  0  0  0  0  0  0  0  0
  140.3160   75.1420  222.3060 N   0  0  0  0  0  0  0  0  0  0  0  0
  140.4740   74.0520  221.5330 C   0  0  0  0  0  0  0  0  0  0  0  0
  139.9340   72.7980  222.0630 C   0  0  0  0  0  0  0  0  0  0  0  0
  140.7090   71.9350  222.6890 C   0  0  0  0  0  0  0  0  0  0  0  0
  140.3680   71.2870  223.9440 C   0  0  0  0  0  0  0  0  0  0  0  0
  141.0000   71.5080  225.1340 C   0  0  0  0  0  0  0  0  0  0  0  0
  140.6310   70.8630  226.3010 C   0  0  0  0  0  0  0  0  0  0  0  0
  139.5940   69.9530  226.3160 C   0  0  0  0  0  0  0  0  0  0  0  0
  138.9430   69.7160  225.1250 C   0  0  0  0  0  0  0  0  0  0  0  0
  139.3170   70.3640  223.9660 C   0  0  0  0  0  0  0  0  0  0  0  0
  141.1040   74.0680  220.3450 N   0  0  0  0  0  0  0  0  0  0  0  0
  141.2610   72.9310  219.4880 C   0  0  0  0  0  0  0  0  0  0  0  0
  142.5870   72.2700  219.5580 C   0  0  0  0  0  0  0  0  0  0  0  0
  142.7990   70.9960  220.0220 C   0  0  0  0  0  0  0  0  0  0  0  0
  144.0720   70.4160  220.0750 C   0  0  0  0  0  0  0  0  0  0  0  0
  145.1830   71.1130  219.6550 C   0  0  0  0  0  0  0  0  0  0  0  0
  144.9870   72.3890  219.1870 C   0  0  0  0  0  0  0  0  0  0  0  0
  146.1070   73.1150  218.7540 O   0  0  0  0  0  0  0  0  0  0  0  0
  143.7250   72.9640  219.1350 C   0  0  0  0  0  0  0  0  0  0  0  0
  142.4678   77.7157  219.3594 H   0  0  0  0  0  0  0  0  0  0  0  0
  142.1728   79.7277  220.7927 H   0  0  0  0  0  0  0  0  0  0  0  0
  140.9902   79.5432  222.9466 H   0  0  0  0  0  0  0  0  0  0  0  0
  140.0747   77.3567  223.7243 H   0  0  0  0  0  0  0  0  0  0  0  0
  138.8647   72.5728  221.9366 H   0  0  0  0  0  0  0  0  0  0  0  0
  141.6783   71.6890  222.2309 H   0  0  0  0  0  0  0  0  0  0  0  0
  141.8333   72.2254  225.1660 H   0  0  0  0  0  0  0  0  0  0  0  0
  141.1737   71.0794  227.2330 H   0  0  0  0  0  0  0  0  0  0  0  0
  139.2988   69.4374  227.2417 H   0  0  0  0  0  0  0  0  0  0  0  0
  138.1105   68.9975  225.0979 H   0  0  0  0  0  0  0  0  0  0  0  0
  138.7741   70.1491  223.0338 H   0  0  0  0  0  0  0  0  0  0  0  0
  140.4956   72.1897  219.7613 H   0  0  0  0  0  0  0  0  0  0  0  0
  141.1590   73.3060  218.4589 H   0  0  0  0  0  0  0  0  0  0  0  0
  141.9353   70.4078  220.3656 H   0  0  0  0  0  0  0  0  0  0  0  0
  144.1863   69.3908  220.4569 H   0  0  0  0  0  0  0  0  0  0  0  0
  146.1872   70.6655  219.6929 H   0  0  0  0  0  0  0  0  0  0  0  0
  146.0330   74.1100  218.6030 H   0  0  0  0  0  0  0  0  0  0  0  0
  143.6173   73.9896  218.7521 H   0  0  0  0  0  0  0  0  0  0  0  0
  1  2  2  0
  2  3  1  0
  3  4  2  0
  4  5  1  0
  5  6  2  0
  6  7  1  0
  7  8  2  0
  8  9  1  0
  9 10  2  0
 10 11  1  0
 11 12  2  0
 12 13  1  0
 13 14  2  0
 14 15  1  0
 15 16  2  0
 16 17  1  0
 17 18  2  0
 10 19  1  0
 19 20  1  0
 20 21  1  0
 21 22  2  0
 22 23  1  0
 23 24  2  0
 24 25  1  0
 25 26  1  0
 25 27  2  0
 19  2  1  0
 27 21  1  0
  8  3  1  0
 18 13  1  0
  4 28  1  0
  5 29  1  0
  6 30  1  0
  7 31  1  0
 11 32  1  0
 12 33  1  0
 14 34  1  0
 15 35  1  0
 16 36  1  0
 17 37  1  0
 18 38  1  0
 20 39  1  0
 20 40  1  0
 22 41  1  0
 23 42  1  0
 24 43  1  0
 26 44  1  0
 27 45  1  0
M  END
>  <smiles>  (40) 
O=c1c2ccccc2nc(/C=C/c2ccccc2)n1Cc1cccc(O)c1

>  <score_type>  (40) 
oracle

>  <origin>  (40) 
autodockgpu

>  <m_score__min__energy>  (40) 
-8.5899999999999999

>  <m_primary>  (40) 
energy

>  <rmsd>  (40) 
8.179296618774105

>  <m_score__min__rmsd>  (40) 
8.179296618774105

>  <meeko>  (40) 
{"free_energy": -7.46, "intermolecular_energy": -9.25, "internal_energy": -1.09, "cluster_size": 14, "cluster_id": 1, "rank_in_cluster": 11}

>  <energy>  (40) 
-6.83

>  <cluster_rmsd>  (40) 
1.99

>  <cluster>  (40) 
4

$$$$

     RDKit          3D

 45 48  0  0  0  0  0  0  0  0999 V2000
  139.9120   74.8500  222.0530 O   0  0  0  0  0  0  0  0  0  0  0  0
  140.4950   75.6850  221.3140 C   0  0  0  0  0  0  0  0  0  0  0  0
  141.7410   75.2960  220.8360 C   0  0  0  0  0  0  0  0  0  0  0  0
  142.2810   74.0700  221.1640 C   0  0  0  0  0  0  0  0  0  0  0  0
  143.5260   73.7080  220.6740 C   0  0  0  0  0  0  0  0  0  0  0  0
  144.2180   74.5760  219.8600 C   0  0  0  0  0  0  0  0  0  0  0  0
  143.7040   75.8130  219.5120 C   0  0  0  0  0  0  0  0  0  0  0  0
  142.4720   76.1400  220.0140 C   0  0  0  0  0  0  0  0  0  0  0  0
  141.9020   77.3210  219.7240 N   0  0  0  0  0  0  0  0  0  0  0  0
  140.6940   77.6750  220.1990 C   0  0  0  0  0  0  0  0  0  0  0  0
  140.2110   79.0040  219.8190 C   0  0  0  0  0  0  0  0  0  0  0  0
  140.9310   80.0830  220.0580 C   0  0  0  0  0  0  0  0  0  0  0  0
  141.4980   80.4200  221.3520 C   0  0  0  0  0  0  0  0  0  0  0  0
  141.2630   81.5820  222.0280 C   0  0  0  0  0  0  0  0  0  0  0  0
  141.8310   81.8510  223.2620 C   0  0  0  0  0  0  0  0  0  0  0  0
  142.6730   80.9440  223.8710 C   0  0  0  0  0  0  0  0  0  0  0  0
  142.9240   79.7650  223.2040 C   0  0  0  0  0  0  0  0  0  0  0  0
  142.3530   79.5050  221.9760 C   0  0  0  0  0  0  0  0  0  0  0  0
  139.9490   76.8890  220.9980 N   0  0  0  0  0  0  0  0  0  0  0  0
  138.6480   77.2270  221.4930 C   0  0  0  0  0  0  0  0  0  0  0  0
  138.6130   78.3730  222.4350 C   0  0  0  0  0  0  0  0  0  0  0  0
  139.5980   78.6620  223.3460 C   0  0  0  0  0  0  0  0  0  0  0  0
  139.5170   79.7530  224.2190 C   0  0  0  0  0  0  0  0  0  0  0  0
  138.4290   80.5950  224.1990 C   0  0  0  0  0  0  0  0  0  0  0  0
  137.4350   80.3180  223.2920 C   0  0  0  0  0  0  0  0  0  0  0  0
  136.3170   81.1650  223.2560 O   0  0  0  0  0  0  0  0  0  0  0  0
  137.5140   79.2370  222.4260 C   0  0  0  0  0  0  0  0  0  0  0  0
  141.7238   73.3797  221.8143 H   0  0  0  0  0  0  0  0  0  0  0  0
  143.9593   72.7311  220.9345 H   0  0  0  0  0  0  0  0  0  0  0  0
  145.2051   74.2788  219.4762 H   0  0  0  0  0  0  0  0  0  0  0  0
  144.2603   76.5033  218.8609 H   0  0  0  0  0  0  0  0  0  0  0  0
  139.2325   79.1041  219.3266 H   0  0  0  0  0  0  0  0  0  0  0  0
  141.1142   80.7736  219.2216 H   0  0  0  0  0  0  0  0  0  0  0  0
  140.5979   82.3326  221.5760 H   0  0  0  0  0  0  0  0  0  0  0  0
  141.6070   82.8034  223.7647 H   0  0  0  0  0  0  0  0  0  0  0  0
  143.1264   81.1539  224.8510 H   0  0  0  0  0  0  0  0  0  0  0  0
  143.5914   79.0182  223.6588 H   0  0  0  0  0  0  0  0  0  0  0  0
  142.5758   78.5523  221.4733 H   0  0  0  0  0  0  0  0  0  0  0  0
  138.0089   77.4733  220.6322 H   0  0  0  0  0  0  0  0  0  0  0  0
  138.2985   76.3520  222.0607 H   0  0  0  0  0  0  0  0  0  0  0  0
  140.4842   78.0119  223.3917 H   0  0  0  0  0  0  0  0  0  0  0  0
  140.3345   79.9399  224.9309 H   0  0  0  0  0  0  0  0  0  0  0  0
  138.3580   81.4548  224.8814 H   0  0  0  0  0  0  0  0  0  0  0  0
  136.2740   81.9130  222.5790 H   0  0  0  0  0  0  0  0  0  0  0  0
  136.6934   79.0556  221.7163 H   0  0  0  0  0  0  0  0  0  0  0  0
  1  2  2  0
  2  3  1  0
  3  4  2  0
  4  5  1  0
  5  6  2  0
  6  7  1  0
  7  8  2  0
  8  9  1  0
  9 10  2  0
 10 11  1  0
 11 12  2  0
 12 13  1  0
 13 14  2  0
 14 15  1  0
 15 16  2  0
 16 17  1  0
 17 18  2  0
 10 19  1  0
 19 20  1  0
 20 21  1  0
 21 22  2  0
 22 23  1  0
 23 24  2  0
 24 25  1  0
 25 26  1  0
 25 27  2  0
 19  2  1  0
 27 21  1  0
  8  3  1  0
 18 13  1  0
  4 28  1  0
  5 29  1  0
  6 30  1  0
  7 31  1  0
 11 32  1  0
 12 33  1  0
 14 34  1  0
 15 35  1  0
 16 36  1  0
 17 37  1  0
 18 38  1  0
 20 39  1  0
 20 40  1  0
 22 41  1  0
 23 42  1  0
 24 43  1  0
 26 44  1  0
 27 45  1  0
M  END
>  <smiles>  (41) 
O=c1c2ccccc2nc(/C=C/c2ccccc2)n1Cc1cccc(O)c1

>  <score_type>  (41) 
oracle

>  <origin>  (41) 
autodockgpu

>  <m_score__min__energy>  (41) 
-8.5899999999999999

>  <m_primary>  (41) 
energy

>  <rmsd>  (41) 
4.332581726487387

>  <m_score__min__rmsd>  (41) 
4.332581726487387

>  <meeko>  (41) 
{"free_energy": -6.39, "intermolecular_energy": -8.18, "internal_energy": -1.89, "cluster_size": 3, "cluster_id": 9, "rank_in_cluster": 2}

>  <energy>  (41) 
-6.68

>  <cluster_rmsd>  (41) 
0.36

>  <cluster>  (41) 
4

$$$$

     RDKit          3D

 45 48  0  0  0  0  0  0  0  0999 V2000
  135.7150   72.5950  222.1900 O   0  0  0  0  0  0  0  0  0  0  0  0
  136.7920   72.0910  222.5990 C   0  0  0  0  0  0  0  0  0  0  0  0
  137.9480   72.7740  222.2390 C   0  0  0  0  0  0  0  0  0  0  0  0
  137.8910   73.9280  221.4840 C   0  0  0  0  0  0  0  0  0  0  0  0
  139.0590   74.5890  221.1400 C   0  0  0  0  0  0  0  0  0  0  0  0
  140.2730   74.0910  221.5540 C   0  0  0  0  0  0  0  0  0  0  0  0
  140.3650   72.9360  222.3130 C   0  0  0  0  0  0  0  0  0  0  0  0
  139.1920   72.3070  222.6350 C   0  0  0  0  0  0  0  0  0  0  0  0
  139.1930   71.1810  223.3680 N   0  0  0  0  0  0  0  0  0  0  0  0
  138.0600   70.5370  223.7040 C   0  0  0  0  0  0  0  0  0  0  0  0
  138.2200   69.3090  224.4850 C   0  0  0  0  0  0  0  0  0  0  0  0
  139.3210   69.0780  225.1730 C   0  0  0  0  0  0  0  0  0  0  0  0
  139.8900   69.9990  226.1400 C   0  0  0  0  0  0  0  0  0  0  0  0
  139.5810   70.0240  227.4700 C   0  0  0  0  0  0  0  0  0  0  0  0
  140.1560   70.9250  228.3490 C   0  0  0  0  0  0  0  0  0  0  0  0
  141.0800   71.8540  227.9160 C   0  0  0  0  0  0  0  0  0  0  0  0
  141.4050   71.8460  226.5770 C   0  0  0  0  0  0  0  0  0  0  0  0
  140.8280   70.9440  225.7080 C   0  0  0  0  0  0  0  0  0  0  0  0
  136.8330   70.9540  223.3430 N   0  0  0  0  0  0  0  0  0  0  0  0
  135.6100   70.3060  223.7110 C   0  0  0  0  0  0  0  0  0  0  0  0
  135.0300   70.7470  225.0040 C   0  0  0  0  0  0  0  0  0  0  0  0
  134.8360   69.9310  226.0890 C   0  0  0  0  0  0  0  0  0  0  0  0
  134.2800   70.3920  227.2880 C   0  0  0  0  0  0  0  0  0  0  0  0
  133.8980   71.7070  227.4290 C   0  0  0  0  0  0  0  0  0  0  0  0
  134.0860   72.5370  226.3510 C   0  0  0  0  0  0  0  0  0  0  0  0
  133.7040   73.8810  226.4760 O   0  0  0  0  0  0  0  0  0  0  0  0
  134.6380   72.0800  225.1630 C   0  0  0  0  0  0  0  0  0  0  0  0
  136.9183   74.3229  221.1554 H   0  0  0  0  0  0  0  0  0  0  0  0
  139.0160   75.5087  220.5380 H   0  0  0  0  0  0  0  0  0  0  0  0
  141.1941   74.6238  221.2751 H   0  0  0  0  0  0  0  0  0  0  0  0
  141.3375   72.5414  222.6426 H   0  0  0  0  0  0  0  0  0  0  0  0
  137.4083   68.5667  224.4981 H   0  0  0  0  0  0  0  0  0  0  0  0
  139.8426   68.1246  225.0029 H   0  0  0  0  0  0  0  0  0  0  0  0
  138.8478   69.3011  227.8570 H   0  0  0  0  0  0  0  0  0  0  0  0
  139.8716   70.9002  229.4113 H   0  0  0  0  0  0  0  0  0  0  0  0
  141.5386   72.5720  228.6118 H   0  0  0  0  0  0  0  0  0  0  0  0
  142.1376   72.5719  226.1945 H   0  0  0  0  0  0  0  0  0  0  0  0
  141.1128   70.9678  224.6458 H   0  0  0  0  0  0  0  0  0  0  0  0
  134.8697   70.5007  222.9210 H   0  0  0  0  0  0  0  0  0  0  0  0
  135.8515   69.2395  223.8306 H   0  0  0  0  0  0  0  0  0  0  0  0
  135.1287   68.8733  226.0141 H   0  0  0  0  0  0  0  0  0  0  0  0
  134.1466   69.6947  228.1282 H   0  0  0  0  0  0  0  0  0  0  0  0
  133.4598   72.0781  228.3673 H   0  0  0  0  0  0  0  0  0  0  0  0
  133.5830   74.4480  225.6500 H   0  0  0  0  0  0  0  0  0  0  0  0
  134.7704   72.7824  224.3268 H   0  0  0  0  0  0  0  0  0  0  0  0
  1  2  2  0
  2  3  1  0
  3  4  2  0
  4  5  1  0
  5  6  2  0
  6  7  1  0
  7  8  2  0
  8  9  1  0
  9 10  2  0
 10 11  1  0
 11 12  2  0
 12 13  1  0
 13 14  2  0
 14 15  1  0
 15 16  2  0
 16 17  1  0
 17 18  2  0
 10 19  1  0
 19 20  1  0
 20 21  1  0
 21 22  2  0
 22 23  1  0
 23 24  2  0
 24 25  1  0
 25 26  1  0
 25 27  2  0
 19  2  1  0
 27 21  1  0
  8  3  1  0
 18 13  1  0
  4 28  1  0
  5 29  1  0
  6 30  1  0
  7 31  1  0
 11 32  1  0
 12 33  1  0
 14 34  1  0
 15 35  1  0
 16 36  1  0
 17 37  1  0
 18 38  1  0
 20 39  1  0
 20 40  1  0
 22 41  1  0
 23 42  1  0
 24 43  1  0
 26 44  1  0
 27 45  1  0
M  END
>  <smiles>  (42) 
O=c1c2ccccc2nc(/C=C/c2ccccc2)n1Cc1cccc(O)c1

>  <score_type>  (42) 
oracle

>  <origin>  (42) 
autodockgpu

>  <m_score__min__energy>  (42) 
-8.5899999999999999

>  <m_primary>  (42) 
energy

>  <rmsd>  (42) 
9.675210939464382

>  <m_score__min__rmsd>  (42) 
9.675210939464382

>  <meeko>  (42) 
{"free_energy": -7.15, "intermolecular_energy": -8.94, "internal_energy": -1.4, "cluster_size": 1, "cluster_id": 5, "rank_in_cluster": 1}

>  <energy>  (42) 
-7.15

>  <cluster_rmsd>  (42) 
0.0

>  <cluster>  (42) 
5

$$$$

     RDKit          3D

 45 48  0  0  0  0  0  0  0  0999 V2000
  142.9290   74.9030  220.1080 O   0  0  0  0  0  0  0  0  0  0  0  0
  141.9540   74.5510  220.8210 C   0  0  0  0  0  0  0  0  0  0  0  0
  141.1000   75.5750  221.2170 C   0  0  0  0  0  0  0  0  0  0  0  0
  141.3290   76.8820  220.8380 C   0  0  0  0  0  0  0  0  0  0  0  0
  140.4610   77.8830  221.2470 C   0  0  0  0  0  0  0  0  0  0  0  0
  139.3750   77.5670  222.0300 C   0  0  0  0  0  0  0  0  0  0  0  0
  139.1180   76.2660  222.4270 C   0  0  0  0  0  0  0  0  0  0  0  0
  139.9950   75.3010  222.0060 C   0  0  0  0  0  0  0  0  0  0  0  0
  139.8170   74.0140  222.3480 N   0  0  0  0  0  0  0  0  0  0  0  0
  140.6580   73.0400  221.9520 C   0  0  0  0  0  0  0  0  0  0  0  0
  140.3510   71.6880  222.4230 C   0  0  0  0  0  0  0  0  0  0  0  0
  139.6030   71.4930  223.4910 C   0  0  0  0  0  0  0  0  0  0  0  0
  140.0850   70.9120  224.7330 C   0  0  0  0  0  0  0  0  0  0  0  0
  139.9990   69.5900  225.0610 C   0  0  0  0  0  0  0  0  0  0  0  0
  140.4750   69.0900  226.2600 C   0  0  0  0  0  0  0  0  0  0  0  0
  141.0660   69.9170  227.1930 C   0  0  0  0  0  0  0  0  0  0  0  0
  141.1620   71.2560  226.8810 C   0  0  0  0  0  0  0  0  0  0  0  0
  140.6850   71.7450  225.6830 C   0  0  0  0  0  0  0  0  0  0  0  0
  141.7420   73.2590  221.1860 N   0  0  0  0  0  0  0  0  0  0  0  0
  142.6360   72.2390  220.7250 C   0  0  0  0  0  0  0  0  0  0  0  0
  144.0420   72.6750  220.5390 C   0  0  0  0  0  0  0  0  0  0  0  0
  144.9100   72.9610  221.5620 C   0  0  0  0  0  0  0  0  0  0  0  0
  146.2290   73.3740  221.3360 C   0  0  0  0  0  0  0  0  0  0  0  0
  146.7160   73.5130  220.0560 C   0  0  0  0  0  0  0  0  0  0  0  0
  145.8580   73.2300  219.0210 C   0  0  0  0  0  0  0  0  0  0  0  0
  146.3350   73.3650  217.7090 O   0  0  0  0  0  0  0  0  0  0  0  0
  144.5510   72.8200  219.2450 C   0  0  0  0  0  0  0  0  0  0  0  0
  142.1991   77.1295  220.2122 H   0  0  0  0  0  0  0  0  0  0  0  0
  140.6401   78.9259  220.9465 H   0  0  0  0  0  0  0  0  0  0  0  0
  138.6931   78.3690  222.3490 H   0  0  0  0  0  0  0  0  0  0  0  0
  138.2481   76.0178  223.0528 H   0  0  0  0  0  0  0  0  0  0  0  0
  140.7510   70.8209  221.8769 H   0  0  0  0  0  0  0  0  0  0  0  0
  138.5450   71.7894  223.4387 H   0  0  0  0  0  0  0  0  0  0  0  0
  139.5338   68.8961  224.3454 H   0  0  0  0  0  0  0  0  0  0  0  0
  140.3807   68.0150  226.4730 H   0  0  0  0  0  0  0  0  0  0  0  0
  141.4453   69.5234  228.1476 H   0  0  0  0  0  0  0  0  0  0  0  0
  141.6271   71.9465  227.5999 H   0  0  0  0  0  0  0  0  0  0  0  0
  140.7790   72.8198  225.4686 H   0  0  0  0  0  0  0  0  0  0  0  0
  142.6270   71.4199  221.4592 H   0  0  0  0  0  0  0  0  0  0  0  0
  142.2732   71.9384  219.7310 H   0  0  0  0  0  0  0  0  0  0  0  0
  144.5567   72.8622  222.5990 H   0  0  0  0  0  0  0  0  0  0  0  0
  146.8844   73.5901  222.1926 H   0  0  0  0  0  0  0  0  0  0  0  0
  147.7503   73.8375  219.8694 H   0  0  0  0  0  0  0  0  0  0  0  0
  146.3730   74.2770  217.2790 H   0  0  0  0  0  0  0  0  0  0  0  0
  143.9006   72.6042  218.3845 H   0  0  0  0  0  0  0  0  0  0  0  0
  1  2  2  0
  2  3  1  0
  3  4  2  0
  4  5  1  0
  5  6  2  0
  6  7  1  0
  7  8  2  0
  8  9  1  0
  9 10  2  0
 10 11  1  0
 11 12  2  0
 12 13  1  0
 13 14  2  0
 14 15  1  0
 15 16  2  0
 16 17  1  0
 17 18  2  0
 10 19  1  0
 19 20  1  0
 20 21  1  0
 21 22  2  0
 22 23  1  0
 23 24  2  0
 24 25  1  0
 25 26  1  0
 25 27  2  0
 19  2  1  0
 27 21  1  0
  8  3  1  0
 18 13  1  0
  4 28  1  0
  5 29  1  0
  6 30  1  0
  7 31  1  0
 11 32  1  0
 12 33  1  0
 14 34  1  0
 15 35  1  0
 16 36  1  0
 17 37  1  0
 18 38  1  0
 20 39  1  0
 20 40  1  0
 22 41  1  0
 23 42  1  0
 24 43  1  0
 26 44  1  0
 27 45  1  0
M  END
>  <smiles>  (43) 
O=c1c2ccccc2nc(/C=C/c2ccccc2)n1Cc1cccc(O)c1

>  <score_type>  (43) 
oracle

>  <origin>  (43) 
autodockgpu

>  <m_score__min__energy>  (43) 
-8.5899999999999999

>  <m_primary>  (43) 
energy

>  <rmsd>  (43) 
7.773115550854828

>  <m_score__min__rmsd>  (43) 
7.773115550854828

>  <meeko>  (43) 
{"free_energy": -8.59, "intermolecular_energy": -10.38, "internal_energy": -0.63, "cluster_size": 14, "cluster_id": 1, "rank_in_cluster": 1}

>  <energy>  (43) 
-7.0

>  <cluster_rmsd>  (43) 
0.0

>  <cluster>  (43) 
6

$$$$

     RDKit          3D

 45 48  0  0  0  0  0  0  0  0999 V2000
  142.7130   77.0210  219.4850 O   0  0  0  0  0  0  0  0  0  0  0  0
  141.8830   76.6300  220.3470 C   0  0  0  0  0  0  0  0  0  0  0  0
  141.4200   77.6090  221.2190 C   0  0  0  0  0  0  0  0  0  0  0  0
  141.8550   78.9140  221.1240 C   0  0  0  0  0  0  0  0  0  0  0  0
  141.3770   79.8700  222.0070 C   0  0  0  0  0  0  0  0  0  0  0  0
  140.4670   79.5100  222.9750 C   0  0  0  0  0  0  0  0  0  0  0  0
  140.0110   78.2080  223.0970 C   0  0  0  0  0  0  0  0  0  0  0  0
  140.5040   77.2900  222.2090 C   0  0  0  0  0  0  0  0  0  0  0  0
  140.1120   76.0050  222.2590 N   0  0  0  0  0  0  0  0  0  0  0  0
  140.5750   75.0760  221.4030 C   0  0  0  0  0  0  0  0  0  0  0  0
  140.0770   73.7130  221.5940 C   0  0  0  0  0  0  0  0  0  0  0  0
  140.7500   72.8370  222.3160 C   0  0  0  0  0  0  0  0  0  0  0  0
  140.1420   71.9100  223.2540 C   0  0  0  0  0  0  0  0  0  0  0  0
  140.6890   71.5390  224.4490 C   0  0  0  0  0  0  0  0  0  0  0  0
  140.0650   70.6500  225.3070 C   0  0  0  0  0  0  0  0  0  0  0  0
  138.8450   70.0900  224.9890 C   0  0  0  0  0  0  0  0  0  0  0  0
  138.2760   70.4510  223.7870 C   0  0  0  0  0  0  0  0  0  0  0  0
  138.9050   71.3380  222.9380 C   0  0  0  0  0  0  0  0  0  0  0  0
  141.4630   75.3400  220.4270 N   0  0  0  0  0  0  0  0  0  0  0  0
  141.9490   74.3780  219.4840 C   0  0  0  0  0  0  0  0  0  0  0  0
  143.3450   73.9280  219.7110 C   0  0  0  0  0  0  0  0  0  0  0  0
  144.0670   74.1740  220.8510 C   0  0  0  0  0  0  0  0  0  0  0  0
  145.3850   73.7320  221.0170 C   0  0  0  0  0  0  0  0  0  0  0  0
  146.0210   73.0200  220.0260 C   0  0  0  0  0  0  0  0  0  0  0  0
  145.3110   72.7650  218.8780 C   0  0  0  0  0  0  0  0  0  0  0  0
  145.9420   72.0400  217.8560 O   0  0  0  0  0  0  0  0  0  0  0  0
  144.0050   73.2030  218.7140 C   0  0  0  0  0  0  0  0  0  0  0  0
  142.5812   79.1966  220.3476 H   0  0  0  0  0  0  0  0  0  0  0  0
  141.7234   80.9115  221.9344 H   0  0  0  0  0  0  0  0  0  0  0  0
  140.0923   80.2762  223.6696 H   0  0  0  0  0  0  0  0  0  0  0  0
  139.2849   77.9240  223.8730 H   0  0  0  0  0  0  0  0  0  0  0  0
  139.1264   73.4140  221.1282 H   0  0  0  0  0  0  0  0  0  0  0  0
  141.8434   72.8070  222.1996 H   0  0  0  0  0  0  0  0  0  0  0  0
  141.6615   71.9623  224.7405 H   0  0  0  0  0  0  0  0  0  0  0  0
  140.5500   70.3856  226.2583 H   0  0  0  0  0  0  0  0  0  0  0  0
  138.3460   69.3831  225.6682 H   0  0  0  0  0  0  0  0  0  0  0  0
  137.3036   70.0246  223.4995 H   0  0  0  0  0  0  0  0  0  0  0  0
  138.4206   71.6027  221.9865 H   0  0  0  0  0  0  0  0  0  0  0  0
  141.2942   73.4952  219.5287 H   0  0  0  0  0  0  0  0  0  0  0  0
  141.9421   74.8772  218.5038 H   0  0  0  0  0  0  0  0  0  0  0  0
  143.5923   74.7402  221.6659 H   0  0  0  0  0  0  0  0  0  0  0  0
  145.9192   73.9568  221.9519 H   0  0  0  0  0  0  0  0  0  0  0  0
  147.0563   72.6691  220.1482 H   0  0  0  0  0  0  0  0  0  0  0  0
  145.3940   71.6560  217.1010 H   0  0  0  0  0  0  0  0  0  0  0  0
  143.4759   72.9745  217.7771 H   0  0  0  0  0  0  0  0  0  0  0  0
  1  2  2  0
  2  3  1  0
  3  4  2  0
  4  5  1  0
  5  6  2  0
  6  7  1  0
  7  8  2  0
  8  9  1  0
  9 10  2  0
 10 11  1  0
 11 12  2  0
 12 13  1  0
 13 14  2  0
 14 15  1  0
 15 16  2  0
 16 17  1  0
 17 18  2  0
 10 19  1  0
 19 20  1  0
 20 21  1  0
 21 22  2  0
 22 23  1  0
 23 24  2  0
 24 25  1  0
 25 26  1  0
 25 27  2  0
 19  2  1  0
 27 21  1  0
  8  3  1  0
 18 13  1  0
  4 28  1  0
  5 29  1  0
  6 30  1  0
  7 31  1  0
 11 32  1  0
 12 33  1  0
 14 34  1  0
 15 35  1  0
 16 36  1  0
 17 37  1  0
 18 38  1  0
 20 39  1  0
 20 40  1  0
 22 41  1  0
 23 42  1  0
 24 43  1  0
 26 44  1  0
 27 45  1  0
M  END
>  <smiles>  (44) 
O=c1c2ccccc2nc(/C=C/c2ccccc2)n1Cc1cccc(O)c1

>  <score_type>  (44) 
oracle

>  <origin>  (44) 
autodockgpu

>  <m_score__min__energy>  (44) 
-8.5899999999999999

>  <m_primary>  (44) 
energy

>  <rmsd>  (44) 
7.569137484835093

>  <m_score__min__rmsd>  (44) 
7.569137484835093

>  <meeko>  (44) 
{"free_energy": -7.24, "intermolecular_energy": -9.03, "internal_energy": -1.1, "cluster_size": 14, "cluster_id": 1, "rank_in_cluster": 14}

>  <energy>  (44) 
-6.81

>  <cluster_rmsd>  (44) 
0.0

>  <cluster>  (44) 
7

$$$$

     RDKit          3D

 45 48  0  0  0  0  0  0  0  0999 V2000
  142.5550   76.9440  217.2240 O   0  0  0  0  0  0  0  0  0  0  0  0
  142.1060   77.4790  218.2710 C   0  0  0  0  0  0  0  0  0  0  0  0
  142.1050   78.8690  218.2810 C   0  0  0  0  0  0  0  0  0  0  0  0
  142.5710   79.5920  217.2010 C   0  0  0  0  0  0  0  0  0  0  0  0
  142.5590   80.9770  217.2390 C   0  0  0  0  0  0  0  0  0  0  0  0
  142.0810   81.6260  218.3540 C   0  0  0  0  0  0  0  0  0  0  0  0
  141.6080   80.9300  219.4530 C   0  0  0  0  0  0  0  0  0  0  0  0
  141.6340   79.5630  219.3840 C   0  0  0  0  0  0  0  0  0  0  0  0
  141.1920   78.8130  220.4080 N   0  0  0  0  0  0  0  0  0  0  0  0
  141.2030   77.4680  220.3740 C   0  0  0  0  0  0  0  0  0  0  0  0
  140.7130   76.7860  221.5740 C   0  0  0  0  0  0  0  0  0  0  0  0
  141.0420   77.2080  222.7790 C   0  0  0  0  0  0  0  0  0  0  0  0
  141.2870   78.5980  223.1210 C   0  0  0  0  0  0  0  0  0  0  0  0
  140.3220   79.4970  223.4740 C   0  0  0  0  0  0  0  0  0  0  0  0
  140.6130   80.8120  223.7920 C   0  0  0  0  0  0  0  0  0  0  0  0
  141.9100   81.2820  223.7640 C   0  0  0  0  0  0  0  0  0  0  0  0
  142.8990   80.3910  223.4100 C   0  0  0  0  0  0  0  0  0  0  0  0
  142.6000   79.0820  223.0960 C   0  0  0  0  0  0  0  0  0  0  0  0
  141.6490   76.7530  219.3260 N   0  0  0  0  0  0  0  0  0  0  0  0
  141.6450   75.3230  219.2500 C   0  0  0  0  0  0  0  0  0  0  0  0
  142.8410   74.6610  219.8260 C   0  0  0  0  0  0  0  0  0  0  0  0
  144.0680   75.2570  219.9690 C   0  0  0  0  0  0  0  0  0  0  0  0
  145.1710   74.5880  220.5130 C   0  0  0  0  0  0  0  0  0  0  0  0
  145.0670   73.2820  220.9360 C   0  0  0  0  0  0  0  0  0  0  0  0
  143.8440   72.6710  220.8000 C   0  0  0  0  0  0  0  0  0  0  0  0
  143.7170   71.3410  221.2250 O   0  0  0  0  0  0  0  0  0  0  0  0
  142.7510   73.3340  220.2600 C   0  0  0  0  0  0  0  0  0  0  0  0
  142.9514   79.0690  216.3112 H   0  0  0  0  0  0  0  0  0  0  0  0
  142.9305   81.5558  216.3805 H   0  0  0  0  0  0  0  0  0  0  0  0
  142.0745   82.7258  218.3726 H   0  0  0  0  0  0  0  0  0  0  0  0
  141.2278   81.4526  220.3431 H   0  0  0  0  0  0  0  0  0  0  0  0
  140.0598   75.9073  221.4682 H   0  0  0  0  0  0  0  0  0  0  0  0
  141.1372   76.4579  223.5779 H   0  0  0  0  0  0  0  0  0  0  0  0
  139.2742   79.1636  223.5068 H   0  0  0  0  0  0  0  0  0  0  0  0
  139.7966   81.4941  224.0718 H   0  0  0  0  0  0  0  0  0  0  0  0
  142.1449   82.3270  224.0145 H   0  0  0  0  0  0  0  0  0  0  0  0
  143.9451   80.7294  223.3772 H   0  0  0  0  0  0  0  0  0  0  0  0
  143.4163   78.3991  222.8181 H   0  0  0  0  0  0  0  0  0  0  0  0
  140.7590   74.9552  219.7883 H   0  0  0  0  0  0  0  0  0  0  0  0
  141.6408   75.0722  218.1790 H   0  0  0  0  0  0  0  0  0  0  0  0
  144.1901   76.3007  219.6438 H   0  0  0  0  0  0  0  0  0  0  0  0
  146.1335   75.1128  220.6036 H   0  0  0  0  0  0  0  0  0  0  0  0
  145.9282   72.7493  221.3655 H   0  0  0  0  0  0  0  0  0  0  0  0
  144.3550   70.9700  221.9130 H   0  0  0  0  0  0  0  0  0  0  0  0
  141.7914   72.8037  220.1711 H   0  0  0  0  0  0  0  0  0  0  0  0
  1  2  2  0
  2  3  1  0
  3  4  2  0
  4  5  1  0
  5  6  2  0
  6  7  1  0
  7  8  2  0
  8  9  1  0
  9 10  2  0
 10 11  1  0
 11 12  2  0
 12 13  1  0
 13 14  2  0
 14 15  1  0
 15 16  2  0
 16 17  1  0
 17 18  2  0
 10 19  1  0
 19 20  1  0
 20 21  1  0
 21 22  2  0
 22 23  1  0
 23 24  2  0
 24 25  1  0
 25 26  1  0
 25 27  2  0
 19  2  1  0
 27 21  1  0
  8  3  1  0
 18 13  1  0
  4 28  1  0
  5 29  1  0
  6 30  1  0
  7 31  1  0
 11 32  1  0
 12 33  1  0
 14 34  1  0
 15 35  1  0
 16 36  1  0
 17 37  1  0
 18 38  1  0
 20 39  1  0
 20 40  1  0
 22 41  1  0
 23 42  1  0
 24 43  1  0
 26 44  1  0
 27 45  1  0
M  END
>  <smiles>  (45) 
O=c1c2ccccc2nc(/C=C/c2ccccc2)n1Cc1cccc(O)c1

>  <score_type>  (45) 
oracle

>  <origin>  (45) 
autodockgpu

>  <m_score__min__energy>  (45) 
-8.5899999999999999

>  <m_primary>  (45) 
energy

>  <rmsd>  (45) 
7.251257271987275

>  <m_score__min__rmsd>  (45) 
7.251257271987275

>  <meeko>  (45) 
{"free_energy": -7.09, "intermolecular_energy": -8.88, "internal_energy": -1.42, "cluster_size": 4, "cluster_id": 2, "rank_in_cluster": 2}

>  <energy>  (45) 
-6.61

>  <cluster_rmsd>  (45) 
0.0

>  <cluster>  (45) 
8

$$$$

     RDKit          3D

 45 48  0  0  0  0  0  0  0  0999 V2000
  135.6060   70.3920  221.6850 O   0  0  0  0  0  0  0  0  0  0  0  0
  136.0250   70.0310  222.8160 C   0  0  0  0  0  0  0  0  0  0  0  0
  135.1520   70.2510  223.8760 C   0  0  0  0  0  0  0  0  0  0  0  0
  133.9150   70.8280  223.6750 C   0  0  0  0  0  0  0  0  0  0  0  0
  133.0650   71.0360  224.7500 C   0  0  0  0  0  0  0  0  0  0  0  0
  133.4610   70.6650  226.0150 C   0  0  0  0  0  0  0  0  0  0  0  0
  134.6960   70.0850  226.2490 C   0  0  0  0  0  0  0  0  0  0  0  0
  135.5110   69.8940  225.1660 C   0  0  0  0  0  0  0  0  0  0  0  0
  136.7260   69.3370  225.3080 N   0  0  0  0  0  0  0  0  0  0  0  0
  137.5520   69.1340  224.2650 C   0  0  0  0  0  0  0  0  0  0  0  0
  138.8540   68.5400  224.5770 C   0  0  0  0  0  0  0  0  0  0  0  0
  139.3640   68.6150  225.7910 C   0  0  0  0  0  0  0  0  0  0  0  0
  139.9600   69.8120  226.3560 C   0  0  0  0  0  0  0  0  0  0  0  0
  140.5940   70.7840  225.6360 C   0  0  0  0  0  0  0  0  0  0  0  0
  141.1460   71.9070  226.2280 C   0  0  0  0  0  0  0  0  0  0  0  0
  141.0800   72.0980  227.5930 C   0  0  0  0  0  0  0  0  0  0  0  0
  140.4450   71.1290  228.3380 C   0  0  0  0  0  0  0  0  0  0  0  0
  139.8980   70.0130  227.7400 C   0  0  0  0  0  0  0  0  0  0  0  0
  137.2460   69.4640  222.9980 N   0  0  0  0  0  0  0  0  0  0  0  0
  138.0930   69.2320  221.8660 C   0  0  0  0  0  0  0  0  0  0  0  0
  139.1520   70.2500  221.6560 C   0  0  0  0  0  0  0  0  0  0  0  0
  140.2820   70.0540  220.9030 C   0  0  0  0  0  0  0  0  0  0  0  0
  141.2580   71.0440  220.7390 C   0  0  0  0  0  0  0  0  0  0  0  0
  141.1210   72.2770  221.3360 C   0  0  0  0  0  0  0  0  0  0  0  0
  139.9940   72.4880  222.0940 C   0  0  0  0  0  0  0  0  0  0  0  0
  139.8360   73.7380  222.7100 O   0  0  0  0  0  0  0  0  0  0  0  0
  139.0270   71.5070  222.2560 C   0  0  0  0  0  0  0  0  0  0  0  0
  133.6034   71.1228  222.6621 H   0  0  0  0  0  0  0  0  0  0  0  0
  132.0781   71.4957  224.5928 H   0  0  0  0  0  0  0  0  0  0  0  0
  132.7789   70.8336  226.8613 H   0  0  0  0  0  0  0  0  0  0  0  0
  135.0089   69.7903  227.2616 H   0  0  0  0  0  0  0  0  0  0  0  0
  139.4159   68.0226  223.7854 H   0  0  0  0  0  0  0  0  0  0  0  0
  139.3359   67.7107  226.4167 H   0  0  0  0  0  0  0  0  0  0  0  0
  140.6688   70.6702  224.5445 H   0  0  0  0  0  0  0  0  0  0  0  0
  141.6454   72.6594  225.6000 H   0  0  0  0  0  0  0  0  0  0  0  0
  141.5172   72.9889  228.0674 H   0  0  0  0  0  0  0  0  0  0  0  0
  140.3729   71.2473  229.4292 H   0  0  0  0  0  0  0  0  0  0  0  0
  139.3992   69.2601  228.3679 H   0  0  0  0  0  0  0  0  0  0  0  0
  138.5805   68.2550  221.9991 H   0  0  0  0  0  0  0  0  0  0  0  0
  137.4421   69.2783  220.9804 H   0  0  0  0  0  0  0  0  0  0  0  0
  140.4266   69.0817  220.4093 H   0  0  0  0  0  0  0  0  0  0  0  0
  142.1462   70.8340  220.1250 H   0  0  0  0  0  0  0  0  0  0  0  0
  141.8823   73.0612  221.2115 H   0  0  0  0  0  0  0  0  0  0  0  0
  138.9400   73.9990  223.0950 H   0  0  0  0  0  0  0  0  0  0  0  0
  138.1408   71.7228  222.8709 H   0  0  0  0  0  0  0  0  0  0  0  0
  1  2  2  0
  2  3  1  0
  3  4  2  0
  4  5  1  0
  5  6  2  0
  6  7  1  0
  7  8  2  0
  8  9  1  0
  9 10  2  0
 10 11  1  0
 11 12  2  0
 12 13  1  0
 13 14  2  0
 14 15  1  0
 15 16  2  0
 16 17  1  0
 17 18  2  0
 10 19  1  0
 19 20  1  0
 20 21  1  0
 21 22  2  0
 22 23  1  0
 23 24  2  0
 24 25  1  0
 25 26  1  0
 25 27  2  0
 19  2  1  0
 27 21  1  0
  8  3  1  0
 18 13  1  0
  4 28  1  0
  5 29  1  0
  6 30  1  0
  7 31  1  0
 11 32  1  0
 12 33  1  0
 14 34  1  0
 15 35  1  0
 16 36  1  0
 17 37  1  0
 18 38  1  0
 20 39  1  0
 20 40  1  0
 22 41  1  0
 23 42  1  0
 24 43  1  0
 26 44  1  0
 27 45  1  0
M  END
>  <smiles>  (46) 
O=c1c2ccccc2nc(/C=C/c2ccccc2)n1Cc1cccc(O)c1

>  <score_type>  (46) 
oracle

>  <origin>  (46) 
autodockgpu

>  <m_score__min__energy>  (46) 
-8.5899999999999999

>  <m_primary>  (46) 
energy

>  <rmsd>  (46) 
10.604308219827923

>  <m_score__min__rmsd>  (46) 
10.604308219827923

>  <meeko>  (46) 
{"free_energy": -6.9, "intermolecular_energy": -8.69, "internal_energy": -1.58, "cluster_size": 21, "cluster_id": 4, "rank_in_cluster": 19}

>  <energy>  (46) 
-6.59

>  <cluster_rmsd>  (46) 
0.0

>  <cluster>  (46) 
9

$$$$

     RDKit          3D

 45 48  0  0  0  0  0  0  0  0999 V2000
  143.0900   74.7060  220.5480 O   0  0  0  0  0  0  0  0  0  0  0  0
  142.0350   74.3360  221.1250 C   0  0  0  0  0  0  0  0  0  0  0  0
  141.0960   75.3350  221.3550 C   0  0  0  0  0  0  0  0  0  0  0  0
  141.3290   76.6380  220.9660 C   0  0  0  0  0  0  0  0  0  0  0  0
  140.3750   77.6140  221.2080 C   0  0  0  0  0  0  0  0  0  0  0  0
  139.1970   77.2770  221.8370 C   0  0  0  0  0  0  0  0  0  0  0  0
  138.9340   75.9790  222.2390 C   0  0  0  0  0  0  0  0  0  0  0  0
  139.8970   75.0390  221.9850 C   0  0  0  0  0  0  0  0  0  0  0  0
  139.7190   73.7570  222.3440 N   0  0  0  0  0  0  0  0  0  0  0  0
  140.6440   72.8080  222.1100 C   0  0  0  0  0  0  0  0  0  0  0  0
  140.3220   71.4590  222.5800 C   0  0  0  0  0  0  0  0  0  0  0  0
  139.5020   71.2700  223.5950 C   0  0  0  0  0  0  0  0  0  0  0  0
  139.9310   71.0320  224.9620 C   0  0  0  0  0  0  0  0  0  0  0  0
  140.6930   71.8910  225.7010 C   0  0  0  0  0  0  0  0  0  0  0  0
  141.0740   71.6140  227.0020 C   0  0  0  0  0  0  0  0  0  0  0  0
  140.6970   70.4400  227.6210 C   0  0  0  0  0  0  0  0  0  0  0  0
  139.9270   69.5590  226.8920 C   0  0  0  0  0  0  0  0  0  0  0  0
  139.5520   69.8440  225.5950 C   0  0  0  0  0  0  0  0  0  0  0  0
  141.8190   73.0480  221.5010 N   0  0  0  0  0  0  0  0  0  0  0  0
  142.8080   72.0530  221.2120 C   0  0  0  0  0  0  0  0  0  0  0  0
  143.2960   72.0410  219.8110 C   0  0  0  0  0  0  0  0  0  0  0  0
  142.5970   71.5290  218.7470 C   0  0  0  0  0  0  0  0  0  0  0  0
  143.1020   71.5350  217.4410 C   0  0  0  0  0  0  0  0  0  0  0  0
  144.3420   72.0650  217.1670 C   0  0  0  0  0  0  0  0  0  0  0  0
  145.0550   72.5820  218.2220 C   0  0  0  0  0  0  0  0  0  0  0  0
  146.3210   73.1270  217.9620 O   0  0  0  0  0  0  0  0  0  0  0  0
  144.5540   72.5760  219.5160 C   0  0  0  0  0  0  0  0  0  0  0  0
  142.2714   76.9022  220.4640 H   0  0  0  0  0  0  0  0  0  0  0  0
  140.5580   78.6537  220.8989 H   0  0  0  0  0  0  0  0  0  0  0  0
  138.4465   78.0590  222.0246 H   0  0  0  0  0  0  0  0  0  0  0  0
  137.9919   75.7138  222.7410 H   0  0  0  0  0  0  0  0  0  0  0  0
  140.7715   70.5894  222.0782 H   0  0  0  0  0  0  0  0  0  0  0  0
  138.4210   71.2942  223.3930 H   0  0  0  0  0  0  0  0  0  0  0  0
  141.0160   72.8385  225.2450 H   0  0  0  0  0  0  0  0  0  0  0  0
  141.6880   72.3422  227.5522 H   0  0  0  0  0  0  0  0  0  0  0  0
  140.9987   70.2159  228.6548 H   0  0  0  0  0  0  0  0  0  0  0  0
  139.6061   68.6128  227.3521 H   0  0  0  0  0  0  0  0  0  0  0  0
  138.9380   69.1166  225.0437 H   0  0  0  0  0  0  0  0  0  0  0  0
  143.6705   72.2276  221.8721 H   0  0  0  0  0  0  0  0  0  0  0  0
  142.3217   71.0801  221.3760 H   0  0  0  0  0  0  0  0  0  0  0  0
  141.6014   71.0971  218.9269 H   0  0  0  0  0  0  0  0  0  0  0  0
  142.5000   71.1108  216.6239 H   0  0  0  0  0  0  0  0  0  0  0  0
  144.7465   72.0745  216.1441 H   0  0  0  0  0  0  0  0  0  0  0  0
  146.4370   74.1280  217.9170 H   0  0  0  0  0  0  0  0  0  0  0  0
  145.1605   73.0020  220.3288 H   0  0  0  0  0  0  0  0  0  0  0  0
  1  2  2  0
  2  3  1  0
  3  4  2  0
  4  5  1  0
  5  6  2  0
  6  7  1  0
  7  8  2  0
  8  9  1  0
  9 10  2  0
 10 11  1  0
 11 12  2  0
 12 13  1  0
 13 14  2  0
 14 15  1  0
 15 16  2  0
 16 17  1  0
 17 18  2  0
 10 19  1  0
 19 20  1  0
 20 21  1  0
 21 22  2  0
 22 23  1  0
 23 24  2  0
 24 25  1  0
 25 26  1  0
 25 27  2  0
 19  2  1  0
 27 21  1  0
  8  3  1  0
 18 13  1  0
  4 28  1  0
  5 29  1  0
  6 30  1  0
  7 31  1  0
 11 32  1  0
 12 33  1  0
 14 34  1  0
 15 35  1  0
 16 36  1  0
 17 37  1  0
 18 38  1  0
 20 39  1  0
 20 40  1  0
 22 41  1  0
 23 42  1  0
 24 43  1  0
 26 44  1  0
 27 45  1  0
M  END
>  <smiles>  (47) 
O=c1c2ccccc2nc(/C=C/c2ccccc2)n1Cc1cccc(O)c1

>  <score_type>  (47) 
oracle

>  <origin>  (47) 
autodockgpu

>  <m_score__min__energy>  (47) 
-8.5899999999999999

>  <m_primary>  (47) 
energy

>  <rmsd>  (47) 
7.9920430436509955

>  <m_score__min__rmsd>  (47) 
7.9920430436509955

>  <meeko>  (47) 
{"free_energy": -7.66, "intermolecular_energy": -9.45, "internal_energy": -0.94, "cluster_size": 14, "cluster_id": 1, "rank_in_cluster": 9}

>  <energy>  (47) 
-6.39

>  <cluster_rmsd>  (47) 
0.57

>  <cluster>  (47) 
9

$$$$

     RDKit          3D

 45 48  0  0  0  0  0  0  0  0999 V2000
  142.5070   76.7340  217.3520 O   0  0  0  0  0  0  0  0  0  0  0  0
  142.0820   77.3390  218.3700 C   0  0  0  0  0  0  0  0  0  0  0  0
  142.1030   78.7270  218.2950 C   0  0  0  0  0  0  0  0  0  0  0  0
  142.5650   79.3740  217.1670 C   0  0  0  0  0  0  0  0  0  0  0  0
  142.5750   80.7590  217.1190 C   0  0  0  0  0  0  0  0  0  0  0  0
  142.1240   81.4830  218.1990 C   0  0  0  0  0  0  0  0  0  0  0  0
  141.6550   80.8640  219.3450 C   0  0  0  0  0  0  0  0  0  0  0  0
  141.6580   79.4950  219.3590 C   0  0  0  0  0  0  0  0  0  0  0  0
  141.2190   78.8160  220.4330 N   0  0  0  0  0  0  0  0  0  0  0  0
  141.2080   77.4720  220.4820 C   0  0  0  0  0  0  0  0  0  0  0  0
  140.7250   76.8720  221.7280 C   0  0  0  0  0  0  0  0  0  0  0  0
  140.3260   77.6240  222.7350 C   0  0  0  0  0  0  0  0  0  0  0  0
  140.9220   78.9010  223.0900 C   0  0  0  0  0  0  0  0  0  0  0  0
  140.2210   80.0440  223.3460 C   0  0  0  0  0  0  0  0  0  0  0  0
  140.8410   81.2350  223.6810 C   0  0  0  0  0  0  0  0  0  0  0  0
  142.2150   81.3230  223.7730 C   0  0  0  0  0  0  0  0  0  0  0  0
  142.9400   80.1790  223.5190 C   0  0  0  0  0  0  0  0  0  0  0  0
  142.3140   78.9960  223.1850 C   0  0  0  0  0  0  0  0  0  0  0  0
  141.6290   76.6870  219.4740 N   0  0  0  0  0  0  0  0  0  0  0  0
  141.6000   75.2550  219.4870 C   0  0  0  0  0  0  0  0  0  0  0  0
  142.8600   74.6060  219.9250 C   0  0  0  0  0  0  0  0  0  0  0  0
  144.0610   75.2550  220.0670 C   0  0  0  0  0  0  0  0  0  0  0  0
  145.2270   74.5980  220.4790 C   0  0  0  0  0  0  0  0  0  0  0  0
  145.2150   73.2510  220.7640 C   0  0  0  0  0  0  0  0  0  0  0  0
  144.0200   72.5880  220.6270 C   0  0  0  0  0  0  0  0  0  0  0  0
  143.9870   71.2150  220.9130 O   0  0  0  0  0  0  0  0  0  0  0  0
  142.8650   73.2390  220.2190 C   0  0  0  0  0  0  0  0  0  0  0  0
  142.9251   78.7908  216.3066 H   0  0  0  0  0  0  0  0  0  0  0  0
  142.9420   81.2777  216.2211 H   0  0  0  0  0  0  0  0  0  0  0  0
  142.1365   82.5819  218.1504 H   0  0  0  0  0  0  0  0  0  0  0  0
  141.2958   81.4463  220.2063 H   0  0  0  0  0  0  0  0  0  0  0  0
  140.6947   75.7767  221.8252 H   0  0  0  0  0  0  0  0  0  0  0  0
  139.4869   77.2609  223.3465 H   0  0  0  0  0  0  0  0  0  0  0  0
  139.1231   80.0174  223.2837 H   0  0  0  0  0  0  0  0  0  0  0  0
  140.2279   82.1270  223.8773 H   0  0  0  0  0  0  0  0  0  0  0  0
  142.7114   82.2681  224.0383 H   0  0  0  0  0  0  0  0  0  0  0  0
  144.0377   80.2097  223.5837 H   0  0  0  0  0  0  0  0  0  0  0  0
  142.9261   78.1035  222.9881 H   0  0  0  0  0  0  0  0  0  0  0  0
  140.7973   74.9362  220.1682 H   0  0  0  0  0  0  0  0  0  0  0  0
  141.4390   74.9415  218.4450 H   0  0  0  0  0  0  0  0  0  0  0  0
  144.1095   76.3321  219.8489 H   0  0  0  0  0  0  0  0  0  0  0  0
  146.1644   75.1653  220.5762 H   0  0  0  0  0  0  0  0  0  0  0  0
  146.1260   72.7268  221.0885 H   0  0  0  0  0  0  0  0  0  0  0  0
  144.3850   70.8720  221.7740 H   0  0  0  0  0  0  0  0  0  0  0  0
  141.9307   72.6661  220.1245 H   0  0  0  0  0  0  0  0  0  0  0  0
  1  2  2  0
  2  3  1  0
  3  4  2  0
  4  5  1  0
  5  6  2  0
  6  7  1  0
  7  8  2  0
  8  9  1  0
  9 10  2  0
 10 11  1  0
 11 12  2  0
 12 13  1  0
 13 14  2  0
 14 15  1  0
 15 16  2  0
 16 17  1  0
 17 18  2  0
 10 19  1  0
 19 20  1  0
 20 21  1  0
 21 22  2  0
 22 23  1  0
 23 24  2  0
 24 25  1  0
 25 26  1  0
 25 27  2  0
 19  2  1  0
 27 21  1  0
  8  3  1  0
 18 13  1  0
  4 28  1  0
  5 29  1  0
  6 30  1  0
  7 31  1  0
 11 32  1  0
 12 33  1  0
 14 34  1  0
 15 35  1  0
 16 36  1  0
 17 37  1  0
 18 38  1  0
 20 39  1  0
 20 40  1  0
 22 41  1  0
 23 42  1  0
 24 43  1  0
 26 44  1  0
 27 45  1  0
M  END
>  <smiles>  (48) 
O=c1c2ccccc2nc(/C=C/c2ccccc2)n1Cc1cccc(O)c1

>  <score_type>  (48) 
oracle

>  <origin>  (48) 
autodockgpu

>  <m_score__min__energy>  (48) 
-8.5899999999999999

>  <m_primary>  (48) 
energy

>  <rmsd>  (48) 
7.229892242181327

>  <m_score__min__rmsd>  (48) 
7.229892242181327

>  <meeko>  (48) 
{"free_energy": -7.03, "intermolecular_energy": -8.82, "internal_energy": -1.24, "cluster_size": 4, "cluster_id": 2, "rank_in_cluster": 4}

>  <energy>  (48) 
-6.27

>  <cluster_rmsd>  (48) 
0.66

>  <cluster>  (48) 
9

$$$$

     RDKit          3D

 45 48  0  0  0  0  0  0  0  0999 V2000
  142.6330   75.6920  219.7140 O   0  0  0  0  0  0  0  0  0  0  0  0
  141.7120   75.3640  220.5060 C   0  0  0  0  0  0  0  0  0  0  0  0
  141.0820   76.4160  221.1620 C   0  0  0  0  0  0  0  0  0  0  0  0
  141.4610   77.7240  220.9430 C   0  0  0  0  0  0  0  0  0  0  0  0
  140.8170   78.7530  221.6110 C   0  0  0  0  0  0  0  0  0  0  0  0
  139.8000   78.4630  222.4930 C   0  0  0  0  0  0  0  0  0  0  0  0
  139.3970   77.1610  222.7360 C   0  0  0  0  0  0  0  0  0  0  0  0
  140.0550   76.1690  222.0590 C   0  0  0  0  0  0  0  0  0  0  0  0
  139.7240   74.8790  222.2370 N   0  0  0  0  0  0  0  0  0  0  0  0
  140.3480   73.8780  221.5890 C   0  0  0  0  0  0  0  0  0  0  0  0
  139.8970   72.5210  221.9040 C   0  0  0  0  0  0  0  0  0  0  0  0
  140.6820   71.6730  222.5390 C   0  0  0  0  0  0  0  0  0  0  0  0
  140.3970   71.1170  223.8500 C   0  0  0  0  0  0  0  0  0  0  0  0
  139.8150   69.9020  224.0730 C   0  0  0  0  0  0  0  0  0  0  0  0
  139.5670   69.4200  225.3470 C   0  0  0  0  0  0  0  0  0  0  0  0
  139.9000   70.1570  226.4650 C   0  0  0  0  0  0  0  0  0  0  0  0
  140.4880   71.3860  226.2610 C   0  0  0  0  0  0  0  0  0  0  0  0
  140.7320   71.8580  224.9890 C   0  0  0  0  0  0  0  0  0  0  0  0
  141.3490   74.0700  220.7110 N   0  0  0  0  0  0  0  0  0  0  0  0
  142.0100   73.0280  219.9850 C   0  0  0  0  0  0  0  0  0  0  0  0
  143.4920   73.0540  220.0580 C   0  0  0  0  0  0  0  0  0  0  0  0
  144.2160   72.9430  221.2180 C   0  0  0  0  0  0  0  0  0  0  0  0
  145.6160   72.9790  221.2380 C   0  0  0  0  0  0  0  0  0  0  0  0
  146.3340   73.1310  220.0730 C   0  0  0  0  0  0  0  0  0  0  0  0
  145.6230   73.2430  218.9040 C   0  0  0  0  0  0  0  0  0  0  0  0
  146.3370   73.3980  217.7060 O   0  0  0  0  0  0  0  0  0  0  0  0
  144.2360   73.2070  218.8840 C   0  0  0  0  0  0  0  0  0  0  0  0
  142.2745   77.9502  220.2380 H   0  0  0  0  0  0  0  0  0  0  0  0
  141.1168   79.7970  221.4375 H   0  0  0  0  0  0  0  0  0  0  0  0
  139.2948   79.2871  223.0180 H   0  0  0  0  0  0  0  0  0  0  0  0
  138.5843   76.9334  223.4415 H   0  0  0  0  0  0  0  0  0  0  0  0
  138.8868   72.2038  221.6060 H   0  0  0  0  0  0  0  0  0  0  0  0
  141.6146   71.3663  222.0428 H   0  0  0  0  0  0  0  0  0  0  0  0
  139.5327   69.2833  223.2084 H   0  0  0  0  0  0  0  0  0  0  0  0
  139.0967   68.4332  225.4700 H   0  0  0  0  0  0  0  0  0  0  0  0
  139.7037   69.7782  227.4789 H   0  0  0  0  0  0  0  0  0  0  0  0
  140.7678   72.0017  227.1286 H   0  0  0  0  0  0  0  0  0  0  0  0
  141.2030   72.8444  224.8658 H   0  0  0  0  0  0  0  0  0  0  0  0
  141.6658   72.0627  220.3846 H   0  0  0  0  0  0  0  0  0  0  0  0
  141.7521   73.1802  218.9265 H   0  0  0  0  0  0  0  0  0  0  0  0
  143.6764   72.8211  222.1687 H   0  0  0  0  0  0  0  0  0  0  0  0
  146.1483   72.8847  222.1960 H   0  0  0  0  0  0  0  0  0  0  0  0
  147.4336   73.1615  220.0787 H   0  0  0  0  0  0  0  0  0  0  0  0
  146.4100   74.3090  217.2790 H   0  0  0  0  0  0  0  0  0  0  0  0
  143.7097   73.3010  217.9226 H   0  0  0  0  0  0  0  0  0  0  0  0
  1  2  2  0
  2  3  1  0
  3  4  2  0
  4  5  1  0
  5  6  2  0
  6  7  1  0
  7  8  2  0
  8  9  1  0
  9 10  2  0
 10 11  1  0
 11 12  2  0
 12 13  1  0
 13 14  2  0
 14 15  1  0
 15 16  2  0
 16 17  1  0
 17 18  2  0
 10 19  1  0
 19 20  1  0
 20 21  1  0
 21 22  2  0
 22 23  1  0
 23 24  2  0
 24 25  1  0
 25 26  1  0
 25 27  2  0
 19  2  1  0
 27 21  1  0
  8  3  1  0
 18 13  1  0
  4 28  1  0
  5 29  1  0
  6 30  1  0
  7 31  1  0
 11 32  1  0
 12 33  1  0
 14 34  1  0
 15 35  1  0
 16 36  1  0
 17 37  1  0
 18 38  1  0
 20 39  1  0
 20 40  1  0
 22 41  1  0
 23 42  1  0
 24 43  1  0
 26 44  1  0
 27 45  1  0
M  END
>  <smiles>  (49) 
O=c1c2ccccc2nc(/C=C/c2ccccc2)n1Cc1cccc(O)c1

>  <score_type>  (49) 
oracle

>  <origin>  (49) 
autodockgpu

>  <m_score__min__energy>  (49) 
-8.5899999999999999

>  <m_primary>  (49) 
energy

>  <rmsd>  (49) 
7.683023423353091

>  <m_score__min__rmsd>  (49) 
7.683023423353091

>  <meeko>  (49) 
{"free_energy": -7.89, "intermolecular_energy": -9.68, "internal_energy": -1.06, "cluster_size": 14, "cluster_id": 1, "rank_in_cluster": 6}

>  <energy>  (49) 
-6.36

>  <cluster_rmsd>  (49) 
0.0

>  <cluster>  (49) 
10

$$$$

     RDKit          3D

 45 48  0  0  0  0  0  0  0  0999 V2000
  141.2070   75.2750  219.1700 O   0  0  0  0  0  0  0  0  0  0  0  0
  140.7140   74.8590  220.2500 C   0  0  0  0  0  0  0  0  0  0  0  0
  139.8230   75.7250  220.8750 C   0  0  0  0  0  0  0  0  0  0  0  0
  139.5170   76.9530  220.3260 C   0  0  0  0  0  0  0  0  0  0  0  0
  138.6260   77.7970  220.9700 C   0  0  0  0  0  0  0  0  0  0  0  0
  138.0500   77.4040  222.1570 C   0  0  0  0  0  0  0  0  0  0  0  0
  138.3370   76.1780  222.7340 C   0  0  0  0  0  0  0  0  0  0  0  0
  139.2210   75.3700  222.0710 C   0  0  0  0  0  0  0  0  0  0  0  0
  139.5530   74.1640  222.5640 N   0  0  0  0  0  0  0  0  0  0  0  0
  140.4180   73.3440  221.9400 C   0  0  0  0  0  0  0  0  0  0  0  0
  140.7020   72.0720  222.6090 C   0  0  0  0  0  0  0  0  0  0  0  0
  139.8370   71.5350  223.4460 C   0  0  0  0  0  0  0  0  0  0  0  0
  140.1580   71.1180  224.8000 C   0  0  0  0  0  0  0  0  0  0  0  0
  140.8150   71.8860  225.7180 C   0  0  0  0  0  0  0  0  0  0  0  0
  141.0950   71.4370  226.9970 C   0  0  0  0  0  0  0  0  0  0  0  0
  140.7170   70.1750  227.4080 C   0  0  0  0  0  0  0  0  0  0  0  0
  140.0530   69.3850  226.4960 C   0  0  0  0  0  0  0  0  0  0  0  0
  139.7780   69.8400  225.2240 C   0  0  0  0  0  0  0  0  0  0  0  0
  141.0240   73.6460  220.7780 N   0  0  0  0  0  0  0  0  0  0  0  0
  141.9250   72.7800  220.0770 C   0  0  0  0  0  0  0  0  0  0  0  0
  143.3570   73.1560  220.1710 C   0  0  0  0  0  0  0  0  0  0  0  0
  143.8140   74.4150  220.4680 C   0  0  0  0  0  0  0  0  0  0  0  0
  145.1780   74.7230  220.5400 C   0  0  0  0  0  0  0  0  0  0  0  0
  146.1330   73.7590  220.3120 C   0  0  0  0  0  0  0  0  0  0  0  0
  145.6910   72.4930  220.0130 C   0  0  0  0  0  0  0  0  0  0  0  0
  146.6490   71.4950  219.7780 O   0  0  0  0  0  0  0  0  0  0  0  0
  144.3390   72.1870  219.9420 C   0  0  0  0  0  0  0  0  0  0  0  0
  139.9800   77.2623  219.3773 H   0  0  0  0  0  0  0  0  0  0  0  0
  138.3801   78.7767  220.5345 H   0  0  0  0  0  0  0  0  0  0  0  0
  137.3438   78.0809  222.6600 H   0  0  0  0  0  0  0  0  0  0  0  0
  137.8751   75.8674  223.6828 H   0  0  0  0  0  0  0  0  0  0  0  0
  141.6530   71.5565  222.4094 H   0  0  0  0  0  0  0  0  0  0  0  0
  138.8038   71.3932  223.0962 H   0  0  0  0  0  0  0  0  0  0  0  0
  141.1335   72.8989  225.4306 H   0  0  0  0  0  0  0  0  0  0  0  0
  141.6277   72.0970  227.6974 H   0  0  0  0  0  0  0  0  0  0  0  0
  140.9373   69.8144  228.4236 H   0  0  0  0  0  0  0  0  0  0  0  0
  139.7364   68.3728  226.7878 H   0  0  0  0  0  0  0  0  0  0  0  0
  139.2453   69.1802  224.5233 H   0  0  0  0  0  0  0  0  0  0  0  0
  141.8111   71.7654  220.4865 H   0  0  0  0  0  0  0  0  0  0  0  0
  141.6570   72.8542  219.0127 H   0  0  0  0  0  0  0  0  0  0  0  0
  143.0808   75.2130  220.6568 H   0  0  0  0  0  0  0  0  0  0  0  0
  145.4903   75.7496  220.7821 H   0  0  0  0  0  0  0  0  0  0  0  0
  147.2065   73.9925  220.3669 H   0  0  0  0  0  0  0  0  0  0  0  0
  147.1240   71.0620  220.5550 H   0  0  0  0  0  0  0  0  0  0  0  0
  144.0329   71.1585  219.7000 H   0  0  0  0  0  0  0  0  0  0  0  0
  1  2  2  0
  2  3  1  0
  3  4  2  0
  4  5  1  0
  5  6  2  0
  6  7  1  0
  7  8  2  0
  8  9  1  0
  9 10  2  0
 10 11  1  0
 11 12  2  0
 12 13  1  0
 13 14  2  0
 14 15  1  0
 15 16  2  0
 16 17  1  0
 17 18  2  0
 10 19  1  0
 19 20  1  0
 20 21  1  0
 21 22  2  0
 22 23  1  0
 23 24  2  0
 24 25  1  0
 25 26  1  0
 25 27  2  0
 19  2  1  0
 27 21  1  0
  8  3  1  0
 18 13  1  0
  4 28  1  0
  5 29  1  0
  6 30  1  0
  7 31  1  0
 11 32  1  0
 12 33  1  0
 14 34  1  0
 15 35  1  0
 16 36  1  0
 17 37  1  0
 18 38  1  0
 20 39  1  0
 20 40  1  0
 22 41  1  0
 23 42  1  0
 24 43  1  0
 26 44  1  0
 27 45  1  0
M  END
>  <smiles>  (50) 
O=c1c2ccccc2nc(/C=C/c2ccccc2)n1Cc1cccc(O)c1

>  <score_type>  (50) 
oracle

>  <origin>  (50) 
autodockgpu

>  <m_score__min__energy>  (50) 
-8.5899999999999999

>  <m_primary>  (50) 
energy

>  <rmsd>  (50) 
7.32423801874507

>  <m_score__min__rmsd>  (50) 
7.32423801874507

>  <meeko>  (50) 
{"free_energy": -7.39, "intermolecular_energy": -9.18, "internal_energy": -0.96, "cluster_size": 14, "cluster_id": 1, "rank_in_cluster": 13}

>  <energy>  (50) 
-6.1

>  <cluster_rmsd>  (50) 
0.0

>  <cluster>  (50) 
11

$$$$
