
     RDKit          3D

 48 50  0  0  0  0  0  0  0  0999 V2000
  138.4320   80.2550  224.2160 C   0  0  0  0  0  0  0  0  0  0  0  0
  138.1450   79.8810  222.8010 C   0  0  2  0  0  0  0  0  0  0  0  0
  138.0710   78.4410  222.6000 N   0  0  0  0  0  0  0  0  0  0  0  0
  136.9200   77.6840  222.9650 C   0  0  0  0  0  0  0  0  0  0  0  0
  135.9540   78.3190  223.4770 O   0  0  0  0  0  0  0  0  0  0  0  0
  136.8830   76.2090  222.7440 C   0  0  0  0  0  0  0  0  0  0  0  0
  138.2340   75.7960  222.4410 N   0  0  0  0  0  0  0  0  0  0  0  0
  138.8190   76.1950  221.2070 C   0  0  0  0  0  0  0  0  0  0  0  0
  138.2060   76.9010  220.3530 O   0  0  0  0  0  0  0  0  0  0  0  0
  140.1870   75.7700  220.9150 C   0  0  0  0  0  0  0  0  0  0  0  0
  141.1090   76.6570  220.3970 C   0  0  0  0  0  0  0  0  0  0  0  0
  142.4070   76.2920  220.1090 C   0  0  0  0  0  0  0  0  0  0  0  0
  142.7990   74.9920  220.3460 C   0  0  0  0  0  0  0  0  0  0  0  0
  144.0650   74.5180  220.0970 C   0  0  0  0  0  0  0  0  0  0  0  0
  144.4150   73.2310  220.3430 C   0  0  0  0  0  0  0  0  0  0  0  0
  146.0270   72.6270  220.0260 Cl  0  0  0  0  0  0  0  0  0  0  0  0
  143.4750   72.3430  220.8660 C   0  0  0  0  0  0  0  0  0  0  0  0
  142.1840   72.7780  221.1330 C   0  0  0  0  0  0  0  0  0  0  0  0
  141.8790   74.1040  220.8630 C   0  0  0  0  0  0  0  0  0  0  0  0
  140.6180   74.5080  221.1290 N   0  0  0  0  0  0  0  0  0  0  0  0
  139.1890   80.3860  221.8330 C   0  0  2  0  0  0  0  0  0  0  0  0
  139.2010   79.7060  220.6450 O   0  0  0  0  0  0  0  0  0  0  0  0
  140.4890   80.4340  222.5420 C   0  0  0  0  0  0  0  0  0  0  0  0
  140.9990   81.6290  223.0220 C   0  0  0  0  0  0  0  0  0  0  0  0
  142.2080   81.6280  223.6720 C   0  0  0  0  0  0  0  0  0  0  0  0
  142.9610   80.5100  223.8870 C   0  0  0  0  0  0  0  0  0  0  0  0
  142.4590   79.3070  223.4100 C   0  0  0  0  0  0  0  0  0  0  0  0
  141.2450   79.2990  222.7560 C   0  0  0  0  0  0  0  0  0  0  0  0
  137.9036   79.5664  224.8917 H   0  0  0  0  0  0  0  0  0  0  0  0
  139.5146   80.1904  224.4000 H   0  0  0  0  0  0  0  0  0  0  0  0
  138.0895   81.2840  224.4000 H   0  0  0  0  0  0  0  0  0  0  0  0
  137.1716   80.3533  222.6024 H   0  0  0  0  0  0  0  0  0  0  0  0
  138.8880   77.9320  222.1710 H   0  0  0  0  0  0  0  0  0  0  0  0
  136.5261   75.6994  223.6512 H   0  0  0  0  0  0  0  0  0  0  0  0
  136.1988   75.9510  221.9223 H   0  0  0  0  0  0  0  0  0  0  0  0
  138.7770   75.2190  223.1060 H   0  0  0  0  0  0  0  0  0  0  0  0
  140.7964   77.6943  220.2068 H   0  0  0  0  0  0  0  0  0  0  0  0
  143.1167   77.0248  219.6976 H   0  0  0  0  0  0  0  0  0  0  0  0
  144.8188   75.2049  219.6848 H   0  0  0  0  0  0  0  0  0  0  0  0
  143.7565   71.2987  221.0667 H   0  0  0  0  0  0  0  0  0  0  0  0
  141.4278   72.0937  221.5451 H   0  0  0  0  0  0  0  0  0  0  0  0
  138.9393   81.4078  221.5112 H   0  0  0  0  0  0  0  0  0  0  0  0
  138.4890   79.0300  220.5510 H   0  0  0  0  0  0  0  0  0  0  0  0
  140.4419   82.5674  222.8840 H   0  0  0  0  0  0  0  0  0  0  0  0
  142.5944   82.5888  224.0430 H   0  0  0  0  0  0  0  0  0  0  0  0
  143.9244   80.5602  224.4156 H   0  0  0  0  0  0  0  0  0  0  0  0
  143.0220   78.3727  223.5518 H   0  0  0  0  0  0  0  0  0  0  0  0
  140.8588   78.3380  222.3855 H   0  0  0  0  0  0  0  0  0  0  0  0
  1  2  1  0
  2  3  1  0
  3  4  1  0
  4  5  2  0
  4  6  1  0
  6  7  1  0
  7  8  1  0
  8  9  2  0
  8 10  1  0
 10 11  2  0
 11 12  1  0
 12 13  2  0
 13 14  1  0
 14 15  2  0
 15 16  1  0
 15 17  1  0
 17 18  2  0
 18 19  1  0
 19 20  2  0
  2 21  1  0
 21 22  1  0
 21 23  1  0
 23 24  2  0
 24 25  1  0
 25 26  2  0
 26 27  1  0
 27 28  2  0
 20 10  1  0
 28 23  1  0
 19 13  1  0
  1 29  1  0
  1 30  1  0
  1 31  1  0
  2 32  1  6
  3 33  1  0
  6 34  1  0
  6 35  1  0
  7 36  1  0
 11 37  1  0
 12 38  1  0
 14 39  1  0
 17 40  1  0
 18 41  1  0
 21 42  1  6
 22 43  1  0
 24 44  1  0
 25 45  1  0
 26 46  1  0
 27 47  1  0
 28 48  1  0
M  END
>  <smiles>  (1) 
C[C@H](NC(=O)CNC(=O)c1ccc2cc(Cl)ccc2n1)[C@H](O)c1ccccc1

>  <score_type>  (1) 
oracle

>  <origin>  (1) 
autodockgpu

>  <m_score__min__energy>  (1) 
-8.8800000000000008

>  <m_primary>  (1) 
energy

>  <rmsd>  (1) 
5.384997212866147

>  <m_score__min__rmsd>  (1) 
5.384997212866147

>  <meeko>  (1) 
{"free_energy": -6.36, "intermolecular_energy": -8.44, "internal_energy": -3.37, "cluster_size": 1, "cluster_id": 6, "rank_in_cluster": 1}

>  <energy>  (1) 
-8.88

>  <cluster_rmsd>  (1) 
0.0

>  <cluster>  (1) 
1

$$$$

     RDKit          3D

 48 50  0  0  0  0  0  0  0  0999 V2000
  138.6410   77.0190  222.7100 C   0  0  0  0  0  0  0  0  0  0  0  0
  139.3160   76.7120  221.4160 C   0  0  2  0  0  0  0  0  0  0  0  0
  139.0460   75.3620  220.9430 N   0  0  0  0  0  0  0  0  0  0  0  0
  137.7200   74.8890  220.7220 C   0  0  0  0  0  0  0  0  0  0  0  0
  136.7750   75.6980  220.9550 O   0  0  0  0  0  0  0  0  0  0  0  0
  137.4830   73.4980  220.2380 C   0  0  0  0  0  0  0  0  0  0  0  0
  137.6850   72.6210  221.3680 N   0  0  0  0  0  0  0  0  0  0  0  0
  139.0020   72.4320  221.8700 C   0  0  0  0  0  0  0  0  0  0  0  0
  140.0160   73.0020  221.3690 O   0  0  0  0  0  0  0  0  0  0  0  0
  139.1910   71.5420  223.0130 C   0  0  0  0  0  0  0  0  0  0  0  0
  138.6140   70.2880  223.0390 C   0  0  0  0  0  0  0  0  0  0  0  0
  138.7710   69.4220  224.1000 C   0  0  0  0  0  0  0  0  0  0  0  0
  139.5320   69.8220  225.1770 C   0  0  0  0  0  0  0  0  0  0  0  0
  139.7550   69.0430  226.2870 C   0  0  0  0  0  0  0  0  0  0  0  0
  140.5110   69.4710  227.3290 C   0  0  0  0  0  0  0  0  0  0  0  0
  140.7960   68.4790  228.7430 Cl  0  0  0  0  0  0  0  0  0  0  0  0
  141.0890   70.7390  227.2940 C   0  0  0  0  0  0  0  0  0  0  0  0
  140.8910   71.5610  226.1920 C   0  0  0  0  0  0  0  0  0  0  0  0
  140.1100   71.0750  225.1530 C   0  0  0  0  0  0  0  0  0  0  0  0
  139.9270   71.8880  224.0920 N   0  0  0  0  0  0  0  0  0  0  0  0
  140.8190   76.8370  221.4900 C   0  0  2  0  0  0  0  0  0  0  0  0
  141.4310   75.7230  221.9980 O   0  0  0  0  0  0  0  0  0  0  0  0
  141.1420   78.1030  222.1890 C   0  0  0  0  0  0  0  0  0  0  0  0
  141.5280   78.1080  223.5190 C   0  0  0  0  0  0  0  0  0  0  0  0
  141.8180   79.3040  224.1280 C   0  0  0  0  0  0  0  0  0  0  0  0
  141.7530   80.5160  223.5040 C   0  0  0  0  0  0  0  0  0  0  0  0
  141.3680   80.5220  222.1710 C   0  0  0  0  0  0  0  0  0  0  0  0
  141.0750   79.3250  221.5520 C   0  0  0  0  0  0  0  0  0  0  0  0
  139.2941   76.7219  223.5438 H   0  0  0  0  0  0  0  0  0  0  0  0
  138.4374   78.0983  222.7703 H   0  0  0  0  0  0  0  0  0  0  0  0
  137.6937   76.4632  222.7703 H   0  0  0  0  0  0  0  0  0  0  0  0
  138.8984   77.4585  220.7244 H   0  0  0  0  0  0  0  0  0  0  0  0
  139.8470   74.7050  220.7550 H   0  0  0  0  0  0  0  0  0  0  0  0
  136.4544   73.3986  219.8611 H   0  0  0  0  0  0  0  0  0  0  0  0
  138.1681   73.2450  219.4155 H   0  0  0  0  0  0  0  0  0  0  0  0
  136.8890   72.1320  221.8120 H   0  0  0  0  0  0  0  0  0  0  0  0
  138.0058   69.9677  222.1803 H   0  0  0  0  0  0  0  0  0  0  0  0
  138.2972   68.4293  224.0872 H   0  0  0  0  0  0  0  0  0  0  0  0
  139.3059   68.0399  226.3320 H   0  0  0  0  0  0  0  0  0  0  0  0
  141.7014   71.0883  228.1384 H   0  0  0  0  0  0  0  0  0  0  0  0
  141.3388   72.5646  226.1444 H   0  0  0  0  0  0  0  0  0  0  0  0
  141.2410   76.8910  220.4756 H   0  0  0  0  0  0  0  0  0  0  0  0
  140.9000   74.8940  221.9320 H   0  0  0  0  0  0  0  0  0  0  0  0
  141.6014   77.1651  224.0808 H   0  0  0  0  0  0  0  0  0  0  0  0
  142.1217   79.2840  225.1851 H   0  0  0  0  0  0  0  0  0  0  0  0
  141.9955   81.4483  224.0351 H   0  0  0  0  0  0  0  0  0  0  0  0
  141.2974   81.4688  221.6154 H   0  0  0  0  0  0  0  0  0  0  0  0
  140.7719   79.3456  220.4948 H   0  0  0  0  0  0  0  0  0  0  0  0
  1  2  1  0
  2  3  1  0
  3  4  1  0
  4  5  2  0
  4  6  1  0
  6  7  1  0
  7  8  1  0
  8  9  2  0
  8 10  1  0
 10 11  2  0
 11 12  1  0
 12 13  2  0
 13 14  1  0
 14 15  2  0
 15 16  1  0
 15 17  1  0
 17 18  2  0
 18 19  1  0
 19 20  2  0
  2 21  1  0
 21 22  1  0
 21 23  1  0
 23 24  2  0
 24 25  1  0
 25 26  2  0
 26 27  1  0
 27 28  2  0
 20 10  1  0
 28 23  1  0
 19 13  1  0
  1 29  1  0
  1 30  1  0
  1 31  1  0
  2 32  1  6
  3 33  1  0
  6 34  1  0
  6 35  1  0
  7 36  1  0
 11 37  1  0
 12 38  1  0
 14 39  1  0
 17 40  1  0
 18 41  1  0
 21 42  1  6
 22 43  1  0
 24 44  1  0
 25 45  1  0
 26 46  1  0
 27 47  1  0
 28 48  1  0
M  END
>  <smiles>  (2) 
C[C@H](NC(=O)CNC(=O)c1ccc2cc(Cl)ccc2n1)[C@H](O)c1ccccc1

>  <score_type>  (2) 
oracle

>  <origin>  (2) 
autodockgpu

>  <m_score__min__energy>  (2) 
-8.8800000000000008

>  <m_primary>  (2) 
energy

>  <rmsd>  (2) 
4.392570105201979

>  <m_score__min__rmsd>  (2) 
4.392570105201979

>  <meeko>  (2) 
{"free_energy": -6.99, "intermolecular_energy": -9.07, "internal_energy": -3.05, "cluster_size": 37, "cluster_id": 1, "rank_in_cluster": 37}

>  <energy>  (2) 
-8.65

>  <cluster_rmsd>  (2) 
1.36

>  <cluster>  (2) 
1

$$$$

     RDKit          3D

 48 50  0  0  0  0  0  0  0  0999 V2000
  140.3660   71.1870  225.2090 C   0  0  0  0  0  0  0  0  0  0  0  0
  139.5590   70.2850  224.3370 C   0  0  2  0  0  0  0  0  0  0  0  0
  138.5560   70.9980  223.5600 N   0  0  0  0  0  0  0  0  0  0  0  0
  138.9010   72.0410  222.6530 C   0  0  0  0  0  0  0  0  0  0  0  0
  140.1290   72.3280  222.5470 O   0  0  0  0  0  0  0  0  0  0  0  0
  137.8430   72.7490  221.8750 C   0  0  0  0  0  0  0  0  0  0  0  0
  136.9360   73.3330  222.8360 N   0  0  0  0  0  0  0  0  0  0  0  0
  136.0130   72.4910  223.5160 C   0  0  0  0  0  0  0  0  0  0  0  0
  135.9470   71.2420  223.3180 O   0  0  0  0  0  0  0  0  0  0  0  0
  135.1010   73.0960  224.4860 C   0  0  0  0  0  0  0  0  0  0  0  0
  134.3190   72.3110  225.3090 C   0  0  0  0  0  0  0  0  0  0  0  0
  133.4490   72.8460  226.2350 C   0  0  0  0  0  0  0  0  0  0  0  0
  133.3560   74.2170  226.3430 C   0  0  0  0  0  0  0  0  0  0  0  0
  132.5240   74.8590  227.2290 C   0  0  0  0  0  0  0  0  0  0  0  0
  132.4580   76.2120  227.3070 C   0  0  0  0  0  0  0  0  0  0  0  0
  131.3990   77.0300  228.4350 Cl  0  0  0  0  0  0  0  0  0  0  0  0
  133.2520   76.9960  226.4710 C   0  0  0  0  0  0  0  0  0  0  0  0
  134.1080   76.3910  225.5600 C   0  0  0  0  0  0  0  0  0  0  0  0
  134.1370   75.0030  225.5210 C   0  0  0  0  0  0  0  0  0  0  0  0
  134.9740   74.4330  224.6290 N   0  0  0  0  0  0  0  0  0  0  0  0
  138.8150   69.2250  225.1130 C   0  0  2  0  0  0  0  0  0  0  0  0
  137.4970   69.5320  225.3210 O   0  0  0  0  0  0  0  0  0  0  0  0
  139.5900   68.9220  226.3390 C   0  0  0  0  0  0  0  0  0  0  0  0
  140.6680   68.0520  226.3070 C   0  0  0  0  0  0  0  0  0  0  0  0
  141.3580   67.7980  227.4660 C   0  0  0  0  0  0  0  0  0  0  0  0
  141.0530   68.3540  228.6760 C   0  0  0  0  0  0  0  0  0  0  0  0
  139.9750   69.2270  228.7180 C   0  0  0  0  0  0  0  0  0  0  0  0
  139.2770   69.4870  227.5580 C   0  0  0  0  0  0  0  0  0  0  0  0
  140.1601   70.9569  226.2648 H   0  0  0  0  0  0  0  0  0  0  0  0
  141.4358   71.0358  225.0026 H   0  0  0  0  0  0  0  0  0  0  0  0
  140.0971   72.2335  225.0026 H   0  0  0  0  0  0  0  0  0  0  0  0
  140.3090   69.8258  223.6763 H   0  0  0  0  0  0  0  0  0  0  0  0
  137.5390   70.7430  223.6640 H   0  0  0  0  0  0  0  0  0  0  0  0
  138.2937   73.5364  221.2531 H   0  0  0  0  0  0  0  0  0  0  0  0
  137.3143   72.0540  221.2061 H   0  0  0  0  0  0  0  0  0  0  0  0
  136.9500   74.3480  223.0350 H   0  0  0  0  0  0  0  0  0  0  0  0
  134.3928   71.2169  225.2228 H   0  0  0  0  0  0  0  0  0  0  0  0
  132.8404   72.1910  226.8757 H   0  0  0  0  0  0  0  0  0  0  0  0
  131.8909   74.2561  227.8967 H   0  0  0  0  0  0  0  0  0  0  0  0
  133.2004   78.0930  226.5330 H   0  0  0  0  0  0  0  0  0  0  0  0
  134.7422   76.9914  224.8913 H   0  0  0  0  0  0  0  0  0  0  0  0
  138.7470   68.3022  224.5181 H   0  0  0  0  0  0  0  0  0  0  0  0
  136.9920   69.7550  224.5040 H   0  0  0  0  0  0  0  0  0  0  0  0
  140.9672   67.5708  225.3642 H   0  0  0  0  0  0  0  0  0  0  0  0
  142.2096   67.1035  227.4175 H   0  0  0  0  0  0  0  0  0  0  0  0
  141.6368   68.1198  229.5784 H   0  0  0  0  0  0  0  0  0  0  0  0
  139.6815   69.7051  229.6642 H   0  0  0  0  0  0  0  0  0  0  0  0
  138.4255   70.1817  227.6070 H   0  0  0  0  0  0  0  0  0  0  0  0
  1  2  1  0
  2  3  1  0
  3  4  1  0
  4  5  2  0
  4  6  1  0
  6  7  1  0
  7  8  1  0
  8  9  2  0
  8 10  1  0
 10 11  2  0
 11 12  1  0
 12 13  2  0
 13 14  1  0
 14 15  2  0
 15 16  1  0
 15 17  1  0
 17 18  2  0
 18 19  1  0
 19 20  2  0
  2 21  1  0
 21 22  1  0
 21 23  1  0
 23 24  2  0
 24 25  1  0
 25 26  2  0
 26 27  1  0
 27 28  2  0
 20 10  1  0
 28 23  1  0
 19 13  1  0
  1 29  1  0
  1 30  1  0
  1 31  1  0
  2 32  1  6
  3 33  1  0
  6 34  1  0
  6 35  1  0
  7 36  1  0
 11 37  1  0
 12 38  1  0
 14 39  1  0
 17 40  1  0
 18 41  1  0
 21 42  1  6
 22 43  1  0
 24 44  1  0
 25 45  1  0
 26 46  1  0
 27 47  1  0
 28 48  1  0
M  END
>  <smiles>  (3) 
C[C@H](NC(=O)CNC(=O)c1ccc2cc(Cl)ccc2n1)[C@H](O)c1ccccc1

>  <score_type>  (3) 
oracle

>  <origin>  (3) 
autodockgpu

>  <m_score__min__energy>  (3) 
-8.8800000000000008

>  <m_primary>  (3) 
energy

>  <rmsd>  (3) 
10.18769327157162

>  <m_score__min__rmsd>  (3) 
10.18769327157162

>  <meeko>  (3) 
{"free_energy": -6.88, "intermolecular_energy": -8.96, "internal_energy": -3.39, "cluster_size": 5, "cluster_id": 5, "rank_in_cluster": 4}

>  <energy>  (3) 
-8.64

>  <cluster_rmsd>  (3) 
1.29

>  <cluster>  (3) 
1

$$$$

     RDKit          3D

 48 50  0  0  0  0  0  0  0  0999 V2000
  141.3840   78.1080  220.3330 C   0  0  0  0  0  0  0  0  0  0  0  0
  141.4220   76.9650  221.2910 C   0  0  2  0  0  0  0  0  0  0  0  0
  140.6890   75.8020  220.8120 N   0  0  0  0  0  0  0  0  0  0  0  0
  141.3390   74.7090  220.1700 C   0  0  0  0  0  0  0  0  0  0  0  0
  142.5940   74.7900  220.0290 O   0  0  0  0  0  0  0  0  0  0  0  0
  140.5530   73.5350  219.6930 C   0  0  0  0  0  0  0  0  0  0  0  0
  140.5730   72.5570  220.7560 N   0  0  0  0  0  0  0  0  0  0  0  0
  140.0590   72.9150  222.0340 C   0  0  0  0  0  0  0  0  0  0  0  0
  139.5800   74.0600  222.2850 O   0  0  0  0  0  0  0  0  0  0  0  0
  140.0850   71.9160  223.1010 C   0  0  0  0  0  0  0  0  0  0  0  0
  139.6400   70.6280  222.8760 C   0  0  0  0  0  0  0  0  0  0  0  0
  139.6500   69.6600  223.8580 C   0  0  0  0  0  0  0  0  0  0  0  0
  140.1200   69.9900  225.1110 C   0  0  0  0  0  0  0  0  0  0  0  0
  140.1760   69.1070  226.1630 C   0  0  0  0  0  0  0  0  0  0  0  0
  140.6450   69.4680  227.3840 C   0  0  0  0  0  0  0  0  0  0  0  0
  140.7160   68.3450  228.7240 Cl  0  0  0  0  0  0  0  0  0  0  0  0
  141.0910   70.7710  227.6000 C   0  0  0  0  0  0  0  0  0  0  0  0
  141.0540   71.6970  226.5650 C   0  0  0  0  0  0  0  0  0  0  0  0
  140.5650   71.2760  225.3370 C   0  0  0  0  0  0  0  0  0  0  0  0
  140.5350   72.1900  224.3440 N   0  0  0  0  0  0  0  0  0  0  0  0
  140.8350   77.3060  222.6400 C   0  0  2  0  0  0  0  0  0  0  0  0
  139.4960   77.0360  222.7310 O   0  0  0  0  0  0  0  0  0  0  0  0
  141.2180   78.6980  222.9700 C   0  0  0  0  0  0  0  0  0  0  0  0
  140.2580   79.6820  223.1460 C   0  0  0  0  0  0  0  0  0  0  0  0
  140.6560   80.9590  223.4510 C   0  0  0  0  0  0  0  0  0  0  0  0
  141.9590   81.3400  223.5990 C   0  0  0  0  0  0  0  0  0  0  0  0
  142.9280   80.3620  223.4250 C   0  0  0  0  0  0  0  0  0  0  0  0
  142.5360   79.0770  223.1190 C   0  0  0  0  0  0  0  0  0  0  0  0
  141.3525   79.0545  220.8926 H   0  0  0  0  0  0  0  0  0  0  0  0
  142.2834   78.0860  219.7000 H   0  0  0  0  0  0  0  0  0  0  0  0
  140.4881   78.0263  219.7000 H   0  0  0  0  0  0  0  0  0  0  0  0
  142.4947   76.7393  221.3821 H   0  0  0  0  0  0  0  0  0  0  0  0
  139.6440   75.7560  220.9400 H   0  0  0  0  0  0  0  0  0  0  0  0
  139.5176   73.8361  219.4754 H   0  0  0  0  0  0  0  0  0  0  0  0
  140.9840   73.1215  218.7693 H   0  0  0  0  0  0  0  0  0  0  0  0
  140.9530   71.6080  220.6020 H   0  0  0  0  0  0  0  0  0  0  0  0
  139.2637   70.3646  221.8765 H   0  0  0  0  0  0  0  0  0  0  0  0
  139.2894   68.6428  223.6452 H   0  0  0  0  0  0  0  0  0  0  0  0
  139.8294   68.0743  226.0100 H   0  0  0  0  0  0  0  0  0  0  0  0
  141.4719   71.0657  228.5890 H   0  0  0  0  0  0  0  0  0  0  0  0
  141.4011   72.7301  226.7144 H   0  0  0  0  0  0  0  0  0  0  0  0
  141.2576   76.6456  223.4116 H   0  0  0  0  0  0  0  0  0  0  0  0
  139.2780   76.0940  222.9290 H   0  0  0  0  0  0  0  0  0  0  0  0
  139.1895   79.4419  223.0423 H   0  0  0  0  0  0  0  0  0  0  0  0
  139.8768   81.7238  223.5847 H   0  0  0  0  0  0  0  0  0  0  0  0
  142.2289   82.3775  223.8455 H   0  0  0  0  0  0  0  0  0  0  0  0
  143.9947   80.6093  223.5300 H   0  0  0  0  0  0  0  0  0  0  0  0
  143.3157   78.3125  222.9864 H   0  0  0  0  0  0  0  0  0  0  0  0
  1  2  1  0
  2  3  1  0
  3  4  1  0
  4  5  2  0
  4  6  1  0
  6  7  1  0
  7  8  1  0
  8  9  2  0
  8 10  1  0
 10 11  2  0
 11 12  1  0
 12 13  2  0
 13 14  1  0
 14 15  2  0
 15 16  1  0
 15 17  1  0
 17 18  2  0
 18 19  1  0
 19 20  2  0
  2 21  1  0
 21 22  1  0
 21 23  1  0
 23 24  2  0
 24 25  1  0
 25 26  2  0
 26 27  1  0
 27 28  2  0
 20 10  1  0
 28 23  1  0
 19 13  1  0
  1 29  1  0
  1 30  1  0
  1 31  1  0
  2 32  1  1
  3 33  1  0
  6 34  1  0
  6 35  1  0
  7 36  1  0
 11 37  1  0
 12 38  1  0
 14 39  1  0
 17 40  1  0
 18 41  1  0
 21 42  1  1
 22 43  1  0
 24 44  1  0
 25 45  1  0
 26 46  1  0
 27 47  1  0
 28 48  1  0
M  END
>  <smiles>  (4) 
C[C@H](NC(=O)CNC(=O)c1ccc2cc(Cl)ccc2n1)[C@H](O)c1ccccc1

>  <score_type>  (4) 
oracle

>  <origin>  (4) 
autodockgpu

>  <m_score__min__energy>  (4) 
-8.8800000000000008

>  <m_primary>  (4) 
energy

>  <rmsd>  (4) 
3.8368063406574797

>  <m_score__min__rmsd>  (4) 
3.8368063406574797

>  <meeko>  (4) 
{"free_energy": -8.36, "intermolecular_energy": -10.44, "internal_energy": -3.02, "cluster_size": 37, "cluster_id": 1, "rank_in_cluster": 11}

>  <energy>  (4) 
-8.64

>  <cluster_rmsd>  (4) 
1.35

>  <cluster>  (4) 
1

$$$$

     RDKit          3D

 48 50  0  0  0  0  0  0  0  0999 V2000
  140.5240   71.3270  225.4870 C   0  0  0  0  0  0  0  0  0  0  0  0
  139.8780   70.5030  224.4250 C   0  0  2  0  0  0  0  0  0  0  0  0
  138.8910   71.2450  223.6540 N   0  0  0  0  0  0  0  0  0  0  0  0
  139.2380   71.9640  222.4730 C   0  0  0  0  0  0  0  0  0  0  0  0
  140.4510   71.9320  222.1160 O   0  0  0  0  0  0  0  0  0  0  0  0
  138.1970   72.7140  221.7110 C   0  0  0  0  0  0  0  0  0  0  0  0
  137.2770   73.2590  222.6830 N   0  0  0  0  0  0  0  0  0  0  0  0
  136.2970   72.4050  223.2610 C   0  0  0  0  0  0  0  0  0  0  0  0
  136.1920   71.1790  222.9630 O   0  0  0  0  0  0  0  0  0  0  0  0
  135.3730   72.9710  224.2430 C   0  0  0  0  0  0  0  0  0  0  0  0
  134.5670   72.1530  225.0110 C   0  0  0  0  0  0  0  0  0  0  0  0
  133.6850   72.6510  225.9450 C   0  0  0  0  0  0  0  0  0  0  0  0
  133.6020   74.0160  226.1200 C   0  0  0  0  0  0  0  0  0  0  0  0
  132.7590   74.6210  227.0220 C   0  0  0  0  0  0  0  0  0  0  0  0
  132.7050   75.9690  227.1670 C   0  0  0  0  0  0  0  0  0  0  0  0
  131.6320   76.7400  228.3140 Cl  0  0  0  0  0  0  0  0  0  0  0  0
  133.5230   76.7850  226.3860 C   0  0  0  0  0  0  0  0  0  0  0  0
  134.3900   76.2170  225.4620 C   0  0  0  0  0  0  0  0  0  0  0  0
  134.4060   74.8340  225.3540 C   0  0  0  0  0  0  0  0  0  0  0  0
  135.2550   74.3000  224.4510 N   0  0  0  0  0  0  0  0  0  0  0  0
  139.1600   69.2930  224.9720 C   0  0  2  0  0  0  0  0  0  0  0  0
  137.7980   69.4350  224.9940 O   0  0  0  0  0  0  0  0  0  0  0  0
  139.7740   68.9410  226.2730 C   0  0  0  0  0  0  0  0  0  0  0  0
  140.8610   68.0850  226.3440 C   0  0  0  0  0  0  0  0  0  0  0  0
  141.3990   67.7850  227.5700 C   0  0  0  0  0  0  0  0  0  0  0  0
  140.9330   68.2820  228.7530 C   0  0  0  0  0  0  0  0  0  0  0  0
  139.8450   69.1410  228.6930 C   0  0  0  0  0  0  0  0  0  0  0  0
  139.2980   69.4480  227.4650 C   0  0  0  0  0  0  0  0  0  0  0  0
  140.2272   70.9484  226.4762 H   0  0  0  0  0  0  0  0  0  0  0  0
  141.6175   71.2661  225.3840 H   0  0  0  0  0  0  0  0  0  0  0  0
  140.2038   72.3743  225.3840 H   0  0  0  0  0  0  0  0  0  0  0  0
  140.7210   70.1980  223.7875 H   0  0  0  0  0  0  0  0  0  0  0  0
  137.8870   71.2580  223.9700 H   0  0  0  0  0  0  0  0  0  0  0  0
  138.6626   73.5264  221.1337 H   0  0  0  0  0  0  0  0  0  0  0  0
  137.6757   72.0539  221.0021 H   0  0  0  0  0  0  0  0  0  0  0  0
  137.3220   74.2540  222.9610 H   0  0  0  0  0  0  0  0  0  0  0  0
  134.6318   71.0638  224.8717 H   0  0  0  0  0  0  0  0  0  0  0  0
  133.0580   71.9713  226.5407 H   0  0  0  0  0  0  0  0  0  0  0  0
  132.1073   73.9920  227.6462 H   0  0  0  0  0  0  0  0  0  0  0  0
  133.4814   77.8781  226.5019 H   0  0  0  0  0  0  0  0  0  0  0  0
  135.0428   76.8432  224.8361 H   0  0  0  0  0  0  0  0  0  0  0  0
  139.2934   68.4392  224.2914 H   0  0  0  0  0  0  0  0  0  0  0  0
  137.4100   69.8080  224.1680 H   0  0  0  0  0  0  0  0  0  0  0  0
  141.2879   67.6508  225.4279 H   0  0  0  0  0  0  0  0  0  0  0  0
  142.2599   67.1010  227.6017 H   0  0  0  0  0  0  0  0  0  0  0  0
  141.3998   68.0132  229.7121 H   0  0  0  0  0  0  0  0  0  0  0  0
  139.4241   69.5717  229.6135 H   0  0  0  0  0  0  0  0  0  0  0  0
  138.4375   70.1326  227.4339 H   0  0  0  0  0  0  0  0  0  0  0  0
  1  2  1  0
  2  3  1  0
  3  4  1  0
  4  5  2  0
  4  6  1  0
  6  7  1  0
  7  8  1  0
  8  9  2  0
  8 10  1  0
 10 11  2  0
 11 12  1  0
 12 13  2  0
 13 14  1  0
 14 15  2  0
 15 16  1  0
 15 17  1  0
 17 18  2  0
 18 19  1  0
 19 20  2  0
  2 21  1  0
 21 22  1  0
 21 23  1  0
 23 24  2  0
 24 25  1  0
 25 26  2  0
 26 27  1  0
 27 28  2  0
 20 10  1  0
 28 23  1  0
 19 13  1  0
  1 29  1  0
  1 30  1  0
  1 31  1  0
  2 32  1  6
  3 33  1  0
  6 34  1  0
  6 35  1  0
  7 36  1  0
 11 37  1  0
 12 38  1  0
 14 39  1  0
 17 40  1  0
 18 41  1  0
 21 42  1  6
 22 43  1  0
 24 44  1  0
 25 45  1  0
 26 46  1  0
 27 47  1  0
 28 48  1  0
M  END
>  <smiles>  (5) 
C[C@H](NC(=O)CNC(=O)c1ccc2cc(Cl)ccc2n1)[C@H](O)c1ccccc1

>  <score_type>  (5) 
oracle

>  <origin>  (5) 
autodockgpu

>  <m_score__min__energy>  (5) 
-8.8800000000000008

>  <m_primary>  (5) 
energy

>  <rmsd>  (5) 
10.072859347803686

>  <m_score__min__rmsd>  (5) 
10.072859347803686

>  <meeko>  (5) 
{"free_energy": -6.86, "intermolecular_energy": -8.95, "internal_energy": -3.29, "cluster_size": 5, "cluster_id": 5, "rank_in_cluster": 5}

>  <energy>  (5) 
-8.63

>  <cluster_rmsd>  (5) 
1.31

>  <cluster>  (5) 
1

$$$$

     RDKit          3D

 48 50  0  0  0  0  0  0  0  0999 V2000
  138.5160   77.0130  222.7070 C   0  0  0  0  0  0  0  0  0  0  0  0
  138.9570   76.1250  221.5920 C   0  0  2  0  0  0  0  0  0  0  0  0
  138.4680   74.7610  221.7270 N   0  0  0  0  0  0  0  0  0  0  0  0
  137.1140   74.4120  221.4510 C   0  0  0  0  0  0  0  0  0  0  0  0
  136.3450   75.3450  221.0800 O   0  0  0  0  0  0  0  0  0  0  0  0
  136.6500   73.0030  221.6020 C   0  0  0  0  0  0  0  0  0  0  0  0
  137.3260   72.4600  222.7580 N   0  0  0  0  0  0  0  0  0  0  0  0
  138.6330   71.9210  222.6050 C   0  0  0  0  0  0  0  0  0  0  0  0
  139.2390   71.8940  221.4930 O   0  0  0  0  0  0  0  0  0  0  0  0
  139.3050   71.3760  223.7830 C   0  0  0  0  0  0  0  0  0  0  0  0
  140.4070   72.0060  224.3250 C   0  0  0  0  0  0  0  0  0  0  0  0
  141.0660   71.5210  225.4350 C   0  0  0  0  0  0  0  0  0  0  0  0
  140.6070   70.3620  226.0260 C   0  0  0  0  0  0  0  0  0  0  0  0
  141.1850   69.7890  227.1340 C   0  0  0  0  0  0  0  0  0  0  0  0
  140.7050   68.6480  227.6880 C   0  0  0  0  0  0  0  0  0  0  0  0
  141.4400   67.9170  229.0990 Cl  0  0  0  0  0  0  0  0  0  0  0  0
  139.5920   68.0190  227.1320 C   0  0  0  0  0  0  0  0  0  0  0  0
  138.9760   68.5630  226.0130 C   0  0  0  0  0  0  0  0  0  0  0  0
  139.5060   69.7320  225.4850 C   0  0  0  0  0  0  0  0  0  0  0  0
  138.8950   70.2440  224.3970 N   0  0  0  0  0  0  0  0  0  0  0  0
  140.4590   76.0230  221.4790 C   0  0  2  0  0  0  0  0  0  0  0  0
  140.9750   74.9150  222.0970 O   0  0  0  0  0  0  0  0  0  0  0  0
  141.0440   77.3130  221.9150 C   0  0  0  0  0  0  0  0  0  0  0  0
  141.2280   78.3540  221.0200 C   0  0  0  0  0  0  0  0  0  0  0  0
  141.7740   79.5320  221.4650 C   0  0  0  0  0  0  0  0  0  0  0  0
  142.1540   79.7590  222.7570 C   0  0  0  0  0  0  0  0  0  0  0  0
  141.9730   78.7220  223.6610 C   0  0  0  0  0  0  0  0  0  0  0  0
  141.4260   77.5360  223.2220 C   0  0  0  0  0  0  0  0  0  0  0  0
  138.7523   76.5371  223.6701 H   0  0  0  0  0  0  0  0  0  0  0  0
  139.0397   77.9778  222.6364 H   0  0  0  0  0  0  0  0  0  0  0  0
  137.4309   77.1788  222.6364 H   0  0  0  0  0  0  0  0  0  0  0  0
  138.5323   76.6039  220.6974 H   0  0  0  0  0  0  0  0  0  0  0  0
  139.1260   74.0000  222.0380 H   0  0  0  0  0  0  0  0  0  0  0  0
  135.5609   72.9777  221.7542 H   0  0  0  0  0  0  0  0  0  0  0  0
  136.8773   72.4149  220.7007 H   0  0  0  0  0  0  0  0  0  0  0  0
  136.8740   72.4590  223.6890 H   0  0  0  0  0  0  0  0  0  0  0  0
  140.7734   72.9299  223.8537 H   0  0  0  0  0  0  0  0  0  0  0  0
  141.9414   72.0485  225.8417 H   0  0  0  0  0  0  0  0  0  0  0  0
  142.0646   70.2712  227.5854 H   0  0  0  0  0  0  0  0  0  0  0  0
  139.2023   67.0927  227.5794 H   0  0  0  0  0  0  0  0  0  0  0  0
  138.0963   68.0830  225.5595 H   0  0  0  0  0  0  0  0  0  0  0  0
  140.7448   75.8580  220.4297 H   0  0  0  0  0  0  0  0  0  0  0  0
  140.6210   74.0560  221.7650 H   0  0  0  0  0  0  0  0  0  0  0  0
  140.9398   78.2380  219.9648 H   0  0  0  0  0  0  0  0  0  0  0  0
  141.9142   80.3436  220.7358 H   0  0  0  0  0  0  0  0  0  0  0  0
  142.5849   80.7223  223.0675 H   0  0  0  0  0  0  0  0  0  0  0  0
  142.2626   78.8452  224.7150 H   0  0  0  0  0  0  0  0  0  0  0  0
  141.2865   76.7246  223.9515 H   0  0  0  0  0  0  0  0  0  0  0  0
  1  2  1  0
  2  3  1  0
  3  4  1  0
  4  5  2  0
  4  6  1  0
  6  7  1  0
  7  8  1  0
  8  9  2  0
  8 10  1  0
 10 11  2  0
 11 12  1  0
 12 13  2  0
 13 14  1  0
 14 15  2  0
 15 16  1  0
 15 17  1  0
 17 18  2  0
 18 19  1  0
 19 20  2  0
  2 21  1  0
 21 22  1  0
 21 23  1  0
 23 24  2  0
 24 25  1  0
 25 26  2  0
 26 27  1  0
 27 28  2  0
 20 10  1  0
 28 23  1  0
 19 13  1  0
  1 29  1  0
  1 30  1  0
  1 31  1  0
  2 32  1  6
  3 33  1  0
  6 34  1  0
  6 35  1  0
  7 36  1  0
 11 37  1  0
 12 38  1  0
 14 39  1  0
 17 40  1  0
 18 41  1  0
 21 42  1  6
 22 43  1  0
 24 44  1  0
 25 45  1  0
 26 46  1  0
 27 47  1  0
 28 48  1  0
M  END
>  <smiles>  (6) 
C[C@H](NC(=O)CNC(=O)c1ccc2cc(Cl)ccc2n1)[C@H](O)c1ccccc1

>  <score_type>  (6) 
oracle

>  <origin>  (6) 
autodockgpu

>  <m_score__min__energy>  (6) 
-8.8800000000000008

>  <m_primary>  (6) 
energy

>  <rmsd>  (6) 
4.431710467313214

>  <m_score__min__rmsd>  (6) 
4.431710467313214

>  <meeko>  (6) 
{"free_energy": -7.23, "intermolecular_energy": -9.32, "internal_energy": -2.79, "cluster_size": 37, "cluster_id": 1, "rank_in_cluster": 36}

>  <energy>  (6) 
-8.6

>  <cluster_rmsd>  (6) 
1.29

>  <cluster>  (6) 
1

$$$$

     RDKit          3D

 48 50  0  0  0  0  0  0  0  0999 V2000
  142.5090   76.3260  217.9570 C   0  0  0  0  0  0  0  0  0  0  0  0
  142.4380   75.1260  218.8390 C   0  0  2  0  0  0  0  0  0  0  0  0
  141.1220   74.9350  219.4300 N   0  0  0  0  0  0  0  0  0  0  0  0
  140.6840   75.6850  220.5600 C   0  0  0  0  0  0  0  0  0  0  0  0
  141.4930   76.5340  221.0350 O   0  0  0  0  0  0  0  0  0  0  0  0
  139.3270   75.4610  221.1380 C   0  0  0  0  0  0  0  0  0  0  0  0
  139.4580   74.4100  222.1200 N   0  0  0  0  0  0  0  0  0  0  0  0
  139.6880   73.0770  221.6790 C   0  0  0  0  0  0  0  0  0  0  0  0
  139.7830   72.7650  220.4550 O   0  0  0  0  0  0  0  0  0  0  0  0
  139.8190   72.0230  222.6840 C   0  0  0  0  0  0  0  0  0  0  0  0
  139.4090   70.7320  222.4150 C   0  0  0  0  0  0  0  0  0  0  0  0
  139.5170   69.7140  223.3380 C   0  0  0  0  0  0  0  0  0  0  0  0
  140.0540   69.9940  224.5760 C   0  0  0  0  0  0  0  0  0  0  0  0
  140.2100   69.0580  225.5710 C   0  0  0  0  0  0  0  0  0  0  0  0
  140.7430   69.3710  226.7790 C   0  0  0  0  0  0  0  0  0  0  0  0
  140.9420   68.1800  228.0460 Cl  0  0  0  0  0  0  0  0  0  0  0  0
  141.1530   70.6780  227.0400 C   0  0  0  0  0  0  0  0  0  0  0  0
  141.0160   71.6560  226.0640 C   0  0  0  0  0  0  0  0  0  0  0  0
  140.4650   71.2830  224.8460 C   0  0  0  0  0  0  0  0  0  0  0  0
  140.3380   72.2470  223.9110 N   0  0  0  0  0  0  0  0  0  0  0  0
  143.4120   75.1810  219.9910 C   0  0  2  0  0  0  0  0  0  0  0  0
  144.0610   76.3820  220.0940 O   0  0  0  0  0  0  0  0  0  0  0  0
  144.2960   73.9950  219.9050 C   0  0  0  0  0  0  0  0  0  0  0  0
  144.0090   72.9500  219.0420 C   0  0  0  0  0  0  0  0  0  0  0  0
  144.8550   71.8700  218.9940 C   0  0  0  0  0  0  0  0  0  0  0  0
  145.9850   71.7490  219.7500 C   0  0  0  0  0  0  0  0  0  0  0  0
  146.2810   72.7900  220.6170 C   0  0  0  0  0  0  0  0  0  0  0  0
  145.4370   73.8790  220.6720 C   0  0  0  0  0  0  0  0  0  0  0  0
  142.5627   77.2335  218.5763 H   0  0  0  0  0  0  0  0  0  0  0  0
  143.4049   76.2618  217.3220 H   0  0  0  0  0  0  0  0  0  0  0  0
  141.6118   76.3679  217.3220 H   0  0  0  0  0  0  0  0  0  0  0  0
  142.6857   74.2946  218.1626 H   0  0  0  0  0  0  0  0  0  0  0  0
  140.4630   74.2240  219.0180 H   0  0  0  0  0  0  0  0  0  0  0  0
  138.9626   76.3822  221.6161 H   0  0  0  0  0  0  0  0  0  0  0  0
  138.6067   75.1811  220.3552 H   0  0  0  0  0  0  0  0  0  0  0  0
  139.3890   74.6120  223.1320 H   0  0  0  0  0  0  0  0  0  0  0  0
  138.9802   70.5077  221.4272 H   0  0  0  0  0  0  0  0  0  0  0  0
  139.1806   68.6963  223.0909 H   0  0  0  0  0  0  0  0  0  0  0  0
  139.8925   68.0220  225.3817 H   0  0  0  0  0  0  0  0  0  0  0  0
  141.5848   70.9341  228.0187 H   0  0  0  0  0  0  0  0  0  0  0  0
  141.3338   72.6925  226.2500 H   0  0  0  0  0  0  0  0  0  0  0  0
  142.8676   75.1293  220.9454 H   0  0  0  0  0  0  0  0  0  0  0  0
  143.5560   77.0840  220.5680 H   0  0  0  0  0  0  0  0  0  0  0  0
  143.1142   72.9852  218.4031 H   0  0  0  0  0  0  0  0  0  0  0  0
  144.6067   71.0509  218.3031 H   0  0  0  0  0  0  0  0  0  0  0  0
  146.6332   70.8635  219.6747 H   0  0  0  0  0  0  0  0  0  0  0  0
  147.1777   72.7476  221.2528 H   0  0  0  0  0  0  0  0  0  0  0  0
  145.6863   74.6976  221.3631 H   0  0  0  0  0  0  0  0  0  0  0  0
  1  2  1  0
  2  3  1  0
  3  4  1  0
  4  5  2  0
  4  6  1  0
  6  7  1  0
  7  8  1  0
  8  9  2  0
  8 10  1  0
 10 11  2  0
 11 12  1  0
 12 13  2  0
 13 14  1  0
 14 15  2  0
 15 16  1  0
 15 17  1  0
 17 18  2  0
 18 19  1  0
 19 20  2  0
  2 21  1  0
 21 22  1  0
 21 23  1  0
 23 24  2  0
 24 25  1  0
 25 26  2  0
 26 27  1  0
 27 28  2  0
 20 10  1  0
 28 23  1  0
 19 13  1  0
  1 29  1  0
  1 30  1  0
  1 31  1  0
  2 32  1  6
  3 33  1  0
  6 34  1  0
  6 35  1  0
  7 36  1  0
 11 37  1  0
 12 38  1  0
 14 39  1  0
 17 40  1  0
 18 41  1  0
 21 42  1  1
 22 43  1  0
 24 44  1  0
 25 45  1  0
 26 46  1  0
 27 47  1  0
 28 48  1  0
M  END
>  <smiles>  (7) 
C[C@H](NC(=O)CNC(=O)c1ccc2cc(Cl)ccc2n1)[C@H](O)c1ccccc1

>  <score_type>  (7) 
oracle

>  <origin>  (7) 
autodockgpu

>  <m_score__min__energy>  (7) 
-8.8800000000000008

>  <m_primary>  (7) 
energy

>  <rmsd>  (7) 
6.641012480263221

>  <m_score__min__rmsd>  (7) 
6.641012480263221

>  <meeko>  (7) 
{"free_energy": -7.59, "intermolecular_energy": -9.68, "internal_energy": -2.6, "cluster_size": 1, "cluster_id": 3, "rank_in_cluster": 1}

>  <energy>  (7) 
-8.6

>  <cluster_rmsd>  (7) 
1.3

>  <cluster>  (7) 
1

$$$$

     RDKit          3D

 48 50  0  0  0  0  0  0  0  0999 V2000
  140.5160   71.1480  225.2230 C   0  0  0  0  0  0  0  0  0  0  0  0
  139.8510   70.2580  224.2280 C   0  0  2  0  0  0  0  0  0  0  0  0
  138.8420   70.9470  223.4380 N   0  0  0  0  0  0  0  0  0  0  0  0
  139.1700   72.0230  222.5630 C   0  0  0  0  0  0  0  0  0  0  0  0
  140.3880   72.3610  222.5000 O   0  0  0  0  0  0  0  0  0  0  0  0
  138.1080   72.7050  221.7700 C   0  0  0  0  0  0  0  0  0  0  0  0
  137.1710   73.2650  222.7170 N   0  0  0  0  0  0  0  0  0  0  0  0
  136.2840   72.3930  223.4080 C   0  0  0  0  0  0  0  0  0  0  0  0
  136.2760   71.1390  223.2320 O   0  0  0  0  0  0  0  0  0  0  0  0
  135.3410   72.9720  224.3640 C   0  0  0  0  0  0  0  0  0  0  0  0
  134.5120   72.1670  225.1180 C   0  0  0  0  0  0  0  0  0  0  0  0
  133.6110   72.6780  226.0280 C   0  0  0  0  0  0  0  0  0  0  0  0
  133.5350   74.0450  226.1910 C   0  0  0  0  0  0  0  0  0  0  0  0
  132.6760   74.6630  227.0690 C   0  0  0  0  0  0  0  0  0  0  0  0
  132.6290   76.0130  227.2020 C   0  0  0  0  0  0  0  0  0  0  0  0
  131.5360   76.8010  228.3190 Cl  0  0  0  0  0  0  0  0  0  0  0  0
  133.4710   76.8170  226.4350 C   0  0  0  0  0  0  0  0  0  0  0  0
  134.3560   76.2350  225.5370 C   0  0  0  0  0  0  0  0  0  0  0  0
  134.3640   74.8510  225.4390 C   0  0  0  0  0  0  0  0  0  0  0  0
  135.2290   74.3040  224.5590 N   0  0  0  0  0  0  0  0  0  0  0  0
  139.1530   69.0800  224.8650 C   0  0  2  0  0  0  0  0  0  0  0  0
  137.7880   69.1880  224.8540 O   0  0  0  0  0  0  0  0  0  0  0  0
  139.7530   68.8550  226.2010 C   0  0  0  0  0  0  0  0  0  0  0  0
  139.2390   69.4740  227.3290 C   0  0  0  0  0  0  0  0  0  0  0  0
  139.8260   69.2390  228.5470 C   0  0  0  0  0  0  0  0  0  0  0  0
  140.9020   68.4200  228.7330 C   0  0  0  0  0  0  0  0  0  0  0  0
  141.4240   67.7950  227.6100 C   0  0  0  0  0  0  0  0  0  0  0  0
  140.8400   68.0260  226.3820 C   0  0  0  0  0  0  0  0  0  0  0  0
  140.2654   70.8125  226.2402 H   0  0  0  0  0  0  0  0  0  0  0  0
  141.6061   71.1063  225.0814 H   0  0  0  0  0  0  0  0  0  0  0  0
  140.1671   72.1815  225.0814 H   0  0  0  0  0  0  0  0  0  0  0  0
  140.6804   69.9188  223.5900 H   0  0  0  0  0  0  0  0  0  0  0  0
  137.8340   70.6490  223.5060 H   0  0  0  0  0  0  0  0  0  0  0  0
  138.5488   73.5044  221.1562 H   0  0  0  0  0  0  0  0  0  0  0  0
  137.6075   71.9978  221.0922 H   0  0  0  0  0  0  0  0  0  0  0  0
  137.1370   74.2820  222.8970 H   0  0  0  0  0  0  0  0  0  0  0  0
  134.5722   71.0763  224.9882 H   0  0  0  0  0  0  0  0  0  0  0  0
  132.9646   72.0074  226.6132 H   0  0  0  0  0  0  0  0  0  0  0  0
  132.0056   74.0437  227.6831 H   0  0  0  0  0  0  0  0  0  0  0  0
  133.4343   77.9113  226.5411 H   0  0  0  0  0  0  0  0  0  0  0  0
  135.0291   76.8514  224.9231 H   0  0  0  0  0  0  0  0  0  0  0  0
  139.3190   68.1755  224.2614 H   0  0  0  0  0  0  0  0  0  0  0  0
  137.4490   70.1070  224.7330 H   0  0  0  0  0  0  0  0  0  0  0  0
  138.3713   70.1454  227.2492 H   0  0  0  0  0  0  0  0  0  0  0  0
  139.4028   69.7423  229.4288 H   0  0  0  0  0  0  0  0  0  0  0  0
  141.3367   68.2623  229.7311 H   0  0  0  0  0  0  0  0  0  0  0  0
  142.2916   67.1245  227.6976 H   0  0  0  0  0  0  0  0  0  0  0  0
  141.2637   67.5224  225.5006 H   0  0  0  0  0  0  0  0  0  0  0  0
  1  2  1  0
  2  3  1  0
  3  4  1  0
  4  5  2  0
  4  6  1  0
  6  7  1  0
  7  8  1  0
  8  9  2  0
  8 10  1  0
 10 11  2  0
 11 12  1  0
 12 13  2  0
 13 14  1  0
 14 15  2  0
 15 16  1  0
 15 17  1  0
 17 18  2  0
 18 19  1  0
 19 20  2  0
  2 21  1  0
 21 22  1  0
 21 23  1  0
 23 24  2  0
 24 25  1  0
 25 26  2  0
 26 27  1  0
 27 28  2  0
 20 10  1  0
 28 23  1  0
 19 13  1  0
  1 29  1  0
  1 30  1  0
  1 31  1  0
  2 32  1  6
  3 33  1  0
  6 34  1  0
  6 35  1  0
  7 36  1  0
 11 37  1  0
 12 38  1  0
 14 39  1  0
 17 40  1  0
 18 41  1  0
 21 42  1  6
 22 43  1  0
 24 44  1  0
 25 45  1  0
 26 46  1  0
 27 47  1  0
 28 48  1  0
M  END
>  <smiles>  (8) 
C[C@H](NC(=O)CNC(=O)c1ccc2cc(Cl)ccc2n1)[C@H](O)c1ccccc1

>  <score_type>  (8) 
oracle

>  <origin>  (8) 
autodockgpu

>  <m_score__min__energy>  (8) 
-8.8800000000000008

>  <m_primary>  (8) 
energy

>  <rmsd>  (8) 
9.995070573681126

>  <m_score__min__rmsd>  (8) 
9.995070573681126

>  <meeko>  (8) 
{"free_energy": -6.9, "intermolecular_energy": -8.99, "internal_energy": -3.32, "cluster_size": 5, "cluster_id": 5, "rank_in_cluster": 3}

>  <energy>  (8) 
-8.58

>  <cluster_rmsd>  (8) 
1.32

>  <cluster>  (8) 
1

$$$$

     RDKit          3D

 48 50  0  0  0  0  0  0  0  0999 V2000
  138.9430   78.3900  222.3700 C   0  0  0  0  0  0  0  0  0  0  0  0
  139.4950   77.9540  221.0540 C   0  0  2  0  0  0  0  0  0  0  0  0
  139.1040   76.5990  220.6970 N   0  0  0  0  0  0  0  0  0  0  0  0
  139.2910   75.4980  221.5830 C   0  0  0  0  0  0  0  0  0  0  0  0
  139.8160   75.7490  222.7070 O   0  0  0  0  0  0  0  0  0  0  0  0
  138.8770   74.1230  221.1810 C   0  0  0  0  0  0  0  0  0  0  0  0
  139.1760   73.2520  222.2940 N   0  0  0  0  0  0  0  0  0  0  0  0
  138.9480   71.8550  222.1590 C   0  0  0  0  0  0  0  0  0  0  0  0
  138.4900   71.3330  221.1000 O   0  0  0  0  0  0  0  0  0  0  0  0
  139.2550   70.9850  223.2930 C   0  0  0  0  0  0  0  0  0  0  0  0
  138.9550   69.6380  223.2560 C   0  0  0  0  0  0  0  0  0  0  0  0
  139.2300   68.7890  224.3060 C   0  0  0  0  0  0  0  0  0  0  0  0
  139.8270   69.3030  225.4370 C   0  0  0  0  0  0  0  0  0  0  0  0
  140.1470   68.5500  226.5420 C   0  0  0  0  0  0  0  0  0  0  0  0
  140.7340   69.0920  227.6380 C   0  0  0  0  0  0  0  0  0  0  0  0
  141.1410   68.1340  229.0460 Cl  0  0  0  0  0  0  0  0  0  0  0  0
  141.0330   70.4540  227.6660 C   0  0  0  0  0  0  0  0  0  0  0  0
  140.7280   71.2520  226.5720 C   0  0  0  0  0  0  0  0  0  0  0  0
  140.1280   70.6490  225.4760 C   0  0  0  0  0  0  0  0  0  0  0  0
  139.8390   71.4420  224.4230 N   0  0  0  0  0  0  0  0  0  0  0  0
  141.0040   77.9810  221.0090 C   0  0  2  0  0  0  0  0  0  0  0  0
  141.5710   76.7400  221.1160 O   0  0  0  0  0  0  0  0  0  0  0  0
  141.4770   78.9740  222.0020 C   0  0  0  0  0  0  0  0  0  0  0  0
  141.7810   78.5990  223.3010 C   0  0  0  0  0  0  0  0  0  0  0  0
  142.2150   79.5510  224.1890 C   0  0  0  0  0  0  0  0  0  0  0  0
  142.3740   80.8710  223.8790 C   0  0  0  0  0  0  0  0  0  0  0  0
  142.0730   81.2570  222.5810 C   0  0  0  0  0  0  0  0  0  0  0  0
  141.6360   80.3070  221.6830 C   0  0  0  0  0  0  0  0  0  0  0  0
  139.5251   77.9302  223.1822 H   0  0  0  0  0  0  0  0  0  0  0  0
  139.0052   79.4854  222.4489 H   0  0  0  0  0  0  0  0  0  0  0  0
  137.8918   78.0758  222.4489 H   0  0  0  0  0  0  0  0  0  0  0  0
  139.0731   78.6808  220.3443 H   0  0  0  0  0  0  0  0  0  0  0  0
  138.6680   76.4130  219.7570 H   0  0  0  0  0  0  0  0  0  0  0  0
  137.7991   74.1012  220.9627 H   0  0  0  0  0  0  0  0  0  0  0  0
  139.4104   73.8006  220.2746 H   0  0  0  0  0  0  0  0  0  0  0  0
  139.5520   73.6290  223.1810 H   0  0  0  0  0  0  0  0  0  0  0  0
  138.4783   69.2267  222.3540 H   0  0  0  0  0  0  0  0  0  0  0  0
  138.9776   67.7202  224.2427 H   0  0  0  0  0  0  0  0  0  0  0  0
  139.9197   67.4738  226.5370 H   0  0  0  0  0  0  0  0  0  0  0  0
  141.5098   70.8951  228.5537 H   0  0  0  0  0  0  0  0  0  0  0  0
  140.9548   72.3284  226.5740 H   0  0  0  0  0  0  0  0  0  0  0  0
  141.3438   78.3063  220.0147 H   0  0  0  0  0  0  0  0  0  0  0  0
  141.7810   76.4610  222.0390 H   0  0  0  0  0  0  0  0  0  0  0  0
  141.6757   77.5505  223.6166 H   0  0  0  0  0  0  0  0  0  0  0  0
  142.4494   79.2305  225.2148 H   0  0  0  0  0  0  0  0  0  0  0  0
  142.7257   81.5974  224.6264 H   0  0  0  0  0  0  0  0  0  0  0  0
  142.1816   82.3073  222.2725 H   0  0  0  0  0  0  0  0  0  0  0  0
  141.4015   80.6286  220.6575 H   0  0  0  0  0  0  0  0  0  0  0  0
  1  2  1  0
  2  3  1  0
  3  4  1  0
  4  5  2  0
  4  6  1  0
  6  7  1  0
  7  8  1  0
  8  9  2  0
  8 10  1  0
 10 11  2  0
 11 12  1  0
 12 13  2  0
 13 14  1  0
 14 15  2  0
 15 16  1  0
 15 17  1  0
 17 18  2  0
 18 19  1  0
 19 20  2  0
  2 21  1  0
 21 22  1  0
 21 23  1  0
 23 24  2  0
 24 25  1  0
 25 26  2  0
 26 27  1  0
 27 28  2  0
 20 10  1  0
 28 23  1  0
 19 13  1  0
  1 29  1  0
  1 30  1  0
  1 31  1  0
  2 32  1  6
  3 33  1  0
  6 34  1  0
  6 35  1  0
  7 36  1  0
 11 37  1  0
 12 38  1  0
 14 39  1  0
 17 40  1  0
 18 41  1  0
 21 42  1  6
 22 43  1  0
 24 44  1  0
 25 45  1  0
 26 46  1  0
 27 47  1  0
 28 48  1  0
M  END
>  <smiles>  (9) 
C[C@H](NC(=O)CNC(=O)c1ccc2cc(Cl)ccc2n1)[C@H](O)c1ccccc1

>  <score_type>  (9) 
oracle

>  <origin>  (9) 
autodockgpu

>  <m_score__min__energy>  (9) 
-8.8800000000000008

>  <m_primary>  (9) 
energy

>  <rmsd>  (9) 
4.227200937689643

>  <m_score__min__rmsd>  (9) 
4.227200937689643

>  <meeko>  (9) 
{"free_energy": -8.65, "intermolecular_energy": -10.73, "internal_energy": -2.3, "cluster_size": 37, "cluster_id": 1, "rank_in_cluster": 2}

>  <energy>  (9) 
-8.46

>  <cluster_rmsd>  (9) 
1.23

>  <cluster>  (9) 
1

$$$$

     RDKit          3D

 48 50  0  0  0  0  0  0  0  0999 V2000
  138.4150   69.1330  224.4030 C   0  0  0  0  0  0  0  0  0  0  0  0
  138.5200   70.6200  224.4400 C   0  0  2  0  0  0  0  0  0  0  0  0
  138.7990   71.2000  223.1340 N   0  0  0  0  0  0  0  0  0  0  0  0
  137.7590   71.6220  222.2560 C   0  0  0  0  0  0  0  0  0  0  0  0
  136.5690   71.4720  222.6600 O   0  0  0  0  0  0  0  0  0  0  0  0
  138.0840   72.2120  220.9260 C   0  0  0  0  0  0  0  0  0  0  0  0
  138.2150   73.6380  221.1190 N   0  0  0  0  0  0  0  0  0  0  0  0
  139.3270   74.1360  221.8540 C   0  0  0  0  0  0  0  0  0  0  0  0
  140.2160   73.3820  222.3510 O   0  0  0  0  0  0  0  0  0  0  0  0
  139.4470   75.5810  222.0420 C   0  0  0  0  0  0  0  0  0  0  0  0
  138.4380   76.3030  222.6460 C   0  0  0  0  0  0  0  0  0  0  0  0
  138.5170   77.6660  222.8400 C   0  0  0  0  0  0  0  0  0  0  0  0
  139.6460   78.3330  222.4140 C   0  0  0  0  0  0  0  0  0  0  0  0
  139.8320   79.6870  222.5550 C   0  0  0  0  0  0  0  0  0  0  0  0
  140.9570   80.3100  222.1230 C   0  0  0  0  0  0  0  0  0  0  0  0
  141.1950   82.0350  222.3020 Cl  0  0  0  0  0  0  0  0  0  0  0  0
  141.9700   79.5710  221.5130 C   0  0  0  0  0  0  0  0  0  0  0  0
  141.8250   78.2000  221.3500 C   0  0  0  0  0  0  0  0  0  0  0  0
  140.6550   77.6120  221.8100 C   0  0  0  0  0  0  0  0  0  0  0  0
  140.5320   76.2790  221.6410 N   0  0  0  0  0  0  0  0  0  0  0  0
  139.6130   71.1110  225.3590 C   0  0  2  0  0  0  0  0  0  0  0  0
  140.6100   71.7840  224.7040 O   0  0  0  0  0  0  0  0  0  0  0  0
  140.0670   69.9690  226.1870 C   0  0  0  0  0  0  0  0  0  0  0  0
  139.5370   69.7440  227.4470 C   0  0  0  0  0  0  0  0  0  0  0  0
  139.9870   68.6740  228.1810 C   0  0  0  0  0  0  0  0  0  0  0  0
  140.9380   67.7960  227.7490 C   0  0  0  0  0  0  0  0  0  0  0  0
  141.4750   68.0130  226.4880 C   0  0  0  0  0  0  0  0  0  0  0  0
  141.0290   69.0850  225.7440 C   0  0  0  0  0  0  0  0  0  0  0  0
  138.3874   68.7417  225.4307 H   0  0  0  0  0  0  0  0  0  0  0  0
  137.4942   68.8435  223.8755 H   0  0  0  0  0  0  0  0  0  0  0  0
  139.2860   68.7169  223.8755 H   0  0  0  0  0  0  0  0  0  0  0  0
  137.5331   70.9397  224.8058 H   0  0  0  0  0  0  0  0  0  0  0  0
  139.7970   71.3170  222.8180 H   0  0  0  0  0  0  0  0  0  0  0  0
  139.0281   71.7934  220.5472 H   0  0  0  0  0  0  0  0  0  0  0  0
  137.2967   71.9851  220.1921 H   0  0  0  0  0  0  0  0  0  0  0  0
  137.5170   74.2950  220.7330 H   0  0  0  0  0  0  0  0  0  0  0  0
  137.5368   75.7713  222.9855 H   0  0  0  0  0  0  0  0  0  0  0  0
  137.6943   78.2112  223.3258 H   0  0  0  0  0  0  0  0  0  0  0  0
  139.0429   80.2854  223.0338 H   0  0  0  0  0  0  0  0  0  0  0  0
  142.8830   80.0738  221.1613 H   0  0  0  0  0  0  0  0  0  0  0  0
  142.6123   77.5989  220.8716 H   0  0  0  0  0  0  0  0  0  0  0  0
  139.2161   71.8836  226.0339 H   0  0  0  0  0  0  0  0  0  0  0  0
  140.3080   72.5720  224.1940 H   0  0  0  0  0  0  0  0  0  0  0  0
  138.7655   70.4139  227.8545 H   0  0  0  0  0  0  0  0  0  0  0  0
  139.5537   68.5148  229.1795 H   0  0  0  0  0  0  0  0  0  0  0  0
  141.2651   66.9519  228.3739 H   0  0  0  0  0  0  0  0  0  0  0  0
  142.2463   67.3388  226.0872 H   0  0  0  0  0  0  0  0  0  0  0  0
  141.4628   69.2434  224.7456 H   0  0  0  0  0  0  0  0  0  0  0  0
  1  2  1  0
  2  3  1  0
  3  4  1  0
  4  5  2  0
  4  6  1  0
  6  7  1  0
  7  8  1  0
  8  9  2  0
  8 10  1  0
 10 11  2  0
 11 12  1  0
 12 13  2  0
 13 14  1  0
 14 15  2  0
 15 16  1  0
 15 17  1  0
 17 18  2  0
 18 19  1  0
 19 20  2  0
  2 21  1  0
 21 22  1  0
 21 23  1  0
 23 24  2  0
 24 25  1  0
 25 26  2  0
 26 27  1  0
 27 28  2  0
 20 10  1  0
 28 23  1  0
 19 13  1  0
  1 29  1  0
  1 30  1  0
  1 31  1  0
  2 32  1  1
  3 33  1  0
  6 34  1  0
  6 35  1  0
  7 36  1  0
 11 37  1  0
 12 38  1  0
 14 39  1  0
 17 40  1  0
 18 41  1  0
 21 42  1  1
 22 43  1  0
 24 44  1  0
 25 45  1  0
 26 46  1  0
 27 47  1  0
 28 48  1  0
M  END
>  <smiles>  (10) 
C[C@H](NC(=O)CNC(=O)c1ccc2cc(Cl)ccc2n1)[C@H](O)c1ccccc1

>  <score_type>  (10) 
oracle

>  <origin>  (10) 
autodockgpu

>  <m_score__min__energy>  (10) 
-8.8800000000000008

>  <m_primary>  (10) 
energy

>  <rmsd>  (10) 
10.302396873747488

>  <m_score__min__rmsd>  (10) 
10.302396873747488

>  <meeko>  (10) 
{"free_energy": -7.14, "intermolecular_energy": -9.23, "internal_energy": -3.08, "cluster_size": 5, "cluster_id": 4, "rank_in_cluster": 5}

>  <energy>  (10) 
-8.36

>  <cluster_rmsd>  (10) 
1.57

>  <cluster>  (10) 
1

$$$$

     RDKit          3D

 48 50  0  0  0  0  0  0  0  0999 V2000
  141.4210   76.5120  221.0170 C   0  0  0  0  0  0  0  0  0  0  0  0
  140.5460   76.5330  222.2250 C   0  0  2  0  0  0  0  0  0  0  0  0
  139.6290   75.4050  222.2800 N   0  0  0  0  0  0  0  0  0  0  0  0
  139.0250   74.8630  221.1080 C   0  0  0  0  0  0  0  0  0  0  0  0
  139.3200   75.4070  220.0060 O   0  0  0  0  0  0  0  0  0  0  0  0
  138.0890   73.7050  221.2060 C   0  0  0  0  0  0  0  0  0  0  0  0
  138.5390   72.8940  222.3130 N   0  0  0  0  0  0  0  0  0  0  0  0
  138.3430   71.4860  222.2620 C   0  0  0  0  0  0  0  0  0  0  0  0
  137.7880   70.9040  221.2840 O   0  0  0  0  0  0  0  0  0  0  0  0
  138.8040   70.6760  223.3890 C   0  0  0  0  0  0  0  0  0  0  0  0
  138.5430   69.3220  223.4430 C   0  0  0  0  0  0  0  0  0  0  0  0
  138.9620   68.5280  224.4890 C   0  0  0  0  0  0  0  0  0  0  0  0
  139.6680   69.1080  225.5210 C   0  0  0  0  0  0  0  0  0  0  0  0
  140.1340   68.4150  226.6130 C   0  0  0  0  0  0  0  0  0  0  0  0
  140.8260   69.0200  227.6110 C   0  0  0  0  0  0  0  0  0  0  0  0
  141.4200   68.1380  229.0010 Cl  0  0  0  0  0  0  0  0  0  0  0  0
  141.0840   70.3890  227.5470 C   0  0  0  0  0  0  0  0  0  0  0  0
  140.6320   71.1290  226.4630 C   0  0  0  0  0  0  0  0  0  0  0  0
  139.9300   70.4620  225.4690 C   0  0  0  0  0  0  0  0  0  0  0  0
  139.4990   71.1980  224.4240 N   0  0  0  0  0  0  0  0  0  0  0  0
  139.6900   77.7740  222.3120 C   0  0  2  0  0  0  0  0  0  0  0  0
  138.8210   77.9080  221.2630 O   0  0  0  0  0  0  0  0  0  0  0  0
  140.5830   78.9350  222.5380 C   0  0  0  0  0  0  0  0  0  0  0  0
  140.5690   80.0250  221.6830 C   0  0  0  0  0  0  0  0  0  0  0  0
  141.4130   81.0790  221.9290 C   0  0  0  0  0  0  0  0  0  0  0  0
  142.2850   81.1340  222.9780 C   0  0  0  0  0  0  0  0  0  0  0  0
  142.3060   80.0470  223.8400 C   0  0  0  0  0  0  0  0  0  0  0  0
  141.4610   78.9840  223.6010 C   0  0  0  0  0  0  0  0  0  0  0  0
  142.4757   76.4867  221.3286 H   0  0  0  0  0  0  0  0  0  0  0  0
  141.1947   75.6190  220.4158 H   0  0  0  0  0  0  0  0  0  0  0  0
  141.2378   77.4148  220.4158 H   0  0  0  0  0  0  0  0  0  0  0  0
  141.2603   76.4952  223.0607 H   0  0  0  0  0  0  0  0  0  0  0  0
  139.3970   74.9660  223.2090 H   0  0  0  0  0  0  0  0  0  0  0  0
  137.0646   74.0612  221.3899 H   0  0  0  0  0  0  0  0  0  0  0  0
  138.0808   73.1253  220.2712 H   0  0  0  0  0  0  0  0  0  0  0  0
  138.9990   73.3200  223.1350 H   0  0  0  0  0  0  0  0  0  0  0  0
  137.9791   68.8587  222.6200 H   0  0  0  0  0  0  0  0  0  0  0  0
  138.7371   67.4513  224.4999 H   0  0  0  0  0  0  0  0  0  0  0  0
  139.9394   67.3344  226.6799 H   0  0  0  0  0  0  0  0  0  0  0  0
  141.6451   70.8819  228.3546 H   0  0  0  0  0  0  0  0  0  0  0  0
  140.8242   72.2099  226.3941 H   0  0  0  0  0  0  0  0  0  0  0  0
  139.0066   77.6980  223.1706 H   0  0  0  0  0  0  0  0  0  0  0  0
  139.0170   77.3270  220.4890 H   0  0  0  0  0  0  0  0  0  0  0  0
  139.8900   80.0455  220.8178 H   0  0  0  0  0  0  0  0  0  0  0  0
  141.3850   81.9336  221.2370 H   0  0  0  0  0  0  0  0  0  0  0  0
  142.9423   82.0023  223.1330 H   0  0  0  0  0  0  0  0  0  0  0  0
  142.9880   80.0334  224.7030 H   0  0  0  0  0  0  0  0  0  0  0  0
  141.4884   78.1303  224.2942 H   0  0  0  0  0  0  0  0  0  0  0  0
  1  2  1  0
  2  3  1  0
  3  4  1  0
  4  5  2  0
  4  6  1  0
  6  7  1  0
  7  8  1  0
  8  9  2  0
  8 10  1  0
 10 11  2  0
 11 12  1  0
 12 13  2  0
 13 14  1  0
 14 15  2  0
 15 16  1  0
 15 17  1  0
 17 18  2  0
 18 19  1  0
 19 20  2  0
  2 21  1  0
 21 22  1  0
 21 23  1  0
 23 24  2  0
 24 25  1  0
 25 26  2  0
 26 27  1  0
 27 28  2  0
 20 10  1  0
 28 23  1  0
 19 13  1  0
  1 29  1  0
  1 30  1  0
  1 31  1  0
  2 32  1  1
  3 33  1  0
  6 34  1  0
  6 35  1  0
  7 36  1  0
 11 37  1  0
 12 38  1  0
 14 39  1  0
 17 40  1  0
 18 41  1  0
 21 42  1  1
 22 43  1  0
 24 44  1  0
 25 45  1  0
 26 46  1  0
 27 47  1  0
 28 48  1  0
M  END
>  <smiles>  (11) 
C[C@H](NC(=O)CNC(=O)c1ccc2cc(Cl)ccc2n1)[C@H](O)c1ccccc1

>  <score_type>  (11) 
oracle

>  <origin>  (11) 
autodockgpu

>  <m_score__min__energy>  (11) 
-8.8800000000000008

>  <m_primary>  (11) 
energy

>  <rmsd>  (11) 
4.124306180456004

>  <m_score__min__rmsd>  (11) 
4.124306180456004

>  <meeko>  (11) 
{"free_energy": -8.17, "intermolecular_energy": -10.26, "internal_energy": -1.83, "cluster_size": 37, "cluster_id": 1, "rank_in_cluster": 19}

>  <energy>  (11) 
-8.36

>  <cluster_rmsd>  (11) 
1.56

>  <cluster>  (11) 
1

$$$$

     RDKit          3D

 48 50  0  0  0  0  0  0  0  0999 V2000
  140.3970   71.1600  225.1870 C   0  0  0  0  0  0  0  0  0  0  0  0
  139.6680   70.2410  224.2650 C   0  0  2  0  0  0  0  0  0  0  0  0
  138.6480   70.9200  223.4790 N   0  0  0  0  0  0  0  0  0  0  0  0
  138.9430   72.0650  222.6830 C   0  0  0  0  0  0  0  0  0  0  0  0
  140.1400   72.4730  222.6860 O   0  0  0  0  0  0  0  0  0  0  0  0
  137.8700   72.7330  221.8920 C   0  0  0  0  0  0  0  0  0  0  0  0
  136.9500   73.3160  222.8420 N   0  0  0  0  0  0  0  0  0  0  0  0
  136.0590   72.4650  223.5520 C   0  0  0  0  0  0  0  0  0  0  0  0
  136.0330   71.2090  223.3920 O   0  0  0  0  0  0  0  0  0  0  0  0
  135.1340   73.0680  224.5100 C   0  0  0  0  0  0  0  0  0  0  0  0
  134.3350   72.2810  225.3160 C   0  0  0  0  0  0  0  0  0  0  0  0
  133.4510   72.8150  226.2300 C   0  0  0  0  0  0  0  0  0  0  0  0
  133.3610   74.1860  226.3430 C   0  0  0  0  0  0  0  0  0  0  0  0
  132.5170   74.8260  227.2190 C   0  0  0  0  0  0  0  0  0  0  0  0
  132.4560   76.1790  227.3040 C   0  0  0  0  0  0  0  0  0  0  0  0
  131.3810   76.9950  228.4180 Cl  0  0  0  0  0  0  0  0  0  0  0  0
  133.2660   76.9640  226.4850 C   0  0  0  0  0  0  0  0  0  0  0  0
  134.1350   76.3600  225.5860 C   0  0  0  0  0  0  0  0  0  0  0  0
  134.1590   74.9730  225.5390 C   0  0  0  0  0  0  0  0  0  0  0  0
  135.0090   74.4050  224.6580 N   0  0  0  0  0  0  0  0  0  0  0  0
  138.9630   69.1180  224.9870 C   0  0  2  0  0  0  0  0  0  0  0  0
  137.6090   69.3000  225.0810 O   0  0  0  0  0  0  0  0  0  0  0  0
  139.6560   68.8930  226.2770 C   0  0  0  0  0  0  0  0  0  0  0  0
  139.2240   69.5120  227.4390 C   0  0  0  0  0  0  0  0  0  0  0  0
  139.8960   69.2760  228.6130 C   0  0  0  0  0  0  0  0  0  0  0  0
  140.9820   68.4560  228.7220 C   0  0  0  0  0  0  0  0  0  0  0  0
  141.4220   67.8310  227.5640 C   0  0  0  0  0  0  0  0  0  0  0  0
  140.7530   68.0620  226.3810 C   0  0  0  0  0  0  0  0  0  0  0  0
  140.1779   70.8838  226.2290 H   0  0  0  0  0  0  0  0  0  0  0  0
  141.4789   71.0787  225.0059 H   0  0  0  0  0  0  0  0  0  0  0  0
  140.0717   72.1951  225.0059 H   0  0  0  0  0  0  0  0  0  0  0  0
  140.4619   69.8451  223.6146 H   0  0  0  0  0  0  0  0  0  0  0  0
  137.6570   70.5620  223.4910 H   0  0  0  0  0  0  0  0  0  0  0  0
  138.3029   73.5176  221.2541 H   0  0  0  0  0  0  0  0  0  0  0  0
  137.3568   72.0131  221.2375 H   0  0  0  0  0  0  0  0  0  0  0  0
  136.9310   74.3360  223.0100 H   0  0  0  0  0  0  0  0  0  0  0  0
  134.4064   71.1871  225.2255 H   0  0  0  0  0  0  0  0  0  0  0  0
  132.8293   72.1592  226.8572 H   0  0  0  0  0  0  0  0  0  0  0  0
  131.8701   74.2220  227.8722 H   0  0  0  0  0  0  0  0  0  0  0  0
  133.2169   78.0609  226.5508 H   0  0  0  0  0  0  0  0  0  0  0  0
  134.7836   76.9614  224.9321 H   0  0  0  0  0  0  0  0  0  0  0  0
  139.0320   68.1917  224.3977 H   0  0  0  0  0  0  0  0  0  0  0  0
  137.2980   70.2070  224.8490 H   0  0  0  0  0  0  0  0  0  0  0  0
  138.3534   70.1842  227.4212 H   0  0  0  0  0  0  0  0  0  0  0  0
  139.5367   69.7793  229.5228 H   0  0  0  0  0  0  0  0  0  0  0  0
  141.4866   68.2976  229.6865 H   0  0  0  0  0  0  0  0  0  0  0  0
  142.2932   67.1600  227.5896 H   0  0  0  0  0  0  0  0  0  0  0  0
  141.1125   67.5574  225.4720 H   0  0  0  0  0  0  0  0  0  0  0  0
  1  2  1  0
  2  3  1  0
  3  4  1  0
  4  5  2  0
  4  6  1  0
  6  7  1  0
  7  8  1  0
  8  9  2  0
  8 10  1  0
 10 11  2  0
 11 12  1  0
 12 13  2  0
 13 14  1  0
 14 15  2  0
 15 16  1  0
 15 17  1  0
 17 18  2  0
 18 19  1  0
 19 20  2  0
  2 21  1  0
 21 22  1  0
 21 23  1  0
 23 24  2  0
 24 25  1  0
 25 26  2  0
 26 27  1  0
 27 28  2  0
 20 10  1  0
 28 23  1  0
 19 13  1  0
  1 29  1  0
  1 30  1  0
  1 31  1  0
  2 32  1  6
  3 33  1  0
  6 34  1  0
  6 35  1  0
  7 36  1  0
 11 37  1  0
 12 38  1  0
 14 39  1  0
 17 40  1  0
 18 41  1  0
 21 42  1  6
 22 43  1  0
 24 44  1  0
 25 45  1  0
 26 46  1  0
 27 47  1  0
 28 48  1  0
M  END
>  <smiles>  (12) 
C[C@H](NC(=O)CNC(=O)c1ccc2cc(Cl)ccc2n1)[C@H](O)c1ccccc1

>  <score_type>  (12) 
oracle

>  <origin>  (12) 
autodockgpu

>  <m_score__min__energy>  (12) 
-8.8800000000000008

>  <m_primary>  (12) 
energy

>  <rmsd>  (12) 
10.06404455189114

>  <m_score__min__rmsd>  (12) 
10.06404455189114

>  <meeko>  (12) 
{"free_energy": -6.94, "intermolecular_energy": -9.03, "internal_energy": -3.37, "cluster_size": 5, "cluster_id": 5, "rank_in_cluster": 2}

>  <energy>  (12) 
-8.35

>  <cluster_rmsd>  (12) 
1.56

>  <cluster>  (12) 
1

$$$$

     RDKit          3D

 48 50  0  0  0  0  0  0  0  0999 V2000
  139.0330   78.5030  222.6280 C   0  0  0  0  0  0  0  0  0  0  0  0
  139.4490   78.2270  221.2220 C   0  0  2  0  0  0  0  0  0  0  0  0
  139.1300   76.8730  220.7930 N   0  0  0  0  0  0  0  0  0  0  0  0
  139.4570   75.7320  221.5820 C   0  0  0  0  0  0  0  0  0  0  0  0
  140.0430   75.9440  222.6830 O   0  0  0  0  0  0  0  0  0  0  0  0
  139.1140   74.3600  221.1080 C   0  0  0  0  0  0  0  0  0  0  0  0
  139.3560   73.4620  222.2130 N   0  0  0  0  0  0  0  0  0  0  0  0
  139.1860   72.0630  222.0160 C   0  0  0  0  0  0  0  0  0  0  0  0
  138.8310   71.5630  220.9090 O   0  0  0  0  0  0  0  0  0  0  0  0
  139.4340   71.1660  223.1440 C   0  0  0  0  0  0  0  0  0  0  0  0
  139.0860   69.8310  223.0770 C   0  0  0  0  0  0  0  0  0  0  0  0
  139.3050   68.9560  224.1190 C   0  0  0  0  0  0  0  0  0  0  0  0
  139.8920   69.4310  225.2730 C   0  0  0  0  0  0  0  0  0  0  0  0
  140.1570   68.6500  226.3730 C   0  0  0  0  0  0  0  0  0  0  0  0
  140.7370   69.1530  227.4910 C   0  0  0  0  0  0  0  0  0  0  0  0
  141.0750   68.1600  228.8920 Cl  0  0  0  0  0  0  0  0  0  0  0  0
  141.0840   70.5020  227.5480 C   0  0  0  0  0  0  0  0  0  0  0  0
  140.8360   71.3280  226.4610 C   0  0  0  0  0  0  0  0  0  0  0  0
  140.2410   70.7640  225.3410 C   0  0  0  0  0  0  0  0  0  0  0  0
  140.0060   71.5830  224.2940 N   0  0  0  0  0  0  0  0  0  0  0  0
  140.9320   78.3980  221.0010 C   0  0  2  0  0  0  0  0  0  0  0  0
  141.6180   77.2140  220.9790 O   0  0  0  0  0  0  0  0  0  0  0  0
  141.4320   79.3930  221.9790 C   0  0  0  0  0  0  0  0  0  0  0  0
  142.1290   78.9990  223.1080 C   0  0  0  0  0  0  0  0  0  0  0  0
  142.5740   79.9530  223.9890 C   0  0  0  0  0  0  0  0  0  0  0  0
  142.3750   81.2940  223.8290 C   0  0  0  0  0  0  0  0  0  0  0  0
  141.6780   81.7000  222.7000 C   0  0  0  0  0  0  0  0  0  0  0  0
  141.2280   80.7480  221.8100 C   0  0  0  0  0  0  0  0  0  0  0  0
  139.7451   78.0305  223.3205 H   0  0  0  0  0  0  0  0  0  0  0  0
  139.0201   79.5894  222.8000 H   0  0  0  0  0  0  0  0  0  0  0  0
  138.0270   78.0926  222.8000 H   0  0  0  0  0  0  0  0  0  0  0  0
  138.8823   78.9656  220.6361 H   0  0  0  0  0  0  0  0  0  0  0  0
  138.6410   76.7200  219.8720 H   0  0  0  0  0  0  0  0  0  0  0  0
  138.0561   74.3163  220.8096 H   0  0  0  0  0  0  0  0  0  0  0  0
  139.7214   74.0819  220.2341 H   0  0  0  0  0  0  0  0  0  0  0  0
  139.6480   73.8200  223.1380 H   0  0  0  0  0  0  0  0  0  0  0  0
  138.6164   69.4519  222.1573 H   0  0  0  0  0  0  0  0  0  0  0  0
  139.0168   67.8980  224.0318 H   0  0  0  0  0  0  0  0  0  0  0  0
  139.8901   67.5832  226.3454 H   0  0  0  0  0  0  0  0  0  0  0  0
  141.5542   70.9114  228.4543 H   0  0  0  0  0  0  0  0  0  0  0  0
  141.1023   72.3950  226.4861 H   0  0  0  0  0  0  0  0  0  0  0  0
  141.1163   78.7908  219.9902 H   0  0  0  0  0  0  0  0  0  0  0  0
  141.8400   76.8500  221.8690 H   0  0  0  0  0  0  0  0  0  0  0  0
  142.3242   77.9331  223.2972 H   0  0  0  0  0  0  0  0  0  0  0  0
  143.1252   79.6159  224.8792 H   0  0  0  0  0  0  0  0  0  0  0  0
  142.7510   82.0214  224.5635 H   0  0  0  0  0  0  0  0  0  0  0  0
  141.4869   82.7678  222.5174 H   0  0  0  0  0  0  0  0  0  0  0  0
  140.6780   81.0855  220.9192 H   0  0  0  0  0  0  0  0  0  0  0  0
  1  2  1  0
  2  3  1  0
  3  4  1  0
  4  5  2  0
  4  6  1  0
  6  7  1  0
  7  8  1  0
  8  9  2  0
  8 10  1  0
 10 11  2  0
 11 12  1  0
 12 13  2  0
 13 14  1  0
 14 15  2  0
 15 16  1  0
 15 17  1  0
 17 18  2  0
 18 19  1  0
 19 20  2  0
  2 21  1  0
 21 22  1  0
 21 23  1  0
 23 24  2  0
 24 25  1  0
 25 26  2  0
 26 27  1  0
 27 28  2  0
 20 10  1  0
 28 23  1  0
 19 13  1  0
  1 29  1  0
  1 30  1  0
  1 31  1  0
  2 32  1  6
  3 33  1  0
  6 34  1  0
  6 35  1  0
  7 36  1  0
 11 37  1  0
 12 38  1  0
 14 39  1  0
 17 40  1  0
 18 41  1  0
 21 42  1  6
 22 43  1  0
 24 44  1  0
 25 45  1  0
 26 46  1  0
 27 47  1  0
 28 48  1  0
M  END
>  <smiles>  (13) 
C[C@H](NC(=O)CNC(=O)c1ccc2cc(Cl)ccc2n1)[C@H](O)c1ccccc1

>  <score_type>  (13) 
oracle

>  <origin>  (13) 
autodockgpu

>  <m_score__min__energy>  (13) 
-8.8800000000000008

>  <m_primary>  (13) 
energy

>  <rmsd>  (13) 
4.123794817949577

>  <m_score__min__rmsd>  (13) 
4.123794817949577

>  <meeko>  (13) 
{"free_energy": -8.64, "intermolecular_energy": -10.72, "internal_energy": -2.4, "cluster_size": 37, "cluster_id": 1, "rank_in_cluster": 4}

>  <energy>  (13) 
-8.32

>  <cluster_rmsd>  (13) 
1.58

>  <cluster>  (13) 
1

$$$$

     RDKit          3D

 48 50  0  0  0  0  0  0  0  0999 V2000
  139.1060   78.5550  222.4580 C   0  0  0  0  0  0  0  0  0  0  0  0
  139.6300   78.2490  221.0950 C   0  0  2  0  0  0  0  0  0  0  0  0
  139.3180   76.8970  220.6580 N   0  0  0  0  0  0  0  0  0  0  0  0
  139.4810   75.7680  221.5130 C   0  0  0  0  0  0  0  0  0  0  0  0
  139.9130   75.9910  222.6810 O   0  0  0  0  0  0  0  0  0  0  0  0
  139.1500   74.3970  221.0290 C   0  0  0  0  0  0  0  0  0  0  0  0
  139.3530   73.4990  222.1420 N   0  0  0  0  0  0  0  0  0  0  0  0
  139.2670   72.0960  221.9210 C   0  0  0  0  0  0  0  0  0  0  0  0
  139.0200   71.5920  220.7860 O   0  0  0  0  0  0  0  0  0  0  0  0
  139.4750   71.1980  223.0570 C   0  0  0  0  0  0  0  0  0  0  0  0
  139.0800   69.8770  222.9970 C   0  0  0  0  0  0  0  0  0  0  0  0
  139.2600   69.0020  224.0470 C   0  0  0  0  0  0  0  0  0  0  0  0
  139.8560   69.4640  225.2010 C   0  0  0  0  0  0  0  0  0  0  0  0
  140.0850   68.6820  226.3080 C   0  0  0  0  0  0  0  0  0  0  0  0
  140.6750   69.1720  227.4280 C   0  0  0  0  0  0  0  0  0  0  0  0
  140.9670   68.1770  228.8380 Cl  0  0  0  0  0  0  0  0  0  0  0  0
  141.0690   70.5080  227.4780 C   0  0  0  0  0  0  0  0  0  0  0  0
  140.8580   71.3340  226.3820 C   0  0  0  0  0  0  0  0  0  0  0  0
  140.2510   70.7840  225.2620 C   0  0  0  0  0  0  0  0  0  0  0  0
  140.0530   71.6030  224.2080 N   0  0  0  0  0  0  0  0  0  0  0  0
  141.1310   78.3860  220.9960 C   0  0  2  0  0  0  0  0  0  0  0  0
  141.7900   77.1880  221.0660 O   0  0  0  0  0  0  0  0  0  0  0  0
  141.5680   79.4000  221.9840 C   0  0  0  0  0  0  0  0  0  0  0  0
  142.1840   79.0270  223.1680 C   0  0  0  0  0  0  0  0  0  0  0  0
  142.5720   79.9980  224.0560 C   0  0  0  0  0  0  0  0  0  0  0  0
  142.3930   81.3370  223.8530 C   0  0  0  0  0  0  0  0  0  0  0  0
  141.7770   81.7210  222.6710 C   0  0  0  0  0  0  0  0  0  0  0  0
  141.3840   80.7510  221.7730 C   0  0  0  0  0  0  0  0  0  0  0  0
  139.7954   78.1524  223.2148 H   0  0  0  0  0  0  0  0  0  0  0  0
  139.0211   79.6447  222.5821 H   0  0  0  0  0  0  0  0  0  0  0  0
  138.1152   78.0935  222.5821 H   0  0  0  0  0  0  0  0  0  0  0  0
  139.1294   78.9900  220.4545 H   0  0  0  0  0  0  0  0  0  0  0  0
  138.9580   76.7350  219.6810 H   0  0  0  0  0  0  0  0  0  0  0  0
  138.1024   74.3560  220.6960 H   0  0  0  0  0  0  0  0  0  0  0  0
  139.7851   74.1165  220.1758 H   0  0  0  0  0  0  0  0  0  0  0  0
  139.5580   73.8600  223.0890 H   0  0  0  0  0  0  0  0  0  0  0  0
  138.6036   69.5084  222.0766 H   0  0  0  0  0  0  0  0  0  0  0  0
  138.9341   67.9546  223.9655 H   0  0  0  0  0  0  0  0  0  0  0  0
  139.7804   67.6253  226.2856 H   0  0  0  0  0  0  0  0  0  0  0  0
  141.5466   70.9076  228.3848 H   0  0  0  0  0  0  0  0  0  0  0  0
  141.1624   72.3909  226.4010 H   0  0  0  0  0  0  0  0  0  0  0  0
  141.4090   78.7457  219.9943 H   0  0  0  0  0  0  0  0  0  0  0  0
  141.8180   76.7860  221.9670 H   0  0  0  0  0  0  0  0  0  0  0  0
  142.3598   77.9647  223.3931 H   0  0  0  0  0  0  0  0  0  0  0  0
  143.0576   79.6784  224.9898 H   0  0  0  0  0  0  0  0  0  0  0  0
  142.7232   82.0788  224.5950 H   0  0  0  0  0  0  0  0  0  0  0  0
  141.6042   82.7852  222.4528 H   0  0  0  0  0  0  0  0  0  0  0  0
  140.8983   81.0712  220.8394 H   0  0  0  0  0  0  0  0  0  0  0  0
  1  2  1  0
  2  3  1  0
  3  4  1  0
  4  5  2  0
  4  6  1  0
  6  7  1  0
  7  8  1  0
  8  9  2  0
  8 10  1  0
 10 11  2  0
 11 12  1  0
 12 13  2  0
 13 14  1  0
 14 15  2  0
 15 16  1  0
 15 17  1  0
 17 18  2  0
 18 19  1  0
 19 20  2  0
  2 21  1  0
 21 22  1  0
 21 23  1  0
 23 24  2  0
 24 25  1  0
 25 26  2  0
 26 27  1  0
 27 28  2  0
 20 10  1  0
 28 23  1  0
 19 13  1  0
  1 29  1  0
  1 30  1  0
  1 31  1  0
  2 32  1  6
  3 33  1  0
  6 34  1  0
  6 35  1  0
  7 36  1  0
 11 37  1  0
 12 38  1  0
 14 39  1  0
 17 40  1  0
 18 41  1  0
 21 42  1  6
 22 43  1  0
 24 44  1  0
 25 45  1  0
 26 46  1  0
 27 47  1  0
 28 48  1  0
M  END
>  <smiles>  (14) 
C[C@H](NC(=O)CNC(=O)c1ccc2cc(Cl)ccc2n1)[C@H](O)c1ccccc1

>  <score_type>  (14) 
oracle

>  <origin>  (14) 
autodockgpu

>  <m_score__min__energy>  (14) 
-8.8800000000000008

>  <m_primary>  (14) 
energy

>  <rmsd>  (14) 
4.098010550987123

>  <m_score__min__rmsd>  (14) 
4.098010550987123

>  <meeko>  (14) 
{"free_energy": -8.64, "intermolecular_energy": -10.73, "internal_energy": -2.43, "cluster_size": 37, "cluster_id": 1, "rank_in_cluster": 3}

>  <energy>  (14) 
-8.32

>  <cluster_rmsd>  (14) 
1.57

>  <cluster>  (14) 
1

$$$$

     RDKit          3D

 48 50  0  0  0  0  0  0  0  0999 V2000
  140.4540   78.5220  219.8080 C   0  0  0  0  0  0  0  0  0  0  0  0
  140.3130   77.8080  221.1100 C   0  0  2  0  0  0  0  0  0  0  0  0
  139.4070   76.6710  221.0370 N   0  0  0  0  0  0  0  0  0  0  0  0
  139.8350   75.3420  221.3220 C   0  0  0  0  0  0  0  0  0  0  0  0
  141.0480   75.1870  221.6460 O   0  0  0  0  0  0  0  0  0  0  0  0
  138.8770   74.2030  221.2360 C   0  0  0  0  0  0  0  0  0  0  0  0
  139.1740   73.3200  222.3400 N   0  0  0  0  0  0  0  0  0  0  0  0
  138.8690   71.9360  222.2190 C   0  0  0  0  0  0  0  0  0  0  0  0
  138.3450   71.4350  221.1800 O   0  0  0  0  0  0  0  0  0  0  0  0
  139.1750   71.0530  223.3440 C   0  0  0  0  0  0  0  0  0  0  0  0
  138.8300   69.7170  223.3110 C   0  0  0  0  0  0  0  0  0  0  0  0
  139.1020   68.8560  224.3530 C   0  0  0  0  0  0  0  0  0  0  0  0
  139.7430   69.3480  225.4700 C   0  0  0  0  0  0  0  0  0  0  0  0
  140.0650   68.5820  226.5650 C   0  0  0  0  0  0  0  0  0  0  0  0
  140.6970   69.1010  227.6480 C   0  0  0  0  0  0  0  0  0  0  0  0
  141.1070   68.1270  229.0430 Cl  0  0  0  0  0  0  0  0  0  0  0  0
  141.0410   70.4520  227.6710 C   0  0  0  0  0  0  0  0  0  0  0  0
  140.7370   71.2630  226.5860 C   0  0  0  0  0  0  0  0  0  0  0  0
  140.0900   70.6830  225.5040 C   0  0  0  0  0  0  0  0  0  0  0  0
  139.8010   71.4870  224.4600 N   0  0  0  0  0  0  0  0  0  0  0  0
  139.7870   78.6930  222.2150 C   0  0  2  0  0  0  0  0  0  0  0  0
  138.6990   79.4360  221.8420 O   0  0  0  0  0  0  0  0  0  0  0  0
  140.9230   79.4740  222.7590 C   0  0  0  0  0  0  0  0  0  0  0  0
  142.2330   79.1160  222.4880 C   0  0  0  0  0  0  0  0  0  0  0  0
  143.2550   79.8670  223.0130 C   0  0  0  0  0  0  0  0  0  0  0  0
  143.0710   80.9670  223.8000 C   0  0  0  0  0  0  0  0  0  0  0  0
  141.7620   81.3340  224.0770 C   0  0  0  0  0  0  0  0  0  0  0  0
  140.7290   80.5850  223.5540 C   0  0  0  0  0  0  0  0  0  0  0  0
  140.6640   79.5856  219.9940 H   0  0  0  0  0  0  0  0  0  0  0  0
  141.2821   78.0795  219.2349 H   0  0  0  0  0  0  0  0  0  0  0  0
  139.5198   78.4275  219.2349 H   0  0  0  0  0  0  0  0  0  0  0  0
  141.3377   77.4764  221.3338 H   0  0  0  0  0  0  0  0  0  0  0  0
  138.4010   76.8230  220.7660 H   0  0  0  0  0  0  0  0  0  0  0  0
  137.8435   74.5714  221.3139 H   0  0  0  0  0  0  0  0  0  0  0  0
  138.9754   73.6778  220.2745 H   0  0  0  0  0  0  0  0  0  0  0  0
  139.6020   73.6780  223.2100 H   0  0  0  0  0  0  0  0  0  0  0  0
  138.3187   69.3243  222.4197 H   0  0  0  0  0  0  0  0  0  0  0  0
  138.8130   67.7963  224.2941 H   0  0  0  0  0  0  0  0  0  0  0  0
  139.8019   67.5139  226.5634 H   0  0  0  0  0  0  0  0  0  0  0  0
  141.5528   70.8749  228.5481 H   0  0  0  0  0  0  0  0  0  0  0  0
  141.0005   72.3310  226.5840 H   0  0  0  0  0  0  0  0  0  0  0  0
  139.3781   78.0755  223.0283 H   0  0  0  0  0  0  0  0  0  0  0  0
  138.9150   80.3190  221.4590 H   0  0  0  0  0  0  0  0  0  0  0  0
  142.4520   78.2402  221.8595 H   0  0  0  0  0  0  0  0  0  0  0  0
  144.2874   79.5632  222.7851 H   0  0  0  0  0  0  0  0  0  0  0  0
  143.9234   81.5376  224.1973 H   0  0  0  0  0  0  0  0  0  0  0  0
  141.5508   82.2114  224.7059 H   0  0  0  0  0  0  0  0  0  0  0  0
  139.6968   80.8890  223.7824 H   0  0  0  0  0  0  0  0  0  0  0  0
  1  2  1  0
  2  3  1  0
  3  4  1  0
  4  5  2  0
  4  6  1  0
  6  7  1  0
  7  8  1  0
  8  9  2  0
  8 10  1  0
 10 11  2  0
 11 12  1  0
 12 13  2  0
 13 14  1  0
 14 15  2  0
 15 16  1  0
 15 17  1  0
 17 18  2  0
 18 19  1  0
 19 20  2  0
  2 21  1  0
 21 22  1  0
 21 23  1  0
 23 24  2  0
 24 25  1  0
 25 26  2  0
 26 27  1  0
 27 28  2  0
 20 10  1  0
 28 23  1  0
 19 13  1  0
  1 29  1  0
  1 30  1  0
  1 31  1  0
  2 32  1  1
  3 33  1  0
  6 34  1  0
  6 35  1  0
  7 36  1  0
 11 37  1  0
 12 38  1  0
 14 39  1  0
 17 40  1  0
 18 41  1  0
 21 42  1  1
 22 43  1  0
 24 44  1  0
 25 45  1  0
 26 46  1  0
 27 47  1  0
 28 48  1  0
M  END
>  <smiles>  (15) 
C[C@H](NC(=O)CNC(=O)c1ccc2cc(Cl)ccc2n1)[C@H](O)c1ccccc1

>  <score_type>  (15) 
oracle

>  <origin>  (15) 
autodockgpu

>  <m_score__min__energy>  (15) 
-8.8800000000000008

>  <m_primary>  (15) 
energy

>  <rmsd>  (15) 
4.24282136748938

>  <m_score__min__rmsd>  (15) 
4.24282136748938

>  <meeko>  (15) 
{"free_energy": -7.98, "intermolecular_energy": -10.07, "internal_energy": -1.63, "cluster_size": 37, "cluster_id": 1, "rank_in_cluster": 27}

>  <energy>  (15) 
-8.3

>  <cluster_rmsd>  (15) 
1.32

>  <cluster>  (15) 
1

$$$$

     RDKit          3D

 48 50  0  0  0  0  0  0  0  0999 V2000
  139.1560   78.9850  223.4390 C   0  0  0  0  0  0  0  0  0  0  0  0
  139.0640   78.9730  221.9500 C   0  0  2  0  0  0  0  0  0  0  0  0
  139.4930   77.7100  221.3670 N   0  0  0  0  0  0  0  0  0  0  0  0
  138.9830   76.4570  221.8170 C   0  0  0  0  0  0  0  0  0  0  0  0
  138.1340   76.4860  222.7540 O   0  0  0  0  0  0  0  0  0  0  0  0
  139.4480   75.1840  221.1940 C   0  0  0  0  0  0  0  0  0  0  0  0
  139.4120   74.1750  222.2280 N   0  0  0  0  0  0  0  0  0  0  0  0
  140.2010   73.0010  222.0750 C   0  0  0  0  0  0  0  0  0  0  0  0
  140.9410   72.7970  221.0670 O   0  0  0  0  0  0  0  0  0  0  0  0
  140.1550   71.9880  223.1280 C   0  0  0  0  0  0  0  0  0  0  0  0
  139.6260   70.7360  222.8850 C   0  0  0  0  0  0  0  0  0  0  0  0
  139.5660   69.7570  223.8530 C   0  0  0  0  0  0  0  0  0  0  0  0
  140.0520   70.0380  225.1120 C   0  0  0  0  0  0  0  0  0  0  0  0
  140.0440   69.1390  226.1520 C   0  0  0  0  0  0  0  0  0  0  0  0
  140.5320   69.4510  227.3790 C   0  0  0  0  0  0  0  0  0  0  0  0
  140.5210   68.3080  228.7040 Cl  0  0  0  0  0  0  0  0  0  0  0  0
  141.0640   70.7180  227.6140 C   0  0  0  0  0  0  0  0  0  0  0  0
  141.0930   71.6580  226.5930 C   0  0  0  0  0  0  0  0  0  0  0  0
  140.5820   71.2880  225.3570 C   0  0  0  0  0  0  0  0  0  0  0  0
  140.6180   72.2150  224.3760 N   0  0  0  0  0  0  0  0  0  0  0  0
  139.9070   80.0430  221.2980 C   0  0  2  0  0  0  0  0  0  0  0  0
  140.2210   79.7670  219.9950 O   0  0  0  0  0  0  0  0  0  0  0  0
  141.0680   80.3150  222.1780 C   0  0  0  0  0  0  0  0  0  0  0  0
  141.0640   81.3850  223.0580 C   0  0  0  0  0  0  0  0  0  0  0  0
  142.1610   81.6010  223.8540 C   0  0  0  0  0  0  0  0  0  0  0  0
  143.2800   80.8200  223.8440 C   0  0  0  0  0  0  0  0  0  0  0  0
  143.2940   79.7460  222.9660 C   0  0  0  0  0  0  0  0  0  0  0  0
  142.1960   79.5210  222.1620 C   0  0  0  0  0  0  0  0  0  0  0  0
  138.1522   78.8541  223.8695 H   0  0  0  0  0  0  0  0  0  0  0  0
  139.8080   78.1643  223.7727 H   0  0  0  0  0  0  0  0  0  0  0  0
  139.5757   79.9455  223.7727 H   0  0  0  0  0  0  0  0  0  0  0  0
  137.9957   79.1494  221.7563 H   0  0  0  0  0  0  0  0  0  0  0  0
  140.2010   77.7100  220.5880 H   0  0  0  0  0  0  0  0  0  0  0  0
  138.7808   74.9018  220.3662 H   0  0  0  0  0  0  0  0  0  0  0  0
  140.4630   75.2930  220.7844 H   0  0  0  0  0  0  0  0  0  0  0  0
  138.8240   74.2940  223.0700 H   0  0  0  0  0  0  0  0  0  0  0  0
  139.2377   70.5115  221.8806 H   0  0  0  0  0  0  0  0  0  0  0  0
  139.1382   68.7695  223.6252 H   0  0  0  0  0  0  0  0  0  0  0  0
  139.6286   68.1344  225.9840 H   0  0  0  0  0  0  0  0  0  0  0  0
  141.4605   70.9727  228.6079 H   0  0  0  0  0  0  0  0  0  0  0  0
  141.5075   72.6634  226.7583 H   0  0  0  0  0  0  0  0  0  0  0  0
  139.3257   80.9721  221.2042 H   0  0  0  0  0  0  0  0  0  0  0  0
  140.3840   80.5610  219.4330 H   0  0  0  0  0  0  0  0  0  0  0  0
  140.1923   82.0533  223.1180 H   0  0  0  0  0  0  0  0  0  0  0  0
  142.1367   82.4577  224.5435 H   0  0  0  0  0  0  0  0  0  0  0  0
  144.1341   81.0329  224.5037 H   0  0  0  0  0  0  0  0  0  0  0  0
  144.1695   79.0823  222.9117 H   0  0  0  0  0  0  0  0  0  0  0  0
  142.2211   78.6643  221.4725 H   0  0  0  0  0  0  0  0  0  0  0  0
  1  2  1  0
  2  3  1  0
  3  4  1  0
  4  5  2  0
  4  6  1  0
  6  7  1  0
  7  8  1  0
  8  9  2  0
  8 10  1  0
 10 11  2  0
 11 12  1  0
 12 13  2  0
 13 14  1  0
 14 15  2  0
 15 16  1  0
 15 17  1  0
 17 18  2  0
 18 19  1  0
 19 20  2  0
  2 21  1  0
 21 22  1  0
 21 23  1  0
 23 24  2  0
 24 25  1  0
 25 26  2  0
 26 27  1  0
 27 28  2  0
 20 10  1  0
 28 23  1  0
 19 13  1  0
  1 29  1  0
  1 30  1  0
  1 31  1  0
  2 32  1  1
  3 33  1  0
  6 34  1  0
  6 35  1  0
  7 36  1  0
 11 37  1  0
 12 38  1  0
 14 39  1  0
 17 40  1  0
 18 41  1  0
 21 42  1  6
 22 43  1  0
 24 44  1  0
 25 45  1  0
 26 46  1  0
 27 47  1  0
 28 48  1  0
M  END
>  <smiles>  (16) 
C[C@H](NC(=O)CNC(=O)c1ccc2cc(Cl)ccc2n1)[C@H](O)c1ccccc1

>  <score_type>  (16) 
oracle

>  <origin>  (16) 
autodockgpu

>  <m_score__min__energy>  (16) 
-8.8800000000000008

>  <m_primary>  (16) 
energy

>  <rmsd>  (16) 
3.7516339718844725

>  <m_score__min__rmsd>  (16) 
3.7516339718844725

>  <meeko>  (16) 
{"free_energy": -8.07, "intermolecular_energy": -10.16, "internal_energy": -2.18, "cluster_size": 37, "cluster_id": 1, "rank_in_cluster": 23}

>  <energy>  (16) 
-8.29

>  <cluster_rmsd>  (16) 
1.41

>  <cluster>  (16) 
1

$$$$

     RDKit          3D

 48 50  0  0  0  0  0  0  0  0999 V2000
  141.2850   78.1850  220.3130 C   0  0  0  0  0  0  0  0  0  0  0  0
  141.4310   77.0170  221.2290 C   0  0  2  0  0  0  0  0  0  0  0  0
  140.7840   75.8160  220.7220 N   0  0  0  0  0  0  0  0  0  0  0  0
  141.5260   74.7310  220.1710 C   0  0  0  0  0  0  0  0  0  0  0  0
  142.7850   74.8530  220.1400 O   0  0  0  0  0  0  0  0  0  0  0  0
  140.8260   73.5170  219.6600 C   0  0  0  0  0  0  0  0  0  0  0  0
  140.7880   72.5660  220.7480 N   0  0  0  0  0  0  0  0  0  0  0  0
  140.1440   72.9310  221.9620 C   0  0  0  0  0  0  0  0  0  0  0  0
  139.5960   74.0600  222.1380 O   0  0  0  0  0  0  0  0  0  0  0  0
  140.1130   71.9590  223.0540 C   0  0  0  0  0  0  0  0  0  0  0  0
  139.5880   70.6960  222.8640 C   0  0  0  0  0  0  0  0  0  0  0  0
  139.5420   69.7550  223.8700 C   0  0  0  0  0  0  0  0  0  0  0  0
  140.0380   70.0860  225.1130 C   0  0  0  0  0  0  0  0  0  0  0  0
  140.0440   69.2280  226.1860 C   0  0  0  0  0  0  0  0  0  0  0  0
  140.5410   69.5890  227.3960 C   0  0  0  0  0  0  0  0  0  0  0  0
  140.5490   68.4970  228.7640 Cl  0  0  0  0  0  0  0  0  0  0  0  0
  141.0680   70.8670  227.5780 C   0  0  0  0  0  0  0  0  0  0  0  0
  141.0830   71.7670  226.5200 C   0  0  0  0  0  0  0  0  0  0  0  0
  140.5630   71.3470  225.3040 C   0  0  0  0  0  0  0  0  0  0  0  0
  140.5850   72.2360  224.2890 N   0  0  0  0  0  0  0  0  0  0  0  0
  140.8440   77.2630  222.5980 C   0  0  2  0  0  0  0  0  0  0  0  0
  139.5220   76.9210  222.6900 O   0  0  0  0  0  0  0  0  0  0  0  0
  141.1600   78.6570  222.9910 C   0  0  0  0  0  0  0  0  0  0  0  0
  142.4710   79.0780  223.1430 C   0  0  0  0  0  0  0  0  0  0  0  0
  142.7190   80.3770  223.5090 C   0  0  0  0  0  0  0  0  0  0  0  0
  141.7460   81.3070  223.7370 C   0  0  0  0  0  0  0  0  0  0  0  0
  140.4290   80.8950  223.5880 C   0  0  0  0  0  0  0  0  0  0  0  0
  140.1720   79.5920  223.2200 C   0  0  0  0  0  0  0  0  0  0  0  0
  141.1701   79.1041  220.9063 H   0  0  0  0  0  0  0  0  0  0  0  0
  142.1798   78.2675  219.6786 H   0  0  0  0  0  0  0  0  0  0  0  0
  140.3974   78.0447  219.6786 H   0  0  0  0  0  0  0  0  0  0  0  0
  142.5199   76.8757  221.2942 H   0  0  0  0  0  0  0  0  0  0  0  0
  139.7340   75.7350  220.7570 H   0  0  0  0  0  0  0  0  0  0  0  0
  139.8035   73.7738  219.3460 H   0  0  0  0  0  0  0  0  0  0  0  0
  141.3498   73.0977  218.7883 H   0  0  0  0  0  0  0  0  0  0  0  0
  141.2200   71.6320  220.6550 H   0  0  0  0  0  0  0  0  0  0  0  0
  139.1917   70.4310  221.8727 H   0  0  0  0  0  0  0  0  0  0  0  0
  139.1171   68.7575  223.6844 H   0  0  0  0  0  0  0  0  0  0  0  0
  139.6326   68.2156  226.0602 H   0  0  0  0  0  0  0  0  0  0  0  0
  141.4713   71.1621  228.5579 H   0  0  0  0  0  0  0  0  0  0  0  0
  141.4939   72.7800  226.6422 H   0  0  0  0  0  0  0  0  0  0  0  0
  141.3091   76.5888  223.3322 H   0  0  0  0  0  0  0  0  0  0  0  0
  139.3560   75.9800  222.9350 H   0  0  0  0  0  0  0  0  0  0  0  0
  143.3033   78.3793  222.9723 H   0  0  0  0  0  0  0  0  0  0  0  0
  143.7675   80.6885  223.6260 H   0  0  0  0  0  0  0  0  0  0  0  0
  141.9951   82.3386  224.0264 H   0  0  0  0  0  0  0  0  0  0  0  0
  139.6017   81.5989  223.7613 H   0  0  0  0  0  0  0  0  0  0  0  0
  139.1234   79.2811  223.1027 H   0  0  0  0  0  0  0  0  0  0  0  0
  1  2  1  0
  2  3  1  0
  3  4  1  0
  4  5  2  0
  4  6  1  0
  6  7  1  0
  7  8  1  0
  8  9  2  0
  8 10  1  0
 10 11  2  0
 11 12  1  0
 12 13  2  0
 13 14  1  0
 14 15  2  0
 15 16  1  0
 15 17  1  0
 17 18  2  0
 18 19  1  0
 19 20  2  0
  2 21  1  0
 21 22  1  0
 21 23  1  0
 23 24  2  0
 24 25  1  0
 25 26  2  0
 26 27  1  0
 27 28  2  0
 20 10  1  0
 28 23  1  0
 19 13  1  0
  1 29  1  0
  1 30  1  0
  1 31  1  0
  2 32  1  1
  3 33  1  0
  6 34  1  0
  6 35  1  0
  7 36  1  0
 11 37  1  0
 12 38  1  0
 14 39  1  0
 17 40  1  0
 18 41  1  0
 21 42  1  1
 22 43  1  0
 24 44  1  0
 25 45  1  0
 26 46  1  0
 27 47  1  0
 28 48  1  0
M  END
>  <smiles>  (17) 
C[C@H](NC(=O)CNC(=O)c1ccc2cc(Cl)ccc2n1)[C@H](O)c1ccccc1

>  <score_type>  (17) 
oracle

>  <origin>  (17) 
autodockgpu

>  <m_score__min__energy>  (17) 
-8.8800000000000008

>  <m_primary>  (17) 
energy

>  <rmsd>  (17) 
4.065364555839904

>  <m_score__min__rmsd>  (17) 
4.065364555839904

>  <meeko>  (17) 
{"free_energy": -8.32, "intermolecular_energy": -10.41, "internal_energy": -2.98, "cluster_size": 37, "cluster_id": 1, "rank_in_cluster": 13}

>  <energy>  (17) 
-8.27

>  <cluster_rmsd>  (17) 
1.69

>  <cluster>  (17) 
1

$$$$

     RDKit          3D

 48 50  0  0  0  0  0  0  0  0999 V2000
  139.1040   78.5400  222.4460 C   0  0  0  0  0  0  0  0  0  0  0  0
  139.6430   78.2220  221.0920 C   0  0  2  0  0  0  0  0  0  0  0  0
  139.3250   76.8700  220.6590 N   0  0  0  0  0  0  0  0  0  0  0  0
  139.4780   75.7440  221.5190 C   0  0  0  0  0  0  0  0  0  0  0  0
  139.9050   75.9680  222.6880 O   0  0  0  0  0  0  0  0  0  0  0  0
  139.1420   74.3730  221.0380 C   0  0  0  0  0  0  0  0  0  0  0  0
  139.3620   73.4740  222.1470 N   0  0  0  0  0  0  0  0  0  0  0  0
  139.2510   72.0720  221.9320 C   0  0  0  0  0  0  0  0  0  0  0  0
  138.9660   71.5690  220.8050 O   0  0  0  0  0  0  0  0  0  0  0  0
  139.4760   71.1730  223.0630 C   0  0  0  0  0  0  0  0  0  0  0  0
  139.0960   69.8470  223.0020 C   0  0  0  0  0  0  0  0  0  0  0  0
  139.2930   68.9720  224.0490 C   0  0  0  0  0  0  0  0  0  0  0  0
  139.8900   69.4370  225.2000 C   0  0  0  0  0  0  0  0  0  0  0  0
  140.1360   68.6550  226.3040 C   0  0  0  0  0  0  0  0  0  0  0  0
  140.7270   69.1490  227.4210 C   0  0  0  0  0  0  0  0  0  0  0  0
  141.0390   68.1540  228.8270 Cl  0  0  0  0  0  0  0  0  0  0  0  0
  141.1060   70.4890  227.4730 C   0  0  0  0  0  0  0  0  0  0  0  0
  140.8780   71.3170  226.3810 C   0  0  0  0  0  0  0  0  0  0  0  0
  140.2710   70.7620  225.2630 C   0  0  0  0  0  0  0  0  0  0  0  0
  140.0570   71.5820  224.2130 N   0  0  0  0  0  0  0  0  0  0  0  0
  141.1460   78.3470  221.0110 C   0  0  2  0  0  0  0  0  0  0  0  0
  141.7950   77.1460  221.1140 O   0  0  0  0  0  0  0  0  0  0  0  0
  141.5760   79.3770  221.9850 C   0  0  0  0  0  0  0  0  0  0  0  0
  141.3950   80.7260  221.7270 C   0  0  0  0  0  0  0  0  0  0  0  0
  141.8090   81.6470  222.6560 C   0  0  0  0  0  0  0  0  0  0  0  0
  142.3980   81.3240  223.8450 C   0  0  0  0  0  0  0  0  0  0  0  0
  142.5830   79.9750  224.1130 C   0  0  0  0  0  0  0  0  0  0  0  0
  142.1700   79.0430  223.1850 C   0  0  0  0  0  0  0  0  0  0  0  0
  139.7823   78.1398  223.2139 H   0  0  0  0  0  0  0  0  0  0  0  0
  139.0225   79.6309  222.5613 H   0  0  0  0  0  0  0  0  0  0  0  0
  138.1097   78.0838  222.5613 H   0  0  0  0  0  0  0  0  0  0  0  0
  139.1570   78.9633  220.4407 H   0  0  0  0  0  0  0  0  0  0  0  0
  138.9710   76.7060  219.6800 H   0  0  0  0  0  0  0  0  0  0  0  0
  138.0899   74.3309  220.7198 H   0  0  0  0  0  0  0  0  0  0  0  0
  139.7653   74.0944  220.1755 H   0  0  0  0  0  0  0  0  0  0  0  0
  139.5970   73.8330  223.0870 H   0  0  0  0  0  0  0  0  0  0  0  0
  138.6182   69.4749  222.0837 H   0  0  0  0  0  0  0  0  0  0  0  0
  138.9790   67.9210  223.9667 H   0  0  0  0  0  0  0  0  0  0  0  0
  139.8442   67.5947  226.2808 H   0  0  0  0  0  0  0  0  0  0  0  0
  141.5853   70.8908  228.3779 H   0  0  0  0  0  0  0  0  0  0  0  0
  141.1690   72.3776  226.4017 H   0  0  0  0  0  0  0  0  0  0  0  0
  141.4408   78.6851  220.0066 H   0  0  0  0  0  0  0  0  0  0  0  0
  141.8250   76.7710  222.0260 H   0  0  0  0  0  0  0  0  0  0  0  0
  140.9249   81.0549  220.7885 H   0  0  0  0  0  0  0  0  0  0  0  0
  141.6569   82.7125  222.4288 H   0  0  0  0  0  0  0  0  0  0  0  0
  142.7121   82.0994  224.5592 H   0  0  0  0  0  0  0  0  0  0  0  0
  143.0532   79.6535  225.0540 H   0  0  0  0  0  0  0  0  0  0  0  0
  142.3218   77.9776  223.4129 H   0  0  0  0  0  0  0  0  0  0  0  0
  1  2  1  0
  2  3  1  0
  3  4  1  0
  4  5  2  0
  4  6  1  0
  6  7  1  0
  7  8  1  0
  8  9  2  0
  8 10  1  0
 10 11  2  0
 11 12  1  0
 12 13  2  0
 13 14  1  0
 14 15  2  0
 15 16  1  0
 15 17  1  0
 17 18  2  0
 18 19  1  0
 19 20  2  0
  2 21  1  0
 21 22  1  0
 21 23  1  0
 23 24  2  0
 24 25  1  0
 25 26  2  0
 26 27  1  0
 27 28  2  0
 20 10  1  0
 28 23  1  0
 19 13  1  0
  1 29  1  0
  1 30  1  0
  1 31  1  0
  2 32  1  6
  3 33  1  0
  6 34  1  0
  6 35  1  0
  7 36  1  0
 11 37  1  0
 12 38  1  0
 14 39  1  0
 17 40  1  0
 18 41  1  0
 21 42  1  6
 22 43  1  0
 24 44  1  0
 25 45  1  0
 26 46  1  0
 27 47  1  0
 28 48  1  0
M  END
>  <smiles>  (18) 
C[C@H](NC(=O)CNC(=O)c1ccc2cc(Cl)ccc2n1)[C@H](O)c1ccccc1

>  <score_type>  (18) 
oracle

>  <origin>  (18) 
autodockgpu

>  <m_score__min__energy>  (18) 
-8.8800000000000008

>  <m_primary>  (18) 
energy

>  <rmsd>  (18) 
3.987831154892868

>  <m_score__min__rmsd>  (18) 
3.987831154892868

>  <meeko>  (18) 
{"free_energy": -8.6, "intermolecular_energy": -10.69, "internal_energy": -2.43, "cluster_size": 37, "cluster_id": 1, "rank_in_cluster": 7}

>  <energy>  (18) 
-8.2

>  <cluster_rmsd>  (18) 
1.25

>  <cluster>  (18) 
1

$$$$

     RDKit          3D

 48 50  0  0  0  0  0  0  0  0999 V2000
  140.8850   77.6150  220.3960 C   0  0  0  0  0  0  0  0  0  0  0  0
  141.1250   76.4870  221.3420 C   0  0  2  0  0  0  0  0  0  0  0  0
  140.5080   75.2420  220.9060 N   0  0  0  0  0  0  0  0  0  0  0  0
  141.1070   74.4060  219.9190 C   0  0  0  0  0  0  0  0  0  0  0  0
  142.2080   74.7920  219.4310 O   0  0  0  0  0  0  0  0  0  0  0  0
  140.4430   73.1380  219.4990 C   0  0  0  0  0  0  0  0  0  0  0  0
  140.4240   72.2710  220.6550 N   0  0  0  0  0  0  0  0  0  0  0  0
  139.5420   72.5720  221.7290 C   0  0  0  0  0  0  0  0  0  0  0  0
  138.7650   73.5720  221.7220 O   0  0  0  0  0  0  0  0  0  0  0  0
  139.5330   71.6860  222.8920 C   0  0  0  0  0  0  0  0  0  0  0  0
  138.7260   70.5670  222.9250 C   0  0  0  0  0  0  0  0  0  0  0  0
  138.6910   69.7090  224.0030 C   0  0  0  0  0  0  0  0  0  0  0  0
  139.4930   69.9800  225.0920 C   0  0  0  0  0  0  0  0  0  0  0  0
  139.5400   69.1950  226.2200 C   0  0  0  0  0  0  0  0  0  0  0  0
  140.3420   69.4930  227.2730 C   0  0  0  0  0  0  0  0  0  0  0  0
  140.4020   68.4950  228.7100 Cl  0  0  0  0  0  0  0  0  0  0  0  0
  141.1530   70.6260  227.2300 C   0  0  0  0  0  0  0  0  0  0  0  0
  141.1390   71.4470  226.1110 C   0  0  0  0  0  0  0  0  0  0  0  0
  140.3010   71.0970  225.0610 C   0  0  0  0  0  0  0  0  0  0  0  0
  140.3000   71.9080  223.9820 N   0  0  0  0  0  0  0  0  0  0  0  0
  140.5910   76.7560  222.7280 C   0  0  2  0  0  0  0  0  0  0  0  0
  139.3160   76.2960  222.9170 O   0  0  0  0  0  0  0  0  0  0  0  0
  140.7890   78.1940  223.0270 C   0  0  0  0  0  0  0  0  0  0  0  0
  142.0570   78.7180  223.2190 C   0  0  0  0  0  0  0  0  0  0  0  0
  142.1950   80.0550  223.4940 C   0  0  0  0  0  0  0  0  0  0  0  0
  141.1500   80.9280  223.5930 C   0  0  0  0  0  0  0  0  0  0  0  0
  139.8760   80.4140  223.4020 C   0  0  0  0  0  0  0  0  0  0  0  0
  139.7280   79.0710  223.1250 C   0  0  0  0  0  0  0  0  0  0  0  0
  140.6891   78.5356  220.9653 H   0  0  0  0  0  0  0  0  0  0  0  0
  141.7729   77.7575  219.7625 H   0  0  0  0  0  0  0  0  0  0  0  0
  140.0160   77.3837  219.7625 H   0  0  0  0  0  0  0  0  0  0  0  0
  142.2209   76.3941  221.3600 H   0  0  0  0  0  0  0  0  0  0  0  0
  139.5910   74.9400  221.3260 H   0  0  0  0  0  0  0  0  0  0  0  0
  139.4158   73.3424  219.1625 H   0  0  0  0  0  0  0  0  0  0  0  0
  140.9834   72.6686  218.6637 H   0  0  0  0  0  0  0  0  0  0  0  0
  141.0390   71.4420  220.7100 H   0  0  0  0  0  0  0  0  0  0  0  0
  138.0856   70.3514  222.0570 H   0  0  0  0  0  0  0  0  0  0  0  0
  138.0361   68.8252  223.9951 H   0  0  0  0  0  0  0  0  0  0  0  0
  138.9071   68.2967  226.2702 H   0  0  0  0  0  0  0  0  0  0  0  0
  141.8039   70.8693  228.0827 H   0  0  0  0  0  0  0  0  0  0  0  0
  141.7712   72.3456  226.0579 H   0  0  0  0  0  0  0  0  0  0  0  0
  141.1592   76.1729  223.4677 H   0  0  0  0  0  0  0  0  0  0  0  0
  139.2390   75.3150  222.9930 H   0  0  0  0  0  0  0  0  0  0  0  0
  142.9430   78.0695  223.1517 H   0  0  0  0  0  0  0  0  0  0  0  0
  143.2113   80.4482  223.6441 H   0  0  0  0  0  0  0  0  0  0  0  0
  141.3115   81.9933  223.8147 H   0  0  0  0  0  0  0  0  0  0  0  0
  138.9950   81.0690  223.4705 H   0  0  0  0  0  0  0  0  0  0  0  0
  138.7115   78.6786  222.9744 H   0  0  0  0  0  0  0  0  0  0  0  0
  1  2  1  0
  2  3  1  0
  3  4  1  0
  4  5  2  0
  4  6  1  0
  6  7  1  0
  7  8  1  0
  8  9  2  0
  8 10  1  0
 10 11  2  0
 11 12  1  0
 12 13  2  0
 13 14  1  0
 14 15  2  0
 15 16  1  0
 15 17  1  0
 17 18  2  0
 18 19  1  0
 19 20  2  0
  2 21  1  0
 21 22  1  0
 21 23  1  0
 23 24  2  0
 24 25  1  0
 25 26  2  0
 26 27  1  0
 27 28  2  0
 20 10  1  0
 28 23  1  0
 19 13  1  0
  1 29  1  0
  1 30  1  0
  1 31  1  0
  2 32  1  1
  3 33  1  0
  6 34  1  0
  6 35  1  0
  7 36  1  0
 11 37  1  0
 12 38  1  0
 14 39  1  0
 17 40  1  0
 18 41  1  0
 21 42  1  1
 22 43  1  0
 24 44  1  0
 25 45  1  0
 26 46  1  0
 27 47  1  0
 28 48  1  0
M  END
>  <smiles>  (19) 
C[C@H](NC(=O)CNC(=O)c1ccc2cc(Cl)ccc2n1)[C@H](O)c1ccccc1

>  <score_type>  (19) 
oracle

>  <origin>  (19) 
autodockgpu

>  <m_score__min__energy>  (19) 
-8.8800000000000008

>  <m_primary>  (19) 
energy

>  <rmsd>  (19) 
4.155508437059241

>  <m_score__min__rmsd>  (19) 
4.155508437059241

>  <meeko>  (19) 
{"free_energy": -7.43, "intermolecular_energy": -9.52, "internal_energy": -3.13, "cluster_size": 37, "cluster_id": 1, "rank_in_cluster": 34}

>  <energy>  (19) 
-8.17

>  <cluster_rmsd>  (19) 
1.51

>  <cluster>  (19) 
1

$$$$

     RDKit          3D

 48 50  0  0  0  0  0  0  0  0999 V2000
  140.6170   71.4630  225.5290 C   0  0  0  0  0  0  0  0  0  0  0  0
  139.8880   70.6870  224.4840 C   0  0  2  0  0  0  0  0  0  0  0  0
  138.9510   71.5020  223.7250 N   0  0  0  0  0  0  0  0  0  0  0  0
  139.2210   71.9210  222.3900 C   0  0  0  0  0  0  0  0  0  0  0  0
  140.3200   71.5530  221.8840 O   0  0  0  0  0  0  0  0  0  0  0  0
  138.2350   72.7570  221.6460 C   0  0  0  0  0  0  0  0  0  0  0  0
  137.3200   73.2980  222.6240 N   0  0  0  0  0  0  0  0  0  0  0  0
  136.3510   72.4390  223.2130 C   0  0  0  0  0  0  0  0  0  0  0  0
  136.2520   71.2110  222.9190 O   0  0  0  0  0  0  0  0  0  0  0  0
  135.4320   72.9990  224.2020 C   0  0  0  0  0  0  0  0  0  0  0  0
  134.6640   72.1770  225.0030 C   0  0  0  0  0  0  0  0  0  0  0  0
  133.7870   72.6700  225.9450 C   0  0  0  0  0  0  0  0  0  0  0  0
  133.6710   74.0360  226.0930 C   0  0  0  0  0  0  0  0  0  0  0  0
  132.8300   74.6370  226.9990 C   0  0  0  0  0  0  0  0  0  0  0  0
  132.7420   75.9860  227.1170 C   0  0  0  0  0  0  0  0  0  0  0  0
  131.6710   76.7520  228.2700 Cl  0  0  0  0  0  0  0  0  0  0  0  0
  133.5200   76.8070  226.3030 C   0  0  0  0  0  0  0  0  0  0  0  0
  134.3840   76.2430  225.3740 C   0  0  0  0  0  0  0  0  0  0  0  0
  134.4370   74.8590  225.2940 C   0  0  0  0  0  0  0  0  0  0  0  0
  135.2820   74.3290  224.3840 N   0  0  0  0  0  0  0  0  0  0  0  0
  139.0830   69.5430  225.0530 C   0  0  2  0  0  0  0  0  0  0  0  0
  137.7500   69.8270  225.1780 O   0  0  0  0  0  0  0  0  0  0  0  0
  139.7460   69.0880  226.2980 C   0  0  0  0  0  0  0  0  0  0  0  0
  140.8010   68.1900  226.2600 C   0  0  0  0  0  0  0  0  0  0  0  0
  141.3860   67.7940  227.4370 C   0  0  0  0  0  0  0  0  0  0  0  0
  140.9970   68.2320  228.6700 C   0  0  0  0  0  0  0  0  0  0  0  0
  139.9420   69.1320  228.7190 C   0  0  0  0  0  0  0  0  0  0  0  0
  139.3480   69.5340  227.5410 C   0  0  0  0  0  0  0  0  0  0  0  0
  140.2988   71.1243  226.5260 H   0  0  0  0  0  0  0  0  0  0  0  0
  141.6995   71.3035  225.4158 H   0  0  0  0  0  0  0  0  0  0  0  0
  140.3903   72.5334  225.4158 H   0  0  0  0  0  0  0  0  0  0  0  0
  140.6920   70.3101  223.8347 H   0  0  0  0  0  0  0  0  0  0  0  0
  138.0410   71.7970  224.1670 H   0  0  0  0  0  0  0  0  0  0  0  0
  138.7519   73.5730  221.1198 H   0  0  0  0  0  0  0  0  0  0  0  0
  137.6991   72.1583  220.8947 H   0  0  0  0  0  0  0  0  0  0  0  0
  137.3600   74.2940  222.8990 H   0  0  0  0  0  0  0  0  0  0  0  0
  134.7557   71.0872  224.8847 H   0  0  0  0  0  0  0  0  0  0  0  0
  133.1907   71.9864  226.5672 H   0  0  0  0  0  0  0  0  0  0  0  0
  132.2083   74.0041  227.6493 H   0  0  0  0  0  0  0  0  0  0  0  0
  133.4497   77.9008  226.3964 H   0  0  0  0  0  0  0  0  0  0  0  0
  135.0067   76.8734  224.7222 H   0  0  0  0  0  0  0  0  0  0  0  0
  139.0748   68.7019  224.3442 H   0  0  0  0  0  0  0  0  0  0  0  0
  137.2960   70.0500  224.3310 H   0  0  0  0  0  0  0  0  0  0  0  0
  141.1651   67.7993  225.2983 H   0  0  0  0  0  0  0  0  0  0  0  0
  142.2203   67.0791  227.3832 H   0  0  0  0  0  0  0  0  0  0  0  0
  141.4986   67.8862  229.5859 H   0  0  0  0  0  0  0  0  0  0  0  0
  139.5843   69.5196  229.6843 H   0  0  0  0  0  0  0  0  0  0  0  0
  138.5129   70.2479  227.5957 H   0  0  0  0  0  0  0  0  0  0  0  0
  1  2  1  0
  2  3  1  0
  3  4  1  0
  4  5  2  0
  4  6  1  0
  6  7  1  0
  7  8  1  0
  8  9  2  0
  8 10  1  0
 10 11  2  0
 11 12  1  0
 12 13  2  0
 13 14  1  0
 14 15  2  0
 15 16  1  0
 15 17  1  0
 17 18  2  0
 18 19  1  0
 19 20  2  0
  2 21  1  0
 21 22  1  0
 21 23  1  0
 23 24  2  0
 24 25  1  0
 25 26  2  0
 26 27  1  0
 27 28  2  0
 20 10  1  0
 28 23  1  0
 19 13  1  0
  1 29  1  0
  1 30  1  0
  1 31  1  0
  2 32  1  6
  3 33  1  0
  6 34  1  0
  6 35  1  0
  7 36  1  0
 11 37  1  0
 12 38  1  0
 14 39  1  0
 17 40  1  0
 18 41  1  0
 21 42  1  6
 22 43  1  0
 24 44  1  0
 25 45  1  0
 26 46  1  0
 27 47  1  0
 28 48  1  0
M  END
>  <smiles>  (20) 
C[C@H](NC(=O)CNC(=O)c1ccc2cc(Cl)ccc2n1)[C@H](O)c1ccccc1

>  <score_type>  (20) 
oracle

>  <origin>  (20) 
autodockgpu

>  <m_score__min__energy>  (20) 
-8.8800000000000008

>  <m_primary>  (20) 
energy

>  <rmsd>  (20) 
10.001900484086114

>  <m_score__min__rmsd>  (20) 
10.001900484086114

>  <meeko>  (20) 
{"free_energy": -7.06, "intermolecular_energy": -9.15, "internal_energy": -3.23, "cluster_size": 5, "cluster_id": 5, "rank_in_cluster": 1}

>  <energy>  (20) 
-8.13

>  <cluster_rmsd>  (20) 
1.72

>  <cluster>  (20) 
1

$$$$

     RDKit          3D

 48 50  0  0  0  0  0  0  0  0999 V2000
  141.0370   76.8760  220.9090 C   0  0  0  0  0  0  0  0  0  0  0  0
  140.4100   76.6250  222.2390 C   0  0  2  0  0  0  0  0  0  0  0  0
  139.5280   75.4680  222.2390 N   0  0  0  0  0  0  0  0  0  0  0  0
  138.5530   75.2580  221.2210 C   0  0  0  0  0  0  0  0  0  0  0  0
  138.4840   76.1270  220.3050 O   0  0  0  0  0  0  0  0  0  0  0  0
  137.6670   74.0590  221.2570 C   0  0  0  0  0  0  0  0  0  0  0  0
  138.1580   73.2060  222.3150 N   0  0  0  0  0  0  0  0  0  0  0  0
  137.8310   71.8220  222.2950 C   0  0  0  0  0  0  0  0  0  0  0  0
  137.1230   71.2960  221.3860 O   0  0  0  0  0  0  0  0  0  0  0  0
  138.3340   70.9700  223.3710 C   0  0  0  0  0  0  0  0  0  0  0  0
  137.9860   69.6360  223.4420 C   0  0  0  0  0  0  0  0  0  0  0  0
  138.4420   68.8040  224.4420 C   0  0  0  0  0  0  0  0  0  0  0  0
  139.2760   69.3230  225.4090 C   0  0  0  0  0  0  0  0  0  0  0  0
  139.7900   68.5870  226.4500 C   0  0  0  0  0  0  0  0  0  0  0  0
  140.6090   69.1330  227.3840 C   0  0  0  0  0  0  0  0  0  0  0  0
  141.2640   68.1970  228.7110 Cl  0  0  0  0  0  0  0  0  0  0  0  0
  140.9540   70.4820  227.3040 C   0  0  0  0  0  0  0  0  0  0  0  0
  140.4590   71.2630  226.2690 C   0  0  0  0  0  0  0  0  0  0  0  0
  139.6250   70.6560  225.3400 C   0  0  0  0  0  0  0  0  0  0  0  0
  139.1530   71.4320  224.3420 N   0  0  0  0  0  0  0  0  0  0  0  0
  139.5780   77.7870  222.7270 C   0  0  2  0  0  0  0  0  0  0  0  0
  138.5090   78.0650  221.9190 O   0  0  0  0  0  0  0  0  0  0  0  0
  140.4860   78.9300  222.9800 C   0  0  0  0  0  0  0  0  0  0  0  0
  141.7110   78.7470  223.5990 C   0  0  0  0  0  0  0  0  0  0  0  0
  142.5220   79.8340  223.8150 C   0  0  0  0  0  0  0  0  0  0  0  0
  142.2020   81.1110  223.4540 C   0  0  0  0  0  0  0  0  0  0  0  0
  140.9770   81.3050  222.8320 C   0  0  0  0  0  0  0  0  0  0  0  0
  140.1570   80.2180  222.6120 C   0  0  0  0  0  0  0  0  0  0  0  0
  142.0496   77.2814  221.0516 H   0  0  0  0  0  0  0  0  0  0  0  0
  141.0957   75.9321  220.3473 H   0  0  0  0  0  0  0  0  0  0  0  0
  140.4281   77.5997  220.3473 H   0  0  0  0  0  0  0  0  0  0  0  0
  141.2709   76.4586  222.9032 H   0  0  0  0  0  0  0  0  0  0  0  0
  139.6030   74.7560  223.0120 H   0  0  0  0  0  0  0  0  0  0  0  0
  136.6300   74.3611  221.4651 H   0  0  0  0  0  0  0  0  0  0  0  0
  137.6765   73.5332  220.2909 H   0  0  0  0  0  0  0  0  0  0  0  0
  138.7410   73.5860  223.0800 H   0  0  0  0  0  0  0  0  0  0  0  0
  137.3196   69.2212  222.6714 H   0  0  0  0  0  0  0  0  0  0  0  0
  138.1457   67.7450  224.4678 H   0  0  0  0  0  0  0  0  0  0  0  0
  139.5290   67.5213  226.5284 H   0  0  0  0  0  0  0  0  0  0  0  0
  141.6176   70.9264  228.0603 H   0  0  0  0  0  0  0  0  0  0  0  0
  140.7192   72.3287  226.1874 H   0  0  0  0  0  0  0  0  0  0  0  0
  139.0887   77.5247  223.6766 H   0  0  0  0  0  0  0  0  0  0  0  0
  138.5300   77.6180  221.0390 H   0  0  0  0  0  0  0  0  0  0  0  0
  142.0308   77.7428  223.9140 H   0  0  0  0  0  0  0  0  0  0  0  0
  143.4898   79.6651  224.3098 H   0  0  0  0  0  0  0  0  0  0  0  0
  142.8861   81.9503  223.6479 H   0  0  0  0  0  0  0  0  0  0  0  0
  140.6641   82.3119  222.5186 H   0  0  0  0  0  0  0  0  0  0  0  0
  139.1894   80.3872  222.1169 H   0  0  0  0  0  0  0  0  0  0  0  0
  1  2  1  0
  2  3  1  0
  3  4  1  0
  4  5  2  0
  4  6  1  0
  6  7  1  0
  7  8  1  0
  8  9  2  0
  8 10  1  0
 10 11  2  0
 11 12  1  0
 12 13  2  0
 13 14  1  0
 14 15  2  0
 15 16  1  0
 15 17  1  0
 17 18  2  0
 18 19  1  0
 19 20  2  0
  2 21  1  0
 21 22  1  0
 21 23  1  0
 23 24  2  0
 24 25  1  0
 25 26  2  0
 26 27  1  0
 27 28  2  0
 20 10  1  0
 28 23  1  0
 19 13  1  0
  1 29  1  0
  1 30  1  0
  1 31  1  0
  2 32  1  1
  3 33  1  0
  6 34  1  0
  6 35  1  0
  7 36  1  0
 11 37  1  0
 12 38  1  0
 14 39  1  0
 17 40  1  0
 18 41  1  0
 21 42  1  1
 22 43  1  0
 24 44  1  0
 25 45  1  0
 26 46  1  0
 27 47  1  0
 28 48  1  0
M  END
>  <smiles>  (21) 
C[C@H](NC(=O)CNC(=O)c1ccc2cc(Cl)ccc2n1)[C@H](O)c1ccccc1

>  <score_type>  (21) 
oracle

>  <origin>  (21) 
autodockgpu

>  <m_score__min__energy>  (21) 
-8.8800000000000008

>  <m_primary>  (21) 
energy

>  <rmsd>  (21) 
4.260125948904461

>  <m_score__min__rmsd>  (21) 
4.260125948904461

>  <meeko>  (21) 
{"free_energy": -8.13, "intermolecular_energy": -10.22, "internal_energy": -1.91, "cluster_size": 37, "cluster_id": 1, "rank_in_cluster": 20}

>  <energy>  (21) 
-8.1

>  <cluster_rmsd>  (21) 
1.62

>  <cluster>  (21) 
1

$$$$

     RDKit          3D

 48 50  0  0  0  0  0  0  0  0999 V2000
  137.1370   69.7280  224.5530 C   0  0  0  0  0  0  0  0  0  0  0  0
  138.5690   70.1400  224.6190 C   0  0  2  0  0  0  0  0  0  0  0  0
  139.0130   70.8360  223.4200 N   0  0  0  0  0  0  0  0  0  0  0  0
  138.8840   70.2650  222.1210 C   0  0  0  0  0  0  0  0  0  0  0  0
  138.3620   69.1150  222.0490 O   0  0  0  0  0  0  0  0  0  0  0  0
  139.3530   71.0090  220.9170 C   0  0  0  0  0  0  0  0  0  0  0  0
  138.9870   72.3930  221.1110 N   0  0  0  0  0  0  0  0  0  0  0  0
  139.8530   73.2390  221.8580 C   0  0  0  0  0  0  0  0  0  0  0  0
  140.9400   72.8330  222.3660 O   0  0  0  0  0  0  0  0  0  0  0  0
  139.4700   74.6370  222.0460 C   0  0  0  0  0  0  0  0  0  0  0  0
  138.1470   75.0260  221.9730 C   0  0  0  0  0  0  0  0  0  0  0  0
  137.7500   76.3350  222.1450 C   0  0  0  0  0  0  0  0  0  0  0  0
  138.7080   77.2920  222.3990 C   0  0  0  0  0  0  0  0  0  0  0  0
  138.4270   78.6250  222.5870 C   0  0  0  0  0  0  0  0  0  0  0  0
  139.3980   79.5390  222.8340 C   0  0  0  0  0  0  0  0  0  0  0  0
  139.0410   81.2360  223.0730 Cl  0  0  0  0  0  0  0  0  0  0  0  0
  140.7310   79.1360  222.9050 C   0  0  0  0  0  0  0  0  0  0  0  0
  141.0620   77.8000  222.7220 C   0  0  0  0  0  0  0  0  0  0  0  0
  140.0310   76.9060  222.4720 C   0  0  0  0  0  0  0  0  0  0  0  0
  140.3720   75.6120  222.2960 N   0  0  0  0  0  0  0  0  0  0  0  0
  139.5100   68.9740  224.8010 C   0  0  2  0  0  0  0  0  0  0  0  0
  138.9290   67.7620  224.5380 O   0  0  0  0  0  0  0  0  0  0  0  0
  140.1370   69.0910  226.1380 C   0  0  0  0  0  0  0  0  0  0  0  0
  140.4570   67.9660  226.8800 C   0  0  0  0  0  0  0  0  0  0  0  0
  141.0360   68.1200  228.1150 C   0  0  0  0  0  0  0  0  0  0  0  0
  141.3270   69.3290  228.6790 C   0  0  0  0  0  0  0  0  0  0  0  0
  141.0100   70.4630  227.9440 C   0  0  0  0  0  0  0  0  0  0  0  0
  140.4290   70.3160  226.7020 C   0  0  0  0  0  0  0  0  0  0  0  0
  136.7409   69.6140  225.5728 H   0  0  0  0  0  0  0  0  0  0  0  0
  136.5587   70.4962  224.0187 H   0  0  0  0  0  0  0  0  0  0  0  0
  137.0553   68.7699  224.0187 H   0  0  0  0  0  0  0  0  0  0  0  0
  138.6060   70.8072  225.4928 H   0  0  0  0  0  0  0  0  0  0  0  0
  139.4460   71.7930  223.5040 H   0  0  0  0  0  0  0  0  0  0  0  0
  140.4445   70.9167  220.8165 H   0  0  0  0  0  0  0  0  0  0  0  0
  138.8961   70.6052  220.0015 H   0  0  0  0  0  0  0  0  0  0  0  0
  138.1100   72.7740  220.7160 H   0  0  0  0  0  0  0  0  0  0  0  0
  137.3812   74.2629  221.7700 H   0  0  0  0  0  0  0  0  0  0  0  0
  136.6870   76.6105  222.0806 H   0  0  0  0  0  0  0  0  0  0  0  0
  137.3808   78.9608  222.5354 H   0  0  0  0  0  0  0  0  0  0  0  0
  141.5198   79.8759  223.1058 H   0  0  0  0  0  0  0  0  0  0  0  0
  142.1074   77.4616  222.7736 H   0  0  0  0  0  0  0  0  0  0  0  0
  140.3090   69.0168  224.0461 H   0  0  0  0  0  0  0  0  0  0  0  0
  138.6280   67.6430  223.6060 H   0  0  0  0  0  0  0  0  0  0  0  0
  140.2496   66.9609  226.4842 H   0  0  0  0  0  0  0  0  0  0  0  0
  141.2809   67.2124  228.6862 H   0  0  0  0  0  0  0  0  0  0  0  0
  141.7926   69.4012  229.6730 H   0  0  0  0  0  0  0  0  0  0  0  0
  141.2193   71.4650  228.3466 H   0  0  0  0  0  0  0  0  0  0  0  0
  140.1854   71.2237  226.1304 H   0  0  0  0  0  0  0  0  0  0  0  0
  1  2  1  0
  2  3  1  0
  3  4  1  0
  4  5  2  0
  4  6  1  0
  6  7  1  0
  7  8  1  0
  8  9  2  0
  8 10  1  0
 10 11  2  0
 11 12  1  0
 12 13  2  0
 13 14  1  0
 14 15  2  0
 15 16  1  0
 15 17  1  0
 17 18  2  0
 18 19  1  0
 19 20  2  0
  2 21  1  0
 21 22  1  0
 21 23  1  0
 23 24  2  0
 24 25  1  0
 25 26  2  0
 26 27  1  0
 27 28  2  0
 20 10  1  0
 28 23  1  0
 19 13  1  0
  1 29  1  0
  1 30  1  0
  1 31  1  0
  2 32  1  1
  3 33  1  0
  6 34  1  0
  6 35  1  0
  7 36  1  0
 11 37  1  0
 12 38  1  0
 14 39  1  0
 17 40  1  0
 18 41  1  0
 21 42  1  6
 22 43  1  0
 24 44  1  0
 25 45  1  0
 26 46  1  0
 27 47  1  0
 28 48  1  0
M  END
>  <smiles>  (22) 
C[C@H](NC(=O)CNC(=O)c1ccc2cc(Cl)ccc2n1)[C@H](O)c1ccccc1

>  <score_type>  (22) 
oracle

>  <origin>  (22) 
autodockgpu

>  <m_score__min__energy>  (22) 
-8.8800000000000008

>  <m_primary>  (22) 
energy

>  <rmsd>  (22) 
10.277784814487973

>  <m_score__min__rmsd>  (22) 
10.277784814487973

>  <meeko>  (22) 
{"free_energy": -7.5, "intermolecular_energy": -9.58, "internal_energy": -2.46, "cluster_size": 5, "cluster_id": 4, "rank_in_cluster": 1}

>  <energy>  (22) 
-8.1

>  <cluster_rmsd>  (22) 
1.61

>  <cluster>  (22) 
1

$$$$

     RDKit          3D

 48 50  0  0  0  0  0  0  0  0999 V2000
  138.9410   79.0030  223.3550 C   0  0  0  0  0  0  0  0  0  0  0  0
  138.8990   79.0020  221.8640 C   0  0  2  0  0  0  0  0  0  0  0  0
  139.3490   77.7440  221.2860 N   0  0  0  0  0  0  0  0  0  0  0  0
  139.0000   76.4830  221.8520 C   0  0  0  0  0  0  0  0  0  0  0  0
  138.2740   76.5000  222.8880 O   0  0  0  0  0  0  0  0  0  0  0  0
  139.4810   75.2160  221.2310 C   0  0  0  0  0  0  0  0  0  0  0  0
  139.5680   74.2370  222.2900 N   0  0  0  0  0  0  0  0  0  0  0  0
  139.8450   72.8820  221.9570 C   0  0  0  0  0  0  0  0  0  0  0  0
  140.0210   72.4890  220.7660 O   0  0  0  0  0  0  0  0  0  0  0  0
  139.9310   71.9020  223.0390 C   0  0  0  0  0  0  0  0  0  0  0  0
  139.5320   70.5950  222.8450 C   0  0  0  0  0  0  0  0  0  0  0  0
  139.5980   69.6440  223.8410 C   0  0  0  0  0  0  0  0  0  0  0  0
  140.0810   70.0130  225.0780 C   0  0  0  0  0  0  0  0  0  0  0  0
  140.1930   69.1500  226.1430 C   0  0  0  0  0  0  0  0  0  0  0  0
  140.6730   69.5480  227.3480 C   0  0  0  0  0  0  0  0  0  0  0  0
  140.8140   68.4510  228.7040 Cl  0  0  0  0  0  0  0  0  0  0  0  0
  141.0730   70.8710  227.5330 C   0  0  0  0  0  0  0  0  0  0  0  0
  140.9790   71.7770  226.4860 C   0  0  0  0  0  0  0  0  0  0  0  0
  140.4810   71.3180  225.2740 C   0  0  0  0  0  0  0  0  0  0  0  0
  140.3970   72.2140  224.2680 N   0  0  0  0  0  0  0  0  0  0  0  0
  139.7610   80.0780  221.2490 C   0  0  2  0  0  0  0  0  0  0  0  0
  140.0640   79.8440  219.9340 O   0  0  0  0  0  0  0  0  0  0  0  0
  140.9310   80.2930  222.1330 C   0  0  0  0  0  0  0  0  0  0  0  0
  141.9810   79.3910  222.1620 C   0  0  0  0  0  0  0  0  0  0  0  0
  143.0450   79.6280  222.9960 C   0  0  0  0  0  0  0  0  0  0  0  0
  143.1470   80.7140  223.8170 C   0  0  0  0  0  0  0  0  0  0  0  0
  142.1000   81.6250  223.7950 C   0  0  0  0  0  0  0  0  0  0  0  0
  141.0270   81.3940  222.9590 C   0  0  0  0  0  0  0  0  0  0  0  0
  137.9149   78.9786  223.7507 H   0  0  0  0  0  0  0  0  0  0  0  0
  139.4909   78.1177  223.7069 H   0  0  0  0  0  0  0  0  0  0  0  0
  139.4481   79.9135  223.7069 H   0  0  0  0  0  0  0  0  0  0  0  0
  137.8374   79.1782  221.6359 H   0  0  0  0  0  0  0  0  0  0  0  0
  139.9530   77.7530  220.4230 H   0  0  0  0  0  0  0  0  0  0  0  0
  138.7713   74.8787  220.4612 H   0  0  0  0  0  0  0  0  0  0  0  0
  140.4581   75.3606  220.7469 H   0  0  0  0  0  0  0  0  0  0  0  0
  139.4330   74.5070  223.2790 H   0  0  0  0  0  0  0  0  0  0  0  0
  139.1465   70.3008  221.8577 H   0  0  0  0  0  0  0  0  0  0  0  0
  139.2715   68.6107  223.6521 H   0  0  0  0  0  0  0  0  0  0  0  0
  139.8832   68.1025  226.0136 H   0  0  0  0  0  0  0  0  0  0  0  0
  141.4630   71.1965  228.5087 H   0  0  0  0  0  0  0  0  0  0  0  0
  141.2890   72.8248  226.6122 H   0  0  0  0  0  0  0  0  0  0  0  0
  139.1990   81.0220  221.1931 H   0  0  0  0  0  0  0  0  0  0  0  0
  139.3070   79.5250  219.3880 H   0  0  0  0  0  0  0  0  0  0  0  0
  141.9627   78.4950  221.5242 H   0  0  0  0  0  0  0  0  0  0  0  0
  143.8671   78.8971  223.0034 H   0  0  0  0  0  0  0  0  0  0  0  0
  144.0214   80.8608  224.4680 H   0  0  0  0  0  0  0  0  0  0  0  0
  142.1254   82.5190  224.4354 H   0  0  0  0  0  0  0  0  0  0  0  0
  140.2055   82.1255  222.9506 H   0  0  0  0  0  0  0  0  0  0  0  0
  1  2  1  0
  2  3  1  0
  3  4  1  0
  4  5  2  0
  4  6  1  0
  6  7  1  0
  7  8  1  0
  8  9  2  0
  8 10  1  0
 10 11  2  0
 11 12  1  0
 12 13  2  0
 13 14  1  0
 14 15  2  0
 15 16  1  0
 15 17  1  0
 17 18  2  0
 18 19  1  0
 19 20  2  0
  2 21  1  0
 21 22  1  0
 21 23  1  0
 23 24  2  0
 24 25  1  0
 25 26  2  0
 26 27  1  0
 27 28  2  0
 20 10  1  0
 28 23  1  0
 19 13  1  0
  1 29  1  0
  1 30  1  0
  1 31  1  0
  2 32  1  1
  3 33  1  0
  6 34  1  0
  6 35  1  0
  7 36  1  0
 11 37  1  0
 12 38  1  0
 14 39  1  0
 17 40  1  0
 18 41  1  0
 21 42  1  6
 22 43  1  0
 24 44  1  0
 25 45  1  0
 26 46  1  0
 27 47  1  0
 28 48  1  0
M  END
>  <smiles>  (23) 
C[C@H](NC(=O)CNC(=O)c1ccc2cc(Cl)ccc2n1)[C@H](O)c1ccccc1

>  <score_type>  (23) 
oracle

>  <origin>  (23) 
autodockgpu

>  <m_score__min__energy>  (23) 
-8.8800000000000008

>  <m_primary>  (23) 
energy

>  <rmsd>  (23) 
3.9678395291268065

>  <m_score__min__rmsd>  (23) 
3.9678395291268065

>  <meeko>  (23) 
{"free_energy": -7.97, "intermolecular_energy": -10.06, "internal_energy": -2.2, "cluster_size": 37, "cluster_id": 1, "rank_in_cluster": 28}

>  <energy>  (23) 
-8.07

>  <cluster_rmsd>  (23) 
1.63

>  <cluster>  (23) 
1

$$$$

     RDKit          3D

 48 50  0  0  0  0  0  0  0  0999 V2000
  143.0750   76.7080  219.2350 C   0  0  0  0  0  0  0  0  0  0  0  0
  142.0610   77.1750  220.2240 C   0  0  2  0  0  0  0  0  0  0  0  0
  140.8220   76.4140  220.1670 N   0  0  0  0  0  0  0  0  0  0  0  0
  140.3500   75.6510  221.2750 C   0  0  0  0  0  0  0  0  0  0  0  0
  141.0590   75.6620  222.3230 O   0  0  0  0  0  0  0  0  0  0  0  0
  139.0750   74.8840  221.1780 C   0  0  0  0  0  0  0  0  0  0  0  0
  139.1090   73.8810  222.2180 N   0  0  0  0  0  0  0  0  0  0  0  0
  139.9920   72.7740  222.0810 C   0  0  0  0  0  0  0  0  0  0  0  0
  140.7570   72.6240  221.0830 O   0  0  0  0  0  0  0  0  0  0  0  0
  140.0160   71.7670  223.1410 C   0  0  0  0  0  0  0  0  0  0  0  0
  139.5420   70.4900  222.9160 C   0  0  0  0  0  0  0  0  0  0  0  0
  139.5490   69.5150  223.8910 C   0  0  0  0  0  0  0  0  0  0  0  0
  140.0480   69.8270  225.1380 C   0  0  0  0  0  0  0  0  0  0  0  0
  140.1040   68.9360  226.1830 C   0  0  0  0  0  0  0  0  0  0  0  0
  140.6030   69.2790  227.3980 C   0  0  0  0  0  0  0  0  0  0  0  0
  140.6740   68.1450  228.7290 Cl  0  0  0  0  0  0  0  0  0  0  0  0
  141.0790   70.5710  227.6140 C   0  0  0  0  0  0  0  0  0  0  0  0
  141.0420   71.5040  226.5860 C   0  0  0  0  0  0  0  0  0  0  0  0
  140.5230   71.1020  225.3640 C   0  0  0  0  0  0  0  0  0  0  0  0
  140.4950   72.0240  224.3780 N   0  0  0  0  0  0  0  0  0  0  0  0
  141.6730   78.6220  220.0320 C   0  0  2  0  0  0  0  0  0  0  0  0
  142.3490   79.2330  219.0110 O   0  0  0  0  0  0  0  0  0  0  0  0
  141.7730   79.3030  221.3450 C   0  0  0  0  0  0  0  0  0  0  0  0
  141.8330   80.6850  221.4310 C   0  0  0  0  0  0  0  0  0  0  0  0
  141.9250   81.2750  222.6670 C   0  0  0  0  0  0  0  0  0  0  0  0
  141.9600   80.5850  223.8440 C   0  0  0  0  0  0  0  0  0  0  0  0
  141.9000   79.2010  223.7680 C   0  0  0  0  0  0  0  0  0  0  0  0
  141.8080   78.6000  222.5310 C   0  0  0  0  0  0  0  0  0  0  0  0
  143.9489   76.3055  219.7681 H   0  0  0  0  0  0  0  0  0  0  0  0
  142.6362   75.9212  218.6037 H   0  0  0  0  0  0  0  0  0  0  0  0
  143.3877   77.5528  218.6037 H   0  0  0  0  0  0  0  0  0  0  0  0
  142.5616   77.0325  221.1931 H   0  0  0  0  0  0  0  0  0  0  0  0
  140.2470   76.4190  219.2850 H   0  0  0  0  0  0  0  0  0  0  0  0
  138.2170   75.5558  221.3281 H   0  0  0  0  0  0  0  0  0  0  0  0
  138.9689   74.4199  220.1864 H   0  0  0  0  0  0  0  0  0  0  0  0
  138.5050   73.9570  223.0530 H   0  0  0  0  0  0  0  0  0  0  0  0
  139.1437   70.2409  221.9213 H   0  0  0  0  0  0  0  0  0  0  0  0
  139.1636   68.5070  223.6780 H   0  0  0  0  0  0  0  0  0  0  0  0
  139.7325   67.9120  226.0299 H   0  0  0  0  0  0  0  0  0  0  0  0
  141.4836   70.8514  228.5977 H   0  0  0  0  0  0  0  0  0  0  0  0
  141.4124   72.5289  226.7359 H   0  0  0  0  0  0  0  0  0  0  0  0
  140.6291   78.6886  219.6917 H   0  0  0  0  0  0  0  0  0  0  0  0
  143.3130   79.0250  218.9720 H   0  0  0  0  0  0  0  0  0  0  0  0
  141.8072   81.3013  220.5202 H   0  0  0  0  0  0  0  0  0  0  0  0
  141.9736   82.3730  222.7116 H   0  0  0  0  0  0  0  0  0  0  0  0
  142.0327   81.1038  224.8112 H   0  0  0  0  0  0  0  0  0  0  0  0
  141.9255   78.5912  224.6831 H   0  0  0  0  0  0  0  0  0  0  0  0
  141.7600   77.5019  222.4875 H   0  0  0  0  0  0  0  0  0  0  0  0
  1  2  1  0
  2  3  1  0
  3  4  1  0
  4  5  2  0
  4  6  1  0
  6  7  1  0
  7  8  1  0
  8  9  2  0
  8 10  1  0
 10 11  2  0
 11 12  1  0
 12 13  2  0
 13 14  1  0
 14 15  2  0
 15 16  1  0
 15 17  1  0
 17 18  2  0
 18 19  1  0
 19 20  2  0
  2 21  1  0
 21 22  1  0
 21 23  1  0
 23 24  2  0
 24 25  1  0
 25 26  2  0
 26 27  1  0
 27 28  2  0
 20 10  1  0
 28 23  1  0
 19 13  1  0
  1 29  1  0
  1 30  1  0
  1 31  1  0
  2 32  1  1
  3 33  1  0
  6 34  1  0
  6 35  1  0
  7 36  1  0
 11 37  1  0
 12 38  1  0
 14 39  1  0
 17 40  1  0
 18 41  1  0
 21 42  1  6
 22 43  1  0
 24 44  1  0
 25 45  1  0
 26 46  1  0
 27 47  1  0
 28 48  1  0
M  END
>  <smiles>  (24) 
C[C@H](NC(=O)CNC(=O)c1ccc2cc(Cl)ccc2n1)[C@H](O)c1ccccc1

>  <score_type>  (24) 
oracle

>  <origin>  (24) 
autodockgpu

>  <m_score__min__energy>  (24) 
-8.8800000000000008

>  <m_primary>  (24) 
energy

>  <rmsd>  (24) 
4.1202341745275755

>  <m_score__min__rmsd>  (24) 
4.1202341745275755

>  <meeko>  (24) 
{"free_energy": -8.88, "intermolecular_energy": -10.97, "internal_energy": -1.33, "cluster_size": 37, "cluster_id": 1, "rank_in_cluster": 1}

>  <energy>  (24) 
-8.04

>  <cluster_rmsd>  (24) 
1.61

>  <cluster>  (24) 
1

$$$$

     RDKit          3D

 48 50  0  0  0  0  0  0  0  0999 V2000
  136.9220   69.6500  224.6750 C   0  0  0  0  0  0  0  0  0  0  0  0
  138.0650   70.6050  224.5950 C   0  0  2  0  0  0  0  0  0  0  0  0
  138.1260   71.3110  223.3240 N   0  0  0  0  0  0  0  0  0  0  0  0
  138.2880   70.6260  222.0850 C   0  0  0  0  0  0  0  0  0  0  0  0
  138.3790   69.3650  222.1330 O   0  0  0  0  0  0  0  0  0  0  0  0
  138.3460   71.3850  220.8020 C   0  0  0  0  0  0  0  0  0  0  0  0
  139.1150   72.5820  221.0580 N   0  0  0  0  0  0  0  0  0  0  0  0
  138.4580   73.7220  221.5970 C   0  0  0  0  0  0  0  0  0  0  0  0
  137.2210   73.7390  221.8680 O   0  0  0  0  0  0  0  0  0  0  0  0
  139.2470   74.9260  221.8510 C   0  0  0  0  0  0  0  0  0  0  0  0
  140.6020   74.9540  221.5860 C   0  0  0  0  0  0  0  0  0  0  0  0
  141.3780   76.0710  221.8130 C   0  0  0  0  0  0  0  0  0  0  0  0
  140.7790   77.2030  222.3240 C   0  0  0  0  0  0  0  0  0  0  0  0
  141.4540   78.3710  222.5880 C   0  0  0  0  0  0  0  0  0  0  0  0
  140.8300   79.4660  223.0920 C   0  0  0  0  0  0  0  0  0  0  0  0
  141.6880   80.9540  223.4290 Cl  0  0  0  0  0  0  0  0  0  0  0  0
  139.4620   79.4270  223.3560 C   0  0  0  0  0  0  0  0  0  0  0  0
  138.7400   78.2680  223.1040 C   0  0  0  0  0  0  0  0  0  0  0  0
  139.4260   77.1770  222.5890 C   0  0  0  0  0  0  0  0  0  0  0  0
  138.7070   76.0590  222.3510 N   0  0  0  0  0  0  0  0  0  0  0  0
  139.4070   69.9350  224.7670 C   0  0  2  0  0  0  0  0  0  0  0  0
  139.3440   68.5690  224.6860 O   0  0  0  0  0  0  0  0  0  0  0  0
  140.0300   70.4610  226.0040 C   0  0  0  0  0  0  0  0  0  0  0  0
  139.9630   69.7570  227.1950 C   0  0  0  0  0  0  0  0  0  0  0  0
  140.5530   70.2810  228.3180 C   0  0  0  0  0  0  0  0  0  0  0  0
  141.2190   71.4730  228.3470 C   0  0  0  0  0  0  0  0  0  0  0  0
  141.2920   72.1860  227.1590 C   0  0  0  0  0  0  0  0  0  0  0  0
  140.7010   71.6660  226.0270 C   0  0  0  0  0  0  0  0  0  0  0  0
  136.6837   69.4509  225.7303 H   0  0  0  0  0  0  0  0  0  0  0  0
  136.0438   70.0866  224.1769 H   0  0  0  0  0  0  0  0  0  0  0  0
  137.1955   68.7082  224.1769 H   0  0  0  0  0  0  0  0  0  0  0  0
  137.8725   71.3057  225.4208 H   0  0  0  0  0  0  0  0  0  0  0  0
  138.0480   72.3610  223.3070 H   0  0  0  0  0  0  0  0  0  0  0  0
  138.8360   70.7791  220.0256 H   0  0  0  0  0  0  0  0  0  0  0  0
  137.3357   71.6342  220.4454 H   0  0  0  0  0  0  0  0  0  0  0  0
  140.1280   72.6190  220.8550 H   0  0  0  0  0  0  0  0  0  0  0  0
  141.0803   74.0512  221.1784 H   0  0  0  0  0  0  0  0  0  0  0  0
  142.4552   76.0592  221.5905 H   0  0  0  0  0  0  0  0  0  0  0  0
  142.5339   78.4198  222.3844 H   0  0  0  0  0  0  0  0  0  0  0  0
  138.9547   80.3138  223.7637 H   0  0  0  0  0  0  0  0  0  0  0  0
  137.6599   78.2163  223.3059 H   0  0  0  0  0  0  0  0  0  0  0  0
  140.0638   70.1883  223.9218 H   0  0  0  0  0  0  0  0  0  0  0  0
  139.2070   68.2170  223.7750 H   0  0  0  0  0  0  0  0  0  0  0  0
  139.4428   68.7889  227.2403 H   0  0  0  0  0  0  0  0  0  0  0  0
  140.4852   69.7051  229.2527 H   0  0  0  0  0  0  0  0  0  0  0  0
  141.6778   71.8515  229.2724 H   0  0  0  0  0  0  0  0  0  0  0  0
  141.8144   73.1533  227.1207 H   0  0  0  0  0  0  0  0  0  0  0  0
  140.7682   72.2427  225.0927 H   0  0  0  0  0  0  0  0  0  0  0  0
  1  2  1  0
  2  3  1  0
  3  4  1  0
  4  5  2  0
  4  6  1  0
  6  7  1  0
  7  8  1  0
  8  9  2  0
  8 10  1  0
 10 11  2  0
 11 12  1  0
 12 13  2  0
 13 14  1  0
 14 15  2  0
 15 16  1  0
 15 17  1  0
 17 18  2  0
 18 19  1  0
 19 20  2  0
  2 21  1  0
 21 22  1  0
 21 23  1  0
 23 24  2  0
 24 25  1  0
 25 26  2  0
 26 27  1  0
 27 28  2  0
 20 10  1  0
 28 23  1  0
 19 13  1  0
  1 29  1  0
  1 30  1  0
  1 31  1  0
  2 32  1  1
  3 33  1  0
  6 34  1  0
  6 35  1  0
  7 36  1  0
 11 37  1  0
 12 38  1  0
 14 39  1  0
 17 40  1  0
 18 41  1  0
 21 42  1  6
 22 43  1  0
 24 44  1  0
 25 45  1  0
 26 46  1  0
 27 47  1  0
 28 48  1  0
M  END
>  <smiles>  (25) 
C[C@H](NC(=O)CNC(=O)c1ccc2cc(Cl)ccc2n1)[C@H](O)c1ccccc1

>  <score_type>  (25) 
oracle

>  <origin>  (25) 
autodockgpu

>  <m_score__min__energy>  (25) 
-8.8800000000000008

>  <m_primary>  (25) 
energy

>  <rmsd>  (25) 
9.686861419500834

>  <m_score__min__rmsd>  (25) 
9.686861419500834

>  <meeko>  (25) 
{"free_energy": -7.44, "intermolecular_energy": -9.53, "internal_energy": -2.51, "cluster_size": 5, "cluster_id": 4, "rank_in_cluster": 2}

>  <energy>  (25) 
-8.03

>  <cluster_rmsd>  (25) 
1.7

>  <cluster>  (25) 
1

$$$$

     RDKit          3D

 48 50  0  0  0  0  0  0  0  0999 V2000
  141.2710   77.1060  220.8030 C   0  0  0  0  0  0  0  0  0  0  0  0
  140.6750   76.6980  222.1090 C   0  0  2  0  0  0  0  0  0  0  0  0
  139.8560   75.4980  222.0070 N   0  0  0  0  0  0  0  0  0  0  0  0
  138.8740   75.3370  220.9870 C   0  0  0  0  0  0  0  0  0  0  0  0
  138.7400   76.2870  220.1630 O   0  0  0  0  0  0  0  0  0  0  0  0
  138.0540   74.0930  220.9160 C   0  0  0  0  0  0  0  0  0  0  0  0
  138.4540   73.2630  222.0300 N   0  0  0  0  0  0  0  0  0  0  0  0
  138.4070   71.8490  221.8900 C   0  0  0  0  0  0  0  0  0  0  0  0
  138.0290   71.2760  220.8260 O   0  0  0  0  0  0  0  0  0  0  0  0
  138.8140   71.0220  223.0250 C   0  0  0  0  0  0  0  0  0  0  0  0
  138.5080   69.6760  223.0680 C   0  0  0  0  0  0  0  0  0  0  0  0
  138.8750   68.8660  224.1210 C   0  0  0  0  0  0  0  0  0  0  0  0
  139.5740   69.4210  225.1720 C   0  0  0  0  0  0  0  0  0  0  0  0
  139.9910   68.7090  226.2720 C   0  0  0  0  0  0  0  0  0  0  0  0
  140.6780   69.2890  227.2890 C   0  0  0  0  0  0  0  0  0  0  0  0
  141.2080   68.3850  228.6900 Cl  0  0  0  0  0  0  0  0  0  0  0  0
  140.9810   70.6490  227.2360 C   0  0  0  0  0  0  0  0  0  0  0  0
  140.5800   71.4070  226.1440 C   0  0  0  0  0  0  0  0  0  0  0  0
  139.8810   70.7650  225.1310 C   0  0  0  0  0  0  0  0  0  0  0  0
  139.4990   71.5180  224.0780 N   0  0  0  0  0  0  0  0  0  0  0  0
  139.7880   77.7610  222.7110 C   0  0  2  0  0  0  0  0  0  0  0  0
  138.6460   77.9860  221.9900 O   0  0  0  0  0  0  0  0  0  0  0  0
  140.6170   78.9630  222.9640 C   0  0  0  0  0  0  0  0  0  0  0  0
  141.7980   78.8800  223.6820 C   0  0  0  0  0  0  0  0  0  0  0  0
  142.5350   80.0180  223.8940 C   0  0  0  0  0  0  0  0  0  0  0  0
  142.1820   81.2550  223.4370 C   0  0  0  0  0  0  0  0  0  0  0  0
  141.0000   81.3490  222.7160 C   0  0  0  0  0  0  0  0  0  0  0  0
  140.2540   80.2100  222.4980 C   0  0  0  0  0  0  0  0  0  0  0  0
  142.1663   77.7189  220.9840 H   0  0  0  0  0  0  0  0  0  0  0  0
  141.5503   76.2088  220.2312 H   0  0  0  0  0  0  0  0  0  0  0  0
  140.5356   77.6910  220.2312 H   0  0  0  0  0  0  0  0  0  0  0  0
  141.5524   76.5185  222.7477 H   0  0  0  0  0  0  0  0  0  0  0  0
  139.9850   74.7190  222.7040 H   0  0  0  0  0  0  0  0  0  0  0  0
  136.9848   74.3397  220.9927 H   0  0  0  0  0  0  0  0  0  0  0  0
  138.2108   73.5718  219.9601 H   0  0  0  0  0  0  0  0  0  0  0  0
  138.7710   73.6820  222.9210 H   0  0  0  0  0  0  0  0  0  0  0  0
  137.9500   69.2334  222.2297 H   0  0  0  0  0  0  0  0  0  0  0  0
  138.6152   67.7971  224.1229 H   0  0  0  0  0  0  0  0  0  0  0  0
  139.7605   67.6350  226.3297 H   0  0  0  0  0  0  0  0  0  0  0  0
  141.5375   71.1212  228.0590 H   0  0  0  0  0  0  0  0  0  0  0  0
  140.8088   72.4812  226.0836 H   0  0  0  0  0  0  0  0  0  0  0  0
  139.3882   77.4143  223.6753 H   0  0  0  0  0  0  0  0  0  0  0  0
  138.6860   77.6860  221.0510 H   0  0  0  0  0  0  0  0  0  0  0  0
  142.1415   77.9129  224.0780 H   0  0  0  0  0  0  0  0  0  0  0  0
  143.4689   79.9278  224.4682 H   0  0  0  0  0  0  0  0  0  0  0  0
  142.8073   82.1388  223.6318 H   0  0  0  0  0  0  0  0  0  0  0  0
  140.6625   82.3196  222.3235 H   0  0  0  0  0  0  0  0  0  0  0  0
  139.3208   80.3002  221.9226 H   0  0  0  0  0  0  0  0  0  0  0  0
  1  2  1  0
  2  3  1  0
  3  4  1  0
  4  5  2  0
  4  6  1  0
  6  7  1  0
  7  8  1  0
  8  9  2  0
  8 10  1  0
 10 11  2  0
 11 12  1  0
 12 13  2  0
 13 14  1  0
 14 15  2  0
 15 16  1  0
 15 17  1  0
 17 18  2  0
 18 19  1  0
 19 20  2  0
  2 21  1  0
 21 22  1  0
 21 23  1  0
 23 24  2  0
 24 25  1  0
 25 26  2  0
 26 27  1  0
 27 28  2  0
 20 10  1  0
 28 23  1  0
 19 13  1  0
  1 29  1  0
  1 30  1  0
  1 31  1  0
  2 32  1  1
  3 33  1  0
  6 34  1  0
  6 35  1  0
  7 36  1  0
 11 37  1  0
 12 38  1  0
 14 39  1  0
 17 40  1  0
 18 41  1  0
 21 42  1  1
 22 43  1  0
 24 44  1  0
 25 45  1  0
 26 46  1  0
 27 47  1  0
 28 48  1  0
M  END
>  <smiles>  (26) 
C[C@H](NC(=O)CNC(=O)c1ccc2cc(Cl)ccc2n1)[C@H](O)c1ccccc1

>  <score_type>  (26) 
oracle

>  <origin>  (26) 
autodockgpu

>  <m_score__min__energy>  (26) 
-8.8800000000000008

>  <m_primary>  (26) 
energy

>  <rmsd>  (26) 
4.1346944028025225

>  <m_score__min__rmsd>  (26) 
4.1346944028025225

>  <meeko>  (26) 
{"free_energy": -7.94, "intermolecular_energy": -10.02, "internal_energy": -1.94, "cluster_size": 37, "cluster_id": 1, "rank_in_cluster": 30}

>  <energy>  (26) 
-8.02

>  <cluster_rmsd>  (26) 
1.7

>  <cluster>  (26) 
1

$$$$

     RDKit          3D

 48 50  0  0  0  0  0  0  0  0999 V2000
  139.2180   70.4930  224.1360 C   0  0  0  0  0  0  0  0  0  0  0  0
  138.8870   69.0760  224.4660 C   0  0  2  0  0  0  0  0  0  0  0  0
  137.5090   68.9040  224.9020 N   0  0  0  0  0  0  0  0  0  0  0  0
  136.4330   69.6300  224.3150 C   0  0  0  0  0  0  0  0  0  0  0  0
  136.7250   70.4400  223.3880 O   0  0  0  0  0  0  0  0  0  0  0  0
  135.0340   69.4260  224.7900 C   0  0  0  0  0  0  0  0  0  0  0  0
  134.5530   70.7100  225.2440 N   0  0  0  0  0  0  0  0  0  0  0  0
  133.4130   70.7600  226.0930 C   0  0  0  0  0  0  0  0  0  0  0  0
  132.7940   69.7240  226.4740 O   0  0  0  0  0  0  0  0  0  0  0  0
  132.9380   72.0670  226.5450 C   0  0  0  0  0  0  0  0  0  0  0  0
  131.7420   72.1900  227.2250 C   0  0  0  0  0  0  0  0  0  0  0  0
  131.2630   73.4050  227.6660 C   0  0  0  0  0  0  0  0  0  0  0  0
  132.0050   74.5400  227.4190 C   0  0  0  0  0  0  0  0  0  0  0  0
  131.6250   75.8020  227.8120 C   0  0  0  0  0  0  0  0  0  0  0  0
  132.3820   76.8970  227.5510 C   0  0  0  0  0  0  0  0  0  0  0  0
  131.8990   78.5040  228.0510 Cl  0  0  0  0  0  0  0  0  0  0  0  0
  133.5870   76.7620  226.8630 C   0  0  0  0  0  0  0  0  0  0  0  0
  134.0110   75.5070  226.4470 C   0  0  0  0  0  0  0  0  0  0  0  0
  133.2000   74.4190  226.7400 C   0  0  0  0  0  0  0  0  0  0  0  0
  133.6280   73.2080  226.3270 N   0  0  0  0  0  0  0  0  0  0  0  0
  139.7500   68.5110  225.5680 C   0  0  2  0  0  0  0  0  0  0  0  0
  139.2300   67.3780  226.1360 O   0  0  0  0  0  0  0  0  0  0  0  0
  140.0580   69.6040  226.5200 C   0  0  0  0  0  0  0  0  0  0  0  0
  141.1050   70.4810  226.2880 C   0  0  0  0  0  0  0  0  0  0  0  0
  141.3560   71.4790  227.1960 C   0  0  0  0  0  0  0  0  0  0  0  0
  140.6320   71.6770  228.3360 C   0  0  0  0  0  0  0  0  0  0  0  0
  139.5800   70.8050  228.5770 C   0  0  0  0  0  0  0  0  0  0  0  0
  139.3210   69.7990  227.6700 C   0  0  0  0  0  0  0  0  0  0  0  0
  139.3515   71.0646  225.0663 H   0  0  0  0  0  0  0  0  0  0  0  0
  140.1479   70.5252  223.5492 H   0  0  0  0  0  0  0  0  0  0  0  0
  138.3987   70.9338  223.5492 H   0  0  0  0  0  0  0  0  0  0  0  0
  139.0660   68.5417  223.5213 H   0  0  0  0  0  0  0  0  0  0  0  0
  137.2890   68.2230  225.6750 H   0  0  0  0  0  0  0  0  0  0  0  0
  134.4052   69.0562  223.9666 H   0  0  0  0  0  0  0  0  0  0  0  0
  134.9980   68.6833  225.6006 H   0  0  0  0  0  0  0  0  0  0  0  0
  135.0240   71.5870  224.9620 H   0  0  0  0  0  0  0  0  0  0  0  0
  131.1495   71.2844  227.4220 H   0  0  0  0  0  0  0  0  0  0  0  0
  130.3062   73.4676  228.2051 H   0  0  0  0  0  0  0  0  0  0  0  0
  130.6768   75.9275  228.3554 H   0  0  0  0  0  0  0  0  0  0  0  0
  134.2015   77.6491  226.6499 H   0  0  0  0  0  0  0  0  0  0  0  0
  134.9585   75.3790  225.9031 H   0  0  0  0  0  0  0  0  0  0  0  0
  140.7002   68.1469  225.1501 H   0  0  0  0  0  0  0  0  0  0  0  0
  139.6780   67.0920  226.9680 H   0  0  0  0  0  0  0  0  0  0  0  0
  141.7276   70.3787  225.3869 H   0  0  0  0  0  0  0  0  0  0  0  0
  142.1935   72.1624  226.9922 H   0  0  0  0  0  0  0  0  0  0  0  0
  140.8722   72.4928  229.0337 H   0  0  0  0  0  0  0  0  0  0  0  0
  138.9608   70.9147  229.4795 H   0  0  0  0  0  0  0  0  0  0  0  0
  138.4830   69.1163  227.8740 H   0  0  0  0  0  0  0  0  0  0  0  0
  1  2  1  0
  2  3  1  0
  3  4  1  0
  4  5  2  0
  4  6  1  0
  6  7  1  0
  7  8  1  0
  8  9  2  0
  8 10  1  0
 10 11  2  0
 11 12  1  0
 12 13  2  0
 13 14  1  0
 14 15  2  0
 15 16  1  0
 15 17  1  0
 17 18  2  0
 18 19  1  0
 19 20  2  0
  2 21  1  0
 21 22  1  0
 21 23  1  0
 23 24  2  0
 24 25  1  0
 25 26  2  0
 26 27  1  0
 27 28  2  0
 20 10  1  0
 28 23  1  0
 19 13  1  0
  1 29  1  0
  1 30  1  0
  1 31  1  0
  2 32  1  6
  3 33  1  0
  6 34  1  0
  6 35  1  0
  7 36  1  0
 11 37  1  0
 12 38  1  0
 14 39  1  0
 17 40  1  0
 18 41  1  0
 21 42  1  6
 22 43  1  0
 24 44  1  0
 25 45  1  0
 26 46  1  0
 27 47  1  0
 28 48  1  0
M  END
>  <smiles>  (27) 
C[C@H](NC(=O)CNC(=O)c1ccc2cc(Cl)ccc2n1)[C@H](O)c1ccccc1

>  <score_type>  (27) 
oracle

>  <origin>  (27) 
autodockgpu

>  <m_score__min__energy>  (27) 
-8.8800000000000008

>  <m_primary>  (27) 
energy

>  <rmsd>  (27) 
10.775580788288158

>  <m_score__min__rmsd>  (27) 
10.775580788288158

>  <meeko>  (27) 
{"free_energy": -8.71, "intermolecular_energy": -10.79, "internal_energy": -1.81, "cluster_size": 1, "cluster_id": 2, "rank_in_cluster": 1}

>  <energy>  (27) 
-7.98

>  <cluster_rmsd>  (27) 
1.7

>  <cluster>  (27) 
1

$$$$

     RDKit          3D

 48 50  0  0  0  0  0  0  0  0999 V2000
  141.3910   78.0350  220.3980 C   0  0  0  0  0  0  0  0  0  0  0  0
  141.4390   76.9110  221.3780 C   0  0  2  0  0  0  0  0  0  0  0  0
  140.7520   75.7180  220.9040 N   0  0  0  0  0  0  0  0  0  0  0  0
  141.3990   74.7470  220.0860 C   0  0  0  0  0  0  0  0  0  0  0  0
  142.6080   74.9650  219.7830 O   0  0  0  0  0  0  0  0  0  0  0  0
  140.6620   73.5380  219.6190 C   0  0  0  0  0  0  0  0  0  0  0  0
  140.6820   72.5880  220.7090 N   0  0  0  0  0  0  0  0  0  0  0  0
  140.0050   72.9100  221.9180 C   0  0  0  0  0  0  0  0  0  0  0  0
  139.3790   73.9980  222.0870 O   0  0  0  0  0  0  0  0  0  0  0  0
  140.0330   71.9400  223.0120 C   0  0  0  0  0  0  0  0  0  0  0  0
  139.5470   70.6600  222.8360 C   0  0  0  0  0  0  0  0  0  0  0  0
  139.5570   69.7200  223.8440 C   0  0  0  0  0  0  0  0  0  0  0  0
  140.0710   70.0710  225.0740 C   0  0  0  0  0  0  0  0  0  0  0  0
  140.1320   69.2160  226.1490 C   0  0  0  0  0  0  0  0  0  0  0  0
  140.6450   69.5970  227.3460 C   0  0  0  0  0  0  0  0  0  0  0  0
  140.7220   68.5090  228.7150 Cl  0  0  0  0  0  0  0  0  0  0  0  0
  141.1320   70.8930  227.5120 C   0  0  0  0  0  0  0  0  0  0  0  0
  141.0920   71.7900  226.4540 C   0  0  0  0  0  0  0  0  0  0  0  0
  140.5570   71.3490  225.2510 C   0  0  0  0  0  0  0  0  0  0  0  0
  140.5250   72.2360  224.2340 N   0  0  0  0  0  0  0  0  0  0  0  0
  140.8090   77.2580  222.7050 C   0  0  2  0  0  0  0  0  0  0  0  0
  139.4730   76.9630  222.7650 O   0  0  0  0  0  0  0  0  0  0  0  0
  141.1560   78.6620  223.0270 C   0  0  0  0  0  0  0  0  0  0  0  0
  140.1710   79.6240  223.1830 C   0  0  0  0  0  0  0  0  0  0  0  0
  140.5360   80.9140  223.4800 C   0  0  0  0  0  0  0  0  0  0  0  0
  141.8280   81.3270  223.6380 C   0  0  0  0  0  0  0  0  0  0  0  0
  142.8210   80.3700  223.4830 C   0  0  0  0  0  0  0  0  0  0  0  0
  142.4630   79.0730  223.1850 C   0  0  0  0  0  0  0  0  0  0  0  0
  141.3502   78.9918  220.9392 H   0  0  0  0  0  0  0  0  0  0  0  0
  142.2911   78.0093  219.7662 H   0  0  0  0  0  0  0  0  0  0  0  0
  140.4964   77.9326  219.7662 H   0  0  0  0  0  0  0  0  0  0  0  0
  142.5155   76.7196  221.4986 H   0  0  0  0  0  0  0  0  0  0  0  0
  139.7450   75.5570  221.1680 H   0  0  0  0  0  0  0  0  0  0  0  0
  139.6245   73.8016  219.3657 H   0  0  0  0  0  0  0  0  0  0  0  0
  141.1303   73.1144  218.7183 H   0  0  0  0  0  0  0  0  0  0  0  0
  141.1780   71.6850  220.6210 H   0  0  0  0  0  0  0  0  0  0  0  0
  139.1364   70.3798  221.8547 H   0  0  0  0  0  0  0  0  0  0  0  0
  139.1621   68.7082  223.6701 H   0  0  0  0  0  0  0  0  0  0  0  0
  139.7526   68.1898  226.0350 H   0  0  0  0  0  0  0  0  0  0  0  0
  141.5479   71.2043  228.4816 H   0  0  0  0  0  0  0  0  0  0  0  0
  141.4716   72.8165  226.5647 H   0  0  0  0  0  0  0  0  0  0  0  0
  141.2235   76.6154  223.4957 H   0  0  0  0  0  0  0  0  0  0  0  0
  139.2680   76.0040  222.8750 H   0  0  0  0  0  0  0  0  0  0  0  0
  139.1097   79.3576  223.0703 H   0  0  0  0  0  0  0  0  0  0  0  0
  139.7377   81.6615  223.5980 H   0  0  0  0  0  0  0  0  0  0  0  0
  142.0711   82.3727  223.8777 H   0  0  0  0  0  0  0  0  0  0  0  0
  143.8804   80.6433  223.5966 H   0  0  0  0  0  0  0  0  0  0  0  0
  143.2619   78.3261  223.0669 H   0  0  0  0  0  0  0  0  0  0  0  0
  1  2  1  0
  2  3  1  0
  3  4  1  0
  4  5  2  0
  4  6  1  0
  6  7  1  0
  7  8  1  0
  8  9  2  0
  8 10  1  0
 10 11  2  0
 11 12  1  0
 12 13  2  0
 13 14  1  0
 14 15  2  0
 15 16  1  0
 15 17  1  0
 17 18  2  0
 18 19  1  0
 19 20  2  0
  2 21  1  0
 21 22  1  0
 21 23  1  0
 23 24  2  0
 24 25  1  0
 25 26  2  0
 26 27  1  0
 27 28  2  0
 20 10  1  0
 28 23  1  0
 19 13  1  0
  1 29  1  0
  1 30  1  0
  1 31  1  0
  2 32  1  1
  3 33  1  0
  6 34  1  0
  6 35  1  0
  7 36  1  0
 11 37  1  0
 12 38  1  0
 14 39  1  0
 17 40  1  0
 18 41  1  0
 21 42  1  1
 22 43  1  0
 24 44  1  0
 25 45  1  0
 26 46  1  0
 27 47  1  0
 28 48  1  0
M  END
>  <smiles>  (28) 
C[C@H](NC(=O)CNC(=O)c1ccc2cc(Cl)ccc2n1)[C@H](O)c1ccccc1

>  <score_type>  (28) 
oracle

>  <origin>  (28) 
autodockgpu

>  <m_score__min__energy>  (28) 
-8.8800000000000008

>  <m_primary>  (28) 
energy

>  <rmsd>  (28) 
3.8322626316478

>  <m_score__min__rmsd>  (28) 
3.8322626316478

>  <meeko>  (28) 
{"free_energy": -8.1, "intermolecular_energy": -10.18, "internal_energy": -3.06, "cluster_size": 37, "cluster_id": 1, "rank_in_cluster": 22}

>  <energy>  (28) 
-7.97

>  <cluster_rmsd>  (28) 
1.64

>  <cluster>  (28) 
1

$$$$

     RDKit          3D

 48 50  0  0  0  0  0  0  0  0999 V2000
  138.7070   78.2090  222.1840 C   0  0  0  0  0  0  0  0  0  0  0  0
  139.5730   77.6480  221.1070 C   0  0  2  0  0  0  0  0  0  0  0  0
  139.0910   76.3720  220.6000 N   0  0  0  0  0  0  0  0  0  0  0  0
  138.7150   75.3050  221.4670 C   0  0  0  0  0  0  0  0  0  0  0  0
  138.8180   75.5130  222.7110 O   0  0  0  0  0  0  0  0  0  0  0  0
  138.2250   74.0120  220.9090 C   0  0  0  0  0  0  0  0  0  0  0  0
  138.3990   73.0170  221.9420 N   0  0  0  0  0  0  0  0  0  0  0  0
  139.7090   72.7370  222.4190 C   0  0  0  0  0  0  0  0  0  0  0  0
  140.7410   73.3240  221.9780 O   0  0  0  0  0  0  0  0  0  0  0  0
  139.8700   71.7280  223.4650 C   0  0  0  0  0  0  0  0  0  0  0  0
  139.5240   70.4100  223.2370 C   0  0  0  0  0  0  0  0  0  0  0  0
  139.6620   69.4320  224.1990 C   0  0  0  0  0  0  0  0  0  0  0  0
  140.1620   69.7820  225.4350 C   0  0  0  0  0  0  0  0  0  0  0  0
  140.3420   68.8920  226.4670 C   0  0  0  0  0  0  0  0  0  0  0  0
  140.8380   69.2730  227.6710 C   0  0  0  0  0  0  0  0  0  0  0  0
  141.0670   68.1400  228.9850 Cl  0  0  0  0  0  0  0  0  0  0  0  0
  141.1830   70.6060  227.8900 C   0  0  0  0  0  0  0  0  0  0  0  0
  141.0190   71.5400  226.8760 C   0  0  0  0  0  0  0  0  0  0  0  0
  140.5080   71.0980  225.6640 C   0  0  0  0  0  0  0  0  0  0  0  0
  140.3550   72.0210  224.6910 N   0  0  0  0  0  0  0  0  0  0  0  0
  140.9950   77.4090  221.5580 C   0  0  2  0  0  0  0  0  0  0  0  0
  141.1410   76.2770  222.3130 O   0  0  0  0  0  0  0  0  0  0  0  0
  141.4920   78.6530  222.1910 C   0  0  0  0  0  0  0  0  0  0  0  0
  141.7230   79.7950  221.4420 C   0  0  0  0  0  0  0  0  0  0  0  0
  142.1840   80.9260  222.0690 C   0  0  0  0  0  0  0  0  0  0  0  0
  142.4360   81.0100  223.4080 C   0  0  0  0  0  0  0  0  0  0  0  0
  142.2070   79.8720  224.1680 C   0  0  0  0  0  0  0  0  0  0  0  0
  141.7430   78.7320  223.5460 C   0  0  0  0  0  0  0  0  0  0  0  0
  139.1226   77.9398  223.1662 H   0  0  0  0  0  0  0  0  0  0  0  0
  138.6682   79.3043  222.0900 H   0  0  0  0  0  0  0  0  0  0  0  0
  137.6915   77.7967  222.0900 H   0  0  0  0  0  0  0  0  0  0  0  0
  139.5387   78.4177  220.3218 H   0  0  0  0  0  0  0  0  0  0  0  0
  139.0130   76.2200  219.5600 H   0  0  0  0  0  0  0  0  0  0  0  0
  137.1619   74.0951  220.6389 H   0  0  0  0  0  0  0  0  0  0  0  0
  138.7820   73.7385  220.0007 H   0  0  0  0  0  0  0  0  0  0  0  0
  137.5880   72.5090  222.3360 H   0  0  0  0  0  0  0  0  0  0  0  0
  139.1235   70.1305  222.2513 H   0  0  0  0  0  0  0  0  0  0  0  0
  139.3782   68.3912  223.9841 H   0  0  0  0  0  0  0  0  0  0  0  0
  140.0751   67.8362  226.3116 H   0  0  0  0  0  0  0  0  0  0  0  0
  141.5848   70.9174  228.8655 H   0  0  0  0  0  0  0  0  0  0  0  0
  141.2855   72.5963  227.0285 H   0  0  0  0  0  0  0  0  0  0  0  0
  141.6327   77.1910  220.6886 H   0  0  0  0  0  0  0  0  0  0  0  0
  140.8310   75.4480  221.8760 H   0  0  0  0  0  0  0  0  0  0  0  0
  141.5392   79.7957  220.3575 H   0  0  0  0  0  0  0  0  0  0  0  0
  142.3614   81.8205  221.4539 H   0  0  0  0  0  0  0  0  0  0  0  0
  142.8049   81.9402  223.8649 H   0  0  0  0  0  0  0  0  0  0  0  0
  142.3931   79.8790  225.2521 H   0  0  0  0  0  0  0  0  0  0  0  0
  141.5635   77.8386  224.1621 H   0  0  0  0  0  0  0  0  0  0  0  0
  1  2  1  0
  2  3  1  0
  3  4  1  0
  4  5  2  0
  4  6  1  0
  6  7  1  0
  7  8  1  0
  8  9  2  0
  8 10  1  0
 10 11  2  0
 11 12  1  0
 12 13  2  0
 13 14  1  0
 14 15  2  0
 15 16  1  0
 15 17  1  0
 17 18  2  0
 18 19  1  0
 19 20  2  0
  2 21  1  0
 21 22  1  0
 21 23  1  0
 23 24  2  0
 24 25  1  0
 25 26  2  0
 26 27  1  0
 27 28  2  0
 20 10  1  0
 28 23  1  0
 19 13  1  0
  1 29  1  0
  1 30  1  0
  1 31  1  0
  2 32  1  6
  3 33  1  0
  6 34  1  0
  6 35  1  0
  7 36  1  0
 11 37  1  0
 12 38  1  0
 14 39  1  0
 17 40  1  0
 18 41  1  0
 21 42  1  6
 22 43  1  0
 24 44  1  0
 25 45  1  0
 26 46  1  0
 27 47  1  0
 28 48  1  0
M  END
>  <smiles>  (29) 
C[C@H](NC(=O)CNC(=O)c1ccc2cc(Cl)ccc2n1)[C@H](O)c1ccccc1

>  <score_type>  (29) 
oracle

>  <origin>  (29) 
autodockgpu

>  <m_score__min__energy>  (29) 
-8.8800000000000008

>  <m_primary>  (29) 
energy

>  <rmsd>  (29) 
4.169741011725406

>  <m_score__min__rmsd>  (29) 
4.169741011725406

>  <meeko>  (29) 
{"free_energy": -8.2, "intermolecular_energy": -10.29, "internal_energy": -2.25, "cluster_size": 37, "cluster_id": 1, "rank_in_cluster": 18}

>  <energy>  (29) 
-7.96

>  <cluster_rmsd>  (29) 
1.31

>  <cluster>  (29) 
1

$$$$

     RDKit          3D

 48 50  0  0  0  0  0  0  0  0999 V2000
  141.4340   75.8520  221.0160 C   0  0  0  0  0  0  0  0  0  0  0  0
  140.4810   76.2100  222.1070 C   0  0  2  0  0  0  0  0  0  0  0  0
  139.3820   75.2650  222.2320 N   0  0  0  0  0  0  0  0  0  0  0  0
  138.6300   74.8250  221.1050 C   0  0  0  0  0  0  0  0  0  0  0  0
  138.9580   75.2930  219.9770 O   0  0  0  0  0  0  0  0  0  0  0  0
  137.5100   73.8550  221.2740 C   0  0  0  0  0  0  0  0  0  0  0  0
  137.8700   72.9850  222.3700 N   0  0  0  0  0  0  0  0  0  0  0  0
  138.7340   71.8820  222.1210 C   0  0  0  0  0  0  0  0  0  0  0  0
  139.2060   71.6230  220.9750 O   0  0  0  0  0  0  0  0  0  0  0  0
  139.0910   71.0100  223.2390 C   0  0  0  0  0  0  0  0  0  0  0  0
  138.8250   69.6560  223.1950 C   0  0  0  0  0  0  0  0  0  0  0  0
  139.1470   68.8040  224.2300 C   0  0  0  0  0  0  0  0  0  0  0  0
  139.7570   69.3230  225.3510 C   0  0  0  0  0  0  0  0  0  0  0  0
  140.1230   68.5690  226.4410 C   0  0  0  0  0  0  0  0  0  0  0  0
  140.7220   69.1150  227.5290 C   0  0  0  0  0  0  0  0  0  0  0  0
  141.1870   68.1550  228.9160 Cl  0  0  0  0  0  0  0  0  0  0  0  0
  140.9860   70.4840  227.5630 C   0  0  0  0  0  0  0  0  0  0  0  0
  140.6340   71.2840  226.4850 C   0  0  0  0  0  0  0  0  0  0  0  0
  140.0240   70.6760  225.3970 C   0  0  0  0  0  0  0  0  0  0  0  0
  139.6890   71.4710  224.3590 N   0  0  0  0  0  0  0  0  0  0  0  0
  139.8480   77.5670  221.9140 C   0  0  2  0  0  0  0  0  0  0  0  0
  139.3220   77.7470  220.6630 O   0  0  0  0  0  0  0  0  0  0  0  0
  140.8260   78.5970  222.3370 C   0  0  0  0  0  0  0  0  0  0  0  0
  141.3110   79.5340  221.4390 C   0  0  0  0  0  0  0  0  0  0  0  0
  142.2170   80.4700  221.8720 C   0  0  0  0  0  0  0  0  0  0  0  0
  142.6850   80.5470  223.1530 C   0  0  0  0  0  0  0  0  0  0  0  0
  142.2050   79.6130  224.0590 C   0  0  0  0  0  0  0  0  0  0  0  0
  141.2940   78.6700  223.6330 C   0  0  0  0  0  0  0  0  0  0  0  0
  142.3780   75.4974  221.4555 H   0  0  0  0  0  0  0  0  0  0  0  0
  140.9974   75.0566  220.3942 H   0  0  0  0  0  0  0  0  0  0  0  0
  141.6291   76.7381  220.3942 H   0  0  0  0  0  0  0  0  0  0  0  0
  141.1078   76.1991  223.0109 H   0  0  0  0  0  0  0  0  0  0  0  0
  139.1260   74.8870  223.1810 H   0  0  0  0  0  0  0  0  0  0  0  0
  136.5777   74.3905  221.5066 H   0  0  0  0  0  0  0  0  0  0  0  0
  137.3456   73.2788  220.3515 H   0  0  0  0  0  0  0  0  0  0  0  0
  137.5120   73.1530  223.3250 H   0  0  0  0  0  0  0  0  0  0  0  0
  138.3377   69.2412  222.3003 H   0  0  0  0  0  0  0  0  0  0  0  0
  138.9210   67.7296  224.1620 H   0  0  0  0  0  0  0  0  0  0  0  0
  139.9235   67.4873  226.4305 H   0  0  0  0  0  0  0  0  0  0  0  0
  141.4727   70.9292  228.4433 H   0  0  0  0  0  0  0  0  0  0  0  0
  140.8323   72.3659  226.4928 H   0  0  0  0  0  0  0  0  0  0  0  0
  138.9586   77.6596  222.5546 H   0  0  0  0  0  0  0  0  0  0  0  0
  139.2580   76.9250  220.1210 H   0  0  0  0  0  0  0  0  0  0  0  0
  140.9742   79.5279  220.3918 H   0  0  0  0  0  0  0  0  0  0  0  0
  142.5893   81.2037  221.1419 H   0  0  0  0  0  0  0  0  0  0  0  0
  143.4113   81.3167  223.4531 H   0  0  0  0  0  0  0  0  0  0  0  0
  142.5469   79.6245  225.1045 H   0  0  0  0  0  0  0  0  0  0  0  0
  140.9209   77.9378  224.3642 H   0  0  0  0  0  0  0  0  0  0  0  0
  1  2  1  0
  2  3  1  0
  3  4  1  0
  4  5  2  0
  4  6  1  0
  6  7  1  0
  7  8  1  0
  8  9  2  0
  8 10  1  0
 10 11  2  0
 11 12  1  0
 12 13  2  0
 13 14  1  0
 14 15  2  0
 15 16  1  0
 15 17  1  0
 17 18  2  0
 18 19  1  0
 19 20  2  0
  2 21  1  0
 21 22  1  0
 21 23  1  0
 23 24  2  0
 24 25  1  0
 25 26  2  0
 26 27  1  0
 27 28  2  0
 20 10  1  0
 28 23  1  0
 19 13  1  0
  1 29  1  0
  1 30  1  0
  1 31  1  0
  2 32  1  1
  3 33  1  0
  6 34  1  0
  6 35  1  0
  7 36  1  0
 11 37  1  0
 12 38  1  0
 14 39  1  0
 17 40  1  0
 18 41  1  0
 21 42  1  1
 22 43  1  0
 24 44  1  0
 25 45  1  0
 26 46  1  0
 27 47  1  0
 28 48  1  0
M  END
>  <smiles>  (30) 
C[C@H](NC(=O)CNC(=O)c1ccc2cc(Cl)ccc2n1)[C@H](O)c1ccccc1

>  <score_type>  (30) 
oracle

>  <origin>  (30) 
autodockgpu

>  <m_score__min__energy>  (30) 
-8.8800000000000008

>  <m_primary>  (30) 
energy

>  <rmsd>  (30) 
4.327591068724779

>  <m_score__min__rmsd>  (30) 
4.327591068724779

>  <meeko>  (30) 
{"free_energy": -8.3, "intermolecular_energy": -10.39, "internal_energy": -1.95, "cluster_size": 37, "cluster_id": 1, "rank_in_cluster": 15}

>  <energy>  (30) 
-7.94

>  <cluster_rmsd>  (30) 
1.56

>  <cluster>  (30) 
1

$$$$

     RDKit          3D

 48 50  0  0  0  0  0  0  0  0999 V2000
  139.7970   78.1770  222.9050 C   0  0  0  0  0  0  0  0  0  0  0  0
  139.9640   78.1050  221.4240 C   0  0  2  0  0  0  0  0  0  0  0  0
  140.0180   76.7390  220.9260 N   0  0  0  0  0  0  0  0  0  0  0  0
  139.2350   75.6940  221.4970 C   0  0  0  0  0  0  0  0  0  0  0  0
  138.4810   76.0040  222.4650 O   0  0  0  0  0  0  0  0  0  0  0  0
  139.3180   74.3050  220.9590 C   0  0  0  0  0  0  0  0  0  0  0  0
  139.3640   73.4160  222.0980 N   0  0  0  0  0  0  0  0  0  0  0  0
  139.7780   72.0690  221.9060 C   0  0  0  0  0  0  0  0  0  0  0  0
  140.1120   71.6070  220.7750 O   0  0  0  0  0  0  0  0  0  0  0  0
  139.8200   71.1810  223.0670 C   0  0  0  0  0  0  0  0  0  0  0  0
  139.2820   69.9110  223.0070 C   0  0  0  0  0  0  0  0  0  0  0  0
  139.3030   69.0470  224.0810 C   0  0  0  0  0  0  0  0  0  0  0  0
  139.8830   69.4660  225.2590 C   0  0  0  0  0  0  0  0  0  0  0  0
  139.9610   68.6900  226.3920 C   0  0  0  0  0  0  0  0  0  0  0  0
  140.5400   69.1380  227.5340 C   0  0  0  0  0  0  0  0  0  0  0  0
  140.6390   68.1500  228.9760 Cl  0  0  0  0  0  0  0  0  0  0  0  0
  141.0790   70.4220  227.5840 C   0  0  0  0  0  0  0  0  0  0  0  0
  141.0240   71.2410  226.4640 C   0  0  0  0  0  0  0  0  0  0  0  0
  140.4210   70.7350  225.3200 C   0  0  0  0  0  0  0  0  0  0  0  0
  140.3760   71.5460  224.2420 N   0  0  0  0  0  0  0  0  0  0  0  0
  141.2260   78.7780  220.9390 C   0  0  2  0  0  0  0  0  0  0  0  0
  142.1930   77.8950  220.5410 O   0  0  0  0  0  0  0  0  0  0  0  0
  141.6540   79.7530  221.9700 C   0  0  0  0  0  0  0  0  0  0  0  0
  142.6220   79.4260  222.9060 C   0  0  0  0  0  0  0  0  0  0  0  0
  142.9880   80.3580  223.8440 C   0  0  0  0  0  0  0  0  0  0  0  0
  142.4570   81.6130  223.9240 C   0  0  0  0  0  0  0  0  0  0  0  0
  141.4870   81.9510  222.9910 C   0  0  0  0  0  0  0  0  0  0  0  0
  141.1130   81.0200  222.0450 C   0  0  0  0  0  0  0  0  0  0  0  0
  140.7012   77.7872  223.3953 H   0  0  0  0  0  0  0  0  0  0  0  0
  139.6389   79.2232  223.2057 H   0  0  0  0  0  0  0  0  0  0  0  0
  138.9278   77.5737  223.2057 H   0  0  0  0  0  0  0  0  0  0  0  0
  139.0745   78.6253  221.0392 H   0  0  0  0  0  0  0  0  0  0  0  0
  140.6530   76.5030  220.1190 H   0  0  0  0  0  0  0  0  0  0  0  0
  138.4340   74.0846  220.3425 H   0  0  0  0  0  0  0  0  0  0  0  0
  140.2088   74.1804  220.3258 H   0  0  0  0  0  0  0  0  0  0  0  0
  139.1020   73.7450  223.0420 H   0  0  0  0  0  0  0  0  0  0  0  0
  138.8192   69.5760  222.0670 H   0  0  0  0  0  0  0  0  0  0  0  0
  138.8648   68.0414  223.9993 H   0  0  0  0  0  0  0  0  0  0  0  0
  139.5405   67.6738  226.3714 H   0  0  0  0  0  0  0  0  0  0  0  0
  141.5477   70.7865  228.5100 H   0  0  0  0  0  0  0  0  0  0  0  0
  141.4443   72.2574  226.4824 H   0  0  0  0  0  0  0  0  0  0  0  0
  141.0218   79.3317  220.0107 H   0  0  0  0  0  0  0  0  0  0  0  0
  143.0180   77.9160  221.0820 H   0  0  0  0  0  0  0  0  0  0  0  0
  143.0913   78.4312  222.8971 H   0  0  0  0  0  0  0  0  0  0  0  0
  143.7577   80.0762  224.5776 H   0  0  0  0  0  0  0  0  0  0  0  0
  142.7841   82.3260  224.6952 H   0  0  0  0  0  0  0  0  0  0  0  0
  141.0227   82.9481  223.0058 H   0  0  0  0  0  0  0  0  0  0  0  0
  140.3431   81.3022  221.3118 H   0  0  0  0  0  0  0  0  0  0  0  0
  1  2  1  0
  2  3  1  0
  3  4  1  0
  4  5  2  0
  4  6  1  0
  6  7  1  0
  7  8  1  0
  8  9  2  0
  8 10  1  0
 10 11  2  0
 11 12  1  0
 12 13  2  0
 13 14  1  0
 14 15  2  0
 15 16  1  0
 15 17  1  0
 17 18  2  0
 18 19  1  0
 19 20  2  0
  2 21  1  0
 21 22  1  0
 21 23  1  0
 23 24  2  0
 24 25  1  0
 25 26  2  0
 26 27  1  0
 27 28  2  0
 20 10  1  0
 28 23  1  0
 19 13  1  0
  1 29  1  0
  1 30  1  0
  1 31  1  0
  2 32  1  6
  3 33  1  0
  6 34  1  0
  6 35  1  0
  7 36  1  0
 11 37  1  0
 12 38  1  0
 14 39  1  0
 17 40  1  0
 18 41  1  0
 21 42  1  6
 22 43  1  0
 24 44  1  0
 25 45  1  0
 26 46  1  0
 27 47  1  0
 28 48  1  0
M  END
>  <smiles>  (31) 
C[C@H](NC(=O)CNC(=O)c1ccc2cc(Cl)ccc2n1)[C@H](O)c1ccccc1

>  <score_type>  (31) 
oracle

>  <origin>  (31) 
autodockgpu

>  <m_score__min__energy>  (31) 
-8.8800000000000008

>  <m_primary>  (31) 
energy

>  <rmsd>  (31) 
4.023858566047991

>  <m_score__min__rmsd>  (31) 
4.023858566047991

>  <meeko>  (31) 
{"free_energy": -8.46, "intermolecular_energy": -10.55, "internal_energy": -1.84, "cluster_size": 37, "cluster_id": 1, "rank_in_cluster": 9}

>  <energy>  (31) 
-7.8

>  <cluster_rmsd>  (31) 
1.93

>  <cluster>  (31) 
1

$$$$

     RDKit          3D

 48 50  0  0  0  0  0  0  0  0999 V2000
  141.1690   76.7920  221.0080 C   0  0  0  0  0  0  0  0  0  0  0  0
  140.4640   76.6070  222.3100 C   0  0  2  0  0  0  0  0  0  0  0  0
  139.5940   75.4400  222.3220 N   0  0  0  0  0  0  0  0  0  0  0  0
  138.7660   75.1010  221.2120 C   0  0  0  0  0  0  0  0  0  0  0  0
  138.8180   75.8630  220.2040 O   0  0  0  0  0  0  0  0  0  0  0  0
  137.8880   73.8970  221.2630 C   0  0  0  0  0  0  0  0  0  0  0  0
  138.3850   73.0600  222.3300 N   0  0  0  0  0  0  0  0  0  0  0  0
  138.0720   71.6720  222.3220 C   0  0  0  0  0  0  0  0  0  0  0  0
  137.3720   71.1300  221.4170 O   0  0  0  0  0  0  0  0  0  0  0  0
  138.5830   70.8360  223.4080 C   0  0  0  0  0  0  0  0  0  0  0  0
  138.3570   69.4740  223.4200 C   0  0  0  0  0  0  0  0  0  0  0  0
  138.8220   68.6560  224.4270 C   0  0  0  0  0  0  0  0  0  0  0  0
  139.5400   69.2180  225.4610 C   0  0  0  0  0  0  0  0  0  0  0  0
  140.0520   68.4990  226.5150 C   0  0  0  0  0  0  0  0  0  0  0  0
  140.7550   69.0870  227.5160 C   0  0  0  0  0  0  0  0  0  0  0  0
  141.4060   68.1720  228.8580 Cl  0  0  0  0  0  0  0  0  0  0  0  0
  140.9760   70.4630  227.4940 C   0  0  0  0  0  0  0  0  0  0  0  0
  140.4790   71.2290  226.4480 C   0  0  0  0  0  0  0  0  0  0  0  0
  139.7670   70.5780  225.4500 C   0  0  0  0  0  0  0  0  0  0  0  0
  139.2900   71.3390  224.4430 N   0  0  0  0  0  0  0  0  0  0  0  0
  139.5930   77.7830  222.6820 C   0  0  2  0  0  0  0  0  0  0  0  0
  138.6110   78.0420  221.7640 O   0  0  0  0  0  0  0  0  0  0  0  0
  140.4780   78.9300  222.9930 C   0  0  0  0  0  0  0  0  0  0  0  0
  140.0800   80.2320  222.7340 C   0  0  0  0  0  0  0  0  0  0  0  0
  140.9300   81.2650  223.0380 C   0  0  0  0  0  0  0  0  0  0  0  0
  142.1680   81.1010  223.5910 C   0  0  0  0  0  0  0  0  0  0  0  0
  142.5760   79.8010  223.8540 C   0  0  0  0  0  0  0  0  0  0  0  0
  141.7270   78.7570  223.5520 C   0  0  0  0  0  0  0  0  0  0  0  0
  142.2176   77.0671  221.1946 H   0  0  0  0  0  0  0  0  0  0  0  0
  141.1326   75.8539  220.4348 H   0  0  0  0  0  0  0  0  0  0  0  0
  140.6766   77.5913  220.4348 H   0  0  0  0  0  0  0  0  0  0  0  0
  141.2849   76.4888  223.0326 H   0  0  0  0  0  0  0  0  0  0  0  0
  139.5670   74.8190  223.1720 H   0  0  0  0  0  0  0  0  0  0  0  0
  136.8492   74.1948  221.4685 H   0  0  0  0  0  0  0  0  0  0  0  0
  137.9003   73.3599  220.3031 H   0  0  0  0  0  0  0  0  0  0  0  0
  138.9620   73.4530  223.0930 H   0  0  0  0  0  0  0  0  0  0  0  0
  137.7844   69.0250  222.5950 H   0  0  0  0  0  0  0  0  0  0  0  0
  138.6238   67.5742  224.4061 H   0  0  0  0  0  0  0  0  0  0  0  0
  139.8865   67.4120  226.5481 H   0  0  0  0  0  0  0  0  0  0  0  0
  141.5440   70.9420  228.3051 H   0  0  0  0  0  0  0  0  0  0  0  0
  140.6441   72.3159  226.4114 H   0  0  0  0  0  0  0  0  0  0  0  0
  139.0099   77.5475  223.5845 H   0  0  0  0  0  0  0  0  0  0  0  0
  138.1000   77.2500  221.4730 H   0  0  0  0  0  0  0  0  0  0  0  0
  139.0942   80.4347  222.2899 H   0  0  0  0  0  0  0  0  0  0  0  0
  140.5933   82.2899  222.8228 H   0  0  0  0  0  0  0  0  0  0  0  0
  142.8137   81.9621  223.8181 H   0  0  0  0  0  0  0  0  0  0  0  0
  143.5635   79.6058  224.2975 H   0  0  0  0  0  0  0  0  0  0  0  0
  142.0637   77.7324  223.7683 H   0  0  0  0  0  0  0  0  0  0  0  0
  1  2  1  0
  2  3  1  0
  3  4  1  0
  4  5  2  0
  4  6  1  0
  6  7  1  0
  7  8  1  0
  8  9  2  0
  8 10  1  0
 10 11  2  0
 11 12  1  0
 12 13  2  0
 13 14  1  0
 14 15  2  0
 15 16  1  0
 15 17  1  0
 17 18  2  0
 18 19  1  0
 19 20  2  0
  2 21  1  0
 21 22  1  0
 21 23  1  0
 23 24  2  0
 24 25  1  0
 25 26  2  0
 26 27  1  0
 27 28  2  0
 20 10  1  0
 28 23  1  0
 19 13  1  0
  1 29  1  0
  1 30  1  0
  1 31  1  0
  2 32  1  1
  3 33  1  0
  6 34  1  0
  6 35  1  0
  7 36  1  0
 11 37  1  0
 12 38  1  0
 14 39  1  0
 17 40  1  0
 18 41  1  0
 21 42  1  1
 22 43  1  0
 24 44  1  0
 25 45  1  0
 26 46  1  0
 27 47  1  0
 28 48  1  0
M  END
>  <smiles>  (32) 
C[C@H](NC(=O)CNC(=O)c1ccc2cc(Cl)ccc2n1)[C@H](O)c1ccccc1

>  <score_type>  (32) 
oracle

>  <origin>  (32) 
autodockgpu

>  <m_score__min__energy>  (32) 
-8.8800000000000008

>  <m_primary>  (32) 
energy

>  <rmsd>  (32) 
4.102142836849883

>  <m_score__min__rmsd>  (32) 
4.102142836849883

>  <meeko>  (32) 
{"free_energy": -8.27, "intermolecular_energy": -10.36, "internal_energy": -1.81, "cluster_size": 37, "cluster_id": 1, "rank_in_cluster": 17}

>  <energy>  (32) 
-7.66

>  <cluster_rmsd>  (32) 
1.46

>  <cluster>  (32) 
1

$$$$

     RDKit          3D

 48 50  0  0  0  0  0  0  0  0999 V2000
  138.8860   79.0570  223.4430 C   0  0  0  0  0  0  0  0  0  0  0  0
  138.8370   79.0750  221.9520 C   0  0  2  0  0  0  0  0  0  0  0  0
  139.2780   77.8230  221.3560 N   0  0  0  0  0  0  0  0  0  0  0  0
  138.9890   76.5590  221.9470 C   0  0  0  0  0  0  0  0  0  0  0  0
  138.3240   76.5680  223.0230 O   0  0  0  0  0  0  0  0  0  0  0  0
  139.4590   75.2980  221.3050 C   0  0  0  0  0  0  0  0  0  0  0  0
  139.5150   74.2950  222.3440 N   0  0  0  0  0  0  0  0  0  0  0  0
  139.9170   72.9730  222.0060 C   0  0  0  0  0  0  0  0  0  0  0  0
  140.2320   72.6300  220.8290 O   0  0  0  0  0  0  0  0  0  0  0  0
  139.9690   71.9680  223.0670 C   0  0  0  0  0  0  0  0  0  0  0  0
  139.5340   70.6770  222.8420 C   0  0  0  0  0  0  0  0  0  0  0  0
  139.5680   69.7040  223.8180 C   0  0  0  0  0  0  0  0  0  0  0  0
  140.0540   70.0320  225.0660 C   0  0  0  0  0  0  0  0  0  0  0  0
  140.1350   69.1440  226.1120 C   0  0  0  0  0  0  0  0  0  0  0  0
  140.6190   69.5030  227.3280 C   0  0  0  0  0  0  0  0  0  0  0  0
  140.7220   68.3730  228.6600 Cl  0  0  0  0  0  0  0  0  0  0  0  0
  141.0550   70.8090  227.5440 C   0  0  0  0  0  0  0  0  0  0  0  0
  140.9930   71.7400  226.5160 C   0  0  0  0  0  0  0  0  0  0  0  0
  140.4890   71.3210  225.2920 C   0  0  0  0  0  0  0  0  0  0  0  0
  140.4360   72.2400  224.3050 N   0  0  0  0  0  0  0  0  0  0  0  0
  139.7010   80.1560  221.3470 C   0  0  2  0  0  0  0  0  0  0  0  0
  139.9740   79.9520  220.0210 O   0  0  0  0  0  0  0  0  0  0  0  0
  140.8910   80.3330  222.2120 C   0  0  0  0  0  0  0  0  0  0  0  0
  141.9120   79.3970  222.2240 C   0  0  0  0  0  0  0  0  0  0  0  0
  142.9960   79.5990  223.0410 C   0  0  0  0  0  0  0  0  0  0  0  0
  143.1460   80.6820  223.8600 C   0  0  0  0  0  0  0  0  0  0  0  0
  142.1290   81.6250  223.8540 C   0  0  0  0  0  0  0  0  0  0  0  0
  141.0360   81.4300  223.0360 C   0  0  0  0  0  0  0  0  0  0  0  0
  137.9251   79.4100  223.8457 H   0  0  0  0  0  0  0  0  0  0  0  0
  139.0748   78.0308  223.7913 H   0  0  0  0  0  0  0  0  0  0  0  0
  139.6942   79.7170  223.7913 H   0  0  0  0  0  0  0  0  0  0  0  0
  137.7752   79.2583  221.7307 H   0  0  0  0  0  0  0  0  0  0  0  0
  139.8310   77.8400  220.4590 H   0  0  0  0  0  0  0  0  0  0  0  0
  138.7554   74.9889  220.5180 H   0  0  0  0  0  0  0  0  0  0  0  0
  140.4451   75.4372  220.8378 H   0  0  0  0  0  0  0  0  0  0  0  0
  139.2680   74.5240  223.3210 H   0  0  0  0  0  0  0  0  0  0  0  0
  139.1458   70.4151  221.8467 H   0  0  0  0  0  0  0  0  0  0  0  0
  139.2139   68.6846  223.6051 H   0  0  0  0  0  0  0  0  0  0  0  0
  139.7965   68.1087  225.9585 H   0  0  0  0  0  0  0  0  0  0  0  0
  141.4481   71.1020  228.5287 H   0  0  0  0  0  0  0  0  0  0  0  0
  141.3320   72.7756  226.6663 H   0  0  0  0  0  0  0  0  0  0  0  0
  139.1510   81.1084  221.3268 H   0  0  0  0  0  0  0  0  0  0  0  0
  140.2760   80.7560  219.5350 H   0  0  0  0  0  0  0  0  0  0  0  0
  141.8546   78.5025  221.5863 H   0  0  0  0  0  0  0  0  0  0  0  0
  143.7938   78.8417  223.0361 H   0  0  0  0  0  0  0  0  0  0  0  0
  144.0350   80.8010  224.4968 H   0  0  0  0  0  0  0  0  0  0  0  0
  142.1934   82.5174  224.4938 H   0  0  0  0  0  0  0  0  0  0  0  0
  140.2389   82.1880  223.0407 H   0  0  0  0  0  0  0  0  0  0  0  0
  1  2  1  0
  2  3  1  0
  3  4  1  0
  4  5  2  0
  4  6  1  0
  6  7  1  0
  7  8  1  0
  8  9  2  0
  8 10  1  0
 10 11  2  0
 11 12  1  0
 12 13  2  0
 13 14  1  0
 14 15  2  0
 15 16  1  0
 15 17  1  0
 17 18  2  0
 18 19  1  0
 19 20  2  0
  2 21  1  0
 21 22  1  0
 21 23  1  0
 23 24  2  0
 24 25  1  0
 25 26  2  0
 26 27  1  0
 27 28  2  0
 20 10  1  0
 28 23  1  0
 19 13  1  0
  1 29  1  0
  1 30  1  0
  1 31  1  0
  2 32  1  1
  3 33  1  0
  6 34  1  0
  6 35  1  0
  7 36  1  0
 11 37  1  0
 12 38  1  0
 14 39  1  0
 17 40  1  0
 18 41  1  0
 21 42  1  6
 22 43  1  0
 24 44  1  0
 25 45  1  0
 26 46  1  0
 27 47  1  0
 28 48  1  0
M  END
>  <smiles>  (33) 
C[C@H](NC(=O)CNC(=O)c1ccc2cc(Cl)ccc2n1)[C@H](O)c1ccccc1

>  <score_type>  (33) 
oracle

>  <origin>  (33) 
autodockgpu

>  <m_score__min__energy>  (33) 
-8.8800000000000008

>  <m_primary>  (33) 
energy

>  <rmsd>  (33) 
3.9723290054741502

>  <m_score__min__rmsd>  (33) 
3.9723290054741502

>  <meeko>  (33) 
{"free_energy": -8.02, "intermolecular_energy": -10.11, "internal_energy": -2.19, "cluster_size": 37, "cluster_id": 1, "rank_in_cluster": 26}

>  <energy>  (33) 
-7.63

>  <cluster_rmsd>  (33) 
1.54

>  <cluster>  (33) 
1

$$$$

     RDKit          3D

 48 50  0  0  0  0  0  0  0  0999 V2000
  139.1050   78.5340  222.4970 C   0  0  0  0  0  0  0  0  0  0  0  0
  139.6530   78.2250  221.1440 C   0  0  2  0  0  0  0  0  0  0  0  0
  139.3430   76.8730  220.7030 N   0  0  0  0  0  0  0  0  0  0  0  0
  139.4900   75.7450  221.5610 C   0  0  0  0  0  0  0  0  0  0  0  0
  139.9060   75.9660  222.7350 O   0  0  0  0  0  0  0  0  0  0  0  0
  139.1630   74.3740  221.0720 C   0  0  0  0  0  0  0  0  0  0  0  0
  139.3390   73.4770  222.1900 N   0  0  0  0  0  0  0  0  0  0  0  0
  139.3440   72.0730  221.9550 C   0  0  0  0  0  0  0  0  0  0  0  0
  139.2000   71.5690  220.8030 O   0  0  0  0  0  0  0  0  0  0  0  0
  139.5230   71.1770  223.0960 C   0  0  0  0  0  0  0  0  0  0  0  0
  139.0960   69.8650  223.0400 C   0  0  0  0  0  0  0  0  0  0  0  0
  139.2490   68.9910  224.0960 C   0  0  0  0  0  0  0  0  0  0  0  0
  139.8490   69.4440  225.2510 C   0  0  0  0  0  0  0  0  0  0  0  0
  140.0530   68.6630  226.3630 C   0  0  0  0  0  0  0  0  0  0  0  0
  140.6490   69.1430  227.4840 C   0  0  0  0  0  0  0  0  0  0  0  0
  140.9080   68.1490  228.9010 Cl  0  0  0  0  0  0  0  0  0  0  0  0
  141.0760   70.4700  227.5300 C   0  0  0  0  0  0  0  0  0  0  0  0
  140.8910   71.2960  226.4290 C   0  0  0  0  0  0  0  0  0  0  0  0
  140.2770   70.7540  225.3080 C   0  0  0  0  0  0  0  0  0  0  0  0
  140.1050   71.5730  224.2490 N   0  0  0  0  0  0  0  0  0  0  0  0
  141.1550   78.3570  221.0720 C   0  0  2  0  0  0  0  0  0  0  0  0
  141.8090   77.1580  221.1740 O   0  0  0  0  0  0  0  0  0  0  0  0
  141.5760   79.3850  222.0520 C   0  0  0  0  0  0  0  0  0  0  0  0
  141.3860   80.7340  221.7990 C   0  0  0  0  0  0  0  0  0  0  0  0
  141.7910   81.6540  222.7340 C   0  0  0  0  0  0  0  0  0  0  0  0
  142.3790   81.3300  223.9220 C   0  0  0  0  0  0  0  0  0  0  0  0
  142.5740   79.9810  224.1850 C   0  0  0  0  0  0  0  0  0  0  0  0
  142.1700   79.0510  223.2510 C   0  0  0  0  0  0  0  0  0  0  0  0
  139.7895   78.1480  223.2667 H   0  0  0  0  0  0  0  0  0  0  0  0
  139.0019   79.6232  222.6108 H   0  0  0  0  0  0  0  0  0  0  0  0
  138.1196   78.0585  222.6108 H   0  0  0  0  0  0  0  0  0  0  0  0
  139.1676   78.9673  220.4933 H   0  0  0  0  0  0  0  0  0  0  0  0
  138.9990   76.7120  219.7210 H   0  0  0  0  0  0  0  0  0  0  0  0
  138.1223   74.3370  220.7175 H   0  0  0  0  0  0  0  0  0  0  0  0
  139.8144   74.0895  220.2325 H   0  0  0  0  0  0  0  0  0  0  0  0
  139.4610   73.8380  223.1510 H   0  0  0  0  0  0  0  0  0  0  0  0
  138.6159   69.5034  222.1187 H   0  0  0  0  0  0  0  0  0  0  0  0
  138.8985   67.9513  224.0177 H   0  0  0  0  0  0  0  0  0  0  0  0
  139.7223   67.6141  226.3441 H   0  0  0  0  0  0  0  0  0  0  0  0
  141.5588   70.8619  228.4374 H   0  0  0  0  0  0  0  0  0  0  0  0
  141.2202   72.3455  226.4446 H   0  0  0  0  0  0  0  0  0  0  0  0
  141.4531   78.7007  220.0705 H   0  0  0  0  0  0  0  0  0  0  0  0
  141.8260   76.7740  222.0830 H   0  0  0  0  0  0  0  0  0  0  0  0
  140.9164   81.0637  220.8605 H   0  0  0  0  0  0  0  0  0  0  0  0
  141.6315   82.7194  222.5115 H   0  0  0  0  0  0  0  0  0  0  0  0
  142.6853   82.1046  224.6405 H   0  0  0  0  0  0  0  0  0  0  0  0
  143.0444   79.6586  225.1256 H   0  0  0  0  0  0  0  0  0  0  0  0
  142.3299   77.9858  223.4740 H   0  0  0  0  0  0  0  0  0  0  0  0
  1  2  1  0
  2  3  1  0
  3  4  1  0
  4  5  2  0
  4  6  1  0
  6  7  1  0
  7  8  1  0
  8  9  2  0
  8 10  1  0
 10 11  2  0
 11 12  1  0
 12 13  2  0
 13 14  1  0
 14 15  2  0
 15 16  1  0
 15 17  1  0
 17 18  2  0
 18 19  1  0
 19 20  2  0
  2 21  1  0
 21 22  1  0
 21 23  1  0
 23 24  2  0
 24 25  1  0
 25 26  2  0
 26 27  1  0
 27 28  2  0
 20 10  1  0
 28 23  1  0
 19 13  1  0
  1 29  1  0
  1 30  1  0
  1 31  1  0
  2 32  1  6
  3 33  1  0
  6 34  1  0
  6 35  1  0
  7 36  1  0
 11 37  1  0
 12 38  1  0
 14 39  1  0
 17 40  1  0
 18 41  1  0
 21 42  1  6
 22 43  1  0
 24 44  1  0
 25 45  1  0
 26 46  1  0
 27 47  1  0
 28 48  1  0
M  END
>  <smiles>  (34) 
C[C@H](NC(=O)CNC(=O)c1ccc2cc(Cl)ccc2n1)[C@H](O)c1ccccc1

>  <score_type>  (34) 
oracle

>  <origin>  (34) 
autodockgpu

>  <m_score__min__energy>  (34) 
-8.8800000000000008

>  <m_primary>  (34) 
energy

>  <rmsd>  (34) 
3.992931476239775

>  <m_score__min__rmsd>  (34) 
3.992931476239775

>  <meeko>  (34) 
{"free_energy": -8.6, "intermolecular_energy": -10.69, "internal_energy": -2.39, "cluster_size": 37, "cluster_id": 1, "rank_in_cluster": 6}

>  <energy>  (34) 
-7.43

>  <cluster_rmsd>  (34) 
1.68

>  <cluster>  (34) 
1

$$$$

     RDKit          3D

 48 50  0  0  0  0  0  0  0  0999 V2000
  139.1950   78.9750  223.4560 C   0  0  0  0  0  0  0  0  0  0  0  0
  139.0870   78.9690  221.9680 C   0  0  2  0  0  0  0  0  0  0  0  0
  139.4870   77.7010  221.3770 N   0  0  0  0  0  0  0  0  0  0  0  0
  138.9060   76.4620  221.7760 C   0  0  0  0  0  0  0  0  0  0  0  0
  138.0170   76.5090  222.6740 O   0  0  0  0  0  0  0  0  0  0  0  0
  139.3440   75.1830  221.1460 C   0  0  0  0  0  0  0  0  0  0  0  0
  139.3610   74.1860  222.1920 N   0  0  0  0  0  0  0  0  0  0  0  0
  140.0500   72.9610  221.9670 C   0  0  0  0  0  0  0  0  0  0  0  0
  140.6540   72.7010  220.8850 O   0  0  0  0  0  0  0  0  0  0  0  0
  140.0590   71.9610  223.0340 C   0  0  0  0  0  0  0  0  0  0  0  0
  139.5840   70.6840  222.8120 C   0  0  0  0  0  0  0  0  0  0  0  0
  139.5780   69.7160  223.7940 C   0  0  0  0  0  0  0  0  0  0  0  0
  140.0640   70.0350  225.0440 C   0  0  0  0  0  0  0  0  0  0  0  0
  140.1060   69.1510  226.0960 C   0  0  0  0  0  0  0  0  0  0  0  0
  140.5920   69.5000  227.3130 C   0  0  0  0  0  0  0  0  0  0  0  0
  140.6460   68.3750  228.6530 Cl  0  0  0  0  0  0  0  0  0  0  0  0
  141.0690   70.7930  227.5260 C   0  0  0  0  0  0  0  0  0  0  0  0
  141.0460   71.7190  226.4920 C   0  0  0  0  0  0  0  0  0  0  0  0
  140.5390   71.3100  225.2670 C   0  0  0  0  0  0  0  0  0  0  0  0
  140.5240   72.2250  224.2740 N   0  0  0  0  0  0  0  0  0  0  0  0
  139.9400   80.0270  221.3090 C   0  0  2  0  0  0  0  0  0  0  0  0
  140.2520   79.7380  220.0080 O   0  0  0  0  0  0  0  0  0  0  0  0
  141.1020   80.2940  222.1880 C   0  0  0  0  0  0  0  0  0  0  0  0
  142.2220   79.4780  222.1620 C   0  0  0  0  0  0  0  0  0  0  0  0
  143.2760   79.7610  222.9940 C   0  0  0  0  0  0  0  0  0  0  0  0
  143.3040   80.8130  223.8630 C   0  0  0  0  0  0  0  0  0  0  0  0
  142.1880   81.6370  223.8970 C   0  0  0  0  0  0  0  0  0  0  0  0
  141.1240   81.3590  223.0650 C   0  0  0  0  0  0  0  0  0  0  0  0
  138.1888   78.9191  223.8969 H   0  0  0  0  0  0  0  0  0  0  0  0
  139.7877   78.1084  223.7841 H   0  0  0  0  0  0  0  0  0  0  0  0
  139.6881   79.9019  223.7841 H   0  0  0  0  0  0  0  0  0  0  0  0
  138.0198   79.1644  221.7868 H   0  0  0  0  0  0  0  0  0  0  0  0
  140.2300   77.6860  220.6290 H   0  0  0  0  0  0  0  0  0  0  0  0
  138.6384   74.8896  220.3548 H   0  0  0  0  0  0  0  0  0  0  0  0
  140.3377   75.2896  220.6865 H   0  0  0  0  0  0  0  0  0  0  0  0
  138.8830   74.3500  223.0940 H   0  0  0  0  0  0  0  0  0  0  0  0
  139.1959   70.4292  221.8148 H   0  0  0  0  0  0  0  0  0  0  0  0
  139.1924   68.7075  223.5838 H   0  0  0  0  0  0  0  0  0  0  0  0
  139.7332   68.1271  225.9457 H   0  0  0  0  0  0  0  0  0  0  0  0
  141.4631   71.0789  228.5124 H   0  0  0  0  0  0  0  0  0  0  0  0
  141.4177   72.7438  226.6391 H   0  0  0  0  0  0  0  0  0  0  0  0
  139.3682   80.9612  221.2078 H   0  0  0  0  0  0  0  0  0  0  0  0
  139.4860   79.4570  219.4530 H   0  0  0  0  0  0  0  0  0  0  0  0
  142.2655   78.6139  221.4827 H   0  0  0  0  0  0  0  0  0  0  0  0
  144.1533   79.0984  222.9583 H   0  0  0  0  0  0  0  0  0  0  0  0
  144.1744   80.9998  224.5091 H   0  0  0  0  0  0  0  0  0  0  0  0
  142.1526   82.5000  224.5782 H   0  0  0  0  0  0  0  0  0  0  0  0
  140.2465   82.0212  223.1025 H   0  0  0  0  0  0  0  0  0  0  0  0
  1  2  1  0
  2  3  1  0
  3  4  1  0
  4  5  2  0
  4  6  1  0
  6  7  1  0
  7  8  1  0
  8  9  2  0
  8 10  1  0
 10 11  2  0
 11 12  1  0
 12 13  2  0
 13 14  1  0
 14 15  2  0
 15 16  1  0
 15 17  1  0
 17 18  2  0
 18 19  1  0
 19 20  2  0
  2 21  1  0
 21 22  1  0
 21 23  1  0
 23 24  2  0
 24 25  1  0
 25 26  2  0
 26 27  1  0
 27 28  2  0
 20 10  1  0
 28 23  1  0
 19 13  1  0
  1 29  1  0
  1 30  1  0
  1 31  1  0
  2 32  1  1
  3 33  1  0
  6 34  1  0
  6 35  1  0
  7 36  1  0
 11 37  1  0
 12 38  1  0
 14 39  1  0
 17 40  1  0
 18 41  1  0
 21 42  1  6
 22 43  1  0
 24 44  1  0
 25 45  1  0
 26 46  1  0
 27 47  1  0
 28 48  1  0
M  END
>  <smiles>  (35) 
C[C@H](NC(=O)CNC(=O)c1ccc2cc(Cl)ccc2n1)[C@H](O)c1ccccc1

>  <score_type>  (35) 
oracle

>  <origin>  (35) 
autodockgpu

>  <m_score__min__energy>  (35) 
-8.8800000000000008

>  <m_primary>  (35) 
energy

>  <rmsd>  (35) 
3.957019726634708

>  <m_score__min__rmsd>  (35) 
3.957019726634708

>  <meeko>  (35) 
{"free_energy": -8.1, "intermolecular_energy": -10.19, "internal_energy": -2.18, "cluster_size": 37, "cluster_id": 1, "rank_in_cluster": 21}

>  <energy>  (35) 
-7.35

>  <cluster_rmsd>  (35) 
1.31

>  <cluster>  (35) 
1

$$$$

     RDKit          3D

 48 50  0  0  0  0  0  0  0  0999 V2000
  141.3080   78.1950  220.3280 C   0  0  0  0  0  0  0  0  0  0  0  0
  141.4300   77.0290  221.2500 C   0  0  2  0  0  0  0  0  0  0  0  0
  140.7490   75.8420  220.7540 N   0  0  0  0  0  0  0  0  0  0  0  0
  141.4530   74.7630  220.1460 C   0  0  0  0  0  0  0  0  0  0  0  0
  142.7100   74.8780  220.0530 O   0  0  0  0  0  0  0  0  0  0  0  0
  140.7190   73.5640  219.6500 C   0  0  0  0  0  0  0  0  0  0  0  0
  140.7130   72.6000  220.7270 N   0  0  0  0  0  0  0  0  0  0  0  0
  140.0940   72.9460  221.9600 C   0  0  0  0  0  0  0  0  0  0  0  0
  139.5410   74.0670  222.1610 O   0  0  0  0  0  0  0  0  0  0  0  0
  140.0950   71.9610  223.0410 C   0  0  0  0  0  0  0  0  0  0  0  0
  139.5960   70.6890  222.8410 C   0  0  0  0  0  0  0  0  0  0  0  0
  139.5820   69.7350  223.8370 C   0  0  0  0  0  0  0  0  0  0  0  0
  140.0830   70.0630  225.0780 C   0  0  0  0  0  0  0  0  0  0  0  0
  140.1190   69.1940  226.1420 C   0  0  0  0  0  0  0  0  0  0  0  0
  140.6210   69.5520  227.3500 C   0  0  0  0  0  0  0  0  0  0  0  0
  140.6670   68.4450  228.7060 Cl  0  0  0  0  0  0  0  0  0  0  0  0
  141.1220   70.8390  227.5410 C   0  0  0  0  0  0  0  0  0  0  0  0
  141.1060   71.7510  226.4940 C   0  0  0  0  0  0  0  0  0  0  0  0
  140.5820   71.3340  225.2790 C   0  0  0  0  0  0  0  0  0  0  0  0
  140.5750   72.2340  224.2730 N   0  0  0  0  0  0  0  0  0  0  0  0
  140.8600   77.2980  222.6220 C   0  0  2  0  0  0  0  0  0  0  0  0
  139.5370   76.9680  222.7330 O   0  0  0  0  0  0  0  0  0  0  0  0
  141.1900   78.6950  222.9920 C   0  0  0  0  0  0  0  0  0  0  0  0
  140.1940   79.6260  223.2320 C   0  0  0  0  0  0  0  0  0  0  0  0
  140.5430   80.9090  223.5710 C   0  0  0  0  0  0  0  0  0  0  0  0
  141.8310   81.3440  223.6940 C   0  0  0  0  0  0  0  0  0  0  0  0
  142.8370   80.4190  223.4560 C   0  0  0  0  0  0  0  0  0  0  0  0
  142.4950   79.1280  223.1150 C   0  0  0  0  0  0  0  0  0  0  0  0
  141.2113   79.1193  220.9165 H   0  0  0  0  0  0  0  0  0  0  0  0
  142.2046   78.2563  219.6937 H   0  0  0  0  0  0  0  0  0  0  0  0
  140.4181   78.0694  219.6937 H   0  0  0  0  0  0  0  0  0  0  0  0
  142.5153   76.8599  221.3088 H   0  0  0  0  0  0  0  0  0  0  0  0
  139.7020   75.7680  220.8430 H   0  0  0  0  0  0  0  0  0  0  0  0
  139.6879   73.8364  219.3804 H   0  0  0  0  0  0  0  0  0  0  0  0
  141.2026   73.1494  218.7532 H   0  0  0  0  0  0  0  0  0  0  0  0
  141.1500   71.6700  220.6130 H   0  0  0  0  0  0  0  0  0  0  0  0
  139.1949   70.4270  221.8508 H   0  0  0  0  0  0  0  0  0  0  0  0
  139.1781   68.7302  223.6441 H   0  0  0  0  0  0  0  0  0  0  0  0
  139.7278   68.1745  226.0095 H   0  0  0  0  0  0  0  0  0  0  0  0
  141.5295   71.1316  228.5200 H   0  0  0  0  0  0  0  0  0  0  0  0
  141.4962   72.7712  226.6238 H   0  0  0  0  0  0  0  0  0  0  0  0
  141.3285   76.6302  223.3599 H   0  0  0  0  0  0  0  0  0  0  0  0
  139.3640   76.0100  222.8970 H   0  0  0  0  0  0  0  0  0  0  0  0
  139.1347   79.3405  223.1518 H   0  0  0  0  0  0  0  0  0  0  0  0
  139.7346   81.6319  223.7551 H   0  0  0  0  0  0  0  0  0  0  0  0
  142.0613   82.3836  223.9700 H   0  0  0  0  0  0  0  0  0  0  0  0
  143.8941   80.7120  223.5383 H   0  0  0  0  0  0  0  0  0  0  0  0
  143.3038   78.4054  222.9314 H   0  0  0  0  0  0  0  0  0  0  0  0
  1  2  1  0
  2  3  1  0
  3  4  1  0
  4  5  2  0
  4  6  1  0
  6  7  1  0
  7  8  1  0
  8  9  2  0
  8 10  1  0
 10 11  2  0
 11 12  1  0
 12 13  2  0
 13 14  1  0
 14 15  2  0
 15 16  1  0
 15 17  1  0
 17 18  2  0
 18 19  1  0
 19 20  2  0
  2 21  1  0
 21 22  1  0
 21 23  1  0
 23 24  2  0
 24 25  1  0
 25 26  2  0
 26 27  1  0
 27 28  2  0
 20 10  1  0
 28 23  1  0
 19 13  1  0
  1 29  1  0
  1 30  1  0
  1 31  1  0
  2 32  1  1
  3 33  1  0
  6 34  1  0
  6 35  1  0
  7 36  1  0
 11 37  1  0
 12 38  1  0
 14 39  1  0
 17 40  1  0
 18 41  1  0
 21 42  1  1
 22 43  1  0
 24 44  1  0
 25 45  1  0
 26 46  1  0
 27 47  1  0
 28 48  1  0
M  END
>  <smiles>  (36) 
C[C@H](NC(=O)CNC(=O)c1ccc2cc(Cl)ccc2n1)[C@H](O)c1ccccc1

>  <score_type>  (36) 
oracle

>  <origin>  (36) 
autodockgpu

>  <m_score__min__energy>  (36) 
-8.8800000000000008

>  <m_primary>  (36) 
energy

>  <rmsd>  (36) 
3.83285648437337

>  <m_score__min__rmsd>  (36) 
3.83285648437337

>  <meeko>  (36) 
{"free_energy": -8.32, "intermolecular_energy": -10.41, "internal_energy": -3.04, "cluster_size": 37, "cluster_id": 1, "rank_in_cluster": 14}

>  <energy>  (36) 
-7.23

>  <cluster_rmsd>  (36) 
1.76

>  <cluster>  (36) 
1

$$$$

     RDKit          3D

 48 50  0  0  0  0  0  0  0  0999 V2000
  141.3240   76.8720  221.0830 C   0  0  0  0  0  0  0  0  0  0  0  0
  140.5440   76.6710  222.3390 C   0  0  2  0  0  0  0  0  0  0  0  0
  139.6530   75.5220  222.2740 N   0  0  0  0  0  0  0  0  0  0  0  0
  138.8830   75.2250  221.1120 C   0  0  0  0  0  0  0  0  0  0  0  0
  139.0050   76.0090  220.1270 O   0  0  0  0  0  0  0  0  0  0  0  0
  137.9810   74.0380  221.0850 C   0  0  0  0  0  0  0  0  0  0  0  0
  138.3770   73.1850  222.1830 N   0  0  0  0  0  0  0  0  0  0  0  0
  138.3640   71.7750  222.0000 C   0  0  0  0  0  0  0  0  0  0  0  0
  138.0200   71.2250  220.9130 O   0  0  0  0  0  0  0  0  0  0  0  0
  138.7680   70.9240  223.1190 C   0  0  0  0  0  0  0  0  0  0  0  0
  138.4740   69.5750  223.1250 C   0  0  0  0  0  0  0  0  0  0  0  0
  138.8380   68.7430  224.1620 C   0  0  0  0  0  0  0  0  0  0  0  0
  139.5210   69.2770  225.2340 C   0  0  0  0  0  0  0  0  0  0  0  0
  139.9340   68.5430  226.3200 C   0  0  0  0  0  0  0  0  0  0  0  0
  140.6050   69.1040  227.3570 C   0  0  0  0  0  0  0  0  0  0  0  0
  141.1300   68.1690  228.7410 Cl  0  0  0  0  0  0  0  0  0  0  0  0
  140.8960   70.4670  227.3410 C   0  0  0  0  0  0  0  0  0  0  0  0
  140.4990   71.2480  226.2640 C   0  0  0  0  0  0  0  0  0  0  0  0
  139.8160   70.6250  225.2290 C   0  0  0  0  0  0  0  0  0  0  0  0
  139.4380   71.4000  224.1910 N   0  0  0  0  0  0  0  0  0  0  0  0
  139.6760   77.8560  222.6890 C   0  0  2  0  0  0  0  0  0  0  0  0
  138.6770   78.0840  221.7810 O   0  0  0  0  0  0  0  0  0  0  0  0
  140.5610   79.0150  222.9510 C   0  0  0  0  0  0  0  0  0  0  0  0
  141.7590   78.8610  223.6300 C   0  0  0  0  0  0  0  0  0  0  0  0
  142.5490   79.9610  223.8520 C   0  0  0  0  0  0  0  0  0  0  0  0
  142.2350   81.2250  223.4410 C   0  0  0  0  0  0  0  0  0  0  0  0
  141.0370   81.3890  222.7600 C   0  0  0  0  0  0  0  0  0  0  0  0
  140.2370   80.2890  222.5330 C   0  0  0  0  0  0  0  0  0  0  0  0
  142.3611   77.1392  221.3342 H   0  0  0  0  0  0  0  0  0  0  0  0
  141.3171   75.9427  220.4944 H   0  0  0  0  0  0  0  0  0  0  0  0
  140.8689   77.6822  220.4944 H   0  0  0  0  0  0  0  0  0  0  0  0
  141.3200   76.5191  223.1037 H   0  0  0  0  0  0  0  0  0  0  0  0
  139.5670   74.8820  223.1070 H   0  0  0  0  0  0  0  0  0  0  0  0
  136.9350   74.3547  221.2102 H   0  0  0  0  0  0  0  0  0  0  0  0
  138.0585   73.5061  220.1253 H   0  0  0  0  0  0  0  0  0  0  0  0
  138.6670   73.5850  223.0910 H   0  0  0  0  0  0  0  0  0  0  0  0
  137.9289   69.1482  222.2702 H   0  0  0  0  0  0  0  0  0  0  0  0
  138.5880   67.6721  224.1347 H   0  0  0  0  0  0  0  0  0  0  0  0
  139.7134   67.4658  226.3493 H   0  0  0  0  0  0  0  0  0  0  0  0
  141.4398   70.9236  228.1811 H   0  0  0  0  0  0  0  0  0  0  0  0
  140.7186   72.3254  226.2321 H   0  0  0  0  0  0  0  0  0  0  0  0
  139.1096   77.6460  223.6083 H   0  0  0  0  0  0  0  0  0  0  0  0
  138.7720   77.5900  220.9320 H   0  0  0  0  0  0  0  0  0  0  0  0
  142.0731   77.8690  223.9868 H   0  0  0  0  0  0  0  0  0  0  0  0
  143.4945   79.8155  224.3951 H   0  0  0  0  0  0  0  0  0  0  0  0
  142.9026   82.0760  223.6410 H   0  0  0  0  0  0  0  0  0  0  0  0
  140.7294   82.3839  222.4057 H   0  0  0  0  0  0  0  0  0  0  0  0
  139.2913   80.4351  221.9904 H   0  0  0  0  0  0  0  0  0  0  0  0
  1  2  1  0
  2  3  1  0
  3  4  1  0
  4  5  2  0
  4  6  1  0
  6  7  1  0
  7  8  1  0
  8  9  2  0
  8 10  1  0
 10 11  2  0
 11 12  1  0
 12 13  2  0
 13 14  1  0
 14 15  2  0
 15 16  1  0
 15 17  1  0
 17 18  2  0
 18 19  1  0
 19 20  2  0
  2 21  1  0
 21 22  1  0
 21 23  1  0
 23 24  2  0
 24 25  1  0
 25 26  2  0
 26 27  1  0
 27 28  2  0
 20 10  1  0
 28 23  1  0
 19 13  1  0
  1 29  1  0
  1 30  1  0
  1 31  1  0
  2 32  1  1
  3 33  1  0
  6 34  1  0
  6 35  1  0
  7 36  1  0
 11 37  1  0
 12 38  1  0
 14 39  1  0
 17 40  1  0
 18 41  1  0
 21 42  1  1
 22 43  1  0
 24 44  1  0
 25 45  1  0
 26 46  1  0
 27 47  1  0
 28 48  1  0
M  END
>  <smiles>  (37) 
C[C@H](NC(=O)CNC(=O)c1ccc2cc(Cl)ccc2n1)[C@H](O)c1ccccc1

>  <score_type>  (37) 
oracle

>  <origin>  (37) 
autodockgpu

>  <m_score__min__energy>  (37) 
-8.8800000000000008

>  <m_primary>  (37) 
energy

>  <rmsd>  (37) 
4.178109707873824

>  <m_score__min__rmsd>  (37) 
4.178109707873824

>  <meeko>  (37) 
{"free_energy": -8.35, "intermolecular_energy": -10.44, "internal_energy": -1.88, "cluster_size": 37, "cluster_id": 1, "rank_in_cluster": 12}

>  <energy>  (37) 
-6.99

>  <cluster_rmsd>  (37) 
1.57

>  <cluster>  (37) 
1

$$$$

     RDKit          3D

 48 50  0  0  0  0  0  0  0  0999 V2000
  139.0850   78.5260  222.5280 C   0  0  0  0  0  0  0  0  0  0  0  0
  139.5750   78.2390  221.1480 C   0  0  2  0  0  0  0  0  0  0  0  0
  139.2680   76.8850  220.7100 N   0  0  0  0  0  0  0  0  0  0  0  0
  139.4900   75.7510  221.5430 C   0  0  0  0  0  0  0  0  0  0  0  0
  139.9690   75.9690  222.6940 O   0  0  0  0  0  0  0  0  0  0  0  0
  139.1640   74.3790  221.0570 C   0  0  0  0  0  0  0  0  0  0  0  0
  139.3840   73.4790  222.1650 N   0  0  0  0  0  0  0  0  0  0  0  0
  139.2710   72.0770  221.9490 C   0  0  0  0  0  0  0  0  0  0  0  0
  138.9850   71.5760  220.8220 O   0  0  0  0  0  0  0  0  0  0  0  0
  139.4960   71.1770  223.0790 C   0  0  0  0  0  0  0  0  0  0  0  0
  139.1230   69.8500  223.0140 C   0  0  0  0  0  0  0  0  0  0  0  0
  139.3200   68.9730  224.0590 C   0  0  0  0  0  0  0  0  0  0  0  0
  139.9110   69.4380  225.2140 C   0  0  0  0  0  0  0  0  0  0  0  0
  140.1560   68.6550  226.3170 C   0  0  0  0  0  0  0  0  0  0  0  0
  140.7410   69.1490  227.4370 C   0  0  0  0  0  0  0  0  0  0  0  0
  141.0520   68.1520  228.8420 Cl  0  0  0  0  0  0  0  0  0  0  0  0
  141.1130   70.4910  227.4930 C   0  0  0  0  0  0  0  0  0  0  0  0
  140.8850   71.3200  226.4030 C   0  0  0  0  0  0  0  0  0  0  0  0
  140.2850   70.7640  225.2810 C   0  0  0  0  0  0  0  0  0  0  0  0
  140.0710   71.5860  224.2320 N   0  0  0  0  0  0  0  0  0  0  0  0
  141.0700   78.3980  221.0070 C   0  0  2  0  0  0  0  0  0  0  0  0
  141.7470   77.2090  221.0520 O   0  0  0  0  0  0  0  0  0  0  0  0
  141.5200   79.4120  221.9890 C   0  0  0  0  0  0  0  0  0  0  0  0
  142.1690   79.0410  223.1550 C   0  0  0  0  0  0  0  0  0  0  0  0
  142.5680   80.0130  224.0380 C   0  0  0  0  0  0  0  0  0  0  0  0
  142.3700   81.3500  223.8460 C   0  0  0  0  0  0  0  0  0  0  0  0
  141.7210   81.7320  222.6800 C   0  0  0  0  0  0  0  0  0  0  0  0
  141.3160   80.7620  221.7880 C   0  0  0  0  0  0  0  0  0  0  0  0
  139.7922   78.1118  223.2617 H   0  0  0  0  0  0  0  0  0  0  0  0
  139.0048   79.6139  222.6698 H   0  0  0  0  0  0  0  0  0  0  0  0
  138.0969   78.0639  222.6698 H   0  0  0  0  0  0  0  0  0  0  0  0
  139.0478   78.9786  220.5275 H   0  0  0  0  0  0  0  0  0  0  0  0
  138.8700   76.7270  219.7470 H   0  0  0  0  0  0  0  0  0  0  0  0
  138.1136   74.3317  220.7338 H   0  0  0  0  0  0  0  0  0  0  0  0
  139.7927   74.1059  220.1967 H   0  0  0  0  0  0  0  0  0  0  0  0
  139.6200   73.8370  223.1060 H   0  0  0  0  0  0  0  0  0  0  0  0
  138.6504   69.4779  222.0931 H   0  0  0  0  0  0  0  0  0  0  0  0
  139.0111   67.9208  223.9727 H   0  0  0  0  0  0  0  0  0  0  0  0
  139.8685   67.5936  226.2907 H   0  0  0  0  0  0  0  0  0  0  0  0
  141.5871   70.8931  228.4005 H   0  0  0  0  0  0  0  0  0  0  0  0
  141.1702   72.3821  226.4274 H   0  0  0  0  0  0  0  0  0  0  0  0
  141.3147   78.7673  220.0002 H   0  0  0  0  0  0  0  0  0  0  0  0
  141.8310   76.8160  221.9530 H   0  0  0  0  0  0  0  0  0  0  0  0
  142.3624   77.9798  223.3708 H   0  0  0  0  0  0  0  0  0  0  0  0
  143.0795   79.6947  224.9583 H   0  0  0  0  0  0  0  0  0  0  0  0
  142.7100   82.0923  224.5832 H   0  0  0  0  0  0  0  0  0  0  0  0
  141.5322   82.7952  222.4703 H   0  0  0  0  0  0  0  0  0  0  0  0
  140.8036   81.0806  220.8683 H   0  0  0  0  0  0  0  0  0  0  0  0
  1  2  1  0
  2  3  1  0
  3  4  1  0
  4  5  2  0
  4  6  1  0
  6  7  1  0
  7  8  1  0
  8  9  2  0
  8 10  1  0
 10 11  2  0
 11 12  1  0
 12 13  2  0
 13 14  1  0
 14 15  2  0
 15 16  1  0
 15 17  1  0
 17 18  2  0
 18 19  1  0
 19 20  2  0
  2 21  1  0
 21 22  1  0
 21 23  1  0
 23 24  2  0
 24 25  1  0
 25 26  2  0
 26 27  1  0
 27 28  2  0
 20 10  1  0
 28 23  1  0
 19 13  1  0
  1 29  1  0
  1 30  1  0
  1 31  1  0
  2 32  1  6
  3 33  1  0
  6 34  1  0
  6 35  1  0
  7 36  1  0
 11 37  1  0
 12 38  1  0
 14 39  1  0
 17 40  1  0
 18 41  1  0
 21 42  1  6
 22 43  1  0
 24 44  1  0
 25 45  1  0
 26 46  1  0
 27 47  1  0
 28 48  1  0
M  END
>  <smiles>  (38) 
C[C@H](NC(=O)CNC(=O)c1ccc2cc(Cl)ccc2n1)[C@H](O)c1ccccc1

>  <score_type>  (38) 
oracle

>  <origin>  (38) 
autodockgpu

>  <m_score__min__energy>  (38) 
-8.8800000000000008

>  <m_primary>  (38) 
energy

>  <rmsd>  (38) 
4.104096194503228

>  <m_score__min__rmsd>  (38) 
4.104096194503228

>  <meeko>  (38) 
{"free_energy": -8.63, "intermolecular_energy": -10.72, "internal_energy": -2.42, "cluster_size": 37, "cluster_id": 1, "rank_in_cluster": 5}

>  <energy>  (38) 
-8.71

>  <cluster_rmsd>  (38) 
0.0

>  <cluster>  (38) 
2

$$$$

     RDKit          3D

 48 50  0  0  0  0  0  0  0  0999 V2000
  138.8320   78.2800  221.9320 C   0  0  0  0  0  0  0  0  0  0  0  0
  139.5910   77.6550  220.8110 C   0  0  2  0  0  0  0  0  0  0  0  0
  139.1520   76.2990  220.5160 N   0  0  0  0  0  0  0  0  0  0  0  0
  138.9750   75.3220  221.5390 C   0  0  0  0  0  0  0  0  0  0  0  0
  139.2170   75.6830  222.7260 O   0  0  0  0  0  0  0  0  0  0  0  0
  138.5240   73.9420  221.1970 C   0  0  0  0  0  0  0  0  0  0  0  0
  138.8710   73.0980  222.3170 N   0  0  0  0  0  0  0  0  0  0  0  0
  138.7570   71.6860  222.1800 C   0  0  0  0  0  0  0  0  0  0  0  0
  138.3640   71.1290  221.1130 O   0  0  0  0  0  0  0  0  0  0  0  0
  139.1110   70.8440  223.3220 C   0  0  0  0  0  0  0  0  0  0  0  0
  138.8100   69.4970  223.3290 C   0  0  0  0  0  0  0  0  0  0  0  0
  139.1280   68.6730  224.3870 C   0  0  0  0  0  0  0  0  0  0  0  0
  139.7710   69.2150  225.4800 C   0  0  0  0  0  0  0  0  0  0  0  0
  140.1350   68.4890  226.5890 C   0  0  0  0  0  0  0  0  0  0  0  0
  140.7670   69.0570  227.6480 C   0  0  0  0  0  0  0  0  0  0  0  0
  141.2310   68.1330  229.0600 Cl  0  0  0  0  0  0  0  0  0  0  0  0
  141.0650   70.4180  227.6300 C   0  0  0  0  0  0  0  0  0  0  0  0
  140.7160   71.1900  226.5310 C   0  0  0  0  0  0  0  0  0  0  0  0
  140.0720   70.5610  225.4750 C   0  0  0  0  0  0  0  0  0  0  0  0
  139.7400   71.3280  224.4150 N   0  0  0  0  0  0  0  0  0  0  0  0
  141.0750   77.5670  221.0790 C   0  0  2  0  0  0  0  0  0  0  0  0
  141.4570   76.3680  221.6180 O   0  0  0  0  0  0  0  0  0  0  0  0
  141.4730   78.7610  221.8600 C   0  0  0  0  0  0  0  0  0  0  0  0
  141.6840   78.6840  223.2270 C   0  0  0  0  0  0  0  0  0  0  0  0
  142.0510   79.8150  223.9130 C   0  0  0  0  0  0  0  0  0  0  0  0
  142.2300   81.0380  223.3330 C   0  0  0  0  0  0  0  0  0  0  0  0
  142.0220   81.1250  221.9630 C   0  0  0  0  0  0  0  0  0  0  0  0
  141.6530   79.9940  221.2670 C   0  0  0  0  0  0  0  0  0  0  0  0
  139.2472   77.9381  222.8915 H   0  0  0  0  0  0  0  0  0  0  0  0
  138.9153   79.3748  221.8657 H   0  0  0  0  0  0  0  0  0  0  0  0
  137.7735   77.9882  221.8657 H   0  0  0  0  0  0  0  0  0  0  0  0
  139.3899   78.3231  219.9606 H   0  0  0  0  0  0  0  0  0  0  0  0
  138.9570   76.0190  219.5200 H   0  0  0  0  0  0  0  0  0  0  0  0
  137.4359   73.9286  221.0359 H   0  0  0  0  0  0  0  0  0  0  0  0
  139.0048   73.5880  220.2731 H   0  0  0  0  0  0  0  0  0  0  0  0
  139.1980   73.5040  223.2100 H   0  0  0  0  0  0  0  0  0  0  0  0
  138.2969   69.0648  222.4572 H   0  0  0  0  0  0  0  0  0  0  0  0
  138.8737   67.6031  224.3601 H   0  0  0  0  0  0  0  0  0  0  0  0
  139.9069   67.4133  226.6195 H   0  0  0  0  0  0  0  0  0  0  0  0
  141.5768   70.8804  228.4869 H   0  0  0  0  0  0  0  0  0  0  0  0
  140.9426   72.2659  226.4980 H   0  0  0  0  0  0  0  0  0  0  0  0
  141.6301   77.5817  220.1294 H   0  0  0  0  0  0  0  0  0  0  0  0
  140.9250   75.5930  221.3200 H   0  0  0  0  0  0  0  0  0  0  0  0
  141.5590   77.7279  223.7565 H   0  0  0  0  0  0  0  0  0  0  0  0
  142.2109   79.7307  224.9980 H   0  0  0  0  0  0  0  0  0  0  0  0
  142.5261   81.9163  223.9254 H   0  0  0  0  0  0  0  0  0  0  0  0
  142.1501   82.0841  221.4398 H   0  0  0  0  0  0  0  0  0  0  0  0
  141.4936   80.0787  220.1819 H   0  0  0  0  0  0  0  0  0  0  0  0
  1  2  1  0
  2  3  1  0
  3  4  1  0
  4  5  2  0
  4  6  1  0
  6  7  1  0
  7  8  1  0
  8  9  2  0
  8 10  1  0
 10 11  2  0
 11 12  1  0
 12 13  2  0
 13 14  1  0
 14 15  2  0
 15 16  1  0
 15 17  1  0
 17 18  2  0
 18 19  1  0
 19 20  2  0
  2 21  1  0
 21 22  1  0
 21 23  1  0
 23 24  2  0
 24 25  1  0
 25 26  2  0
 26 27  1  0
 27 28  2  0
 20 10  1  0
 28 23  1  0
 19 13  1  0
  1 29  1  0
  1 30  1  0
  1 31  1  0
  2 32  1  6
  3 33  1  0
  6 34  1  0
  6 35  1  0
  7 36  1  0
 11 37  1  0
 12 38  1  0
 14 39  1  0
 17 40  1  0
 18 41  1  0
 21 42  1  6
 22 43  1  0
 24 44  1  0
 25 45  1  0
 26 46  1  0
 27 47  1  0
 28 48  1  0
M  END
>  <smiles>  (39) 
C[C@H](NC(=O)CNC(=O)c1ccc2cc(Cl)ccc2n1)[C@H](O)c1ccccc1

>  <score_type>  (39) 
oracle

>  <origin>  (39) 
autodockgpu

>  <m_score__min__energy>  (39) 
-8.8800000000000008

>  <m_primary>  (39) 
energy

>  <rmsd>  (39) 
4.234287956227021

>  <m_score__min__rmsd>  (39) 
4.234287956227021

>  <meeko>  (39) 
{"free_energy": -7.96, "intermolecular_energy": -10.05, "internal_energy": -2.08, "cluster_size": 37, "cluster_id": 1, "rank_in_cluster": 29}

>  <energy>  (39) 
-7.59

>  <cluster_rmsd>  (39) 
0.0

>  <cluster>  (39) 
3

$$$$

     RDKit          3D

 48 50  0  0  0  0  0  0  0  0999 V2000
  139.5780   77.4220  222.7210 C   0  0  0  0  0  0  0  0  0  0  0  0
  139.8280   77.4390  221.2510 C   0  0  2  0  0  0  0  0  0  0  0  0
  139.8460   76.1080  220.6640 N   0  0  0  0  0  0  0  0  0  0  0  0
  138.6480   75.4190  220.3130 C   0  0  0  0  0  0  0  0  0  0  0  0
  137.5560   76.0180  220.5330 O   0  0  0  0  0  0  0  0  0  0  0  0
  138.7070   74.0550  219.7140 C   0  0  0  0  0  0  0  0  0  0  0  0
  138.6670   73.1140  220.8100 N   0  0  0  0  0  0  0  0  0  0  0  0
  139.7970   73.0010  221.6660 C   0  0  0  0  0  0  0  0  0  0  0  0
  140.8460   73.6930  221.5140 O   0  0  0  0  0  0  0  0  0  0  0  0
  139.7410   72.0450  222.7710 C   0  0  0  0  0  0  0  0  0  0  0  0
  139.0230   70.8720  222.6580 C   0  0  0  0  0  0  0  0  0  0  0  0
  138.9480   69.9480  223.6780 C   0  0  0  0  0  0  0  0  0  0  0  0
  139.6150   70.2050  224.8570 C   0  0  0  0  0  0  0  0  0  0  0  0
  139.6110   69.3560  225.9380 C   0  0  0  0  0  0  0  0  0  0  0  0
  140.2800   69.6430  227.0830 C   0  0  0  0  0  0  0  0  0  0  0  0
  140.2750   68.5630  228.4610 Cl  0  0  0  0  0  0  0  0  0  0  0  0
  141.0020   70.8310  227.1870 C   0  0  0  0  0  0  0  0  0  0  0  0
  141.0350   71.7180  226.1200 C   0  0  0  0  0  0  0  0  0  0  0  0
  140.3340   71.3770  224.9720 C   0  0  0  0  0  0  0  0  0  0  0  0
  140.3770   72.2520  223.9450 N   0  0  0  0  0  0  0  0  0  0  0  0
  141.1470   78.0770  220.8840 C   0  0  2  0  0  0  0  0  0  0  0  0
  142.1650   77.1720  220.7430 O   0  0  0  0  0  0  0  0  0  0  0  0
  141.4120   79.1730  221.8460 C   0  0  0  0  0  0  0  0  0  0  0  0
  140.7530   80.3870  221.7450 C   0  0  0  0  0  0  0  0  0  0  0  0
  141.0290   81.3770  222.6560 C   0  0  0  0  0  0  0  0  0  0  0  0
  141.9240   81.2470  223.6780 C   0  0  0  0  0  0  0  0  0  0  0  0
  142.5890   80.0340  223.7880 C   0  0  0  0  0  0  0  0  0  0  0  0
  142.3180   79.0360  222.8770 C   0  0  0  0  0  0  0  0  0  0  0  0
  140.5365   77.4872  223.2567 H   0  0  0  0  0  0  0  0  0  0  0  0
  138.9456   78.2792  222.9953 H   0  0  0  0  0  0  0  0  0  0  0  0
  139.0675   76.4870  222.9953 H   0  0  0  0  0  0  0  0  0  0  0  0
  138.9883   78.0284  220.8541 H   0  0  0  0  0  0  0  0  0  0  0  0
  140.7670   75.6270  220.4890 H   0  0  0  0  0  0  0  0  0  0  0  0
  137.8462   73.8967  219.0478 H   0  0  0  0  0  0  0  0  0  0  0  0
  139.6219   73.9260  219.1171 H   0  0  0  0  0  0  0  0  0  0  0  0
  137.8330   72.5260  220.9770 H   0  0  0  0  0  0  0  0  0  0  0  0
  138.4901   70.6665  221.7179 H   0  0  0  0  0  0  0  0  0  0  0  0
  138.3666   69.0225  223.5537 H   0  0  0  0  0  0  0  0  0  0  0  0
  139.0473   68.4137  225.8727 H   0  0  0  0  0  0  0  0  0  0  0  0
  141.5453   71.0653  228.1143 H   0  0  0  0  0  0  0  0  0  0  0  0
  141.5985   72.6606  226.1823 H   0  0  0  0  0  0  0  0  0  0  0  0
  141.0846   78.5157  219.8772 H   0  0  0  0  0  0  0  0  0  0  0  0
  143.0400   77.4820  221.0770 H   0  0  0  0  0  0  0  0  0  0  0  0
  140.0175   80.5562  220.9448 H   0  0  0  0  0  0  0  0  0  0  0  0
  140.4957   82.3338  222.5557 H   0  0  0  0  0  0  0  0  0  0  0  0
  142.1104   82.0690  224.3847 H   0  0  0  0  0  0  0  0  0  0  0  0
  143.3225   79.8712  224.5914 H   0  0  0  0  0  0  0  0  0  0  0  0
  142.8524   78.0798  222.9774 H   0  0  0  0  0  0  0  0  0  0  0  0
  1  2  1  0
  2  3  1  0
  3  4  1  0
  4  5  2  0
  4  6  1  0
  6  7  1  0
  7  8  1  0
  8  9  2  0
  8 10  1  0
 10 11  2  0
 11 12  1  0
 12 13  2  0
 13 14  1  0
 14 15  2  0
 15 16  1  0
 15 17  1  0
 17 18  2  0
 18 19  1  0
 19 20  2  0
  2 21  1  0
 21 22  1  0
 21 23  1  0
 23 24  2  0
 24 25  1  0
 25 26  2  0
 26 27  1  0
 27 28  2  0
 20 10  1  0
 28 23  1  0
 19 13  1  0
  1 29  1  0
  1 30  1  0
  1 31  1  0
  2 32  1  6
  3 33  1  0
  6 34  1  0
  6 35  1  0
  7 36  1  0
 11 37  1  0
 12 38  1  0
 14 39  1  0
 17 40  1  0
 18 41  1  0
 21 42  1  6
 22 43  1  0
 24 44  1  0
 25 45  1  0
 26 46  1  0
 27 47  1  0
 28 48  1  0
M  END
>  <smiles>  (40) 
C[C@H](NC(=O)CNC(=O)c1ccc2cc(Cl)ccc2n1)[C@H](O)c1ccccc1

>  <score_type>  (40) 
oracle

>  <origin>  (40) 
autodockgpu

>  <m_score__min__energy>  (40) 
-8.8800000000000008

>  <m_primary>  (40) 
energy

>  <rmsd>  (40) 
3.8395618723930243

>  <m_score__min__rmsd>  (40) 
3.8395618723930243

>  <meeko>  (40) 
{"free_energy": -7.66, "intermolecular_energy": -9.75, "internal_energy": -2.52, "cluster_size": 37, "cluster_id": 1, "rank_in_cluster": 32}

>  <energy>  (40) 
-7.5

>  <cluster_rmsd>  (40) 
0.0

>  <cluster>  (40) 
4

$$$$

     RDKit          3D

 48 50  0  0  0  0  0  0  0  0999 V2000
  141.3030   78.1920  220.3690 C   0  0  0  0  0  0  0  0  0  0  0  0
  141.4280   77.0210  221.2840 C   0  0  2  0  0  0  0  0  0  0  0  0
  140.7740   75.8270  220.7690 N   0  0  0  0  0  0  0  0  0  0  0  0
  141.5090   74.7450  220.2030 C   0  0  0  0  0  0  0  0  0  0  0  0
  142.7680   74.8640  220.1650 O   0  0  0  0  0  0  0  0  0  0  0  0
  140.8020   73.5390  219.6840 C   0  0  0  0  0  0  0  0  0  0  0  0
  140.7730   72.5750  220.7600 N   0  0  0  0  0  0  0  0  0  0  0  0
  140.1350   72.9230  221.9830 C   0  0  0  0  0  0  0  0  0  0  0  0
  139.5860   74.0470  222.1760 O   0  0  0  0  0  0  0  0  0  0  0  0
  140.1140   71.9380  223.0630 C   0  0  0  0  0  0  0  0  0  0  0  0
  139.5950   70.6740  222.8590 C   0  0  0  0  0  0  0  0  0  0  0  0
  139.5580   69.7200  223.8530 C   0  0  0  0  0  0  0  0  0  0  0  0
  140.0570   70.0390  225.0980 C   0  0  0  0  0  0  0  0  0  0  0  0
  140.0720   69.1680  226.1620 C   0  0  0  0  0  0  0  0  0  0  0  0
  140.5710   69.5170  227.3740 C   0  0  0  0  0  0  0  0  0  0  0  0
  140.5900   68.4090  228.7280 Cl  0  0  0  0  0  0  0  0  0  0  0  0
  141.0920   70.7960  227.5690 C   0  0  0  0  0  0  0  0  0  0  0  0
  141.0980   71.7080  226.5230 C   0  0  0  0  0  0  0  0  0  0  0  0
  140.5760   71.3000  225.3030 C   0  0  0  0  0  0  0  0  0  0  0  0
  140.5900   72.2020  224.2990 N   0  0  0  0  0  0  0  0  0  0  0  0
  140.8310   77.2710  222.6480 C   0  0  2  0  0  0  0  0  0  0  0  0
  139.5030   76.9470  222.7260 O   0  0  0  0  0  0  0  0  0  0  0  0
  141.1620   78.6580  223.0490 C   0  0  0  0  0  0  0  0  0  0  0  0
  140.1660   79.5870  223.3020 C   0  0  0  0  0  0  0  0  0  0  0  0
  140.5160   80.8620  223.6700 C   0  0  0  0  0  0  0  0  0  0  0  0
  141.8040   81.2910  223.8090 C   0  0  0  0  0  0  0  0  0  0  0  0
  142.8100   80.3690  223.5590 C   0  0  0  0  0  0  0  0  0  0  0  0
  142.4660   79.0860  223.1890 C   0  0  0  0  0  0  0  0  0  0  0  0
  141.2047   79.1126  220.9630 H   0  0  0  0  0  0  0  0  0  0  0  0
  142.1991   78.2589  219.7346 H   0  0  0  0  0  0  0  0  0  0  0  0
  140.4130   78.0682  219.7346 H   0  0  0  0  0  0  0  0  0  0  0  0
  142.5148   76.8683  221.3588 H   0  0  0  0  0  0  0  0  0  0  0  0
  139.7240   75.7500  220.8100 H   0  0  0  0  0  0  0  0  0  0  0  0
  139.7770   73.8014  219.3833 H   0  0  0  0  0  0  0  0  0  0  0  0
  141.3164   73.1298  218.8020 H   0  0  0  0  0  0  0  0  0  0  0  0
  141.2070   71.6420  220.6530 H   0  0  0  0  0  0  0  0  0  0  0  0
  139.1963   70.4194  221.8659 H   0  0  0  0  0  0  0  0  0  0  0  0
  139.1381   68.7225  223.6566 H   0  0  0  0  0  0  0  0  0  0  0  0
  139.6659   68.1548  226.0257 H   0  0  0  0  0  0  0  0  0  0  0  0
  141.4977   71.0815  228.5508 H   0  0  0  0  0  0  0  0  0  0  0  0
  141.5034   72.7218  226.6563 H   0  0  0  0  0  0  0  0  0  0  0  0
  141.2799   76.5880  223.3842 H   0  0  0  0  0  0  0  0  0  0  0  0
  139.3210   76.0030  222.9490 H   0  0  0  0  0  0  0  0  0  0  0  0
  139.1066   79.3059  223.2090 H   0  0  0  0  0  0  0  0  0  0  0  0
  139.7083   81.5828  223.8650 H   0  0  0  0  0  0  0  0  0  0  0  0
  142.0348   82.3245  224.1068 H   0  0  0  0  0  0  0  0  0  0  0  0
  143.8672   80.6574  223.6546 H   0  0  0  0  0  0  0  0  0  0  0  0
  143.2743   78.3655  222.9952 H   0  0  0  0  0  0  0  0  0  0  0  0
  1  2  1  0
  2  3  1  0
  3  4  1  0
  4  5  2  0
  4  6  1  0
  6  7  1  0
  7  8  1  0
  8  9  2  0
  8 10  1  0
 10 11  2  0
 11 12  1  0
 12 13  2  0
 13 14  1  0
 14 15  2  0
 15 16  1  0
 15 17  1  0
 17 18  2  0
 18 19  1  0
 19 20  2  0
  2 21  1  0
 21 22  1  0
 21 23  1  0
 23 24  2  0
 24 25  1  0
 25 26  2  0
 26 27  1  0
 27 28  2  0
 20 10  1  0
 28 23  1  0
 19 13  1  0
  1 29  1  0
  1 30  1  0
  1 31  1  0
  2 32  1  1
  3 33  1  0
  6 34  1  0
  6 35  1  0
  7 36  1  0
 11 37  1  0
 12 38  1  0
 14 39  1  0
 17 40  1  0
 18 41  1  0
 21 42  1  1
 22 43  1  0
 24 44  1  0
 25 45  1  0
 26 46  1  0
 27 47  1  0
 28 48  1  0
M  END
>  <smiles>  (41) 
C[C@H](NC(=O)CNC(=O)c1ccc2cc(Cl)ccc2n1)[C@H](O)c1ccccc1

>  <score_type>  (41) 
oracle

>  <origin>  (41) 
autodockgpu

>  <m_score__min__energy>  (41) 
-8.8800000000000008

>  <m_primary>  (41) 
energy

>  <rmsd>  (41) 
3.850718757621637

>  <m_score__min__rmsd>  (41) 
3.850718757621637

>  <meeko>  (41) 
{"free_energy": -8.36, "intermolecular_energy": -10.44, "internal_energy": -2.98, "cluster_size": 37, "cluster_id": 1, "rank_in_cluster": 10}

>  <energy>  (41) 
-7.44

>  <cluster_rmsd>  (41) 
1.34

>  <cluster>  (41) 
4

$$$$

     RDKit          3D

 48 50  0  0  0  0  0  0  0  0999 V2000
  139.1500   79.0210  223.4410 C   0  0  0  0  0  0  0  0  0  0  0  0
  139.0730   79.0010  221.9510 C   0  0  2  0  0  0  0  0  0  0  0  0
  139.5120   77.7370  221.3790 N   0  0  0  0  0  0  0  0  0  0  0  0
  138.9960   76.4850  221.8230 C   0  0  0  0  0  0  0  0  0  0  0  0
  138.1310   76.5150  222.7450 O   0  0  0  0  0  0  0  0  0  0  0  0
  139.4720   75.2110  221.2120 C   0  0  0  0  0  0  0  0  0  0  0  0
  139.5370   74.2340  222.2750 N   0  0  0  0  0  0  0  0  0  0  0  0
  139.9150   72.8980  221.9630 C   0  0  0  0  0  0  0  0  0  0  0  0
  140.2000   72.5210  220.7890 O   0  0  0  0  0  0  0  0  0  0  0  0
  139.9760   71.9210  223.0490 C   0  0  0  0  0  0  0  0  0  0  0  0
  139.5520   70.6210  222.8570 C   0  0  0  0  0  0  0  0  0  0  0  0
  139.5950   69.6730  223.8570 C   0  0  0  0  0  0  0  0  0  0  0  0
  140.0800   70.0360  225.0950 C   0  0  0  0  0  0  0  0  0  0  0  0
  140.1700   69.1750  226.1630 C   0  0  0  0  0  0  0  0  0  0  0  0
  140.6530   69.5680  227.3680 C   0  0  0  0  0  0  0  0  0  0  0  0
  140.7670   68.4730  228.7290 Cl  0  0  0  0  0  0  0  0  0  0  0  0
  141.0790   70.8830  227.5510 C   0  0  0  0  0  0  0  0  0  0  0  0
  141.0070   71.7870  226.5000 C   0  0  0  0  0  0  0  0  0  0  0  0
  140.5050   71.3340  225.2880 C   0  0  0  0  0  0  0  0  0  0  0  0
  140.4430   72.2280  224.2790 N   0  0  0  0  0  0  0  0  0  0  0  0
  139.9180   80.0710  221.3020 C   0  0  2  0  0  0  0  0  0  0  0  0
  140.2290   79.7990  219.9970 O   0  0  0  0  0  0  0  0  0  0  0  0
  141.0810   80.3360  222.1820 C   0  0  0  0  0  0  0  0  0  0  0  0
  141.0860   81.4080  223.0590 C   0  0  0  0  0  0  0  0  0  0  0  0
  142.1840   81.6170  223.8550 C   0  0  0  0  0  0  0  0  0  0  0  0
  143.2970   80.8270  223.8470 C   0  0  0  0  0  0  0  0  0  0  0  0
  143.3030   79.7510  222.9710 C   0  0  0  0  0  0  0  0  0  0  0  0
  142.2030   79.5330  222.1680 C   0  0  0  0  0  0  0  0  0  0  0  0
  138.1666   78.7655  223.8624 H   0  0  0  0  0  0  0  0  0  0  0  0
  139.8959   78.2868  223.7795 H   0  0  0  0  0  0  0  0  0  0  0  0
  139.4442   80.0254  223.7795 H   0  0  0  0  0  0  0  0  0  0  0  0
  138.0060   79.1723  221.7456 H   0  0  0  0  0  0  0  0  0  0  0  0
  140.2330   77.7350  220.6110 H   0  0  0  0  0  0  0  0  0  0  0  0
  138.7683   74.8781  220.4348 H   0  0  0  0  0  0  0  0  0  0  0  0
  140.4563   75.3447  220.7395 H   0  0  0  0  0  0  0  0  0  0  0  0
  139.3140   74.4920  223.2510 H   0  0  0  0  0  0  0  0  0  0  0  0
  139.1654   70.3309  221.8689 H   0  0  0  0  0  0  0  0  0  0  0  0
  139.2486   68.6458  223.6703 H   0  0  0  0  0  0  0  0  0  0  0  0
  139.8396   68.1335  226.0362 H   0  0  0  0  0  0  0  0  0  0  0  0
  141.4717   71.2037  228.5272 H   0  0  0  0  0  0  0  0  0  0  0  0
  141.3372   72.8289  226.6238 H   0  0  0  0  0  0  0  0  0  0  0  0
  139.3398   81.0025  221.2123 H   0  0  0  0  0  0  0  0  0  0  0  0
  140.9640   80.3430  219.6270 H   0  0  0  0  0  0  0  0  0  0  0  0
  140.2200   82.0838  223.1167 H   0  0  0  0  0  0  0  0  0  0  0  0
  142.1661   82.4752  224.5428 H   0  0  0  0  0  0  0  0  0  0  0  0
  144.1525   81.0344  224.5067 H   0  0  0  0  0  0  0  0  0  0  0  0
  144.1735   79.0807  222.9176 H   0  0  0  0  0  0  0  0  0  0  0  0
  142.2211   78.6743  221.4807 H   0  0  0  0  0  0  0  0  0  0  0  0
  1  2  1  0
  2  3  1  0
  3  4  1  0
  4  5  2  0
  4  6  1  0
  6  7  1  0
  7  8  1  0
  8  9  2  0
  8 10  1  0
 10 11  2  0
 11 12  1  0
 12 13  2  0
 13 14  1  0
 14 15  2  0
 15 16  1  0
 15 17  1  0
 17 18  2  0
 18 19  1  0
 19 20  2  0
  2 21  1  0
 21 22  1  0
 21 23  1  0
 23 24  2  0
 24 25  1  0
 25 26  2  0
 26 27  1  0
 27 28  2  0
 20 10  1  0
 28 23  1  0
 19 13  1  0
  1 29  1  0
  1 30  1  0
  1 31  1  0
  2 32  1  1
  3 33  1  0
  6 34  1  0
  6 35  1  0
  7 36  1  0
 11 37  1  0
 12 38  1  0
 14 39  1  0
 17 40  1  0
 18 41  1  0
 21 42  1  6
 22 43  1  0
 24 44  1  0
 25 45  1  0
 26 46  1  0
 27 47  1  0
 28 48  1  0
M  END
>  <smiles>  (42) 
C[C@H](NC(=O)CNC(=O)c1ccc2cc(Cl)ccc2n1)[C@H](O)c1ccccc1

>  <score_type>  (42) 
oracle

>  <origin>  (42) 
autodockgpu

>  <m_score__min__energy>  (42) 
-8.8800000000000008

>  <m_primary>  (42) 
energy

>  <rmsd>  (42) 
3.7548238920708474

>  <m_score__min__rmsd>  (42) 
3.7548238920708474

>  <meeko>  (42) 
{"free_energy": -8.04, "intermolecular_energy": -10.13, "internal_energy": -2.18, "cluster_size": 37, "cluster_id": 1, "rank_in_cluster": 24}

>  <energy>  (42) 
-7.43

>  <cluster_rmsd>  (42) 
1.56

>  <cluster>  (42) 
4

$$$$

     RDKit          3D

 48 50  0  0  0  0  0  0  0  0999 V2000
  139.0430   79.0920  223.3930 C   0  0  0  0  0  0  0  0  0  0  0  0
  139.0250   79.0790  221.9010 C   0  0  2  0  0  0  0  0  0  0  0  0
  139.5130   77.8290  221.3400 N   0  0  0  0  0  0  0  0  0  0  0  0
  139.0930   76.5600  221.8360 C   0  0  0  0  0  0  0  0  0  0  0  0
  138.2690   76.5640  222.7950 O   0  0  0  0  0  0  0  0  0  0  0  0
  139.6180   75.3010  221.2340 C   0  0  0  0  0  0  0  0  0  0  0  0
  139.6150   74.3030  222.2800 N   0  0  0  0  0  0  0  0  0  0  0  0
  140.0950   72.9960  221.9890 C   0  0  0  0  0  0  0  0  0  0  0  0
  140.5280   72.6610  220.8470 O   0  0  0  0  0  0  0  0  0  0  0  0
  140.0870   71.9970  223.0570 C   0  0  0  0  0  0  0  0  0  0  0  0
  139.6000   70.7250  222.8330 C   0  0  0  0  0  0  0  0  0  0  0  0
  139.5770   69.7580  223.8160 C   0  0  0  0  0  0  0  0  0  0  0  0
  140.0570   70.0730  225.0690 C   0  0  0  0  0  0  0  0  0  0  0  0
  140.0830   69.1890  226.1210 C   0  0  0  0  0  0  0  0  0  0  0  0
  140.5640   69.5350  227.3420 C   0  0  0  0  0  0  0  0  0  0  0  0
  140.5970   68.4110  228.6830 Cl  0  0  0  0  0  0  0  0  0  0  0  0
  141.0530   70.8230  227.5570 C   0  0  0  0  0  0  0  0  0  0  0  0
  141.0470   71.7490  226.5220 C   0  0  0  0  0  0  0  0  0  0  0  0
  140.5450   71.3440  225.2930 C   0  0  0  0  0  0  0  0  0  0  0  0
  140.5460   72.2570  224.3000 N   0  0  0  0  0  0  0  0  0  0  0  0
  139.8700   80.1720  221.2920 C   0  0  2  0  0  0  0  0  0  0  0  0
  140.1750   79.9510  219.9760 O   0  0  0  0  0  0  0  0  0  0  0  0
  141.0380   80.3980  222.1750 C   0  0  0  0  0  0  0  0  0  0  0  0
  141.0750   81.4690  223.0520 C   0  0  0  0  0  0  0  0  0  0  0  0
  142.1770   81.6420  223.8530 C   0  0  0  0  0  0  0  0  0  0  0  0
  143.2630   80.8150  223.8490 C   0  0  0  0  0  0  0  0  0  0  0  0
  143.2360   79.7380  222.9740 C   0  0  0  0  0  0  0  0  0  0  0  0
  142.1330   79.5580  222.1670 C   0  0  0  0  0  0  0  0  0  0  0  0
  138.2067   78.4882  223.7751 H   0  0  0  0  0  0  0  0  0  0  0  0
  139.9936   78.6705  223.7519 H   0  0  0  0  0  0  0  0  0  0  0  0
  138.9420   80.1269  223.7519 H   0  0  0  0  0  0  0  0  0  0  0  0
  137.9633   79.2274  221.6543 H   0  0  0  0  0  0  0  0  0  0  0  0
  140.2000   77.8490  220.5410 H   0  0  0  0  0  0  0  0  0  0  0  0
  138.9718   74.9806  220.4034 H   0  0  0  0  0  0  0  0  0  0  0  0
  140.6317   75.4487  220.8333 H   0  0  0  0  0  0  0  0  0  0  0  0
  139.2720   74.5270  223.2300 H   0  0  0  0  0  0  0  0  0  0  0  0
  139.2160   70.4733  221.8334 H   0  0  0  0  0  0  0  0  0  0  0  0
  139.1826   68.7533  223.6038 H   0  0  0  0  0  0  0  0  0  0  0  0
  139.7018   68.1685  225.9685 H   0  0  0  0  0  0  0  0  0  0  0  0
  141.4433   71.1055  228.5459 H   0  0  0  0  0  0  0  0  0  0  0  0
  141.4277   72.7702  226.6714 H   0  0  0  0  0  0  0  0  0  0  0  0
  139.2935   81.1076  221.2436 H   0  0  0  0  0  0  0  0  0  0  0  0
  139.5430   80.3540  219.3340 H   0  0  0  0  0  0  0  0  0  0  0  0
  140.2315   82.1730  223.1064 H   0  0  0  0  0  0  0  0  0  0  0  0
  142.1851   82.5005  224.5407 H   0  0  0  0  0  0  0  0  0  0  0  0
  144.1229   80.9945  224.5111 H   0  0  0  0  0  0  0  0  0  0  0  0
  144.0829   79.0378  222.9251 H   0  0  0  0  0  0  0  0  0  0  0  0
  142.1252   78.6990  221.4800 H   0  0  0  0  0  0  0  0  0  0  0  0
  1  2  1  0
  2  3  1  0
  3  4  1  0
  4  5  2  0
  4  6  1  0
  6  7  1  0
  7  8  1  0
  8  9  2  0
  8 10  1  0
 10 11  2  0
 11 12  1  0
 12 13  2  0
 13 14  1  0
 14 15  2  0
 15 16  1  0
 15 17  1  0
 17 18  2  0
 18 19  1  0
 19 20  2  0
  2 21  1  0
 21 22  1  0
 21 23  1  0
 23 24  2  0
 24 25  1  0
 25 26  2  0
 26 27  1  0
 27 28  2  0
 20 10  1  0
 28 23  1  0
 19 13  1  0
  1 29  1  0
  1 30  1  0
  1 31  1  0
  2 32  1  1
  3 33  1  0
  6 34  1  0
  6 35  1  0
  7 36  1  0
 11 37  1  0
 12 38  1  0
 14 39  1  0
 17 40  1  0
 18 41  1  0
 21 42  1  6
 22 43  1  0
 24 44  1  0
 25 45  1  0
 26 46  1  0
 27 47  1  0
 28 48  1  0
M  END
>  <smiles>  (43) 
C[C@H](NC(=O)CNC(=O)c1ccc2cc(Cl)ccc2n1)[C@H](O)c1ccccc1

>  <score_type>  (43) 
oracle

>  <origin>  (43) 
autodockgpu

>  <m_score__min__energy>  (43) 
-8.8800000000000008

>  <m_primary>  (43) 
energy

>  <rmsd>  (43) 
3.7527846207389737

>  <m_score__min__rmsd>  (43) 
3.7527846207389737

>  <meeko>  (43) 
{"free_energy": -8.03, "intermolecular_energy": -10.12, "internal_energy": -2.23, "cluster_size": 37, "cluster_id": 1, "rank_in_cluster": 25}

>  <energy>  (43) 
-7.31

>  <cluster_rmsd>  (43) 
1.47

>  <cluster>  (43) 
4

$$$$

     RDKit          3D

 48 50  0  0  0  0  0  0  0  0999 V2000
  138.3450   69.6550  224.8430 C   0  0  0  0  0  0  0  0  0  0  0  0
  138.9640   70.9980  224.6440 C   0  0  2  0  0  0  0  0  0  0  0  0
  139.1380   71.3380  223.2400 N   0  0  0  0  0  0  0  0  0  0  0  0
  138.0970   71.9310  222.4690 C   0  0  0  0  0  0  0  0  0  0  0  0
  137.0010   72.1540  223.0600 O   0  0  0  0  0  0  0  0  0  0  0  0
  138.3150   72.2640  221.0320 C   0  0  0  0  0  0  0  0  0  0  0  0
  138.7580   73.6390  220.9820 N   0  0  0  0  0  0  0  0  0  0  0  0
  139.9670   73.9990  221.6400 C   0  0  0  0  0  0  0  0  0  0  0  0
  140.6800   73.1650  222.2720 O   0  0  0  0  0  0  0  0  0  0  0  0
  140.4030   75.3930  221.5810 C   0  0  0  0  0  0  0  0  0  0  0  0
  141.3960   75.7890  220.7080 C   0  0  0  0  0  0  0  0  0  0  0  0
  141.8330   77.0940  220.6250 C   0  0  0  0  0  0  0  0  0  0  0  0
  141.2580   78.0390  221.4460 C   0  0  0  0  0  0  0  0  0  0  0  0
  141.6130   79.3670  221.4490 C   0  0  0  0  0  0  0  0  0  0  0  0
  141.0240   80.2700  222.2730 C   0  0  0  0  0  0  0  0  0  0  0  0
  141.4770   81.9610  222.2780 Cl  0  0  0  0  0  0  0  0  0  0  0  0
  140.0230   79.8600  223.1520 C   0  0  0  0  0  0  0  0  0  0  0  0
  139.6310   78.5290  223.1830 C   0  0  0  0  0  0  0  0  0  0  0  0
  140.2650   77.6460  222.3200 C   0  0  0  0  0  0  0  0  0  0  0  0
  139.8710   76.3560  222.3650 N   0  0  0  0  0  0  0  0  0  0  0  0
  140.3290   71.1180  225.2780 C   0  0  2  0  0  0  0  0  0  0  0  0
  141.3510   71.1170  224.3670 O   0  0  0  0  0  0  0  0  0  0  0  0
  140.4360   70.0900  226.3400 C   0  0  0  0  0  0  0  0  0  0  0  0
  139.9530   70.3280  227.6170 C   0  0  0  0  0  0  0  0  0  0  0  0
  140.0730   69.3480  228.5710 C   0  0  0  0  0  0  0  0  0  0  0  0
  140.6450   68.1290  228.3490 C   0  0  0  0  0  0  0  0  0  0  0  0
  141.1310   67.8810  227.0730 C   0  0  0  0  0  0  0  0  0  0  0  0
  141.0140   68.8590  226.1090 C   0  0  0  0  0  0  0  0  0  0  0  0
  138.2508   69.4506  225.9197 H   0  0  0  0  0  0  0  0  0  0  0  0
  137.3483   69.6381  224.3780 H   0  0  0  0  0  0  0  0  0  0  0  0
  138.9796   68.8862  224.3780 H   0  0  0  0  0  0  0  0  0  0  0  0
  138.2520   71.6844  225.1254 H   0  0  0  0  0  0  0  0  0  0  0  0
  140.0600   71.1430  222.7670 H   0  0  0  0  0  0  0  0  0  0  0  0
  139.0828   71.6034  220.6029 H   0  0  0  0  0  0  0  0  0  0  0  0
  137.3908   72.1268  220.4515 H   0  0  0  0  0  0  0  0  0  0  0  0
  138.2110   74.3580  220.4790 H   0  0  0  0  0  0  0  0  0  0  0  0
  141.8564   75.0344  220.0533 H   0  0  0  0  0  0  0  0  0  0  0  0
  142.6260   77.3753  219.9164 H   0  0  0  0  0  0  0  0  0  0  0  0
  142.4003   79.7088  220.7610 H   0  0  0  0  0  0  0  0  0  0  0  0
  139.5442   80.5907  223.8205 H   0  0  0  0  0  0  0  0  0  0  0  0
  138.8433   78.1850  223.8694 H   0  0  0  0  0  0  0  0  0  0  0  0
  140.4380   72.1062  225.7488 H   0  0  0  0  0  0  0  0  0  0  0  0
  141.3070   71.8420  223.6990 H   0  0  0  0  0  0  0  0  0  0  0  0
  139.4795   71.2899  227.8631 H   0  0  0  0  0  0  0  0  0  0  0  0
  139.6835   69.5587  229.5779 H   0  0  0  0  0  0  0  0  0  0  0  0
  140.7177   67.3755  229.1471 H   0  0  0  0  0  0  0  0  0  0  0  0
  141.6033   66.9167  226.8342 H   0  0  0  0  0  0  0  0  0  0  0  0
  141.4022   68.6467  225.1019 H   0  0  0  0  0  0  0  0  0  0  0  0
  1  2  1  0
  2  3  1  0
  3  4  1  0
  4  5  2  0
  4  6  1  0
  6  7  1  0
  7  8  1  0
  8  9  2  0
  8 10  1  0
 10 11  2  0
 11 12  1  0
 12 13  2  0
 13 14  1  0
 14 15  2  0
 15 16  1  0
 15 17  1  0
 17 18  2  0
 18 19  1  0
 19 20  2  0
  2 21  1  0
 21 22  1  0
 21 23  1  0
 23 24  2  0
 24 25  1  0
 25 26  2  0
 26 27  1  0
 27 28  2  0
 20 10  1  0
 28 23  1  0
 19 13  1  0
  1 29  1  0
  1 30  1  0
  1 31  1  0
  2 32  1  1
  3 33  1  0
  6 34  1  0
  6 35  1  0
  7 36  1  0
 11 37  1  0
 12 38  1  0
 14 39  1  0
 17 40  1  0
 18 41  1  0
 21 42  1  1
 22 43  1  0
 24 44  1  0
 25 45  1  0
 26 46  1  0
 27 47  1  0
 28 48  1  0
M  END
>  <smiles>  (44) 
C[C@H](NC(=O)CNC(=O)c1ccc2cc(Cl)ccc2n1)[C@H](O)c1ccccc1

>  <score_type>  (44) 
oracle

>  <origin>  (44) 
autodockgpu

>  <m_score__min__energy>  (44) 
-8.8800000000000008

>  <m_primary>  (44) 
energy

>  <rmsd>  (44) 
10.25707346617147

>  <m_score__min__rmsd>  (44) 
10.25707346617147

>  <meeko>  (44) 
{"free_energy": -7.43, "intermolecular_energy": -9.52, "internal_energy": -3.06, "cluster_size": 5, "cluster_id": 4, "rank_in_cluster": 3}

>  <energy>  (44) 
-7.14

>  <cluster_rmsd>  (44) 
1.41

>  <cluster>  (44) 
4

$$$$

     RDKit          3D

 48 50  0  0  0  0  0  0  0  0999 V2000
  138.5180   69.1500  224.5750 C   0  0  0  0  0  0  0  0  0  0  0  0
  138.7310   70.6270  224.5980 C   0  0  2  0  0  0  0  0  0  0  0  0
  138.7900   71.2110  223.2660 N   0  0  0  0  0  0  0  0  0  0  0  0
  137.6250   71.6800  222.5920 C   0  0  0  0  0  0  0  0  0  0  0  0
  136.5240   71.5690  223.2050 O   0  0  0  0  0  0  0  0  0  0  0  0
  137.7270   72.2720  221.2270 C   0  0  0  0  0  0  0  0  0  0  0  0
  137.9170   73.6940  221.3990 N   0  0  0  0  0  0  0  0  0  0  0  0
  139.1310   74.1640  221.9730 C   0  0  0  0  0  0  0  0  0  0  0  0
  140.0620   73.3890  222.3440 O   0  0  0  0  0  0  0  0  0  0  0  0
  139.3100   75.6050  222.1410 C   0  0  0  0  0  0  0  0  0  0  0  0
  138.3290   76.3780  222.7300 C   0  0  0  0  0  0  0  0  0  0  0  0
  138.4630   77.7380  222.9040 C   0  0  0  0  0  0  0  0  0  0  0  0
  139.6200   78.3520  222.4750 C   0  0  0  0  0  0  0  0  0  0  0  0
  139.8620   79.6990  222.5980 C   0  0  0  0  0  0  0  0  0  0  0  0
  141.0140   80.2690  222.1630 C   0  0  0  0  0  0  0  0  0  0  0  0
  141.3220   81.9850  222.3190 Cl  0  0  0  0  0  0  0  0  0  0  0  0
  141.9990   79.4800  221.5700 C   0  0  0  0  0  0  0  0  0  0  0  0
  141.7980   78.1130  221.4250 C   0  0  0  0  0  0  0  0  0  0  0  0
  140.6020   77.5820  221.8870 C   0  0  0  0  0  0  0  0  0  0  0  0
  140.4250   76.2520  221.7370 N   0  0  0  0  0  0  0  0  0  0  0  0
  140.0110   71.0280  225.2890 C   0  0  2  0  0  0  0  0  0  0  0  0
  141.0390   71.2820  224.4210 O   0  0  0  0  0  0  0  0  0  0  0  0
  140.3080   70.0180  226.3320 C   0  0  0  0  0  0  0  0  0  0  0  0
  139.7560   70.1150  227.5990 C   0  0  0  0  0  0  0  0  0  0  0  0
  140.0570   69.1580  228.5360 C   0  0  0  0  0  0  0  0  0  0  0  0
  140.8790   68.0930  228.3050 C   0  0  0  0  0  0  0  0  0  0  0  0
  141.4360   67.9860  227.0390 C   0  0  0  0  0  0  0  0  0  0  0  0
  141.1390   68.9430  226.0920 C   0  0  0  0  0  0  0  0  0  0  0  0
  138.4634   68.7713  225.6063 H   0  0  0  0  0  0  0  0  0  0  0  0
  137.5779   68.9232  224.0509 H   0  0  0  0  0  0  0  0  0  0  0  0
  139.3558   68.6668  224.0509 H   0  0  0  0  0  0  0  0  0  0  0  0
  137.8581   71.0045  225.1508 H   0  0  0  0  0  0  0  0  0  0  0  0
  139.7180   71.2930  222.7740 H   0  0  0  0  0  0  0  0  0  0  0  0
  138.5833   71.8383  220.6897 H   0  0  0  0  0  0  0  0  0  0  0  0
  136.8207   72.0643  220.6392 H   0  0  0  0  0  0  0  0  0  0  0  0
  137.1880   74.3690  221.1130 H   0  0  0  0  0  0  0  0  0  0  0  0
  137.4053   75.8892  223.0733 H   0  0  0  0  0  0  0  0  0  0  0  0
  137.6608   78.3235  223.3770 H   0  0  0  0  0  0  0  0  0  0  0  0
  139.0965   80.3364  223.0646 H   0  0  0  0  0  0  0  0  0  0  0  0
  142.9342   79.9395  221.2174 H   0  0  0  0  0  0  0  0  0  0  0  0
  142.5617   77.4727  220.9594 H   0  0  0  0  0  0  0  0  0  0  0  0
  139.8796   72.0011  225.7848 H   0  0  0  0  0  0  0  0  0  0  0  0
  140.8800   72.0350  223.8040 H   0  0  0  0  0  0  0  0  0  0  0  0
  139.0845   70.9490  227.8511 H   0  0  0  0  0  0  0  0  0  0  0  0
  139.6078   69.2555  229.5353 H   0  0  0  0  0  0  0  0  0  0  0  0
  141.0907   67.3513  229.0892 H   0  0  0  0  0  0  0  0  0  0  0  0
  142.1059   67.1486  226.7939 H   0  0  0  0  0  0  0  0  0  0  0  0
  141.5881   68.8443  225.0927 H   0  0  0  0  0  0  0  0  0  0  0  0
  1  2  1  0
  2  3  1  0
  3  4  1  0
  4  5  2  0
  4  6  1  0
  6  7  1  0
  7  8  1  0
  8  9  2  0
  8 10  1  0
 10 11  2  0
 11 12  1  0
 12 13  2  0
 13 14  1  0
 14 15  2  0
 15 16  1  0
 15 17  1  0
 17 18  2  0
 18 19  1  0
 19 20  2  0
  2 21  1  0
 21 22  1  0
 21 23  1  0
 23 24  2  0
 24 25  1  0
 25 26  2  0
 26 27  1  0
 27 28  2  0
 20 10  1  0
 28 23  1  0
 19 13  1  0
  1 29  1  0
  1 30  1  0
  1 31  1  0
  2 32  1  1
  3 33  1  0
  6 34  1  0
  6 35  1  0
  7 36  1  0
 11 37  1  0
 12 38  1  0
 14 39  1  0
 17 40  1  0
 18 41  1  0
 21 42  1  1
 22 43  1  0
 24 44  1  0
 25 45  1  0
 26 46  1  0
 27 47  1  0
 28 48  1  0
M  END
>  <smiles>  (45) 
C[C@H](NC(=O)CNC(=O)c1ccc2cc(Cl)ccc2n1)[C@H](O)c1ccccc1

>  <score_type>  (45) 
oracle

>  <origin>  (45) 
autodockgpu

>  <m_score__min__energy>  (45) 
-8.8800000000000008

>  <m_primary>  (45) 
energy

>  <rmsd>  (45) 
10.299998175138676

>  <m_score__min__rmsd>  (45) 
10.299998175138676

>  <meeko>  (45) 
{"free_energy": -7.31, "intermolecular_energy": -9.4, "internal_energy": -3.1, "cluster_size": 5, "cluster_id": 4, "rank_in_cluster": 4}

>  <energy>  (45) 
-7.06

>  <cluster_rmsd>  (45) 
0.0

>  <cluster>  (45) 
5

$$$$

     RDKit          3D

 48 50  0  0  0  0  0  0  0  0999 V2000
  141.1520   76.4760  221.0450 C   0  0  0  0  0  0  0  0  0  0  0  0
  140.4110   76.3770  222.3350 C   0  0  2  0  0  0  0  0  0  0  0  0
  139.3790   75.3510  222.3180 N   0  0  0  0  0  0  0  0  0  0  0  0
  138.4400   75.2390  221.2520 C   0  0  0  0  0  0  0  0  0  0  0  0
  138.5400   76.0750  220.3090 O   0  0  0  0  0  0  0  0  0  0  0  0
  137.3970   74.1730  221.2710 C   0  0  0  0  0  0  0  0  0  0  0  0
  137.7480   73.2620  222.3360 N   0  0  0  0  0  0  0  0  0  0  0  0
  138.7980   72.3250  222.1260 C   0  0  0  0  0  0  0  0  0  0  0  0
  139.4460   72.2520  221.0410 O   0  0  0  0  0  0  0  0  0  0  0  0
  139.1420   71.4090  223.2120 C   0  0  0  0  0  0  0  0  0  0  0  0
  138.8330   70.0660  223.1320 C   0  0  0  0  0  0  0  0  0  0  0  0
  139.1430   69.1740  224.1360 C   0  0  0  0  0  0  0  0  0  0  0  0
  139.7840   69.6390  225.2630 C   0  0  0  0  0  0  0  0  0  0  0  0
  140.1400   68.8410  226.3250 C   0  0  0  0  0  0  0  0  0  0  0  0
  140.7710   69.3360  227.4190 C   0  0  0  0  0  0  0  0  0  0  0  0
  141.2250   68.3200  228.7710 Cl  0  0  0  0  0  0  0  0  0  0  0  0
  141.0780   70.6940  227.4910 C   0  0  0  0  0  0  0  0  0  0  0  0
  140.7380   71.5370  226.4420 C   0  0  0  0  0  0  0  0  0  0  0  0
  140.0940   70.9810  225.3460 C   0  0  0  0  0  0  0  0  0  0  0  0
  139.7700   71.8170  224.3370 N   0  0  0  0  0  0  0  0  0  0  0  0
  139.7180   77.6630  222.7170 C   0  0  2  0  0  0  0  0  0  0  0  0
  138.6170   77.9340  221.9500 O   0  0  0  0  0  0  0  0  0  0  0  0
  140.7340   78.7410  222.7570 C   0  0  0  0  0  0  0  0  0  0  0  0
  140.8350   79.6670  221.7330 C   0  0  0  0  0  0  0  0  0  0  0  0
  141.7920   80.6490  221.8090 C   0  0  0  0  0  0  0  0  0  0  0  0
  142.6700   80.7820  222.8460 C   0  0  0  0  0  0  0  0  0  0  0  0
  142.5770   79.8590  223.8770 C   0  0  0  0  0  0  0  0  0  0  0  0
  141.6190   78.8700  223.8080 C   0  0  0  0  0  0  0  0  0  0  0  0
  142.2236   76.6192  221.2478 H   0  0  0  0  0  0  0  0  0  0  0  0
  141.0085   75.5507  220.4678 H   0  0  0  0  0  0  0  0  0  0  0  0
  140.7706   77.3312  220.4678 H   0  0  0  0  0  0  0  0  0  0  0  0
  141.1957   76.1278  223.0645 H   0  0  0  0  0  0  0  0  0  0  0  0
  139.3140   74.6640  223.1150 H   0  0  0  0  0  0  0  0  0  0  0  0
  136.4078   74.6148  221.4617 H   0  0  0  0  0  0  0  0  0  0  0  0
  137.3507   73.6499  220.3044 H   0  0  0  0  0  0  0  0  0  0  0  0
  137.2490   73.2820  223.2420 H   0  0  0  0  0  0  0  0  0  0  0  0
  138.3200   69.6936  222.2330 H   0  0  0  0  0  0  0  0  0  0  0  0
  138.8831   68.1096  224.0389 H   0  0  0  0  0  0  0  0  0  0  0  0
  139.9056   67.7670  226.2860 H   0  0  0  0  0  0  0  0  0  0  0  0
  141.5890   71.0969  228.3779 H   0  0  0  0  0  0  0  0  0  0  0  0
  140.9716   72.6113  226.4784 H   0  0  0  0  0  0  0  0  0  0  0  0
  139.2827   77.5687  223.7228 H   0  0  0  0  0  0  0  0  0  0  0  0
  138.6480   77.5580  221.0380 H   0  0  0  0  0  0  0  0  0  0  0  0
  140.1567   79.6168  220.8685 H   0  0  0  0  0  0  0  0  0  0  0  0
  141.8550   81.3731  220.9834 H   0  0  0  0  0  0  0  0  0  0  0  0
  143.4194   81.5871  222.8631 H   0  0  0  0  0  0  0  0  0  0  0  0
  143.2587   79.9153  224.7385 H   0  0  0  0  0  0  0  0  0  0  0  0
  141.5568   78.1459  224.6338 H   0  0  0  0  0  0  0  0  0  0  0  0
  1  2  1  0
  2  3  1  0
  3  4  1  0
  4  5  2  0
  4  6  1  0
  6  7  1  0
  7  8  1  0
  8  9  2  0
  8 10  1  0
 10 11  2  0
 11 12  1  0
 12 13  2  0
 13 14  1  0
 14 15  2  0
 15 16  1  0
 15 17  1  0
 17 18  2  0
 18 19  1  0
 19 20  2  0
  2 21  1  0
 21 22  1  0
 21 23  1  0
 23 24  2  0
 24 25  1  0
 25 26  2  0
 26 27  1  0
 27 28  2  0
 20 10  1  0
 28 23  1  0
 19 13  1  0
  1 29  1  0
  1 30  1  0
  1 31  1  0
  2 32  1  1
  3 33  1  0
  6 34  1  0
  6 35  1  0
  7 36  1  0
 11 37  1  0
 12 38  1  0
 14 39  1  0
 17 40  1  0
 18 41  1  0
 21 42  1  1
 22 43  1  0
 24 44  1  0
 25 45  1  0
 26 46  1  0
 27 47  1  0
 28 48  1  0
M  END
>  <smiles>  (46) 
C[C@H](NC(=O)CNC(=O)c1ccc2cc(Cl)ccc2n1)[C@H](O)c1ccccc1

>  <score_type>  (46) 
oracle

>  <origin>  (46) 
autodockgpu

>  <m_score__min__energy>  (46) 
-8.8800000000000008

>  <m_primary>  (46) 
energy

>  <rmsd>  (46) 
4.121709594307403

>  <m_score__min__rmsd>  (46) 
4.121709594307403

>  <meeko>  (46) 
{"free_energy": -8.29, "intermolecular_energy": -10.38, "internal_energy": -1.92, "cluster_size": 37, "cluster_id": 1, "rank_in_cluster": 16}

>  <energy>  (46) 
-6.94

>  <cluster_rmsd>  (46) 
0.5

>  <cluster>  (46) 
5

$$$$

     RDKit          3D

 48 50  0  0  0  0  0  0  0  0999 V2000
  138.6140   77.6890  222.9140 C   0  0  0  0  0  0  0  0  0  0  0  0
  139.1320   76.9590  221.7210 C   0  0  2  0  0  0  0  0  0  0  0  0
  138.6190   75.6010  221.6220 N   0  0  0  0  0  0  0  0  0  0  0  0
  137.4870   75.2750  220.8190 C   0  0  0  0  0  0  0  0  0  0  0  0
  136.9390   76.2240  220.1880 O   0  0  0  0  0  0  0  0  0  0  0  0
  136.9920   73.8700  220.7450 C   0  0  0  0  0  0  0  0  0  0  0  0
  137.4860   73.1880  221.9180 N   0  0  0  0  0  0  0  0  0  0  0  0
  137.4280   71.7680  221.9670 C   0  0  0  0  0  0  0  0  0  0  0  0
  136.9600   71.0660  221.0230 O   0  0  0  0  0  0  0  0  0  0  0  0
  137.9320   71.0900  223.1610 C   0  0  0  0  0  0  0  0  0  0  0  0
  137.3140   69.9550  223.6470 C   0  0  0  0  0  0  0  0  0  0  0  0
  137.7610   69.2910  224.7690 C   0  0  0  0  0  0  0  0  0  0  0  0
  138.8670   69.7780  225.4320 C   0  0  0  0  0  0  0  0  0  0  0  0
  139.4000   69.1970  226.5580 C   0  0  0  0  0  0  0  0  0  0  0  0
  140.4910   69.7050  227.1850 C   0  0  0  0  0  0  0  0  0  0  0  0
  141.1690   68.9670  228.6190 Cl  0  0  0  0  0  0  0  0  0  0  0  0
  141.1080   70.8520  226.6860 C   0  0  0  0  0  0  0  0  0  0  0  0
  140.6040   71.4720  225.5500 C   0  0  0  0  0  0  0  0  0  0  0  0
  139.4870   70.9110  224.9480 C   0  0  0  0  0  0  0  0  0  0  0  0
  139.0110   71.5280  223.8450 N   0  0  0  0  0  0  0  0  0  0  0  0
  140.6370   76.8420  221.7080 C   0  0  2  0  0  0  0  0  0  0  0  0
  141.0980   75.7210  222.3450 O   0  0  0  0  0  0  0  0  0  0  0  0
  141.2030   78.1200  222.1990 C   0  0  0  0  0  0  0  0  0  0  0  0
  141.5860   78.2720  223.5220 C   0  0  0  0  0  0  0  0  0  0  0  0
  142.1050   79.4730  223.9350 C   0  0  0  0  0  0  0  0  0  0  0  0
  142.2780   80.5540  223.1190 C   0  0  0  0  0  0  0  0  0  0  0  0
  141.8980   80.4120  221.7920 C   0  0  0  0  0  0  0  0  0  0  0  0
  141.3760   79.2080  221.3690 C   0  0  0  0  0  0  0  0  0  0  0  0
  138.9667   77.1919  223.8297 H   0  0  0  0  0  0  0  0  0  0  0  0
  138.9791   78.7265  222.8961 H   0  0  0  0  0  0  0  0  0  0  0  0
  137.5141   77.6870  222.8961 H   0  0  0  0  0  0  0  0  0  0  0  0
  138.7843   77.5693  220.8744 H   0  0  0  0  0  0  0  0  0  0  0  0
  139.0910   74.8260  222.1570 H   0  0  0  0  0  0  0  0  0  0  0  0
  135.8921   73.8566  220.7350 H   0  0  0  0  0  0  0  0  0  0  0  0
  137.3430   73.3771  219.8264 H   0  0  0  0  0  0  0  0  0  0  0  0
  137.8790   73.7150  222.7170 H   0  0  0  0  0  0  0  0  0  0  0  0
  136.4312   69.5659  223.1186 H   0  0  0  0  0  0  0  0  0  0  0  0
  137.2446   68.3889  225.1288 H   0  0  0  0  0  0  0  0  0  0  0  0
  138.9268   68.2908  226.9640 H   0  0  0  0  0  0  0  0  0  0  0  0
  141.9931   71.2652  227.1918 H   0  0  0  0  0  0  0  0  0  0  0  0
  141.0750   72.3781  225.1410 H   0  0  0  0  0  0  0  0  0  0  0  0
  140.9926   76.6867  220.6787 H   0  0  0  0  0  0  0  0  0  0  0  0
  142.0810   75.6490  222.3910 H   0  0  0  0  0  0  0  0  0  0  0  0
  141.4752   77.4397  224.2326 H   0  0  0  0  0  0  0  0  0  0  0  0
  142.4004   79.5712  224.9900 H   0  0  0  0  0  0  0  0  0  0  0  0
  142.7003   81.4967  223.4972 H   0  0  0  0  0  0  0  0  0  0  0  0
  142.0117   81.2487  221.0870 H   0  0  0  0  0  0  0  0  0  0  0  0
  141.0819   79.1099  220.3136 H   0  0  0  0  0  0  0  0  0  0  0  0
  1  2  1  0
  2  3  1  0
  3  4  1  0
  4  5  2  0
  4  6  1  0
  6  7  1  0
  7  8  1  0
  8  9  2  0
  8 10  1  0
 10 11  2  0
 11 12  1  0
 12 13  2  0
 13 14  1  0
 14 15  2  0
 15 16  1  0
 15 17  1  0
 17 18  2  0
 18 19  1  0
 19 20  2  0
  2 21  1  0
 21 22  1  0
 21 23  1  0
 23 24  2  0
 24 25  1  0
 25 26  2  0
 26 27  1  0
 27 28  2  0
 20 10  1  0
 28 23  1  0
 19 13  1  0
  1 29  1  0
  1 30  1  0
  1 31  1  0
  2 32  1  6
  3 33  1  0
  6 34  1  0
  6 35  1  0
  7 36  1  0
 11 37  1  0
 12 38  1  0
 14 39  1  0
 17 40  1  0
 18 41  1  0
 21 42  1  6
 22 43  1  0
 24 44  1  0
 25 45  1  0
 26 46  1  0
 27 47  1  0
 28 48  1  0
M  END
>  <smiles>  (47) 
C[C@H](NC(=O)CNC(=O)c1ccc2cc(Cl)ccc2n1)[C@H](O)c1ccccc1

>  <score_type>  (47) 
oracle

>  <origin>  (47) 
autodockgpu

>  <m_score__min__energy>  (47) 
-8.8800000000000008

>  <m_primary>  (47) 
energy

>  <rmsd>  (47) 
4.409388081729843

>  <m_score__min__rmsd>  (47) 
4.409388081729843

>  <meeko>  (47) 
{"free_energy": -7.8, "intermolecular_energy": -9.89, "internal_energy": -1.9, "cluster_size": 37, "cluster_id": 1, "rank_in_cluster": 31}

>  <energy>  (47) 
-6.9

>  <cluster_rmsd>  (47) 
0.41

>  <cluster>  (47) 
5

$$$$

     RDKit          3D

 48 50  0  0  0  0  0  0  0  0999 V2000
  139.0720   78.5190  222.4880 C   0  0  0  0  0  0  0  0  0  0  0  0
  139.5950   78.2030  221.1270 C   0  0  2  0  0  0  0  0  0  0  0  0
  139.2780   76.8480  220.7000 N   0  0  0  0  0  0  0  0  0  0  0  0
  139.4550   75.7230  221.5570 C   0  0  0  0  0  0  0  0  0  0  0  0
  139.9020   75.9500  222.7180 O   0  0  0  0  0  0  0  0  0  0  0  0
  139.1200   74.3500  221.0820 C   0  0  0  0  0  0  0  0  0  0  0  0
  139.3600   73.4530  222.1880 N   0  0  0  0  0  0  0  0  0  0  0  0
  139.1470   72.0580  222.0060 C   0  0  0  0  0  0  0  0  0  0  0  0
  138.7520   71.5600  220.9110 O   0  0  0  0  0  0  0  0  0  0  0  0
  139.3940   71.1620  223.1350 C   0  0  0  0  0  0  0  0  0  0  0  0
  139.0480   69.8270  223.0690 C   0  0  0  0  0  0  0  0  0  0  0  0
  139.2660   68.9530  224.1120 C   0  0  0  0  0  0  0  0  0  0  0  0
  139.8520   69.4300  225.2660 C   0  0  0  0  0  0  0  0  0  0  0  0
  140.1170   68.6500  226.3670 C   0  0  0  0  0  0  0  0  0  0  0  0
  140.6960   69.1550  227.4860 C   0  0  0  0  0  0  0  0  0  0  0  0
  141.0330   68.1630  228.8880 Cl  0  0  0  0  0  0  0  0  0  0  0  0
  141.0410   70.5040  227.5420 C   0  0  0  0  0  0  0  0  0  0  0  0
  140.7930   71.3290  226.4530 C   0  0  0  0  0  0  0  0  0  0  0  0
  140.1990   70.7630  225.3330 C   0  0  0  0  0  0  0  0  0  0  0  0
  139.9650   71.5810  224.2850 N   0  0  0  0  0  0  0  0  0  0  0  0
  141.0960   78.3350  221.0260 C   0  0  2  0  0  0  0  0  0  0  0  0
  141.7520   77.1370  221.1090 O   0  0  0  0  0  0  0  0  0  0  0  0
  141.5350   79.3590  222.0030 C   0  0  0  0  0  0  0  0  0  0  0  0
  142.1380   78.9970  223.1960 C   0  0  0  0  0  0  0  0  0  0  0  0
  142.5290   79.9780  224.0730 C   0  0  0  0  0  0  0  0  0  0  0  0
  142.3650   81.3150  223.8500 C   0  0  0  0  0  0  0  0  0  0  0  0
  141.7610   81.6880  222.6570 C   0  0  0  0  0  0  0  0  0  0  0  0
  141.3660   80.7090  221.7710 C   0  0  0  0  0  0  0  0  0  0  0  0
  139.7532   78.1074  223.2473 H   0  0  0  0  0  0  0  0  0  0  0  0
  139.0030   79.6100  222.6101 H   0  0  0  0  0  0  0  0  0  0  0  0
  138.0741   78.0726  222.6101 H   0  0  0  0  0  0  0  0  0  0  0  0
  139.0973   78.9416  220.4814 H   0  0  0  0  0  0  0  0  0  0  0  0
  138.9070   76.6820  219.7280 H   0  0  0  0  0  0  0  0  0  0  0  0
  138.0638   74.3020  220.7784 H   0  0  0  0  0  0  0  0  0  0  0  0
  139.7331   74.0742  220.2113 H   0  0  0  0  0  0  0  0  0  0  0  0
  139.6840   73.8090  223.1040 H   0  0  0  0  0  0  0  0  0  0  0  0
  138.5805   69.4465  222.1488 H   0  0  0  0  0  0  0  0  0  0  0  0
  138.9781   67.8949  224.0258 H   0  0  0  0  0  0  0  0  0  0  0  0
  139.8513   67.5829  226.3401 H   0  0  0  0  0  0  0  0  0  0  0  0
  141.5095   70.9150  228.4484 H   0  0  0  0  0  0  0  0  0  0  0  0
  141.0585   72.3962  226.4769 H   0  0  0  0  0  0  0  0  0  0  0  0
  141.3750   78.6825  220.0203 H   0  0  0  0  0  0  0  0  0  0  0  0
  141.8010   76.7570  222.0180 H   0  0  0  0  0  0  0  0  0  0  0  0
  142.3016   77.9365  223.4378 H   0  0  0  0  0  0  0  0  0  0  0  0
  143.0045   79.6673  225.0150 H   0  0  0  0  0  0  0  0  0  0  0  0
  142.6971   82.0641  224.5838 H   0  0  0  0  0  0  0  0  0  0  0  0
  141.5999   82.7505  222.4220 H   0  0  0  0  0  0  0  0  0  0  0  0
  140.8908   81.0201  220.8290 H   0  0  0  0  0  0  0  0  0  0  0  0
  1  2  1  0
  2  3  1  0
  3  4  1  0
  4  5  2  0
  4  6  1  0
  6  7  1  0
  7  8  1  0
  8  9  2  0
  8 10  1  0
 10 11  2  0
 11 12  1  0
 12 13  2  0
 13 14  1  0
 14 15  2  0
 15 16  1  0
 15 17  1  0
 17 18  2  0
 18 19  1  0
 19 20  2  0
  2 21  1  0
 21 22  1  0
 21 23  1  0
 23 24  2  0
 24 25  1  0
 25 26  2  0
 26 27  1  0
 27 28  2  0
 20 10  1  0
 28 23  1  0
 19 13  1  0
  1 29  1  0
  1 30  1  0
  1 31  1  0
  2 32  1  6
  3 33  1  0
  6 34  1  0
  6 35  1  0
  7 36  1  0
 11 37  1  0
 12 38  1  0
 14 39  1  0
 17 40  1  0
 18 41  1  0
 21 42  1  6
 22 43  1  0
 24 44  1  0
 25 45  1  0
 26 46  1  0
 27 47  1  0
 28 48  1  0
M  END
>  <smiles>  (48) 
C[C@H](NC(=O)CNC(=O)c1ccc2cc(Cl)ccc2n1)[C@H](O)c1ccccc1

>  <score_type>  (48) 
oracle

>  <origin>  (48) 
autodockgpu

>  <m_score__min__energy>  (48) 
-8.8800000000000008

>  <m_primary>  (48) 
energy

>  <rmsd>  (48) 
4.116515791405049

>  <m_score__min__rmsd>  (48) 
4.116515791405049

>  <meeko>  (48) 
{"free_energy": -8.58, "intermolecular_energy": -10.67, "internal_energy": -2.44, "cluster_size": 37, "cluster_id": 1, "rank_in_cluster": 8}

>  <energy>  (48) 
-6.88

>  <cluster_rmsd>  (48) 
0.47

>  <cluster>  (48) 
5

$$$$

     RDKit          3D

 48 50  0  0  0  0  0  0  0  0999 V2000
  140.2010   78.0870  220.1850 C   0  0  0  0  0  0  0  0  0  0  0  0
  141.0120   76.9460  220.7030 C   0  0  2  0  0  0  0  0  0  0  0  0
  140.5500   75.6560  220.2140 N   0  0  0  0  0  0  0  0  0  0  0  0
  139.1800   75.2680  220.2770 C   0  0  0  0  0  0  0  0  0  0  0  0
  138.3710   76.1010  220.7790 O   0  0  0  0  0  0  0  0  0  0  0  0
  138.7460   73.9360  219.7660 C   0  0  0  0  0  0  0  0  0  0  0  0
  138.7280   73.0380  220.8980 N   0  0  0  0  0  0  0  0  0  0  0  0
  139.9080   72.8870  221.6780 C   0  0  0  0  0  0  0  0  0  0  0  0
  140.9830   73.5080  221.4260 O   0  0  0  0  0  0  0  0  0  0  0  0
  139.8760   71.9760  222.8210 C   0  0  0  0  0  0  0  0  0  0  0  0
  139.2330   70.7570  222.7380 C   0  0  0  0  0  0  0  0  0  0  0  0
  139.1820   69.8730  223.7950 C   0  0  0  0  0  0  0  0  0  0  0  0
  139.7970   70.2190  224.9790 C   0  0  0  0  0  0  0  0  0  0  0  0
  139.8100   69.4160  226.0960 C   0  0  0  0  0  0  0  0  0  0  0  0
  140.4250   69.7900  227.2450 C   0  0  0  0  0  0  0  0  0  0  0  0
  140.4420   68.7700  228.6670 Cl  0  0  0  0  0  0  0  0  0  0  0  0
  141.0720   71.0240  227.3190 C   0  0  0  0  0  0  0  0  0  0  0  0
  141.0840   71.8660  226.2160 C   0  0  0  0  0  0  0  0  0  0  0  0
  140.4400   71.4360  225.0640 C   0  0  0  0  0  0  0  0  0  0  0  0
  140.4620   72.2690  224.0020 N   0  0  0  0  0  0  0  0  0  0  0  0
  141.0030   76.8530  222.2100 C   0  0  2  0  0  0  0  0  0  0  0  0
  139.9980   76.0610  222.6970 O   0  0  0  0  0  0  0  0  0  0  0  0
  141.0390   78.2290  222.7570 C   0  0  0  0  0  0  0  0  0  0  0  0
  139.8970   78.8270  223.2640 C   0  0  0  0  0  0  0  0  0  0  0  0
  139.9740   80.1040  223.7610 C   0  0  0  0  0  0  0  0  0  0  0  0
  141.1200   80.8450  223.7950 C   0  0  0  0  0  0  0  0  0  0  0  0
  142.2700   80.2540  223.2900 C   0  0  0  0  0  0  0  0  0  0  0  0
  142.2010   78.9720  222.7890 C   0  0  0  0  0  0  0  0  0  0  0  0
  139.7933   78.6606  221.0304 H   0  0  0  0  0  0  0  0  0  0  0  0
  140.8381   78.7409  219.5714 H   0  0  0  0  0  0  0  0  0  0  0  0
  139.3740   77.7003  219.5714 H   0  0  0  0  0  0  0  0  0  0  0  0
  142.0259   77.1610  220.3346 H   0  0  0  0  0  0  0  0  0  0  0  0
  141.2420   74.9780  219.7990 H   0  0  0  0  0  0  0  0  0  0  0  0
  137.7409   74.0091  219.3251 H   0  0  0  0  0  0  0  0  0  0  0  0
  139.4299   73.5718  218.9852 H   0  0  0  0  0  0  0  0  0  0  0  0
  137.8760   72.5090  221.1470 H   0  0  0  0  0  0  0  0  0  0  0  0
  138.7428   70.4806  221.7929 H   0  0  0  0  0  0  0  0  0  0  0  0
  138.6603   68.9097  223.6952 H   0  0  0  0  0  0  0  0  0  0  0  0
  139.3054   68.4394  226.0556 H   0  0  0  0  0  0  0  0  0  0  0  0
  141.5718   71.3289  228.2502 H   0  0  0  0  0  0  0  0  0  0  0  0
  141.5878   72.8431  226.2534 H   0  0  0  0  0  0  0  0  0  0  0  0
  141.9031   76.3259  222.5593 H   0  0  0  0  0  0  0  0  0  0  0  0
  139.8650   75.2160  222.2070 H   0  0  0  0  0  0  0  0  0  0  0  0
  138.9399   78.2849  223.2682 H   0  0  0  0  0  0  0  0  0  0  0  0
  139.0542   80.5591  224.1569 H   0  0  0  0  0  0  0  0  0  0  0  0
  141.1316   81.8658  224.2047 H   0  0  0  0  0  0  0  0  0  0  0  0
  143.2239   80.8018  223.2897 H   0  0  0  0  0  0  0  0  0  0  0  0
  143.1212   78.5170  222.3937 H   0  0  0  0  0  0  0  0  0  0  0  0
  1  2  1  0
  2  3  1  0
  3  4  1  0
  4  5  2  0
  4  6  1  0
  6  7  1  0
  7  8  1  0
  8  9  2  0
  8 10  1  0
 10 11  2  0
 11 12  1  0
 12 13  2  0
 13 14  1  0
 14 15  2  0
 15 16  1  0
 15 17  1  0
 17 18  2  0
 18 19  1  0
 19 20  2  0
  2 21  1  0
 21 22  1  0
 21 23  1  0
 23 24  2  0
 24 25  1  0
 25 26  2  0
 26 27  1  0
 27 28  2  0
 20 10  1  0
 28 23  1  0
 19 13  1  0
  1 29  1  0
  1 30  1  0
  1 31  1  0
  2 32  1  6
  3 33  1  0
  6 34  1  0
  6 35  1  0
  7 36  1  0
 11 37  1  0
 12 38  1  0
 14 39  1  0
 17 40  1  0
 18 41  1  0
 21 42  1  1
 22 43  1  0
 24 44  1  0
 25 45  1  0
 26 46  1  0
 27 47  1  0
 28 48  1  0
M  END
>  <smiles>  (49) 
C[C@H](NC(=O)CNC(=O)c1ccc2cc(Cl)ccc2n1)[C@H](O)c1ccccc1

>  <score_type>  (49) 
oracle

>  <origin>  (49) 
autodockgpu

>  <m_score__min__energy>  (49) 
-8.8800000000000008

>  <m_primary>  (49) 
energy

>  <rmsd>  (49) 
3.952298958003672

>  <m_score__min__rmsd>  (49) 
3.952298958003672

>  <meeko>  (49) 
{"free_energy": -7.35, "intermolecular_energy": -9.44, "internal_energy": -2.61, "cluster_size": 37, "cluster_id": 1, "rank_in_cluster": 35}

>  <energy>  (49) 
-6.86

>  <cluster_rmsd>  (49) 
0.2

>  <cluster>  (49) 
5

$$$$

     RDKit          3D

 48 50  0  0  0  0  0  0  0  0999 V2000
  139.6570   77.4350  222.7150 C   0  0  0  0  0  0  0  0  0  0  0  0
  139.9060   77.4020  221.2440 C   0  0  2  0  0  0  0  0  0  0  0  0
  140.1140   76.0540  220.7360 N   0  0  0  0  0  0  0  0  0  0  0  0
  139.0810   75.3250  220.0780 C   0  0  0  0  0  0  0  0  0  0  0  0
  137.9630   75.9030  219.9510 O   0  0  0  0  0  0  0  0  0  0  0  0
  139.3330   73.9460  219.5710 C   0  0  0  0  0  0  0  0  0  0  0  0
  139.1590   73.0490  220.6910 N   0  0  0  0  0  0  0  0  0  0  0  0
  140.1430   73.0290  221.7190 C   0  0  0  0  0  0  0  0  0  0  0  0
  141.1720   73.7660  221.7000 O   0  0  0  0  0  0  0  0  0  0  0  0
  139.9540   72.1180  222.8470 C   0  0  0  0  0  0  0  0  0  0  0  0
  139.0620   71.0670  222.7670 C   0  0  0  0  0  0  0  0  0  0  0  0
  138.8580   70.1880  223.8090 C   0  0  0  0  0  0  0  0  0  0  0  0
  139.5700   70.3650  224.9760 C   0  0  0  0  0  0  0  0  0  0  0  0
  139.4480   69.5510  226.0770 C   0  0  0  0  0  0  0  0  0  0  0  0
  140.1670   69.7560  227.2090 C   0  0  0  0  0  0  0  0  0  0  0  0
  140.0110   68.7210  228.6120 Cl  0  0  0  0  0  0  0  0  0  0  0  0
  141.0640   70.8210  227.2800 C   0  0  0  0  0  0  0  0  0  0  0  0
  141.2200   71.6690  226.1910 C   0  0  0  0  0  0  0  0  0  0  0  0
  140.4620   71.4140  225.0570 C   0  0  0  0  0  0  0  0  0  0  0  0
  140.6270   72.2500  224.0100 N   0  0  0  0  0  0  0  0  0  0  0  0
  141.1220   78.1980  220.8340 C   0  0  2  0  0  0  0  0  0  0  0  0
  142.2080   77.4160  220.5410 O   0  0  0  0  0  0  0  0  0  0  0  0
  141.3590   79.2400  221.8600 C   0  0  0  0  0  0  0  0  0  0  0  0
  140.6150   80.4080  221.8780 C   0  0  0  0  0  0  0  0  0  0  0  0
  140.8680   81.3480  222.8460 C   0  0  0  0  0  0  0  0  0  0  0  0
  141.8190   81.2120  223.8150 C   0  0  0  0  0  0  0  0  0  0  0  0
  142.5700   80.0450  223.8060 C   0  0  0  0  0  0  0  0  0  0  0  0
  142.3220   79.0960  222.8370 C   0  0  0  0  0  0  0  0  0  0  0  0
  140.6092   77.3088  223.2510 H   0  0  0  0  0  0  0  0  0  0  0  0
  139.2071   78.4006  222.9892 H   0  0  0  0  0  0  0  0  0  0  0  0
  138.9711   76.6199  222.9892 H   0  0  0  0  0  0  0  0  0  0  0  0
  138.9929   77.8425  220.8172 H   0  0  0  0  0  0  0  0  0  0  0  0
  141.0540   75.5930  220.8520 H   0  0  0  0  0  0  0  0  0  0  0  0
  138.6164   73.6992  218.7737 H   0  0  0  0  0  0  0  0  0  0  0  0
  140.3460   73.8597  219.1509 H   0  0  0  0  0  0  0  0  0  0  0  0
  138.3350   72.4270  220.7550 H   0  0  0  0  0  0  0  0  0  0  0  0
  138.4926   70.9259  221.8365 H   0  0  0  0  0  0  0  0  0  0  0  0
  138.1401   69.3604  223.7111 H   0  0  0  0  0  0  0  0  0  0  0  0
  138.7446   68.7061  226.0389 H   0  0  0  0  0  0  0  0  0  0  0  0
  141.6474   70.9895  228.1972 H   0  0  0  0  0  0  0  0  0  0  0  0
  141.9217   72.5153  226.2264 H   0  0  0  0  0  0  0  0  0  0  0  0
  140.9335   78.7025  219.8748 H   0  0  0  0  0  0  0  0  0  0  0  0
  142.5650   76.9050  221.3060 H   0  0  0  0  0  0  0  0  0  0  0  0
  139.8310   80.5804  221.1259 H   0  0  0  0  0  0  0  0  0  0  0  0
  140.2662   82.2688  222.8401 H   0  0  0  0  0  0  0  0  0  0  0  0
  141.9834   81.9939  224.5710 H   0  0  0  0  0  0  0  0  0  0  0  0
  143.3523   79.8794  224.5614 H   0  0  0  0  0  0  0  0  0  0  0  0
  142.9240   78.1753  222.8434 H   0  0  0  0  0  0  0  0  0  0  0  0
  1  2  1  0
  2  3  1  0
  3  4  1  0
  4  5  2  0
  4  6  1  0
  6  7  1  0
  7  8  1  0
  8  9  2  0
  8 10  1  0
 10 11  2  0
 11 12  1  0
 12 13  2  0
 13 14  1  0
 14 15  2  0
 15 16  1  0
 15 17  1  0
 17 18  2  0
 18 19  1  0
 19 20  2  0
  2 21  1  0
 21 22  1  0
 21 23  1  0
 23 24  2  0
 24 25  1  0
 25 26  2  0
 26 27  1  0
 27 28  2  0
 20 10  1  0
 28 23  1  0
 19 13  1  0
  1 29  1  0
  1 30  1  0
  1 31  1  0
  2 32  1  6
  3 33  1  0
  6 34  1  0
  6 35  1  0
  7 36  1  0
 11 37  1  0
 12 38  1  0
 14 39  1  0
 17 40  1  0
 18 41  1  0
 21 42  1  6
 22 43  1  0
 24 44  1  0
 25 45  1  0
 26 46  1  0
 27 47  1  0
 28 48  1  0
M  END
>  <smiles>  (50) 
C[C@H](NC(=O)CNC(=O)c1ccc2cc(Cl)ccc2n1)[C@H](O)c1ccccc1

>  <score_type>  (50) 
oracle

>  <origin>  (50) 
autodockgpu

>  <m_score__min__energy>  (50) 
-8.8800000000000008

>  <m_primary>  (50) 
energy

>  <rmsd>  (50) 
3.8083438517845956

>  <m_score__min__rmsd>  (50) 
3.8083438517845956

>  <meeko>  (50) 
{"free_energy": -7.63, "intermolecular_energy": -9.72, "internal_energy": -2.5, "cluster_size": 37, "cluster_id": 1, "rank_in_cluster": 33}

>  <energy>  (50) 
-6.36

>  <cluster_rmsd>  (50) 
0.0

>  <cluster>  (50) 
6

$$$$
