
     RDKit          3D

 48 51  0  0  0  0  0  0  0  0999 V2000
  138.6770   73.0500  220.9540 O   0  0  0  0  0  0  0  0  0  0  0  0
  139.3990   73.6690  221.7700 C   0  0  0  0  0  0  0  0  0  0  0  0
  140.4490   72.8740  222.3840 N   0  0  0  0  0  0  0  0  0  0  0  0
  140.5100   71.5040  221.9760 C   0  0  0  0  0  0  0  0  0  0  0  0
  139.4550   70.5980  222.3930 C   0  0  0  0  0  0  0  0  0  0  0  0
  139.6200   69.3730  221.9740 O   0  0  0  0  0  0  0  0  0  0  0  0
  138.3030   70.8040  223.1590 N   0  0  0  0  0  0  0  0  0  0  0  0
  136.9640   71.2960  222.7800 C   0  0  0  0  0  0  0  0  0  0  0  0
  136.1180   70.2000  223.3540 C   0  0  0  0  0  0  0  0  0  0  0  0
  136.8550   69.6950  224.5690 C   0  0  0  0  0  0  0  0  0  0  0  0
  138.1140   70.5410  224.5970 C   0  0  1  0  0  0  0  0  0  0  0  0
  139.2170   69.8440  225.2530 C   0  0  0  0  0  0  0  0  0  0  0  0
  140.4160   70.3760  225.6250 C   0  0  0  0  0  0  0  0  0  0  0  0
  141.4260   69.6730  226.2450 C   0  0  0  0  0  0  0  0  0  0  0  0
  141.2330   68.3340  226.5190 C   0  0  0  0  0  0  0  0  0  0  0  0
  140.0290   67.7510  226.1590 C   0  0  0  0  0  0  0  0  0  0  0  0
  139.0320   68.4820  225.5360 C   0  0  0  0  0  0  0  0  0  0  0  0
  139.2300   75.0780  222.1020 C   0  0  0  0  0  0  0  0  0  0  0  0
  137.9400   75.5530  222.1690 C   0  0  0  0  0  0  0  0  0  0  0  0
  137.8050   76.9090  222.4900 C   0  0  0  0  0  0  0  0  0  0  0  0
  138.9210   77.7050  222.7230 C   0  0  0  0  0  0  0  0  0  0  0  0
  138.8020   79.0530  223.0420 C   0  0  0  0  0  0  0  0  0  0  0  0
  139.9290   79.8350  223.2720 C   0  0  0  0  0  0  0  0  0  0  0  0
  141.1840   79.2530  223.1780 C   0  0  0  0  0  0  0  0  0  0  0  0
  142.6540   80.1940  223.4590 Cl  0  0  0  0  0  0  0  0  0  0  0  0
  141.3330   77.9200  222.8630 C   0  0  0  0  0  0  0  0  0  0  0  0
  140.1990   77.1550  222.6380 C   0  0  0  0  0  0  0  0  0  0  0  0
  140.3030   75.8570  222.3300 N   0  0  0  0  0  0  0  0  0  0  0  0
  141.0860   73.3320  223.0710 H   0  0  0  0  0  0  0  0  0  0  0  0
  140.5261   71.4956  220.8761 H   0  0  0  0  0  0  0  0  0  0  0  0
  141.4060   71.1171  222.4835 H   0  0  0  0  0  0  0  0  0  0  0  0
  136.7403   72.2695  223.2407 H   0  0  0  0  0  0  0  0  0  0  0  0
  136.8224   71.4785  221.7045 H   0  0  0  0  0  0  0  0  0  0  0  0
  135.1307   70.5907  223.6415 H   0  0  0  0  0  0  0  0  0  0  0  0
  135.9515   69.3959  222.6221 H   0  0  0  0  0  0  0  0  0  0  0  0
  136.2593   69.8464  225.4812 H   0  0  0  0  0  0  0  0  0  0  0  0
  137.0649   68.6161  224.5249 H   0  0  0  0  0  0  0  0  0  0  0  0
  138.0560   71.4678  225.1866 H   0  0  0  0  0  0  0  0  0  0  0  0
  140.5893   71.4418  225.4153 H   0  0  0  0  0  0  0  0  0  0  0  0
  142.3690   70.1699  226.5167 H   0  0  0  0  0  0  0  0  0  0  0  0
  142.0183   67.7426  227.0126 H   0  0  0  0  0  0  0  0  0  0  0  0
  139.8617   66.6850  226.3726 H   0  0  0  0  0  0  0  0  0  0  0  0
  138.0869   67.9912  225.2605 H   0  0  0  0  0  0  0  0  0  0  0  0
  137.0692   74.9074  221.9820 H   0  0  0  0  0  0  0  0  0  0  0  0
  136.8003   77.3516  222.5590 H   0  0  0  0  0  0  0  0  0  0  0  0
  137.8028   79.5073  223.1135 H   0  0  0  0  0  0  0  0  0  0  0  0
  139.8261   80.9006  223.5250 H   0  0  0  0  0  0  0  0  0  0  0  0
  142.3344   77.4706  222.7913 H   0  0  0  0  0  0  0  0  0  0  0  0
  1  2  2  0
  2  3  1  0
  3  4  1  0
  4  5  1  0
  5  6  2  0
  5  7  1  0
  7  8  1  0
  8  9  1  0
  9 10  1  0
 10 11  1  0
 11 12  1  0
 12 13  2  0
 13 14  1  0
 14 15  2  0
 15 16  1  0
 16 17  2  0
  2 18  1  0
 18 19  2  0
 19 20  1  0
 20 21  2  0
 21 22  1  0
 22 23  2  0
 23 24  1  0
 24 25  1  0
 24 26  2  0
 26 27  1  0
 27 28  2  0
 11  7  1  0
 17 12  1  0
 28 18  1  0
 27 21  1  0
  3 29  1  0
  4 30  1  0
  4 31  1  0
  8 32  1  0
  8 33  1  0
  9 34  1  0
  9 35  1  0
 10 36  1  0
 10 37  1  0
 11 38  1  1
 13 39  1  0
 14 40  1  0
 15 41  1  0
 16 42  1  0
 17 43  1  0
 19 44  1  0
 20 45  1  0
 22 46  1  0
 23 47  1  0
 26 48  1  0
M  END
>  <smiles>  (1) 
O=C(NCC(=O)N1CCC[C@H]1c1ccccc1)c1ccc2ccc(Cl)cc2n1

>  <score_type>  (1) 
oracle

>  <origin>  (1) 
autodockgpu

>  <m_score__min__energy>  (1) 
-8.4600000000000009

>  <m_primary>  (1) 
energy

>  <rmsd>  (1) 
7.705956886338811

>  <m_score__min__rmsd>  (1) 
7.705956886338811

>  <meeko>  (1) 
{"free_energy": -7.33, "intermolecular_energy": -8.82, "internal_energy": -1.69, "cluster_size": 15, "cluster_id": 2, "rank_in_cluster": 15}

>  <energy>  (1) 
-8.46

>  <cluster_rmsd>  (1) 
0.0

>  <cluster>  (1) 
1

$$$$

     RDKit          3D

 48 51  0  0  0  0  0  0  0  0999 V2000
  136.9970   71.1950  221.6140 O   0  0  0  0  0  0  0  0  0  0  0  0
  137.6180   71.9480  222.4000 C   0  0  0  0  0  0  0  0  0  0  0  0
  137.1840   71.8800  223.7850 N   0  0  0  0  0  0  0  0  0  0  0  0
  136.1130   70.9710  224.0560 C   0  0  0  0  0  0  0  0  0  0  0  0
  136.3920   69.5470  224.0950 C   0  0  0  0  0  0  0  0  0  0  0  0
  135.6500   68.8910  224.9460 O   0  0  0  0  0  0  0  0  0  0  0  0
  137.3060   68.7600  223.3870 N   0  0  0  0  0  0  0  0  0  0  0  0
  137.1420   67.9490  222.1640 C   0  0  0  0  0  0  0  0  0  0  0  0
  138.2740   68.4920  221.3450 C   0  0  0  0  0  0  0  0  0  0  0  0
  139.3490   68.8850  222.3270 C   0  0  0  0  0  0  0  0  0  0  0  0
  138.7370   68.5550  223.6750 C   0  0  1  0  0  0  0  0  0  0  0  0
  139.2850   69.3960  224.7360 C   0  0  0  0  0  0  0  0  0  0  0  0
  139.2080   69.1730  226.0790 C   0  0  0  0  0  0  0  0  0  0  0  0
  139.7460   69.9990  227.0420 C   0  0  0  0  0  0  0  0  0  0  0  0
  140.4160   71.1390  226.6410 C   0  0  0  0  0  0  0  0  0  0  0  0
  140.5190   71.4050  225.2860 C   0  0  0  0  0  0  0  0  0  0  0  0
  139.9680   70.5560  224.3410 C   0  0  0  0  0  0  0  0  0  0  0  0
  138.6990   72.8380  221.9930 C   0  0  0  0  0  0  0  0  0  0  0  0
  138.4220   74.1850  221.9640 C   0  0  0  0  0  0  0  0  0  0  0  0
  139.4770   75.0170  221.5690 C   0  0  0  0  0  0  0  0  0  0  0  0
  140.7180   74.4890  221.2330 C   0  0  0  0  0  0  0  0  0  0  0  0
  141.7740   75.3020  220.8390 C   0  0  0  0  0  0  0  0  0  0  0  0
  143.0100   74.7590  220.5060 C   0  0  0  0  0  0  0  0  0  0  0  0
  143.1810   73.3840  220.5700 C   0  0  0  0  0  0  0  0  0  0  0  0
  144.7270   72.6320  220.1580 Cl  0  0  0  0  0  0  0  0  0  0  0  0
  142.1530   72.5530  220.9560 C   0  0  0  0  0  0  0  0  0  0  0  0
  140.9270   73.1120  221.2850 C   0  0  0  0  0  0  0  0  0  0  0  0
  139.9040   72.3370  221.6650 N   0  0  0  0  0  0  0  0  0  0  0  0
  137.6630   72.4810  224.4900 H   0  0  0  0  0  0  0  0  0  0  0  0
  135.6978   71.2452  225.0370 H   0  0  0  0  0  0  0  0  0  0  0  0
  135.4442   71.0854  223.1902 H   0  0  0  0  0  0  0  0  0  0  0  0
  137.2620   66.8745  222.3664 H   0  0  0  0  0  0  0  0  0  0  0  0
  136.1512   68.0154  221.6907 H   0  0  0  0  0  0  0  0  0  0  0  0
  138.6499   67.7220  220.6552 H   0  0  0  0  0  0  0  0  0  0  0  0
  137.9538   69.3494  220.7349 H   0  0  0  0  0  0  0  0  0  0  0  0
  140.2668   68.3024  222.1589 H   0  0  0  0  0  0  0  0  0  0  0  0
  139.6444   69.9409  222.2382 H   0  0  0  0  0  0  0  0  0  0  0  0
  138.9448   67.5465  224.0619 H   0  0  0  0  0  0  0  0  0  0  0  0
  138.6790   68.2699  226.4177 H   0  0  0  0  0  0  0  0  0  0  0  0
  139.6440   69.7554  228.1098 H   0  0  0  0  0  0  0  0  0  0  0  0
  140.8582   71.8207  227.3824 H   0  0  0  0  0  0  0  0  0  0  0  0
  141.0495   72.3094  224.9534 H   0  0  0  0  0  0  0  0  0  0  0  0
  140.0667   70.7931  223.2714 H   0  0  0  0  0  0  0  0  0  0  0  0
  137.4332   74.5840  222.2343 H   0  0  0  0  0  0  0  0  0  0  0  0
  139.3211   76.1050  221.5240 H   0  0  0  0  0  0  0  0  0  0  0  0
  141.6299   76.3914  220.7899 H   0  0  0  0  0  0  0  0  0  0  0  0
  143.8403   75.4106  220.1962 H   0  0  0  0  0  0  0  0  0  0  0  0
  142.3017   71.4641  221.0026 H   0  0  0  0  0  0  0  0  0  0  0  0
  1  2  2  0
  2  3  1  0
  3  4  1  0
  4  5  1  0
  5  6  2  0
  5  7  1  0
  7  8  1  0
  8  9  1  0
  9 10  1  0
 10 11  1  0
 11 12  1  0
 12 13  2  0
 13 14  1  0
 14 15  2  0
 15 16  1  0
 16 17  2  0
  2 18  1  0
 18 19  2  0
 19 20  1  0
 20 21  2  0
 21 22  1  0
 22 23  2  0
 23 24  1  0
 24 25  1  0
 24 26  2  0
 26 27  1  0
 27 28  2  0
 11  7  1  0
 17 12  1  0
 28 18  1  0
 27 21  1  0
  3 29  1  0
  4 30  1  0
  4 31  1  0
  8 32  1  0
  8 33  1  0
  9 34  1  0
  9 35  1  0
 10 36  1  0
 10 37  1  0
 11 38  1  1
 13 39  1  0
 14 40  1  0
 15 41  1  0
 16 42  1  0
 17 43  1  0
 19 44  1  0
 20 45  1  0
 22 46  1  0
 23 47  1  0
 26 48  1  0
M  END
>  <smiles>  (2) 
O=C(NCC(=O)N1CCC[C@H]1c1ccccc1)c1ccc2ccc(Cl)cc2n1

>  <score_type>  (2) 
oracle

>  <origin>  (2) 
autodockgpu

>  <m_score__min__energy>  (2) 
-8.4600000000000009

>  <m_primary>  (2) 
energy

>  <rmsd>  (2) 
7.3033820249739305

>  <m_score__min__rmsd>  (2) 
7.3033820249739305

>  <meeko>  (2) 
{"free_energy": -6.56, "intermolecular_energy": -8.05, "internal_energy": -2.46, "cluster_size": 1, "cluster_id": 10, "rank_in_cluster": 1}

>  <energy>  (2) 
-8.45

>  <cluster_rmsd>  (2) 
0.11

>  <cluster>  (2) 
1

$$$$

     RDKit          3D

 48 51  0  0  0  0  0  0  0  0999 V2000
  141.2080   73.8670  220.7630 O   0  0  0  0  0  0  0  0  0  0  0  0
  140.4540   74.1600  221.7200 C   0  0  0  0  0  0  0  0  0  0  0  0
  139.9870   73.0280  222.5010 N   0  0  0  0  0  0  0  0  0  0  0  0
  140.4490   71.7440  222.0720 C   0  0  0  0  0  0  0  0  0  0  0  0
  139.5070   70.6410  222.0140 C   0  0  0  0  0  0  0  0  0  0  0  0
  139.9120   69.6430  221.2770 O   0  0  0  0  0  0  0  0  0  0  0  0
  138.2530   70.4590  222.6070 N   0  0  0  0  0  0  0  0  0  0  0  0
  136.9010   70.4140  222.0160 C   0  0  0  0  0  0  0  0  0  0  0  0
  136.4130   69.1190  222.5930 C   0  0  0  0  0  0  0  0  0  0  0  0
  137.0860   68.9810  223.9360 C   0  0  0  0  0  0  0  0  0  0  0  0
  137.9500   70.2240  224.0300 C   0  0  1  0  0  0  0  0  0  0  0  0
  139.1130   70.0070  224.8860 C   0  0  0  0  0  0  0  0  0  0  0  0
  139.5660   68.8130  225.3640 C   0  0  0  0  0  0  0  0  0  0  0  0
  140.6740   68.6620  226.1700 C   0  0  0  0  0  0  0  0  0  0  0  0
  141.3920   69.7850  226.5310 C   0  0  0  0  0  0  0  0  0  0  0  0
  140.9680   71.0190  226.0680 C   0  0  0  0  0  0  0  0  0  0  0  0
  139.8500   71.1410  225.2600 C   0  0  0  0  0  0  0  0  0  0  0  0
  140.0540   75.5220  222.0540 C   0  0  0  0  0  0  0  0  0  0  0  0
  138.7110   75.8140  221.9810 C   0  0  0  0  0  0  0  0  0  0  0  0
  138.3540   77.1280  222.3060 C   0  0  0  0  0  0  0  0  0  0  0  0
  139.3150   78.0610  222.6770 C   0  0  0  0  0  0  0  0  0  0  0  0
  138.9760   79.3700  223.0020 C   0  0  0  0  0  0  0  0  0  0  0  0
  139.9490   80.2910  223.3700 C   0  0  0  0  0  0  0  0  0  0  0  0
  141.2770   79.8890  223.4100 C   0  0  0  0  0  0  0  0  0  0  0  0
  142.5610   81.0140  223.8700 Cl  0  0  0  0  0  0  0  0  0  0  0  0
  141.6430   78.6000  223.0930 C   0  0  0  0  0  0  0  0  0  0  0  0
  140.6590   77.6950  222.7280 C   0  0  0  0  0  0  0  0  0  0  0  0
  140.9760   76.4330  222.4130 N   0  0  0  0  0  0  0  0  0  0  0  0
  139.3580   73.2070  223.3140 H   0  0  0  0  0  0  0  0  0  0  0  0
  140.8597   71.8709  221.0595 H   0  0  0  0  0  0  0  0  0  0  0  0
  141.1595   71.4435  222.8561 H   0  0  0  0  0  0  0  0  0  0  0  0
  136.2841   71.2648  222.3408 H   0  0  0  0  0  0  0  0  0  0  0  0
  136.8710   70.4747  220.9181 H   0  0  0  0  0  0  0  0  0  0  0  0
  135.3199   69.1426  222.7141 H   0  0  0  0  0  0  0  0  0  0  0  0
  136.6505   68.2703  221.9348 H   0  0  0  0  0  0  0  0  0  0  0  0
  136.3433   68.9565  224.7470 H   0  0  0  0  0  0  0  0  0  0  0  0
  137.6640   68.0499  224.0313 H   0  0  0  0  0  0  0  0  0  0  0  0
  137.4827   71.0981  224.5070 H   0  0  0  0  0  0  0  0  0  0  0  0
  139.0079   67.9065  225.0869 H   0  0  0  0  0  0  0  0  0  0  0  0
  140.9807   67.6650  226.5193 H   0  0  0  0  0  0  0  0  0  0  0  0
  142.2816   69.7010  227.1726 H   0  0  0  0  0  0  0  0  0  0  0  0
  141.5311   71.9215  226.3479 H   0  0  0  0  0  0  0  0  0  0  0  0
  139.5371   72.1352  224.9084 H   0  0  0  0  0  0  0  0  0  0  0  0
  137.9647   75.0618  221.6857 H   0  0  0  0  0  0  0  0  0  0  0  0
  137.2961   77.4268  222.2671 H   0  0  0  0  0  0  0  0  0  0  0  0
  137.9214   79.6810  222.9672 H   0  0  0  0  0  0  0  0  0  0  0  0
  139.6709   81.3240  223.6260 H   0  0  0  0  0  0  0  0  0  0  0  0
  142.6989   78.2937  223.1289 H   0  0  0  0  0  0  0  0  0  0  0  0
  1  2  2  0
  2  3  1  0
  3  4  1  0
  4  5  1  0
  5  6  2  0
  5  7  1  0
  7  8  1  0
  8  9  1  0
  9 10  1  0
 10 11  1  0
 11 12  1  0
 12 13  2  0
 13 14  1  0
 14 15  2  0
 15 16  1  0
 16 17  2  0
  2 18  1  0
 18 19  2  0
 19 20  1  0
 20 21  2  0
 21 22  1  0
 22 23  2  0
 23 24  1  0
 24 25  1  0
 24 26  2  0
 26 27  1  0
 27 28  2  0
 11  7  1  0
 17 12  1  0
 28 18  1  0
 27 21  1  0
  3 29  1  0
  4 30  1  0
  4 31  1  0
  8 32  1  0
  8 33  1  0
  9 34  1  0
  9 35  1  0
 10 36  1  0
 10 37  1  0
 11 38  1  1
 13 39  1  0
 14 40  1  0
 15 41  1  0
 16 42  1  0
 17 43  1  0
 19 44  1  0
 20 45  1  0
 22 46  1  0
 23 47  1  0
 26 48  1  0
M  END
>  <smiles>  (3) 
O=C(NCC(=O)N1CCC[C@H]1c1ccccc1)c1ccc2ccc(Cl)cc2n1

>  <score_type>  (3) 
oracle

>  <origin>  (3) 
autodockgpu

>  <m_score__min__energy>  (3) 
-8.4600000000000009

>  <m_primary>  (3) 
energy

>  <rmsd>  (3) 
7.874711260099927

>  <m_score__min__rmsd>  (3) 
7.874711260099927

>  <meeko>  (3) 
{"free_energy": -7.8, "intermolecular_energy": -9.3, "internal_energy": -1.36, "cluster_size": 15, "cluster_id": 2, "rank_in_cluster": 13}

>  <energy>  (3) 
-8.42

>  <cluster_rmsd>  (3) 
0.16

>  <cluster>  (3) 
1

$$$$

     RDKit          3D

 48 51  0  0  0  0  0  0  0  0999 V2000
  134.1700   69.2540  226.4380 O   0  0  0  0  0  0  0  0  0  0  0  0
  134.3750   70.4070  225.9920 C   0  0  0  0  0  0  0  0  0  0  0  0
  135.4500   70.5050  225.0200 N   0  0  0  0  0  0  0  0  0  0  0  0
  136.1210   69.2810  224.7090 C   0  0  0  0  0  0  0  0  0  0  0  0
  137.5720   69.2510  224.7230 C   0  0  0  0  0  0  0  0  0  0  0  0
  138.0720   68.5020  225.6680 O   0  0  0  0  0  0  0  0  0  0  0  0
  138.5210   69.8750  223.9070 N   0  0  0  0  0  0  0  0  0  0  0  0
  138.4330   70.3580  222.5140 C   0  0  0  0  0  0  0  0  0  0  0  0
  138.9200   71.7630  222.7000 C   0  0  0  0  0  0  0  0  0  0  0  0
  139.9080   71.7150  223.8390 C   0  0  0  0  0  0  0  0  0  0  0  0
  139.9020   70.2560  224.2530 C   0  0  1  0  0  0  0  0  0  0  0  0
  140.2580   70.0940  225.6610 C   0  0  0  0  0  0  0  0  0  0  0  0
  140.1960   71.0460  226.6350 C   0  0  0  0  0  0  0  0  0  0  0  0
  140.5430   70.8400  227.9530 C   0  0  0  0  0  0  0  0  0  0  0  0
  140.9870   69.5900  228.3370 C   0  0  0  0  0  0  0  0  0  0  0  0
  141.0660   68.5930  227.3800 C   0  0  0  0  0  0  0  0  0  0  0  0
  140.7110   68.8280  226.0620 C   0  0  0  0  0  0  0  0  0  0  0  0
  133.6150   71.5840  226.3960 C   0  0  0  0  0  0  0  0  0  0  0  0
  132.5310   71.3760  227.2180 C   0  0  0  0  0  0  0  0  0  0  0  0
  131.8180   72.5210  227.5900 C   0  0  0  0  0  0  0  0  0  0  0  0
  132.2020   73.7810  227.1440 C   0  0  0  0  0  0  0  0  0  0  0  0
  131.5040   74.9270  227.5050 C   0  0  0  0  0  0  0  0  0  0  0  0
  131.9020   76.1800  227.0500 C   0  0  0  0  0  0  0  0  0  0  0  0
  133.0120   76.2760  226.2240 C   0  0  0  0  0  0  0  0  0  0  0  0
  133.5660   77.8390  225.6130 Cl  0  0  0  0  0  0  0  0  0  0  0  0
  133.7230   75.1570  225.8490 C   0  0  0  0  0  0  0  0  0  0  0  0
  133.3130   73.9170  226.3130 C   0  0  0  0  0  0  0  0  0  0  0  0
  133.9780   72.8070  225.9700 N   0  0  0  0  0  0  0  0  0  0  0  0
  135.6690   71.4390  224.6100 H   0  0  0  0  0  0  0  0  0  0  0  0
  135.7760   68.5306  225.4356 H   0  0  0  0  0  0  0  0  0  0  0  0
  135.8635   69.0993  223.6551 H   0  0  0  0  0  0  0  0  0  0  0  0
  139.0863   69.7844  221.8401 H   0  0  0  0  0  0  0  0  0  0  0  0
  137.4388   70.2675  222.0521 H   0  0  0  0  0  0  0  0  0  0  0  0
  139.4111   72.1215  221.7833 H   0  0  0  0  0  0  0  0  0  0  0  0
  138.0896   72.4512  222.9165 H   0  0  0  0  0  0  0  0  0  0  0  0
  140.9091   72.0244  223.5042 H   0  0  0  0  0  0  0  0  0  0  0  0
  139.6449   72.3948  224.6628 H   0  0  0  0  0  0  0  0  0  0  0  0
  140.6477   69.6150  223.7601 H   0  0  0  0  0  0  0  0  0  0  0  0
  139.8446   72.0484  226.3491 H   0  0  0  0  0  0  0  0  0  0  0  0
  140.4676   71.6568  228.6859 H   0  0  0  0  0  0  0  0  0  0  0  0
  141.2717   69.3909  229.3807 H   0  0  0  0  0  0  0  0  0  0  0  0
  141.4182   67.5928  227.6725 H   0  0  0  0  0  0  0  0  0  0  0  0
  140.7848   68.0158  225.3238 H   0  0  0  0  0  0  0  0  0  0  0  0
  132.2429   70.3715  227.5614 H   0  0  0  0  0  0  0  0  0  0  0  0
  130.9400   72.4230  228.2454 H   0  0  0  0  0  0  0  0  0  0  0  0
  130.6242   74.8423  228.1599 H   0  0  0  0  0  0  0  0  0  0  0  0
  131.3440   77.0821  227.3413 H   0  0  0  0  0  0  0  0  0  0  0  0
  134.6011   75.2462  225.1925 H   0  0  0  0  0  0  0  0  0  0  0  0
  1  2  2  0
  2  3  1  0
  3  4  1  0
  4  5  1  0
  5  6  2  0
  5  7  1  0
  7  8  1  0
  8  9  1  0
  9 10  1  0
 10 11  1  0
 11 12  1  0
 12 13  2  0
 13 14  1  0
 14 15  2  0
 15 16  1  0
 16 17  2  0
  2 18  1  0
 18 19  2  0
 19 20  1  0
 20 21  2  0
 21 22  1  0
 22 23  2  0
 23 24  1  0
 24 25  1  0
 24 26  2  0
 26 27  1  0
 27 28  2  0
 11  7  1  0
 17 12  1  0
 28 18  1  0
 27 21  1  0
  3 29  1  0
  4 30  1  0
  4 31  1  0
  8 32  1  0
  8 33  1  0
  9 34  1  0
  9 35  1  0
 10 36  1  0
 10 37  1  0
 11 38  1  6
 13 39  1  0
 14 40  1  0
 15 41  1  0
 16 42  1  0
 17 43  1  0
 19 44  1  0
 20 45  1  0
 22 46  1  0
 23 47  1  0
 26 48  1  0
M  END
>  <smiles>  (4) 
O=C(NCC(=O)N1CCC[C@H]1c1ccccc1)c1ccc2ccc(Cl)cc2n1

>  <score_type>  (4) 
oracle

>  <origin>  (4) 
autodockgpu

>  <m_score__min__energy>  (4) 
-8.4600000000000009

>  <m_primary>  (4) 
energy

>  <rmsd>  (4) 
7.77847008970252

>  <m_score__min__rmsd>  (4) 
7.77847008970252

>  <meeko>  (4) 
{"free_energy": -8.21, "intermolecular_energy": -9.7, "internal_energy": -1.24, "cluster_size": 9, "cluster_id": 1, "rank_in_cluster": 8}

>  <energy>  (4) 
-8.39

>  <cluster_rmsd>  (4) 
0.16

>  <cluster>  (4) 
1

$$$$

     RDKit          3D

 48 51  0  0  0  0  0  0  0  0999 V2000
  140.3980   74.4850  219.4770 O   0  0  0  0  0  0  0  0  0  0  0  0
  140.7660   74.2600  220.6530 C   0  0  0  0  0  0  0  0  0  0  0  0
  141.6890   75.2370  221.2040 N   0  0  0  0  0  0  0  0  0  0  0  0
  142.0490   76.3130  220.3320 C   0  0  0  0  0  0  0  0  0  0  0  0
  141.2140   77.5000  220.2970 C   0  0  0  0  0  0  0  0  0  0  0  0
  141.7960   78.5340  219.7540 O   0  0  0  0  0  0  0  0  0  0  0  0
  139.9060   77.7280  220.7370 N   0  0  0  0  0  0  0  0  0  0  0  0
  138.6350   77.0680  220.3770 C   0  0  0  0  0  0  0  0  0  0  0  0
  138.1280   76.7300  221.7470 C   0  0  0  0  0  0  0  0  0  0  0  0
  138.6410   77.8130  222.6620 C   0  0  0  0  0  0  0  0  0  0  0  0
  139.4450   78.7070  221.7370 C   0  0  1  0  0  0  0  0  0  0  0  0
  140.5060   79.4100  222.4550 C   0  0  0  0  0  0  0  0  0  0  0  0
  141.2430   78.9310  223.4970 C   0  0  0  0  0  0  0  0  0  0  0  0
  142.2380   79.6360  224.1410 C   0  0  0  0  0  0  0  0  0  0  0  0
  142.5260   80.9180  223.7170 C   0  0  0  0  0  0  0  0  0  0  0  0
  141.8010   81.4440  222.6610 C   0  0  0  0  0  0  0  0  0  0  0  0
  140.8070   80.7130  222.0330 C   0  0  0  0  0  0  0  0  0  0  0  0
  140.3230   73.1160  221.4400 C   0  0  0  0  0  0  0  0  0  0  0  0
  139.5310   72.1880  220.8030 C   0  0  0  0  0  0  0  0  0  0  0  0
  139.1190   71.1000  221.5810 C   0  0  0  0  0  0  0  0  0  0  0  0
  139.5010   70.9850  222.9130 C   0  0  0  0  0  0  0  0  0  0  0  0
  139.0990   69.9110  223.6980 C   0  0  0  0  0  0  0  0  0  0  0  0
  139.4890   69.8110  225.0290 C   0  0  0  0  0  0  0  0  0  0  0  0
  140.2900   70.8060  225.5720 C   0  0  0  0  0  0  0  0  0  0  0  0
  140.8180   70.7370  227.2580 Cl  0  0  0  0  0  0  0  0  0  0  0  0
  140.7020   71.8830  224.8190 C   0  0  0  0  0  0  0  0  0  0  0  0
  140.3050   71.9650  223.4940 C   0  0  0  0  0  0  0  0  0  0  0  0
  140.6860   72.9960  222.7300 N   0  0  0  0  0  0  0  0  0  0  0  0
  142.0300   75.1070  222.1810 H   0  0  0  0  0  0  0  0  0  0  0  0
  143.0593   76.6380  220.6212 H   0  0  0  0  0  0  0  0  0  0  0  0
  141.9401   75.8841  219.3249 H   0  0  0  0  0  0  0  0  0  0  0  0
  137.9553   77.7506  219.8459 H   0  0  0  0  0  0  0  0  0  0  0  0
  138.7318   76.2129  219.6919 H   0  0  0  0  0  0  0  0  0  0  0  0
  137.0281   76.7139  221.7537 H   0  0  0  0  0  0  0  0  0  0  0  0
  138.4720   75.7359  222.0687 H   0  0  0  0  0  0  0  0  0  0  0  0
  137.8088   78.3679  223.1197 H   0  0  0  0  0  0  0  0  0  0  0  0
  139.2346   77.4198  223.5004 H   0  0  0  0  0  0  0  0  0  0  0  0
  138.8946   79.5427  221.2802 H   0  0  0  0  0  0  0  0  0  0  0  0
  141.0291   77.9109  223.8487 H   0  0  0  0  0  0  0  0  0  0  0  0
  142.7922   79.1851  224.9774 H   0  0  0  0  0  0  0  0  0  0  0  0
  143.3140   81.5085  224.2072 H   0  0  0  0  0  0  0  0  0  0  0  0
  142.0195   82.4646  222.3136 H   0  0  0  0  0  0  0  0  0  0  0  0
  140.2488   81.1580  221.1961 H   0  0  0  0  0  0  0  0  0  0  0  0
  139.2398   72.2948  219.7476 H   0  0  0  0  0  0  0  0  0  0  0  0
  138.4828   70.3234  221.1315 H   0  0  0  0  0  0  0  0  0  0  0  0
  138.4626   69.1281  223.2598 H   0  0  0  0  0  0  0  0  0  0  0  0
  139.1676   68.9563  225.6423 H   0  0  0  0  0  0  0  0  0  0  0  0
  141.3358   72.6653  225.2621 H   0  0  0  0  0  0  0  0  0  0  0  0
  1  2  2  0
  2  3  1  0
  3  4  1  0
  4  5  1  0
  5  6  2  0
  5  7  1  0
  7  8  1  0
  8  9  1  0
  9 10  1  0
 10 11  1  0
 11 12  1  0
 12 13  2  0
 13 14  1  0
 14 15  2  0
 15 16  1  0
 16 17  2  0
  2 18  1  0
 18 19  2  0
 19 20  1  0
 20 21  2  0
 21 22  1  0
 22 23  2  0
 23 24  1  0
 24 25  1  0
 24 26  2  0
 26 27  1  0
 27 28  2  0
 11  7  1  0
 17 12  1  0
 28 18  1  0
 27 21  1  0
  3 29  1  0
  4 30  1  0
  4 31  1  0
  8 32  1  0
  8 33  1  0
  9 34  1  0
  9 35  1  0
 10 36  1  0
 10 37  1  0
 11 38  1  6
 13 39  1  0
 14 40  1  0
 15 41  1  0
 16 42  1  0
 17 43  1  0
 19 44  1  0
 20 45  1  0
 22 46  1  0
 23 47  1  0
 26 48  1  0
M  END
>  <smiles>  (5) 
O=C(NCC(=O)N1CCC[C@H]1c1ccccc1)c1ccc2ccc(Cl)cc2n1

>  <score_type>  (5) 
oracle

>  <origin>  (5) 
autodockgpu

>  <m_score__min__energy>  (5) 
-8.4600000000000009

>  <m_primary>  (5) 
energy

>  <rmsd>  (5) 
3.937027039669543

>  <m_score__min__rmsd>  (5) 
3.937027039669543

>  <meeko>  (5) 
{"free_energy": -7.27, "intermolecular_energy": -8.76, "internal_energy": -1.95, "cluster_size": 9, "cluster_id": 3, "rank_in_cluster": 8}

>  <energy>  (5) 
-8.35

>  <cluster_rmsd>  (5) 
0.23

>  <cluster>  (5) 
1

$$$$

     RDKit          3D

 48 51  0  0  0  0  0  0  0  0999 V2000
  140.6970   73.3990  220.9280 O   0  0  0  0  0  0  0  0  0  0  0  0
  139.9100   73.2680  221.8950 C   0  0  0  0  0  0  0  0  0  0  0  0
  139.1380   74.4540  222.2210 N   0  0  0  0  0  0  0  0  0  0  0  0
  139.3820   75.6000  221.4010 C   0  0  0  0  0  0  0  0  0  0  0  0
  140.6570   76.2850  221.5100 C   0  0  0  0  0  0  0  0  0  0  0  0
  141.0900   76.3950  222.7360 O   0  0  0  0  0  0  0  0  0  0  0  0
  141.4980   76.8420  220.5400 N   0  0  0  0  0  0  0  0  0  0  0  0
  141.9140   76.3390  219.2160 C   0  0  0  0  0  0  0  0  0  0  0  0
  141.5670   77.5270  218.3710 C   0  0  0  0  0  0  0  0  0  0  0  0
  141.7560   78.7360  219.2520 C   0  0  0  0  0  0  0  0  0  0  0  0
  142.1880   78.1430  220.5800 C   0  0  1  0  0  0  0  0  0  0  0  0
  141.8220   79.0080  221.7000 C   0  0  0  0  0  0  0  0  0  0  0  0
  142.6240   79.3890  222.7340 C   0  0  0  0  0  0  0  0  0  0  0  0
  142.2300   80.2110  223.7680 C   0  0  0  0  0  0  0  0  0  0  0  0
  140.9360   80.6940  223.7780 C   0  0  0  0  0  0  0  0  0  0  0  0
  140.0870   80.3310  222.7460 C   0  0  0  0  0  0  0  0  0  0  0  0
  140.5100   79.5040  221.7200 C   0  0  0  0  0  0  0  0  0  0  0  0
  139.7550   72.0350  222.6580 C   0  0  0  0  0  0  0  0  0  0  0  0
  139.1310   70.9840  222.0270 C   0  0  0  0  0  0  0  0  0  0  0  0
  138.9950   69.8130  222.7810 C   0  0  0  0  0  0  0  0  0  0  0  0
  139.4700   69.7410  224.0850 C   0  0  0  0  0  0  0  0  0  0  0  0
  139.3420   68.5860  224.8470 C   0  0  0  0  0  0  0  0  0  0  0  0
  139.8230   68.5300  226.1500 C   0  0  0  0  0  0  0  0  0  0  0  0
  140.4370   69.6510  226.6900 C   0  0  0  0  0  0  0  0  0  0  0  0
  141.0680   69.6440  228.3420 Cl  0  0  0  0  0  0  0  0  0  0  0  0
  140.5780   70.8100  225.9600 C   0  0  0  0  0  0  0  0  0  0  0  0
  140.0930   70.8470  224.6620 C   0  0  0  0  0  0  0  0  0  0  0  0
  140.2110   71.9560  223.9210 N   0  0  0  0  0  0  0  0  0  0  0  0
  138.4630   74.4090  223.0150 H   0  0  0  0  0  0  0  0  0  0  0  0
  139.2788   75.2757  220.3550 H   0  0  0  0  0  0  0  0  0  0  0  0
  138.6529   76.3412  221.7602 H   0  0  0  0  0  0  0  0  0  0  0  0
  142.9903   76.1143  219.1835 H   0  0  0  0  0  0  0  0  0  0  0  0
  141.4414   75.3948  218.9076 H   0  0  0  0  0  0  0  0  0  0  0  0
  142.2341   77.5826  217.4981 H   0  0  0  0  0  0  0  0  0  0  0  0
  140.5365   77.4632  217.9916 H   0  0  0  0  0  0  0  0  0  0  0  0
  142.5335   79.4002  218.8466 H   0  0  0  0  0  0  0  0  0  0  0  0
  140.8488   79.3527  219.3332 H   0  0  0  0  0  0  0  0  0  0  0  0
  143.2728   78.0354  220.7273 H   0  0  0  0  0  0  0  0  0  0  0  0
  143.6582   79.0143  222.7441 H   0  0  0  0  0  0  0  0  0  0  0  0
  142.9334   80.4775  224.5707 H   0  0  0  0  0  0  0  0  0  0  0  0
  140.5877   81.3522  224.5876 H   0  0  0  0  0  0  0  0  0  0  0  0
  139.0537   80.7082  222.7416 H   0  0  0  0  0  0  0  0  0  0  0  0
  139.8120   79.2336  220.9140 H   0  0  0  0  0  0  0  0  0  0  0  0
  138.7617   71.0594  220.9936 H   0  0  0  0  0  0  0  0  0  0  0  0
  138.5043   68.9356  222.3344 H   0  0  0  0  0  0  0  0  0  0  0  0
  138.8523   67.7021  224.4122 H   0  0  0  0  0  0  0  0  0  0  0  0
  139.7184   67.6103  226.7444 H   0  0  0  0  0  0  0  0  0  0  0  0
  141.0673   71.6917  226.3995 H   0  0  0  0  0  0  0  0  0  0  0  0
  1  2  2  0
  2  3  1  0
  3  4  1  0
  4  5  1  0
  5  6  2  0
  5  7  1  0
  7  8  1  0
  8  9  1  0
  9 10  1  0
 10 11  1  0
 11 12  1  0
 12 13  2  0
 13 14  1  0
 14 15  2  0
 15 16  1  0
 16 17  2  0
  2 18  1  0
 18 19  2  0
 19 20  1  0
 20 21  2  0
 21 22  1  0
 22 23  2  0
 23 24  1  0
 24 25  1  0
 24 26  2  0
 26 27  1  0
 27 28  2  0
 11  7  1  0
 17 12  1  0
 28 18  1  0
 27 21  1  0
  3 29  1  0
  4 30  1  0
  4 31  1  0
  8 32  1  0
  8 33  1  0
  9 34  1  0
  9 35  1  0
 10 36  1  0
 10 37  1  0
 11 38  1  6
 13 39  1  0
 14 40  1  0
 15 41  1  0
 16 42  1  0
 17 43  1  0
 19 44  1  0
 20 45  1  0
 22 46  1  0
 23 47  1  0
 26 48  1  0
M  END
>  <smiles>  (6) 
O=C(NCC(=O)N1CCC[C@H]1c1ccccc1)c1ccc2ccc(Cl)cc2n1

>  <score_type>  (6) 
oracle

>  <origin>  (6) 
autodockgpu

>  <m_score__min__energy>  (6) 
-8.4600000000000009

>  <m_primary>  (6) 
energy

>  <rmsd>  (6) 
2.2522786841132336

>  <m_score__min__rmsd>  (6) 
2.2522786841132336

>  <meeko>  (6) 
{"free_energy": -8.17, "intermolecular_energy": -9.66, "internal_energy": -1.32, "cluster_size": 9, "cluster_id": 3, "rank_in_cluster": 3}

>  <energy>  (6) 
-8.26

>  <cluster_rmsd>  (6) 
0.52

>  <cluster>  (6) 
1

$$$$

     RDKit          3D

 48 51  0  0  0  0  0  0  0  0999 V2000
  141.6060   73.0550  221.6470 O   0  0  0  0  0  0  0  0  0  0  0  0
  140.5360   73.0160  222.2990 C   0  0  0  0  0  0  0  0  0  0  0  0
  139.7780   74.2550  222.3060 N   0  0  0  0  0  0  0  0  0  0  0  0
  140.3540   75.3410  221.5750 C   0  0  0  0  0  0  0  0  0  0  0  0
  139.7070   76.6400  221.6170 C   0  0  0  0  0  0  0  0  0  0  0  0
  138.4440   76.6080  221.2900 O   0  0  0  0  0  0  0  0  0  0  0  0
  140.1950   77.9090  221.9460 N   0  0  0  0  0  0  0  0  0  0  0  0
  139.9250   78.7780  223.1090 C   0  0  0  0  0  0  0  0  0  0  0  0
  141.3300   79.0610  223.5460 C   0  0  0  0  0  0  0  0  0  0  0  0
  142.1690   79.0470  222.2930 C   0  0  0  0  0  0  0  0  0  0  0  0
  141.1680   78.7260  221.2000 C   0  0  1  0  0  0  0  0  0  0  0  0
  141.8030   78.0580  220.0670 C   0  0  0  0  0  0  0  0  0  0  0  0
  142.5930   76.9470  220.1110 C   0  0  0  0  0  0  0  0  0  0  0  0
  143.1690   76.3520  219.0090 C   0  0  0  0  0  0  0  0  0  0  0  0
  142.9430   76.9020  217.7620 C   0  0  0  0  0  0  0  0  0  0  0  0
  142.1470   78.0310  217.6710 C   0  0  0  0  0  0  0  0  0  0  0  0
  141.5820   78.6080  218.7950 C   0  0  0  0  0  0  0  0  0  0  0  0
  140.0580   71.8360  223.0090 C   0  0  0  0  0  0  0  0  0  0  0  0
  139.0680   71.0990  222.4000 C   0  0  0  0  0  0  0  0  0  0  0  0
  138.6270   69.9720  223.1030 C   0  0  0  0  0  0  0  0  0  0  0  0
  139.1710   69.6390  224.3380 C   0  0  0  0  0  0  0  0  0  0  0  0
  138.7420   68.5230  225.0480 C   0  0  0  0  0  0  0  0  0  0  0  0
  139.2970   68.2030  226.2820 C   0  0  0  0  0  0  0  0  0  0  0  0
  140.2910   69.0170  226.8050 C   0  0  0  0  0  0  0  0  0  0  0  0
  141.0350   68.6650  228.3700 Cl  0  0  0  0  0  0  0  0  0  0  0  0
  140.7360   70.1300  226.1260 C   0  0  0  0  0  0  0  0  0  0  0  0
  140.1720   70.4320  224.8950 C   0  0  0  0  0  0  0  0  0  0  0  0
  140.5770   71.5050  224.2050 N   0  0  0  0  0  0  0  0  0  0  0  0
  138.8760   74.2860  222.8300 H   0  0  0  0  0  0  0  0  0  0  0  0
  141.3772   75.4782  221.9547 H   0  0  0  0  0  0  0  0  0  0  0  0
  140.2568   75.0320  220.5238 H   0  0  0  0  0  0  0  0  0  0  0  0
  139.3937   79.6965  222.8190 H   0  0  0  0  0  0  0  0  0  0  0  0
  139.2775   78.3358  223.8804 H   0  0  0  0  0  0  0  0  0  0  0  0
  141.3873   80.0458  224.0327 H   0  0  0  0  0  0  0  0  0  0  0  0
  141.6823   78.3151  224.2737 H   0  0  0  0  0  0  0  0  0  0  0  0
  142.6367   80.0278  222.1221 H   0  0  0  0  0  0  0  0  0  0  0  0
  142.9977   78.3251  222.3404 H   0  0  0  0  0  0  0  0  0  0  0  0
  140.6977   79.5921  220.7115 H   0  0  0  0  0  0  0  0  0  0  0  0
  142.7839   76.4940  221.0950 H   0  0  0  0  0  0  0  0  0  0  0  0
  143.7970   75.4558  219.1205 H   0  0  0  0  0  0  0  0  0  0  0  0
  143.3859   76.4526  216.8610 H   0  0  0  0  0  0  0  0  0  0  0  0
  141.9595   78.4792  216.6841 H   0  0  0  0  0  0  0  0  0  0  0  0
  140.9544   79.5053  218.6904 H   0  0  0  0  0  0  0  0  0  0  0  0
  138.6495   71.3783  221.4218 H   0  0  0  0  0  0  0  0  0  0  0  0
  137.8372   69.3396  222.6713 H   0  0  0  0  0  0  0  0  0  0  0  0
  137.9518   67.8839  224.6271 H   0  0  0  0  0  0  0  0  0  0  0  0
  138.9528   67.3170  226.8356 H   0  0  0  0  0  0  0  0  0  0  0  0
  141.5244   70.7678  226.5523 H   0  0  0  0  0  0  0  0  0  0  0  0
  1  2  2  0
  2  3  1  0
  3  4  1  0
  4  5  1  0
  5  6  2  0
  5  7  1  0
  7  8  1  0
  8  9  1  0
  9 10  1  0
 10 11  1  0
 11 12  1  0
 12 13  2  0
 13 14  1  0
 14 15  2  0
 15 16  1  0
 16 17  2  0
  2 18  1  0
 18 19  2  0
 19 20  1  0
 20 21  2  0
 21 22  1  0
 22 23  2  0
 23 24  1  0
 24 25  1  0
 24 26  2  0
 26 27  1  0
 27 28  2  0
 11  7  1  0
 17 12  1  0
 28 18  1  0
 27 21  1  0
  3 29  1  0
  4 30  1  0
  4 31  1  0
  8 32  1  0
  8 33  1  0
  9 34  1  0
  9 35  1  0
 10 36  1  0
 10 37  1  0
 11 38  1  6
 13 39  1  0
 14 40  1  0
 15 41  1  0
 16 42  1  0
 17 43  1  0
 19 44  1  0
 20 45  1  0
 22 46  1  0
 23 47  1  0
 26 48  1  0
M  END
>  <smiles>  (7) 
O=C(NCC(=O)N1CCC[C@H]1c1ccccc1)c1ccc2ccc(Cl)cc2n1

>  <score_type>  (7) 
oracle

>  <origin>  (7) 
autodockgpu

>  <m_score__min__energy>  (7) 
-8.4600000000000009

>  <m_primary>  (7) 
energy

>  <rmsd>  (7) 
3.654264410649226

>  <m_score__min__rmsd>  (7) 
3.654264410649226

>  <meeko>  (7) 
{"free_energy": -8.06, "intermolecular_energy": -9.56, "internal_energy": -1.25, "cluster_size": 1, "cluster_id": 4, "rank_in_cluster": 1}

>  <energy>  (7) 
-8.24

>  <cluster_rmsd>  (7) 
0.54

>  <cluster>  (7) 
1

$$$$

     RDKit          3D

 48 51  0  0  0  0  0  0  0  0999 V2000
  141.5370   72.5230  220.9420 O   0  0  0  0  0  0  0  0  0  0  0  0
  140.9550   73.4380  221.5710 C   0  0  0  0  0  0  0  0  0  0  0  0
  140.0200   72.9840  222.5860 N   0  0  0  0  0  0  0  0  0  0  0  0
  139.8940   71.5660  222.7240 C   0  0  0  0  0  0  0  0  0  0  0  0
  138.7190   71.0250  223.3850 C   0  0  0  0  0  0  0  0  0  0  0  0
  137.7600   71.8950  223.5450 O   0  0  0  0  0  0  0  0  0  0  0  0
  138.4360   69.7450  223.8740 N   0  0  0  0  0  0  0  0  0  0  0  0
  137.7960   68.5820  223.2270 C   0  0  0  0  0  0  0  0  0  0  0  0
  138.8280   67.5330  223.5110 C   0  0  0  0  0  0  0  0  0  0  0  0
  139.4590   67.9130  224.8270 C   0  0  0  0  0  0  0  0  0  0  0  0
  138.7450   69.1960  225.2060 C   0  0  1  0  0  0  0  0  0  0  0  0
  139.5790   70.0470  226.0510 C   0  0  0  0  0  0  0  0  0  0  0  0
  140.5730   70.8850  225.6410 C   0  0  0  0  0  0  0  0  0  0  0  0
  141.3320   71.6710  226.4810 C   0  0  0  0  0  0  0  0  0  0  0  0
  141.0850   71.6230  227.8390 C   0  0  0  0  0  0  0  0  0  0  0  0
  140.0840   70.7850  228.3010 C   0  0  0  0  0  0  0  0  0  0  0  0
  139.3370   70.0060  227.4330 C   0  0  0  0  0  0  0  0  0  0  0  0
  141.1730   74.8590  221.3290 C   0  0  0  0  0  0  0  0  0  0  0  0
  142.0140   75.1950  220.2940 C   0  0  0  0  0  0  0  0  0  0  0  0
  142.2060   76.5650  220.0840 C   0  0  0  0  0  0  0  0  0  0  0  0
  141.5740   77.5090  220.8850 C   0  0  0  0  0  0  0  0  0  0  0  0
  141.7560   78.8730  220.6890 C   0  0  0  0  0  0  0  0  0  0  0  0
  141.1170   79.8040  221.5000 C   0  0  0  0  0  0  0  0  0  0  0  0
  140.2880   79.3550  222.5180 C   0  0  0  0  0  0  0  0  0  0  0  0
  139.4480   80.4890  223.5830 Cl  0  0  0  0  0  0  0  0  0  0  0  0
  140.0890   78.0100  222.7370 C   0  0  0  0  0  0  0  0  0  0  0  0
  140.7340   77.0960  221.9180 C   0  0  0  0  0  0  0  0  0  0  0  0
  140.5660   75.7800  222.1000 N   0  0  0  0  0  0  0  0  0  0  0  0
  139.5050   73.6970  223.1460 H   0  0  0  0  0  0  0  0  0  0  0  0
  139.9185   71.1399  221.7102 H   0  0  0  0  0  0  0  0  0  0  0  0
  140.7232   71.2910  223.3925 H   0  0  0  0  0  0  0  0  0  0  0  0
  136.8275   68.3387  223.6884 H   0  0  0  0  0  0  0  0  0  0  0  0
  137.5506   68.7177  222.1633 H   0  0  0  0  0  0  0  0  0  0  0  0
  138.3552   66.5427  223.5861 H   0  0  0  0  0  0  0  0  0  0  0  0
  139.5769   67.4778  222.7072 H   0  0  0  0  0  0  0  0  0  0  0  0
  139.2915   67.1319  225.5832 H   0  0  0  0  0  0  0  0  0  0  0  0
  140.5502   68.0345  224.7591 H   0  0  0  0  0  0  0  0  0  0  0  0
  137.8455   69.0781  225.8281 H   0  0  0  0  0  0  0  0  0  0  0  0
  140.7844   70.9376  224.5628 H   0  0  0  0  0  0  0  0  0  0  0  0
  142.1197   72.3242  226.0774 H   0  0  0  0  0  0  0  0  0  0  0  0
  141.6709   72.2373  228.5386 H   0  0  0  0  0  0  0  0  0  0  0  0
  139.8777   70.7370  229.3804 H   0  0  0  0  0  0  0  0  0  0  0  0
  138.5480   69.3501  227.8297 H   0  0  0  0  0  0  0  0  0  0  0  0
  142.5053   74.4339  219.6700 H   0  0  0  0  0  0  0  0  0  0  0  0
  142.8678   76.9004  219.2719 H   0  0  0  0  0  0  0  0  0  0  0  0
  142.4154   79.2210  219.8802 H   0  0  0  0  0  0  0  0  0  0  0  0
  141.2666   80.8815  221.3369 H   0  0  0  0  0  0  0  0  0  0  0  0
  139.4296   77.6668  223.5478 H   0  0  0  0  0  0  0  0  0  0  0  0
  1  2  2  0
  2  3  1  0
  3  4  1  0
  4  5  1  0
  5  6  2  0
  5  7  1  0
  7  8  1  0
  8  9  1  0
  9 10  1  0
 10 11  1  0
 11 12  1  0
 12 13  2  0
 13 14  1  0
 14 15  2  0
 15 16  1  0
 16 17  2  0
  2 18  1  0
 18 19  2  0
 19 20  1  0
 20 21  2  0
 21 22  1  0
 22 23  2  0
 23 24  1  0
 24 25  1  0
 24 26  2  0
 26 27  1  0
 27 28  2  0
 11  7  1  0
 17 12  1  0
 28 18  1  0
 27 21  1  0
  3 29  1  0
  4 30  1  0
  4 31  1  0
  8 32  1  0
  8 33  1  0
  9 34  1  0
  9 35  1  0
 10 36  1  0
 10 37  1  0
 11 38  1  1
 13 39  1  0
 14 40  1  0
 15 41  1  0
 16 42  1  0
 17 43  1  0
 19 44  1  0
 20 45  1  0
 22 46  1  0
 23 47  1  0
 26 48  1  0
M  END
>  <smiles>  (8) 
O=C(NCC(=O)N1CCC[C@H]1c1ccccc1)c1ccc2ccc(Cl)cc2n1

>  <score_type>  (8) 
oracle

>  <origin>  (8) 
autodockgpu

>  <m_score__min__energy>  (8) 
-8.4600000000000009

>  <m_primary>  (8) 
energy

>  <rmsd>  (8) 
8.480395751276001

>  <m_score__min__rmsd>  (8) 
8.480395751276001

>  <meeko>  (8) 
{"free_energy": -8.32, "intermolecular_energy": -9.81, "internal_energy": -1.44, "cluster_size": 15, "cluster_id": 2, "rank_in_cluster": 1}

>  <energy>  (8) 
-8.21

>  <cluster_rmsd>  (8) 
1.18

>  <cluster>  (8) 
1

$$$$

     RDKit          3D

 48 51  0  0  0  0  0  0  0  0999 V2000
  141.6120   72.3680  221.0120 O   0  0  0  0  0  0  0  0  0  0  0  0
  140.9830   73.2910  221.5810 C   0  0  0  0  0  0  0  0  0  0  0  0
  139.9940   72.8510  222.5500 N   0  0  0  0  0  0  0  0  0  0  0  0
  139.8750   71.4350  222.7170 C   0  0  0  0  0  0  0  0  0  0  0  0
  138.6010   70.8800  223.1370 C   0  0  0  0  0  0  0  0  0  0  0  0
  137.7650   71.7730  223.5930 O   0  0  0  0  0  0  0  0  0  0  0  0
  138.1150   69.5690  223.1380 N   0  0  0  0  0  0  0  0  0  0  0  0
  137.3360   68.8250  222.1280 C   0  0  0  0  0  0  0  0  0  0  0  0
  138.1910   67.6010  221.9970 C   0  0  0  0  0  0  0  0  0  0  0  0
  138.8210   67.3850  223.3500 C   0  0  0  0  0  0  0  0  0  0  0  0
  138.2890   68.5390  224.1780 C   0  0  1  0  0  0  0  0  0  0  0  0
  139.2060   68.8950  225.2580 C   0  0  0  0  0  0  0  0  0  0  0  0
  139.3800   70.1290  225.8100 C   0  0  0  0  0  0  0  0  0  0  0  0
  140.2600   70.4130  226.8320 C   0  0  0  0  0  0  0  0  0  0  0  0
  141.0290   69.3890  227.3510 C   0  0  0  0  0  0  0  0  0  0  0  0
  140.8840   68.1190  226.8200 C   0  0  0  0  0  0  0  0  0  0  0  0
  139.9920   67.8630  225.7930 C   0  0  0  0  0  0  0  0  0  0  0  0
  141.1990   74.7080  221.3170 C   0  0  0  0  0  0  0  0  0  0  0  0
  142.0200   75.0280  220.2600 C   0  0  0  0  0  0  0  0  0  0  0  0
  142.2110   76.3950  220.0280 C   0  0  0  0  0  0  0  0  0  0  0  0
  141.5980   77.3510  220.8300 C   0  0  0  0  0  0  0  0  0  0  0  0
  141.7790   78.7120  220.6120 C   0  0  0  0  0  0  0  0  0  0  0  0
  141.1580   79.6550  221.4230 C   0  0  0  0  0  0  0  0  0  0  0  0
  140.3500   79.2220  222.4640 C   0  0  0  0  0  0  0  0  0  0  0  0
  139.5340   80.3710  223.5300 Cl  0  0  0  0  0  0  0  0  0  0  0  0
  140.1520   77.8800  222.7050 C   0  0  0  0  0  0  0  0  0  0  0  0
  140.7780   76.9530  221.8840 C   0  0  0  0  0  0  0  0  0  0  0  0
  140.6110   75.6410  222.0870 N   0  0  0  0  0  0  0  0  0  0  0  0
  139.4380   73.5710  223.0600 H   0  0  0  0  0  0  0  0  0  0  0  0
  140.1239   70.9744  221.7496 H   0  0  0  0  0  0  0  0  0  0  0  0
  140.5497   71.2110  223.5564 H   0  0  0  0  0  0  0  0  0  0  0  0
  136.3257   68.5816  222.4886 H   0  0  0  0  0  0  0  0  0  0  0  0
  137.1536   69.3677  221.1888 H   0  0  0  0  0  0  0  0  0  0  0  0
  137.5751   66.7329  221.7195 H   0  0  0  0  0  0  0  0  0  0  0  0
  138.9532   67.7249  221.2136 H   0  0  0  0  0  0  0  0  0  0  0  0
  138.5125   66.4196  223.7775 H   0  0  0  0  0  0  0  0  0  0  0  0
  139.9200   67.3573  223.3108 H   0  0  0  0  0  0  0  0  0  0  0  0
  137.3589   68.3427  224.7316 H   0  0  0  0  0  0  0  0  0  0  0  0
  138.7752   70.9569  225.4116 H   0  0  0  0  0  0  0  0  0  0  0  0
  140.3485   71.4358  227.2271 H   0  0  0  0  0  0  0  0  0  0  0  0
  141.7406   69.5789  228.1680 H   0  0  0  0  0  0  0  0  0  0  0  0
  141.4910   67.2950  227.2231 H   0  0  0  0  0  0  0  0  0  0  0  0
  139.8986   66.8425  225.3931 H   0  0  0  0  0  0  0  0  0  0  0  0
  142.4965   74.2574  219.6362 H   0  0  0  0  0  0  0  0  0  0  0  0
  142.8564   76.7181  219.1979 H   0  0  0  0  0  0  0  0  0  0  0  0
  142.4230   79.0476  219.7858 H   0  0  0  0  0  0  0  0  0  0  0  0
  141.3054   80.7299  221.2417 H   0  0  0  0  0  0  0  0  0  0  0  0
  139.5088   77.5492  223.5338 H   0  0  0  0  0  0  0  0  0  0  0  0
  1  2  2  0
  2  3  1  0
  3  4  1  0
  4  5  1  0
  5  6  2  0
  5  7  1  0
  7  8  1  0
  8  9  1  0
  9 10  1  0
 10 11  1  0
 11 12  1  0
 12 13  2  0
 13 14  1  0
 14 15  2  0
 15 16  1  0
 16 17  2  0
  2 18  1  0
 18 19  2  0
 19 20  1  0
 20 21  2  0
 21 22  1  0
 22 23  2  0
 23 24  1  0
 24 25  1  0
 24 26  2  0
 26 27  1  0
 27 28  2  0
 11  7  1  0
 17 12  1  0
 28 18  1  0
 27 21  1  0
  3 29  1  0
  4 30  1  0
  4 31  1  0
  8 32  1  0
  8 33  1  0
  9 34  1  0
  9 35  1  0
 10 36  1  0
 10 37  1  0
 11 38  1  1
 13 39  1  0
 14 40  1  0
 15 41  1  0
 16 42  1  0
 17 43  1  0
 19 44  1  0
 20 45  1  0
 22 46  1  0
 23 47  1  0
 26 48  1  0
M  END
>  <smiles>  (9) 
O=C(NCC(=O)N1CCC[C@H]1c1ccccc1)c1ccc2ccc(Cl)cc2n1

>  <score_type>  (9) 
oracle

>  <origin>  (9) 
autodockgpu

>  <m_score__min__energy>  (9) 
-8.4600000000000009

>  <m_primary>  (9) 
energy

>  <rmsd>  (9) 
8.322207650684446

>  <m_score__min__rmsd>  (9) 
8.322207650684446

>  <meeko>  (9) 
{"free_energy": -7.75, "intermolecular_energy": -9.24, "internal_energy": -1.44, "cluster_size": 15, "cluster_id": 2, "rank_in_cluster": 14}

>  <energy>  (9) 
-7.83

>  <cluster_rmsd>  (9) 
1.0

>  <cluster>  (9) 
1

$$$$

     RDKit          3D

 48 51  0  0  0  0  0  0  0  0999 V2000
  140.3340   73.6270  222.3250 O   0  0  0  0  0  0  0  0  0  0  0  0
  140.1370   74.6170  221.5820 C   0  0  0  0  0  0  0  0  0  0  0  0
  140.2730   74.3530  220.1600 N   0  0  0  0  0  0  0  0  0  0  0  0
  140.6120   73.0080  219.8080 C   0  0  0  0  0  0  0  0  0  0  0  0
  141.9730   72.7100  219.3990 C   0  0  0  0  0  0  0  0  0  0  0  0
  142.0620   72.2130  218.1950 O   0  0  0  0  0  0  0  0  0  0  0  0
  143.1960   72.8620  220.0610 N   0  0  0  0  0  0  0  0  0  0  0  0
  144.0370   71.8830  220.7770 C   0  0  0  0  0  0  0  0  0  0  0  0
  145.3490   72.1250  220.0930 C   0  0  0  0  0  0  0  0  0  0  0  0
  145.3570   73.5840  219.7100 C   0  0  0  0  0  0  0  0  0  0  0  0
  144.0080   74.0850  220.1910 C   0  0  1  0  0  0  0  0  0  0  0  0
  143.5460   75.2260  219.4050 C   0  0  0  0  0  0  0  0  0  0  0  0
  143.6930   75.4070  218.0620 C   0  0  0  0  0  0  0  0  0  0  0  0
  143.2360   76.5050  217.3650 C   0  0  0  0  0  0  0  0  0  0  0  0
  142.5780   77.5040  218.0550 C   0  0  0  0  0  0  0  0  0  0  0  0
  142.4060   77.3620  219.4220 C   0  0  0  0  0  0  0  0  0  0  0  0
  142.8770   76.2470  220.0960 C   0  0  0  0  0  0  0  0  0  0  0  0
  139.7970   75.9470  222.0720 C   0  0  0  0  0  0  0  0  0  0  0  0
  138.4590   76.2390  222.2080 C   0  0  0  0  0  0  0  0  0  0  0  0
  138.1590   77.5230  222.6800 C   0  0  0  0  0  0  0  0  0  0  0  0
  139.1690   78.4280  222.9840 C   0  0  0  0  0  0  0  0  0  0  0  0
  138.8870   79.7060  223.4520 C   0  0  0  0  0  0  0  0  0  0  0  0
  139.9090   80.6000  223.7530 C   0  0  0  0  0  0  0  0  0  0  0  0
  141.2260   80.2010  223.5780 C   0  0  0  0  0  0  0  0  0  0  0  0
  142.5690   81.2920  223.9410 Cl  0  0  0  0  0  0  0  0  0  0  0  0
  141.5360   78.9420  223.1150 C   0  0  0  0  0  0  0  0  0  0  0  0
  140.5040   78.0630  222.8210 C   0  0  0  0  0  0  0  0  0  0  0  0
  140.7660   76.8310  222.3690 N   0  0  0  0  0  0  0  0  0  0  0  0
  140.1190   75.1360  219.4890 H   0  0  0  0  0  0  0  0  0  0  0  0
  140.3940   72.3805  220.6847 H   0  0  0  0  0  0  0  0  0  0  0  0
  140.0159   72.8132  218.9043 H   0  0  0  0  0  0  0  0  0  0  0  0
  144.0909   72.1003  221.8540 H   0  0  0  0  0  0  0  0  0  0  0  0
  143.6770   70.8443  220.7387 H   0  0  0  0  0  0  0  0  0  0  0  0
  146.1824   71.9049  220.7764 H   0  0  0  0  0  0  0  0  0  0  0  0
  145.4690   71.4772  219.2121 H   0  0  0  0  0  0  0  0  0  0  0  0
  146.1767   74.1179  220.2131 H   0  0  0  0  0  0  0  0  0  0  0  0
  145.5133   73.7429  218.6328 H   0  0  0  0  0  0  0  0  0  0  0  0
  143.9844   74.4948  221.2115 H   0  0  0  0  0  0  0  0  0  0  0  0
  144.2130   74.6214  217.4943 H   0  0  0  0  0  0  0  0  0  0  0  0
  143.3926   76.5840  216.2791 H   0  0  0  0  0  0  0  0  0  0  0  0
  142.1987   78.3933  217.5303 H   0  0  0  0  0  0  0  0  0  0  0  0
  141.8847   78.1508  219.9841 H   0  0  0  0  0  0  0  0  0  0  0  0
  142.7251   76.1617  221.1821 H   0  0  0  0  0  0  0  0  0  0  0  0
  137.6739   75.5092  221.9613 H   0  0  0  0  0  0  0  0  0  0  0  0
  137.1080   77.8197  222.8121 H   0  0  0  0  0  0  0  0  0  0  0  0
  137.8399   80.0150  223.5863 H   0  0  0  0  0  0  0  0  0  0  0  0
  139.6763   81.6089  224.1245 H   0  0  0  0  0  0  0  0  0  0  0  0
  142.5846   78.6382  222.9805 H   0  0  0  0  0  0  0  0  0  0  0  0
  1  2  2  0
  2  3  1  0
  3  4  1  0
  4  5  1  0
  5  6  2  0
  5  7  1  0
  7  8  1  0
  8  9  1  0
  9 10  1  0
 10 11  1  0
 11 12  1  0
 12 13  2  0
 13 14  1  0
 14 15  2  0
 15 16  1  0
 16 17  2  0
  2 18  1  0
 18 19  2  0
 19 20  1  0
 20 21  2  0
 21 22  1  0
 22 23  2  0
 23 24  1  0
 24 25  1  0
 24 26  2  0
 26 27  1  0
 27 28  2  0
 11  7  1  0
 17 12  1  0
 28 18  1  0
 27 21  1  0
  3 29  1  0
  4 30  1  0
  4 31  1  0
  8 32  1  0
  8 33  1  0
  9 34  1  0
  9 35  1  0
 10 36  1  0
 10 37  1  0
 11 38  1  1
 13 39  1  0
 14 40  1  0
 15 41  1  0
 16 42  1  0
 17 43  1  0
 19 44  1  0
 20 45  1  0
 22 46  1  0
 23 47  1  0
 26 48  1  0
M  END
>  <smiles>  (10) 
O=C(NCC(=O)N1CCC[C@H]1c1ccccc1)c1ccc2ccc(Cl)cc2n1

>  <score_type>  (10) 
oracle

>  <origin>  (10) 
autodockgpu

>  <m_score__min__energy>  (10) 
-8.4600000000000009

>  <m_primary>  (10) 
energy

>  <rmsd>  (10) 
7.073311351361577

>  <m_score__min__rmsd>  (10) 
7.073311351361577

>  <meeko>  (10) 
{"free_energy": -7.12, "intermolecular_energy": -8.61, "internal_energy": -2.15, "cluster_size": 6, "cluster_id": 9, "rank_in_cluster": 3}

>  <energy>  (10) 
-8.32

>  <cluster_rmsd>  (10) 
0.0

>  <cluster>  (10) 
2

$$$$

     RDKit          3D

 48 51  0  0  0  0  0  0  0  0999 V2000
  140.7190   73.9320  220.5320 O   0  0  0  0  0  0  0  0  0  0  0  0
  140.1950   74.2750  221.6170 C   0  0  0  0  0  0  0  0  0  0  0  0
  139.8690   73.1790  222.5130 N   0  0  0  0  0  0  0  0  0  0  0  0
  140.1880   71.8690  222.0340 C   0  0  0  0  0  0  0  0  0  0  0  0
  139.3640   70.7480  222.4490 C   0  0  0  0  0  0  0  0  0  0  0  0
  139.8190   69.5890  222.0570 O   0  0  0  0  0  0  0  0  0  0  0  0
  138.1790   70.6910  223.1910 N   0  0  0  0  0  0  0  0  0  0  0  0
  136.7800   70.9580  222.8030 C   0  0  0  0  0  0  0  0  0  0  0  0
  136.1370   69.6910  223.2810 C   0  0  0  0  0  0  0  0  0  0  0  0
  136.9310   69.2470  224.4840 C   0  0  0  0  0  0  0  0  0  0  0  0
  138.0140   70.3030  224.6030 C   0  0  1  0  0  0  0  0  0  0  0  0
  139.2140   69.7730  225.2480 C   0  0  0  0  0  0  0  0  0  0  0  0
  140.3370   70.4690  225.5820 C   0  0  0  0  0  0  0  0  0  0  0  0
  141.4440   69.9200  226.1930 C   0  0  0  0  0  0  0  0  0  0  0  0
  141.4380   68.5730  226.4970 C   0  0  0  0  0  0  0  0  0  0  0  0
  140.3160   67.8270  226.1740 C   0  0  0  0  0  0  0  0  0  0  0  0
  139.2180   68.4050  225.5610 C   0  0  0  0  0  0  0  0  0  0  0  0
  139.9190   75.6570  221.9870 C   0  0  0  0  0  0  0  0  0  0  0  0
  138.6050   76.0630  221.9520 C   0  0  0  0  0  0  0  0  0  0  0  0
  138.3670   77.3950  222.3110 C   0  0  0  0  0  0  0  0  0  0  0  0
  139.4110   78.2360  222.6790 C   0  0  0  0  0  0  0  0  0  0  0  0
  139.1900   79.5600  223.0370 C   0  0  0  0  0  0  0  0  0  0  0  0
  140.2460   80.3880  223.4020 C   0  0  0  0  0  0  0  0  0  0  0  0
  141.5350   79.8760  223.4030 C   0  0  0  0  0  0  0  0  0  0  0  0
  142.9190   80.8780  223.8560 Cl  0  0  0  0  0  0  0  0  0  0  0  0
  141.7850   78.5680  223.0510 C   0  0  0  0  0  0  0  0  0  0  0  0
  140.7200   77.7560  222.6920 C   0  0  0  0  0  0  0  0  0  0  0  0
  140.9220   76.4800  222.3440 N   0  0  0  0  0  0  0  0  0  0  0  0
  139.4330   73.3990  223.4340 H   0  0  0  0  0  0  0  0  0  0  0  0
  140.1484   71.9089  220.9354 H   0  0  0  0  0  0  0  0  0  0  0  0
  141.1693   71.6556  222.4829 H   0  0  0  0  0  0  0  0  0  0  0  0
  136.3744   71.8419  223.3170 H   0  0  0  0  0  0  0  0  0  0  0  0
  136.6275   71.1841  221.7373 H   0  0  0  0  0  0  0  0  0  0  0  0
  135.0899   69.8768  223.5621 H   0  0  0  0  0  0  0  0  0  0  0  0
  136.1333   68.9210  222.4954 H   0  0  0  0  0  0  0  0  0  0  0  0
  136.3008   69.2268  225.3854 H   0  0  0  0  0  0  0  0  0  0  0  0
  137.3347   68.2292  224.3790 H   0  0  0  0  0  0  0  0  0  0  0  0
  137.7771   71.1629  225.2468 H   0  0  0  0  0  0  0  0  0  0  0  0
  140.3618   71.5435  225.3478 H   0  0  0  0  0  0  0  0  0  0  0  0
  142.3171   70.5441  226.4342 H   0  0  0  0  0  0  0  0  0  0  0  0
  142.3046   68.1028  226.9847 H   0  0  0  0  0  0  0  0  0  0  0  0
  140.2975   66.7527  226.4097 H   0  0  0  0  0  0  0  0  0  0  0  0
  138.3413   67.7870  225.3171 H   0  0  0  0  0  0  0  0  0  0  0  0
  137.7914   75.3828  221.6599 H   0  0  0  0  0  0  0  0  0  0  0  0
  137.3375   77.7824  222.3018 H   0  0  0  0  0  0  0  0  0  0  0  0
  138.1650   79.9591  223.0317 H   0  0  0  0  0  0  0  0  0  0  0  0
  140.0615   81.4346  223.6860 H   0  0  0  0  0  0  0  0  0  0  0  0
  142.8121   78.1743  223.0546 H   0  0  0  0  0  0  0  0  0  0  0  0
  1  2  2  0
  2  3  1  0
  3  4  1  0
  4  5  1  0
  5  6  2  0
  5  7  1  0
  7  8  1  0
  8  9  1  0
  9 10  1  0
 10 11  1  0
 11 12  1  0
 12 13  2  0
 13 14  1  0
 14 15  2  0
 15 16  1  0
 16 17  2  0
  2 18  1  0
 18 19  2  0
 19 20  1  0
 20 21  2  0
 21 22  1  0
 22 23  2  0
 23 24  1  0
 24 25  1  0
 24 26  2  0
 26 27  1  0
 27 28  2  0
 11  7  1  0
 17 12  1  0
 28 18  1  0
 27 21  1  0
  3 29  1  0
  4 30  1  0
  4 31  1  0
  8 32  1  0
  8 33  1  0
  9 34  1  0
  9 35  1  0
 10 36  1  0
 10 37  1  0
 11 38  1  1
 13 39  1  0
 14 40  1  0
 15 41  1  0
 16 42  1  0
 17 43  1  0
 19 44  1  0
 20 45  1  0
 22 46  1  0
 23 47  1  0
 26 48  1  0
M  END
>  <smiles>  (11) 
O=C(NCC(=O)N1CCC[C@H]1c1ccccc1)c1ccc2ccc(Cl)cc2n1

>  <score_type>  (11) 
oracle

>  <origin>  (11) 
autodockgpu

>  <m_score__min__energy>  (11) 
-8.4600000000000009

>  <m_primary>  (11) 
energy

>  <rmsd>  (11) 
7.994758564335919

>  <m_score__min__rmsd>  (11) 
7.994758564335919

>  <meeko>  (11) 
{"free_energy": -8.11, "intermolecular_energy": -9.6, "internal_energy": -1.29, "cluster_size": 15, "cluster_id": 2, "rank_in_cluster": 6}

>  <energy>  (11) 
-8.27

>  <cluster_rmsd>  (11) 
0.42

>  <cluster>  (11) 
2

$$$$

     RDKit          3D

 48 51  0  0  0  0  0  0  0  0999 V2000
  140.6990   73.8190  222.2940 O   0  0  0  0  0  0  0  0  0  0  0  0
  140.2770   74.7480  221.5670 C   0  0  0  0  0  0  0  0  0  0  0  0
  140.1700   74.4210  220.1560 N   0  0  0  0  0  0  0  0  0  0  0  0
  140.5620   73.0940  219.7940 C   0  0  0  0  0  0  0  0  0  0  0  0
  141.9370   72.8480  219.4000 C   0  0  0  0  0  0  0  0  0  0  0  0
  142.0600   72.3890  218.1840 O   0  0  0  0  0  0  0  0  0  0  0  0
  143.1440   73.0160  220.0860 N   0  0  0  0  0  0  0  0  0  0  0  0
  143.9780   72.0500  220.8280 C   0  0  0  0  0  0  0  0  0  0  0  0
  145.3020   72.2990  220.1700 C   0  0  0  0  0  0  0  0  0  0  0  0
  145.3050   73.7550  219.7760 C   0  0  0  0  0  0  0  0  0  0  0  0
  143.9420   74.2470  220.2240 C   0  0  1  0  0  0  0  0  0  0  0  0
  143.4870   75.3780  219.4190 C   0  0  0  0  0  0  0  0  0  0  0  0
  143.6770   75.5590  218.0810 C   0  0  0  0  0  0  0  0  0  0  0  0
  143.2240   76.6470  217.3660 C   0  0  0  0  0  0  0  0  0  0  0  0
  142.5250   77.6350  218.0310 C   0  0  0  0  0  0  0  0  0  0  0  0
  142.3080   77.4920  219.3910 C   0  0  0  0  0  0  0  0  0  0  0  0
  142.7750   76.3880  220.0830 C   0  0  0  0  0  0  0  0  0  0  0  0
  139.9110   76.0690  222.0640 C   0  0  0  0  0  0  0  0  0  0  0  0
  138.5680   76.3620  222.1320 C   0  0  0  0  0  0  0  0  0  0  0  0
  138.2440   77.6360  222.6110 C   0  0  0  0  0  0  0  0  0  0  0  0
  139.2360   78.5330  222.9900 C   0  0  0  0  0  0  0  0  0  0  0  0
  138.9300   79.8020  223.4670 C   0  0  0  0  0  0  0  0  0  0  0  0
  139.9350   80.6870  223.8410 C   0  0  0  0  0  0  0  0  0  0  0  0
  141.2590   80.2890  223.7320 C   0  0  0  0  0  0  0  0  0  0  0  0
  142.5810   81.3690  224.1910 Cl  0  0  0  0  0  0  0  0  0  0  0  0
  141.5930   79.0390  223.2610 C   0  0  0  0  0  0  0  0  0  0  0  0
  140.5780   78.1680  222.8940 C   0  0  0  0  0  0  0  0  0  0  0  0
  140.8630   76.9450  222.4320 N   0  0  0  0  0  0  0  0  0  0  0  0
  139.8230   75.1520  219.4980 H   0  0  0  0  0  0  0  0  0  0  0  0
  140.3551   72.4493  220.6609 H   0  0  0  0  0  0  0  0  0  0  0  0
  139.9856   72.8895  218.8797 H   0  0  0  0  0  0  0  0  0  0  0  0
  144.0069   72.2762  221.9041 H   0  0  0  0  0  0  0  0  0  0  0  0
  143.6282   71.0078  220.7906 H   0  0  0  0  0  0  0  0  0  0  0  0
  146.1226   72.0918  220.8726 H   0  0  0  0  0  0  0  0  0  0  0  0
  145.4464   71.6457  219.2969 H   0  0  0  0  0  0  0  0  0  0  0  0
  146.1088   74.3002  220.2923 H   0  0  0  0  0  0  0  0  0  0  0  0
  145.4829   73.9072  218.7012 H   0  0  0  0  0  0  0  0  0  0  0  0
  143.8927   74.6641  221.2407 H   0  0  0  0  0  0  0  0  0  0  0  0
  144.2308   74.7821  217.5335 H   0  0  0  0  0  0  0  0  0  0  0  0
  143.4157   76.7267  216.2858 H   0  0  0  0  0  0  0  0  0  0  0  0
  142.1486   78.5168  217.4918 H   0  0  0  0  0  0  0  0  0  0  0  0
  141.7529   78.2720  219.9328 H   0  0  0  0  0  0  0  0  0  0  0  0
  142.5861   76.3018  221.1632 H   0  0  0  0  0  0  0  0  0  0  0  0
  137.7966   75.6389  221.8284 H   0  0  0  0  0  0  0  0  0  0  0  0
  137.1876   77.9325  222.6889 H   0  0  0  0  0  0  0  0  0  0  0  0
  137.8775   80.1107  223.5498 H   0  0  0  0  0  0  0  0  0  0  0  0
  139.6834   81.6892  224.2182 H   0  0  0  0  0  0  0  0  0  0  0  0
  142.6472   78.7363  223.1772 H   0  0  0  0  0  0  0  0  0  0  0  0
  1  2  2  0
  2  3  1  0
  3  4  1  0
  4  5  1  0
  5  6  2  0
  5  7  1  0
  7  8  1  0
  8  9  1  0
  9 10  1  0
 10 11  1  0
 11 12  1  0
 12 13  2  0
 13 14  1  0
 14 15  2  0
 15 16  1  0
 16 17  2  0
  2 18  1  0
 18 19  2  0
 19 20  1  0
 20 21  2  0
 21 22  1  0
 22 23  2  0
 23 24  1  0
 24 25  1  0
 24 26  2  0
 26 27  1  0
 27 28  2  0
 11  7  1  0
 17 12  1  0
 28 18  1  0
 27 21  1  0
  3 29  1  0
  4 30  1  0
  4 31  1  0
  8 32  1  0
  8 33  1  0
  9 34  1  0
  9 35  1  0
 10 36  1  0
 10 37  1  0
 11 38  1  1
 13 39  1  0
 14 40  1  0
 15 41  1  0
 16 42  1  0
 17 43  1  0
 19 44  1  0
 20 45  1  0
 22 46  1  0
 23 47  1  0
 26 48  1  0
M  END
>  <smiles>  (12) 
O=C(NCC(=O)N1CCC[C@H]1c1ccccc1)c1ccc2ccc(Cl)cc2n1

>  <score_type>  (12) 
oracle

>  <origin>  (12) 
autodockgpu

>  <m_score__min__energy>  (12) 
-8.4600000000000009

>  <m_primary>  (12) 
energy

>  <rmsd>  (12) 
7.084123892037116

>  <m_score__min__rmsd>  (12) 
7.084123892037116

>  <meeko>  (12) 
{"free_energy": -7.11, "intermolecular_energy": -8.6, "internal_energy": -2.18, "cluster_size": 6, "cluster_id": 9, "rank_in_cluster": 4}

>  <energy>  (12) 
-8.27

>  <cluster_rmsd>  (12) 
0.07

>  <cluster>  (12) 
2

$$$$

     RDKit          3D

 48 51  0  0  0  0  0  0  0  0999 V2000
  140.6270   73.6070  222.0220 O   0  0  0  0  0  0  0  0  0  0  0  0
  140.3590   74.6200  221.3350 C   0  0  0  0  0  0  0  0  0  0  0  0
  140.4540   74.4290  219.8980 N   0  0  0  0  0  0  0  0  0  0  0  0
  140.8410   73.1200  219.4700 C   0  0  0  0  0  0  0  0  0  0  0  0
  142.2540   72.7930  219.3950 C   0  0  0  0  0  0  0  0  0  0  0  0
  142.5680   72.0590  218.3620 O   0  0  0  0  0  0  0  0  0  0  0  0
  143.3290   73.1250  220.2250 N   0  0  0  0  0  0  0  0  0  0  0  0
  144.1500   72.2900  221.1260 C   0  0  0  0  0  0  0  0  0  0  0  0
  145.5180   72.6580  220.6370 C   0  0  0  0  0  0  0  0  0  0  0  0
  145.4230   74.0870  220.1640 C   0  0  0  0  0  0  0  0  0  0  0  0
  143.9670   74.4420  220.3980 C   0  0  1  0  0  0  0  0  0  0  0  0
  143.5110   75.4800  219.4760 C   0  0  0  0  0  0  0  0  0  0  0  0
  143.6540   75.4900  218.1200 C   0  0  0  0  0  0  0  0  0  0  0  0
  143.2030   76.4960  217.2930 C   0  0  0  0  0  0  0  0  0  0  0  0
  142.5560   77.5790  217.8550 C   0  0  0  0  0  0  0  0  0  0  0  0
  142.3880   77.6100  219.2290 C   0  0  0  0  0  0  0  0  0  0  0  0
  142.8520   76.5850  220.0350 C   0  0  0  0  0  0  0  0  0  0  0  0
  139.9760   75.9090  221.8990 C   0  0  0  0  0  0  0  0  0  0  0  0
  138.6310   76.1390  222.0770 C   0  0  0  0  0  0  0  0  0  0  0  0
  138.2910   77.3830  222.6190 C   0  0  0  0  0  0  0  0  0  0  0  0
  139.2700   78.3130  222.9500 C   0  0  0  0  0  0  0  0  0  0  0  0
  138.9470   79.5530  223.4890 C   0  0  0  0  0  0  0  0  0  0  0  0
  139.9390   80.4720  223.8150 C   0  0  0  0  0  0  0  0  0  0  0  0
  141.2670   80.1370  223.5930 C   0  0  0  0  0  0  0  0  0  0  0  0
  142.5730   81.2610  223.9860 Cl  0  0  0  0  0  0  0  0  0  0  0  0
  141.6170   78.9160  223.0600 C   0  0  0  0  0  0  0  0  0  0  0  0
  140.6150   78.0120  222.7430 C   0  0  0  0  0  0  0  0  0  0  0  0
  140.9160   76.8160  222.2220 N   0  0  0  0  0  0  0  0  0  0  0  0
  140.2400   75.2340  219.2710 H   0  0  0  0  0  0  0  0  0  0  0  0
  140.3809   72.4039  220.1668 H   0  0  0  0  0  0  0  0  0  0  0  0
  140.5036   73.0739  218.4240 H   0  0  0  0  0  0  0  0  0  0  0  0
  144.0056   72.5630  222.1818 H   0  0  0  0  0  0  0  0  0  0  0  0
  143.9206   71.2145  221.1020 H   0  0  0  0  0  0  0  0  0  0  0  0
  146.2506   72.5740  221.4533 H   0  0  0  0  0  0  0  0  0  0  0  0
  145.8495   71.9887  219.8294 H   0  0  0  0  0  0  0  0  0  0  0  0
  146.0860   74.7401  220.7505 H   0  0  0  0  0  0  0  0  0  0  0  0
  145.7312   74.2124  219.1155 H   0  0  0  0  0  0  0  0  0  0  0  0
  143.7346   74.8934  221.3739 H   0  0  0  0  0  0  0  0  0  0  0  0
  144.1653   74.6351  217.6534 H   0  0  0  0  0  0  0  0  0  0  0  0
  143.3556   76.4374  216.2052 H   0  0  0  0  0  0  0  0  0  0  0  0
  142.1822   78.3993  217.2246 H   0  0  0  0  0  0  0  0  0  0  0  0
  141.8751   78.4672  219.6896 H   0  0  0  0  0  0  0  0  0  0  0  0
  142.7027   76.6373  221.1236 H   0  0  0  0  0  0  0  0  0  0  0  0
  137.8702   75.3909  221.8096 H   0  0  0  0  0  0  0  0  0  0  0  0
  137.2320   77.6293  222.7860 H   0  0  0  0  0  0  0  0  0  0  0  0
  137.8915   79.8112  223.6602 H   0  0  0  0  0  0  0  0  0  0  0  0
  139.6744   81.4503  224.2427 H   0  0  0  0  0  0  0  0  0  0  0  0
  142.6736   78.6626  222.8888 H   0  0  0  0  0  0  0  0  0  0  0  0
  1  2  2  0
  2  3  1  0
  3  4  1  0
  4  5  1  0
  5  6  2  0
  5  7  1  0
  7  8  1  0
  8  9  1  0
  9 10  1  0
 10 11  1  0
 11 12  1  0
 12 13  2  0
 13 14  1  0
 14 15  2  0
 15 16  1  0
 16 17  2  0
  2 18  1  0
 18 19  2  0
 19 20  1  0
 20 21  2  0
 21 22  1  0
 22 23  2  0
 23 24  1  0
 24 25  1  0
 24 26  2  0
 26 27  1  0
 27 28  2  0
 11  7  1  0
 17 12  1  0
 28 18  1  0
 27 21  1  0
  3 29  1  0
  4 30  1  0
  4 31  1  0
  8 32  1  0
  8 33  1  0
  9 34  1  0
  9 35  1  0
 10 36  1  0
 10 37  1  0
 11 38  1  1
 13 39  1  0
 14 40  1  0
 15 41  1  0
 16 42  1  0
 17 43  1  0
 19 44  1  0
 20 45  1  0
 22 46  1  0
 23 47  1  0
 26 48  1  0
M  END
>  <smiles>  (13) 
O=C(NCC(=O)N1CCC[C@H]1c1ccccc1)c1ccc2ccc(Cl)cc2n1

>  <score_type>  (13) 
oracle

>  <origin>  (13) 
autodockgpu

>  <m_score__min__energy>  (13) 
-8.4600000000000009

>  <m_primary>  (13) 
energy

>  <rmsd>  (13) 
7.040994488059135

>  <m_score__min__rmsd>  (13) 
7.040994488059135

>  <meeko>  (13) 
{"free_energy": -7.04, "intermolecular_energy": -8.53, "internal_energy": -2.23, "cluster_size": 6, "cluster_id": 9, "rank_in_cluster": 6}

>  <energy>  (13) 
-8.26

>  <cluster_rmsd>  (13) 
0.14

>  <cluster>  (13) 
2

$$$$

     RDKit          3D

 48 51  0  0  0  0  0  0  0  0999 V2000
  141.8070   72.5420  221.3020 O   0  0  0  0  0  0  0  0  0  0  0  0
  141.0220   73.4430  221.6790 C   0  0  0  0  0  0  0  0  0  0  0  0
  139.8910   72.9800  222.4640 N   0  0  0  0  0  0  0  0  0  0  0  0
  139.8300   71.5700  222.6940 C   0  0  0  0  0  0  0  0  0  0  0  0
  138.6860   71.0200  223.3980 C   0  0  0  0  0  0  0  0  0  0  0  0
  137.7390   71.8910  223.6210 O   0  0  0  0  0  0  0  0  0  0  0  0
  138.4190   69.7320  223.8740 N   0  0  0  0  0  0  0  0  0  0  0  0
  137.7810   68.5720  223.2190 C   0  0  0  0  0  0  0  0  0  0  0  0
  138.8260   67.5280  223.4780 C   0  0  0  0  0  0  0  0  0  0  0  0
  139.4690   67.8970  224.7910 C   0  0  0  0  0  0  0  0  0  0  0  0
  138.7480   69.1690  225.1950 C   0  0  1  0  0  0  0  0  0  0  0  0
  139.5840   70.0160  226.0420 C   0  0  0  0  0  0  0  0  0  0  0  0
  140.5840   70.8470  225.6340 C   0  0  0  0  0  0  0  0  0  0  0  0
  141.3450   71.6300  226.4760 C   0  0  0  0  0  0  0  0  0  0  0  0
  141.0920   71.5860  227.8330 C   0  0  0  0  0  0  0  0  0  0  0  0
  140.0840   70.7550  228.2920 C   0  0  0  0  0  0  0  0  0  0  0  0
  139.3370   69.9790  227.4230 C   0  0  0  0  0  0  0  0  0  0  0  0
  141.1980   74.8570  221.3720 C   0  0  0  0  0  0  0  0  0  0  0  0
  141.9800   75.1680  220.2840 C   0  0  0  0  0  0  0  0  0  0  0  0
  142.1320   76.5330  220.0110 C   0  0  0  0  0  0  0  0  0  0  0  0
  141.5200   77.4950  220.8060 C   0  0  0  0  0  0  0  0  0  0  0  0
  141.6630   78.8540  220.5490 C   0  0  0  0  0  0  0  0  0  0  0  0
  141.0440   79.8040  221.3530 C   0  0  0  0  0  0  0  0  0  0  0  0
  140.2760   79.3790  222.4280 C   0  0  0  0  0  0  0  0  0  0  0  0
  139.4640   80.5370  223.4880 Cl  0  0  0  0  0  0  0  0  0  0  0  0
  140.1170   78.0400  222.7080 C   0  0  0  0  0  0  0  0  0  0  0  0
  140.7410   77.1070  221.8940 C   0  0  0  0  0  0  0  0  0  0  0  0
  140.6100   75.7960  222.1350 N   0  0  0  0  0  0  0  0  0  0  0  0
  139.2020   73.6820  222.8100 H   0  0  0  0  0  0  0  0  0  0  0  0
  139.8680   71.0810  221.7094 H   0  0  0  0  0  0  0  0  0  0  0  0
  140.6744   71.3769  223.3720 H   0  0  0  0  0  0  0  0  0  0  0  0
  136.8200   68.3144  223.6881 H   0  0  0  0  0  0  0  0  0  0  0  0
  137.5219   68.7192  222.1601 H   0  0  0  0  0  0  0  0  0  0  0  0
  138.3627   66.5327  223.5462 H   0  0  0  0  0  0  0  0  0  0  0  0
  139.5659   67.4895  222.6649 H   0  0  0  0  0  0  0  0  0  0  0  0
  139.3174   67.1049  225.5391 H   0  0  0  0  0  0  0  0  0  0  0  0
  140.5581   68.0293  224.7118 H   0  0  0  0  0  0  0  0  0  0  0  0
  137.8567   69.0355  225.8256 H   0  0  0  0  0  0  0  0  0  0  0  0
  140.7994   70.8967  224.5564 H   0  0  0  0  0  0  0  0  0  0  0  0
  142.1385   72.2774  226.0745 H   0  0  0  0  0  0  0  0  0  0  0  0
  141.6786   72.1979  228.5340 H   0  0  0  0  0  0  0  0  0  0  0  0
  139.8724   70.7107  229.3706 H   0  0  0  0  0  0  0  0  0  0  0  0
  138.5432   69.3279  227.8180 H   0  0  0  0  0  0  0  0  0  0  0  0
  142.4565   74.3924  219.6665 H   0  0  0  0  0  0  0  0  0  0  0  0
  142.7452   76.8488  219.1541 H   0  0  0  0  0  0  0  0  0  0  0  0
  142.2754   79.1824  219.6963 H   0  0  0  0  0  0  0  0  0  0  0  0
  141.1612   80.8769  221.1403 H   0  0  0  0  0  0  0  0  0  0  0  0
  139.5053   77.7162  223.5630 H   0  0  0  0  0  0  0  0  0  0  0  0
  1  2  2  0
  2  3  1  0
  3  4  1  0
  4  5  1  0
  5  6  2  0
  5  7  1  0
  7  8  1  0
  8  9  1  0
  9 10  1  0
 10 11  1  0
 11 12  1  0
 12 13  2  0
 13 14  1  0
 14 15  2  0
 15 16  1  0
 16 17  2  0
  2 18  1  0
 18 19  2  0
 19 20  1  0
 20 21  2  0
 21 22  1  0
 22 23  2  0
 23 24  1  0
 24 25  1  0
 24 26  2  0
 26 27  1  0
 27 28  2  0
 11  7  1  0
 17 12  1  0
 28 18  1  0
 27 21  1  0
  3 29  1  0
  4 30  1  0
  4 31  1  0
  8 32  1  0
  8 33  1  0
  9 34  1  0
  9 35  1  0
 10 36  1  0
 10 37  1  0
 11 38  1  1
 13 39  1  0
 14 40  1  0
 15 41  1  0
 16 42  1  0
 17 43  1  0
 19 44  1  0
 20 45  1  0
 22 46  1  0
 23 47  1  0
 26 48  1  0
M  END
>  <smiles>  (14) 
O=C(NCC(=O)N1CCC[C@H]1c1ccccc1)c1ccc2ccc(Cl)cc2n1

>  <score_type>  (14) 
oracle

>  <origin>  (14) 
autodockgpu

>  <m_score__min__energy>  (14) 
-8.4600000000000009

>  <m_primary>  (14) 
energy

>  <rmsd>  (14) 
8.488441180821196

>  <m_score__min__rmsd>  (14) 
8.488441180821196

>  <meeko>  (14) 
{"free_energy": -8.26, "intermolecular_energy": -9.76, "internal_energy": -1.52, "cluster_size": 15, "cluster_id": 2, "rank_in_cluster": 4}

>  <energy>  (14) 
-8.12

>  <cluster_rmsd>  (14) 
0.35

>  <cluster>  (14) 
2

$$$$

     RDKit          3D

 48 51  0  0  0  0  0  0  0  0999 V2000
  139.8870   75.8670  219.7060 O   0  0  0  0  0  0  0  0  0  0  0  0
  140.4290   75.2540  220.6550 C   0  0  0  0  0  0  0  0  0  0  0  0
  141.6770   75.8310  221.1230 N   0  0  0  0  0  0  0  0  0  0  0  0
  142.1120   77.0100  220.4390 C   0  0  0  0  0  0  0  0  0  0  0  0
  141.6840   78.3070  220.9310 C   0  0  0  0  0  0  0  0  0  0  0  0
  141.0440   79.0190  220.0440 O   0  0  0  0  0  0  0  0  0  0  0  0
  141.8350   78.9230  222.1780 N   0  0  0  0  0  0  0  0  0  0  0  0
  142.9610   79.6880  222.7500 C   0  0  0  0  0  0  0  0  0  0  0  0
  142.2350   80.9270  223.1780 C   0  0  0  0  0  0  0  0  0  0  0  0
  140.8400   80.4890  223.5460 C   0  0  0  0  0  0  0  0  0  0  0  0
  140.8550   78.9960  223.2750 C   0  0  1  0  0  0  0  0  0  0  0  0
  139.5210   78.4940  222.9530 C   0  0  0  0  0  0  0  0  0  0  0  0
  139.1700   77.1990  222.7140 C   0  0  0  0  0  0  0  0  0  0  0  0
  137.8930   76.7760  222.4150 C   0  0  0  0  0  0  0  0  0  0  0  0
  136.8810   77.7130  222.3480 C   0  0  0  0  0  0  0  0  0  0  0  0
  137.1920   79.0410  222.5830 C   0  0  0  0  0  0  0  0  0  0  0  0
  138.4850   79.4370  222.8820 C   0  0  0  0  0  0  0  0  0  0  0  0
  139.8790   74.0510  221.2670 C   0  0  0  0  0  0  0  0  0  0  0  0
  138.7440   73.5220  220.6980 C   0  0  0  0  0  0  0  0  0  0  0  0
  138.2370   72.3680  221.3050 C   0  0  0  0  0  0  0  0  0  0  0  0
  138.8600   71.8080  222.4140 C   0  0  0  0  0  0  0  0  0  0  0  0
  138.3680   70.6630  223.0290 C   0  0  0  0  0  0  0  0  0  0  0  0
  139.0040   70.1150  224.1370 C   0  0  0  0  0  0  0  0  0  0  0  0
  140.1450   70.7300  224.6310 C   0  0  0  0  0  0  0  0  0  0  0  0
  140.9980   70.0840  226.0380 Cl  0  0  0  0  0  0  0  0  0  0  0  0
  140.6560   71.8670  224.0450 C   0  0  0  0  0  0  0  0  0  0  0  0
  140.0090   72.3980  222.9390 C   0  0  0  0  0  0  0  0  0  0  0  0
  140.4750   73.5010  222.3410 N   0  0  0  0  0  0  0  0  0  0  0  0
  142.1770   75.3680  221.9140 H   0  0  0  0  0  0  0  0  0  0  0  0
  143.2119   77.0055  220.4563 H   0  0  0  0  0  0  0  0  0  0  0  0
  141.6359   76.9325  219.4504 H   0  0  0  0  0  0  0  0  0  0  0  0
  143.4185   79.1663  223.6035 H   0  0  0  0  0  0  0  0  0  0  0  0
  143.8053   79.8561  222.0652 H   0  0  0  0  0  0  0  0  0  0  0  0
  142.7342   81.3809  224.0468 H   0  0  0  0  0  0  0  0  0  0  0  0
  142.2210   81.6811  222.3773 H   0  0  0  0  0  0  0  0  0  0  0  0
  140.6302   80.6942  224.6061 H   0  0  0  0  0  0  0  0  0  0  0  0
  140.0606   81.0197  222.9795 H   0  0  0  0  0  0  0  0  0  0  0  0
  141.1334   78.3569  224.1259 H   0  0  0  0  0  0  0  0  0  0  0  0
  139.9622   76.4374  222.7633 H   0  0  0  0  0  0  0  0  0  0  0  0
  137.6837   75.7115  222.2330 H   0  0  0  0  0  0  0  0  0  0  0  0
  135.8499   77.4105  222.1130 H   0  0  0  0  0  0  0  0  0  0  0  0
  136.3955   79.7979  222.5312 H   0  0  0  0  0  0  0  0  0  0  0  0
  138.7013   80.4998  223.0653 H   0  0  0  0  0  0  0  0  0  0  0  0
  138.2643   73.9783  219.8195 H   0  0  0  0  0  0  0  0  0  0  0  0
  137.3305   71.8962  220.8979 H   0  0  0  0  0  0  0  0  0  0  0  0
  137.4611   70.1828  222.6328 H   0  0  0  0  0  0  0  0  0  0  0  0
  138.6082   69.2068  224.6151 H   0  0  0  0  0  0  0  0  0  0  0  0
  141.5612   72.3454  224.4471 H   0  0  0  0  0  0  0  0  0  0  0  0
  1  2  2  0
  2  3  1  0
  3  4  1  0
  4  5  1  0
  5  6  2  0
  5  7  1  0
  7  8  1  0
  8  9  1  0
  9 10  1  0
 10 11  1  0
 11 12  1  0
 12 13  2  0
 13 14  1  0
 14 15  2  0
 15 16  1  0
 16 17  2  0
  2 18  1  0
 18 19  2  0
 19 20  1  0
 20 21  2  0
 21 22  1  0
 22 23  2  0
 23 24  1  0
 24 25  1  0
 24 26  2  0
 26 27  1  0
 27 28  2  0
 11  7  1  0
 17 12  1  0
 28 18  1  0
 27 21  1  0
  3 29  1  0
  4 30  1  0
  4 31  1  0
  8 32  1  0
  8 33  1  0
  9 34  1  0
  9 35  1  0
 10 36  1  0
 10 37  1  0
 11 38  1  1
 13 39  1  0
 14 40  1  0
 15 41  1  0
 16 42  1  0
 17 43  1  0
 19 44  1  0
 20 45  1  0
 22 46  1  0
 23 47  1  0
 26 48  1  0
M  END
>  <smiles>  (15) 
O=C(NCC(=O)N1CCC[C@H]1c1ccccc1)c1ccc2ccc(Cl)cc2n1

>  <score_type>  (15) 
oracle

>  <origin>  (15) 
autodockgpu

>  <m_score__min__energy>  (15) 
-8.4600000000000009

>  <m_primary>  (15) 
energy

>  <rmsd>  (15) 
5.355777040928839

>  <m_score__min__rmsd>  (15) 
5.355777040928839

>  <meeko>  (15) 
{"free_energy": -7.11, "intermolecular_energy": -8.6, "internal_energy": -2.12, "cluster_size": 3, "cluster_id": 8, "rank_in_cluster": 2}

>  <energy>  (15) 
-8.11

>  <cluster_rmsd>  (15) 
1.71

>  <cluster>  (15) 
2

$$$$

     RDKit          3D

 48 51  0  0  0  0  0  0  0  0999 V2000
  134.8900   68.5790  225.0080 O   0  0  0  0  0  0  0  0  0  0  0  0
  135.2750   69.7690  225.0730 C   0  0  0  0  0  0  0  0  0  0  0  0
  136.5820   70.0230  224.4900 N   0  0  0  0  0  0  0  0  0  0  0  0
  137.2430   68.8860  223.9280 C   0  0  0  0  0  0  0  0  0  0  0  0
  138.6920   68.8250  223.9660 C   0  0  0  0  0  0  0  0  0  0  0  0
  139.1610   67.6330  224.2180 O   0  0  0  0  0  0  0  0  0  0  0  0
  139.6680   69.8100  223.7780 N   0  0  0  0  0  0  0  0  0  0  0  0
  139.9520   70.6830  222.6220 C   0  0  0  0  0  0  0  0  0  0  0  0
  139.9550   72.0170  223.3060 C   0  0  0  0  0  0  0  0  0  0  0  0
  140.4530   71.7680  224.7070 C   0  0  0  0  0  0  0  0  0  0  0  0
  140.6860   70.2690  224.7390 C   0  0  1  0  0  0  0  0  0  0  0  0
  140.5530   69.7330  226.0920 C   0  0  0  0  0  0  0  0  0  0  0  0
  139.9260   70.3240  227.1480 C   0  0  0  0  0  0  0  0  0  0  0  0
  139.8260   69.7730  228.4080 C   0  0  0  0  0  0  0  0  0  0  0  0
  140.3920   68.5350  228.6390 C   0  0  0  0  0  0  0  0  0  0  0  0
  141.0390   67.8970  227.5940 C   0  0  0  0  0  0  0  0  0  0  0  0
  141.1240   68.4750  226.3380 C   0  0  0  0  0  0  0  0  0  0  0  0
  134.5000   70.8450  225.6800 C   0  0  0  0  0  0  0  0  0  0  0  0
  133.5890   70.4890  226.6480 C   0  0  0  0  0  0  0  0  0  0  0  0
  132.8580   71.5390  227.2140 C   0  0  0  0  0  0  0  0  0  0  0  0
  133.0590   72.8530  226.8060 C   0  0  0  0  0  0  0  0  0  0  0  0
  132.3400   73.9070  227.3590 C   0  0  0  0  0  0  0  0  0  0  0  0
  132.5520   75.2160  226.9400 C   0  0  0  0  0  0  0  0  0  0  0  0
  133.4970   75.4630  225.9540 C   0  0  0  0  0  0  0  0  0  0  0  0
  133.8120   77.1040  225.3790 Cl  0  0  0  0  0  0  0  0  0  0  0  0
  134.2240   74.4390  225.3880 C   0  0  0  0  0  0  0  0  0  0  0  0
  133.9990   73.1410  225.8190 C   0  0  0  0  0  0  0  0  0  0  0  0
  134.6860   72.1190  225.2920 N   0  0  0  0  0  0  0  0  0  0  0  0
  136.9580   70.9960  224.5100 H   0  0  0  0  0  0  0  0  0  0  0  0
  136.8689   67.9995  224.4611 H   0  0  0  0  0  0  0  0  0  0  0  0
  137.0096   68.9489  222.8549 H   0  0  0  0  0  0  0  0  0  0  0  0
  140.9267   70.4545  222.1663 H   0  0  0  0  0  0  0  0  0  0  0  0
  139.2454   70.5908  221.7840 H   0  0  0  0  0  0  0  0  0  0  0  0
  140.6251   72.7136  222.7809 H   0  0  0  0  0  0  0  0  0  0  0  0
  138.9518   72.4683  223.3106 H   0  0  0  0  0  0  0  0  0  0  0  0
  141.3885   72.3154  224.8948 H   0  0  0  0  0  0  0  0  0  0  0  0
  139.7475   72.1085  225.4793 H   0  0  0  0  0  0  0  0  0  0  0  0
  141.6976   69.9342  224.4660 H   0  0  0  0  0  0  0  0  0  0  0  0
  139.4673   71.3102  226.9835 H   0  0  0  0  0  0  0  0  0  0  0  0
  139.3049   70.3099  229.2144 H   0  0  0  0  0  0  0  0  0  0  0  0
  140.3303   68.0655  229.6319 H   0  0  0  0  0  0  0  0  0  0  0  0
  141.4950   66.9106  227.7649 H   0  0  0  0  0  0  0  0  0  0  0  0
  141.6433   67.9435  225.5269 H   0  0  0  0  0  0  0  0  0  0  0  0
  133.4445   69.4434  226.9576 H   0  0  0  0  0  0  0  0  0  0  0  0
  132.1130   71.3218  227.9936 H   0  0  0  0  0  0  0  0  0  0  0  0
  131.5924   73.7023  228.1395 H   0  0  0  0  0  0  0  0  0  0  0  0
  131.9790   76.0436  227.3836 H   0  0  0  0  0  0  0  0  0  0  0  0
  134.9703   74.6478  224.6074 H   0  0  0  0  0  0  0  0  0  0  0  0
  1  2  2  0
  2  3  1  0
  3  4  1  0
  4  5  1  0
  5  6  2  0
  5  7  1  0
  7  8  1  0
  8  9  1  0
  9 10  1  0
 10 11  1  0
 11 12  1  0
 12 13  2  0
 13 14  1  0
 14 15  2  0
 15 16  1  0
 16 17  2  0
  2 18  1  0
 18 19  2  0
 19 20  1  0
 20 21  2  0
 21 22  1  0
 22 23  2  0
 23 24  1  0
 24 25  1  0
 24 26  2  0
 26 27  1  0
 27 28  2  0
 11  7  1  0
 17 12  1  0
 28 18  1  0
 27 21  1  0
  3 29  1  0
  4 30  1  0
  4 31  1  0
  8 32  1  0
  8 33  1  0
  9 34  1  0
  9 35  1  0
 10 36  1  0
 10 37  1  0
 11 38  1  6
 13 39  1  0
 14 40  1  0
 15 41  1  0
 16 42  1  0
 17 43  1  0
 19 44  1  0
 20 45  1  0
 22 46  1  0
 23 47  1  0
 26 48  1  0
M  END
>  <smiles>  (16) 
O=C(NCC(=O)N1CCC[C@H]1c1ccccc1)c1ccc2ccc(Cl)cc2n1

>  <score_type>  (16) 
oracle

>  <origin>  (16) 
autodockgpu

>  <m_score__min__energy>  (16) 
-8.4600000000000009

>  <m_primary>  (16) 
energy

>  <rmsd>  (16) 
7.24540944385738

>  <m_score__min__rmsd>  (16) 
7.24540944385738

>  <meeko>  (16) 
{"free_energy": -8.24, "intermolecular_energy": -9.73, "internal_energy": -1.62, "cluster_size": 9, "cluster_id": 1, "rank_in_cluster": 7}

>  <energy>  (16) 
-8.1

>  <cluster_rmsd>  (16) 
1.7

>  <cluster>  (16) 
2

$$$$

     RDKit          3D

 48 51  0  0  0  0  0  0  0  0999 V2000
  134.7450   68.3920  224.5850 O   0  0  0  0  0  0  0  0  0  0  0  0
  135.0560   69.5740  224.8610 C   0  0  0  0  0  0  0  0  0  0  0  0
  136.3940   69.9670  224.4530 N   0  0  0  0  0  0  0  0  0  0  0  0
  137.1650   68.9550  223.7980 C   0  0  0  0  0  0  0  0  0  0  0  0
  138.5910   68.8780  224.0600 C   0  0  0  0  0  0  0  0  0  0  0  0
  138.9680   67.7420  224.5780 O   0  0  0  0  0  0  0  0  0  0  0  0
  139.6240   69.7990  223.8540 N   0  0  0  0  0  0  0  0  0  0  0  0
  139.8980   70.7090  222.7240 C   0  0  0  0  0  0  0  0  0  0  0  0
  140.0440   72.0020  223.4680 C   0  0  0  0  0  0  0  0  0  0  0  0
  140.6110   71.6450  224.8190 C   0  0  0  0  0  0  0  0  0  0  0  0
  140.7330   70.1340  224.7640 C   0  0  1  0  0  0  0  0  0  0  0  0
  140.6460   69.5390  226.0960 C   0  0  0  0  0  0  0  0  0  0  0  0
  141.1800   68.3500  226.4960 C   0  0  0  0  0  0  0  0  0  0  0  0
  141.0720   67.8320  227.7690 C   0  0  0  0  0  0  0  0  0  0  0  0
  140.3770   68.5510  228.7220 C   0  0  0  0  0  0  0  0  0  0  0  0
  139.8180   69.7640  228.3590 C   0  0  0  0  0  0  0  0  0  0  0  0
  139.9430   70.2600  227.0730 C   0  0  0  0  0  0  0  0  0  0  0  0
  134.1700   70.5120  225.5400 C   0  0  0  0  0  0  0  0  0  0  0  0
  133.0720   69.9840  226.1790 C   0  0  0  0  0  0  0  0  0  0  0  0
  132.2380   70.9060  226.8220 C   0  0  0  0  0  0  0  0  0  0  0  0
  132.5240   72.2670  226.8020 C   0  0  0  0  0  0  0  0  0  0  0  0
  131.7040   73.1940  227.4350 C   0  0  0  0  0  0  0  0  0  0  0  0
  132.0040   74.5520  227.4060 C   0  0  0  0  0  0  0  0  0  0  0  0
  133.1390   74.9770  226.7300 C   0  0  0  0  0  0  0  0  0  0  0  0
  133.5730   76.6890  226.6550 Cl  0  0  0  0  0  0  0  0  0  0  0  0
  133.9690   74.0810  226.0920 C   0  0  0  0  0  0  0  0  0  0  0  0
  133.6550   72.7310  226.1330 C   0  0  0  0  0  0  0  0  0  0  0  0
  134.4370   71.8310  225.5260 N   0  0  0  0  0  0  0  0  0  0  0  0
  136.7120   70.9400  224.6520 H   0  0  0  0  0  0  0  0  0  0  0  0
  136.7319   67.9847  224.0826 H   0  0  0  0  0  0  0  0  0  0  0  0
  137.1061   69.2255  222.7334 H   0  0  0  0  0  0  0  0  0  0  0  0
  140.8219   70.4357  222.1933 H   0  0  0  0  0  0  0  0  0  0  0  0
  139.1343   70.7112  221.9324 H   0  0  0  0  0  0  0  0  0  0  0  0
  140.7291   72.6755  222.9323 H   0  0  0  0  0  0  0  0  0  0  0  0
  139.0798   72.5230  223.5616 H   0  0  0  0  0  0  0  0  0  0  0  0
  141.5948   72.1137  224.9688 H   0  0  0  0  0  0  0  0  0  0  0  0
  139.9838   71.9940  225.6526 H   0  0  0  0  0  0  0  0  0  0  0  0
  141.6975   69.7434  224.4075 H   0  0  0  0  0  0  0  0  0  0  0  0
  141.7361   67.7627  225.7505 H   0  0  0  0  0  0  0  0  0  0  0  0
  141.5306   66.8645  228.0211 H   0  0  0  0  0  0  0  0  0  0  0  0
  140.2701   68.1677  229.7475 H   0  0  0  0  0  0  0  0  0  0  0  0
  139.2624   70.3464  229.1088 H   0  0  0  0  0  0  0  0  0  0  0  0
  139.4875   71.2274  226.8147 H   0  0  0  0  0  0  0  0  0  0  0  0
  132.8625   68.9041  226.1843 H   0  0  0  0  0  0  0  0  0  0  0  0
  131.3424   70.5487  227.3514 H   0  0  0  0  0  0  0  0  0  0  0  0
  130.8049   72.8487  227.9665 H   0  0  0  0  0  0  0  0  0  0  0  0
  131.3510   75.2785  227.9116 H   0  0  0  0  0  0  0  0  0  0  0  0
  134.8655   74.4308  225.5592 H   0  0  0  0  0  0  0  0  0  0  0  0
  1  2  2  0
  2  3  1  0
  3  4  1  0
  4  5  1  0
  5  6  2  0
  5  7  1  0
  7  8  1  0
  8  9  1  0
  9 10  1  0
 10 11  1  0
 11 12  1  0
 12 13  2  0
 13 14  1  0
 14 15  2  0
 15 16  1  0
 16 17  2  0
  2 18  1  0
 18 19  2  0
 19 20  1  0
 20 21  2  0
 21 22  1  0
 22 23  2  0
 23 24  1  0
 24 25  1  0
 24 26  2  0
 26 27  1  0
 27 28  2  0
 11  7  1  0
 17 12  1  0
 28 18  1  0
 27 21  1  0
  3 29  1  0
  4 30  1  0
  4 31  1  0
  8 32  1  0
  8 33  1  0
  9 34  1  0
  9 35  1  0
 10 36  1  0
 10 37  1  0
 11 38  1  6
 13 39  1  0
 14 40  1  0
 15 41  1  0
 16 42  1  0
 17 43  1  0
 19 44  1  0
 20 45  1  0
 22 46  1  0
 23 47  1  0
 26 48  1  0
M  END
>  <smiles>  (17) 
O=C(NCC(=O)N1CCC[C@H]1c1ccccc1)c1ccc2ccc(Cl)cc2n1

>  <score_type>  (17) 
oracle

>  <origin>  (17) 
autodockgpu

>  <m_score__min__energy>  (17) 
-8.4600000000000009

>  <m_primary>  (17) 
energy

>  <rmsd>  (17) 
7.319342761456677

>  <m_score__min__rmsd>  (17) 
7.319342761456677

>  <meeko>  (17) 
{"free_energy": -8.46, "intermolecular_energy": -9.95, "internal_energy": -1.54, "cluster_size": 9, "cluster_id": 1, "rank_in_cluster": 1}

>  <energy>  (17) 
-8.09

>  <cluster_rmsd>  (17) 
1.67

>  <cluster>  (17) 
2

$$$$

     RDKit          3D

 48 51  0  0  0  0  0  0  0  0999 V2000
  141.6470   72.4390  221.0950 O   0  0  0  0  0  0  0  0  0  0  0  0
  141.0200   73.3660  221.6580 C   0  0  0  0  0  0  0  0  0  0  0  0
  140.0320   72.9340  222.6320 N   0  0  0  0  0  0  0  0  0  0  0  0
  139.9120   71.5200  222.8100 C   0  0  0  0  0  0  0  0  0  0  0  0
  138.8460   71.0040  223.6500 C   0  0  0  0  0  0  0  0  0  0  0  0
  137.8680   71.8490  223.8340 O   0  0  0  0  0  0  0  0  0  0  0  0
  138.6830   69.7710  224.2900 N   0  0  0  0  0  0  0  0  0  0  0  0
  138.0740   68.5110  223.8210 C   0  0  0  0  0  0  0  0  0  0  0  0
  139.1900   67.5590  224.1290 C   0  0  0  0  0  0  0  0  0  0  0  0
  139.8900   68.1140  225.3440 C   0  0  0  0  0  0  0  0  0  0  0  0
  139.1230   69.3890  225.6430 C   0  0  1  0  0  0  0  0  0  0  0  0
  139.9600   70.3720  226.3270 C   0  0  0  0  0  0  0  0  0  0  0  0
  140.9820   71.0940  225.7850 C   0  0  0  0  0  0  0  0  0  0  0  0
  141.7420   72.0140  226.4750 C   0  0  0  0  0  0  0  0  0  0  0  0
  141.4660   72.2380  227.8100 C   0  0  0  0  0  0  0  0  0  0  0  0
  140.4360   71.5260  228.4010 C   0  0  0  0  0  0  0  0  0  0  0  0
  139.6890   70.6070  227.6830 C   0  0  0  0  0  0  0  0  0  0  0  0
  141.2380   74.7810  221.3830 C   0  0  0  0  0  0  0  0  0  0  0  0
  142.0560   75.0930  220.3210 C   0  0  0  0  0  0  0  0  0  0  0  0
  142.2480   76.4580  220.0790 C   0  0  0  0  0  0  0  0  0  0  0  0
  141.6390   77.4200  220.8760 C   0  0  0  0  0  0  0  0  0  0  0  0
  141.8210   78.7790  220.6480 C   0  0  0  0  0  0  0  0  0  0  0  0
  141.2040   79.7290  221.4550 C   0  0  0  0  0  0  0  0  0  0  0  0
  140.3980   79.3040  222.5010 C   0  0  0  0  0  0  0  0  0  0  0  0
  139.5870   80.4620  223.5620 Cl  0  0  0  0  0  0  0  0  0  0  0  0
  140.2000   77.9640  222.7520 C   0  0  0  0  0  0  0  0  0  0  0  0
  140.8220   77.0310  221.9360 C   0  0  0  0  0  0  0  0  0  0  0  0
  140.6530   75.7200  222.1480 N   0  0  0  0  0  0  0  0  0  0  0  0
  139.4780   73.6590  223.1380 H   0  0  0  0  0  0  0  0  0  0  0  0
  139.7769   71.0797  221.8110 H   0  0  0  0  0  0  0  0  0  0  0  0
  140.8300   71.2433  223.3492 H   0  0  0  0  0  0  0  0  0  0  0  0
  137.1599   68.2649  224.3812 H   0  0  0  0  0  0  0  0  0  0  0  0
  137.7427   68.5162  222.7721 H   0  0  0  0  0  0  0  0  0  0  0  0
  138.7891   66.5574  224.3437 H   0  0  0  0  0  0  0  0  0  0  0  0
  139.8800   67.4599  223.2780 H   0  0  0  0  0  0  0  0  0  0  0  0
  139.8291   67.4113  226.1881 H   0  0  0  0  0  0  0  0  0  0  0  0
  140.9633   68.2886  225.1778 H   0  0  0  0  0  0  0  0  0  0  0  0
  138.2802   69.2895  226.3428 H   0  0  0  0  0  0  0  0  0  0  0  0
  141.2163   70.9308  224.7227 H   0  0  0  0  0  0  0  0  0  0  0  0
  142.5536   72.5599  225.9718 H   0  0  0  0  0  0  0  0  0  0  0  0
  142.0516   72.9660  228.3906 H   0  0  0  0  0  0  0  0  0  0  0  0
  140.2061   71.6939  229.4635 H   0  0  0  0  0  0  0  0  0  0  0  0
  138.8765   70.0569  228.1802 H   0  0  0  0  0  0  0  0  0  0  0  0
  142.5295   74.3176  219.7009 H   0  0  0  0  0  0  0  0  0  0  0  0
  142.8912   76.7745  219.2446 H   0  0  0  0  0  0  0  0  0  0  0  0
  142.4624   79.1080  219.8171 H   0  0  0  0  0  0  0  0  0  0  0  0
  141.3531   80.8024  221.2664 H   0  0  0  0  0  0  0  0  0  0  0  0
  139.5595   77.6396  223.5854 H   0  0  0  0  0  0  0  0  0  0  0  0
  1  2  2  0
  2  3  1  0
  3  4  1  0
  4  5  1  0
  5  6  2  0
  5  7  1  0
  7  8  1  0
  8  9  1  0
  9 10  1  0
 10 11  1  0
 11 12  1  0
 12 13  2  0
 13 14  1  0
 14 15  2  0
 15 16  1  0
 16 17  2  0
  2 18  1  0
 18 19  2  0
 19 20  1  0
 20 21  2  0
 21 22  1  0
 22 23  2  0
 23 24  1  0
 24 25  1  0
 24 26  2  0
 26 27  1  0
 27 28  2  0
 11  7  1  0
 17 12  1  0
 28 18  1  0
 27 21  1  0
  3 29  1  0
  4 30  1  0
  4 31  1  0
  8 32  1  0
  8 33  1  0
  9 34  1  0
  9 35  1  0
 10 36  1  0
 10 37  1  0
 11 38  1  1
 13 39  1  0
 14 40  1  0
 15 41  1  0
 16 42  1  0
 17 43  1  0
 19 44  1  0
 20 45  1  0
 22 46  1  0
 23 47  1  0
 26 48  1  0
M  END
>  <smiles>  (18) 
O=C(NCC(=O)N1CCC[C@H]1c1ccccc1)c1ccc2ccc(Cl)cc2n1

>  <score_type>  (18) 
oracle

>  <origin>  (18) 
autodockgpu

>  <m_score__min__energy>  (18) 
-8.4600000000000009

>  <m_primary>  (18) 
energy

>  <rmsd>  (18) 
8.531986587119725

>  <m_score__min__rmsd>  (18) 
8.531986587119725

>  <meeko>  (18) 
{"free_energy": -8.27, "intermolecular_energy": -9.76, "internal_energy": -1.62, "cluster_size": 15, "cluster_id": 2, "rank_in_cluster": 2}

>  <energy>  (18) 
-8.08

>  <cluster_rmsd>  (18) 
0.26

>  <cluster>  (18) 
2

$$$$

     RDKit          3D

 48 51  0  0  0  0  0  0  0  0999 V2000
  134.8550   68.3990  224.9400 O   0  0  0  0  0  0  0  0  0  0  0  0
  135.0660   69.6320  224.9930 C   0  0  0  0  0  0  0  0  0  0  0  0
  136.3020   70.0700  224.3670 N   0  0  0  0  0  0  0  0  0  0  0  0
  137.1010   69.0370  223.7810 C   0  0  0  0  0  0  0  0  0  0  0  0
  138.5030   68.9420  224.1440 C   0  0  0  0  0  0  0  0  0  0  0  0
  138.8060   67.8440  224.7820 O   0  0  0  0  0  0  0  0  0  0  0  0
  139.5790   69.8100  223.9300 N   0  0  0  0  0  0  0  0  0  0  0  0
  139.9250   70.6540  222.7700 C   0  0  0  0  0  0  0  0  0  0  0  0
  140.1010   71.9740  223.4580 C   0  0  0  0  0  0  0  0  0  0  0  0
  140.6110   71.6590  224.8420 C   0  0  0  0  0  0  0  0  0  0  0  0
  140.6720   70.1430  224.8610 C   0  0  1  0  0  0  0  0  0  0  0  0
  140.5200   69.6150  226.2140 C   0  0  0  0  0  0  0  0  0  0  0  0
  139.8090   70.1730  227.2350 C   0  0  0  0  0  0  0  0  0  0  0  0
  139.6950   69.6320  228.4980 C   0  0  0  0  0  0  0  0  0  0  0  0
  140.3370   68.4390  228.7700 C   0  0  0  0  0  0  0  0  0  0  0  0
  141.0700   67.8360  227.7620 C   0  0  0  0  0  0  0  0  0  0  0  0
  141.1670   68.4040  226.5030 C   0  0  0  0  0  0  0  0  0  0  0  0
  134.1650   70.5870  225.6280 C   0  0  0  0  0  0  0  0  0  0  0  0
  133.0510   70.0750  226.2520 C   0  0  0  0  0  0  0  0  0  0  0  0
  132.2030   71.0120  226.8530 C   0  0  0  0  0  0  0  0  0  0  0  0
  132.4900   72.3710  226.8080 C   0  0  0  0  0  0  0  0  0  0  0  0
  131.6570   73.3140  227.3980 C   0  0  0  0  0  0  0  0  0  0  0  0
  131.9580   74.6700  227.3440 C   0  0  0  0  0  0  0  0  0  0  0  0
  133.1100   75.0780  226.6870 C   0  0  0  0  0  0  0  0  0  0  0  0
  133.5480   76.7880  226.5830 Cl  0  0  0  0  0  0  0  0  0  0  0  0
  133.9540   74.1680  226.0910 C   0  0  0  0  0  0  0  0  0  0  0  0
  133.6380   72.8190  226.1560 C   0  0  0  0  0  0  0  0  0  0  0  0
  134.4340   71.9040  225.5900 N   0  0  0  0  0  0  0  0  0  0  0  0
  136.5350   71.0860  224.3760 H   0  0  0  0  0  0  0  0  0  0  0  0
  136.6333   68.0775  224.0467 H   0  0  0  0  0  0  0  0  0  0  0  0
  137.1217   69.2934  222.7115 H   0  0  0  0  0  0  0  0  0  0  0  0
  140.8530   70.3196  222.2831 H   0  0  0  0  0  0  0  0  0  0  0  0
  139.1867   70.6492  221.9546 H   0  0  0  0  0  0  0  0  0  0  0  0
  140.8294   72.5938  222.9145 H   0  0  0  0  0  0  0  0  0  0  0  0
  139.1566   72.5367  223.4959 H   0  0  0  0  0  0  0  0  0  0  0  0
  141.6083   72.0946  225.0020 H   0  0  0  0  0  0  0  0  0  0  0  0
  139.9734   72.0719  225.6376 H   0  0  0  0  0  0  0  0  0  0  0  0
  141.6303   69.6977  224.5556 H   0  0  0  0  0  0  0  0  0  0  0  0
  139.2895   71.1221  227.0369 H   0  0  0  0  0  0  0  0  0  0  0  0
  139.1043   70.1403  229.2743 H   0  0  0  0  0  0  0  0  0  0  0  0
  140.2672   67.9781  229.7663 H   0  0  0  0  0  0  0  0  0  0  0  0
  141.5859   66.8861  227.9656 H   0  0  0  0  0  0  0  0  0  0  0  0
  141.7567   67.9013  225.7223 H   0  0  0  0  0  0  0  0  0  0  0  0
  132.8399   68.9957  226.2770 H   0  0  0  0  0  0  0  0  0  0  0  0
  131.2948   70.6674  227.3692 H   0  0  0  0  0  0  0  0  0  0  0  0
  130.7451   72.9821  227.9159 H   0  0  0  0  0  0  0  0  0  0  0  0
  131.2928   75.4086  227.8151 H   0  0  0  0  0  0  0  0  0  0  0  0
  134.8635   74.5051  225.5721 H   0  0  0  0  0  0  0  0  0  0  0  0
  1  2  2  0
  2  3  1  0
  3  4  1  0
  4  5  1  0
  5  6  2  0
  5  7  1  0
  7  8  1  0
  8  9  1  0
  9 10  1  0
 10 11  1  0
 11 12  1  0
 12 13  2  0
 13 14  1  0
 14 15  2  0
 15 16  1  0
 16 17  2  0
  2 18  1  0
 18 19  2  0
 19 20  1  0
 20 21  2  0
 21 22  1  0
 22 23  2  0
 23 24  1  0
 24 25  1  0
 24 26  2  0
 26 27  1  0
 27 28  2  0
 11  7  1  0
 17 12  1  0
 28 18  1  0
 27 21  1  0
  3 29  1  0
  4 30  1  0
  4 31  1  0
  8 32  1  0
  8 33  1  0
  9 34  1  0
  9 35  1  0
 10 36  1  0
 10 37  1  0
 11 38  1  6
 13 39  1  0
 14 40  1  0
 15 41  1  0
 16 42  1  0
 17 43  1  0
 19 44  1  0
 20 45  1  0
 22 46  1  0
 23 47  1  0
 26 48  1  0
M  END
>  <smiles>  (19) 
O=C(NCC(=O)N1CCC[C@H]1c1ccccc1)c1ccc2ccc(Cl)cc2n1

>  <score_type>  (19) 
oracle

>  <origin>  (19) 
autodockgpu

>  <m_score__min__energy>  (19) 
-8.4600000000000009

>  <m_primary>  (19) 
energy

>  <rmsd>  (19) 
7.361604417677854

>  <m_score__min__rmsd>  (19) 
7.361604417677854

>  <meeko>  (19) 
{"free_energy": -8.42, "intermolecular_energy": -9.91, "internal_energy": -1.55, "cluster_size": 9, "cluster_id": 1, "rank_in_cluster": 3}

>  <energy>  (19) 
-8.08

>  <cluster_rmsd>  (19) 
0.49

>  <cluster>  (19) 
2

$$$$

     RDKit          3D

 48 51  0  0  0  0  0  0  0  0999 V2000
  140.3500   74.5140  219.5330 O   0  0  0  0  0  0  0  0  0  0  0  0
  140.7590   74.2660  220.6910 C   0  0  0  0  0  0  0  0  0  0  0  0
  141.7120   75.2250  221.2230 N   0  0  0  0  0  0  0  0  0  0  0  0
  142.0500   76.3110  220.3560 C   0  0  0  0  0  0  0  0  0  0  0  0
  141.1760   77.4690  220.3040 C   0  0  0  0  0  0  0  0  0  0  0  0
  141.7100   78.5030  219.7140 O   0  0  0  0  0  0  0  0  0  0  0  0
  139.8710   77.6690  220.7680 N   0  0  0  0  0  0  0  0  0  0  0  0
  138.6140   76.9600  220.4560 C   0  0  0  0  0  0  0  0  0  0  0  0
  138.1490   76.6440  221.8460 C   0  0  0  0  0  0  0  0  0  0  0  0
  138.6490   77.7660  222.7200 C   0  0  0  0  0  0  0  0  0  0  0  0
  139.4030   78.6590  221.7530 C   0  0  1  0  0  0  0  0  0  0  0  0
  140.4580   79.4120  222.4280 C   0  0  0  0  0  0  0  0  0  0  0  0
  140.8440   80.6930  222.1650 C   0  0  0  0  0  0  0  0  0  0  0  0
  141.8470   81.3610  222.8340 C   0  0  0  0  0  0  0  0  0  0  0  0
  142.5220   80.7070  223.8460 C   0  0  0  0  0  0  0  0  0  0  0  0
  142.1620   79.4040  224.1470 C   0  0  0  0  0  0  0  0  0  0  0  0
  141.1500   78.7580  223.4580 C   0  0  0  0  0  0  0  0  0  0  0  0
  140.3340   73.1130  221.4750 C   0  0  0  0  0  0  0  0  0  0  0  0
  139.5730   72.1640  220.8300 C   0  0  0  0  0  0  0  0  0  0  0  0
  139.1780   71.0680  221.6050 C   0  0  0  0  0  0  0  0  0  0  0  0
  139.5450   70.9660  222.9420 C   0  0  0  0  0  0  0  0  0  0  0  0
  139.1590   69.8840  223.7250 C   0  0  0  0  0  0  0  0  0  0  0  0
  139.5340   69.7970  225.0610 C   0  0  0  0  0  0  0  0  0  0  0  0
  140.3030   70.8120  225.6120 C   0  0  0  0  0  0  0  0  0  0  0  0
  140.8110   70.7600  227.3050 Cl  0  0  0  0  0  0  0  0  0  0  0  0
  140.6990   71.8970  224.8620 C   0  0  0  0  0  0  0  0  0  0  0  0
  140.3170   71.9660  223.5310 C   0  0  0  0  0  0  0  0  0  0  0  0
  140.6820   73.0050  222.7700 N   0  0  0  0  0  0  0  0  0  0  0  0
  142.0880   75.0750  222.1850 H   0  0  0  0  0  0  0  0  0  0  0  0
  143.0435   76.6706  220.6622 H   0  0  0  0  0  0  0  0  0  0  0  0
  141.9731   75.8773  219.3480 H   0  0  0  0  0  0  0  0  0  0  0  0
  137.9011   77.6062  219.9229 H   0  0  0  0  0  0  0  0  0  0  0  0
  138.7226   76.0897  219.7920 H   0  0  0  0  0  0  0  0  0  0  0  0
  137.0506   76.5949  221.8791 H   0  0  0  0  0  0  0  0  0  0  0  0
  138.5308   75.6698  222.1855 H   0  0  0  0  0  0  0  0  0  0  0  0
  137.8107   78.3072  223.1830 H   0  0  0  0  0  0  0  0  0  0  0  0
  139.2738   77.4136  223.5539 H   0  0  0  0  0  0  0  0  0  0  0  0
  138.8165   79.4649  221.2876 H   0  0  0  0  0  0  0  0  0  0  0  0
  140.3180   81.2311  221.3626 H   0  0  0  0  0  0  0  0  0  0  0  0
  142.1052   82.3963  222.5667 H   0  0  0  0  0  0  0  0  0  0  0  0
  143.3278   81.2100  224.4007 H   0  0  0  0  0  0  0  0  0  0  0  0
  142.6914   78.8711  224.9506 H   0  0  0  0  0  0  0  0  0  0  0  0
  140.8862   77.7229  223.7205 H   0  0  0  0  0  0  0  0  0  0  0  0
  139.2928   72.2614  219.7708 H   0  0  0  0  0  0  0  0  0  0  0  0
  138.5675   70.2746  221.1492 H   0  0  0  0  0  0  0  0  0  0  0  0
  138.5477   69.0847  223.2808 H   0  0  0  0  0  0  0  0  0  0  0  0
  139.2255   68.9361  225.6723 H   0  0  0  0  0  0  0  0  0  0  0  0
  141.3080   72.6953  225.3113 H   0  0  0  0  0  0  0  0  0  0  0  0
  1  2  2  0
  2  3  1  0
  3  4  1  0
  4  5  1  0
  5  6  2  0
  5  7  1  0
  7  8  1  0
  8  9  1  0
  9 10  1  0
 10 11  1  0
 11 12  1  0
 12 13  2  0
 13 14  1  0
 14 15  2  0
 15 16  1  0
 16 17  2  0
  2 18  1  0
 18 19  2  0
 19 20  1  0
 20 21  2  0
 21 22  1  0
 22 23  2  0
 23 24  1  0
 24 25  1  0
 24 26  2  0
 26 27  1  0
 27 28  2  0
 11  7  1  0
 17 12  1  0
 28 18  1  0
 27 21  1  0
  3 29  1  0
  4 30  1  0
  4 31  1  0
  8 32  1  0
  8 33  1  0
  9 34  1  0
  9 35  1  0
 10 36  1  0
 10 37  1  0
 11 38  1  6
 13 39  1  0
 14 40  1  0
 15 41  1  0
 16 42  1  0
 17 43  1  0
 19 44  1  0
 20 45  1  0
 22 46  1  0
 23 47  1  0
 26 48  1  0
M  END
>  <smiles>  (20) 
O=C(NCC(=O)N1CCC[C@H]1c1ccccc1)c1ccc2ccc(Cl)cc2n1

>  <score_type>  (20) 
oracle

>  <origin>  (20) 
autodockgpu

>  <m_score__min__energy>  (20) 
-8.4600000000000009

>  <m_primary>  (20) 
energy

>  <rmsd>  (20) 
3.9307079082868195

>  <m_score__min__rmsd>  (20) 
3.9307079082868195

>  <meeko>  (20) 
{"free_energy": -7.3, "intermolecular_energy": -8.79, "internal_energy": -1.96, "cluster_size": 9, "cluster_id": 3, "rank_in_cluster": 7}

>  <energy>  (20) 
-8.03

>  <cluster_rmsd>  (20) 
1.73

>  <cluster>  (20) 
2

$$$$

     RDKit          3D

 48 51  0  0  0  0  0  0  0  0999 V2000
  140.0290   72.2300  220.4330 O   0  0  0  0  0  0  0  0  0  0  0  0
  139.5400   72.3190  221.5830 C   0  0  0  0  0  0  0  0  0  0  0  0
  139.0950   73.6500  221.9580 N   0  0  0  0  0  0  0  0  0  0  0  0
  139.2780   74.6680  220.9690 C   0  0  0  0  0  0  0  0  0  0  0  0
  140.5790   75.2990  220.8420 C   0  0  0  0  0  0  0  0  0  0  0  0
  141.2960   75.2480  221.9320 O   0  0  0  0  0  0  0  0  0  0  0  0
  141.1970   75.9450  219.7650 N   0  0  0  0  0  0  0  0  0  0  0  0
  140.8430   77.1870  219.0500 C   0  0  0  0  0  0  0  0  0  0  0  0
  142.1540   77.9090  219.1310 C   0  0  0  0  0  0  0  0  0  0  0  0
  143.2200   76.8430  219.1230 C   0  0  0  0  0  0  0  0  0  0  0  0
  142.4280   75.5500  219.0590 C   0  0  1  0  0  0  0  0  0  0  0  0
  143.1620   74.4390  219.6600 C   0  0  0  0  0  0  0  0  0  0  0  0
  142.7440   73.1460  219.7660 C   0  0  0  0  0  0  0  0  0  0  0  0
  143.4780   72.1310  220.3430 C   0  0  0  0  0  0  0  0  0  0  0  0
  144.7270   72.4220  220.8550 C   0  0  0  0  0  0  0  0  0  0  0  0
  145.1920   73.7240  220.7680 C   0  0  0  0  0  0  0  0  0  0  0  0
  144.4320   74.7230  220.1840 C   0  0  0  0  0  0  0  0  0  0  0  0
  139.4110   71.1950  222.5030 C   0  0  0  0  0  0  0  0  0  0  0  0
  138.7220   70.0930  222.0510 C   0  0  0  0  0  0  0  0  0  0  0  0
  138.6130   69.0290  222.9530 C   0  0  0  0  0  0  0  0  0  0  0  0
  139.1740   69.1050  224.2230 C   0  0  0  0  0  0  0  0  0  0  0  0
  139.0720   68.0560  225.1300 C   0  0  0  0  0  0  0  0  0  0  0  0
  139.6390   68.1480  226.3960 C   0  0  0  0  0  0  0  0  0  0  0  0
  140.3120   69.3090  226.7500 C   0  0  0  0  0  0  0  0  0  0  0  0
  141.0530   69.4870  228.3450 Cl  0  0  0  0  0  0  0  0  0  0  0  0
  140.4280   70.3640  225.8730 C   0  0  0  0  0  0  0  0  0  0  0  0
  139.8580   70.2540  224.6140 C   0  0  0  0  0  0  0  0  0  0  0  0
  139.9490   71.2590  223.7340 N   0  0  0  0  0  0  0  0  0  0  0  0
  138.6760   73.7900  222.9030 H   0  0  0  0  0  0  0  0  0  0  0  0
  139.0420   74.2166  219.9940 H   0  0  0  0  0  0  0  0  0  0  0  0
  138.6205   75.4835  221.3046 H   0  0  0  0  0  0  0  0  0  0  0  0
  140.5479   76.9899  218.0088 H   0  0  0  0  0  0  0  0  0  0  0  0
  139.9835   77.7342  219.4645 H   0  0  0  0  0  0  0  0  0  0  0  0
  142.2759   78.5772  218.2657 H   0  0  0  0  0  0  0  0  0  0  0  0
  142.2148   78.5311  220.0362 H   0  0  0  0  0  0  0  0  0  0  0  0
  143.8738   76.9474  218.2446 H   0  0  0  0  0  0  0  0  0  0  0  0
  143.8846   76.8953  219.9980 H   0  0  0  0  0  0  0  0  0  0  0  0
  142.2241   75.1611  218.0504 H   0  0  0  0  0  0  0  0  0  0  0  0
  141.7518   72.8945  219.3631 H   0  0  0  0  0  0  0  0  0  0  0  0
  143.0759   71.1084  220.3944 H   0  0  0  0  0  0  0  0  0  0  0  0
  145.3396   71.6367  221.3219 H   0  0  0  0  0  0  0  0  0  0  0  0
  146.1856   73.9692  221.1713 H   0  0  0  0  0  0  0  0  0  0  0  0
  144.8273   75.7481  220.1304 H   0  0  0  0  0  0  0  0  0  0  0  0
  138.2840   70.0512  221.0428 H   0  0  0  0  0  0  0  0  0  0  0  0
  138.0749   68.1178  222.6527 H   0  0  0  0  0  0  0  0  0  0  0  0
  138.5350   67.1403  224.8417 H   0  0  0  0  0  0  0  0  0  0  0  0
  139.5555   67.3127  227.1068 H   0  0  0  0  0  0  0  0  0  0  0  0
  140.9639   71.2788  226.1663 H   0  0  0  0  0  0  0  0  0  0  0  0
  1  2  2  0
  2  3  1  0
  3  4  1  0
  4  5  1  0
  5  6  2  0
  5  7  1  0
  7  8  1  0
  8  9  1  0
  9 10  1  0
 10 11  1  0
 11 12  1  0
 12 13  2  0
 13 14  1  0
 14 15  2  0
 15 16  1  0
 16 17  2  0
  2 18  1  0
 18 19  2  0
 19 20  1  0
 20 21  2  0
 21 22  1  0
 22 23  2  0
 23 24  1  0
 24 25  1  0
 24 26  2  0
 26 27  1  0
 27 28  2  0
 11  7  1  0
 17 12  1  0
 28 18  1  0
 27 21  1  0
  3 29  1  0
  4 30  1  0
  4 31  1  0
  8 32  1  0
  8 33  1  0
  9 34  1  0
  9 35  1  0
 10 36  1  0
 10 37  1  0
 11 38  1  6
 13 39  1  0
 14 40  1  0
 15 41  1  0
 16 42  1  0
 17 43  1  0
 19 44  1  0
 20 45  1  0
 22 46  1  0
 23 47  1  0
 26 48  1  0
M  END
>  <smiles>  (21) 
O=C(NCC(=O)N1CCC[C@H]1c1ccccc1)c1ccc2ccc(Cl)cc2n1

>  <score_type>  (21) 
oracle

>  <origin>  (21) 
autodockgpu

>  <m_score__min__energy>  (21) 
-8.4600000000000009

>  <m_primary>  (21) 
energy

>  <rmsd>  (21) 
2.1548317426067096

>  <m_score__min__rmsd>  (21) 
2.1548317426067096

>  <meeko>  (21) 
{"free_energy": -7.61, "intermolecular_energy": -9.1, "internal_energy": -1.7, "cluster_size": 4, "cluster_id": 5, "rank_in_cluster": 2}

>  <energy>  (21) 
-8.03

>  <cluster_rmsd>  (21) 
0.64

>  <cluster>  (21) 
2

$$$$

     RDKit          3D

 48 51  0  0  0  0  0  0  0  0999 V2000
  140.9690   74.0200  220.7070 O   0  0  0  0  0  0  0  0  0  0  0  0
  140.1570   74.3520  221.6010 C   0  0  0  0  0  0  0  0  0  0  0  0
  139.4740   73.2450  222.2490 N   0  0  0  0  0  0  0  0  0  0  0  0
  139.8210   71.9400  221.7790 C   0  0  0  0  0  0  0  0  0  0  0  0
  139.1840   70.7820  222.3800 C   0  0  0  0  0  0  0  0  0  0  0  0
  139.8590   69.6750  222.2310 O   0  0  0  0  0  0  0  0  0  0  0  0
  137.9840   70.6460  223.0880 N   0  0  0  0  0  0  0  0  0  0  0  0
  136.5810   70.7470  222.6420 C   0  0  0  0  0  0  0  0  0  0  0  0
  136.0500   69.4490  223.1720 C   0  0  0  0  0  0  0  0  0  0  0  0
  136.8400   69.1550  224.4230 C   0  0  0  0  0  0  0  0  0  0  0  0
  137.8080   70.3200  224.5140 C   0  0  1  0  0  0  0  0  0  0  0  0
  139.0300   69.9510  225.2250 C   0  0  0  0  0  0  0  0  0  0  0  0
  139.3810   68.7060  225.6550 C   0  0  0  0  0  0  0  0  0  0  0  0
  140.5500   68.4090  226.3220 C   0  0  0  0  0  0  0  0  0  0  0  0
  141.4440   69.4290  226.5820 C   0  0  0  0  0  0  0  0  0  0  0  0
  141.1280   70.7100  226.1630 C   0  0  0  0  0  0  0  0  0  0  0  0
  139.9450   70.9790  225.4950 C   0  0  0  0  0  0  0  0  0  0  0  0
  139.8900   75.7310  221.9880 C   0  0  0  0  0  0  0  0  0  0  0  0
  138.5760   76.1410  221.9780 C   0  0  0  0  0  0  0  0  0  0  0  0
  138.3480   77.4700  222.3530 C   0  0  0  0  0  0  0  0  0  0  0  0
  139.4000   78.3040  222.7110 C   0  0  0  0  0  0  0  0  0  0  0  0
  139.1890   79.6260  223.0850 C   0  0  0  0  0  0  0  0  0  0  0  0
  140.2530   80.4480  223.4400 C   0  0  0  0  0  0  0  0  0  0  0  0
  141.5410   79.9320  223.4160 C   0  0  0  0  0  0  0  0  0  0  0  0
  142.9350   80.9270  223.8560 Cl  0  0  0  0  0  0  0  0  0  0  0  0
  141.7810   78.6270  223.0490 C   0  0  0  0  0  0  0  0  0  0  0  0
  140.7080   77.8220  222.6990 C   0  0  0  0  0  0  0  0  0  0  0  0
  140.9010   76.5480  222.3360 N   0  0  0  0  0  0  0  0  0  0  0  0
  138.7860   73.4550  223.0050 H   0  0  0  0  0  0  0  0  0  0  0  0
  139.5901   71.9129  220.7038 H   0  0  0  0  0  0  0  0  0  0  0  0
  140.8796   71.8326  222.0578 H   0  0  0  0  0  0  0  0  0  0  0  0
  136.0703   71.6116  223.0911 H   0  0  0  0  0  0  0  0  0  0  0  0
  136.4465   70.8976  221.5607 H   0  0  0  0  0  0  0  0  0  0  0  0
  134.9799   69.5423  223.4091 H   0  0  0  0  0  0  0  0  0  0  0  0
  136.1515   68.6408  222.4327 H   0  0  0  0  0  0  0  0  0  0  0  0
  136.1824   69.1207  225.3041 H   0  0  0  0  0  0  0  0  0  0  0  0
  137.3466   68.1792  224.3898 H   0  0  0  0  0  0  0  0  0  0  0  0
  137.4639   71.1850  225.1000 H   0  0  0  0  0  0  0  0  0  0  0  0
  138.6821   67.8803  225.4556 H   0  0  0  0  0  0  0  0  0  0  0  0
  140.7668   67.3789  226.6412 H   0  0  0  0  0  0  0  0  0  0  0  0
  142.3873   69.2278  227.1109 H   0  0  0  0  0  0  0  0  0  0  0  0
  141.8312   71.5314  226.3648 H   0  0  0  0  0  0  0  0  0  0  0  0
  139.7213   72.0070  225.1737 H   0  0  0  0  0  0  0  0  0  0  0  0
  137.7558   75.4658  221.6929 H   0  0  0  0  0  0  0  0  0  0  0  0
  137.3197   77.8604  222.3645 H   0  0  0  0  0  0  0  0  0  0  0  0
  138.1652   80.0279  223.1004 H   0  0  0  0  0  0  0  0  0  0  0  0
  140.0762   81.4926  223.7357 H   0  0  0  0  0  0  0  0  0  0  0  0
  142.8067   78.2298  223.0337 H   0  0  0  0  0  0  0  0  0  0  0  0
  1  2  2  0
  2  3  1  0
  3  4  1  0
  4  5  1  0
  5  6  2  0
  5  7  1  0
  7  8  1  0
  8  9  1  0
  9 10  1  0
 10 11  1  0
 11 12  1  0
 12 13  2  0
 13 14  1  0
 14 15  2  0
 15 16  1  0
 16 17  2  0
  2 18  1  0
 18 19  2  0
 19 20  1  0
 20 21  2  0
 21 22  1  0
 22 23  2  0
 23 24  1  0
 24 25  1  0
 24 26  2  0
 26 27  1  0
 27 28  2  0
 11  7  1  0
 17 12  1  0
 28 18  1  0
 27 21  1  0
  3 29  1  0
  4 30  1  0
  4 31  1  0
  8 32  1  0
  8 33  1  0
  9 34  1  0
  9 35  1  0
 10 36  1  0
 10 37  1  0
 11 38  1  1
 13 39  1  0
 14 40  1  0
 15 41  1  0
 16 42  1  0
 17 43  1  0
 19 44  1  0
 20 45  1  0
 22 46  1  0
 23 47  1  0
 26 48  1  0
M  END
>  <smiles>  (22) 
O=C(NCC(=O)N1CCC[C@H]1c1ccccc1)c1ccc2ccc(Cl)cc2n1

>  <score_type>  (22) 
oracle

>  <origin>  (22) 
autodockgpu

>  <m_score__min__energy>  (22) 
-8.4600000000000009

>  <m_primary>  (22) 
energy

>  <rmsd>  (22) 
8.027287056679807

>  <m_score__min__rmsd>  (22) 
8.027287056679807

>  <meeko>  (22) 
{"free_energy": -8.09, "intermolecular_energy": -9.58, "internal_energy": -1.27, "cluster_size": 15, "cluster_id": 2, "rank_in_cluster": 8}

>  <energy>  (22) 
-7.8

>  <cluster_rmsd>  (22) 
1.58

>  <cluster>  (22) 
2

$$$$

     RDKit          3D

 48 51  0  0  0  0  0  0  0  0999 V2000
  141.2130   72.6670  221.1160 O   0  0  0  0  0  0  0  0  0  0  0  0
  140.4940   73.5440  221.6480 C   0  0  0  0  0  0  0  0  0  0  0  0
  139.3790   73.0340  222.4260 N   0  0  0  0  0  0  0  0  0  0  0  0
  139.2560   71.6090  222.4750 C   0  0  0  0  0  0  0  0  0  0  0  0
  138.3690   71.0130  223.4570 C   0  0  0  0  0  0  0  0  0  0  0  0
  137.5300   71.8600  223.9890 O   0  0  0  0  0  0  0  0  0  0  0  0
  138.2530   69.7010  223.9290 N   0  0  0  0  0  0  0  0  0  0  0  0
  137.6650   68.4980  223.3070 C   0  0  0  0  0  0  0  0  0  0  0  0
  138.8120   67.5460  223.4590 C   0  0  0  0  0  0  0  0  0  0  0  0
  139.5280   67.9530  224.7230 C   0  0  0  0  0  0  0  0  0  0  0  0
  138.7360   69.1530  225.2080 C   0  0  1  0  0  0  0  0  0  0  0  0
  139.5640   70.0590  226.0000 C   0  0  0  0  0  0  0  0  0  0  0  0
  140.4500   70.9810  225.5280 C   0  0  0  0  0  0  0  0  0  0  0  0
  141.2080   71.8170  226.3200 C   0  0  0  0  0  0  0  0  0  0  0  0
  141.0770   71.7320  227.6920 C   0  0  0  0  0  0  0  0  0  0  0  0
  140.1870   70.8090  228.2160 C   0  0  0  0  0  0  0  0  0  0  0  0
  139.4390   69.9820  227.3950 C   0  0  0  0  0  0  0  0  0  0  0  0
  140.7280   74.9770  221.5170 C   0  0  0  0  0  0  0  0  0  0  0  0
  141.6800   75.3750  220.6070 C   0  0  0  0  0  0  0  0  0  0  0  0
  141.8850   76.7560  220.5010 C   0  0  0  0  0  0  0  0  0  0  0  0
  141.1580   77.6500  221.2790 C   0  0  0  0  0  0  0  0  0  0  0  0
  141.3500   79.0230  221.1860 C   0  0  0  0  0  0  0  0  0  0  0  0
  140.6150   79.9040  221.9710 C   0  0  0  0  0  0  0  0  0  0  0  0
  139.6780   79.3940  222.8580 C   0  0  0  0  0  0  0  0  0  0  0  0
  138.7120   80.4620  223.8830 Cl  0  0  0  0  0  0  0  0  0  0  0  0
  139.4650   78.0390  222.9730 C   0  0  0  0  0  0  0  0  0  0  0  0
  140.2070   77.1750  222.1820 C   0  0  0  0  0  0  0  0  0  0  0  0
  140.0290   75.8510  222.2650 N   0  0  0  0  0  0  0  0  0  0  0  0
  138.7430   73.7150  222.8960 H   0  0  0  0  0  0  0  0  0  0  0  0
  138.9072   71.2813  221.4846 H   0  0  0  0  0  0  0  0  0  0  0  0
  140.2560   71.2681  222.7813 H   0  0  0  0  0  0  0  0  0  0  0  0
  136.7720   68.1524  223.8485 H   0  0  0  0  0  0  0  0  0  0  0  0
  137.3074   68.6349  222.2758 H   0  0  0  0  0  0  0  0  0  0  0  0
  138.4425   66.5135  223.5450 H   0  0  0  0  0  0  0  0  0  0  0  0
  139.4825   67.5818  222.5877 H   0  0  0  0  0  0  0  0  0  0  0  0
  139.5068   67.1417  225.4655 H   0  0  0  0  0  0  0  0  0  0  0  0
  140.5918   68.1797  224.5588 H   0  0  0  0  0  0  0  0  0  0  0  0
  137.9139   68.9353  225.9057 H   0  0  0  0  0  0  0  0  0  0  0  0
  140.5687   71.0640  224.4376 H   0  0  0  0  0  0  0  0  0  0  0  0
  141.9042   72.5384  225.8674 H   0  0  0  0  0  0  0  0  0  0  0  0
  141.6665   72.3830  228.3543 H   0  0  0  0  0  0  0  0  0  0  0  0
  140.0720   70.7313  229.3072 H   0  0  0  0  0  0  0  0  0  0  0  0
  138.7407   69.2583  227.8407 H   0  0  0  0  0  0  0  0  0  0  0  0
  142.2454   74.6526  220.0000 H   0  0  0  0  0  0  0  0  0  0  0  0
  142.6328   77.1396  219.7913 H   0  0  0  0  0  0  0  0  0  0  0  0
  142.0951   79.4190  220.4803 H   0  0  0  0  0  0  0  0  0  0  0  0
  140.7740   80.9894  221.8901 H   0  0  0  0  0  0  0  0  0  0  0  0
  138.7188   77.6482  223.6804 H   0  0  0  0  0  0  0  0  0  0  0  0
  1  2  2  0
  2  3  1  0
  3  4  1  0
  4  5  1  0
  5  6  2  0
  5  7  1  0
  7  8  1  0
  8  9  1  0
  9 10  1  0
 10 11  1  0
 11 12  1  0
 12 13  2  0
 13 14  1  0
 14 15  2  0
 15 16  1  0
 16 17  2  0
  2 18  1  0
 18 19  2  0
 19 20  1  0
 20 21  2  0
 21 22  1  0
 22 23  2  0
 23 24  1  0
 24 25  1  0
 24 26  2  0
 26 27  1  0
 27 28  2  0
 11  7  1  0
 17 12  1  0
 28 18  1  0
 27 21  1  0
  3 29  1  0
  4 30  1  0
  4 31  1  0
  8 32  1  0
  8 33  1  0
  9 34  1  0
  9 35  1  0
 10 36  1  0
 10 37  1  0
 11 38  1  1
 13 39  1  0
 14 40  1  0
 15 41  1  0
 16 42  1  0
 17 43  1  0
 19 44  1  0
 20 45  1  0
 22 46  1  0
 23 47  1  0
 26 48  1  0
M  END
>  <smiles>  (23) 
O=C(NCC(=O)N1CCC[C@H]1c1ccccc1)c1ccc2ccc(Cl)cc2n1

>  <score_type>  (23) 
oracle

>  <origin>  (23) 
autodockgpu

>  <m_score__min__energy>  (23) 
-8.4600000000000009

>  <m_primary>  (23) 
energy

>  <rmsd>  (23) 
8.4216763293211

>  <m_score__min__rmsd>  (23) 
8.4216763293211

>  <meeko>  (23) 
{"free_energy": -8.08, "intermolecular_energy": -9.57, "internal_energy": -1.64, "cluster_size": 15, "cluster_id": 2, "rank_in_cluster": 10}

>  <energy>  (23) 
-7.75

>  <cluster_rmsd>  (23) 
0.91

>  <cluster>  (23) 
2

$$$$

     RDKit          3D

 48 51  0  0  0  0  0  0  0  0999 V2000
  141.4390   72.4990  220.8490 O   0  0  0  0  0  0  0  0  0  0  0  0
  140.8790   73.4090  221.5030 C   0  0  0  0  0  0  0  0  0  0  0  0
  139.9390   72.9510  222.5100 N   0  0  0  0  0  0  0  0  0  0  0  0
  139.7810   71.5330  222.6140 C   0  0  0  0  0  0  0  0  0  0  0  0
  138.6870   71.0020  223.4060 C   0  0  0  0  0  0  0  0  0  0  0  0
  137.7860   71.8930  223.7200 O   0  0  0  0  0  0  0  0  0  0  0  0
  138.4280   69.7140  223.8870 N   0  0  0  0  0  0  0  0  0  0  0  0
  137.7990   68.5470  223.2380 C   0  0  0  0  0  0  0  0  0  0  0  0
  138.8500   67.5120  223.5020 C   0  0  0  0  0  0  0  0  0  0  0  0
  139.4890   67.8900  224.8140 C   0  0  0  0  0  0  0  0  0  0  0  0
  138.7590   69.1590  225.2110 C   0  0  1  0  0  0  0  0  0  0  0  0
  139.5890   70.0160  226.0560 C   0  0  0  0  0  0  0  0  0  0  0  0
  140.5760   70.8600  225.6440 C   0  0  0  0  0  0  0  0  0  0  0  0
  141.3310   71.6510  226.4830 C   0  0  0  0  0  0  0  0  0  0  0  0
  141.0860   71.6010  227.8420 C   0  0  0  0  0  0  0  0  0  0  0  0
  140.0920   70.7570  228.3050 C   0  0  0  0  0  0  0  0  0  0  0  0
  139.3490   69.9730  227.4370 C   0  0  0  0  0  0  0  0  0  0  0  0
  141.1280   74.8310  221.2960 C   0  0  0  0  0  0  0  0  0  0  0  0
  142.0010   75.1730  220.2890 C   0  0  0  0  0  0  0  0  0  0  0  0
  142.2220   76.5430  220.1120 C   0  0  0  0  0  0  0  0  0  0  0  0
  141.5860   77.4820  220.9170 C   0  0  0  0  0  0  0  0  0  0  0  0
  141.7970   78.8460  220.7530 C   0  0  0  0  0  0  0  0  0  0  0  0
  141.1520   79.7720  221.5660 C   0  0  0  0  0  0  0  0  0  0  0  0
  140.2900   79.3170  222.5530 C   0  0  0  0  0  0  0  0  0  0  0  0
  139.4420   80.4440  223.6190 Cl  0  0  0  0  0  0  0  0  0  0  0  0
  140.0630   77.9720  222.7400 C   0  0  0  0  0  0  0  0  0  0  0  0
  140.7130   77.0630  221.9190 C   0  0  0  0  0  0  0  0  0  0  0  0
  140.5180   75.7470  222.0690 N   0  0  0  0  0  0  0  0  0  0  0  0
  139.4420   73.6610  223.0910 H   0  0  0  0  0  0  0  0  0  0  0  0
  139.6554   71.1471  221.5916 H   0  0  0  0  0  0  0  0  0  0  0  0
  140.6809   71.2070  223.1561 H   0  0  0  0  0  0  0  0  0  0  0  0
  136.8396   68.2851  223.7081 H   0  0  0  0  0  0  0  0  0  0  0  0
  137.5396   68.6873  222.1783 H   0  0  0  0  0  0  0  0  0  0  0  0
  138.3934   66.5138  223.5734 H   0  0  0  0  0  0  0  0  0  0  0  0
  139.5911   67.4756  222.6899 H   0  0  0  0  0  0  0  0  0  0  0  0
  139.3414   67.1001  225.5652 H   0  0  0  0  0  0  0  0  0  0  0  0
  140.5775   68.0285  224.7362 H   0  0  0  0  0  0  0  0  0  0  0  0
  137.8676   69.0224  225.8408 H   0  0  0  0  0  0  0  0  0  0  0  0
  140.7851   70.9139  224.5654 H   0  0  0  0  0  0  0  0  0  0  0  0
  142.1137   72.3096  226.0785 H   0  0  0  0  0  0  0  0  0  0  0  0
  141.6688   72.2190  228.5409 H   0  0  0  0  0  0  0  0  0  0  0  0
  139.8874   70.7074  229.3847 H   0  0  0  0  0  0  0  0  0  0  0  0
  138.5648   69.3118  227.8343 H   0  0  0  0  0  0  0  0  0  0  0  0
  142.4946   74.4160  219.6619 H   0  0  0  0  0  0  0  0  0  0  0  0
  142.9097   76.8829  219.3236 H   0  0  0  0  0  0  0  0  0  0  0  0
  142.4838   79.1981  219.9692 H   0  0  0  0  0  0  0  0  0  0  0  0
  141.3230   80.8499  221.4283 H   0  0  0  0  0  0  0  0  0  0  0  0
  139.3778   77.6244  223.5272 H   0  0  0  0  0  0  0  0  0  0  0  0
  1  2  2  0
  2  3  1  0
  3  4  1  0
  4  5  1  0
  5  6  2  0
  5  7  1  0
  7  8  1  0
  8  9  1  0
  9 10  1  0
 10 11  1  0
 11 12  1  0
 12 13  2  0
 13 14  1  0
 14 15  2  0
 15 16  1  0
 16 17  2  0
  2 18  1  0
 18 19  2  0
 19 20  1  0
 20 21  2  0
 21 22  1  0
 22 23  2  0
 23 24  1  0
 24 25  1  0
 24 26  2  0
 26 27  1  0
 27 28  2  0
 11  7  1  0
 17 12  1  0
 28 18  1  0
 27 21  1  0
  3 29  1  0
  4 30  1  0
  4 31  1  0
  8 32  1  0
  8 33  1  0
  9 34  1  0
  9 35  1  0
 10 36  1  0
 10 37  1  0
 11 38  1  1
 13 39  1  0
 14 40  1  0
 15 41  1  0
 16 42  1  0
 17 43  1  0
 19 44  1  0
 20 45  1  0
 22 46  1  0
 23 47  1  0
 26 48  1  0
M  END
>  <smiles>  (24) 
O=C(NCC(=O)N1CCC[C@H]1c1ccccc1)c1ccc2ccc(Cl)cc2n1

>  <score_type>  (24) 
oracle

>  <origin>  (24) 
autodockgpu

>  <m_score__min__energy>  (24) 
-8.4600000000000009

>  <m_primary>  (24) 
energy

>  <rmsd>  (24) 
8.46810460525082

>  <m_score__min__rmsd>  (24) 
8.46810460525082

>  <meeko>  (24) 
{"free_energy": -8.27, "intermolecular_energy": -9.76, "internal_energy": -1.53, "cluster_size": 15, "cluster_id": 2, "rank_in_cluster": 3}

>  <energy>  (24) 
-7.33

>  <cluster_rmsd>  (24) 
1.89

>  <cluster>  (24) 
2

$$$$

     RDKit          3D

 48 51  0  0  0  0  0  0  0  0999 V2000
  141.6670   72.7600  221.9260 O   0  0  0  0  0  0  0  0  0  0  0  0
  140.5430   72.6460  222.4680 C   0  0  0  0  0  0  0  0  0  0  0  0
  139.6740   73.8010  222.3250 N   0  0  0  0  0  0  0  0  0  0  0  0
  140.2190   74.9020  221.5930 C   0  0  0  0  0  0  0  0  0  0  0  0
  140.4860   74.7420  220.1750 C   0  0  0  0  0  0  0  0  0  0  0  0
  140.0140   73.6330  219.6750 O   0  0  0  0  0  0  0  0  0  0  0  0
  141.1510   75.5620  219.2570 N   0  0  0  0  0  0  0  0  0  0  0  0
  140.7110   76.7810  218.5520 C   0  0  0  0  0  0  0  0  0  0  0  0
  141.8440   77.6990  218.8980 C   0  0  0  0  0  0  0  0  0  0  0  0
  143.0660   76.8240  219.0270 C   0  0  0  0  0  0  0  0  0  0  0  0
  142.5330   75.4290  218.7620 C   0  0  1  0  0  0  0  0  0  0  0  0
  143.3380   74.4090  219.4290 C   0  0  0  0  0  0  0  0  0  0  0  0
  143.1560   73.0590  219.3760 C   0  0  0  0  0  0  0  0  0  0  0  0
  143.9480   72.1360  220.0250 C   0  0  0  0  0  0  0  0  0  0  0  0
  145.0070   72.5880  220.7880 C   0  0  0  0  0  0  0  0  0  0  0  0
  145.2300   73.9520  220.8700 C   0  0  0  0  0  0  0  0  0  0  0  0
  144.4170   74.8560  220.2070 C   0  0  0  0  0  0  0  0  0  0  0  0
  140.1060   71.4590  223.1930 C   0  0  0  0  0  0  0  0  0  0  0  0
  139.1780   70.6540  222.5730 C   0  0  0  0  0  0  0  0  0  0  0  0
  138.7750   69.5220  223.2910 C   0  0  0  0  0  0  0  0  0  0  0  0
  139.2950   69.2500  224.5520 C   0  0  0  0  0  0  0  0  0  0  0  0
  138.9040   68.1310  225.2770 C   0  0  0  0  0  0  0  0  0  0  0  0
  139.4340   67.8730  226.5360 C   0  0  0  0  0  0  0  0  0  0  0  0
  140.3650   68.7530  227.0680 C   0  0  0  0  0  0  0  0  0  0  0  0
  141.0750   68.4800  228.6640 Cl  0  0  0  0  0  0  0  0  0  0  0  0
  140.7710   69.8710  226.3740 C   0  0  0  0  0  0  0  0  0  0  0  0
  140.2330   70.1110  225.1190 C   0  0  0  0  0  0  0  0  0  0  0  0
  140.6030   71.1870  224.4130 N   0  0  0  0  0  0  0  0  0  0  0  0
  138.7230   73.7670  222.7520 H   0  0  0  0  0  0  0  0  0  0  0  0
  139.5121   75.7385  221.6954 H   0  0  0  0  0  0  0  0  0  0  0  0
  141.2164   75.0441  222.0346 H   0  0  0  0  0  0  0  0  0  0  0  0
  140.6319   76.6199  217.4667 H   0  0  0  0  0  0  0  0  0  0  0  0
  139.7128   77.1470  218.8344 H   0  0  0  0  0  0  0  0  0  0  0  0
  141.9895   78.4432  218.1011 H   0  0  0  0  0  0  0  0  0  0  0  0
  141.6446   78.2510  219.8283 H   0  0  0  0  0  0  0  0  0  0  0  0
  143.8282   77.1013  218.2839 H   0  0  0  0  0  0  0  0  0  0  0  0
  143.5568   76.9158  220.0071 H   0  0  0  0  0  0  0  0  0  0  0  0
  142.5709   75.0919  217.7156 H   0  0  0  0  0  0  0  0  0  0  0  0
  142.3181   72.6794  218.7728 H   0  0  0  0  0  0  0  0  0  0  0  0
  143.7404   71.0594  219.9369 H   0  0  0  0  0  0  0  0  0  0  0  0
  145.6594   71.8793  221.3192 H   0  0  0  0  0  0  0  0  0  0  0  0
  146.0701   74.3252  221.4741 H   0  0  0  0  0  0  0  0  0  0  0  0
  144.6188   75.9341  220.2909 H   0  0  0  0  0  0  0  0  0  0  0  0
  138.7777   70.8857  221.5750 H   0  0  0  0  0  0  0  0  0  0  0  0
  138.0354   68.8368  222.8510 H   0  0  0  0  0  0  0  0  0  0  0  0
  138.1641   67.4390  224.8484 H   0  0  0  0  0  0  0  0  0  0  0  0
  139.1196   66.9838  227.1022 H   0  0  0  0  0  0  0  0  0  0  0  0
  141.5092   70.5615  226.8078 H   0  0  0  0  0  0  0  0  0  0  0  0
  1  2  2  0
  2  3  1  0
  3  4  1  0
  4  5  1  0
  5  6  2  0
  5  7  1  0
  7  8  1  0
  8  9  1  0
  9 10  1  0
 10 11  1  0
 11 12  1  0
 12 13  2  0
 13 14  1  0
 14 15  2  0
 15 16  1  0
 16 17  2  0
  2 18  1  0
 18 19  2  0
 19 20  1  0
 20 21  2  0
 21 22  1  0
 22 23  2  0
 23 24  1  0
 24 25  1  0
 24 26  2  0
 26 27  1  0
 27 28  2  0
 11  7  1  0
 17 12  1  0
 28 18  1  0
 27 21  1  0
  3 29  1  0
  4 30  1  0
  4 31  1  0
  8 32  1  0
  8 33  1  0
  9 34  1  0
  9 35  1  0
 10 36  1  0
 10 37  1  0
 11 38  1  6
 13 39  1  0
 14 40  1  0
 15 41  1  0
 16 42  1  0
 17 43  1  0
 19 44  1  0
 20 45  1  0
 22 46  1  0
 23 47  1  0
 26 48  1  0
M  END
>  <smiles>  (25) 
O=C(NCC(=O)N1CCC[C@H]1c1ccccc1)c1ccc2ccc(Cl)cc2n1

>  <score_type>  (25) 
oracle

>  <origin>  (25) 
autodockgpu

>  <m_score__min__energy>  (25) 
-8.4600000000000009

>  <m_primary>  (25) 
energy

>  <rmsd>  (25) 
2.4099280632616704

>  <m_score__min__rmsd>  (25) 
2.4099280632616704

>  <meeko>  (25) 
{"free_energy": -7.63, "intermolecular_energy": -9.12, "internal_energy": -1.61, "cluster_size": 4, "cluster_id": 5, "rank_in_cluster": 1}

>  <energy>  (25) 
-8.26

>  <cluster_rmsd>  (25) 
0.0

>  <cluster>  (25) 
3

$$$$

     RDKit          3D

 48 51  0  0  0  0  0  0  0  0999 V2000
  140.3970   74.3890  219.4990 O   0  0  0  0  0  0  0  0  0  0  0  0
  140.7880   74.1700  220.6690 C   0  0  0  0  0  0  0  0  0  0  0  0
  141.7230   75.1500  221.1960 N   0  0  0  0  0  0  0  0  0  0  0  0
  142.0650   76.2200  220.3100 C   0  0  0  0  0  0  0  0  0  0  0  0
  141.2350   77.4110  220.2920 C   0  0  0  0  0  0  0  0  0  0  0  0
  141.8090   78.4400  219.7310 O   0  0  0  0  0  0  0  0  0  0  0  0
  139.9400   77.6470  220.7630 N   0  0  0  0  0  0  0  0  0  0  0  0
  138.6630   76.9670  220.4660 C   0  0  0  0  0  0  0  0  0  0  0  0
  138.2000   76.6740  221.8610 C   0  0  0  0  0  0  0  0  0  0  0  0
  138.7330   77.7910  222.7220 C   0  0  0  0  0  0  0  0  0  0  0  0
  139.5030   78.6570  221.7430 C   0  0  1  0  0  0  0  0  0  0  0  0
  140.5810   79.3900  222.4030 C   0  0  0  0  0  0  0  0  0  0  0  0
  141.5060   78.8820  223.2660 C   0  0  0  0  0  0  0  0  0  0  0  0
  142.5070   79.6180  223.8620 C   0  0  0  0  0  0  0  0  0  0  0  0
  142.5990   80.9670  223.5810 C   0  0  0  0  0  0  0  0  0  0  0  0
  141.6790   81.5260  222.7100 C   0  0  0  0  0  0  0  0  0  0  0  0
  140.6830   80.7610  222.1260 C   0  0  0  0  0  0  0  0  0  0  0  0
  140.3610   73.0300  221.4710 C   0  0  0  0  0  0  0  0  0  0  0  0
  139.6100   72.0660  220.8380 C   0  0  0  0  0  0  0  0  0  0  0  0
  139.2130   70.9830  221.6310 C   0  0  0  0  0  0  0  0  0  0  0  0
  139.5690   70.9080  222.9720 C   0  0  0  0  0  0  0  0  0  0  0  0
  139.1810   69.8390  223.7720 C   0  0  0  0  0  0  0  0  0  0  0  0
  139.5450   69.7790  225.1130 C   0  0  0  0  0  0  0  0  0  0  0  0
  140.3060   70.8070  225.6510 C   0  0  0  0  0  0  0  0  0  0  0  0
  140.8000   70.7890  227.3480 Cl  0  0  0  0  0  0  0  0  0  0  0  0
  140.7040   71.8790  224.8840 C   0  0  0  0  0  0  0  0  0  0  0  0
  140.3320   71.9220  223.5480 C   0  0  0  0  0  0  0  0  0  0  0  0
  140.7000   72.9480  222.7710 N   0  0  0  0  0  0  0  0  0  0  0  0
  142.0850   75.0250  222.1660 H   0  0  0  0  0  0  0  0  0  0  0  0
  143.0842   76.5412  220.5707 H   0  0  0  0  0  0  0  0  0  0  0  0
  141.9275   75.7873  219.3081 H   0  0  0  0  0  0  0  0  0  0  0  0
  137.9627   77.6265  219.9325 H   0  0  0  0  0  0  0  0  0  0  0  0
  138.7452   76.0887  219.8088 H   0  0  0  0  0  0  0  0  0  0  0  0
  137.1010   76.6518  221.9017 H   0  0  0  0  0  0  0  0  0  0  0  0
  138.5602   75.6937  222.2063 H   0  0  0  0  0  0  0  0  0  0  0  0
  137.9111   78.3567  223.1851 H   0  0  0  0  0  0  0  0  0  0  0  0
  139.3542   77.4304  223.5551 H   0  0  0  0  0  0  0  0  0  0  0  0
  138.9331   79.4735  221.2756 H   0  0  0  0  0  0  0  0  0  0  0  0
  141.4493   77.8094  223.5032 H   0  0  0  0  0  0  0  0  0  0  0  0
  143.2201   79.1395  224.5494 H   0  0  0  0  0  0  0  0  0  0  0  0
  143.3860   81.5840  224.0391 H   0  0  0  0  0  0  0  0  0  0  0  0
  141.7405   82.5993  222.4772 H   0  0  0  0  0  0  0  0  0  0  0  0
  139.9655   81.2331  221.4387 H   0  0  0  0  0  0  0  0  0  0  0  0
  139.3385   72.1419  219.7747 H   0  0  0  0  0  0  0  0  0  0  0  0
  138.6095   70.1785  221.1854 H   0  0  0  0  0  0  0  0  0  0  0  0
  138.5771   69.0286  223.3378 H   0  0  0  0  0  0  0  0  0  0  0  0
  139.2341   68.9289  225.7381 H   0  0  0  0  0  0  0  0  0  0  0  0
  141.3067   72.6877  225.3230 H   0  0  0  0  0  0  0  0  0  0  0  0
  1  2  2  0
  2  3  1  0
  3  4  1  0
  4  5  1  0
  5  6  2  0
  5  7  1  0
  7  8  1  0
  8  9  1  0
  9 10  1  0
 10 11  1  0
 11 12  1  0
 12 13  2  0
 13 14  1  0
 14 15  2  0
 15 16  1  0
 16 17  2  0
  2 18  1  0
 18 19  2  0
 19 20  1  0
 20 21  2  0
 21 22  1  0
 22 23  2  0
 23 24  1  0
 24 25  1  0
 24 26  2  0
 26 27  1  0
 27 28  2  0
 11  7  1  0
 17 12  1  0
 28 18  1  0
 27 21  1  0
  3 29  1  0
  4 30  1  0
  4 31  1  0
  8 32  1  0
  8 33  1  0
  9 34  1  0
  9 35  1  0
 10 36  1  0
 10 37  1  0
 11 38  1  6
 13 39  1  0
 14 40  1  0
 15 41  1  0
 16 42  1  0
 17 43  1  0
 19 44  1  0
 20 45  1  0
 22 46  1  0
 23 47  1  0
 26 48  1  0
M  END
>  <smiles>  (26) 
O=C(NCC(=O)N1CCC[C@H]1c1ccccc1)c1ccc2ccc(Cl)cc2n1

>  <score_type>  (26) 
oracle

>  <origin>  (26) 
autodockgpu

>  <m_score__min__energy>  (26) 
-8.4600000000000009

>  <m_primary>  (26) 
energy

>  <rmsd>  (26) 
3.8906169474349346

>  <m_score__min__rmsd>  (26) 
3.8906169474349346

>  <meeko>  (26) 
{"free_energy": -7.3, "intermolecular_energy": -8.8, "internal_energy": -1.91, "cluster_size": 9, "cluster_id": 3, "rank_in_cluster": 6}

>  <energy>  (26) 
-8.21

>  <cluster_rmsd>  (26) 
0.2

>  <cluster>  (26) 
3

$$$$

     RDKit          3D

 48 51  0  0  0  0  0  0  0  0999 V2000
  135.0330   68.4620  225.0480 O   0  0  0  0  0  0  0  0  0  0  0  0
  135.1620   69.7070  224.9900 C   0  0  0  0  0  0  0  0  0  0  0  0
  136.3130   70.1690  224.2340 N   0  0  0  0  0  0  0  0  0  0  0  0
  137.1350   69.1460  223.6670 C   0  0  0  0  0  0  0  0  0  0  0  0
  138.5270   69.0560  224.0710 C   0  0  0  0  0  0  0  0  0  0  0  0
  138.8120   67.9660  224.7300 O   0  0  0  0  0  0  0  0  0  0  0  0
  139.6070   69.9230  223.8790 N   0  0  0  0  0  0  0  0  0  0  0  0
  139.9670   70.7820  222.7330 C   0  0  0  0  0  0  0  0  0  0  0  0
  140.1420   72.0920  223.4410 C   0  0  0  0  0  0  0  0  0  0  0  0
  140.6370   71.7560  224.8260 C   0  0  0  0  0  0  0  0  0  0  0  0
  140.6930   70.2400  224.8240 C   0  0  1  0  0  0  0  0  0  0  0  0
  140.5260   69.6940  226.1690 C   0  0  0  0  0  0  0  0  0  0  0  0
  139.8020   70.2380  227.1890 C   0  0  0  0  0  0  0  0  0  0  0  0
  139.6750   69.6800  228.4430 C   0  0  0  0  0  0  0  0  0  0  0  0
  140.3160   68.4850  228.7070 C   0  0  0  0  0  0  0  0  0  0  0  0
  141.0620   67.8970  227.7000 C   0  0  0  0  0  0  0  0  0  0  0  0
  141.1720   68.4810  226.4500 C   0  0  0  0  0  0  0  0  0  0  0  0
  134.2460   70.6500  225.6210 C   0  0  0  0  0  0  0  0  0  0  0  0
  133.1370   70.1240  226.2430 C   0  0  0  0  0  0  0  0  0  0  0  0
  132.2750   71.0510  226.8400 C   0  0  0  0  0  0  0  0  0  0  0  0
  132.5450   72.4140  226.7940 C   0  0  0  0  0  0  0  0  0  0  0  0
  131.6980   73.3460  227.3810 C   0  0  0  0  0  0  0  0  0  0  0  0
  131.9820   74.7060  227.3260 C   0  0  0  0  0  0  0  0  0  0  0  0
  133.1300   75.1290  226.6720 C   0  0  0  0  0  0  0  0  0  0  0  0
  133.5450   76.8440  226.5670 Cl  0  0  0  0  0  0  0  0  0  0  0  0
  133.9870   74.2290  226.0790 C   0  0  0  0  0  0  0  0  0  0  0  0
  133.6890   72.8760  226.1450 C   0  0  0  0  0  0  0  0  0  0  0  0
  134.4980   71.9710  225.5820 N   0  0  0  0  0  0  0  0  0  0  0  0
  136.4740   71.1960  224.1470 H   0  0  0  0  0  0  0  0  0  0  0  0
  136.6652   68.1822  223.9126 H   0  0  0  0  0  0  0  0  0  0  0  0
  137.1867   69.4104  222.6005 H   0  0  0  0  0  0  0  0  0  0  0  0
  140.8980   70.4505  222.2499 H   0  0  0  0  0  0  0  0  0  0  0  0
  139.2361   70.7914  221.9110 H   0  0  0  0  0  0  0  0  0  0  0  0
  140.8784   72.7158  222.9132 H   0  0  0  0  0  0  0  0  0  0  0  0
  139.1997   72.6583  223.4773 H   0  0  0  0  0  0  0  0  0  0  0  0
  141.6340   72.1860  225.0023 H   0  0  0  0  0  0  0  0  0  0  0  0
  139.9928   72.1599  225.6209 H   0  0  0  0  0  0  0  0  0  0  0  0
  141.6527   69.7962  224.5206 H   0  0  0  0  0  0  0  0  0  0  0  0
  139.2830   71.1888  226.9974 H   0  0  0  0  0  0  0  0  0  0  0  0
  139.0744   70.1770  229.2191 H   0  0  0  0  0  0  0  0  0  0  0  0
  140.2353   68.0109  229.6963 H   0  0  0  0  0  0  0  0  0  0  0  0
  141.5781   66.9459  227.8974 H   0  0  0  0  0  0  0  0  0  0  0  0
  141.7715   67.9894  225.6697 H   0  0  0  0  0  0  0  0  0  0  0  0
  132.9402   69.0421  226.2694 H   0  0  0  0  0  0  0  0  0  0  0  0
  131.3696   70.6955  227.3537 H   0  0  0  0  0  0  0  0  0  0  0  0
  130.7892   73.0028  227.8969 H   0  0  0  0  0  0  0  0  0  0  0  0
  131.3059   75.4363  227.7945 H   0  0  0  0  0  0  0  0  0  0  0  0
  134.8930   74.5773  225.5615 H   0  0  0  0  0  0  0  0  0  0  0  0
  1  2  2  0
  2  3  1  0
  3  4  1  0
  4  5  1  0
  5  6  2  0
  5  7  1  0
  7  8  1  0
  8  9  1  0
  9 10  1  0
 10 11  1  0
 11 12  1  0
 12 13  2  0
 13 14  1  0
 14 15  2  0
 15 16  1  0
 16 17  2  0
  2 18  1  0
 18 19  2  0
 19 20  1  0
 20 21  2  0
 21 22  1  0
 22 23  2  0
 23 24  1  0
 24 25  1  0
 24 26  2  0
 26 27  1  0
 27 28  2  0
 11  7  1  0
 17 12  1  0
 28 18  1  0
 27 21  1  0
  3 29  1  0
  4 30  1  0
  4 31  1  0
  8 32  1  0
  8 33  1  0
  9 34  1  0
  9 35  1  0
 10 36  1  0
 10 37  1  0
 11 38  1  6
 13 39  1  0
 14 40  1  0
 15 41  1  0
 16 42  1  0
 17 43  1  0
 19 44  1  0
 20 45  1  0
 22 46  1  0
 23 47  1  0
 26 48  1  0
M  END
>  <smiles>  (27) 
O=C(NCC(=O)N1CCC[C@H]1c1ccccc1)c1ccc2ccc(Cl)cc2n1

>  <score_type>  (27) 
oracle

>  <origin>  (27) 
autodockgpu

>  <m_score__min__energy>  (27) 
-8.4600000000000009

>  <m_primary>  (27) 
energy

>  <rmsd>  (27) 
7.291212920019962

>  <m_score__min__rmsd>  (27) 
7.291212920019962

>  <meeko>  (27) 
{"free_energy": -8.35, "intermolecular_energy": -9.84, "internal_energy": -1.56, "cluster_size": 9, "cluster_id": 1, "rank_in_cluster": 5}

>  <energy>  (27) 
-8.17

>  <cluster_rmsd>  (27) 
0.17

>  <cluster>  (27) 
3

$$$$

     RDKit          3D

 48 51  0  0  0  0  0  0  0  0999 V2000
  140.4640   73.6260  222.0230 O   0  0  0  0  0  0  0  0  0  0  0  0
  140.2150   74.6480  221.3420 C   0  0  0  0  0  0  0  0  0  0  0  0
  140.3110   74.4650  219.9040 N   0  0  0  0  0  0  0  0  0  0  0  0
  140.6770   73.1520  219.4690 C   0  0  0  0  0  0  0  0  0  0  0  0
  142.0830   72.7960  219.4090 C   0  0  0  0  0  0  0  0  0  0  0  0
  142.3890   72.0380  218.3920 O   0  0  0  0  0  0  0  0  0  0  0  0
  143.1590   73.1210  220.2420 N   0  0  0  0  0  0  0  0  0  0  0  0
  143.9980   72.2750  221.1140 C   0  0  0  0  0  0  0  0  0  0  0  0
  145.3570   72.6770  220.6270 C   0  0  0  0  0  0  0  0  0  0  0  0
  145.2370   74.1170  220.1940 C   0  0  0  0  0  0  0  0  0  0  0  0
  143.7770   74.4430  220.4470 C   0  0  1  0  0  0  0  0  0  0  0  0
  143.2990   75.4990  219.5580 C   0  0  0  0  0  0  0  0  0  0  0  0
  142.5790   76.6010  219.9100 C   0  0  0  0  0  0  0  0  0  0  0  0
  142.1520   77.5720  219.0300 C   0  0  0  0  0  0  0  0  0  0  0  0
  142.4660   77.4400  217.6910 C   0  0  0  0  0  0  0  0  0  0  0  0
  143.1970   76.3350  217.2880 C   0  0  0  0  0  0  0  0  0  0  0  0
  143.6110   75.3750  218.1950 C   0  0  0  0  0  0  0  0  0  0  0  0
  139.8540   75.9400  221.9140 C   0  0  0  0  0  0  0  0  0  0  0  0
  138.5130   76.1870  222.1010 C   0  0  0  0  0  0  0  0  0  0  0  0
  138.1930   77.4340  222.6500 C   0  0  0  0  0  0  0  0  0  0  0  0
  139.1870   78.3490  222.9800 C   0  0  0  0  0  0  0  0  0  0  0  0
  138.8850   79.5910  223.5250 C   0  0  0  0  0  0  0  0  0  0  0  0
  139.8910   80.4940  223.8490 C   0  0  0  0  0  0  0  0  0  0  0  0
  141.2130   80.1420  223.6180 C   0  0  0  0  0  0  0  0  0  0  0  0
  142.5360   81.2470  224.0080 Cl  0  0  0  0  0  0  0  0  0  0  0  0
  141.5430   78.9190  223.0780 C   0  0  0  0  0  0  0  0  0  0  0  0
  140.5260   78.0300  222.7620 C   0  0  0  0  0  0  0  0  0  0  0  0
  140.8080   76.8320  222.2360 N   0  0  0  0  0  0  0  0  0  0  0  0
  140.1130   75.2780  219.2820 H   0  0  0  0  0  0  0  0  0  0  0  0
  140.1932   72.4394  220.1532 H   0  0  0  0  0  0  0  0  0  0  0  0
  140.3528   73.1228  218.4182 H   0  0  0  0  0  0  0  0  0  0  0  0
  143.8564   72.5168  222.1777 H   0  0  0  0  0  0  0  0  0  0  0  0
  143.7848   71.1971  221.0617 H   0  0  0  0  0  0  0  0  0  0  0  0
  146.0961   72.5820  221.4362 H   0  0  0  0  0  0  0  0  0  0  0  0
  145.6935   72.0352  219.7995 H   0  0  0  0  0  0  0  0  0  0  0  0
  145.8939   74.7639  220.7940 H   0  0  0  0  0  0  0  0  0  0  0  0
  145.5361   74.2758  219.1474 H   0  0  0  0  0  0  0  0  0  0  0  0
  143.5436   74.8639  221.4362 H   0  0  0  0  0  0  0  0  0  0  0  0
  142.3202   76.7244  220.9720 H   0  0  0  0  0  0  0  0  0  0  0  0
  141.5721   78.4359  219.3870 H   0  0  0  0  0  0  0  0  0  0  0  0
  142.1423   78.1963  216.9608 H   0  0  0  0  0  0  0  0  0  0  0  0
  143.4540   76.2178  216.2249 H   0  0  0  0  0  0  0  0  0  0  0  0
  144.1895   74.5074  217.8448 H   0  0  0  0  0  0  0  0  0  0  0  0
  137.7407   75.4501  221.8355 H   0  0  0  0  0  0  0  0  0  0  0  0
  137.1384   77.6945  222.8232 H   0  0  0  0  0  0  0  0  0  0  0  0
  137.8343   79.8637  223.7027 H   0  0  0  0  0  0  0  0  0  0  0  0
  139.6424   81.4739  224.2825 H   0  0  0  0  0  0  0  0  0  0  0  0
  142.5951   78.6515  222.9003 H   0  0  0  0  0  0  0  0  0  0  0  0
  1  2  2  0
  2  3  1  0
  3  4  1  0
  4  5  1  0
  5  6  2  0
  5  7  1  0
  7  8  1  0
  8  9  1  0
  9 10  1  0
 10 11  1  0
 11 12  1  0
 12 13  2  0
 13 14  1  0
 14 15  2  0
 15 16  1  0
 16 17  2  0
  2 18  1  0
 18 19  2  0
 19 20  1  0
 20 21  2  0
 21 22  1  0
 22 23  2  0
 23 24  1  0
 24 25  1  0
 24 26  2  0
 26 27  1  0
 27 28  2  0
 11  7  1  0
 17 12  1  0
 28 18  1  0
 27 21  1  0
  3 29  1  0
  4 30  1  0
  4 31  1  0
  8 32  1  0
  8 33  1  0
  9 34  1  0
  9 35  1  0
 10 36  1  0
 10 37  1  0
 11 38  1  1
 13 39  1  0
 14 40  1  0
 15 41  1  0
 16 42  1  0
 17 43  1  0
 19 44  1  0
 20 45  1  0
 22 46  1  0
 23 47  1  0
 26 48  1  0
M  END
>  <smiles>  (28) 
O=C(NCC(=O)N1CCC[C@H]1c1ccccc1)c1ccc2ccc(Cl)cc2n1

>  <score_type>  (28) 
oracle

>  <origin>  (28) 
autodockgpu

>  <m_score__min__energy>  (28) 
-8.4600000000000009

>  <m_primary>  (28) 
energy

>  <rmsd>  (28) 
7.004978227635036

>  <m_score__min__rmsd>  (28) 
7.004978227635036

>  <meeko>  (28) 
{"free_energy": -7.04, "intermolecular_energy": -8.53, "internal_energy": -2.19, "cluster_size": 6, "cluster_id": 9, "rank_in_cluster": 5}

>  <energy>  (28) 
-8.06

>  <cluster_rmsd>  (28) 
1.99

>  <cluster>  (28) 
3

$$$$

     RDKit          3D

 48 51  0  0  0  0  0  0  0  0999 V2000
  141.4470   73.4590  221.6610 O   0  0  0  0  0  0  0  0  0  0  0  0
  140.3740   73.3570  222.2990 C   0  0  0  0  0  0  0  0  0  0  0  0
  139.5490   74.5520  222.3040 N   0  0  0  0  0  0  0  0  0  0  0  0
  140.0740   75.6730  221.5870 C   0  0  0  0  0  0  0  0  0  0  0  0
  139.5400   76.9950  221.8580 C   0  0  0  0  0  0  0  0  0  0  0  0
  138.2440   77.0760  221.7230 O   0  0  0  0  0  0  0  0  0  0  0  0
  140.1640   78.1890  222.2370 N   0  0  0  0  0  0  0  0  0  0  0  0
  140.0320   79.0030  223.4620 C   0  0  0  0  0  0  0  0  0  0  0  0
  141.4760   79.1220  223.8460 C   0  0  0  0  0  0  0  0  0  0  0  0
  142.2540   79.1070  222.5540 C   0  0  0  0  0  0  0  0  0  0  0  0
  141.1800   78.9550  221.4940 C   0  0  1  0  0  0  0  0  0  0  0  0
  141.6970   78.3020  220.2940 C   0  0  0  0  0  0  0  0  0  0  0  0
  142.4450   77.1630  220.2400 C   0  0  0  0  0  0  0  0  0  0  0  0
  142.9080   76.5850  219.0770 C   0  0  0  0  0  0  0  0  0  0  0  0
  142.6040   77.1830  217.8700 C   0  0  0  0  0  0  0  0  0  0  0  0
  141.8460   78.3420  217.8780 C   0  0  0  0  0  0  0  0  0  0  0  0
  141.3950   78.9010  219.0620 C   0  0  0  0  0  0  0  0  0  0  0  0
  139.9520   72.1470  222.9950 C   0  0  0  0  0  0  0  0  0  0  0  0
  139.0110   71.3620  222.3700 C   0  0  0  0  0  0  0  0  0  0  0  0
  138.6230   70.2080  223.0590 C   0  0  0  0  0  0  0  0  0  0  0  0
  139.1700   69.8960  224.2990 C   0  0  0  0  0  0  0  0  0  0  0  0
  138.7940   68.7530  224.9960 C   0  0  0  0  0  0  0  0  0  0  0  0
  139.3500   68.4560  226.2350 C   0  0  0  0  0  0  0  0  0  0  0  0
  140.2920   69.3190  226.7760 C   0  0  0  0  0  0  0  0  0  0  0  0
  141.0350   68.9960  228.3470 Cl  0  0  0  0  0  0  0  0  0  0  0  0
  140.6840   70.4580  226.1090 C   0  0  0  0  0  0  0  0  0  0  0  0
  140.1190   70.7390  224.8740 C   0  0  0  0  0  0  0  0  0  0  0  0
  140.4740   71.8370  224.1950 N   0  0  0  0  0  0  0  0  0  0  0  0
  138.6400   74.5310  222.8160 H   0  0  0  0  0  0  0  0  0  0  0  0
  141.1533   75.7124  221.7960 H   0  0  0  0  0  0  0  0  0  0  0  0
  139.7817   75.4793  220.5444 H   0  0  0  0  0  0  0  0  0  0  0  0
  139.5817   79.9849  223.2542 H   0  0  0  0  0  0  0  0  0  0  0  0
  139.3783   78.5755  224.2365 H   0  0  0  0  0  0  0  0  0  0  0  0
  141.6511   80.0640  224.3864 H   0  0  0  0  0  0  0  0  0  0  0  0
  141.7844   78.3017  224.5108 H   0  0  0  0  0  0  0  0  0  0  0  0
  142.8093   80.0469  222.4188 H   0  0  0  0  0  0  0  0  0  0  0  0
  143.0075   78.3064  222.5175 H   0  0  0  0  0  0  0  0  0  0  0  0
  140.7773   79.8918  221.0815 H   0  0  0  0  0  0  0  0  0  0  0  0
  142.6966   76.6709  221.1910 H   0  0  0  0  0  0  0  0  0  0  0  0
  143.5087   75.6641  219.1100 H   0  0  0  0  0  0  0  0  0  0  0  0
  142.9562   76.7483  216.9229 H   0  0  0  0  0  0  0  0  0  0  0  0
  141.5969   78.8289  216.9236 H   0  0  0  0  0  0  0  0  0  0  0  0
  140.7949   79.8225  219.0362 H   0  0  0  0  0  0  0  0  0  0  0  0
  138.5895   71.6255  221.3887 H   0  0  0  0  0  0  0  0  0  0  0  0
  137.8738   69.5371  222.6132 H   0  0  0  0  0  0  0  0  0  0  0  0
  138.0459   68.0741  224.5607 H   0  0  0  0  0  0  0  0  0  0  0  0
  139.0472   67.5492  226.7790 H   0  0  0  0  0  0  0  0  0  0  0  0
  141.4327   71.1337  226.5483 H   0  0  0  0  0  0  0  0  0  0  0  0
  1  2  2  0
  2  3  1  0
  3  4  1  0
  4  5  1  0
  5  6  2  0
  5  7  1  0
  7  8  1  0
  8  9  1  0
  9 10  1  0
 10 11  1  0
 11 12  1  0
 12 13  2  0
 13 14  1  0
 14 15  2  0
 15 16  1  0
 16 17  2  0
  2 18  1  0
 18 19  2  0
 19 20  1  0
 20 21  2  0
 21 22  1  0
 22 23  2  0
 23 24  1  0
 24 25  1  0
 24 26  2  0
 26 27  1  0
 27 28  2  0
 11  7  1  0
 17 12  1  0
 28 18  1  0
 27 21  1  0
  3 29  1  0
  4 30  1  0
  4 31  1  0
  8 32  1  0
  8 33  1  0
  9 34  1  0
  9 35  1  0
 10 36  1  0
 10 37  1  0
 11 38  1  6
 13 39  1  0
 14 40  1  0
 15 41  1  0
 16 42  1  0
 17 43  1  0
 19 44  1  0
 20 45  1  0
 22 46  1  0
 23 47  1  0
 26 48  1  0
M  END
>  <smiles>  (29) 
O=C(NCC(=O)N1CCC[C@H]1c1ccccc1)c1ccc2ccc(Cl)cc2n1

>  <score_type>  (29) 
oracle

>  <origin>  (29) 
autodockgpu

>  <m_score__min__energy>  (29) 
-8.4600000000000009

>  <m_primary>  (29) 
energy

>  <rmsd>  (29) 
3.850445610450544

>  <m_score__min__rmsd>  (29) 
3.850445610450544

>  <meeko>  (29) 
{"free_energy": -8.01, "intermolecular_energy": -9.5, "internal_energy": -1.29, "cluster_size": 9, "cluster_id": 3, "rank_in_cluster": 5}

>  <energy>  (29) 
-8.01

>  <cluster_rmsd>  (29) 
1.99

>  <cluster>  (29) 
3

$$$$

     RDKit          3D

 48 51  0  0  0  0  0  0  0  0999 V2000
  141.2900   72.5300  221.0530 O   0  0  0  0  0  0  0  0  0  0  0  0
  140.6040   73.4380  221.5770 C   0  0  0  0  0  0  0  0  0  0  0  0
  139.4630   72.9760  222.3480 N   0  0  0  0  0  0  0  0  0  0  0  0
  139.2810   71.5580  222.4010 C   0  0  0  0  0  0  0  0  0  0  0  0
  138.4260   70.9960  223.4310 C   0  0  0  0  0  0  0  0  0  0  0  0
  137.6470   71.8730  224.0020 O   0  0  0  0  0  0  0  0  0  0  0  0
  138.2900   69.6900  223.9130 N   0  0  0  0  0  0  0  0  0  0  0  0
  137.6860   68.4900  223.3000 C   0  0  0  0  0  0  0  0  0  0  0  0
  138.8190   67.5230  223.4660 C   0  0  0  0  0  0  0  0  0  0  0  0
  139.5360   67.9310  224.7280 C   0  0  0  0  0  0  0  0  0  0  0  0
  138.7610   69.1470  225.1990 C   0  0  1  0  0  0  0  0  0  0  0  0
  139.6000   70.0480  225.9860 C   0  0  0  0  0  0  0  0  0  0  0  0
  140.5180   70.9350  225.5090 C   0  0  0  0  0  0  0  0  0  0  0  0
  141.2850   71.7680  226.2960 C   0  0  0  0  0  0  0  0  0  0  0  0
  141.1280   71.7170  227.6670 C   0  0  0  0  0  0  0  0  0  0  0  0
  140.2050   70.8290  228.1960 C   0  0  0  0  0  0  0  0  0  0  0  0
  139.4490   70.0050  227.3800 C   0  0  0  0  0  0  0  0  0  0  0  0
  140.8970   74.8600  221.4430 C   0  0  0  0  0  0  0  0  0  0  0  0
  141.8650   75.2160  220.5330 C   0  0  0  0  0  0  0  0  0  0  0  0
  142.1270   76.5860  220.4250 C   0  0  0  0  0  0  0  0  0  0  0  0
  141.4370   77.5110  221.2000 C   0  0  0  0  0  0  0  0  0  0  0  0
  141.6870   78.8760  221.1040 C   0  0  0  0  0  0  0  0  0  0  0  0
  140.9880   79.7880  221.8870 C   0  0  0  0  0  0  0  0  0  0  0  0
  140.0300   79.3200  222.7740 C   0  0  0  0  0  0  0  0  0  0  0  0
  139.1090   80.4290  223.7970 Cl  0  0  0  0  0  0  0  0  0  0  0  0
  139.7610   77.9740  222.8920 C   0  0  0  0  0  0  0  0  0  0  0  0
  140.4680   77.0790  222.1030 C   0  0  0  0  0  0  0  0  0  0  0  0
  140.2350   75.7630  222.1890 N   0  0  0  0  0  0  0  0  0  0  0  0
  138.8530   73.6840  222.8120 H   0  0  0  0  0  0  0  0  0  0  0  0
  138.8625   71.2503  221.4314 H   0  0  0  0  0  0  0  0  0  0  0  0
  140.2810   71.1729  222.6492 H   0  0  0  0  0  0  0  0  0  0  0  0
  136.7860   68.1628  223.8412 H   0  0  0  0  0  0  0  0  0  0  0  0
  137.3338   68.6220  222.2663 H   0  0  0  0  0  0  0  0  0  0  0  0
  138.4342   66.4968  223.5604 H   0  0  0  0  0  0  0  0  0  0  0  0
  139.4933   67.5413  222.5971 H   0  0  0  0  0  0  0  0  0  0  0  0
  139.4999   67.1271  225.4780 H   0  0  0  0  0  0  0  0  0  0  0  0
  140.6036   68.1403  224.5653 H   0  0  0  0  0  0  0  0  0  0  0  0
  137.9335   68.9485  225.8961 H   0  0  0  0  0  0  0  0  0  0  0  0
  140.6570   70.9904  224.4192 H   0  0  0  0  0  0  0  0  0  0  0  0
  142.0083   72.4601  225.8402 H   0  0  0  0  0  0  0  0  0  0  0  0
  141.7229   72.3674  228.3251 H   0  0  0  0  0  0  0  0  0  0  0  0
  140.0703   70.7778  229.2865 H   0  0  0  0  0  0  0  0  0  0  0  0
  138.7235   69.3104  227.8286 H   0  0  0  0  0  0  0  0  0  0  0  0
  142.4001   74.4696  219.9276 H   0  0  0  0  0  0  0  0  0  0  0  0
  142.8910   76.9368  219.7156 H   0  0  0  0  0  0  0  0  0  0  0  0
  142.4487   79.2392  220.3984 H   0  0  0  0  0  0  0  0  0  0  0  0
  141.1920   80.8657  221.8041 H   0  0  0  0  0  0  0  0  0  0  0  0
  138.9989   77.6155  223.5996 H   0  0  0  0  0  0  0  0  0  0  0  0
  1  2  2  0
  2  3  1  0
  3  4  1  0
  4  5  1  0
  5  6  2  0
  5  7  1  0
  7  8  1  0
  8  9  1  0
  9 10  1  0
 10 11  1  0
 11 12  1  0
 12 13  2  0
 13 14  1  0
 14 15  2  0
 15 16  1  0
 16 17  2  0
  2 18  1  0
 18 19  2  0
 19 20  1  0
 20 21  2  0
 21 22  1  0
 22 23  2  0
 23 24  1  0
 24 25  1  0
 24 26  2  0
 26 27  1  0
 27 28  2  0
 11  7  1  0
 17 12  1  0
 28 18  1  0
 27 21  1  0
  3 29  1  0
  4 30  1  0
  4 31  1  0
  8 32  1  0
  8 33  1  0
  9 34  1  0
  9 35  1  0
 10 36  1  0
 10 37  1  0
 11 38  1  1
 13 39  1  0
 14 40  1  0
 15 41  1  0
 16 42  1  0
 17 43  1  0
 19 44  1  0
 20 45  1  0
 22 46  1  0
 23 47  1  0
 26 48  1  0
M  END
>  <smiles>  (30) 
O=C(NCC(=O)N1CCC[C@H]1c1ccccc1)c1ccc2ccc(Cl)cc2n1

>  <score_type>  (30) 
oracle

>  <origin>  (30) 
autodockgpu

>  <m_score__min__energy>  (30) 
-8.4600000000000009

>  <m_primary>  (30) 
energy

>  <rmsd>  (30) 
8.403158162843189

>  <m_score__min__rmsd>  (30) 
8.403158162843189

>  <meeko>  (30) 
{"free_energy": -8.12, "intermolecular_energy": -9.61, "internal_energy": -1.65, "cluster_size": 15, "cluster_id": 2, "rank_in_cluster": 5}

>  <energy>  (30) 
-7.3

>  <cluster_rmsd>  (30) 
1.75

>  <cluster>  (30) 
3

$$$$

     RDKit          3D

 48 51  0  0  0  0  0  0  0  0999 V2000
  141.2500   73.8630  221.2720 O   0  0  0  0  0  0  0  0  0  0  0  0
  140.2160   74.2590  221.8580 C   0  0  0  0  0  0  0  0  0  0  0  0
  139.2820   73.2100  222.2290 N   0  0  0  0  0  0  0  0  0  0  0  0
  139.6700   71.8790  221.8750 C   0  0  0  0  0  0  0  0  0  0  0  0
  139.0840   70.7610  222.5910 C   0  0  0  0  0  0  0  0  0  0  0  0
  139.7930   69.6670  222.5260 O   0  0  0  0  0  0  0  0  0  0  0  0
  137.9040   70.6510  223.3350 N   0  0  0  0  0  0  0  0  0  0  0  0
  136.5040   70.9510  222.9780 C   0  0  0  0  0  0  0  0  0  0  0  0
  135.8590   69.6530  223.3610 C   0  0  0  0  0  0  0  0  0  0  0  0
  136.6590   69.1150  224.5210 C   0  0  0  0  0  0  0  0  0  0  0  0
  137.7470   70.1550  224.7140 C   0  0  1  0  0  0  0  0  0  0  0  0
  138.9490   69.5730  225.3070 C   0  0  0  0  0  0  0  0  0  0  0  0
  139.2030   68.2490  225.5070 C   0  0  0  0  0  0  0  0  0  0  0  0
  140.3570   67.7500  226.0710 C   0  0  0  0  0  0  0  0  0  0  0  0
  141.3390   68.6350  226.4690 C   0  0  0  0  0  0  0  0  0  0  0  0
  141.1230   69.9900  226.2850 C   0  0  0  0  0  0  0  0  0  0  0  0
  139.9530   70.4630  225.7160 C   0  0  0  0  0  0  0  0  0  0  0  0
  139.9360   75.6580  222.1600 C   0  0  0  0  0  0  0  0  0  0  0  0
  138.6230   76.0630  222.0840 C   0  0  0  0  0  0  0  0  0  0  0  0
  138.3820   77.4100  222.3790 C   0  0  0  0  0  0  0  0  0  0  0  0
  139.4210   78.2650  222.7250 C   0  0  0  0  0  0  0  0  0  0  0  0
  139.1970   79.6050  223.0200 C   0  0  0  0  0  0  0  0  0  0  0  0
  140.2480   80.4470  223.3640 C   0  0  0  0  0  0  0  0  0  0  0  0
  141.5360   79.9340  223.4110 C   0  0  0  0  0  0  0  0  0  0  0  0
  142.9150   80.9540  223.8410 Cl  0  0  0  0  0  0  0  0  0  0  0  0
  141.7890   78.6110  223.1230 C   0  0  0  0  0  0  0  0  0  0  0  0
  140.7290   77.7850  222.7820 C   0  0  0  0  0  0  0  0  0  0  0  0
  140.9350   76.4940  222.4960 N   0  0  0  0  0  0  0  0  0  0  0  0
  138.4020   73.4750  222.7230 H   0  0  0  0  0  0  0  0  0  0  0  0
  139.4253   71.7442  220.8111 H   0  0  0  0  0  0  0  0  0  0  0  0
  140.7357   71.8348  222.1439 H   0  0  0  0  0  0  0  0  0  0  0  0
  136.1048   71.7939  223.5612 H   0  0  0  0  0  0  0  0  0  0  0  0
  136.3459   71.2587  221.9338 H   0  0  0  0  0  0  0  0  0  0  0  0
  134.8144   69.8200  223.6624 H   0  0  0  0  0  0  0  0  0  0  0  0
  135.8473   68.9459  222.5184 H   0  0  0  0  0  0  0  0  0  0  0  0
  136.0345   69.0275  225.4223 H   0  0  0  0  0  0  0  0  0  0  0  0
  137.0582   68.1070  224.3351 H   0  0  0  0  0  0  0  0  0  0  0  0
  137.5176   70.9629  225.4244 H   0  0  0  0  0  0  0  0  0  0  0  0
  138.4326   67.5280  225.1963 H   0  0  0  0  0  0  0  0  0  0  0  0
  140.4933   66.6663  226.2017 H   0  0  0  0  0  0  0  0  0  0  0  0
  142.2729   68.2714  226.9225 H   0  0  0  0  0  0  0  0  0  0  0  0
  141.8974   70.7059  226.5975 H   0  0  0  0  0  0  0  0  0  0  0  0
  139.8095   71.5455  225.5836 H   0  0  0  0  0  0  0  0  0  0  0  0
  137.8133   75.3713  221.8086 H   0  0  0  0  0  0  0  0  0  0  0  0
  137.3535   77.7978  222.3362 H   0  0  0  0  0  0  0  0  0  0  0  0
  138.1730   80.0047  222.9806 H   0  0  0  0  0  0  0  0  0  0  0  0
  140.0610   81.5059  223.5958 H   0  0  0  0  0  0  0  0  0  0  0  0
  142.8150   78.2164  223.1629 H   0  0  0  0  0  0  0  0  0  0  0  0
  1  2  2  0
  2  3  1  0
  3  4  1  0
  4  5  1  0
  5  6  2  0
  5  7  1  0
  7  8  1  0
  8  9  1  0
  9 10  1  0
 10 11  1  0
 11 12  1  0
 12 13  2  0
 13 14  1  0
 14 15  2  0
 15 16  1  0
 16 17  2  0
  2 18  1  0
 18 19  2  0
 19 20  1  0
 20 21  2  0
 21 22  1  0
 22 23  2  0
 23 24  1  0
 24 25  1  0
 24 26  2  0
 26 27  1  0
 27 28  2  0
 11  7  1  0
 17 12  1  0
 28 18  1  0
 27 21  1  0
  3 29  1  0
  4 30  1  0
  4 31  1  0
  8 32  1  0
  8 33  1  0
  9 34  1  0
  9 35  1  0
 10 36  1  0
 10 37  1  0
 11 38  1  1
 13 39  1  0
 14 40  1  0
 15 41  1  0
 16 42  1  0
 17 43  1  0
 19 44  1  0
 20 45  1  0
 22 46  1  0
 23 47  1  0
 26 48  1  0
M  END
>  <smiles>  (31) 
O=C(NCC(=O)N1CCC[C@H]1c1ccccc1)c1ccc2ccc(Cl)cc2n1

>  <score_type>  (31) 
oracle

>  <origin>  (31) 
autodockgpu

>  <m_score__min__energy>  (31) 
-8.4600000000000009

>  <m_primary>  (31) 
energy

>  <rmsd>  (31) 
8.075390035231354

>  <m_score__min__rmsd>  (31) 
8.075390035231354

>  <meeko>  (31) 
{"free_energy": -8.03, "intermolecular_energy": -9.53, "internal_energy": -1.22, "cluster_size": 15, "cluster_id": 2, "rank_in_cluster": 11}

>  <energy>  (31) 
-7.3

>  <cluster_rmsd>  (31) 
1.78

>  <cluster>  (31) 
3

$$$$

     RDKit          3D

 48 51  0  0  0  0  0  0  0  0999 V2000
  141.5900   72.5080  221.1350 O   0  0  0  0  0  0  0  0  0  0  0  0
  140.8450   73.4130  221.5780 C   0  0  0  0  0  0  0  0  0  0  0  0
  139.7140   72.9470  222.3610 N   0  0  0  0  0  0  0  0  0  0  0  0
  139.6070   71.5290  222.5150 C   0  0  0  0  0  0  0  0  0  0  0  0
  138.6210   70.9930  223.4360 C   0  0  0  0  0  0  0  0  0  0  0  0
  137.7900   71.8890  223.8930 O   0  0  0  0  0  0  0  0  0  0  0  0
  138.4050   69.6960  223.9140 N   0  0  0  0  0  0  0  0  0  0  0  0
  137.7690   68.5250  223.2790 C   0  0  0  0  0  0  0  0  0  0  0  0
  138.8480   67.5050  223.4880 C   0  0  0  0  0  0  0  0  0  0  0  0
  139.5360   67.8820  224.7760 C   0  0  0  0  0  0  0  0  0  0  0  0
  138.8020   69.1340  225.2170 C   0  0  1  0  0  0  0  0  0  0  0  0
  139.6530   69.9970  226.0340 C   0  0  0  0  0  0  0  0  0  0  0  0
  139.5650   70.1930  227.3800 C   0  0  0  0  0  0  0  0  0  0  0  0
  140.3960   71.0190  228.1060 C   0  0  0  0  0  0  0  0  0  0  0  0
  141.3950   71.7060  227.4450 C   0  0  0  0  0  0  0  0  0  0  0  0
  141.5200   71.5370  226.0760 C   0  0  0  0  0  0  0  0  0  0  0  0
  140.6700   70.7010  225.3720 C   0  0  0  0  0  0  0  0  0  0  0  0
  141.0650   74.8360  221.3460 C   0  0  0  0  0  0  0  0  0  0  0  0
  141.9420   75.1770  220.3410 C   0  0  0  0  0  0  0  0  0  0  0  0
  142.1350   76.5480  220.1390 C   0  0  0  0  0  0  0  0  0  0  0  0
  141.4710   77.4880  220.9190 C   0  0  0  0  0  0  0  0  0  0  0  0
  141.6530   78.8530  220.7310 C   0  0  0  0  0  0  0  0  0  0  0  0
  140.9810   79.7800  221.5190 C   0  0  0  0  0  0  0  0  0  0  0  0
  140.1190   79.3260  222.5070 C   0  0  0  0  0  0  0  0  0  0  0  0
  139.2360   80.4550  223.5420 Cl  0  0  0  0  0  0  0  0  0  0  0  0
  139.9190   77.9800  222.7170 C   0  0  0  0  0  0  0  0  0  0  0  0
  140.5970   77.0700  221.9210 C   0  0  0  0  0  0  0  0  0  0  0  0
  140.4280   75.7530  222.0950 N   0  0  0  0  0  0  0  0  0  0  0  0
  139.0580   73.6520  222.7610 H   0  0  0  0  0  0  0  0  0  0  0  0
  139.3801   71.1133  221.5222 H   0  0  0  0  0  0  0  0  0  0  0  0
  140.5696   71.2390  222.9613 H   0  0  0  0  0  0  0  0  0  0  0  0
  136.8346   68.2419  223.7857 H   0  0  0  0  0  0  0  0  0  0  0  0
  137.4633   68.6716  222.2326 H   0  0  0  0  0  0  0  0  0  0  0  0
  138.4115   66.4985  223.5687 H   0  0  0  0  0  0  0  0  0  0  0  0
  139.5544   67.4886  222.6449 H   0  0  0  0  0  0  0  0  0  0  0  0
  139.4343   67.0825  225.5246 H   0  0  0  0  0  0  0  0  0  0  0  0
  140.6176   68.0406  224.6532 H   0  0  0  0  0  0  0  0  0  0  0  0
  137.9409   68.9758  225.8829 H   0  0  0  0  0  0  0  0  0  0  0  0
  138.7757   69.6544  227.9249 H   0  0  0  0  0  0  0  0  0  0  0  0
  140.2657   71.1290  229.1927 H   0  0  0  0  0  0  0  0  0  0  0  0
  142.0765   72.3728  227.9936 H   0  0  0  0  0  0  0  0  0  0  0  0
  142.3113   72.0784  225.5367 H   0  0  0  0  0  0  0  0  0  0  0  0
  140.7931   70.5879  224.2848 H   0  0  0  0  0  0  0  0  0  0  0  0
  142.4589   74.4187  219.7345 H   0  0  0  0  0  0  0  0  0  0  0  0
  142.8229   76.8875  219.3506 H   0  0  0  0  0  0  0  0  0  0  0  0
  142.3393   79.2050  219.9467 H   0  0  0  0  0  0  0  0  0  0  0  0
  141.1304   80.8584  221.3616 H   0  0  0  0  0  0  0  0  0  0  0  0
  139.2327   77.6326  223.5033 H   0  0  0  0  0  0  0  0  0  0  0  0
  1  2  2  0
  2  3  1  0
  3  4  1  0
  4  5  1  0
  5  6  2  0
  5  7  1  0
  7  8  1  0
  8  9  1  0
  9 10  1  0
 10 11  1  0
 11 12  1  0
 12 13  2  0
 13 14  1  0
 14 15  2  0
 15 16  1  0
 16 17  2  0
  2 18  1  0
 18 19  2  0
 19 20  1  0
 20 21  2  0
 21 22  1  0
 22 23  2  0
 23 24  1  0
 24 25  1  0
 24 26  2  0
 26 27  1  0
 27 28  2  0
 11  7  1  0
 17 12  1  0
 28 18  1  0
 27 21  1  0
  3 29  1  0
  4 30  1  0
  4 31  1  0
  8 32  1  0
  8 33  1  0
  9 34  1  0
  9 35  1  0
 10 36  1  0
 10 37  1  0
 11 38  1  1
 13 39  1  0
 14 40  1  0
 15 41  1  0
 16 42  1  0
 17 43  1  0
 19 44  1  0
 20 45  1  0
 22 46  1  0
 23 47  1  0
 26 48  1  0
M  END
>  <smiles>  (32) 
O=C(NCC(=O)N1CCC[C@H]1c1ccccc1)c1ccc2ccc(Cl)cc2n1

>  <score_type>  (32) 
oracle

>  <origin>  (32) 
autodockgpu

>  <m_score__min__energy>  (32) 
-8.4600000000000009

>  <m_primary>  (32) 
energy

>  <rmsd>  (32) 
8.464625508892283

>  <m_score__min__rmsd>  (32) 
8.464625508892283

>  <meeko>  (32) 
{"free_energy": -8.08, "intermolecular_energy": -9.57, "internal_energy": -1.46, "cluster_size": 15, "cluster_id": 2, "rank_in_cluster": 9}

>  <energy>  (32) 
-7.27

>  <cluster_rmsd>  (32) 
1.78

>  <cluster>  (32) 
3

$$$$

     RDKit          3D

 48 51  0  0  0  0  0  0  0  0999 V2000
  140.4080   74.2130  219.6100 O   0  0  0  0  0  0  0  0  0  0  0  0
  140.7600   74.0590  220.8030 C   0  0  0  0  0  0  0  0  0  0  0  0
  141.6340   75.0970  221.3230 N   0  0  0  0  0  0  0  0  0  0  0  0
  141.9700   76.1420  220.4070 C   0  0  0  0  0  0  0  0  0  0  0  0
  141.0330   77.2330  220.2080 C   0  0  0  0  0  0  0  0  0  0  0  0
  141.4720   78.1610  219.4030 O   0  0  0  0  0  0  0  0  0  0  0  0
  139.7520   77.4620  220.7230 N   0  0  0  0  0  0  0  0  0  0  0  0
  138.4810   76.7430  220.5070 C   0  0  0  0  0  0  0  0  0  0  0  0
  138.0810   76.5010  221.9310 C   0  0  0  0  0  0  0  0  0  0  0  0
  138.6240   77.6650  222.7220 C   0  0  0  0  0  0  0  0  0  0  0  0
  139.3330   78.5040  221.6760 C   0  0  1  0  0  0  0  0  0  0  0  0
  140.4200   79.2870  222.2600 C   0  0  0  0  0  0  0  0  0  0  0  0
  140.7850   80.5560  221.9230 C   0  0  0  0  0  0  0  0  0  0  0  0
  141.8200   81.2540  222.5080 C   0  0  0  0  0  0  0  0  0  0  0  0
  142.5520   80.6440  223.5090 C   0  0  0  0  0  0  0  0  0  0  0  0
  142.2140   79.3540  223.8830 C   0  0  0  0  0  0  0  0  0  0  0  0
  141.1690   78.6780  223.2770 C   0  0  0  0  0  0  0  0  0  0  0  0
  140.3450   72.9370  221.6360 C   0  0  0  0  0  0  0  0  0  0  0  0
  139.6030   71.9490  221.0300 C   0  0  0  0  0  0  0  0  0  0  0  0
  139.2180   70.8840  221.8520 C   0  0  0  0  0  0  0  0  0  0  0  0
  139.5740   70.8490  223.1950 C   0  0  0  0  0  0  0  0  0  0  0  0
  139.1980   69.7990  224.0230 C   0  0  0  0  0  0  0  0  0  0  0  0
  139.5620   69.7790  225.3650 C   0  0  0  0  0  0  0  0  0  0  0  0
  140.3120   70.8290  225.8750 C   0  0  0  0  0  0  0  0  0  0  0  0
  140.8060   70.8630  227.5720 Cl  0  0  0  0  0  0  0  0  0  0  0  0
  140.6990   71.8840  225.0790 C   0  0  0  0  0  0  0  0  0  0  0  0
  140.3270   71.8860  223.7430 C   0  0  0  0  0  0  0  0  0  0  0  0
  140.6840   72.8940  222.9370 N   0  0  0  0  0  0  0  0  0  0  0  0
  141.9600   75.0270  222.3120 H   0  0  0  0  0  0  0  0  0  0  0  0
  142.9128   76.5870  220.7577 H   0  0  0  0  0  0  0  0  0  0  0  0
  141.9977   75.6371  219.4301 H   0  0  0  0  0  0  0  0  0  0  0  0
  137.7450   77.3636  219.9750 H   0  0  0  0  0  0  0  0  0  0  0  0
  138.5572   75.8392  219.8846 H   0  0  0  0  0  0  0  0  0  0  0  0
  136.9852   76.4586  222.0177 H   0  0  0  0  0  0  0  0  0  0  0  0
  138.4761   75.5439  222.3022 H   0  0  0  0  0  0  0  0  0  0  0  0
  137.8094   78.2328  223.1954 H   0  0  0  0  0  0  0  0  0  0  0  0
  139.2869   77.3533  223.5426 H   0  0  0  0  0  0  0  0  0  0  0  0
  138.7267   79.2875  221.1979 H   0  0  0  0  0  0  0  0  0  0  0  0
  140.2138   81.0586  221.1286 H   0  0  0  0  0  0  0  0  0  0  0  0
  142.0588   82.2777  222.1839 H   0  0  0  0  0  0  0  0  0  0  0  0
  143.3845   81.1713  223.9978 H   0  0  0  0  0  0  0  0  0  0  0  0
  142.7881   78.8561  224.6783 H   0  0  0  0  0  0  0  0  0  0  0  0
  140.9241   77.6542  223.5960 H   0  0  0  0  0  0  0  0  0  0  0  0
  139.3295   71.9937  219.9655 H   0  0  0  0  0  0  0  0  0  0  0  0
  138.6238   70.0610  221.4283 H   0  0  0  0  0  0  0  0  0  0  0  0
  138.6032   68.9706  223.6108 H   0  0  0  0  0  0  0  0  0  0  0  0
  139.2597   68.9429  226.0128 H   0  0  0  0  0  0  0  0  0  0  0  0
  141.2929   72.7108  225.4956 H   0  0  0  0  0  0  0  0  0  0  0  0
  1  2  2  0
  2  3  1  0
  3  4  1  0
  4  5  1  0
  5  6  2  0
  5  7  1  0
  7  8  1  0
  8  9  1  0
  9 10  1  0
 10 11  1  0
 11 12  1  0
 12 13  2  0
 13 14  1  0
 14 15  2  0
 15 16  1  0
 16 17  2  0
  2 18  1  0
 18 19  2  0
 19 20  1  0
 20 21  2  0
 21 22  1  0
 22 23  2  0
 23 24  1  0
 24 25  1  0
 24 26  2  0
 26 27  1  0
 27 28  2  0
 11  7  1  0
 17 12  1  0
 28 18  1  0
 27 21  1  0
  3 29  1  0
  4 30  1  0
  4 31  1  0
  8 32  1  0
  8 33  1  0
  9 34  1  0
  9 35  1  0
 10 36  1  0
 10 37  1  0
 11 38  1  6
 13 39  1  0
 14 40  1  0
 15 41  1  0
 16 42  1  0
 17 43  1  0
 19 44  1  0
 20 45  1  0
 22 46  1  0
 23 47  1  0
 26 48  1  0
M  END
>  <smiles>  (33) 
O=C(NCC(=O)N1CCC[C@H]1c1ccccc1)c1ccc2ccc(Cl)cc2n1

>  <score_type>  (33) 
oracle

>  <origin>  (33) 
autodockgpu

>  <m_score__min__energy>  (33) 
-8.4600000000000009

>  <m_primary>  (33) 
energy

>  <rmsd>  (33) 
3.7866012396677995

>  <m_score__min__rmsd>  (33) 
3.7866012396677995

>  <meeko>  (33) 
{"free_energy": -7.26, "intermolecular_energy": -8.75, "internal_energy": -1.98, "cluster_size": 9, "cluster_id": 3, "rank_in_cluster": 9}

>  <energy>  (33) 
-7.26

>  <cluster_rmsd>  (33) 
1.75

>  <cluster>  (33) 
3

$$$$

     RDKit          3D

 48 51  0  0  0  0  0  0  0  0999 V2000
  140.3550   73.6330  222.1850 O   0  0  0  0  0  0  0  0  0  0  0  0
  140.1370   74.6430  221.4760 C   0  0  0  0  0  0  0  0  0  0  0  0
  140.2470   74.4220  220.0440 N   0  0  0  0  0  0  0  0  0  0  0  0
  140.5880   73.0910  219.6460 C   0  0  0  0  0  0  0  0  0  0  0  0
  141.9720   72.7830  219.3320 C   0  0  0  0  0  0  0  0  0  0  0  0
  142.1330   72.2330  218.1600 O   0  0  0  0  0  0  0  0  0  0  0  0
  143.1530   72.9730  220.0580 N   0  0  0  0  0  0  0  0  0  0  0  0
  143.9810   72.0210  220.8240 C   0  0  0  0  0  0  0  0  0  0  0  0
  145.3200   72.2970  220.2100 C   0  0  0  0  0  0  0  0  0  0  0  0
  145.3080   73.7540  219.8180 C   0  0  0  0  0  0  0  0  0  0  0  0
  143.9220   74.2190  220.2240 C   0  0  1  0  0  0  0  0  0  0  0  0
  143.4710   75.3430  219.4070 C   0  0  0  0  0  0  0  0  0  0  0  0
  143.6420   75.4980  218.0640 C   0  0  0  0  0  0  0  0  0  0  0  0
  143.1940   76.5810  217.3380 C   0  0  0  0  0  0  0  0  0  0  0  0
  142.5210   77.5910  217.9970 C   0  0  0  0  0  0  0  0  0  0  0  0
  142.3250   77.4750  219.3630 C   0  0  0  0  0  0  0  0  0  0  0  0
  142.7870   76.3750  220.0660 C   0  0  0  0  0  0  0  0  0  0  0  0
  139.7970   75.9560  222.0110 C   0  0  0  0  0  0  0  0  0  0  0  0
  138.4610   76.2310  222.1910 C   0  0  0  0  0  0  0  0  0  0  0  0
  138.1620   77.4980  222.7050 C   0  0  0  0  0  0  0  0  0  0  0  0
  139.1710   78.4050  223.0080 C   0  0  0  0  0  0  0  0  0  0  0  0
  138.8900   79.6670  223.5190 C   0  0  0  0  0  0  0  0  0  0  0  0
  139.9110   80.5620  223.8170 C   0  0  0  0  0  0  0  0  0  0  0  0
  141.2270   80.1820  223.5960 C   0  0  0  0  0  0  0  0  0  0  0  0
  142.5690   81.2750  223.9540 Cl  0  0  0  0  0  0  0  0  0  0  0  0
  141.5360   78.9390  223.0900 C   0  0  0  0  0  0  0  0  0  0  0  0
  140.5050   78.0580  222.8000 C   0  0  0  0  0  0  0  0  0  0  0  0
  140.7660   76.8410  222.3070 N   0  0  0  0  0  0  0  0  0  0  0  0
  140.0750   75.2240  219.4000 H   0  0  0  0  0  0  0  0  0  0  0  0
  140.2869   72.4222  220.4658 H   0  0  0  0  0  0  0  0  0  0  0  0
  140.0645   72.9599  218.6875 H   0  0  0  0  0  0  0  0  0  0  0  0
  143.9709   72.2444  221.9010 H   0  0  0  0  0  0  0  0  0  0  0  0
  143.6526   70.9724  220.7727 H   0  0  0  0  0  0  0  0  0  0  0  0
  146.1212   72.1043  220.9387 H   0  0  0  0  0  0  0  0  0  0  0  0
  145.5051   71.6484  219.3410 H   0  0  0  0  0  0  0  0  0  0  0  0
  146.0848   74.3133  220.3600 H   0  0  0  0  0  0  0  0  0  0  0  0
  145.5168   73.9118  218.7496 H   0  0  0  0  0  0  0  0  0  0  0  0
  143.8324   74.6326  221.2393 H   0  0  0  0  0  0  0  0  0  0  0  0
  144.1748   74.7034  217.5211 H   0  0  0  0  0  0  0  0  0  0  0  0
  143.3694   76.6396  216.2537 H   0  0  0  0  0  0  0  0  0  0  0  0
  142.1486   78.4688  217.4486 H   0  0  0  0  0  0  0  0  0  0  0  0
  141.7915   78.2728  219.9005 H   0  0  0  0  0  0  0  0  0  0  0  0
  142.6161   76.3100  221.1507 H   0  0  0  0  0  0  0  0  0  0  0  0
  137.6762   75.5002  221.9460 H   0  0  0  0  0  0  0  0  0  0  0  0
  137.1121   77.7805  222.8719 H   0  0  0  0  0  0  0  0  0  0  0  0
  137.8441   79.9617  223.6901 H   0  0  0  0  0  0  0  0  0  0  0  0
  139.6788   81.5578  224.2225 H   0  0  0  0  0  0  0  0  0  0  0  0
  142.5834   78.6497  222.9187 H   0  0  0  0  0  0  0  0  0  0  0  0
  1  2  2  0
  2  3  1  0
  3  4  1  0
  4  5  1  0
  5  6  2  0
  5  7  1  0
  7  8  1  0
  8  9  1  0
  9 10  1  0
 10 11  1  0
 11 12  1  0
 12 13  2  0
 13 14  1  0
 14 15  2  0
 15 16  1  0
 16 17  2  0
  2 18  1  0
 18 19  2  0
 19 20  1  0
 20 21  2  0
 21 22  1  0
 22 23  2  0
 23 24  1  0
 24 25  1  0
 24 26  2  0
 26 27  1  0
 27 28  2  0
 11  7  1  0
 17 12  1  0
 28 18  1  0
 27 21  1  0
  3 29  1  0
  4 30  1  0
  4 31  1  0
  8 32  1  0
  8 33  1  0
  9 34  1  0
  9 35  1  0
 10 36  1  0
 10 37  1  0
 11 38  1  1
 13 39  1  0
 14 40  1  0
 15 41  1  0
 16 42  1  0
 17 43  1  0
 19 44  1  0
 20 45  1  0
 22 46  1  0
 23 47  1  0
 26 48  1  0
M  END
>  <smiles>  (34) 
O=C(NCC(=O)N1CCC[C@H]1c1ccccc1)c1ccc2ccc(Cl)cc2n1

>  <score_type>  (34) 
oracle

>  <origin>  (34) 
autodockgpu

>  <m_score__min__energy>  (34) 
-8.4600000000000009

>  <m_primary>  (34) 
energy

>  <rmsd>  (34) 
7.0371447716852416

>  <m_score__min__rmsd>  (34) 
7.0371447716852416

>  <meeko>  (34) 
{"free_energy": -7.15, "intermolecular_energy": -8.64, "internal_energy": -2.18, "cluster_size": 6, "cluster_id": 9, "rank_in_cluster": 1}

>  <energy>  (34) 
-8.06

>  <cluster_rmsd>  (34) 
0.0

>  <cluster>  (34) 
4

$$$$

     RDKit          3D

 48 51  0  0  0  0  0  0  0  0999 V2000
  139.5030   72.4890  220.3830 O   0  0  0  0  0  0  0  0  0  0  0  0
  139.4330   72.5530  221.6320 C   0  0  0  0  0  0  0  0  0  0  0  0
  139.3930   73.9010  222.1750 N   0  0  0  0  0  0  0  0  0  0  0  0
  139.4410   74.9590  221.2140 C   0  0  0  0  0  0  0  0  0  0  0  0
  140.7110   75.6050  220.9400 C   0  0  0  0  0  0  0  0  0  0  0  0
  141.4500   75.7800  222.0020 O   0  0  0  0  0  0  0  0  0  0  0  0
  141.2800   76.0680  219.7490 N   0  0  0  0  0  0  0  0  0  0  0  0
  140.9150   77.2030  218.8780 C   0  0  0  0  0  0  0  0  0  0  0  0
  142.2440   77.8880  218.7820 C   0  0  0  0  0  0  0  0  0  0  0  0
  143.2830   76.7990  218.8740 C   0  0  0  0  0  0  0  0  0  0  0  0
  142.4600   75.5370  219.0430 C   0  0  1  0  0  0  0  0  0  0  0  0
  143.2020   74.5030  219.7620 C   0  0  0  0  0  0  0  0  0  0  0  0
  142.7550   73.2590  220.0950 C   0  0  0  0  0  0  0  0  0  0  0  0
  143.4980   72.3160  220.7740 C   0  0  0  0  0  0  0  0  0  0  0  0
  144.7880   72.6330  221.1530 C   0  0  0  0  0  0  0  0  0  0  0  0
  145.2830   73.8860  220.8350 C   0  0  0  0  0  0  0  0  0  0  0  0
  144.5130   74.8130  220.1520 C   0  0  0  0  0  0  0  0  0  0  0  0
  139.3940   71.3880  222.5070 C   0  0  0  0  0  0  0  0  0  0  0  0
  138.8380   70.2390  221.9940 C   0  0  0  0  0  0  0  0  0  0  0  0
  138.8130   69.1360  222.8540 C   0  0  0  0  0  0  0  0  0  0  0  0
  139.3240   69.2200  224.1440 C   0  0  0  0  0  0  0  0  0  0  0  0
  139.3050   68.1330  225.0100 C   0  0  0  0  0  0  0  0  0  0  0  0
  139.8210   68.2340  226.2970 C   0  0  0  0  0  0  0  0  0  0  0  0
  140.3590   69.4430  226.7140 C   0  0  0  0  0  0  0  0  0  0  0  0
  141.0300   69.6350  228.3380 Cl  0  0  0  0  0  0  0  0  0  0  0  0
  140.3910   70.5380  225.8790 C   0  0  0  0  0  0  0  0  0  0  0  0
  139.8730   70.4180  224.5980 C   0  0  0  0  0  0  0  0  0  0  0  0
  139.8860   71.4600  223.7570 N   0  0  0  0  0  0  0  0  0  0  0  0
  139.3330   74.0220  223.2090 H   0  0  0  0  0  0  0  0  0  0  0  0
  139.0778   74.5457  220.2615 H   0  0  0  0  0  0  0  0  0  0  0  0
  138.8334   75.7553  221.6687 H   0  0  0  0  0  0  0  0  0  0  0  0
  140.5568   76.8652  217.8943 H   0  0  0  0  0  0  0  0  0  0  0  0
  140.0935   77.8315  219.2523 H   0  0  0  0  0  0  0  0  0  0  0  0
  142.3314   78.4191  217.8227 H   0  0  0  0  0  0  0  0  0  0  0  0
  142.3708   78.6332  219.5811 H   0  0  0  0  0  0  0  0  0  0  0  0
  143.8876   76.7540  217.9561 H   0  0  0  0  0  0  0  0  0  0  0  0
  143.9976   76.9573  219.6951 H   0  0  0  0  0  0  0  0  0  0  0  0
  142.1900   75.0127  218.1145 H   0  0  0  0  0  0  0  0  0  0  0  0
  141.7300   72.9883  219.8017 H   0  0  0  0  0  0  0  0  0  0  0  0
  143.0713   71.3298  221.0094 H   0  0  0  0  0  0  0  0  0  0  0  0
  145.4087   71.9051  221.6960 H   0  0  0  0  0  0  0  0  0  0  0  0
  146.3088   74.1510  221.1308 H   0  0  0  0  0  0  0  0  0  0  0  0
  144.9335   75.8010  219.9134 H   0  0  0  0  0  0  0  0  0  0  0  0
  138.4377   70.1906  220.9706 H   0  0  0  0  0  0  0  0  0  0  0  0
  138.3819   68.1866  222.5037 H   0  0  0  0  0  0  0  0  0  0  0  0
  138.8752   67.1785  224.6720 H   0  0  0  0  0  0  0  0  0  0  0  0
  139.8030   67.3679  226.9749 H   0  0  0  0  0  0  0  0  0  0  0  0
  140.8199   71.4910  226.2221 H   0  0  0  0  0  0  0  0  0  0  0  0
  1  2  2  0
  2  3  1  0
  3  4  1  0
  4  5  1  0
  5  6  2  0
  5  7  1  0
  7  8  1  0
  8  9  1  0
  9 10  1  0
 10 11  1  0
 11 12  1  0
 12 13  2  0
 13 14  1  0
 14 15  2  0
 15 16  1  0
 16 17  2  0
  2 18  1  0
 18 19  2  0
 19 20  1  0
 20 21  2  0
 21 22  1  0
 22 23  2  0
 23 24  1  0
 24 25  1  0
 24 26  2  0
 26 27  1  0
 27 28  2  0
 11  7  1  0
 17 12  1  0
 28 18  1  0
 27 21  1  0
  3 29  1  0
  4 30  1  0
  4 31  1  0
  8 32  1  0
  8 33  1  0
  9 34  1  0
  9 35  1  0
 10 36  1  0
 10 37  1  0
 11 38  1  6
 13 39  1  0
 14 40  1  0
 15 41  1  0
 16 42  1  0
 17 43  1  0
 19 44  1  0
 20 45  1  0
 22 46  1  0
 23 47  1  0
 26 48  1  0
M  END
>  <smiles>  (35) 
O=C(NCC(=O)N1CCC[C@H]1c1ccccc1)c1ccc2ccc(Cl)cc2n1

>  <score_type>  (35) 
oracle

>  <origin>  (35) 
autodockgpu

>  <m_score__min__energy>  (35) 
-8.4600000000000009

>  <m_primary>  (35) 
energy

>  <rmsd>  (35) 
2.1932297414268707

>  <m_score__min__rmsd>  (35) 
2.1932297414268707

>  <meeko>  (35) 
{"free_energy": -7.45, "intermolecular_energy": -8.94, "internal_energy": -1.85, "cluster_size": 4, "cluster_id": 5, "rank_in_cluster": 4}

>  <energy>  (35) 
-7.63

>  <cluster_rmsd>  (35) 
0.0

>  <cluster>  (35) 
5

$$$$

     RDKit          3D

 48 51  0  0  0  0  0  0  0  0999 V2000
  140.1250   75.3920  219.4980 O   0  0  0  0  0  0  0  0  0  0  0  0
  140.5990   74.9100  220.5530 C   0  0  0  0  0  0  0  0  0  0  0  0
  141.7480   75.6190  221.0870 N   0  0  0  0  0  0  0  0  0  0  0  0
  142.1770   76.7600  220.3390 C   0  0  0  0  0  0  0  0  0  0  0  0
  141.8060   78.0860  220.8010 C   0  0  0  0  0  0  0  0  0  0  0  0
  141.3560   78.8640  219.8550 O   0  0  0  0  0  0  0  0  0  0  0  0
  141.8420   78.6700  222.0720 N   0  0  0  0  0  0  0  0  0  0  0  0
  142.8770   79.4920  222.7290 C   0  0  0  0  0  0  0  0  0  0  0  0
  142.0430   80.6640  223.1500 C   0  0  0  0  0  0  0  0  0  0  0  0
  140.6640   80.1180  223.4230 C   0  0  0  0  0  0  0  0  0  0  0  0
  140.7990   78.6400  223.1120 C   0  0  1  0  0  0  0  0  0  0  0  0
  139.5240   78.0580  222.6980 C   0  0  0  0  0  0  0  0  0  0  0  0
  139.1940   76.7350  222.6880 C   0  0  0  0  0  0  0  0  0  0  0  0
  137.9730   76.2360  222.2890 C   0  0  0  0  0  0  0  0  0  0  0  0
  136.9990   77.1200  221.8660 C   0  0  0  0  0  0  0  0  0  0  0  0
  137.2910   78.4740  221.8600 C   0  0  0  0  0  0  0  0  0  0  0  0
  138.5280   78.9460  222.2660 C   0  0  0  0  0  0  0  0  0  0  0  0
  140.0650   73.7290  221.2210 C   0  0  0  0  0  0  0  0  0  0  0  0
  139.0460   73.0580  220.5850 C   0  0  0  0  0  0  0  0  0  0  0  0
  138.5520   71.9290  221.2480 C   0  0  0  0  0  0  0  0  0  0  0  0
  139.0760   71.5300  222.4730 C   0  0  0  0  0  0  0  0  0  0  0  0
  138.5940   70.4110  223.1430 C   0  0  0  0  0  0  0  0  0  0  0  0
  139.1290   70.0260  224.3680 C   0  0  0  0  0  0  0  0  0  0  0  0
  140.1560   70.7770  224.9210 C   0  0  0  0  0  0  0  0  0  0  0  0
  140.8770   70.3390  226.4740 Cl  0  0  0  0  0  0  0  0  0  0  0  0
  140.6530   71.8900  224.2800 C   0  0  0  0  0  0  0  0  0  0  0  0
  140.1080   72.2590  223.0590 C   0  0  0  0  0  0  0  0  0  0  0  0
  140.5640   73.3350  222.4070 N   0  0  0  0  0  0  0  0  0  0  0  0
  142.1880   75.2690  221.9660 H   0  0  0  0  0  0  0  0  0  0  0  0
  143.2759   76.7271  220.3032 H   0  0  0  0  0  0  0  0  0  0  0  0
  141.6501   76.6587  219.3787 H   0  0  0  0  0  0  0  0  0  0  0  0
  143.3224   78.9758  223.5922 H   0  0  0  0  0  0  0  0  0  0  0  0
  143.7435   79.7402  222.0985 H   0  0  0  0  0  0  0  0  0  0  0  0
  142.4593   81.1221  224.0593 H   0  0  0  0  0  0  0  0  0  0  0  0
  142.0210   81.4421  222.3728 H   0  0  0  0  0  0  0  0  0  0  0  0
  140.3806   80.2740  224.4744 H   0  0  0  0  0  0  0  0  0  0  0  0
  139.8826   80.6112  222.8262 H   0  0  0  0  0  0  0  0  0  0  0  0
  141.0730   77.9948  223.9597 H   0  0  0  0  0  0  0  0  0  0  0  0
  139.9560   76.0154  223.0219 H   0  0  0  0  0  0  0  0  0  0  0  0
  137.7774   75.1537  222.3069 H   0  0  0  0  0  0  0  0  0  0  0  0
  136.0130   76.7564  221.5410 H   0  0  0  0  0  0  0  0  0  0  0  0
  136.5247   79.1889  221.5259 H   0  0  0  0  0  0  0  0  0  0  0  0
  138.7312   80.0269  222.2496 H   0  0  0  0  0  0  0  0  0  0  0  0
  138.6446   73.3885  219.6156 H   0  0  0  0  0  0  0  0  0  0  0  0
  137.7363   71.3479  220.7931 H   0  0  0  0  0  0  0  0  0  0  0  0
  137.7783   69.8221  222.6982 H   0  0  0  0  0  0  0  0  0  0  0  0
  138.7431   69.1385  224.8909 H   0  0  0  0  0  0  0  0  0  0  0  0
  141.4683   72.4764  224.7287 H   0  0  0  0  0  0  0  0  0  0  0  0
  1  2  2  0
  2  3  1  0
  3  4  1  0
  4  5  1  0
  5  6  2  0
  5  7  1  0
  7  8  1  0
  8  9  1  0
  9 10  1  0
 10 11  1  0
 11 12  1  0
 12 13  2  0
 13 14  1  0
 14 15  2  0
 15 16  1  0
 16 17  2  0
  2 18  1  0
 18 19  2  0
 19 20  1  0
 20 21  2  0
 21 22  1  0
 22 23  2  0
 23 24  1  0
 24 25  1  0
 24 26  2  0
 26 27  1  0
 27 28  2  0
 11  7  1  0
 17 12  1  0
 28 18  1  0
 27 21  1  0
  3 29  1  0
  4 30  1  0
  4 31  1  0
  8 32  1  0
  8 33  1  0
  9 34  1  0
  9 35  1  0
 10 36  1  0
 10 37  1  0
 11 38  1  1
 13 39  1  0
 14 40  1  0
 15 41  1  0
 16 42  1  0
 17 43  1  0
 19 44  1  0
 20 45  1  0
 22 46  1  0
 23 47  1  0
 26 48  1  0
M  END
>  <smiles>  (36) 
O=C(NCC(=O)N1CCC[C@H]1c1ccccc1)c1ccc2ccc(Cl)cc2n1

>  <score_type>  (36) 
oracle

>  <origin>  (36) 
autodockgpu

>  <m_score__min__energy>  (36) 
-8.4600000000000009

>  <m_primary>  (36) 
energy

>  <rmsd>  (36) 
5.137515368434958

>  <m_score__min__rmsd>  (36) 
5.137515368434958

>  <meeko>  (36) 
{"free_energy": -6.99, "intermolecular_energy": -8.49, "internal_energy": -2.25, "cluster_size": 3, "cluster_id": 8, "rank_in_cluster": 3}

>  <energy>  (36) 
-7.61

>  <cluster_rmsd>  (36) 
0.85

>  <cluster>  (36) 
5

$$$$

     RDKit          3D

 48 51  0  0  0  0  0  0  0  0999 V2000
  139.8400   75.7640  219.5950 O   0  0  0  0  0  0  0  0  0  0  0  0
  140.3070   75.2680  220.6460 C   0  0  0  0  0  0  0  0  0  0  0  0
  141.4570   75.9650  221.1950 N   0  0  0  0  0  0  0  0  0  0  0  0
  141.8960   77.1120  220.4630 C   0  0  0  0  0  0  0  0  0  0  0  0
  141.5890   78.4350  220.9770 C   0  0  0  0  0  0  0  0  0  0  0  0
  141.0340   79.2240  220.0980 O   0  0  0  0  0  0  0  0  0  0  0  0
  141.7790   79.0080  222.2390 N   0  0  0  0  0  0  0  0  0  0  0  0
  142.9330   79.7320  222.8090 C   0  0  0  0  0  0  0  0  0  0  0  0
  142.2420   80.9710  223.2930 C   0  0  0  0  0  0  0  0  0  0  0  0
  140.8460   80.5480  223.6780 C   0  0  0  0  0  0  0  0  0  0  0  0
  140.8250   79.0650  223.3600 C   0  0  1  0  0  0  0  0  0  0  0  0
  139.4750   78.5990  223.0530 C   0  0  0  0  0  0  0  0  0  0  0  0
  139.1050   77.3330  222.7080 C   0  0  0  0  0  0  0  0  0  0  0  0
  137.8130   76.9440  222.4280 C   0  0  0  0  0  0  0  0  0  0  0  0
  136.8050   77.8850  222.4980 C   0  0  0  0  0  0  0  0  0  0  0  0
  137.1350   79.1840  222.8450 C   0  0  0  0  0  0  0  0  0  0  0  0
  138.4430   79.5470  223.1200 C   0  0  0  0  0  0  0  0  0  0  0  0
  139.7630   74.0820  221.2980 C   0  0  0  0  0  0  0  0  0  0  0  0
  138.5830   73.5800  220.7980 C   0  0  0  0  0  0  0  0  0  0  0  0
  138.0840   72.4420  221.4410 C   0  0  0  0  0  0  0  0  0  0  0  0
  138.7560   71.8720  222.5160 C   0  0  0  0  0  0  0  0  0  0  0  0
  138.2720   70.7420  223.1650 C   0  0  0  0  0  0  0  0  0  0  0  0
  138.9570   70.1850  224.2390 C   0  0  0  0  0  0  0  0  0  0  0  0
  140.1400   70.7740  224.6630 C   0  0  0  0  0  0  0  0  0  0  0  0
  141.0570   70.1130  226.0220 Cl  0  0  0  0  0  0  0  0  0  0  0  0
  140.6440   71.8940  224.0400 C   0  0  0  0  0  0  0  0  0  0  0  0
  139.9480   72.4350  222.9700 C   0  0  0  0  0  0  0  0  0  0  0  0
  140.4060   73.5230  222.3390 N   0  0  0  0  0  0  0  0  0  0  0  0
  141.8900   75.6020  222.0720 H   0  0  0  0  0  0  0  0  0  0  0  0
  142.9909   77.0435  220.3826 H   0  0  0  0  0  0  0  0  0  0  0  0
  141.3297   77.0568  219.5216 H   0  0  0  0  0  0  0  0  0  0  0  0
  143.3988   79.1741  223.6347 H   0  0  0  0  0  0  0  0  0  0  0  0
  143.7649   79.9055  222.1106 H   0  0  0  0  0  0  0  0  0  0  0  0
  142.7691   81.3864  224.1646 H   0  0  0  0  0  0  0  0  0  0  0  0
  142.2262   81.7512  222.5178 H   0  0  0  0  0  0  0  0  0  0  0  0
  140.6632   80.7232  224.7485 H   0  0  0  0  0  0  0  0  0  0  0  0
  140.0655   81.1114  223.1457 H   0  0  0  0  0  0  0  0  0  0  0  0
  141.1093   78.3941  224.1841 H   0  0  0  0  0  0  0  0  0  0  0  0
  139.8933   76.5681  222.6490 H   0  0  0  0  0  0  0  0  0  0  0  0
  137.5888   75.9026  222.1537 H   0  0  0  0  0  0  0  0  0  0  0  0
  135.7623   77.6085  222.2827 H   0  0  0  0  0  0  0  0  0  0  0  0
  136.3417   79.9438  222.9035 H   0  0  0  0  0  0  0  0  0  0  0  0
  138.6746   80.5871  223.3932 H   0  0  0  0  0  0  0  0  0  0  0  0
  138.0647   74.0445  219.9462 H   0  0  0  0  0  0  0  0  0  0  0  0
  137.1442   71.9908  221.0899 H   0  0  0  0  0  0  0  0  0  0  0  0
  137.3331   70.2816  222.8237 H   0  0  0  0  0  0  0  0  0  0  0  0
  138.5668   69.2900  224.7456 H   0  0  0  0  0  0  0  0  0  0  0  0
  141.5828   72.3515  224.3855 H   0  0  0  0  0  0  0  0  0  0  0  0
  1  2  2  0
  2  3  1  0
  3  4  1  0
  4  5  1  0
  5  6  2  0
  5  7  1  0
  7  8  1  0
  8  9  1  0
  9 10  1  0
 10 11  1  0
 11 12  1  0
 12 13  2  0
 13 14  1  0
 14 15  2  0
 15 16  1  0
 16 17  2  0
  2 18  1  0
 18 19  2  0
 19 20  1  0
 20 21  2  0
 21 22  1  0
 22 23  2  0
 23 24  1  0
 24 25  1  0
 24 26  2  0
 26 27  1  0
 27 28  2  0
 11  7  1  0
 17 12  1  0
 28 18  1  0
 27 21  1  0
  3 29  1  0
  4 30  1  0
  4 31  1  0
  8 32  1  0
  8 33  1  0
  9 34  1  0
  9 35  1  0
 10 36  1  0
 10 37  1  0
 11 38  1  1
 13 39  1  0
 14 40  1  0
 15 41  1  0
 16 42  1  0
 17 43  1  0
 19 44  1  0
 20 45  1  0
 22 46  1  0
 23 47  1  0
 26 48  1  0
M  END
>  <smiles>  (37) 
O=C(NCC(=O)N1CCC[C@H]1c1ccccc1)c1ccc2ccc(Cl)cc2n1

>  <score_type>  (37) 
oracle

>  <origin>  (37) 
autodockgpu

>  <m_score__min__energy>  (37) 
-8.4600000000000009

>  <m_primary>  (37) 
energy

>  <rmsd>  (37) 
5.377466877311415

>  <m_score__min__rmsd>  (37) 
5.377466877311415

>  <meeko>  (37) 
{"free_energy": -7.24, "intermolecular_energy": -8.74, "internal_energy": -2.05, "cluster_size": 3, "cluster_id": 8, "rank_in_cluster": 1}

>  <energy>  (37) 
-7.51

>  <cluster_rmsd>  (37) 
0.23

>  <cluster>  (37) 
5

$$$$

     RDKit          3D

 48 51  0  0  0  0  0  0  0  0999 V2000
  141.0060   73.9360  220.8030 O   0  0  0  0  0  0  0  0  0  0  0  0
  140.1720   74.2890  221.6700 C   0  0  0  0  0  0  0  0  0  0  0  0
  139.4570   73.1990  222.3110 N   0  0  0  0  0  0  0  0  0  0  0  0
  139.8010   71.8840  221.8660 C   0  0  0  0  0  0  0  0  0  0  0  0
  139.1380   70.7410  222.4680 C   0  0  0  0  0  0  0  0  0  0  0  0
  139.7780   69.6160  222.3030 O   0  0  0  0  0  0  0  0  0  0  0  0
  137.9440   70.6340  223.1900 N   0  0  0  0  0  0  0  0  0  0  0  0
  136.5410   70.8340  222.7750 C   0  0  0  0  0  0  0  0  0  0  0  0
  135.9490   69.5420  223.2520 C   0  0  0  0  0  0  0  0  0  0  0  0
  136.7410   69.1440  224.4720 C   0  0  0  0  0  0  0  0  0  0  0  0
  137.7720   70.2490  224.6020 C   0  0  1  0  0  0  0  0  0  0  0  0
  138.9830   69.7790  225.2710 C   0  0  0  0  0  0  0  0  0  0  0  0
  139.2880   68.4920  225.6010 C   0  0  0  0  0  0  0  0  0  0  0  0
  140.4490   68.1000  226.2330 C   0  0  0  0  0  0  0  0  0  0  0  0
  141.3840   69.0620  226.5630 C   0  0  0  0  0  0  0  0  0  0  0  0
  141.1150   70.3830  226.2460 C   0  0  0  0  0  0  0  0  0  0  0  0
  139.9400   70.7470  225.6110 C   0  0  0  0  0  0  0  0  0  0  0  0
  139.9120   75.6770  222.0330 C   0  0  0  0  0  0  0  0  0  0  0  0
  138.6030   76.0980  221.9940 C   0  0  0  0  0  0  0  0  0  0  0  0
  138.3810   77.4340  222.3470 C   0  0  0  0  0  0  0  0  0  0  0  0
  139.4350   78.2640  222.7120 C   0  0  0  0  0  0  0  0  0  0  0  0
  139.2300   79.5930  223.0640 C   0  0  0  0  0  0  0  0  0  0  0  0
  140.2960   80.4100  223.4260 C   0  0  0  0  0  0  0  0  0  0  0  0
  141.5780   79.8810  223.4320 C   0  0  0  0  0  0  0  0  0  0  0  0
  142.9740   80.8690  223.8820 Cl  0  0  0  0  0  0  0  0  0  0  0  0
  141.8120   78.5690  223.0870 C   0  0  0  0  0  0  0  0  0  0  0  0
  140.7380   77.7680  222.7290 C   0  0  0  0  0  0  0  0  0  0  0  0
  140.9250   76.4880  222.3870 N   0  0  0  0  0  0  0  0  0  0  0  0
  138.7510   73.4270  223.0440 H   0  0  0  0  0  0  0  0  0  0  0  0
  139.5942   71.8447  220.7863 H   0  0  0  0  0  0  0  0  0  0  0  0
  140.8520   71.7693  222.1697 H   0  0  0  0  0  0  0  0  0  0  0  0
  136.0860   71.7019  223.2747 H   0  0  0  0  0  0  0  0  0  0  0  0
  136.3972   71.0455  221.7051 H   0  0  0  0  0  0  0  0  0  0  0  0
  134.8896   69.6810  223.5133 H   0  0  0  0  0  0  0  0  0  0  0  0
  135.9950   68.7670  222.4727 H   0  0  0  0  0  0  0  0  0  0  0  0
  136.0964   69.1012  225.3623 H   0  0  0  0  0  0  0  0  0  0  0  0
  137.1930   68.1452  224.3819 H   0  0  0  0  0  0  0  0  0  0  0  0
  137.4848   71.1014  225.2352 H   0  0  0  0  0  0  0  0  0  0  0  0
  138.5565   67.7114  225.3451 H   0  0  0  0  0  0  0  0  0  0  0  0
  140.6275   67.0408  226.4701 H   0  0  0  0  0  0  0  0  0  0  0  0
  142.3218   68.7847  227.0666 H   0  0  0  0  0  0  0  0  0  0  0  0
  141.8504   71.1593  226.5042 H   0  0  0  0  0  0  0  0  0  0  0  0
  139.7550   71.8044  225.3709 H   0  0  0  0  0  0  0  0  0  0  0  0
  137.7818   75.4263  221.7034 H   0  0  0  0  0  0  0  0  0  0  0  0
  137.3563   77.8337  222.3355 H   0  0  0  0  0  0  0  0  0  0  0  0
  138.2099   80.0046  223.0562 H   0  0  0  0  0  0  0  0  0  0  0  0
  140.1246   81.4605  223.7035 H   0  0  0  0  0  0  0  0  0  0  0  0
  142.8342   78.1626  223.0952 H   0  0  0  0  0  0  0  0  0  0  0  0
  1  2  2  0
  2  3  1  0
  3  4  1  0
  4  5  1  0
  5  6  2  0
  5  7  1  0
  7  8  1  0
  8  9  1  0
  9 10  1  0
 10 11  1  0
 11 12  1  0
 12 13  2  0
 13 14  1  0
 14 15  2  0
 15 16  1  0
 16 17  2  0
  2 18  1  0
 18 19  2  0
 19 20  1  0
 20 21  2  0
 21 22  1  0
 22 23  2  0
 23 24  1  0
 24 25  1  0
 24 26  2  0
 26 27  1  0
 27 28  2  0
 11  7  1  0
 17 12  1  0
 28 18  1  0
 27 21  1  0
  3 29  1  0
  4 30  1  0
  4 31  1  0
  8 32  1  0
  8 33  1  0
  9 34  1  0
  9 35  1  0
 10 36  1  0
 10 37  1  0
 11 38  1  1
 13 39  1  0
 14 40  1  0
 15 41  1  0
 16 42  1  0
 17 43  1  0
 19 44  1  0
 20 45  1  0
 22 46  1  0
 23 47  1  0
 26 48  1  0
M  END
>  <smiles>  (38) 
O=C(NCC(=O)N1CCC[C@H]1c1ccccc1)c1ccc2ccc(Cl)cc2n1

>  <score_type>  (38) 
oracle

>  <origin>  (38) 
autodockgpu

>  <m_score__min__energy>  (38) 
-8.4600000000000009

>  <m_primary>  (38) 
energy

>  <rmsd>  (38) 
8.039561107134343

>  <m_score__min__rmsd>  (38) 
8.039561107134343

>  <meeko>  (38) 
{"free_energy": -8.1, "intermolecular_energy": -9.59, "internal_energy": -1.26, "cluster_size": 15, "cluster_id": 2, "rank_in_cluster": 7}

>  <energy>  (38) 
-7.45

>  <cluster_rmsd>  (38) 
0.94

>  <cluster>  (38) 
5

$$$$

     RDKit          3D

 48 51  0  0  0  0  0  0  0  0999 V2000
  140.4560   73.6790  222.1630 O   0  0  0  0  0  0  0  0  0  0  0  0
  140.1660   74.6740  221.4590 C   0  0  0  0  0  0  0  0  0  0  0  0
  140.1990   74.4410  220.0260 N   0  0  0  0  0  0  0  0  0  0  0  0
  140.5560   73.1160  219.6200 C   0  0  0  0  0  0  0  0  0  0  0  0
  141.9440   72.8240  219.3150 C   0  0  0  0  0  0  0  0  0  0  0  0
  142.1250   72.3180  218.1250 O   0  0  0  0  0  0  0  0  0  0  0  0
  143.1140   72.9890  220.0640 N   0  0  0  0  0  0  0  0  0  0  0  0
  143.9120   72.0190  220.8400 C   0  0  0  0  0  0  0  0  0  0  0  0
  145.2670   72.2760  220.2530 C   0  0  0  0  0  0  0  0  0  0  0  0
  145.2870   73.7350  219.8710 C   0  0  0  0  0  0  0  0  0  0  0  0
  143.9020   74.2210  220.2520 C   0  0  1  0  0  0  0  0  0  0  0  0
  143.4850   75.3570  219.4340 C   0  0  0  0  0  0  0  0  0  0  0  0
  143.7000   75.5250  218.0980 C   0  0  0  0  0  0  0  0  0  0  0  0
  143.2830   76.6190  217.3700 C   0  0  0  0  0  0  0  0  0  0  0  0
  142.5980   77.6280  218.0190 C   0  0  0  0  0  0  0  0  0  0  0  0
  142.3570   77.4990  219.3760 C   0  0  0  0  0  0  0  0  0  0  0  0
  142.7880   76.3880  220.0820 C   0  0  0  0  0  0  0  0  0  0  0  0
  139.8190   75.9820  222.0020 C   0  0  0  0  0  0  0  0  0  0  0  0
  138.4810   76.2500  222.1790 C   0  0  0  0  0  0  0  0  0  0  0  0
  138.1750   77.5130  222.7000 C   0  0  0  0  0  0  0  0  0  0  0  0
  139.1800   78.4220  223.0130 C   0  0  0  0  0  0  0  0  0  0  0  0
  138.8910   79.6790  223.5300 C   0  0  0  0  0  0  0  0  0  0  0  0
  139.9080   80.5770  223.8370 C   0  0  0  0  0  0  0  0  0  0  0  0
  141.2260   80.2030  223.6190 C   0  0  0  0  0  0  0  0  0  0  0  0
  142.5620   81.3000  223.9880 Cl  0  0  0  0  0  0  0  0  0  0  0  0
  141.5420   78.9640  223.1060 C   0  0  0  0  0  0  0  0  0  0  0  0
  140.5160   78.0820  222.8070 C   0  0  0  0  0  0  0  0  0  0  0  0
  140.7830   76.8690  222.3070 N   0  0  0  0  0  0  0  0  0  0  0  0
  139.9650   75.2300  219.3850 H   0  0  0  0  0  0  0  0  0  0  0  0
  140.2548   72.4378  220.4320 H   0  0  0  0  0  0  0  0  0  0  0  0
  140.0414   72.9876  218.6563 H   0  0  0  0  0  0  0  0  0  0  0  0
  143.8852   72.2366  221.9179 H   0  0  0  0  0  0  0  0  0  0  0  0
  143.5674   70.9763  220.7763 H   0  0  0  0  0  0  0  0  0  0  0  0
  146.0509   72.0648  220.9952 H   0  0  0  0  0  0  0  0  0  0  0  0
  145.4575   71.6300  219.3833 H   0  0  0  0  0  0  0  0  0  0  0  0
  146.0620   74.2776  220.4322 H   0  0  0  0  0  0  0  0  0  0  0  0
  145.5196   73.8959  218.8080 H   0  0  0  0  0  0  0  0  0  0  0  0
  143.8009   74.6304  221.2680 H   0  0  0  0  0  0  0  0  0  0  0  0
  144.2442   74.7322  217.5638 H   0  0  0  0  0  0  0  0  0  0  0  0
  143.4919   76.6872  216.2922 H   0  0  0  0  0  0  0  0  0  0  0  0
  142.2514   78.5153  217.4690 H   0  0  0  0  0  0  0  0  0  0  0  0
  141.8120   78.2951  219.9045 H   0  0  0  0  0  0  0  0  0  0  0  0
  142.5821   76.3133  221.1600 H   0  0  0  0  0  0  0  0  0  0  0  0
  137.7002   75.5174  221.9268 H   0  0  0  0  0  0  0  0  0  0  0  0
  137.1234   77.7907  222.8643 H   0  0  0  0  0  0  0  0  0  0  0  0
  137.8432   79.9680  223.6989 H   0  0  0  0  0  0  0  0  0  0  0  0
  139.6705   81.5698  224.2469 H   0  0  0  0  0  0  0  0  0  0  0  0
  142.5911   78.6798  222.9366 H   0  0  0  0  0  0  0  0  0  0  0  0
  1  2  2  0
  2  3  1  0
  3  4  1  0
  4  5  1  0
  5  6  2  0
  5  7  1  0
  7  8  1  0
  8  9  1  0
  9 10  1  0
 10 11  1  0
 11 12  1  0
 12 13  2  0
 13 14  1  0
 14 15  2  0
 15 16  1  0
 16 17  2  0
  2 18  1  0
 18 19  2  0
 19 20  1  0
 20 21  2  0
 21 22  1  0
 22 23  2  0
 23 24  1  0
 24 25  1  0
 24 26  2  0
 26 27  1  0
 27 28  2  0
 11  7  1  0
 17 12  1  0
 28 18  1  0
 27 21  1  0
  3 29  1  0
  4 30  1  0
  4 31  1  0
  8 32  1  0
  8 33  1  0
  9 34  1  0
  9 35  1  0
 10 36  1  0
 10 37  1  0
 11 38  1  1
 13 39  1  0
 14 40  1  0
 15 41  1  0
 16 42  1  0
 17 43  1  0
 19 44  1  0
 20 45  1  0
 22 46  1  0
 23 47  1  0
 26 48  1  0
M  END
>  <smiles>  (39) 
O=C(NCC(=O)N1CCC[C@H]1c1ccccc1)c1ccc2ccc(Cl)cc2n1

>  <score_type>  (39) 
oracle

>  <origin>  (39) 
autodockgpu

>  <m_score__min__energy>  (39) 
-8.4600000000000009

>  <m_primary>  (39) 
energy

>  <rmsd>  (39) 
7.039343888447574

>  <m_score__min__rmsd>  (39) 
7.039343888447574

>  <meeko>  (39) 
{"free_energy": -7.15, "intermolecular_energy": -8.64, "internal_energy": -2.19, "cluster_size": 6, "cluster_id": 9, "rank_in_cluster": 2}

>  <energy>  (39) 
-7.54

>  <cluster_rmsd>  (39) 
0.0

>  <cluster>  (39) 
6

$$$$

     RDKit          3D

 48 51  0  0  0  0  0  0  0  0999 V2000
  139.3520   80.0790  223.8170 O   0  0  0  0  0  0  0  0  0  0  0  0
  138.1690   80.4370  223.6090 C   0  0  0  0  0  0  0  0  0  0  0  0
  137.5370   79.8180  222.4560 N   0  0  0  0  0  0  0  0  0  0  0  0
  138.3480   78.8960  221.7230 C   0  0  0  0  0  0  0  0  0  0  0  0
  138.5440   77.5580  222.2520 C   0  0  0  0  0  0  0  0  0  0  0  0
  137.5960   77.1680  223.0590 O   0  0  0  0  0  0  0  0  0  0  0  0
  139.5620   76.6190  222.0480 N   0  0  0  0  0  0  0  0  0  0  0  0
  139.5010   75.1940  221.6660 C   0  0  0  0  0  0  0  0  0  0  0  0
  140.4430   75.2020  220.5010 C   0  0  0  0  0  0  0  0  0  0  0  0
  141.4670   76.2700  220.7980 C   0  0  0  0  0  0  0  0  0  0  0  0
  141.0170   76.8290  222.1340 C   0  0  1  0  0  0  0  0  0  0  0  0
  141.4370   78.2180  222.3050 C   0  0  0  0  0  0  0  0  0  0  0  0
  141.4900   79.1810  221.3410 C   0  0  0  0  0  0  0  0  0  0  0  0
  141.8920   80.4820  221.5550 C   0  0  0  0  0  0  0  0  0  0  0  0
  142.2730   80.8590  222.8280 C   0  0  0  0  0  0  0  0  0  0  0  0
  142.2340   79.9140  223.8380 C   0  0  0  0  0  0  0  0  0  0  0  0
  141.8260   78.6130  223.5940 C   0  0  0  0  0  0  0  0  0  0  0  0
  137.4500   81.3960  224.4370 C   0  0  0  0  0  0  0  0  0  0  0  0
  137.1530   82.6140  223.8690 C   0  0  0  0  0  0  0  0  0  0  0  0
  136.4620   83.5170  224.6850 C   0  0  0  0  0  0  0  0  0  0  0  0
  136.1090   83.1810  225.9870 C   0  0  0  0  0  0  0  0  0  0  0  0
  135.4240   84.0670  226.8100 C   0  0  0  0  0  0  0  0  0  0  0  0
  135.0780   83.7150  228.1100 C   0  0  0  0  0  0  0  0  0  0  0  0
  135.4280   82.4590  228.5840 C   0  0  0  0  0  0  0  0  0  0  0  0
  135.0180   81.9530  230.2270 Cl  0  0  0  0  0  0  0  0  0  0  0  0
  136.1080   81.5600  227.7920 C   0  0  0  0  0  0  0  0  0  0  0  0
  136.4430   81.9280  226.4980 C   0  0  0  0  0  0  0  0  0  0  0  0
  137.1040   81.0810  225.6990 N   0  0  0  0  0  0  0  0  0  0  0  0
  136.5510   80.0720  222.2300 H   0  0  0  0  0  0  0  0  0  0  0  0
  137.8924   78.7859  220.7279 H   0  0  0  0  0  0  0  0  0  0  0  0
  139.3525   79.3432  221.7560 H   0  0  0  0  0  0  0  0  0  0  0  0
  139.8559   74.5381  222.4746 H   0  0  0  0  0  0  0  0  0  0  0  0
  138.4924   74.8139  221.4463 H   0  0  0  0  0  0  0  0  0  0  0  0
  140.9321   74.2220  220.3988 H   0  0  0  0  0  0  0  0  0  0  0  0
  139.9140   75.4037  219.5579 H   0  0  0  0  0  0  0  0  0  0  0  0
  142.4758   75.8379  220.8721 H   0  0  0  0  0  0  0  0  0  0  0  0
  141.5279   77.0363  220.0112 H   0  0  0  0  0  0  0  0  0  0  0  0
  141.4542   76.3533  223.0242 H   0  0  0  0  0  0  0  0  0  0  0  0
  141.1908   78.8997  220.3205 H   0  0  0  0  0  0  0  0  0  0  0  0
  141.9091   81.2065  220.7274 H   0  0  0  0  0  0  0  0  0  0  0  0
  142.6005   81.8886  223.0345 H   0  0  0  0  0  0  0  0  0  0  0  0
  142.5334   80.2021  224.8565 H   0  0  0  0  0  0  0  0  0  0  0  0
  141.8068   77.8837  224.4172 H   0  0  0  0  0  0  0  0  0  0  0  0
  137.4411   82.8625  222.8369 H   0  0  0  0  0  0  0  0  0  0  0  0
  136.1940   84.5080  224.2900 H   0  0  0  0  0  0  0  0  0  0  0  0
  135.1515   85.0616  226.4273 H   0  0  0  0  0  0  0  0  0  0  0  0
  134.5345   84.4224  228.7535 H   0  0  0  0  0  0  0  0  0  0  0  0
  136.3805   80.5673  228.1796 H   0  0  0  0  0  0  0  0  0  0  0  0
  1  2  2  0
  2  3  1  0
  3  4  1  0
  4  5  1  0
  5  6  2  0
  5  7  1  0
  7  8  1  0
  8  9  1  0
  9 10  1  0
 10 11  1  0
 11 12  1  0
 12 13  2  0
 13 14  1  0
 14 15  2  0
 15 16  1  0
 16 17  2  0
  2 18  1  0
 18 19  2  0
 19 20  1  0
 20 21  2  0
 21 22  1  0
 22 23  2  0
 23 24  1  0
 24 25  1  0
 24 26  2  0
 26 27  1  0
 27 28  2  0
 11  7  1  0
 17 12  1  0
 28 18  1  0
 27 21  1  0
  3 29  1  0
  4 30  1  0
  4 31  1  0
  8 32  1  0
  8 33  1  0
  9 34  1  0
  9 35  1  0
 10 36  1  0
 10 37  1  0
 11 38  1  1
 13 39  1  0
 14 40  1  0
 15 41  1  0
 16 42  1  0
 17 43  1  0
 19 44  1  0
 20 45  1  0
 22 46  1  0
 23 47  1  0
 26 48  1  0
M  END
>  <smiles>  (40) 
O=C(NCC(=O)N1CCC[C@H]1c1ccccc1)c1ccc2ccc(Cl)cc2n1

>  <score_type>  (40) 
oracle

>  <origin>  (40) 
autodockgpu

>  <m_score__min__energy>  (40) 
-8.4600000000000009

>  <m_primary>  (40) 
energy

>  <rmsd>  (40) 
9.619979740190912

>  <m_score__min__rmsd>  (40) 
9.619979740190912

>  <meeko>  (40) 
{"free_energy": -7.44, "intermolecular_energy": -8.93, "internal_energy": -1.62, "cluster_size": 1, "cluster_id": 7, "rank_in_cluster": 1}

>  <energy>  (40) 
-7.44

>  <cluster_rmsd>  (40) 
0.0

>  <cluster>  (40) 
7

$$$$

     RDKit          3D

 48 51  0  0  0  0  0  0  0  0999 V2000
  141.3030   71.6120  221.5760 O   0  0  0  0  0  0  0  0  0  0  0  0
  140.8250   72.6980  221.9780 C   0  0  0  0  0  0  0  0  0  0  0  0
  139.8850   72.5820  223.0810 N   0  0  0  0  0  0  0  0  0  0  0  0
  139.6380   71.2530  223.5490 C   0  0  0  0  0  0  0  0  0  0  0  0
  140.2630   70.8140  224.7840 C   0  0  0  0  0  0  0  0  0  0  0  0
  140.7570   71.7890  225.4970 O   0  0  0  0  0  0  0  0  0  0  0  0
  140.4250   69.5410  225.3410 N   0  0  0  0  0  0  0  0  0  0  0  0
  141.4570   69.0080  226.2520 C   0  0  0  0  0  0  0  0  0  0  0  0
  140.5790   68.4300  227.3210 C   0  0  0  0  0  0  0  0  0  0  0  0
  139.3160   67.9830  226.6280 C   0  0  0  0  0  0  0  0  0  0  0  0
  139.5530   68.3650  225.1790 C   0  0  1  0  0  0  0  0  0  0  0  0
  138.2960   68.6130  224.4750 C   0  0  0  0  0  0  0  0  0  0  0  0
  137.1930   69.2430  224.9700 C   0  0  0  0  0  0  0  0  0  0  0  0
  136.0290   69.4550  224.2630 C   0  0  0  0  0  0  0  0  0  0  0  0
  135.9530   69.0060  222.9590 C   0  0  0  0  0  0  0  0  0  0  0  0
  137.0510   68.3600  222.4150 C   0  0  0  0  0  0  0  0  0  0  0  0
  138.2070   68.1620  223.1500 C   0  0  0  0  0  0  0  0  0  0  0  0
  141.1600   73.9980  221.4090 C   0  0  0  0  0  0  0  0  0  0  0  0
  141.8460   73.9990  220.2160 C   0  0  0  0  0  0  0  0  0  0  0  0
  142.1560   75.2590  219.6910 C   0  0  0  0  0  0  0  0  0  0  0  0
  141.7830   76.4230  220.3530 C   0  0  0  0  0  0  0  0  0  0  0  0
  142.0840   77.6810  219.8450 C   0  0  0  0  0  0  0  0  0  0  0  0
  141.7040   78.8350  220.5200 C   0  0  0  0  0  0  0  0  0  0  0  0
  141.0150   78.7190  221.7190 C   0  0  0  0  0  0  0  0  0  0  0  0
  140.5050   80.1490  222.6240 Cl  0  0  0  0  0  0  0  0  0  0  0  0
  140.7030   77.4860  222.2480 C   0  0  0  0  0  0  0  0  0  0  0  0
  141.0890   76.3460  221.5600 C   0  0  0  0  0  0  0  0  0  0  0  0
  140.8040   75.1300  222.0420 N   0  0  0  0  0  0  0  0  0  0  0  0
  139.4530   73.4510  223.4630 H   0  0  0  0  0  0  0  0  0  0  0  0
  138.5508   71.1563  223.6858 H   0  0  0  0  0  0  0  0  0  0  0  0
  140.0954   70.6132  222.7799 H   0  0  0  0  0  0  0  0  0  0  0  0
  142.0724   68.2364  225.7664 H   0  0  0  0  0  0  0  0  0  0  0  0
  142.1938   69.7455  226.6031 H   0  0  0  0  0  0  0  0  0  0  0  0
  141.0750   67.5733  227.8007 H   0  0  0  0  0  0  0  0  0  0  0  0
  140.3659   69.1677  228.1087 H   0  0  0  0  0  0  0  0  0  0  0  0
  139.1747   66.8969  226.7303 H   0  0  0  0  0  0  0  0  0  0  0  0
  138.4101   68.4429  227.0497 H   0  0  0  0  0  0  0  0  0  0  0  0
  140.0119   67.5899  224.5476 H   0  0  0  0  0  0  0  0  0  0  0  0
  137.2349   69.6079  226.0069 H   0  0  0  0  0  0  0  0  0  0  0  0
  135.1768   69.9719  224.7284 H   0  0  0  0  0  0  0  0  0  0  0  0
  135.0398   69.1582  222.3650 H   0  0  0  0  0  0  0  0  0  0  0  0
  137.0032   67.9970  221.3777 H   0  0  0  0  0  0  0  0  0  0  0  0
  139.0634   67.6464  222.6909 H   0  0  0  0  0  0  0  0  0  0  0  0
  142.1329   73.0673  219.7065 H   0  0  0  0  0  0  0  0  0  0  0  0
  142.7035   75.3292  218.7395 H   0  0  0  0  0  0  0  0  0  0  0  0
  142.6312   77.7647  218.8944 H   0  0  0  0  0  0  0  0  0  0  0  0
  141.9460   79.8264  220.1095 H   0  0  0  0  0  0  0  0  0  0  0  0
  140.1571   77.4073  223.1997 H   0  0  0  0  0  0  0  0  0  0  0  0
  1  2  2  0
  2  3  1  0
  3  4  1  0
  4  5  1  0
  5  6  2  0
  5  7  1  0
  7  8  1  0
  8  9  1  0
  9 10  1  0
 10 11  1  0
 11 12  1  0
 12 13  2  0
 13 14  1  0
 14 15  2  0
 15 16  1  0
 16 17  2  0
  2 18  1  0
 18 19  2  0
 19 20  1  0
 20 21  2  0
 21 22  1  0
 22 23  2  0
 23 24  1  0
 24 25  1  0
 24 26  2  0
 26 27  1  0
 27 28  2  0
 11  7  1  0
 17 12  1  0
 28 18  1  0
 27 21  1  0
  3 29  1  0
  4 30  1  0
  4 31  1  0
  8 32  1  0
  8 33  1  0
  9 34  1  0
  9 35  1  0
 10 36  1  0
 10 37  1  0
 11 38  1  6
 13 39  1  0
 14 40  1  0
 15 41  1  0
 16 42  1  0
 17 43  1  0
 19 44  1  0
 20 45  1  0
 22 46  1  0
 23 47  1  0
 26 48  1  0
M  END
>  <smiles>  (41) 
O=C(NCC(=O)N1CCC[C@H]1c1ccccc1)c1ccc2ccc(Cl)cc2n1

>  <score_type>  (41) 
oracle

>  <origin>  (41) 
autodockgpu

>  <m_score__min__energy>  (41) 
-8.4600000000000009

>  <m_primary>  (41) 
energy

>  <rmsd>  (41) 
8.83643292516993

>  <m_score__min__rmsd>  (41) 
8.83643292516993

>  <meeko>  (41) 
{"free_energy": -7.54, "intermolecular_energy": -9.04, "internal_energy": -1.53, "cluster_size": 1, "cluster_id": 6, "rank_in_cluster": 1}

>  <energy>  (41) 
-7.24

>  <cluster_rmsd>  (41) 
0.0

>  <cluster>  (41) 
8

$$$$

     RDKit          3D

 48 51  0  0  0  0  0  0  0  0999 V2000
  141.7930   72.7190  221.7340 O   0  0  0  0  0  0  0  0  0  0  0  0
  140.7050   72.6510  222.3520 C   0  0  0  0  0  0  0  0  0  0  0  0
  139.9010   73.8600  222.3120 N   0  0  0  0  0  0  0  0  0  0  0  0
  140.4600   74.9540  221.5780 C   0  0  0  0  0  0  0  0  0  0  0  0
  140.6570   74.8130  220.1470 C   0  0  0  0  0  0  0  0  0  0  0  0
  140.1000   73.7460  219.6430 O   0  0  0  0  0  0  0  0  0  0  0  0
  141.3320   75.6150  219.2190 N   0  0  0  0  0  0  0  0  0  0  0  0
  140.9100   76.8400  218.5120 C   0  0  0  0  0  0  0  0  0  0  0  0
  142.0650   77.7360  218.8440 C   0  0  0  0  0  0  0  0  0  0  0  0
  143.2690   76.8370  218.9670 C   0  0  0  0  0  0  0  0  0  0  0  0
  142.7060   75.4520  218.7130 C   0  0  1  0  0  0  0  0  0  0  0  0
  143.4960   74.4190  219.3780 C   0  0  0  0  0  0  0  0  0  0  0  0
  144.4590   74.6080  220.3250 C   0  0  0  0  0  0  0  0  0  0  0  0
  145.1770   73.5960  220.9250 C   0  0  0  0  0  0  0  0  0  0  0  0
  144.9190   72.2900  220.5570 C   0  0  0  0  0  0  0  0  0  0  0  0
  143.9480   72.0510  219.5990 C   0  0  0  0  0  0  0  0  0  0  0  0
  143.2430   73.0880  219.0130 C   0  0  0  0  0  0  0  0  0  0  0  0
  140.2480   71.4670  223.0690 C   0  0  0  0  0  0  0  0  0  0  0  0
  139.3450   70.6550  222.4230 C   0  0  0  0  0  0  0  0  0  0  0  0
  138.9220   69.5250  223.1330 C   0  0  0  0  0  0  0  0  0  0  0  0
  139.4010   69.2610  224.4110 C   0  0  0  0  0  0  0  0  0  0  0  0
  138.9900   68.1440  225.1290 C   0  0  0  0  0  0  0  0  0  0  0  0
  139.4780   67.8950  226.4060 C   0  0  0  0  0  0  0  0  0  0  0  0
  140.3870   68.7810  226.9650 C   0  0  0  0  0  0  0  0  0  0  0  0
  141.0440   68.5200  228.5850 Cl  0  0  0  0  0  0  0  0  0  0  0  0
  140.8120   69.8970  226.2790 C   0  0  0  0  0  0  0  0  0  0  0  0
  140.3160   70.1290  225.0050 C   0  0  0  0  0  0  0  0  0  0  0  0
  140.7050   71.2030  224.3070 N   0  0  0  0  0  0  0  0  0  0  0  0
  138.9820   73.8670  222.8060 H   0  0  0  0  0  0  0  0  0  0  0  0
  139.7945   75.8168  221.7284 H   0  0  0  0  0  0  0  0  0  0  0  0
  141.4809   75.0457  221.9773 H   0  0  0  0  0  0  0  0  0  0  0  0
  140.8178   76.6758  217.4282 H   0  0  0  0  0  0  0  0  0  0  0  0
  139.9220   77.2275  218.8013 H   0  0  0  0  0  0  0  0  0  0  0  0
  142.2192   78.4732  218.0422 H   0  0  0  0  0  0  0  0  0  0  0  0
  141.8850   78.2964  219.7733 H   0  0  0  0  0  0  0  0  0  0  0  0
  144.0305   77.0953  218.2164 H   0  0  0  0  0  0  0  0  0  0  0  0
  143.7693   76.9231  219.9428 H   0  0  0  0  0  0  0  0  0  0  0  0
  142.7282   75.1095  217.6679 H   0  0  0  0  0  0  0  0  0  0  0  0
  144.6783   75.6414  220.6317 H   0  0  0  0  0  0  0  0  0  0  0  0
  145.9411   73.8242  221.6827 H   0  0  0  0  0  0  0  0  0  0  0  0
  145.4730   71.4574  221.0151 H   0  0  0  0  0  0  0  0  0  0  0  0
  143.7325   71.0153  219.2974 H   0  0  0  0  0  0  0  0  0  0  0  0
  142.4777   72.8667  218.2545 H   0  0  0  0  0  0  0  0  0  0  0  0
  138.9778   70.8797  221.4107 H   0  0  0  0  0  0  0  0  0  0  0  0
  138.1994   68.8353  222.6724 H   0  0  0  0  0  0  0  0  0  0  0  0
  138.2676   67.4467  224.6796 H   0  0  0  0  0  0  0  0  0  0  0  0
  139.1480   67.0075  226.9658 H   0  0  0  0  0  0  0  0  0  0  0  0
  141.5326   70.5925  226.7339 H   0  0  0  0  0  0  0  0  0  0  0  0
  1  2  2  0
  2  3  1  0
  3  4  1  0
  4  5  1  0
  5  6  2  0
  5  7  1  0
  7  8  1  0
  8  9  1  0
  9 10  1  0
 10 11  1  0
 11 12  1  0
 12 13  2  0
 13 14  1  0
 14 15  2  0
 15 16  1  0
 16 17  2  0
  2 18  1  0
 18 19  2  0
 19 20  1  0
 20 21  2  0
 21 22  1  0
 22 23  2  0
 23 24  1  0
 24 25  1  0
 24 26  2  0
 26 27  1  0
 27 28  2  0
 11  7  1  0
 17 12  1  0
 28 18  1  0
 27 21  1  0
  3 29  1  0
  4 30  1  0
  4 31  1  0
  8 32  1  0
  8 33  1  0
  9 34  1  0
  9 35  1  0
 10 36  1  0
 10 37  1  0
 11 38  1  6
 13 39  1  0
 14 40  1  0
 15 41  1  0
 16 42  1  0
 17 43  1  0
 19 44  1  0
 20 45  1  0
 22 46  1  0
 23 47  1  0
 26 48  1  0
M  END
>  <smiles>  (42) 
O=C(NCC(=O)N1CCC[C@H]1c1ccccc1)c1ccc2ccc(Cl)cc2n1

>  <score_type>  (42) 
oracle

>  <origin>  (42) 
autodockgpu

>  <m_score__min__energy>  (42) 
-8.4600000000000009

>  <m_primary>  (42) 
energy

>  <rmsd>  (42) 
2.5197207784638995

>  <m_score__min__rmsd>  (42) 
2.5197207784638995

>  <meeko>  (42) 
{"free_energy": -7.51, "intermolecular_energy": -9.0, "internal_energy": -1.67, "cluster_size": 4, "cluster_id": 5, "rank_in_cluster": 3}

>  <energy>  (42) 
-7.11

>  <cluster_rmsd>  (42) 
0.18

>  <cluster>  (42) 
8

$$$$

     RDKit          3D

 48 51  0  0  0  0  0  0  0  0999 V2000
  141.2080   72.7650  221.1300 O   0  0  0  0  0  0  0  0  0  0  0  0
  140.4490   73.6260  221.6320 C   0  0  0  0  0  0  0  0  0  0  0  0
  139.3010   73.0900  222.3430 N   0  0  0  0  0  0  0  0  0  0  0  0
  139.1970   71.6640  222.3700 C   0  0  0  0  0  0  0  0  0  0  0  0
  138.2090   71.0460  223.2360 C   0  0  0  0  0  0  0  0  0  0  0  0
  137.3440   71.8900  223.7290 O   0  0  0  0  0  0  0  0  0  0  0  0
  138.0210   69.7170  223.6300 N   0  0  0  0  0  0  0  0  0  0  0  0
  137.3630   68.5880  222.9440 C   0  0  0  0  0  0  0  0  0  0  0  0
  138.4550   67.5650  223.0310 C   0  0  0  0  0  0  0  0  0  0  0  0
  139.1990   67.8560  224.3100 C   0  0  0  0  0  0  0  0  0  0  0  0
  138.4800   69.0680  224.8710 C   0  0  1  0  0  0  0  0  0  0  0  0
  139.3620   69.8780  225.7080 C   0  0  0  0  0  0  0  0  0  0  0  0
  140.2920   70.7800  225.2830 C   0  0  0  0  0  0  0  0  0  0  0  0
  141.1000   71.5230  226.1160 C   0  0  0  0  0  0  0  0  0  0  0  0
  140.9770   71.3590  227.4820 C   0  0  0  0  0  0  0  0  0  0  0  0
  140.0450   70.4530  227.9580 C   0  0  0  0  0  0  0  0  0  0  0  0
  139.2460   69.7200  227.0970 C   0  0  0  0  0  0  0  0  0  0  0  0
  140.6670   75.0640  221.5300 C   0  0  0  0  0  0  0  0  0  0  0  0
  141.6080   75.4900  220.6200 C   0  0  0  0  0  0  0  0  0  0  0  0
  141.7990   76.8740  220.5420 C   0  0  0  0  0  0  0  0  0  0  0  0
  141.0700   77.7450  221.3450 C   0  0  0  0  0  0  0  0  0  0  0  0
  141.2490   79.1220  221.2800 C   0  0  0  0  0  0  0  0  0  0  0  0
  140.5120   79.9780  222.0900 C   0  0  0  0  0  0  0  0  0  0  0  0
  139.5880   79.4410  222.9750 C   0  0  0  0  0  0  0  0  0  0  0  0
  138.6210   80.4770  224.0310 Cl  0  0  0  0  0  0  0  0  0  0  0  0
  139.3900   78.0810  223.0620 C   0  0  0  0  0  0  0  0  0  0  0  0
  140.1330   77.2420  222.2460 C   0  0  0  0  0  0  0  0  0  0  0  0
  139.9680   75.9140  222.3020 N   0  0  0  0  0  0  0  0  0  0  0  0
  138.6310   73.7570  222.7850 H   0  0  0  0  0  0  0  0  0  0  0  0
  138.9747   71.3376  221.3433 H   0  0  0  0  0  0  0  0  0  0  0  0
  140.1587   71.3376  222.7925 H   0  0  0  0  0  0  0  0  0  0  0  0
  136.4544   68.2623  223.4716 H   0  0  0  0  0  0  0  0  0  0  0  0
  137.0090   68.8051  221.9254 H   0  0  0  0  0  0  0  0  0  0  0  0
  138.0277   66.5518  223.0599 H   0  0  0  0  0  0  0  0  0  0  0  0
  139.1221   67.6138  222.1578 H   0  0  0  0  0  0  0  0  0  0  0  0
  139.1353   67.0050  225.0041 H   0  0  0  0  0  0  0  0  0  0  0  0
  140.2731   68.0315  224.1500 H   0  0  0  0  0  0  0  0  0  0  0  0
  137.6510   68.8563  225.5623 H   0  0  0  0  0  0  0  0  0  0  0  0
  140.4053   70.9248  224.1985 H   0  0  0  0  0  0  0  0  0  0  0  0
  141.8296   72.2338  225.7007 H   0  0  0  0  0  0  0  0  0  0  0  0
  141.6058   71.9357  228.1763 H   0  0  0  0  0  0  0  0  0  0  0  0
  139.9368   70.3124  229.0436 H   0  0  0  0  0  0  0  0  0  0  0  0
  138.5141   69.0077  227.5056 H   0  0  0  0  0  0  0  0  0  0  0  0
  142.1747   74.7860  219.9929 H   0  0  0  0  0  0  0  0  0  0  0  0
  142.5372   77.2796  219.8346 H   0  0  0  0  0  0  0  0  0  0  0  0
  141.9846   79.5403  220.5773 H   0  0  0  0  0  0  0  0  0  0  0  0
  140.6593   81.0665  222.0302 H   0  0  0  0  0  0  0  0  0  0  0  0
  138.6544   77.6672  223.7674 H   0  0  0  0  0  0  0  0  0  0  0  0
  1  2  2  0
  2  3  1  0
  3  4  1  0
  4  5  1  0
  5  6  2  0
  5  7  1  0
  7  8  1  0
  8  9  1  0
  9 10  1  0
 10 11  1  0
 11 12  1  0
 12 13  2  0
 13 14  1  0
 14 15  2  0
 15 16  1  0
 16 17  2  0
  2 18  1  0
 18 19  2  0
 19 20  1  0
 20 21  2  0
 21 22  1  0
 22 23  2  0
 23 24  1  0
 24 25  1  0
 24 26  2  0
 26 27  1  0
 27 28  2  0
 11  7  1  0
 17 12  1  0
 28 18  1  0
 27 21  1  0
  3 29  1  0
  4 30  1  0
  4 31  1  0
  8 32  1  0
  8 33  1  0
  9 34  1  0
  9 35  1  0
 10 36  1  0
 10 37  1  0
 11 38  1  1
 13 39  1  0
 14 40  1  0
 15 41  1  0
 16 42  1  0
 17 43  1  0
 19 44  1  0
 20 45  1  0
 22 46  1  0
 23 47  1  0
 26 48  1  0
M  END
>  <smiles>  (43) 
O=C(NCC(=O)N1CCC[C@H]1c1ccccc1)c1ccc2ccc(Cl)cc2n1

>  <score_type>  (43) 
oracle

>  <origin>  (43) 
autodockgpu

>  <m_score__min__energy>  (43) 
-8.4600000000000009

>  <m_primary>  (43) 
energy

>  <rmsd>  (43) 
8.381949489030273

>  <m_score__min__rmsd>  (43) 
8.381949489030273

>  <meeko>  (43) 
{"free_energy": -8.03, "intermolecular_energy": -9.52, "internal_energy": -1.6, "cluster_size": 15, "cluster_id": 2, "rank_in_cluster": 12}

>  <energy>  (43) 
-6.99

>  <cluster_rmsd>  (43) 
0.56

>  <cluster>  (43) 
8

$$$$

     RDKit          3D

 48 51  0  0  0  0  0  0  0  0999 V2000
  140.8690   73.5350  221.1900 O   0  0  0  0  0  0  0  0  0  0  0  0
  139.9090   73.3340  221.9700 C   0  0  0  0  0  0  0  0  0  0  0  0
  138.9820   74.4450  222.1000 N   0  0  0  0  0  0  0  0  0  0  0  0
  139.2930   75.6070  221.3260 C   0  0  0  0  0  0  0  0  0  0  0  0
  140.5710   76.2650  221.5270 C   0  0  0  0  0  0  0  0  0  0  0  0
  140.9100   76.3810  222.7830 O   0  0  0  0  0  0  0  0  0  0  0  0
  141.4970   76.7920  220.6210 N   0  0  0  0  0  0  0  0  0  0  0  0
  142.0390   76.2420  219.3620 C   0  0  0  0  0  0  0  0  0  0  0  0
  141.7680   77.3950  218.4430 C   0  0  0  0  0  0  0  0  0  0  0  0
  141.8670   78.6380  219.2910 C   0  0  0  0  0  0  0  0  0  0  0  0
  142.1740   78.1000  220.6750 C   0  0  1  0  0  0  0  0  0  0  0  0
  141.7000   79.0030  221.7210 C   0  0  0  0  0  0  0  0  0  0  0  0
  140.4440   79.5140  221.8520 C   0  0  0  0  0  0  0  0  0  0  0  0
  140.0450   80.3640  222.8620 C   0  0  0  0  0  0  0  0  0  0  0  0
  140.9680   80.7360  223.8200 C   0  0  0  0  0  0  0  0  0  0  0  0
  142.2570   80.2400  223.7270 C   0  0  0  0  0  0  0  0  0  0  0  0
  142.6290   79.3880  222.7000 C   0  0  0  0  0  0  0  0  0  0  0  0
  139.7060   72.0930  222.7080 C   0  0  0  0  0  0  0  0  0  0  0  0
  138.9960   71.0990  222.0750 C   0  0  0  0  0  0  0  0  0  0  0  0
  138.8140   69.9190  222.8060 C   0  0  0  0  0  0  0  0  0  0  0  0
  139.3300   69.7840  224.0900 C   0  0  0  0  0  0  0  0  0  0  0  0
  139.1570   68.6190  224.8280 C   0  0  0  0  0  0  0  0  0  0  0  0
  139.6790   68.5000  226.1110 C   0  0  0  0  0  0  0  0  0  0  0  0
  140.3800   69.5670  226.6550 C   0  0  0  0  0  0  0  0  0  0  0  0
  141.0670   69.4780  228.2810 Cl  0  0  0  0  0  0  0  0  0  0  0  0
  140.5660   70.7340  225.9480 C   0  0  0  0  0  0  0  0  0  0  0  0
  140.0390   70.8340  224.6690 C   0  0  0  0  0  0  0  0  0  0  0  0
  140.2000   71.9530  223.9520 N   0  0  0  0  0  0  0  0  0  0  0  0
  138.1600   74.3390  222.7330 H   0  0  0  0  0  0  0  0  0  0  0  0
  139.2456   75.3114  220.2675 H   0  0  0  0  0  0  0  0  0  0  0  0
  138.5569   76.3523  221.6616 H   0  0  0  0  0  0  0  0  0  0  0  0
  143.1145   76.0249  219.4399 H   0  0  0  0  0  0  0  0  0  0  0  0
  141.6022   75.2829  219.0469 H   0  0  0  0  0  0  0  0  0  0  0  0
  142.5145   77.4233  217.6356 H   0  0  0  0  0  0  0  0  0  0  0  0
  140.7783   77.3085  217.9708 H   0  0  0  0  0  0  0  0  0  0  0  0
  142.6762   79.2929  218.9355 H   0  0  0  0  0  0  0  0  0  0  0  0
  140.9531   79.2495  219.2625 H   0  0  0  0  0  0  0  0  0  0  0  0
  143.2406   78.0076  220.9274 H   0  0  0  0  0  0  0  0  0  0  0  0
  139.6950   79.2284  221.0988 H   0  0  0  0  0  0  0  0  0  0  0  0
  139.0116   80.7386  222.9039 H   0  0  0  0  0  0  0  0  0  0  0  0
  140.6846   81.4124  224.6399 H   0  0  0  0  0  0  0  0  0  0  0  0
  143.0011   80.5283  224.4841 H   0  0  0  0  0  0  0  0  0  0  0  0
  143.6609   79.0101  222.6514 H   0  0  0  0  0  0  0  0  0  0  0  0
  138.5962   71.2237  221.0578 H   0  0  0  0  0  0  0  0  0  0  0  0
  138.2538   69.0854  222.3574 H   0  0  0  0  0  0  0  0  0  0  0  0
  138.5986   67.7784  224.3903 H   0  0  0  0  0  0  0  0  0  0  0  0
  139.5384   67.5733  226.6867 H   0  0  0  0  0  0  0  0  0  0  0  0
  141.1233   71.5729  226.3903 H   0  0  0  0  0  0  0  0  0  0  0  0
  1  2  2  0
  2  3  1  0
  3  4  1  0
  4  5  1  0
  5  6  2  0
  5  7  1  0
  7  8  1  0
  8  9  1  0
  9 10  1  0
 10 11  1  0
 11 12  1  0
 12 13  2  0
 13 14  1  0
 14 15  2  0
 15 16  1  0
 16 17  2  0
  2 18  1  0
 18 19  2  0
 19 20  1  0
 20 21  2  0
 21 22  1  0
 22 23  2  0
 23 24  1  0
 24 25  1  0
 24 26  2  0
 26 27  1  0
 27 28  2  0
 11  7  1  0
 17 12  1  0
 28 18  1  0
 27 21  1  0
  3 29  1  0
  4 30  1  0
  4 31  1  0
  8 32  1  0
  8 33  1  0
  9 34  1  0
  9 35  1  0
 10 36  1  0
 10 37  1  0
 11 38  1  6
 13 39  1  0
 14 40  1  0
 15 41  1  0
 16 42  1  0
 17 43  1  0
 19 44  1  0
 20 45  1  0
 22 46  1  0
 23 47  1  0
 26 48  1  0
M  END
>  <smiles>  (44) 
O=C(NCC(=O)N1CCC[C@H]1c1ccccc1)c1ccc2ccc(Cl)cc2n1

>  <score_type>  (44) 
oracle

>  <origin>  (44) 
autodockgpu

>  <m_score__min__energy>  (44) 
-8.4600000000000009

>  <m_primary>  (44) 
energy

>  <rmsd>  (44) 
2.3029318321722902

>  <m_score__min__rmsd>  (44) 
2.3029318321722902

>  <meeko>  (44) 
{"free_energy": -8.26, "intermolecular_energy": -9.75, "internal_energy": -1.25, "cluster_size": 9, "cluster_id": 3, "rank_in_cluster": 1}

>  <energy>  (44) 
-7.15

>  <cluster_rmsd>  (44) 
0.0

>  <cluster>  (44) 
9

$$$$

     RDKit          3D

 48 51  0  0  0  0  0  0  0  0999 V2000
  134.8900   68.3360  224.9930 O   0  0  0  0  0  0  0  0  0  0  0  0
  135.0660   69.5770  224.9880 C   0  0  0  0  0  0  0  0  0  0  0  0
  136.2670   70.0220  224.3030 N   0  0  0  0  0  0  0  0  0  0  0  0
  137.0770   68.9900  223.7340 C   0  0  0  0  0  0  0  0  0  0  0  0
  138.4790   68.9110  224.1040 C   0  0  0  0  0  0  0  0  0  0  0  0
  138.7850   67.8310  224.7710 O   0  0  0  0  0  0  0  0  0  0  0  0
  139.5510   69.7800  223.8730 N   0  0  0  0  0  0  0  0  0  0  0  0
  139.8420   70.6760  222.7360 C   0  0  0  0  0  0  0  0  0  0  0  0
  140.0700   71.9600  223.4760 C   0  0  0  0  0  0  0  0  0  0  0  0
  140.6510   71.5740  224.8130 C   0  0  0  0  0  0  0  0  0  0  0  0
  140.6970   70.0590  224.7560 C   0  0  1  0  0  0  0  0  0  0  0  0
  140.6130   69.4670  226.0900 C   0  0  0  0  0  0  0  0  0  0  0  0
  141.1810   68.2990  226.5030 C   0  0  0  0  0  0  0  0  0  0  0  0
  141.0740   67.7840  227.7770 C   0  0  0  0  0  0  0  0  0  0  0  0
  140.3450   68.4840  228.7180 C   0  0  0  0  0  0  0  0  0  0  0  0
  139.7500   69.6760  228.3420 C   0  0  0  0  0  0  0  0  0  0  0  0
  139.8750   70.1700  227.0540 C   0  0  0  0  0  0  0  0  0  0  0  0
  134.1570   70.5310  225.6120 C   0  0  0  0  0  0  0  0  0  0  0  0
  133.0320   70.0180  226.2170 C   0  0  0  0  0  0  0  0  0  0  0  0
  132.1770   70.9550  226.8080 C   0  0  0  0  0  0  0  0  0  0  0  0
  132.4680   72.3140  226.7730 C   0  0  0  0  0  0  0  0  0  0  0  0
  131.6270   73.2560  227.3540 C   0  0  0  0  0  0  0  0  0  0  0  0
  131.9330   74.6120  227.3100 C   0  0  0  0  0  0  0  0  0  0  0  0
  133.0950   75.0200  226.6720 C   0  0  0  0  0  0  0  0  0  0  0  0
  133.5380   76.7290  226.5820 Cl  0  0  0  0  0  0  0  0  0  0  0  0
  133.9470   74.1100  226.0860 C   0  0  0  0  0  0  0  0  0  0  0  0
  133.6260   72.7620  226.1410 C   0  0  0  0  0  0  0  0  0  0  0  0
  134.4290   71.8480  225.5830 N   0  0  0  0  0  0  0  0  0  0  0  0
  136.4690   71.0450  224.2620 H   0  0  0  0  0  0  0  0  0  0  0  0
  136.6163   68.0299  224.0095 H   0  0  0  0  0  0  0  0  0  0  0  0
  137.1005   69.2341  222.6617 H   0  0  0  0  0  0  0  0  0  0  0  0
  140.7380   70.3577  222.1830 H   0  0  0  0  0  0  0  0  0  0  0  0
  139.0603   70.7165  221.9631 H   0  0  0  0  0  0  0  0  0  0  0  0
  140.7746   72.5991  222.9237 H   0  0  0  0  0  0  0  0  0  0  0  0
  139.1354   72.5283  223.5927 H   0  0  0  0  0  0  0  0  0  0  0  0
  141.6601   71.9934  224.9389 H   0  0  0  0  0  0  0  0  0  0  0  0
  140.0619   71.9528  225.6612 H   0  0  0  0  0  0  0  0  0  0  0  0
  141.6325   69.6218  224.3769 H   0  0  0  0  0  0  0  0  0  0  0  0
  141.7661   67.7270  225.7678 H   0  0  0  0  0  0  0  0  0  0  0  0
  141.5604   66.8329  228.0393 H   0  0  0  0  0  0  0  0  0  0  0  0
  140.2394   68.1026  229.7443 H   0  0  0  0  0  0  0  0  0  0  0  0
  139.1656   70.2429  229.0817 H   0  0  0  0  0  0  0  0  0  0  0  0
  139.3919   71.1209  226.7849 H   0  0  0  0  0  0  0  0  0  0  0  0
  132.8184   68.9391  226.2348 H   0  0  0  0  0  0  0  0  0  0  0  0
  131.2599   70.6107  227.3083 H   0  0  0  0  0  0  0  0  0  0  0  0
  130.7061   72.9242  227.8559 H   0  0  0  0  0  0  0  0  0  0  0  0
  131.2630   75.3504  227.7746 H   0  0  0  0  0  0  0  0  0  0  0  0
  134.8657   74.4466  225.5833 H   0  0  0  0  0  0  0  0  0  0  0  0
  1  2  2  0
  2  3  1  0
  3  4  1  0
  4  5  1  0
  5  6  2  0
  5  7  1  0
  7  8  1  0
  8  9  1  0
  9 10  1  0
 10 11  1  0
 11 12  1  0
 12 13  2  0
 13 14  1  0
 14 15  2  0
 15 16  1  0
 16 17  2  0
  2 18  1  0
 18 19  2  0
 19 20  1  0
 20 21  2  0
 21 22  1  0
 22 23  2  0
 23 24  1  0
 24 25  1  0
 24 26  2  0
 26 27  1  0
 27 28  2  0
 11  7  1  0
 17 12  1  0
 28 18  1  0
 27 21  1  0
  3 29  1  0
  4 30  1  0
  4 31  1  0
  8 32  1  0
  8 33  1  0
  9 34  1  0
  9 35  1  0
 10 36  1  0
 10 37  1  0
 11 38  1  6
 13 39  1  0
 14 40  1  0
 15 41  1  0
 16 42  1  0
 17 43  1  0
 19 44  1  0
 20 45  1  0
 22 46  1  0
 23 47  1  0
 26 48  1  0
M  END
>  <smiles>  (45) 
O=C(NCC(=O)N1CCC[C@H]1c1ccccc1)c1ccc2ccc(Cl)cc2n1

>  <score_type>  (45) 
oracle

>  <origin>  (45) 
autodockgpu

>  <m_score__min__energy>  (45) 
-8.4600000000000009

>  <m_primary>  (45) 
energy

>  <rmsd>  (45) 
7.363088046683549

>  <m_score__min__rmsd>  (45) 
7.363088046683549

>  <meeko>  (45) 
{"free_energy": -8.39, "intermolecular_energy": -9.88, "internal_energy": -1.52, "cluster_size": 9, "cluster_id": 1, "rank_in_cluster": 4}

>  <energy>  (45) 
-7.15

>  <cluster_rmsd>  (45) 
0.06

>  <cluster>  (45) 
9

$$$$

     RDKit          3D

 48 51  0  0  0  0  0  0  0  0999 V2000
  134.9560   68.5190  225.1690 O   0  0  0  0  0  0  0  0  0  0  0  0
  135.2630   69.7330  225.1160 C   0  0  0  0  0  0  0  0  0  0  0  0
  136.4940   70.0220  224.4010 N   0  0  0  0  0  0  0  0  0  0  0  0
  137.1810   68.8890  223.8630 C   0  0  0  0  0  0  0  0  0  0  0  0
  138.6210   68.8000  224.0190 C   0  0  0  0  0  0  0  0  0  0  0  0
  139.0350   67.6250  224.4080 O   0  0  0  0  0  0  0  0  0  0  0  0
  139.6370   69.7430  223.8250 N   0  0  0  0  0  0  0  0  0  0  0  0
  139.9470   70.6060  222.6680 C   0  0  0  0  0  0  0  0  0  0  0  0
  140.0120   71.9370  223.3540 C   0  0  0  0  0  0  0  0  0  0  0  0
  140.5120   71.6630  224.7500 C   0  0  0  0  0  0  0  0  0  0  0  0
  140.6810   70.1560  224.7780 C   0  0  1  0  0  0  0  0  0  0  0  0
  140.5370   69.6230  226.1300 C   0  0  0  0  0  0  0  0  0  0  0  0
  139.8480   70.1860  227.1620 C   0  0  0  0  0  0  0  0  0  0  0  0
  139.7400   69.6400  228.4230 C   0  0  0  0  0  0  0  0  0  0  0  0
  140.3660   68.4360  228.6810 C   0  0  0  0  0  0  0  0  0  0  0  0
  141.0780   67.8270  227.6610 C   0  0  0  0  0  0  0  0  0  0  0  0
  141.1690   68.4000  226.4040 C   0  0  0  0  0  0  0  0  0  0  0  0
  134.4700   70.8010  225.7130 C   0  0  0  0  0  0  0  0  0  0  0  0
  133.5450   70.4350  226.6640 C   0  0  0  0  0  0  0  0  0  0  0  0
  132.7980   71.4790  227.2220 C   0  0  0  0  0  0  0  0  0  0  0  0
  132.9970   72.7960  226.8230 C   0  0  0  0  0  0  0  0  0  0  0  0
  132.2620   73.8430  227.3670 C   0  0  0  0  0  0  0  0  0  0  0  0
  132.4730   75.1540  226.9570 C   0  0  0  0  0  0  0  0  0  0  0  0
  133.4330   75.4110  225.9890 C   0  0  0  0  0  0  0  0  0  0  0  0
  133.7480   77.0570  225.4250 Cl  0  0  0  0  0  0  0  0  0  0  0  0
  134.1760   74.3950  225.4310 C   0  0  0  0  0  0  0  0  0  0  0  0
  133.9530   73.0930  225.8530 C   0  0  0  0  0  0  0  0  0  0  0  0
  134.6550   72.0780  225.3340 N   0  0  0  0  0  0  0  0  0  0  0  0
  136.8030   71.0150  224.3190 H   0  0  0  0  0  0  0  0  0  0  0  0
  136.7496   67.9953  224.3375 H   0  0  0  0  0  0  0  0  0  0  0  0
  137.0389   68.9858  222.7765 H   0  0  0  0  0  0  0  0  0  0  0  0
  140.9072   70.3379  222.2031 H   0  0  0  0  0  0  0  0  0  0  0  0
  139.2296   70.5453  221.8363 H   0  0  0  0  0  0  0  0  0  0  0  0
  140.7059   72.6062  222.8243 H   0  0  0  0  0  0  0  0  0  0  0  0
  139.0290   72.4305  223.3685 H   0  0  0  0  0  0  0  0  0  0  0  0
  141.4718   72.1694  224.9300 H   0  0  0  0  0  0  0  0  0  0  0  0
  139.8285   72.0313  225.5292 H   0  0  0  0  0  0  0  0  0  0  0  0
  141.6754   69.7792  224.4965 H   0  0  0  0  0  0  0  0  0  0  0  0
  139.3419   71.1446  226.9755 H   0  0  0  0  0  0  0  0  0  0  0  0
  139.1663   70.1532  229.2088 H   0  0  0  0  0  0  0  0  0  0  0  0
  140.3004   67.9707  229.6756 H   0  0  0  0  0  0  0  0  0  0  0  0
  141.5816   66.8682  227.8536 H   0  0  0  0  0  0  0  0  0  0  0  0
  141.7413   67.8926  225.6134 H   0  0  0  0  0  0  0  0  0  0  0  0
  133.4016   69.3873  226.9668 H   0  0  0  0  0  0  0  0  0  0  0  0
  132.0416   71.2540  227.9883 H   0  0  0  0  0  0  0  0  0  0  0  0
  131.5020   73.6307  228.1334 H   0  0  0  0  0  0  0  0  0  0  0  0
  131.8872   75.9762  227.3938 H   0  0  0  0  0  0  0  0  0  0  0  0
  134.9335   74.6123  224.6636 H   0  0  0  0  0  0  0  0  0  0  0  0
  1  2  2  0
  2  3  1  0
  3  4  1  0
  4  5  1  0
  5  6  2  0
  5  7  1  0
  7  8  1  0
  8  9  1  0
  9 10  1  0
 10 11  1  0
 11 12  1  0
 12 13  2  0
 13 14  1  0
 14 15  2  0
 15 16  1  0
 16 17  2  0
  2 18  1  0
 18 19  2  0
 19 20  1  0
 20 21  2  0
 21 22  1  0
 22 23  2  0
 23 24  1  0
 24 25  1  0
 24 26  2  0
 26 27  1  0
 27 28  2  0
 11  7  1  0
 17 12  1  0
 28 18  1  0
 27 21  1  0
  3 29  1  0
  4 30  1  0
  4 31  1  0
  8 32  1  0
  8 33  1  0
  9 34  1  0
  9 35  1  0
 10 36  1  0
 10 37  1  0
 11 38  1  6
 13 39  1  0
 14 40  1  0
 15 41  1  0
 16 42  1  0
 17 43  1  0
 19 44  1  0
 20 45  1  0
 22 46  1  0
 23 47  1  0
 26 48  1  0
M  END
>  <smiles>  (46) 
O=C(NCC(=O)N1CCC[C@H]1c1ccccc1)c1ccc2ccc(Cl)cc2n1

>  <score_type>  (46) 
oracle

>  <origin>  (46) 
autodockgpu

>  <m_score__min__energy>  (46) 
-8.4600000000000009

>  <m_primary>  (46) 
energy

>  <rmsd>  (46) 
7.295088067006457

>  <m_score__min__rmsd>  (46) 
7.295088067006457

>  <meeko>  (46) 
{"free_energy": -8.26, "intermolecular_energy": -9.75, "internal_energy": -1.64, "cluster_size": 9, "cluster_id": 1, "rank_in_cluster": 6}

>  <energy>  (46) 
-7.12

>  <cluster_rmsd>  (46) 
0.12

>  <cluster>  (46) 
9

$$$$

     RDKit          3D

 48 51  0  0  0  0  0  0  0  0999 V2000
  141.4060   73.3610  221.3630 O   0  0  0  0  0  0  0  0  0  0  0  0
  140.3960   73.3050  222.1010 C   0  0  0  0  0  0  0  0  0  0  0  0
  139.6300   74.5360  222.1850 N   0  0  0  0  0  0  0  0  0  0  0  0
  140.1330   75.6340  221.4190 C   0  0  0  0  0  0  0  0  0  0  0  0
  139.5940   76.9620  221.6540 C   0  0  0  0  0  0  0  0  0  0  0  0
  138.3150   77.0580  221.4160 O   0  0  0  0  0  0  0  0  0  0  0  0
  140.2000   78.1460  222.0880 N   0  0  0  0  0  0  0  0  0  0  0  0
  140.0250   78.9230  223.3310 C   0  0  0  0  0  0  0  0  0  0  0  0
  141.4550   79.0360  223.7640 C   0  0  0  0  0  0  0  0  0  0  0  0
  142.2740   79.0640  222.4980 C   0  0  0  0  0  0  0  0  0  0  0  0
  141.2340   78.9380  221.4000 C   0  0  1  0  0  0  0  0  0  0  0  0
  141.7920   78.3240  220.1980 C   0  0  0  0  0  0  0  0  0  0  0  0
  142.4860   77.1520  220.1250 C   0  0  0  0  0  0  0  0  0  0  0  0
  142.9910   76.6130  218.9610 C   0  0  0  0  0  0  0  0  0  0  0  0
  142.7930   77.2900  217.7740 C   0  0  0  0  0  0  0  0  0  0  0  0
  142.0930   78.4850  217.8010 C   0  0  0  0  0  0  0  0  0  0  0  0
  141.5970   79.0030  218.9860 C   0  0  0  0  0  0  0  0  0  0  0  0
  139.9890   72.1140  222.8370 C   0  0  0  0  0  0  0  0  0  0  0  0
  139.0830   71.2790  222.2230 C   0  0  0  0  0  0  0  0  0  0  0  0
  138.7090   70.1430  222.9500 C   0  0  0  0  0  0  0  0  0  0  0  0
  139.2350   69.8950  224.2130 C   0  0  0  0  0  0  0  0  0  0  0  0
  138.8720   68.7720  224.9470 C   0  0  0  0  0  0  0  0  0  0  0  0
  139.4080   68.5390  226.2090 C   0  0  0  0  0  0  0  0  0  0  0  0
  140.3150   69.4470  226.7340 C   0  0  0  0  0  0  0  0  0  0  0  0
  141.0310   69.2060  228.3330 Cl  0  0  0  0  0  0  0  0  0  0  0  0
  140.6930   70.5690  226.0310 C   0  0  0  0  0  0  0  0  0  0  0  0
  140.1490   70.7850  224.7730 C   0  0  0  0  0  0  0  0  0  0  0  0
  140.4920   71.8640  224.0590 N   0  0  0  0  0  0  0  0  0  0  0  0
  138.7740   74.5540  222.7820 H   0  0  0  0  0  0  0  0  0  0  0  0
  141.2157   75.6879  221.6055 H   0  0  0  0  0  0  0  0  0  0  0  0
  139.8225   75.4017  220.3896 H   0  0  0  0  0  0  0  0  0  0  0  0
  139.5769   79.9088  223.1376 H   0  0  0  0  0  0  0  0  0  0  0  0
  139.3488   78.4706  224.0714 H   0  0  0  0  0  0  0  0  0  0  0  0
  141.6080   79.9616  224.3383 H   0  0  0  0  0  0  0  0  0  0  0  0
  141.7461   78.1967  224.4127 H   0  0  0  0  0  0  0  0  0  0  0  0
  142.8274   80.0105  222.4086 H   0  0  0  0  0  0  0  0  0  0  0  0
  143.0336   78.2693  222.4617 H   0  0  0  0  0  0  0  0  0  0  0  0
  140.8388   79.8844  221.0024 H   0  0  0  0  0  0  0  0  0  0  0  0
  142.6545   76.5982  221.0604 H   0  0  0  0  0  0  0  0  0  0  0  0
  143.5417   75.6609  218.9775 H   0  0  0  0  0  0  0  0  0  0  0  0
  143.1829   76.8888  216.8269 H   0  0  0  0  0  0  0  0  0  0  0  0
  141.9276   79.0338  216.8621 H   0  0  0  0  0  0  0  0  0  0  0  0
  141.0456   79.9548  218.9766 H   0  0  0  0  0  0  0  0  0  0  0  0
  138.6779   71.4915  221.2226 H   0  0  0  0  0  0  0  0  0  0  0  0
  137.9877   69.4353  222.5154 H   0  0  0  0  0  0  0  0  0  0  0  0
  138.1506   68.0575  224.5239 H   0  0  0  0  0  0  0  0  0  0  0  0
  139.1165   67.6469  226.7827 H   0  0  0  0  0  0  0  0  0  0  0  0
  141.4135   71.2815  226.4592 H   0  0  0  0  0  0  0  0  0  0  0  0
  1  2  2  0
  2  3  1  0
  3  4  1  0
  4  5  1  0
  5  6  2  0
  5  7  1  0
  7  8  1  0
  8  9  1  0
  9 10  1  0
 10 11  1  0
 11 12  1  0
 12 13  2  0
 13 14  1  0
 14 15  2  0
 15 16  1  0
 16 17  2  0
  2 18  1  0
 18 19  2  0
 19 20  1  0
 20 21  2  0
 21 22  1  0
 22 23  2  0
 23 24  1  0
 24 25  1  0
 24 26  2  0
 26 27  1  0
 27 28  2  0
 11  7  1  0
 17 12  1  0
 28 18  1  0
 27 21  1  0
  3 29  1  0
  4 30  1  0
  4 31  1  0
  8 32  1  0
  8 33  1  0
  9 34  1  0
  9 35  1  0
 10 36  1  0
 10 37  1  0
 11 38  1  6
 13 39  1  0
 14 40  1  0
 15 41  1  0
 16 42  1  0
 17 43  1  0
 19 44  1  0
 20 45  1  0
 22 46  1  0
 23 47  1  0
 26 48  1  0
M  END
>  <smiles>  (47) 
O=C(NCC(=O)N1CCC[C@H]1c1ccccc1)c1ccc2ccc(Cl)cc2n1

>  <score_type>  (47) 
oracle

>  <origin>  (47) 
autodockgpu

>  <m_score__min__energy>  (47) 
-8.4600000000000009

>  <m_primary>  (47) 
energy

>  <rmsd>  (47) 
3.7930095120354475

>  <m_score__min__rmsd>  (47) 
3.7930095120354475

>  <meeko>  (47) 
{"free_energy": -8.06, "intermolecular_energy": -9.55, "internal_energy": -1.24, "cluster_size": 9, "cluster_id": 3, "rank_in_cluster": 4}

>  <energy>  (47) 
-7.11

>  <cluster_rmsd>  (47) 
0.16

>  <cluster>  (47) 
9

$$$$

     RDKit          3D

 48 51  0  0  0  0  0  0  0  0999 V2000
  134.7900   68.3380  224.8770 O   0  0  0  0  0  0  0  0  0  0  0  0
  135.0350   69.5630  224.9820 C   0  0  0  0  0  0  0  0  0  0  0  0
  136.3010   69.9850  224.4080 N   0  0  0  0  0  0  0  0  0  0  0  0
  137.0880   68.9510  223.8100 C   0  0  0  0  0  0  0  0  0  0  0  0
  138.5040   68.8780  224.1170 C   0  0  0  0  0  0  0  0  0  0  0  0
  138.8550   67.7700  224.7120 O   0  0  0  0  0  0  0  0  0  0  0  0
  139.5520   69.7760  223.8890 N   0  0  0  0  0  0  0  0  0  0  0  0
  139.8190   70.6840  222.7560 C   0  0  0  0  0  0  0  0  0  0  0  0
  140.0110   71.9710  223.5000 C   0  0  0  0  0  0  0  0  0  0  0  0
  140.6020   71.5970  224.8360 C   0  0  0  0  0  0  0  0  0  0  0  0
  140.6890   70.0840  224.7740 C   0  0  1  0  0  0  0  0  0  0  0  0
  140.6220   69.4860  226.1060 C   0  0  0  0  0  0  0  0  0  0  0  0
  141.1650   68.2990  226.4970 C   0  0  0  0  0  0  0  0  0  0  0  0
  141.0740   67.7780  227.7700 C   0  0  0  0  0  0  0  0  0  0  0  0
  140.3890   68.4930  228.7340 C   0  0  0  0  0  0  0  0  0  0  0  0
  139.8210   69.7050  228.3800 C   0  0  0  0  0  0  0  0  0  0  0  0
  139.9280   70.2030  227.0920 C   0  0  0  0  0  0  0  0  0  0  0  0
  134.1420   70.5200  225.6230 C   0  0  0  0  0  0  0  0  0  0  0  0
  133.0230   70.0130  226.2440 C   0  0  0  0  0  0  0  0  0  0  0  0
  132.1830   70.9530  226.8510 C   0  0  0  0  0  0  0  0  0  0  0  0
  132.4820   72.3100  226.8160 C   0  0  0  0  0  0  0  0  0  0  0  0
  131.6570   73.2550  227.4140 C   0  0  0  0  0  0  0  0  0  0  0  0
  131.9700   74.6090  227.3700 C   0  0  0  0  0  0  0  0  0  0  0  0
  133.1250   75.0120  226.7150 C   0  0  0  0  0  0  0  0  0  0  0  0
  133.5770   76.7190  226.6240 Cl  0  0  0  0  0  0  0  0  0  0  0  0
  133.9610   74.0990  226.1130 C   0  0  0  0  0  0  0  0  0  0  0  0
  133.6340   72.7530  226.1680 C   0  0  0  0  0  0  0  0  0  0  0  0
  134.4220   71.8350  225.5940 N   0  0  0  0  0  0  0  0  0  0  0  0
  136.5620   70.9940  224.4600 H   0  0  0  0  0  0  0  0  0  0  0  0
  136.6428   67.9916  224.1121 H   0  0  0  0  0  0  0  0  0  0  0  0
  137.0629   69.1881  222.7361 H   0  0  0  0  0  0  0  0  0  0  0  0
  140.7239   70.3925  222.2026 H   0  0  0  0  0  0  0  0  0  0  0  0
  139.0367   70.7058  221.9830 H   0  0  0  0  0  0  0  0  0  0  0  0
  140.6978   72.6312  222.9500 H   0  0  0  0  0  0  0  0  0  0  0  0
  139.0610   72.5127  223.6181 H   0  0  0  0  0  0  0  0  0  0  0  0
  141.5993   72.0432  224.9635 H   0  0  0  0  0  0  0  0  0  0  0  0
  140.0028   71.9571  225.6853 H   0  0  0  0  0  0  0  0  0  0  0  0
  141.6359   69.6734  224.3935 H   0  0  0  0  0  0  0  0  0  0  0  0
  141.7146   67.7154  225.7438 H   0  0  0  0  0  0  0  0  0  0  0  0
  141.5381   66.8110  228.0140 H   0  0  0  0  0  0  0  0  0  0  0  0
  140.2970   68.1076  229.7602 H   0  0  0  0  0  0  0  0  0  0  0  0
  139.2732   70.2846  229.1376 H   0  0  0  0  0  0  0  0  0  0  0  0
  139.4650   71.1685  226.8402 H   0  0  0  0  0  0  0  0  0  0  0  0
  132.8028   68.9354  226.2619 H   0  0  0  0  0  0  0  0  0  0  0  0
  131.2714   70.6127  227.3641 H   0  0  0  0  0  0  0  0  0  0  0  0
  130.7426   72.9269  227.9299 H   0  0  0  0  0  0  0  0  0  0  0  0
  131.3117   75.3498  227.8474 H   0  0  0  0  0  0  0  0  0  0  0  0
  134.8735   74.4320  225.5968 H   0  0  0  0  0  0  0  0  0  0  0  0
  1  2  2  0
  2  3  1  0
  3  4  1  0
  4  5  1  0
  5  6  2  0
  5  7  1  0
  7  8  1  0
  8  9  1  0
  9 10  1  0
 10 11  1  0
 11 12  1  0
 12 13  2  0
 13 14  1  0
 14 15  2  0
 15 16  1  0
 16 17  2  0
  2 18  1  0
 18 19  2  0
 19 20  1  0
 20 21  2  0
 21 22  1  0
 22 23  2  0
 23 24  1  0
 24 25  1  0
 24 26  2  0
 26 27  1  0
 27 28  2  0
 11  7  1  0
 17 12  1  0
 28 18  1  0
 27 21  1  0
  3 29  1  0
  4 30  1  0
  4 31  1  0
  8 32  1  0
  8 33  1  0
  9 34  1  0
  9 35  1  0
 10 36  1  0
 10 37  1  0
 11 38  1  6
 13 39  1  0
 14 40  1  0
 15 41  1  0
 16 42  1  0
 17 43  1  0
 19 44  1  0
 20 45  1  0
 22 46  1  0
 23 47  1  0
 26 48  1  0
M  END
>  <smiles>  (48) 
O=C(NCC(=O)N1CCC[C@H]1c1ccccc1)c1ccc2ccc(Cl)cc2n1

>  <score_type>  (48) 
oracle

>  <origin>  (48) 
autodockgpu

>  <m_score__min__energy>  (48) 
-8.4600000000000009

>  <m_primary>  (48) 
energy

>  <rmsd>  (48) 
7.36787233444679

>  <m_score__min__rmsd>  (48) 
7.36787233444679

>  <meeko>  (48) 
{"free_energy": -8.45, "intermolecular_energy": -9.94, "internal_energy": -1.54, "cluster_size": 9, "cluster_id": 1, "rank_in_cluster": 2}

>  <energy>  (48) 
-7.04

>  <cluster_rmsd>  (48) 
0.25

>  <cluster>  (48) 
9

$$$$

     RDKit          3D

 48 51  0  0  0  0  0  0  0  0999 V2000
  136.7080   71.3640  223.6570 O   0  0  0  0  0  0  0  0  0  0  0  0
  135.9320   70.7380  224.4170 C   0  0  0  0  0  0  0  0  0  0  0  0
  136.1190   69.2980  224.4310 N   0  0  0  0  0  0  0  0  0  0  0  0
  137.1530   68.7970  223.5800 C   0  0  0  0  0  0  0  0  0  0  0  0
  138.5270   68.8280  224.0490 C   0  0  0  0  0  0  0  0  0  0  0  0
  138.8500   67.8060  224.7950 O   0  0  0  0  0  0  0  0  0  0  0  0
  139.5580   69.7510  223.8430 N   0  0  0  0  0  0  0  0  0  0  0  0
  139.8820   70.5950  222.6760 C   0  0  0  0  0  0  0  0  0  0  0  0
  139.9710   71.9330  223.3470 C   0  0  0  0  0  0  0  0  0  0  0  0
  140.4680   71.6670  224.7460 C   0  0  0  0  0  0  0  0  0  0  0  0
  140.6110   70.1570  224.7900 C   0  0  1  0  0  0  0  0  0  0  0  0
  140.4600   69.6420  226.1490 C   0  0  0  0  0  0  0  0  0  0  0  0
  139.6890   70.1690  227.1420 C   0  0  0  0  0  0  0  0  0  0  0  0
  139.5790   69.6420  228.4110 C   0  0  0  0  0  0  0  0  0  0  0  0
  140.2890   68.4980  228.7200 C   0  0  0  0  0  0  0  0  0  0  0  0
  141.0850   67.9280  227.7400 C   0  0  0  0  0  0  0  0  0  0  0  0
  141.1770   68.4810  226.4740 C   0  0  0  0  0  0  0  0  0  0  0  0
  134.9090   71.3730  225.2380 C   0  0  0  0  0  0  0  0  0  0  0  0
  134.0460   70.5420  225.9160 C   0  0  0  0  0  0  0  0  0  0  0  0
  133.0730   71.1770  226.6960 C   0  0  0  0  0  0  0  0  0  0  0  0
  133.0040   72.5630  226.7670 C   0  0  0  0  0  0  0  0  0  0  0  0
  132.0430   73.2080  227.5370 C   0  0  0  0  0  0  0  0  0  0  0  0
  131.9860   74.5960  227.5970 C   0  0  0  0  0  0  0  0  0  0  0  0
  132.9060   75.3400  226.8720 C   0  0  0  0  0  0  0  0  0  0  0  0
  132.8860   77.1070  226.9070 Cl  0  0  0  0  0  0  0  0  0  0  0  0
  133.8690   74.7290  226.1000 C   0  0  0  0  0  0  0  0  0  0  0  0
  133.9110   73.3440  226.0530 C   0  0  0  0  0  0  0  0  0  0  0  0
  134.8320   72.7140  225.3130 N   0  0  0  0  0  0  0  0  0  0  0  0
  135.5050   68.7200  225.0460 H   0  0  0  0  0  0  0  0  0  0  0  0
  136.9104   67.7465  223.3620 H   0  0  0  0  0  0  0  0  0  0  0  0
  137.1501   69.4895  222.7253 H   0  0  0  0  0  0  0  0  0  0  0  0
  140.8369   70.3048  222.2135 H   0  0  0  0  0  0  0  0  0  0  0  0
  139.1629   70.5374  221.8456 H   0  0  0  0  0  0  0  0  0  0  0  0
  140.6757   72.5839  222.8088 H   0  0  0  0  0  0  0  0  0  0  0  0
  138.9965   72.4433  223.3569 H   0  0  0  0  0  0  0  0  0  0  0  0
  141.4365   72.1589  224.9193 H   0  0  0  0  0  0  0  0  0  0  0  0
  139.7924   72.0562  225.5219 H   0  0  0  0  0  0  0  0  0  0  0  0
  141.5980   69.7599  224.5105 H   0  0  0  0  0  0  0  0  0  0  0  0
  139.1141   71.0789  226.9146 H   0  0  0  0  0  0  0  0  0  0  0  0
  138.9376   70.1236  229.1638 H   0  0  0  0  0  0  0  0  0  0  0  0
  140.2237   68.0495  229.7223 H   0  0  0  0  0  0  0  0  0  0  0  0
  141.6560   67.0170  227.9725 H   0  0  0  0  0  0  0  0  0  0  0  0
  141.8178   68.0059  225.7166 H   0  0  0  0  0  0  0  0  0  0  0  0
  134.1169   69.4463  225.8488 H   0  0  0  0  0  0  0  0  0  0  0  0
  132.3514   70.5694  227.2618 H   0  0  0  0  0  0  0  0  0  0  0  0
  131.3164   72.6111  228.1077 H   0  0  0  0  0  0  0  0  0  0  0  0
  131.2226   75.0971  228.2103 H   0  0  0  0  0  0  0  0  0  0  0  0
  134.5929   75.3299  225.5301 H   0  0  0  0  0  0  0  0  0  0  0  0
  1  2  2  0
  2  3  1  0
  3  4  1  0
  4  5  1  0
  5  6  2  0
  5  7  1  0
  7  8  1  0
  8  9  1  0
  9 10  1  0
 10 11  1  0
 11 12  1  0
 12 13  2  0
 13 14  1  0
 14 15  2  0
 15 16  1  0
 16 17  2  0
  2 18  1  0
 18 19  2  0
 19 20  1  0
 20 21  2  0
 21 22  1  0
 22 23  2  0
 23 24  1  0
 24 25  1  0
 24 26  2  0
 26 27  1  0
 27 28  2  0
 11  7  1  0
 17 12  1  0
 28 18  1  0
 27 21  1  0
  3 29  1  0
  4 30  1  0
  4 31  1  0
  8 32  1  0
  8 33  1  0
  9 34  1  0
  9 35  1  0
 10 36  1  0
 10 37  1  0
 11 38  1  6
 13 39  1  0
 14 40  1  0
 15 41  1  0
 16 42  1  0
 17 43  1  0
 19 44  1  0
 20 45  1  0
 22 46  1  0
 23 47  1  0
 26 48  1  0
M  END
>  <smiles>  (49) 
O=C(NCC(=O)N1CCC[C@H]1c1ccccc1)c1ccc2ccc(Cl)cc2n1

>  <score_type>  (49) 
oracle

>  <origin>  (49) 
autodockgpu

>  <m_score__min__energy>  (49) 
-8.4600000000000009

>  <m_primary>  (49) 
energy

>  <rmsd>  (49) 
7.164142774176428

>  <m_score__min__rmsd>  (49) 
7.164142774176428

>  <meeko>  (49) 
{"free_energy": -7.83, "intermolecular_energy": -9.32, "internal_energy": -1.54, "cluster_size": 9, "cluster_id": 1, "rank_in_cluster": 9}

>  <energy>  (49) 
-7.04

>  <cluster_rmsd>  (49) 
0.27

>  <cluster>  (49) 
9

$$$$

     RDKit          3D

 48 51  0  0  0  0  0  0  0  0999 V2000
  140.7270   73.2430  221.0490 O   0  0  0  0  0  0  0  0  0  0  0  0
  139.8210   73.1760  221.9120 C   0  0  0  0  0  0  0  0  0  0  0  0
  139.0240   74.3820  222.0570 N   0  0  0  0  0  0  0  0  0  0  0  0
  139.3830   75.4710  221.2020 C   0  0  0  0  0  0  0  0  0  0  0  0
  140.6260   76.1790  221.4480 C   0  0  0  0  0  0  0  0  0  0  0  0
  140.9180   76.3010  222.7140 O   0  0  0  0  0  0  0  0  0  0  0  0
  141.5600   76.7460  220.5740 N   0  0  0  0  0  0  0  0  0  0  0  0
  142.1590   76.2280  219.3280 C   0  0  0  0  0  0  0  0  0  0  0  0
  141.8740   77.3800  218.4110 C   0  0  0  0  0  0  0  0  0  0  0  0
  141.9050   78.6170  219.2730 C   0  0  0  0  0  0  0  0  0  0  0  0
  142.1890   78.0760  220.6610 C   0  0  1  0  0  0  0  0  0  0  0  0
  141.6520   78.9520  221.7010 C   0  0  0  0  0  0  0  0  0  0  0  0
  140.3610   79.3710  221.8300 C   0  0  0  0  0  0  0  0  0  0  0  0
  139.9040   80.1980  222.8340 C   0  0  0  0  0  0  0  0  0  0  0  0
  140.7990   80.6460  223.7860 C   0  0  0  0  0  0  0  0  0  0  0  0
  142.1210   80.2450  223.6930 C   0  0  0  0  0  0  0  0  0  0  0  0
  142.5520   79.4130  222.6730 C   0  0  0  0  0  0  0  0  0  0  0  0
  139.5570   71.9970  222.7270 C   0  0  0  0  0  0  0  0  0  0  0  0
  138.7220   71.0420  222.1930 C   0  0  0  0  0  0  0  0  0  0  0  0
  138.4850   69.9200  222.9960 C   0  0  0  0  0  0  0  0  0  0  0  0
  139.0700   69.8010  224.2510 C   0  0  0  0  0  0  0  0  0  0  0  0
  138.8430   68.6930  225.0600 C   0  0  0  0  0  0  0  0  0  0  0  0
  139.4360   68.5890  226.3130 C   0  0  0  0  0  0  0  0  0  0  0  0
  140.2630   69.6120  226.7550 C   0  0  0  0  0  0  0  0  0  0  0  0
  141.0450   69.5390  228.3380 Cl  0  0  0  0  0  0  0  0  0  0  0  0
  140.5050   70.7220  225.9760 C   0  0  0  0  0  0  0  0  0  0  0  0
  139.9060   70.8080  224.7290 C   0  0  0  0  0  0  0  0  0  0  0  0
  140.1180   71.8710  223.9430 N   0  0  0  0  0  0  0  0  0  0  0  0
  138.2510   74.3900  222.7580 H   0  0  0  0  0  0  0  0  0  0  0  0
  139.4361   75.0728  220.1780 H   0  0  0  0  0  0  0  0  0  0  0  0
  138.6068   76.2258  221.3963 H   0  0  0  0  0  0  0  0  0  0  0  0
  143.2389   76.0488  219.4367 H   0  0  0  0  0  0  0  0  0  0  0  0
  141.7670   75.2569  218.9915 H   0  0  0  0  0  0  0  0  0  0  0  0
  142.6419   77.4422  217.6259 H   0  0  0  0  0  0  0  0  0  0  0  0
  140.9021   77.2637  217.9091 H   0  0  0  0  0  0  0  0  0  0  0  0
  142.7014   79.3026  218.9479 H   0  0  0  0  0  0  0  0  0  0  0  0
  140.9718   79.1971  219.2226 H   0  0  0  0  0  0  0  0  0  0  0  0
  143.2501   78.0181  220.9452 H   0  0  0  0  0  0  0  0  0  0  0  0
  139.6334   79.0252  221.0810 H   0  0  0  0  0  0  0  0  0  0  0  0
  138.8459   80.4957  222.8762 H   0  0  0  0  0  0  0  0  0  0  0  0
  140.4685   81.3072  224.6006 H   0  0  0  0  0  0  0  0  0  0  0  0
  142.8440   80.5945  224.4448 H   0  0  0  0  0  0  0  0  0  0  0  0
  143.6087   79.1113  222.6248 H   0  0  0  0  0  0  0  0  0  0  0  0
  138.2689   71.1535  221.1969 H   0  0  0  0  0  0  0  0  0  0  0  0
  137.8256   69.1202  222.6279 H   0  0  0  0  0  0  0  0  0  0  0  0
  138.1847   67.8872  224.7033 H   0  0  0  0  0  0  0  0  0  0  0  0
  139.2522   67.7079  226.9454 H   0  0  0  0  0  0  0  0  0  0  0  0
  141.1624   71.5265  226.3374 H   0  0  0  0  0  0  0  0  0  0  0  0
  1  2  2  0
  2  3  1  0
  3  4  1  0
  4  5  1  0
  5  6  2  0
  5  7  1  0
  7  8  1  0
  8  9  1  0
  9 10  1  0
 10 11  1  0
 11 12  1  0
 12 13  2  0
 13 14  1  0
 14 15  2  0
 15 16  1  0
 16 17  2  0
  2 18  1  0
 18 19  2  0
 19 20  1  0
 20 21  2  0
 21 22  1  0
 22 23  2  0
 23 24  1  0
 24 25  1  0
 24 26  2  0
 26 27  1  0
 27 28  2  0
 11  7  1  0
 17 12  1  0
 28 18  1  0
 27 21  1  0
  3 29  1  0
  4 30  1  0
  4 31  1  0
  8 32  1  0
  8 33  1  0
  9 34  1  0
  9 35  1  0
 10 36  1  0
 10 37  1  0
 11 38  1  1
 13 39  1  0
 14 40  1  0
 15 41  1  0
 16 42  1  0
 17 43  1  0
 19 44  1  0
 20 45  1  0
 22 46  1  0
 23 47  1  0
 26 48  1  0
M  END
>  <smiles>  (50) 
O=C(NCC(=O)N1CCC[C@H]1c1ccccc1)c1ccc2ccc(Cl)cc2n1

>  <score_type>  (50) 
oracle

>  <origin>  (50) 
autodockgpu

>  <m_score__min__energy>  (50) 
-8.4600000000000009

>  <m_primary>  (50) 
energy

>  <rmsd>  (50) 
2.272397923032768

>  <m_score__min__rmsd>  (50) 
2.272397923032768

>  <meeko>  (50) 
{"free_energy": -8.21, "intermolecular_energy": -9.7, "internal_energy": -1.29, "cluster_size": 9, "cluster_id": 3, "rank_in_cluster": 2}

>  <energy>  (50) 
-6.56

>  <cluster_rmsd>  (50) 
0.0

>  <cluster>  (50) 
10

$$$$
