
     RDKit          3D

 57 59  0  0  0  0  0  0  0  0999 V2000
  137.0970   75.3620  222.2670 C   0  0  0  0  0  0  0  0  0  0  0  0
  138.1240   75.9570  221.3040 C   0  0  0  0  0  0  0  0  0  0  0  0
  138.9530   76.9880  222.0120 C   0  0  0  0  0  0  0  0  0  0  0  0
  138.4200   77.5380  223.0100 O   0  0  0  0  0  0  0  0  0  0  0  0
  140.2620   77.2940  221.5500 N   0  0  0  0  0  0  0  0  0  0  0  0
  140.9520   78.3850  222.1330 C   0  0  0  0  0  0  0  0  0  0  0  0
  140.9880   79.5620  221.4060 C   0  0  0  0  0  0  0  0  0  0  0  0
  141.6270   80.7000  221.8590 C   0  0  0  0  0  0  0  0  0  0  0  0
  142.2570   80.6450  223.1040 C   0  0  0  0  0  0  0  0  0  0  0  0
  142.2160   79.4740  223.8180 C   0  0  0  0  0  0  0  0  0  0  0  0
  141.5750   78.3300  223.3640 C   0  0  0  0  0  0  0  0  0  0  0  0
  140.8200   76.4600  220.4990 C   0  0  0  0  0  0  0  0  0  0  0  0
  141.1040   75.0580  220.8980 C   0  0  0  0  0  0  0  0  0  0  0  0
  142.6310   74.8960  220.8530 C   0  0  0  0  0  0  0  0  0  0  0  0
  143.0930   75.0600  219.4990 N   0  0  0  0  0  0  0  0  0  0  0  0
  144.0160   74.2290  218.8340 C   0  0  0  0  0  0  0  0  0  0  0  0
  144.3610   74.5100  217.6280 O   0  0  0  0  0  0  0  0  0  0  0  0
  144.6470   73.0220  219.4040 C   0  0  2  0  0  0  0  0  0  0  0  0
  145.9090   72.8620  218.6440 N   0  0  0  0  0  0  0  0  0  0  0  0
  143.8600   71.7480  219.1200 C   0  0  0  0  0  0  0  0  0  0  0  0
  142.4630   71.8710  219.6400 C   0  0  0  0  0  0  0  0  0  0  0  0
  141.4310   72.1300  218.7340 C   0  0  0  0  0  0  0  0  0  0  0  0
  140.1580   72.2420  219.2220 C   0  0  0  0  0  0  0  0  0  0  0  0
  139.8810   72.1050  220.5680 C   0  0  0  0  0  0  0  0  0  0  0  0
  138.2390   72.2510  221.1960 Cl  0  0  0  0  0  0  0  0  0  0  0  0
  140.8990   71.8480  221.4810 C   0  0  0  0  0  0  0  0  0  0  0  0
  140.5520   71.6750  223.1920 Cl  0  0  0  0  0  0  0  0  0  0  0  0
  142.1930   71.7350  220.9890 C   0  0  0  0  0  0  0  0  0  0  0  0
  142.5260   76.2040  218.7680 C   0  0  0  0  0  0  0  0  0  0  0  0
  141.9860   77.1550  219.8140 C   0  0  0  0  0  0  0  0  0  0  0  0
  137.4160   75.5468  223.3034 H   0  0  0  0  0  0  0  0  0  0  0  0
  136.1177   75.8326  222.0953 H   0  0  0  0  0  0  0  0  0  0  0  0
  137.0182   74.2783  222.0953 H   0  0  0  0  0  0  0  0  0  0  0  0
  138.7793   75.1566  220.9299 H   0  0  0  0  0  0  0  0  0  0  0  0
  137.5979   76.4317  220.4626 H   0  0  0  0  0  0  0  0  0  0  0  0
  140.4872   79.5927  220.4271 H   0  0  0  0  0  0  0  0  0  0  0  0
  141.6391   81.6209  221.2576 H   0  0  0  0  0  0  0  0  0  0  0  0
  142.7779   81.5265  223.5060 H   0  0  0  0  0  0  0  0  0  0  0  0
  142.7154   79.4404  224.7975 H   0  0  0  0  0  0  0  0  0  0  0  0
  141.5636   77.4091  223.9654 H   0  0  0  0  0  0  0  0  0  0  0  0
  140.0246   76.3395  219.7488 H   0  0  0  0  0  0  0  0  0  0  0  0
  140.7310   74.8689  221.9154 H   0  0  0  0  0  0  0  0  0  0  0  0
  140.6068   74.3432  220.2258 H   0  0  0  0  0  0  0  0  0  0  0  0
  143.0992   75.6570  221.4946 H   0  0  0  0  0  0  0  0  0  0  0  0
  142.9034   73.8932  221.2137 H   0  0  0  0  0  0  0  0  0  0  0  0
  144.7394   73.1487  220.4928 H   0  0  0  0  0  0  0  0  0  0  0  0
  145.5940   72.6470  217.6600 H   0  0  0  0  0  0  0  0  0  0  0  0
  146.2780   73.8530  218.5820 H   0  0  0  0  0  0  0  0  0  0  0  0
  143.8286   71.5759  218.0340 H   0  0  0  0  0  0  0  0  0  0  0  0
  144.3546   70.9037  219.6225 H   0  0  0  0  0  0  0  0  0  0  0  0
  141.6365   72.2406  217.6590 H   0  0  0  0  0  0  0  0  0  0  0  0
  139.3330   72.4466  218.5237 H   0  0  0  0  0  0  0  0  0  0  0  0
  143.0193   71.5333  221.6865 H   0  0  0  0  0  0  0  0  0  0  0  0
  143.3065   76.6985  218.1711 H   0  0  0  0  0  0  0  0  0  0  0  0
  141.7343   75.8817  218.0757 H   0  0  0  0  0  0  0  0  0  0  0  0
  142.7693   77.3893  220.5498 H   0  0  0  0  0  0  0  0  0  0  0  0
  141.6595   78.0980  219.3512 H   0  0  0  0  0  0  0  0  0  0  0  0
  1  2  1  0
  2  3  1  0
  3  4  2  0
  3  5  1  0
  5  6  1  0
  6  7  2  0
  7  8  1  0
  8  9  2  0
  9 10  1  0
 10 11  2  0
  5 12  1  0
 12 13  1  0
 13 14  1  0
 14 15  1  0
 15 16  1  0
 16 17  2  0
 16 18  1  0
 18 19  1  0
 18 20  1  0
 20 21  1  0
 21 22  2  0
 22 23  1  0
 23 24  2  0
 24 25  1  0
 24 26  1  0
 26 27  1  0
 26 28  2  0
 15 29  1  0
 29 30  1  0
 11  6  1  0
 30 12  1  0
 28 21  1  0
  1 31  1  0
  1 32  1  0
  1 33  1  0
  2 34  1  0
  2 35  1  0
  7 36  1  0
  8 37  1  0
  9 38  1  0
 10 39  1  0
 11 40  1  0
 12 41  1  0
 13 42  1  0
 13 43  1  0
 14 44  1  0
 14 45  1  0
 18 46  1  1
 19 47  1  0
 19 48  1  0
 20 49  1  0
 20 50  1  0
 22 51  1  0
 23 52  1  0
 28 53  1  0
 29 54  1  0
 29 55  1  0
 30 56  1  0
 30 57  1  0
M  END
>  <smiles>  (1) 
CCC(=O)N(c1ccccc1)C1CCN(C(=O)[C@H](N)Cc2ccc(Cl)c(Cl)c2)CC1

>  <score_type>  (1) 
oracle

>  <origin>  (1) 
autodockgpu

>  <m_score__min__energy>  (1) 
-7.7000000000000002

>  <m_primary>  (1) 
energy

>  <rmsd>  (1) 
7.248550682932162

>  <m_score__min__rmsd>  (1) 
7.248550682932162

>  <meeko>  (1) 
{"free_energy": -5.88, "intermolecular_energy": -8.27, "internal_energy": -3.61, "cluster_size": 5, "cluster_id": 12, "rank_in_cluster": 5}

>  <energy>  (1) 
-7.7

>  <cluster_rmsd>  (1) 
0.0

>  <cluster>  (1) 
1

$$$$

     RDKit          3D

 57 59  0  0  0  0  0  0  0  0999 V2000
  142.2010   80.1720  219.0100 C   0  0  0  0  0  0  0  0  0  0  0  0
  141.8420   78.7690  218.5190 C   0  0  0  0  0  0  0  0  0  0  0  0
  142.1980   77.7540  219.5640 C   0  0  0  0  0  0  0  0  0  0  0  0
  143.2760   77.1300  219.3870 O   0  0  0  0  0  0  0  0  0  0  0  0
  141.3400   77.5420  220.6770 N   0  0  0  0  0  0  0  0  0  0  0  0
  141.3650   78.4750  221.7430 C   0  0  0  0  0  0  0  0  0  0  0  0
  140.1430   78.8390  222.2840 C   0  0  0  0  0  0  0  0  0  0  0  0
  140.0260   79.7380  223.3250 C   0  0  0  0  0  0  0  0  0  0  0  0
  141.1960   80.2960  223.8430 C   0  0  0  0  0  0  0  0  0  0  0  0
  142.4040   79.9300  223.3010 C   0  0  0  0  0  0  0  0  0  0  0  0
  142.5220   79.0260  222.2550 C   0  0  0  0  0  0  0  0  0  0  0  0
  140.4780   76.3720  220.6540 C   0  0  0  0  0  0  0  0  0  0  0  0
  140.3460   75.6670  221.9530 C   0  0  0  0  0  0  0  0  0  0  0  0
  141.0130   74.2950  221.7710 C   0  0  0  0  0  0  0  0  0  0  0  0
  140.2850   73.5310  220.7900 N   0  0  0  0  0  0  0  0  0  0  0  0
  139.9000   72.1820  220.9120 C   0  0  0  0  0  0  0  0  0  0  0  0
  139.2740   71.6160  219.9430 O   0  0  0  0  0  0  0  0  0  0  0  0
  140.1530   71.3220  222.0850 C   0  0  2  0  0  0  0  0  0  0  0  0
  139.9200   69.9420  221.5990 N   0  0  0  0  0  0  0  0  0  0  0  0
  139.1290   71.5180  223.1980 C   0  0  0  0  0  0  0  0  0  0  0  0
  139.6170   70.9010  224.4700 C   0  0  0  0  0  0  0  0  0  0  0  0
  140.4390   71.6580  225.3100 C   0  0  0  0  0  0  0  0  0  0  0  0
  140.8790   71.0810  226.4700 C   0  0  0  0  0  0  0  0  0  0  0  0
  140.5320   69.7910  226.8190 C   0  0  0  0  0  0  0  0  0  0  0  0
  141.1010   69.0490  228.3140 Cl  0  0  0  0  0  0  0  0  0  0  0  0
  139.7150   69.0270  225.9910 C   0  0  0  0  0  0  0  0  0  0  0  0
  139.2710   67.3870  226.4290 Cl  0  0  0  0  0  0  0  0  0  0  0  0
  139.2660   69.6090  224.8120 C   0  0  0  0  0  0  0  0  0  0  0  0
  139.9160   74.2580  219.5650 C   0  0  0  0  0  0  0  0  0  0  0  0
  140.8310   75.4610  219.4890 C   0  0  0  0  0  0  0  0  0  0  0  0
  142.2045   80.1858  220.1099 H   0  0  0  0  0  0  0  0  0  0  0  0
  143.1985   80.4471  218.6366 H   0  0  0  0  0  0  0  0  0  0  0  0
  141.4583   80.8924  218.6366 H   0  0  0  0  0  0  0  0  0  0  0  0
  140.7621   78.7193  218.3157 H   0  0  0  0  0  0  0  0  0  0  0  0
  142.4048   78.5531  217.5989 H   0  0  0  0  0  0  0  0  0  0  0  0
  139.2279   78.3933  221.8669 H   0  0  0  0  0  0  0  0  0  0  0  0
  139.0408   80.0065  223.7339 H   0  0  0  0  0  0  0  0  0  0  0  0
  141.1513   81.0174  224.6722 H   0  0  0  0  0  0  0  0  0  0  0  0
  143.3208   80.3744  223.7157 H   0  0  0  0  0  0  0  0  0  0  0  0
  143.5073   78.7569  221.8465 H   0  0  0  0  0  0  0  0  0  0  0  0
  139.4578   76.7451  220.4808 H   0  0  0  0  0  0  0  0  0  0  0  0
  140.8533   76.2344  222.7472 H   0  0  0  0  0  0  0  0  0  0  0  0
  139.2905   75.5620  222.2446 H   0  0  0  0  0  0  0  0  0  0  0  0
  142.0499   74.4340  221.4312 H   0  0  0  0  0  0  0  0  0  0  0  0
  141.0094   73.7565  222.7302 H   0  0  0  0  0  0  0  0  0  0  0  0
  141.1560   71.5431  222.4789 H   0  0  0  0  0  0  0  0  0  0  0  0
  138.9060   69.9370  221.3070 H   0  0  0  0  0  0  0  0  0  0  0  0
  140.4490   69.9200  220.6820 H   0  0  0  0  0  0  0  0  0  0  0  0
  138.9671   72.5945  223.3561 H   0  0  0  0  0  0  0  0  0  0  0  0
  138.1862   71.0330  222.9049 H   0  0  0  0  0  0  0  0  0  0  0  0
  140.7237   72.6872  225.0461 H   0  0  0  0  0  0  0  0  0  0  0  0
  141.5273   71.6610  227.1433 H   0  0  0  0  0  0  0  0  0  0  0  0
  138.6183   69.0298  224.1374 H   0  0  0  0  0  0  0  0  0  0  0  0
  140.0588   73.6153  218.6838 H   0  0  0  0  0  0  0  0  0  0  0  0
  138.8590   74.5620  219.5852 H   0  0  0  0  0  0  0  0  0  0  0  0
  141.8806   75.1410  219.5660 H   0  0  0  0  0  0  0  0  0  0  0  0
  140.7041   75.9868  218.5312 H   0  0  0  0  0  0  0  0  0  0  0  0
  1  2  1  0
  2  3  1  0
  3  4  2  0
  3  5  1  0
  5  6  1  0
  6  7  2  0
  7  8  1  0
  8  9  2  0
  9 10  1  0
 10 11  2  0
  5 12  1  0
 12 13  1  0
 13 14  1  0
 14 15  1  0
 15 16  1  0
 16 17  2  0
 16 18  1  0
 18 19  1  0
 18 20  1  0
 20 21  1  0
 21 22  2  0
 22 23  1  0
 23 24  2  0
 24 25  1  0
 24 26  1  0
 26 27  1  0
 26 28  2  0
 15 29  1  0
 29 30  1  0
 11  6  1  0
 30 12  1  0
 28 21  1  0
  1 31  1  0
  1 32  1  0
  1 33  1  0
  2 34  1  0
  2 35  1  0
  7 36  1  0
  8 37  1  0
  9 38  1  0
 10 39  1  0
 11 40  1  0
 12 41  1  0
 13 42  1  0
 13 43  1  0
 14 44  1  0
 14 45  1  0
 18 46  1  1
 19 47  1  0
 19 48  1  0
 20 49  1  0
 20 50  1  0
 22 51  1  0
 23 52  1  0
 28 53  1  0
 29 54  1  0
 29 55  1  0
 30 56  1  0
 30 57  1  0
M  END
>  <smiles>  (2) 
CCC(=O)N(c1ccccc1)C1CCN(C(=O)[C@H](N)Cc2ccc(Cl)c(Cl)c2)CC1

>  <score_type>  (2) 
oracle

>  <origin>  (2) 
autodockgpu

>  <m_score__min__energy>  (2) 
-7.7000000000000002

>  <m_primary>  (2) 
energy

>  <rmsd>  (2) 
8.225639731245217

>  <m_score__min__rmsd>  (2) 
8.225639731245217

>  <meeko>  (2) 
{"free_energy": -6.87, "intermolecular_energy": -9.26, "internal_energy": -2.81, "cluster_size": 20, "cluster_id": 3, "rank_in_cluster": 15}

>  <energy>  (2) 
-7.63

>  <cluster_rmsd>  (2) 
0.0

>  <cluster>  (2) 
2

$$$$

     RDKit          3D

 57 59  0  0  0  0  0  0  0  0999 V2000
  132.4250   65.9500  225.5880 C   0  0  0  0  0  0  0  0  0  0  0  0
  132.4900   67.2760  224.8320 C   0  0  0  0  0  0  0  0  0  0  0  0
  133.2980   68.2710  225.6110 C   0  0  0  0  0  0  0  0  0  0  0  0
  133.9290   67.8190  226.6010 O   0  0  0  0  0  0  0  0  0  0  0  0
  133.3250   69.6370  225.2170 N   0  0  0  0  0  0  0  0  0  0  0  0
  132.4880   70.5570  225.8950 C   0  0  0  0  0  0  0  0  0  0  0  0
  133.0860   71.3510  226.8590 C   0  0  0  0  0  0  0  0  0  0  0  0
  132.3850   72.2880  227.5940 C   0  0  0  0  0  0  0  0  0  0  0  0
  131.0190   72.4280  227.3430 C   0  0  0  0  0  0  0  0  0  0  0  0
  130.4350   71.6360  226.3850 C   0  0  0  0  0  0  0  0  0  0  0  0
  131.1380   70.6950  225.6470 C   0  0  0  0  0  0  0  0  0  0  0  0
  134.2200   70.0110  224.1350 C   0  0  0  0  0  0  0  0  0  0  0  0
  135.5680   69.3940  224.1980 C   0  0  0  0  0  0  0  0  0  0  0  0
  136.5580   70.5410  224.4560 C   0  0  0  0  0  0  0  0  0  0  0  0
  136.5500   71.4450  223.3350 N   0  0  0  0  0  0  0  0  0  0  0  0
  137.6850   71.9810  222.6960 C   0  0  0  0  0  0  0  0  0  0  0  0
  137.5300   72.8020  221.7200 O   0  0  0  0  0  0  0  0  0  0  0  0
  139.0870   71.6820  223.0500 C   0  0  2  0  0  0  0  0  0  0  0  0
  139.8810   72.1840  221.9050 N   0  0  0  0  0  0  0  0  0  0  0  0
  139.3820   70.1860  223.0990 C   0  0  0  0  0  0  0  0  0  0  0  0
  139.7110   69.7650  224.4960 C   0  0  0  0  0  0  0  0  0  0  0  0
  139.5550   68.4210  224.8450 C   0  0  0  0  0  0  0  0  0  0  0  0
  139.8590   68.0490  226.1260 C   0  0  0  0  0  0  0  0  0  0  0  0
  140.3080   68.9610  227.0610 C   0  0  0  0  0  0  0  0  0  0  0  0
  140.6970   68.4800  228.7120 Cl  0  0  0  0  0  0  0  0  0  0  0  0
  140.4670   70.3020  226.7260 C   0  0  0  0  0  0  0  0  0  0  0  0
  141.0360   71.4650  227.9110 Cl  0  0  0  0  0  0  0  0  0  0  0  0
  140.1590   70.6840  225.4270 C   0  0  0  0  0  0  0  0  0  0  0  0
  135.2190   71.8180  222.8280 C   0  0  0  0  0  0  0  0  0  0  0  0
  134.2380   71.5190  223.9420 C   0  0  0  0  0  0  0  0  0  0  0  0
  132.4345   66.1443  226.6707 H   0  0  0  0  0  0  0  0  0  0  0  0
  131.4998   65.4194  225.3188 H   0  0  0  0  0  0  0  0  0  0  0  0
  133.2939   65.3315  225.3188 H   0  0  0  0  0  0  0  0  0  0  0  0
  132.9599   67.1134  223.8508 H   0  0  0  0  0  0  0  0  0  0  0  0
  131.4701   67.6653  224.6970 H   0  0  0  0  0  0  0  0  0  0  0  0
  134.1631   71.2310  227.0474 H   0  0  0  0  0  0  0  0  0  0  0  0
  132.8880   72.9046  228.3535 H   0  0  0  0  0  0  0  0  0  0  0  0
  130.4200   73.1608  227.9035 H   0  0  0  0  0  0  0  0  0  0  0  0
  129.3581   71.7535  226.1937 H   0  0  0  0  0  0  0  0  0  0  0  0
  130.6348   70.0782  224.8879 H   0  0  0  0  0  0  0  0  0  0  0  0
  133.7981   69.5694  223.2201 H   0  0  0  0  0  0  0  0  0  0  0  0
  135.6131   68.6610  225.0169 H   0  0  0  0  0  0  0  0  0  0  0  0
  135.8075   68.8624  223.2652 H   0  0  0  0  0  0  0  0  0  0  0  0
  136.2616   71.0832  225.3661 H   0  0  0  0  0  0  0  0  0  0  0  0
  137.5695   70.1291  224.5869 H   0  0  0  0  0  0  0  0  0  0  0  0
  139.3076   72.1224  224.0335 H   0  0  0  0  0  0  0  0  0  0  0  0
  139.3710   71.8210  221.0550 H   0  0  0  0  0  0  0  0  0  0  0  0
  139.6680   73.2220  221.9030 H   0  0  0  0  0  0  0  0  0  0  0  0
  138.4982   69.6307  222.7517 H   0  0  0  0  0  0  0  0  0  0  0  0
  140.2431   69.9706  222.4492 H   0  0  0  0  0  0  0  0  0  0  0  0
  139.1981   67.6834  224.1111 H   0  0  0  0  0  0  0  0  0  0  0  0
  139.7427   66.9952  226.4192 H   0  0  0  0  0  0  0  0  0  0  0  0
  140.2736   71.7378  225.1330 H   0  0  0  0  0  0  0  0  0  0  0  0
  135.1941   72.8885  222.5763 H   0  0  0  0  0  0  0  0  0  0  0  0
  134.9686   71.2577  221.9151 H   0  0  0  0  0  0  0  0  0  0  0  0
  134.5601   72.0136  224.8702 H   0  0  0  0  0  0  0  0  0  0  0  0
  133.2346   71.8914  223.6881 H   0  0  0  0  0  0  0  0  0  0  0  0
  1  2  1  0
  2  3  1  0
  3  4  2  0
  3  5  1  0
  5  6  1  0
  6  7  2  0
  7  8  1  0
  8  9  2  0
  9 10  1  0
 10 11  2  0
  5 12  1  0
 12 13  1  0
 13 14  1  0
 14 15  1  0
 15 16  1  0
 16 17  2  0
 16 18  1  0
 18 19  1  0
 18 20  1  0
 20 21  1  0
 21 22  2  0
 22 23  1  0
 23 24  2  0
 24 25  1  0
 24 26  1  0
 26 27  1  0
 26 28  2  0
 15 29  1  0
 29 30  1  0
 11  6  1  0
 30 12  1  0
 28 21  1  0
  1 31  1  0
  1 32  1  0
  1 33  1  0
  2 34  1  0
  2 35  1  0
  7 36  1  0
  8 37  1  0
  9 38  1  0
 10 39  1  0
 11 40  1  0
 12 41  1  0
 13 42  1  0
 13 43  1  0
 14 44  1  0
 14 45  1  0
 18 46  1  1
 19 47  1  0
 19 48  1  0
 20 49  1  0
 20 50  1  0
 22 51  1  0
 23 52  1  0
 28 53  1  0
 29 54  1  0
 29 55  1  0
 30 56  1  0
 30 57  1  0
M  END
>  <smiles>  (3) 
CCC(=O)N(c1ccccc1)C1CCN(C(=O)[C@H](N)Cc2ccc(Cl)c(Cl)c2)CC1

>  <score_type>  (3) 
oracle

>  <origin>  (3) 
autodockgpu

>  <m_score__min__energy>  (3) 
-7.7000000000000002

>  <m_primary>  (3) 
energy

>  <rmsd>  (3) 
11.29749863570823

>  <m_score__min__rmsd>  (3) 
11.29749863570823

>  <meeko>  (3) 
{"free_energy": -6.72, "intermolecular_energy": -9.11, "internal_energy": -3.02, "cluster_size": 4, "cluster_id": 10, "rank_in_cluster": 2}

>  <energy>  (3) 
-7.6

>  <cluster_rmsd>  (3) 
0.0

>  <cluster>  (3) 
3

$$$$

     RDKit          3D

 57 59  0  0  0  0  0  0  0  0999 V2000
  137.5700   79.7840  223.4320 C   0  0  0  0  0  0  0  0  0  0  0  0
  137.9630   80.5990  222.2010 C   0  0  0  0  0  0  0  0  0  0  0  0
  138.5260   79.6940  221.1450 C   0  0  0  0  0  0  0  0  0  0  0  0
  137.9390   79.7060  220.0320 O   0  0  0  0  0  0  0  0  0  0  0  0
  139.6620   78.8870  221.4260 N   0  0  0  0  0  0  0  0  0  0  0  0
  140.6740   79.4060  222.2710 C   0  0  0  0  0  0  0  0  0  0  0  0
  141.2080   80.6350  221.9230 C   0  0  0  0  0  0  0  0  0  0  0  0
  142.1990   81.2530  222.6600 C   0  0  0  0  0  0  0  0  0  0  0  0
  142.6730   80.5990  223.7980 C   0  0  0  0  0  0  0  0  0  0  0  0
  142.1380   79.3800  224.1360 C   0  0  0  0  0  0  0  0  0  0  0  0
  141.1420   78.7590  223.3970 C   0  0  0  0  0  0  0  0  0  0  0  0
  139.7150   77.5640  220.8280 C   0  0  0  0  0  0  0  0  0  0  0  0
  139.2640   76.4590  221.7110 C   0  0  0  0  0  0  0  0  0  0  0  0
  140.5040   75.5980  221.9950 C   0  0  0  0  0  0  0  0  0  0  0  0
  140.9710   75.0050  220.7690 N   0  0  0  0  0  0  0  0  0  0  0  0
  141.3450   73.6590  220.5910 C   0  0  0  0  0  0  0  0  0  0  0  0
  141.7710   73.2700  219.4430 O   0  0  0  0  0  0  0  0  0  0  0  0
  141.2950   72.6120  221.6310 C   0  0  2  0  0  0  0  0  0  0  0  0
  141.7630   71.3820  220.9510 N   0  0  0  0  0  0  0  0  0  0  0  0
  139.8740   72.2890  222.0810 C   0  0  0  0  0  0  0  0  0  0  0  0
  139.8970   71.4170  223.2960 C   0  0  0  0  0  0  0  0  0  0  0  0
  139.3960   70.1160  223.1980 C   0  0  0  0  0  0  0  0  0  0  0  0
  139.4220   69.3310  224.3170 C   0  0  0  0  0  0  0  0  0  0  0  0
  139.9260   69.7910  225.5180 C   0  0  0  0  0  0  0  0  0  0  0  0
  139.9570   68.7760  226.9600 Cl  0  0  0  0  0  0  0  0  0  0  0  0
  140.4270   71.0840  225.6290 C   0  0  0  0  0  0  0  0  0  0  0  0
  141.0670   71.6740  227.1530 Cl  0  0  0  0  0  0  0  0  0  0  0  0
  140.4020   71.8850  224.4950 C   0  0  0  0  0  0  0  0  0  0  0  0
  141.0440   75.9120  219.6120 C   0  0  0  0  0  0  0  0  0  0  0  0
  141.0650   77.3180  220.1710 C   0  0  0  0  0  0  0  0  0  0  0  0
  137.8386   80.3411  224.3417 H   0  0  0  0  0  0  0  0  0  0  0  0
  136.4852   79.6021  223.4203 H   0  0  0  0  0  0  0  0  0  0  0  0
  138.1032   78.8219  223.4203 H   0  0  0  0  0  0  0  0  0  0  0  0
  137.0743   81.1123  221.8050 H   0  0  0  0  0  0  0  0  0  0  0  0
  138.7251   81.3392  222.4861 H   0  0  0  0  0  0  0  0  0  0  0  0
  140.8274   81.1398  221.0228 H   0  0  0  0  0  0  0  0  0  0  0  0
  142.6025   82.2311  222.3591 H   0  0  0  0  0  0  0  0  0  0  0  0
  143.4628   81.0527  224.4147 H   0  0  0  0  0  0  0  0  0  0  0  0
  142.5173   78.8723  225.0351 H   0  0  0  0  0  0  0  0  0  0  0  0
  140.7377   77.7815  223.6988 H   0  0  0  0  0  0  0  0  0  0  0  0
  138.9564   77.5576  220.0314 H   0  0  0  0  0  0  0  0  0  0  0  0
  138.8585   76.8636  222.6501 H   0  0  0  0  0  0  0  0  0  0  0  0
  138.4680   75.8675  221.2351 H   0  0  0  0  0  0  0  0  0  0  0  0
  141.2976   76.2286  222.4222 H   0  0  0  0  0  0  0  0  0  0  0  0
  140.2413   74.8031  222.7085 H   0  0  0  0  0  0  0  0  0  0  0  0
  141.8785   72.9459  222.5016 H   0  0  0  0  0  0  0  0  0  0  0  0
  141.1450   71.3050  220.0980 H   0  0  0  0  0  0  0  0  0  0  0  0
  142.7040   71.6690  220.5580 H   0  0  0  0  0  0  0  0  0  0  0  0
  139.3469   73.2253  222.3168 H   0  0  0  0  0  0  0  0  0  0  0  0
  139.3553   71.7570  221.2699 H   0  0  0  0  0  0  0  0  0  0  0  0
  138.9926   69.7348  222.2483 H   0  0  0  0  0  0  0  0  0  0  0  0
  139.0307   68.3046  224.2593 H   0  0  0  0  0  0  0  0  0  0  0  0
  140.7916   72.9121  224.5517 H   0  0  0  0  0  0  0  0  0  0  0  0
  141.9600   75.7187  219.0344 H   0  0  0  0  0  0  0  0  0  0  0  0
  140.1890   75.7648  218.9357 H   0  0  0  0  0  0  0  0  0  0  0  0
  141.8691   77.4152  220.9153 H   0  0  0  0  0  0  0  0  0  0  0  0
  141.2489   78.0518  219.3725 H   0  0  0  0  0  0  0  0  0  0  0  0
  1  2  1  0
  2  3  1  0
  3  4  2  0
  3  5  1  0
  5  6  1  0
  6  7  2  0
  7  8  1  0
  8  9  2  0
  9 10  1  0
 10 11  2  0
  5 12  1  0
 12 13  1  0
 13 14  1  0
 14 15  1  0
 15 16  1  0
 16 17  2  0
 16 18  1  0
 18 19  1  0
 18 20  1  0
 20 21  1  0
 21 22  2  0
 22 23  1  0
 23 24  2  0
 24 25  1  0
 24 26  1  0
 26 27  1  0
 26 28  2  0
 15 29  1  0
 29 30  1  0
 11  6  1  0
 30 12  1  0
 28 21  1  0
  1 31  1  0
  1 32  1  0
  1 33  1  0
  2 34  1  0
  2 35  1  0
  7 36  1  0
  8 37  1  0
  9 38  1  0
 10 39  1  0
 11 40  1  0
 12 41  1  0
 13 42  1  0
 13 43  1  0
 14 44  1  0
 14 45  1  0
 18 46  1  1
 19 47  1  0
 19 48  1  0
 20 49  1  0
 20 50  1  0
 22 51  1  0
 23 52  1  0
 28 53  1  0
 29 54  1  0
 29 55  1  0
 30 56  1  0
 30 57  1  0
M  END
>  <smiles>  (4) 
CCC(=O)N(c1ccccc1)C1CCN(C(=O)[C@H](N)Cc2ccc(Cl)c(Cl)c2)CC1

>  <score_type>  (4) 
oracle

>  <origin>  (4) 
autodockgpu

>  <m_score__min__energy>  (4) 
-7.7000000000000002

>  <m_primary>  (4) 
energy

>  <rmsd>  (4) 
8.080882331932864

>  <m_score__min__rmsd>  (4) 
8.080882331932864

>  <meeko>  (4) 
{"free_energy": -6.79, "intermolecular_energy": -9.18, "internal_energy": -2.97, "cluster_size": 10, "cluster_id": 7, "rank_in_cluster": 9}

>  <energy>  (4) 
-7.33

>  <cluster_rmsd>  (4) 
1.75

>  <cluster>  (4) 
3

$$$$

     RDKit          3D

 57 59  0  0  0  0  0  0  0  0999 V2000
  142.2620   79.2170  218.3050 C   0  0  0  0  0  0  0  0  0  0  0  0
  141.1990   78.8060  219.3220 C   0  0  0  0  0  0  0  0  0  0  0  0
  141.7950   77.8810  220.3410 C   0  0  0  0  0  0  0  0  0  0  0  0
  142.6630   77.0730  219.9170 O   0  0  0  0  0  0  0  0  0  0  0  0
  141.3780   77.9470  221.6990 N   0  0  0  0  0  0  0  0  0  0  0  0
  141.6320   79.1320  222.4320 C   0  0  0  0  0  0  0  0  0  0  0  0
  142.9550   79.4100  222.7310 C   0  0  0  0  0  0  0  0  0  0  0  0
  143.3390   80.5310  223.4400 C   0  0  0  0  0  0  0  0  0  0  0  0
  142.3420   81.4120  223.8640 C   0  0  0  0  0  0  0  0  0  0  0  0
  141.0330   81.1280  223.5620 C   0  0  0  0  0  0  0  0  0  0  0  0
  140.6460   80.0020  222.8510 C   0  0  0  0  0  0  0  0  0  0  0  0
  140.7080   76.7850  222.2570 C   0  0  0  0  0  0  0  0  0  0  0  0
  141.2430   75.4760  221.8040 C   0  0  0  0  0  0  0  0  0  0  0  0
  140.1350   74.8230  220.9650 C   0  0  0  0  0  0  0  0  0  0  0  0
  138.9930   74.5540  221.8000 N   0  0  0  0  0  0  0  0  0  0  0  0
  138.2560   73.3540  221.8350 C   0  0  0  0  0  0  0  0  0  0  0  0
  137.2380   73.2610  222.6130 O   0  0  0  0  0  0  0  0  0  0  0  0
  138.5490   72.1470  221.0350 C   0  0  2  0  0  0  0  0  0  0  0  0
  137.5340   71.1560  221.4630 N   0  0  0  0  0  0  0  0  0  0  0  0
  139.8870   71.5080  221.3910 C   0  0  0  0  0  0  0  0  0  0  0  0
  139.8360   70.9220  222.7660 C   0  0  0  0  0  0  0  0  0  0  0  0
  139.2210   69.6800  222.9430 C   0  0  0  0  0  0  0  0  0  0  0  0
  139.1800   69.1550  224.2050 C   0  0  0  0  0  0  0  0  0  0  0  0
  139.7260   69.8180  225.2860 C   0  0  0  0  0  0  0  0  0  0  0  0
  139.6720   69.1410  226.9140 Cl  0  0  0  0  0  0  0  0  0  0  0  0
  140.3410   71.0560  225.1240 C   0  0  0  0  0  0  0  0  0  0  0  0
  141.0360   71.9030  226.4950 Cl  0  0  0  0  0  0  0  0  0  0  0  0
  140.3840   71.5920  223.8440 C   0  0  0  0  0  0  0  0  0  0  0  0
  138.5890   75.6500  222.6950 C   0  0  0  0  0  0  0  0  0  0  0  0
  139.1980   76.9130  222.1270 C   0  0  0  0  0  0  0  0  0  0  0  0
  143.1612   79.5647  218.8347 H   0  0  0  0  0  0  0  0  0  0  0  0
  142.5190   78.3534  217.6740 H   0  0  0  0  0  0  0  0  0  0  0  0
  141.8712   80.0289  217.6740 H   0  0  0  0  0  0  0  0  0  0  0  0
  140.8116   79.7032  219.8269 H   0  0  0  0  0  0  0  0  0  0  0  0
  140.3803   78.2891  218.7999 H   0  0  0  0  0  0  0  0  0  0  0  0
  143.7316   78.7096  222.3900 H   0  0  0  0  0  0  0  0  0  0  0  0
  144.3985   80.7242  223.6641 H   0  0  0  0  0  0  0  0  0  0  0  0
  142.6010   82.3186  224.4306 H   0  0  0  0  0  0  0  0  0  0  0  0
  140.2540   81.8271  223.9002 H   0  0  0  0  0  0  0  0  0  0  0  0
  139.5864   79.8084  222.6280 H   0  0  0  0  0  0  0  0  0  0  0  0
  140.9455   76.7816  223.3311 H   0  0  0  0  0  0  0  0  0  0  0  0
  142.1456   75.6245  221.1931 H   0  0  0  0  0  0  0  0  0  0  0  0
  141.5231   74.8420  222.6582 H   0  0  0  0  0  0  0  0  0  0  0  0
  139.8420   75.5035  220.1519 H   0  0  0  0  0  0  0  0  0  0  0  0
  140.5068   73.8795  220.5389 H   0  0  0  0  0  0  0  0  0  0  0  0
  138.5549   72.4184  219.9690 H   0  0  0  0  0  0  0  0  0  0  0  0
  137.6040   71.1490  222.5160 H   0  0  0  0  0  0  0  0  0  0  0  0
  136.6190   71.6550  221.2730 H   0  0  0  0  0  0  0  0  0  0  0  0
  140.1127   70.7121  220.6661 H   0  0  0  0  0  0  0  0  0  0  0  0
  140.6700   72.2800  221.3612 H   0  0  0  0  0  0  0  0  0  0  0  0
  138.7822   69.1397  222.0912 H   0  0  0  0  0  0  0  0  0  0  0  0
  138.6992   68.1784  224.3631 H   0  0  0  0  0  0  0  0  0  0  0  0
  140.8635   72.5690  223.6844 H   0  0  0  0  0  0  0  0  0  0  0  0
  137.4926   75.7350  222.7213 H   0  0  0  0  0  0  0  0  0  0  0  0
  138.9319   75.4705  223.7247 H   0  0  0  0  0  0  0  0  0  0  0  0
  138.9192   77.0223  221.0685 H   0  0  0  0  0  0  0  0  0  0  0  0
  138.8341   77.7986  222.6686 H   0  0  0  0  0  0  0  0  0  0  0  0
  1  2  1  0
  2  3  1  0
  3  4  2  0
  3  5  1  0
  5  6  1  0
  6  7  2  0
  7  8  1  0
  8  9  2  0
  9 10  1  0
 10 11  2  0
  5 12  1  0
 12 13  1  0
 13 14  1  0
 14 15  1  0
 15 16  1  0
 16 17  2  0
 16 18  1  0
 18 19  1  0
 18 20  1  0
 20 21  1  0
 21 22  2  0
 22 23  1  0
 23 24  2  0
 24 25  1  0
 24 26  1  0
 26 27  1  0
 26 28  2  0
 15 29  1  0
 29 30  1  0
 11  6  1  0
 30 12  1  0
 28 21  1  0
  1 31  1  0
  1 32  1  0
  1 33  1  0
  2 34  1  0
  2 35  1  0
  7 36  1  0
  8 37  1  0
  9 38  1  0
 10 39  1  0
 11 40  1  0
 12 41  1  0
 13 42  1  0
 13 43  1  0
 14 44  1  0
 14 45  1  0
 18 46  1  6
 19 47  1  0
 19 48  1  0
 20 49  1  0
 20 50  1  0
 22 51  1  0
 23 52  1  0
 28 53  1  0
 29 54  1  0
 29 55  1  0
 30 56  1  0
 30 57  1  0
M  END
>  <smiles>  (5) 
CCC(=O)N(c1ccccc1)C1CCN(C(=O)[C@H](N)Cc2ccc(Cl)c(Cl)c2)CC1

>  <score_type>  (5) 
oracle

>  <origin>  (5) 
autodockgpu

>  <m_score__min__energy>  (5) 
-7.7000000000000002

>  <m_primary>  (5) 
energy

>  <rmsd>  (5) 
8.360107415780945

>  <m_score__min__rmsd>  (5) 
8.360107415780945

>  <meeko>  (5) 
{"free_energy": -6.96, "intermolecular_energy": -9.35, "internal_energy": -2.81, "cluster_size": 20, "cluster_id": 3, "rank_in_cluster": 11}

>  <energy>  (5) 
-7.29

>  <cluster_rmsd>  (5) 
1.59

>  <cluster>  (5) 
3

$$$$

     RDKit          3D

 57 59  0  0  0  0  0  0  0  0999 V2000
  141.0990   78.2730  218.1030 C   0  0  0  0  0  0  0  0  0  0  0  0
  142.5600   78.0410  218.4900 C   0  0  0  0  0  0  0  0  0  0  0  0
  142.6350   77.1520  219.6960 C   0  0  0  0  0  0  0  0  0  0  0  0
  143.6340   76.3890  219.7610 O   0  0  0  0  0  0  0  0  0  0  0  0
  141.6170   77.2010  220.6860 N   0  0  0  0  0  0  0  0  0  0  0  0
  141.6250   78.2660  221.6190 C   0  0  0  0  0  0  0  0  0  0  0  0
  141.8280   79.5380  221.1120 C   0  0  0  0  0  0  0  0  0  0  0  0
  141.8590   80.6640  221.9120 C   0  0  0  0  0  0  0  0  0  0  0  0
  141.6780   80.4970  223.2860 C   0  0  0  0  0  0  0  0  0  0  0  0
  141.4780   79.2310  223.7800 C   0  0  0  0  0  0  0  0  0  0  0  0
  141.4460   78.1000  222.9780 C   0  0  0  0  0  0  0  0  0  0  0  0
  140.6170   76.1460  220.6800 C   0  0  0  0  0  0  0  0  0  0  0  0
  140.4800   75.4060  221.9600 C   0  0  0  0  0  0  0  0  0  0  0  0
  140.9590   73.9730  221.6840 C   0  0  0  0  0  0  0  0  0  0  0  0
  140.0810   73.3470  220.7290 N   0  0  0  0  0  0  0  0  0  0  0  0
  139.5390   72.0500  220.8290 C   0  0  0  0  0  0  0  0  0  0  0  0
  138.7880   71.6070  219.8850 O   0  0  0  0  0  0  0  0  0  0  0  0
  139.7580   71.1150  221.9510 C   0  0  2  0  0  0  0  0  0  0  0  0
  139.3960   69.7850  221.4100 N   0  0  0  0  0  0  0  0  0  0  0  0
  138.7900   71.3390  223.1080 C   0  0  0  0  0  0  0  0  0  0  0  0
  139.3140   70.7030  224.3570 C   0  0  0  0  0  0  0  0  0  0  0  0
  139.2010   69.3180  224.5030 C   0  0  0  0  0  0  0  0  0  0  0  0
  139.6830   68.7500  225.6500 C   0  0  0  0  0  0  0  0  0  0  0  0
  140.2690   69.5060  226.6450 C   0  0  0  0  0  0  0  0  0  0  0  0
  140.8890   68.7720  228.1240 Cl  0  0  0  0  0  0  0  0  0  0  0  0
  140.3880   70.8860  226.5130 C   0  0  0  0  0  0  0  0  0  0  0  0
  141.1310   71.8520  227.7750 Cl  0  0  0  0  0  0  0  0  0  0  0  0
  139.8990   71.4670  225.3500 C   0  0  0  0  0  0  0  0  0  0  0  0
  139.7280   74.1650  219.5580 C   0  0  0  0  0  0  0  0  0  0  0  0
  140.7790   75.2500  219.4620 C   0  0  0  0  0  0  0  0  0  0  0  0
  140.4894   78.3698  219.0135 H   0  0  0  0  0  0  0  0  0  0  0  0
  141.0191   79.1951  217.5085 H   0  0  0  0  0  0  0  0  0  0  0  0
  140.7374   77.4210  217.5085 H   0  0  0  0  0  0  0  0  0  0  0  0
  143.0877   77.5631  217.6515 H   0  0  0  0  0  0  0  0  0  0  0  0
  143.0301   79.0077  218.7235 H   0  0  0  0  0  0  0  0  0  0  0  0
  141.9705   79.6572  220.0278 H   0  0  0  0  0  0  0  0  0  0  0  0
  142.0214   81.6621  221.4792 H   0  0  0  0  0  0  0  0  0  0  0  0
  141.6952   81.3647  223.9618 H   0  0  0  0  0  0  0  0  0  0  0  0
  141.3364   79.1083  224.8639 H   0  0  0  0  0  0  0  0  0  0  0  0
  141.2831   77.1020  223.4110 H   0  0  0  0  0  0  0  0  0  0  0  0
  139.6425   76.6481  220.5894 H   0  0  0  0  0  0  0  0  0  0  0  0
  141.1025   75.8723  222.7379 H   0  0  0  0  0  0  0  0  0  0  0  0
  139.4402   75.4175  222.3187 H   0  0  0  0  0  0  0  0  0  0  0  0
  141.9813   74.0001  221.2789 H   0  0  0  0  0  0  0  0  0  0  0  0
  140.9502   73.3973  222.6213 H   0  0  0  0  0  0  0  0  0  0  0  0
  140.7880   71.2335  222.3184 H   0  0  0  0  0  0  0  0  0  0  0  0
  138.3700   69.8690  221.1770 H   0  0  0  0  0  0  0  0  0  0  0  0
  139.8710   69.7750  220.4630 H   0  0  0  0  0  0  0  0  0  0  0  0
  138.6685   72.4194  223.2749 H   0  0  0  0  0  0  0  0  0  0  0  0
  137.8208   70.8842  222.8555 H   0  0  0  0  0  0  0  0  0  0  0  0
  138.7377   68.7022  223.7180 H   0  0  0  0  0  0  0  0  0  0  0  0
  139.6014   67.6611  225.7831 H   0  0  0  0  0  0  0  0  0  0  0  0
  139.9787   72.5559  225.2163 H   0  0  0  0  0  0  0  0  0  0  0  0
  139.7338   73.5481  218.6473 H   0  0  0  0  0  0  0  0  0  0  0  0
  138.7203   74.5940  219.6604 H   0  0  0  0  0  0  0  0  0  0  0  0
  141.7834   74.8015  219.4556 H   0  0  0  0  0  0  0  0  0  0  0  0
  140.6578   75.8285  218.5343 H   0  0  0  0  0  0  0  0  0  0  0  0
  1  2  1  0
  2  3  1  0
  3  4  2  0
  3  5  1  0
  5  6  1  0
  6  7  2  0
  7  8  1  0
  8  9  2  0
  9 10  1  0
 10 11  2  0
  5 12  1  0
 12 13  1  0
 13 14  1  0
 14 15  1  0
 15 16  1  0
 16 17  2  0
 16 18  1  0
 18 19  1  0
 18 20  1  0
 20 21  1  0
 21 22  2  0
 22 23  1  0
 23 24  2  0
 24 25  1  0
 24 26  1  0
 26 27  1  0
 26 28  2  0
 15 29  1  0
 29 30  1  0
 11  6  1  0
 30 12  1  0
 28 21  1  0
  1 31  1  0
  1 32  1  0
  1 33  1  0
  2 34  1  0
  2 35  1  0
  7 36  1  0
  8 37  1  0
  9 38  1  0
 10 39  1  0
 11 40  1  0
 12 41  1  0
 13 42  1  0
 13 43  1  0
 14 44  1  0
 14 45  1  0
 18 46  1  1
 19 47  1  0
 19 48  1  0
 20 49  1  0
 20 50  1  0
 22 51  1  0
 23 52  1  0
 28 53  1  0
 29 54  1  0
 29 55  1  0
 30 56  1  0
 30 57  1  0
M  END
>  <smiles>  (6) 
CCC(=O)N(c1ccccc1)C1CCN(C(=O)[C@H](N)Cc2ccc(Cl)c(Cl)c2)CC1

>  <score_type>  (6) 
oracle

>  <origin>  (6) 
autodockgpu

>  <m_score__min__energy>  (6) 
-7.7000000000000002

>  <m_primary>  (6) 
energy

>  <rmsd>  (6) 
8.807303585805426

>  <m_score__min__rmsd>  (6) 
8.807303585805426

>  <meeko>  (6) 
{"free_energy": -7.29, "intermolecular_energy": -9.68, "internal_energy": -2.62, "cluster_size": 20, "cluster_id": 3, "rank_in_cluster": 3}

>  <energy>  (6) 
-7.27

>  <cluster_rmsd>  (6) 
1.64

>  <cluster>  (6) 
3

$$$$

     RDKit          3D

 57 59  0  0  0  0  0  0  0  0999 V2000
  143.4840   74.8230  219.6790 C   0  0  0  0  0  0  0  0  0  0  0  0
  143.6810   76.3380  219.7160 C   0  0  0  0  0  0  0  0  0  0  0  0
  142.3750   77.0310  219.4630 C   0  0  0  0  0  0  0  0  0  0  0  0
  142.1850   77.4450  218.2890 O   0  0  0  0  0  0  0  0  0  0  0  0
  141.4320   77.1880  220.5150 N   0  0  0  0  0  0  0  0  0  0  0  0
  141.5530   78.3070  221.3760 C   0  0  0  0  0  0  0  0  0  0  0  0
  141.4210   78.0670  222.7330 C   0  0  0  0  0  0  0  0  0  0  0  0
  141.5170   79.0680  223.6800 C   0  0  0  0  0  0  0  0  0  0  0  0
  141.7560   80.3690  223.2350 C   0  0  0  0  0  0  0  0  0  0  0  0
  141.8860   80.5980  221.8870 C   0  0  0  0  0  0  0  0  0  0  0  0
  141.7900   79.5930  220.9350 C   0  0  0  0  0  0  0  0  0  0  0  0
  140.3890   76.1840  220.6430 C   0  0  0  0  0  0  0  0  0  0  0  0
  140.3880   75.4450  221.9300 C   0  0  0  0  0  0  0  0  0  0  0  0
  140.7540   73.9910  221.5950 C   0  0  0  0  0  0  0  0  0  0  0  0
  139.7260   73.4150  220.7670 N   0  0  0  0  0  0  0  0  0  0  0  0
  139.1400   72.1450  220.9390 C   0  0  0  0  0  0  0  0  0  0  0  0
  138.2490   71.7450  220.1040 O   0  0  0  0  0  0  0  0  0  0  0  0
  139.4590   71.1950  222.0230 C   0  0  2  0  0  0  0  0  0  0  0  0
  139.0450   69.8730  221.5000 N   0  0  0  0  0  0  0  0  0  0  0  0
  138.6030   71.4040  223.2680 C   0  0  0  0  0  0  0  0  0  0  0  0
  139.1880   70.6700  224.4320 C   0  0  0  0  0  0  0  0  0  0  0  0
  139.1300   69.2740  224.4430 C   0  0  0  0  0  0  0  0  0  0  0  0
  139.6680   68.6150  225.5140 C   0  0  0  0  0  0  0  0  0  0  0  0
  140.2550   69.2920  226.5640 C   0  0  0  0  0  0  0  0  0  0  0  0
  140.9470   68.4400  227.9460 Cl  0  0  0  0  0  0  0  0  0  0  0  0
  140.3190   70.6820  226.5670 C   0  0  0  0  0  0  0  0  0  0  0  0
  141.0640   71.5470  227.8990 Cl  0  0  0  0  0  0  0  0  0  0  0  0
  139.7740   71.3550  225.4810 C   0  0  0  0  0  0  0  0  0  0  0  0
  139.2620   74.2560  219.6520 C   0  0  0  0  0  0  0  0  0  0  0  0
  140.3430   75.2880  219.4150 C   0  0  0  0  0  0  0  0  0  0  0  0
  143.4335   74.4346  220.7069 H   0  0  0  0  0  0  0  0  0  0  0  0
  142.5477   74.5878  219.1517 H   0  0  0  0  0  0  0  0  0  0  0  0
  144.3290   74.3561  219.1517 H   0  0  0  0  0  0  0  0  0  0  0  0
  144.0638   76.6316  220.7046 H   0  0  0  0  0  0  0  0  0  0  0  0
  144.4008   76.6279  218.9363 H   0  0  0  0  0  0  0  0  0  0  0  0
  141.2320   77.0374  223.0708 H   0  0  0  0  0  0  0  0  0  0  0  0
  141.4084   78.8465  224.7520 H   0  0  0  0  0  0  0  0  0  0  0  0
  141.8390   81.1983  223.9529 H   0  0  0  0  0  0  0  0  0  0  0  0
  142.0751   81.6266  221.5460 H   0  0  0  0  0  0  0  0  0  0  0  0
  141.8993   79.8143  219.8630 H   0  0  0  0  0  0  0  0  0  0  0  0
  139.4369   76.7334  220.6823 H   0  0  0  0  0  0  0  0  0  0  0  0
  141.1314   75.8759  222.6168 H   0  0  0  0  0  0  0  0  0  0  0  0
  139.4072   75.5058  222.4242 H   0  0  0  0  0  0  0  0  0  0  0  0
  141.7132   73.9691  221.0569 H   0  0  0  0  0  0  0  0  0  0  0  0
  140.8421   73.4116  222.5259 H   0  0  0  0  0  0  0  0  0  0  0  0
  140.5189   71.3076  222.2950 H   0  0  0  0  0  0  0  0  0  0  0  0
  137.9980   69.9500  221.3970 H   0  0  0  0  0  0  0  0  0  0  0  0
  139.4010   69.8890  220.5020 H   0  0  0  0  0  0  0  0  0  0  0  0
  138.5592   72.4780  223.5017 H   0  0  0  0  0  0  0  0  0  0  0  0
  137.5914   71.0177  223.0745 H   0  0  0  0  0  0  0  0  0  0  0  0
  138.6649   68.7207  223.6138 H   0  0  0  0  0  0  0  0  0  0  0  0
  139.6319   67.5159  225.5393 H   0  0  0  0  0  0  0  0  0  0  0  0
  139.8091   72.4541  225.4547 H   0  0  0  0  0  0  0  0  0  0  0  0
  139.1159   73.6443  218.7495 H   0  0  0  0  0  0  0  0  0  0  0  0
  138.2997   74.7341  219.8874 H   0  0  0  0  0  0  0  0  0  0  0  0
  141.3142   74.7907  219.2751 H   0  0  0  0  0  0  0  0  0  0  0  0
  140.1283   75.8767  218.5109 H   0  0  0  0  0  0  0  0  0  0  0  0
  1  2  1  0
  2  3  1  0
  3  4  2  0
  3  5  1  0
  5  6  1  0
  6  7  2  0
  7  8  1  0
  8  9  2  0
  9 10  1  0
 10 11  2  0
  5 12  1  0
 12 13  1  0
 13 14  1  0
 14 15  1  0
 15 16  1  0
 16 17  2  0
 16 18  1  0
 18 19  1  0
 18 20  1  0
 20 21  1  0
 21 22  2  0
 22 23  1  0
 23 24  2  0
 24 25  1  0
 24 26  1  0
 26 27  1  0
 26 28  2  0
 15 29  1  0
 29 30  1  0
 11  6  1  0
 30 12  1  0
 28 21  1  0
  1 31  1  0
  1 32  1  0
  1 33  1  0
  2 34  1  0
  2 35  1  0
  7 36  1  0
  8 37  1  0
  9 38  1  0
 10 39  1  0
 11 40  1  0
 12 41  1  0
 13 42  1  0
 13 43  1  0
 14 44  1  0
 14 45  1  0
 18 46  1  1
 19 47  1  0
 19 48  1  0
 20 49  1  0
 20 50  1  0
 22 51  1  0
 23 52  1  0
 28 53  1  0
 29 54  1  0
 29 55  1  0
 30 56  1  0
 30 57  1  0
M  END
>  <smiles>  (7) 
CCC(=O)N(c1ccccc1)C1CCN(C(=O)[C@H](N)Cc2ccc(Cl)c(Cl)c2)CC1

>  <score_type>  (7) 
oracle

>  <origin>  (7) 
autodockgpu

>  <m_score__min__energy>  (7) 
-7.7000000000000002

>  <m_primary>  (7) 
energy

>  <rmsd>  (7) 
8.844055752721534

>  <m_score__min__rmsd>  (7) 
8.844055752721534

>  <meeko>  (7) 
{"free_energy": -7.27, "intermolecular_energy": -9.66, "internal_energy": -2.55, "cluster_size": 20, "cluster_id": 3, "rank_in_cluster": 4}

>  <energy>  (7) 
-7.26

>  <cluster_rmsd>  (7) 
1.01

>  <cluster>  (7) 
3

$$$$

     RDKit          3D

 57 59  0  0  0  0  0  0  0  0999 V2000
  141.6740   79.4590  223.8520 C   0  0  0  0  0  0  0  0  0  0  0  0
  142.5880   79.6260  222.6390 C   0  0  0  0  0  0  0  0  0  0  0  0
  141.7910   79.4960  221.3750 C   0  0  0  0  0  0  0  0  0  0  0  0
  141.4350   80.5730  220.8300 O   0  0  0  0  0  0  0  0  0  0  0  0
  141.4780   78.2100  220.8540 N   0  0  0  0  0  0  0  0  0  0  0  0
  142.0810   77.8030  219.6390 C   0  0  0  0  0  0  0  0  0  0  0  0
  141.9040   78.6330  218.5450 C   0  0  0  0  0  0  0  0  0  0  0  0
  142.4370   78.3540  217.3020 C   0  0  0  0  0  0  0  0  0  0  0  0
  143.1840   77.1830  217.1580 C   0  0  0  0  0  0  0  0  0  0  0  0
  143.3560   76.3660  218.2480 C   0  0  0  0  0  0  0  0  0  0  0  0
  142.8200   76.6460  219.4970 C   0  0  0  0  0  0  0  0  0  0  0  0
  140.5540   77.3820  221.6100 C   0  0  0  0  0  0  0  0  0  0  0  0
  141.0920   76.0620  222.0240 C   0  0  0  0  0  0  0  0  0  0  0  0
  140.2890   75.0050  221.2520 C   0  0  0  0  0  0  0  0  0  0  0  0
  138.9090   75.0540  221.6600 N   0  0  0  0  0  0  0  0  0  0  0  0
  138.1010   73.9450  221.9810 C   0  0  0  0  0  0  0  0  0  0  0  0
  136.8720   74.1350  222.3050 O   0  0  0  0  0  0  0  0  0  0  0  0
  138.5420   72.5360  221.9820 C   0  0  2  0  0  0  0  0  0  0  0  0
  137.6790   71.8710  222.9850 N   0  0  0  0  0  0  0  0  0  0  0  0
  139.9610   72.3580  222.5120 C   0  0  0  0  0  0  0  0  0  0  0  0
  139.9690   71.4150  223.6730 C   0  0  0  0  0  0  0  0  0  0  0  0
  139.6170   70.0800  223.4550 C   0  0  0  0  0  0  0  0  0  0  0  0
  139.6280   69.2290  224.5250 C   0  0  0  0  0  0  0  0  0  0  0  0
  139.9740   69.6560  225.7920 C   0  0  0  0  0  0  0  0  0  0  0  0
  139.9860   68.5570  227.1710 Cl  0  0  0  0  0  0  0  0  0  0  0  0
  140.3250   70.9820  226.0230 C   0  0  0  0  0  0  0  0  0  0  0  0
  140.7650   71.5310  227.6300 Cl  0  0  0  0  0  0  0  0  0  0  0  0
  140.3150   71.8510  224.9380 C   0  0  0  0  0  0  0  0  0  0  0  0
  138.3200   76.4000  221.7490 C   0  0  0  0  0  0  0  0  0  0  0  0
  139.2010   77.3080  220.9190 C   0  0  0  0  0  0  0  0  0  0  0  0
  142.2646   79.5669  224.7737 H   0  0  0  0  0  0  0  0  0  0  0  0
  140.8883   80.2285  223.8278 H   0  0  0  0  0  0  0  0  0  0  0  0
  141.2111   78.4614  223.8278 H   0  0  0  0  0  0  0  0  0  0  0  0
  143.0594   80.6193  222.6720 H   0  0  0  0  0  0  0  0  0  0  0  0
  143.3623   78.8450  222.6598 H   0  0  0  0  0  0  0  0  0  0  0  0
  141.3143   79.5529  218.6712 H   0  0  0  0  0  0  0  0  0  0  0  0
  142.2780   79.0332  216.4515 H   0  0  0  0  0  0  0  0  0  0  0  0
  143.6277   76.9193  216.1866 H   0  0  0  0  0  0  0  0  0  0  0  0
  143.9465   75.4461  218.1254 H   0  0  0  0  0  0  0  0  0  0  0  0
  142.9792   75.9669  220.3475 H   0  0  0  0  0  0  0  0  0  0  0  0
  140.4032   77.8915  222.5732 H   0  0  0  0  0  0  0  0  0  0  0  0
  142.1597   75.9895  221.7694 H   0  0  0  0  0  0  0  0  0  0  0  0
  141.0006   75.9171  223.1106 H   0  0  0  0  0  0  0  0  0  0  0  0
  140.3592   75.2077  220.1731 H   0  0  0  0  0  0  0  0  0  0  0  0
  140.6982   74.0067  221.4664 H   0  0  0  0  0  0  0  0  0  0  0  0
  138.4929   72.1462  220.9546 H   0  0  0  0  0  0  0  0  0  0  0  0
  137.5930   72.5790  223.7640 H   0  0  0  0  0  0  0  0  0  0  0  0
  136.7250   71.8830  222.5250 H   0  0  0  0  0  0  0  0  0  0  0  0
  140.5987   71.9536  221.7121 H   0  0  0  0  0  0  0  0  0  0  0  0
  140.3437   73.3348  222.8428 H   0  0  0  0  0  0  0  0  0  0  0  0
  139.3392   69.7244  222.4518 H   0  0  0  0  0  0  0  0  0  0  0  0
  139.3536   68.1747  224.3725 H   0  0  0  0  0  0  0  0  0  0  0  0
  140.5877   72.9059  225.0892 H   0  0  0  0  0  0  0  0  0  0  0  0
  137.2955   76.3941  221.3485 H   0  0  0  0  0  0  0  0  0  0  0  0
  138.2653   76.7429  222.7927 H   0  0  0  0  0  0  0  0  0  0  0  0
  139.3179   76.8956  219.9060 H   0  0  0  0  0  0  0  0  0  0  0  0
  138.7540   78.3092  220.8305 H   0  0  0  0  0  0  0  0  0  0  0  0
  1  2  1  0
  2  3  1  0
  3  4  2  0
  3  5  1  0
  5  6  1  0
  6  7  2  0
  7  8  1  0
  8  9  2  0
  9 10  1  0
 10 11  2  0
  5 12  1  0
 12 13  1  0
 13 14  1  0
 14 15  1  0
 15 16  1  0
 16 17  2  0
 16 18  1  0
 18 19  1  0
 18 20  1  0
 20 21  1  0
 21 22  2  0
 22 23  1  0
 23 24  2  0
 24 25  1  0
 24 26  1  0
 26 27  1  0
 26 28  2  0
 15 29  1  0
 29 30  1  0
 11  6  1  0
 30 12  1  0
 28 21  1  0
  1 31  1  0
  1 32  1  0
  1 33  1  0
  2 34  1  0
  2 35  1  0
  7 36  1  0
  8 37  1  0
  9 38  1  0
 10 39  1  0
 11 40  1  0
 12 41  1  0
 13 42  1  0
 13 43  1  0
 14 44  1  0
 14 45  1  0
 18 46  1  6
 19 47  1  0
 19 48  1  0
 20 49  1  0
 20 50  1  0
 22 51  1  0
 23 52  1  0
 28 53  1  0
 29 54  1  0
 29 55  1  0
 30 56  1  0
 30 57  1  0
M  END
>  <smiles>  (8) 
CCC(=O)N(c1ccccc1)C1CCN(C(=O)[C@H](N)Cc2ccc(Cl)c(Cl)c2)CC1

>  <score_type>  (8) 
oracle

>  <origin>  (8) 
autodockgpu

>  <m_score__min__energy>  (8) 
-7.7000000000000002

>  <m_primary>  (8) 
energy

>  <rmsd>  (8) 
8.219673855742366

>  <m_score__min__rmsd>  (8) 
8.219673855742366

>  <meeko>  (8) 
{"free_energy": -7.63, "intermolecular_energy": -10.01, "internal_energy": -2.33, "cluster_size": 1, "cluster_id": 2, "rank_in_cluster": 1}

>  <energy>  (8) 
-7.22

>  <cluster_rmsd>  (8) 
1.66

>  <cluster>  (8) 
3

$$$$

     RDKit          3D

 57 59  0  0  0  0  0  0  0  0999 V2000
  139.2150   66.6340  222.0710 C   0  0  0  0  0  0  0  0  0  0  0  0
  138.3380   67.7010  222.7250 C   0  0  0  0  0  0  0  0  0  0  0  0
  138.9930   68.2060  223.9760 C   0  0  0  0  0  0  0  0  0  0  0  0
  139.3690   67.3300  224.7980 O   0  0  0  0  0  0  0  0  0  0  0  0
  139.1620   69.6020  224.1820 N   0  0  0  0  0  0  0  0  0  0  0  0
  139.7300   70.0460  225.4010 C   0  0  0  0  0  0  0  0  0  0  0  0
  140.7000   71.0300  225.3160 C   0  0  0  0  0  0  0  0  0  0  0  0
  141.3350   71.5510  226.4260 C   0  0  0  0  0  0  0  0  0  0  0  0
  140.9730   71.0550  227.6800 C   0  0  0  0  0  0  0  0  0  0  0  0
  140.0100   70.0800  227.7560 C   0  0  0  0  0  0  0  0  0  0  0  0
  139.3720   69.5560  226.6410 C   0  0  0  0  0  0  0  0  0  0  0  0
  138.7400   70.4980  223.1190 C   0  0  0  0  0  0  0  0  0  0  0  0
  139.8450   71.0840  222.3200 C   0  0  0  0  0  0  0  0  0  0  0  0
  139.8420   72.5910  222.6170 C   0  0  0  0  0  0  0  0  0  0  0  0
  138.6130   73.1740  222.1440 N   0  0  0  0  0  0  0  0  0  0  0  0
  138.4940   74.3640  221.4000 C   0  0  0  0  0  0  0  0  0  0  0  0
  137.3270   74.7840  221.0650 O   0  0  0  0  0  0  0  0  0  0  0  0
  139.6190   75.2080  220.9500 C   0  0  2  0  0  0  0  0  0  0  0  0
  139.0040   76.5150  220.6240 N   0  0  0  0  0  0  0  0  0  0  0  0
  140.2320   74.7310  219.6370 C   0  0  0  0  0  0  0  0  0  0  0  0
  141.6760   74.3930  219.8280 C   0  0  0  0  0  0  0  0  0  0  0  0
  142.6020   75.4350  219.9300 C   0  0  0  0  0  0  0  0  0  0  0  0
  143.9190   75.1110  220.1030 C   0  0  0  0  0  0  0  0  0  0  0  0
  144.3420   73.7990  220.1790 C   0  0  0  0  0  0  0  0  0  0  0  0
  146.0420   73.3840  220.4020 Cl  0  0  0  0  0  0  0  0  0  0  0  0
  143.4310   72.7520  220.0790 C   0  0  0  0  0  0  0  0  0  0  0  0
  143.9640   71.0830  220.1750 Cl  0  0  0  0  0  0  0  0  0  0  0  0
  142.0920   73.0770  219.9030 C   0  0  0  0  0  0  0  0  0  0  0  0
  137.3880   72.4300  222.4760 C   0  0  0  0  0  0  0  0  0  0  0  0
  137.7400   71.5210  223.6340 C   0  0  0  0  0  0  0  0  0  0  0  0
  139.7072   66.0351  222.8514 H   0  0  0  0  0  0  0  0  0  0  0  0
  138.5907   65.9791  221.4454 H   0  0  0  0  0  0  0  0  0  0  0  0
  139.9784   67.1197  221.4454 H   0  0  0  0  0  0  0  0  0  0  0  0
  138.1976   68.5371  222.0241 H   0  0  0  0  0  0  0  0  0  0  0  0
  137.3628   67.2607  222.9801 H   0  0  0  0  0  0  0  0  0  0  0  0
  140.9765   71.4129  224.3226 H   0  0  0  0  0  0  0  0  0  0  0  0
  142.1024   72.3327  226.3254 H   0  0  0  0  0  0  0  0  0  0  0  0
  141.4520   71.4395  228.5925 H   0  0  0  0  0  0  0  0  0  0  0  0
  139.7307   69.6958  228.7482 H   0  0  0  0  0  0  0  0  0  0  0  0
  138.6047   68.7743  226.7419 H   0  0  0  0  0  0  0  0  0  0  0  0
  138.2166   69.8724  222.3809 H   0  0  0  0  0  0  0  0  0  0  0  0
  140.8065   70.6395  222.6168 H   0  0  0  0  0  0  0  0  0  0  0  0
  139.7082   70.8886  221.2462 H   0  0  0  0  0  0  0  0  0  0  0  0
  139.9291   72.7505  223.7019 H   0  0  0  0  0  0  0  0  0  0  0  0
  140.6923   73.0659  222.1056 H   0  0  0  0  0  0  0  0  0  0  0  0
  140.3965   75.2096  221.7282 H   0  0  0  0  0  0  0  0  0  0  0  0
  138.3440   76.3020  219.8280 H   0  0  0  0  0  0  0  0  0  0  0  0
  138.3600   76.6880  221.4480 H   0  0  0  0  0  0  0  0  0  0  0  0
  139.6935   73.8371  219.2893 H   0  0  0  0  0  0  0  0  0  0  0  0
  140.1496   75.5358  218.8917 H   0  0  0  0  0  0  0  0  0  0  0  0
  142.2805   76.4854  219.8727 H   0  0  0  0  0  0  0  0  0  0  0  0
  144.6621   75.9180  220.1839 H   0  0  0  0  0  0  0  0  0  0  0  0
  141.3479   72.2710  219.8217 H   0  0  0  0  0  0  0  0  0  0  0  0
  136.5878   73.1259  222.7683 H   0  0  0  0  0  0  0  0  0  0  0  0
  137.0257   71.8531  221.6123 H   0  0  0  0  0  0  0  0  0  0  0  0
  138.1878   72.1073  224.4499 H   0  0  0  0  0  0  0  0  0  0  0  0
  136.8405   71.0231  224.0252 H   0  0  0  0  0  0  0  0  0  0  0  0
  1  2  1  0
  2  3  1  0
  3  4  2  0
  3  5  1  0
  5  6  1  0
  6  7  2  0
  7  8  1  0
  8  9  2  0
  9 10  1  0
 10 11  2  0
  5 12  1  0
 12 13  1  0
 13 14  1  0
 14 15  1  0
 15 16  1  0
 16 17  2  0
 16 18  1  0
 18 19  1  0
 18 20  1  0
 20 21  1  0
 21 22  2  0
 22 23  1  0
 23 24  2  0
 24 25  1  0
 24 26  1  0
 26 27  1  0
 26 28  2  0
 15 29  1  0
 29 30  1  0
 11  6  1  0
 30 12  1  0
 28 21  1  0
  1 31  1  0
  1 32  1  0
  1 33  1  0
  2 34  1  0
  2 35  1  0
  7 36  1  0
  8 37  1  0
  9 38  1  0
 10 39  1  0
 11 40  1  0
 12 41  1  0
 13 42  1  0
 13 43  1  0
 14 44  1  0
 14 45  1  0
 18 46  1  1
 19 47  1  0
 19 48  1  0
 20 49  1  0
 20 50  1  0
 22 51  1  0
 23 52  1  0
 28 53  1  0
 29 54  1  0
 29 55  1  0
 30 56  1  0
 30 57  1  0
M  END
>  <smiles>  (9) 
CCC(=O)N(c1ccccc1)C1CCN(C(=O)[C@H](N)Cc2ccc(Cl)c(Cl)c2)CC1

>  <score_type>  (9) 
oracle

>  <origin>  (9) 
autodockgpu

>  <m_score__min__energy>  (9) 
-7.7000000000000002

>  <m_primary>  (9) 
energy

>  <rmsd>  (9) 
7.524552367895274

>  <m_score__min__rmsd>  (9) 
7.524552367895274

>  <meeko>  (9) 
{"free_energy": -6.85, "intermolecular_energy": -9.24, "internal_energy": -3.06, "cluster_size": 2, "cluster_id": 5, "rank_in_cluster": 2}

>  <energy>  (9) 
-7.17

>  <cluster_rmsd>  (9) 
1.06

>  <cluster>  (9) 
3

$$$$

     RDKit          3D

 57 59  0  0  0  0  0  0  0  0999 V2000
  137.9730   78.9560  223.0540 C   0  0  0  0  0  0  0  0  0  0  0  0
  137.9650   77.8940  221.9550 C   0  0  0  0  0  0  0  0  0  0  0  0
  139.1620   77.0020  222.0960 C   0  0  0  0  0  0  0  0  0  0  0  0
  138.9860   75.9320  222.7360 O   0  0  0  0  0  0  0  0  0  0  0  0
  140.4070   77.3790  221.5230 N   0  0  0  0  0  0  0  0  0  0  0  0
  141.0490   78.5490  221.9980 C   0  0  0  0  0  0  0  0  0  0  0  0
  141.5880   78.4920  223.2720 C   0  0  0  0  0  0  0  0  0  0  0  0
  142.2390   79.5610  223.8550 C   0  0  0  0  0  0  0  0  0  0  0  0
  142.3500   80.7420  223.1180 C   0  0  0  0  0  0  0  0  0  0  0  0
  141.8120   80.7890  221.8550 C   0  0  0  0  0  0  0  0  0  0  0  0
  141.1580   79.7160  221.2690 C   0  0  0  0  0  0  0  0  0  0  0  0
  140.9540   76.5320  220.4760 C   0  0  0  0  0  0  0  0  0  0  0  0
  141.1870   75.1200  220.8730 C   0  0  0  0  0  0  0  0  0  0  0  0
  142.7080   74.9100  220.8490 C   0  0  0  0  0  0  0  0  0  0  0  0
  143.1950   75.0650  219.5020 N   0  0  0  0  0  0  0  0  0  0  0  0
  144.1000   74.2070  218.8460 C   0  0  0  0  0  0  0  0  0  0  0  0
  144.4710   74.4820  217.6470 O   0  0  0  0  0  0  0  0  0  0  0  0
  144.6850   72.9790  219.4200 C   0  0  2  0  0  0  0  0  0  0  0  0
  145.9460   72.7750  218.6700 N   0  0  0  0  0  0  0  0  0  0  0  0
  143.8560   71.7330  219.1280 C   0  0  0  0  0  0  0  0  0  0  0  0
  142.4670   71.8950  219.6590 C   0  0  0  0  0  0  0  0  0  0  0  0
  141.4370   72.1920  218.7630 C   0  0  0  0  0  0  0  0  0  0  0  0
  140.1720   72.3380  219.2620 C   0  0  0  0  0  0  0  0  0  0  0  0
  139.9000   72.2000  220.6080 C   0  0  0  0  0  0  0  0  0  0  0  0
  138.2680   72.3900  221.2500 Cl  0  0  0  0  0  0  0  0  0  0  0  0
  140.9170   71.9050  221.5110 C   0  0  0  0  0  0  0  0  0  0  0  0
  140.5770   71.7290  223.2240 Cl  0  0  0  0  0  0  0  0  0  0  0  0
  142.2030   71.7560  221.0090 C   0  0  0  0  0  0  0  0  0  0  0  0
  142.6750   76.2290  218.7690 C   0  0  0  0  0  0  0  0  0  0  0  0
  142.1510   77.1930  219.8110 C   0  0  0  0  0  0  0  0  0  0  0  0
  137.9693   78.4650  224.0384 H   0  0  0  0  0  0  0  0  0  0  0  0
  138.8759   79.5769  222.9573 H   0  0  0  0  0  0  0  0  0  0  0  0
  137.0796   79.5904  222.9573 H   0  0  0  0  0  0  0  0  0  0  0  0
  137.0491   77.2905  222.0381 H   0  0  0  0  0  0  0  0  0  0  0  0
  137.9972   78.3895  220.9734 H   0  0  0  0  0  0  0  0  0  0  0  0
  141.4937   77.5567  223.8432 H   0  0  0  0  0  0  0  0  0  0  0  0
  142.6576   79.4847  224.8694 H   0  0  0  0  0  0  0  0  0  0  0  0
  142.8597   81.6198  223.5418 H   0  0  0  0  0  0  0  0  0  0  0  0
  141.9044   81.7228  221.2809 H   0  0  0  0  0  0  0  0  0  0  0  0
  140.7391   79.7924  220.2548 H   0  0  0  0  0  0  0  0  0  0  0  0
  140.1669   76.4396  219.7132 H   0  0  0  0  0  0  0  0  0  0  0  0
  140.7936   74.9389  221.8842 H   0  0  0  0  0  0  0  0  0  0  0  0
  140.6768   74.4239  220.1910 H   0  0  0  0  0  0  0  0  0  0  0  0
  143.1907   75.6531  221.5008 H   0  0  0  0  0  0  0  0  0  0  0  0
  142.9432   73.8974  221.2087 H   0  0  0  0  0  0  0  0  0  0  0  0
  144.7739   73.1024  220.5094 H   0  0  0  0  0  0  0  0  0  0  0  0
  145.6320   72.5730  217.6820 H   0  0  0  0  0  0  0  0  0  0  0  0
  146.3500   73.7530  218.6120 H   0  0  0  0  0  0  0  0  0  0  0  0
  143.8121   71.5735  218.0405 H   0  0  0  0  0  0  0  0  0  0  0  0
  144.3269   70.8680  219.6180 H   0  0  0  0  0  0  0  0  0  0  0  0
  141.6376   72.3051  217.6874 H   0  0  0  0  0  0  0  0  0  0  0  0
  139.3485   72.5719  218.5713 H   0  0  0  0  0  0  0  0  0  0  0  0
  143.0276   71.5229  221.6987 H   0  0  0  0  0  0  0  0  0  0  0  0
  143.4790   76.7006  218.1850 H   0  0  0  0  0  0  0  0  0  0  0  0
  141.8828   75.9346  218.0649 H   0  0  0  0  0  0  0  0  0  0  0  0
  142.9308   77.3996  220.5589 H   0  0  0  0  0  0  0  0  0  0  0  0
  141.8616   78.1479  219.3480 H   0  0  0  0  0  0  0  0  0  0  0  0
  1  2  1  0
  2  3  1  0
  3  4  2  0
  3  5  1  0
  5  6  1  0
  6  7  2  0
  7  8  1  0
  8  9  2  0
  9 10  1  0
 10 11  2  0
  5 12  1  0
 12 13  1  0
 13 14  1  0
 14 15  1  0
 15 16  1  0
 16 17  2  0
 16 18  1  0
 18 19  1  0
 18 20  1  0
 20 21  1  0
 21 22  2  0
 22 23  1  0
 23 24  2  0
 24 25  1  0
 24 26  1  0
 26 27  1  0
 26 28  2  0
 15 29  1  0
 29 30  1  0
 11  6  1  0
 30 12  1  0
 28 21  1  0
  1 31  1  0
  1 32  1  0
  1 33  1  0
  2 34  1  0
  2 35  1  0
  7 36  1  0
  8 37  1  0
  9 38  1  0
 10 39  1  0
 11 40  1  0
 12 41  1  0
 13 42  1  0
 13 43  1  0
 14 44  1  0
 14 45  1  0
 18 46  1  1
 19 47  1  0
 19 48  1  0
 20 49  1  0
 20 50  1  0
 22 51  1  0
 23 52  1  0
 28 53  1  0
 29 54  1  0
 29 55  1  0
 30 56  1  0
 30 57  1  0
M  END
>  <smiles>  (10) 
CCC(=O)N(c1ccccc1)C1CCN(C(=O)[C@H](N)Cc2ccc(Cl)c(Cl)c2)CC1

>  <score_type>  (10) 
oracle

>  <origin>  (10) 
autodockgpu

>  <m_score__min__energy>  (10) 
-7.7000000000000002

>  <m_primary>  (10) 
energy

>  <rmsd>  (10) 
7.224897969925642

>  <m_score__min__rmsd>  (10) 
7.224897969925642

>  <meeko>  (10) 
{"free_energy": -6.05, "intermolecular_energy": -8.44, "internal_energy": -3.63, "cluster_size": 5, "cluster_id": 12, "rank_in_cluster": 3}

>  <energy>  (10) 
-7.15

>  <cluster_rmsd>  (10) 
1.64

>  <cluster>  (10) 
3

$$$$

     RDKit          3D

 57 59  0  0  0  0  0  0  0  0999 V2000
  141.0060   76.3730  217.8680 C   0  0  0  0  0  0  0  0  0  0  0  0
  141.0780   77.5620  218.8250 C   0  0  0  0  0  0  0  0  0  0  0  0
  141.9430   77.2200  220.0020 C   0  0  0  0  0  0  0  0  0  0  0  0
  143.0960   76.7900  219.7370 O   0  0  0  0  0  0  0  0  0  0  0  0
  141.4520   77.3910  221.3250 N   0  0  0  0  0  0  0  0  0  0  0  0
  141.6690   78.6300  221.9770 C   0  0  0  0  0  0  0  0  0  0  0  0
  141.7160   79.7580  221.1750 C   0  0  0  0  0  0  0  0  0  0  0  0
  141.9210   81.0260  221.6820 C   0  0  0  0  0  0  0  0  0  0  0  0
  142.0860   81.1610  223.0620 C   0  0  0  0  0  0  0  0  0  0  0  0
  142.0370   80.0370  223.8500 C   0  0  0  0  0  0  0  0  0  0  0  0
  141.8310   78.7630  223.3410 C   0  0  0  0  0  0  0  0  0  0  0  0
  140.7490   76.2750  221.9340 C   0  0  0  0  0  0  0  0  0  0  0  0
  141.2710   74.9340  221.5710 C   0  0  0  0  0  0  0  0  0  0  0  0
  140.1710   74.2500  220.7450 C   0  0  0  0  0  0  0  0  0  0  0  0
  139.0050   74.0500  221.5670 N   0  0  0  0  0  0  0  0  0  0  0  0
  138.2470   72.8660  221.6540 C   0  0  0  0  0  0  0  0  0  0  0  0
  137.2090   72.8360  222.4110 O   0  0  0  0  0  0  0  0  0  0  0  0
  138.5360   71.6090  220.9340 C   0  0  2  0  0  0  0  0  0  0  0  0
  137.5340   70.6440  221.4420 N   0  0  0  0  0  0  0  0  0  0  0  0
  139.8840   71.0040  221.3130 C   0  0  0  0  0  0  0  0  0  0  0  0
  140.0090   70.9000  222.7990 C   0  0  0  0  0  0  0  0  0  0  0  0
  140.5810   71.9650  223.5010 C   0  0  0  0  0  0  0  0  0  0  0  0
  140.6910   71.8560  224.8590 C   0  0  0  0  0  0  0  0  0  0  0  0
  140.2550   70.7340  225.5370 C   0  0  0  0  0  0  0  0  0  0  0  0
  140.3990   70.5950  227.2890 Cl  0  0  0  0  0  0  0  0  0  0  0  0
  139.6850   69.6660  224.8510 C   0  0  0  0  0  0  0  0  0  0  0  0
  139.1310   68.2380  225.7060 Cl  0  0  0  0  0  0  0  0  0  0  0  0
  139.5720   69.7730  223.4700 C   0  0  0  0  0  0  0  0  0  0  0  0
  138.6000   75.2030  222.3860 C   0  0  0  0  0  0  0  0  0  0  0  0
  139.2450   76.4210  221.7600 C   0  0  0  0  0  0  0  0  0  0  0  0
  140.9495   75.4393  218.4468 H   0  0  0  0  0  0  0  0  0  0  0  0
  140.1118   76.4662  217.2341 H   0  0  0  0  0  0  0  0  0  0  0  0
  141.9049   76.3576  217.2341 H   0  0  0  0  0  0  0  0  0  0  0  0
  141.5048   78.4284  218.2985 H   0  0  0  0  0  0  0  0  0  0  0  0
  140.0648   77.8033  219.1788 H   0  0  0  0  0  0  0  0  0  0  0  0
  141.5846   79.6390  220.0894 H   0  0  0  0  0  0  0  0  0  0  0  0
  141.9533   81.9031  221.0189 H   0  0  0  0  0  0  0  0  0  0  0  0
  142.2525   82.1514  223.5108 H   0  0  0  0  0  0  0  0  0  0  0  0
  142.1673   80.1525  224.9361 H   0  0  0  0  0  0  0  0  0  0  0  0
  141.7978   77.8860  224.0041 H   0  0  0  0  0  0  0  0  0  0  0  0
  140.9611   76.3296  223.0120 H   0  0  0  0  0  0  0  0  0  0  0  0
  142.1897   75.0321  220.9741 H   0  0  0  0  0  0  0  0  0  0  0  0
  141.5204   74.3469  222.4672 H   0  0  0  0  0  0  0  0  0  0  0  0
  139.9091   74.8855  219.8862 H   0  0  0  0  0  0  0  0  0  0  0  0
  140.5358   73.2769  220.3845 H   0  0  0  0  0  0  0  0  0  0  0  0
  138.5245   71.8068  219.8520 H   0  0  0  0  0  0  0  0  0  0  0  0
  137.6160   70.7130  222.4920 H   0  0  0  0  0  0  0  0  0  0  0  0
  136.6130   71.1200  221.2270 H   0  0  0  0  0  0  0  0  0  0  0  0
  139.9679   70.0002  220.8711 H   0  0  0  0  0  0  0  0  0  0  0  0
  140.6863   71.6530  220.9319 H   0  0  0  0  0  0  0  0  0  0  0  0
  140.9325   72.8651  222.9754 H   0  0  0  0  0  0  0  0  0  0  0  0
  141.1389   72.6843  225.4276 H   0  0  0  0  0  0  0  0  0  0  0  0
  139.1262   68.9448  222.8997 H   0  0  0  0  0  0  0  0  0  0  0  0
  137.5050   75.3075  222.3804 H   0  0  0  0  0  0  0  0  0  0  0  0
  138.9155   75.0787  223.4324 H   0  0  0  0  0  0  0  0  0  0  0  0
  138.9929   76.4729  220.6905 H   0  0  0  0  0  0  0  0  0  0  0  0
  138.8847   77.3429  222.2399 H   0  0  0  0  0  0  0  0  0  0  0  0
  1  2  1  0
  2  3  1  0
  3  4  2  0
  3  5  1  0
  5  6  1  0
  6  7  2  0
  7  8  1  0
  8  9  2  0
  9 10  1  0
 10 11  2  0
  5 12  1  0
 12 13  1  0
 13 14  1  0
 14 15  1  0
 15 16  1  0
 16 17  2  0
 16 18  1  0
 18 19  1  0
 18 20  1  0
 20 21  1  0
 21 22  2  0
 22 23  1  0
 23 24  2  0
 24 25  1  0
 24 26  1  0
 26 27  1  0
 26 28  2  0
 15 29  1  0
 29 30  1  0
 11  6  1  0
 30 12  1  0
 28 21  1  0
  1 31  1  0
  1 32  1  0
  1 33  1  0
  2 34  1  0
  2 35  1  0
  7 36  1  0
  8 37  1  0
  9 38  1  0
 10 39  1  0
 11 40  1  0
 12 41  1  0
 13 42  1  0
 13 43  1  0
 14 44  1  0
 14 45  1  0
 18 46  1  6
 19 47  1  0
 19 48  1  0
 20 49  1  0
 20 50  1  0
 22 51  1  0
 23 52  1  0
 28 53  1  0
 29 54  1  0
 29 55  1  0
 30 56  1  0
 30 57  1  0
M  END
>  <smiles>  (11) 
CCC(=O)N(c1ccccc1)C1CCN(C(=O)[C@H](N)Cc2ccc(Cl)c(Cl)c2)CC1

>  <score_type>  (11) 
oracle

>  <origin>  (11) 
autodockgpu

>  <m_score__min__energy>  (11) 
-7.7000000000000002

>  <m_primary>  (11) 
energy

>  <rmsd>  (11) 
7.755982653954083

>  <m_score__min__rmsd>  (11) 
7.755982653954083

>  <meeko>  (11) 
{"free_energy": -6.36, "intermolecular_energy": -8.75, "internal_energy": -3.24, "cluster_size": 20, "cluster_id": 3, "rank_in_cluster": 19}

>  <energy>  (11) 
-7.08

>  <cluster_rmsd>  (11) 
1.68

>  <cluster>  (11) 
3

$$$$

     RDKit          3D

 57 59  0  0  0  0  0  0  0  0999 V2000
  137.1910   72.2620  222.2480 C   0  0  0  0  0  0  0  0  0  0  0  0
  137.8950   71.8400  220.9590 C   0  0  0  0  0  0  0  0  0  0  0  0
  139.2070   71.1880  221.2810 C   0  0  0  0  0  0  0  0  0  0  0  0
  139.5440   70.2260  220.5420 O   0  0  0  0  0  0  0  0  0  0  0  0
  139.9940   71.6610  222.3660 N   0  0  0  0  0  0  0  0  0  0  0  0
  139.9160   70.9850  223.6090 C   0  0  0  0  0  0  0  0  0  0  0  0
  140.6750   71.4970  224.6470 C   0  0  0  0  0  0  0  0  0  0  0  0
  140.6910   70.9350  225.9080 C   0  0  0  0  0  0  0  0  0  0  0  0
  139.9040   69.8040  226.1300 C   0  0  0  0  0  0  0  0  0  0  0  0
  139.1540   69.3030  225.0950 C   0  0  0  0  0  0  0  0  0  0  0  0
  139.1370   69.8670  223.8280 C   0  0  0  0  0  0  0  0  0  0  0  0
  140.8420   72.8170  222.1320 C   0  0  0  0  0  0  0  0  0  0  0  0
  140.1150   74.0980  221.9440 C   0  0  0  0  0  0  0  0  0  0  0  0
  140.3540   74.5220  220.4870 C   0  0  0  0  0  0  0  0  0  0  0  0
  141.7550   74.7900  220.2870 N   0  0  0  0  0  0  0  0  0  0  0  0
  142.2970   75.9070  219.6210 C   0  0  0  0  0  0  0  0  0  0  0  0
  143.5710   76.0050  219.4910 O   0  0  0  0  0  0  0  0  0  0  0  0
  141.5170   77.0170  219.0380 C   0  0  2  0  0  0  0  0  0  0  0  0
  142.4670   78.1510  218.9720 N   0  0  0  0  0  0  0  0  0  0  0  0
  140.3970   77.5020  219.9520 C   0  0  0  0  0  0  0  0  0  0  0  0
  140.9400   78.4220  221.0000 C   0  0  0  0  0  0  0  0  0  0  0  0
  141.4440   77.8700  222.1810 C   0  0  0  0  0  0  0  0  0  0  0  0
  141.9370   78.7220  223.1300 C   0  0  0  0  0  0  0  0  0  0  0  0
  141.9450   80.0900  222.9460 C   0  0  0  0  0  0  0  0  0  0  0  0
  142.5800   81.1880  224.1730 Cl  0  0  0  0  0  0  0  0  0  0  0  0
  141.4460   80.6530  221.7750 C   0  0  0  0  0  0  0  0  0  0  0  0
  141.4540   82.3910  221.5360 Cl  0  0  0  0  0  0  0  0  0  0  0  0
  140.9450   79.7910  220.8080 C   0  0  0  0  0  0  0  0  0  0  0  0
  142.6790   73.7910  220.8470 C   0  0  0  0  0  0  0  0  0  0  0  0
  141.8710   72.5270  221.0500 C   0  0  0  0  0  0  0  0  0  0  0  0
  137.7724   71.9135  223.1143 H   0  0  0  0  0  0  0  0  0  0  0  0
  137.1087   73.3585  222.2788 H   0  0  0  0  0  0  0  0  0  0  0  0
  136.1851   71.8178  222.2788 H   0  0  0  0  0  0  0  0  0  0  0  0
  137.2588   71.1281  220.4127 H   0  0  0  0  0  0  0  0  0  0  0  0
  138.0766   72.7300  220.3387 H   0  0  0  0  0  0  0  0  0  0  0  0
  141.2911   72.3888  224.4595 H   0  0  0  0  0  0  0  0  0  0  0  0
  141.3050   71.3654  226.7128 H   0  0  0  0  0  0  0  0  0  0  0  0
  139.8850   69.3217  227.1185 H   0  0  0  0  0  0  0  0  0  0  0  0
  138.5368   68.4113  225.2794 H   0  0  0  0  0  0  0  0  0  0  0  0
  138.5223   69.4370  223.0235 H   0  0  0  0  0  0  0  0  0  0  0  0
  141.3916   72.9884  223.0693 H   0  0  0  0  0  0  0  0  0  0  0  0
  139.0398   73.9558  222.1274 H   0  0  0  0  0  0  0  0  0  0  0  0
  140.4713   74.8658  222.6465 H   0  0  0  0  0  0  0  0  0  0  0  0
  140.0359   73.7129  219.8131 H   0  0  0  0  0  0  0  0  0  0  0  0
  139.7730   75.4305  220.2702 H   0  0  0  0  0  0  0  0  0  0  0  0
  141.0802   76.6837  218.0850 H   0  0  0  0  0  0  0  0  0  0  0  0
  142.9930   78.1040  219.8870 H   0  0  0  0  0  0  0  0  0  0  0  0
  143.1760   77.8280  218.2550 H   0  0  0  0  0  0  0  0  0  0  0  0
  139.6466   78.0383  219.3525 H   0  0  0  0  0  0  0  0  0  0  0  0
  139.9367   76.6327  220.4443 H   0  0  0  0  0  0  0  0  0  0  0  0
  141.4440   76.7819  222.3423 H   0  0  0  0  0  0  0  0  0  0  0  0
  142.3383   78.3058  224.0658 H   0  0  0  0  0  0  0  0  0  0  0  0
  140.5444   80.2057  219.8712 H   0  0  0  0  0  0  0  0  0  0  0  0
  143.5072   73.6047  220.1475 H   0  0  0  0  0  0  0  0  0  0  0  0
  143.1174   74.1401  221.7935 H   0  0  0  0  0  0  0  0  0  0  0  0
  141.3647   72.2494  220.1137 H   0  0  0  0  0  0  0  0  0  0  0  0
  142.5225   71.6916  221.3460 H   0  0  0  0  0  0  0  0  0  0  0  0
  1  2  1  0
  2  3  1  0
  3  4  2  0
  3  5  1  0
  5  6  1  0
  6  7  2  0
  7  8  1  0
  8  9  2  0
  9 10  1  0
 10 11  2  0
  5 12  1  0
 12 13  1  0
 13 14  1  0
 14 15  1  0
 15 16  1  0
 16 17  2  0
 16 18  1  0
 18 19  1  0
 18 20  1  0
 20 21  1  0
 21 22  2  0
 22 23  1  0
 23 24  2  0
 24 25  1  0
 24 26  1  0
 26 27  1  0
 26 28  2  0
 15 29  1  0
 29 30  1  0
 11  6  1  0
 30 12  1  0
 28 21  1  0
  1 31  1  0
  1 32  1  0
  1 33  1  0
  2 34  1  0
  2 35  1  0
  7 36  1  0
  8 37  1  0
  9 38  1  0
 10 39  1  0
 11 40  1  0
 12 41  1  0
 13 42  1  0
 13 43  1  0
 14 44  1  0
 14 45  1  0
 18 46  1  6
 19 47  1  0
 19 48  1  0
 20 49  1  0
 20 50  1  0
 22 51  1  0
 23 52  1  0
 28 53  1  0
 29 54  1  0
 29 55  1  0
 30 56  1  0
 30 57  1  0
M  END
>  <smiles>  (12) 
CCC(=O)N(c1ccccc1)C1CCN(C(=O)[C@H](N)Cc2ccc(Cl)c(Cl)c2)CC1

>  <score_type>  (12) 
oracle

>  <origin>  (12) 
autodockgpu

>  <m_score__min__energy>  (12) 
-7.7000000000000002

>  <m_primary>  (12) 
energy

>  <rmsd>  (12) 
4.544333734909494

>  <m_score__min__rmsd>  (12) 
4.544333734909494

>  <meeko>  (12) 
{"free_energy": -6.53, "intermolecular_energy": -8.92, "internal_energy": -2.94, "cluster_size": 1, "cluster_id": 11, "rank_in_cluster": 1}

>  <energy>  (12) 
-6.98

>  <cluster_rmsd>  (12) 
1.84

>  <cluster>  (12) 
3

$$$$

     RDKit          3D

 57 59  0  0  0  0  0  0  0  0999 V2000
  142.2080   80.0720  218.8600 C   0  0  0  0  0  0  0  0  0  0  0  0
  141.6030   78.7050  218.5420 C   0  0  0  0  0  0  0  0  0  0  0  0
  141.9640   77.7220  219.6170 C   0  0  0  0  0  0  0  0  0  0  0  0
  143.0690   77.1350  219.4830 O   0  0  0  0  0  0  0  0  0  0  0  0
  141.0820   77.4990  220.7090 N   0  0  0  0  0  0  0  0  0  0  0  0
  141.0600   78.4380  221.7690 C   0  0  0  0  0  0  0  0  0  0  0  0
  142.2640   79.0360  222.0990 C   0  0  0  0  0  0  0  0  0  0  0  0
  142.3820   79.9670  223.1120 C   0  0  0  0  0  0  0  0  0  0  0  0
  141.2310   80.3100  223.8230 C   0  0  0  0  0  0  0  0  0  0  0  0
  140.0410   79.7120  223.4890 C   0  0  0  0  0  0  0  0  0  0  0  0
  139.9210   78.7760  222.4720 C   0  0  0  0  0  0  0  0  0  0  0  0
  140.2450   76.3120  220.6690 C   0  0  0  0  0  0  0  0  0  0  0  0
  140.1080   75.5990  221.9640 C   0  0  0  0  0  0  0  0  0  0  0  0
  140.8060   74.2420  221.7880 C   0  0  0  0  0  0  0  0  0  0  0  0
  140.1070   73.4670  220.7950 N   0  0  0  0  0  0  0  0  0  0  0  0
  139.7480   72.1090  220.9070 C   0  0  0  0  0  0  0  0  0  0  0  0
  139.1480   71.5340  219.9270 O   0  0  0  0  0  0  0  0  0  0  0  0
  140.0030   71.2510  222.0810 C   0  0  2  0  0  0  0  0  0  0  0  0
  139.8110   69.8680  221.5860 N   0  0  0  0  0  0  0  0  0  0  0  0
  138.9560   71.4180  223.1770 C   0  0  0  0  0  0  0  0  0  0  0  0
  139.4060   70.7450  224.4350 C   0  0  0  0  0  0  0  0  0  0  0  0
  139.2580   69.3590  224.5440 C   0  0  0  0  0  0  0  0  0  0  0  0
  139.6730   68.7570  225.6990 C   0  0  0  0  0  0  0  0  0  0  0  0
  140.2250   69.4780  226.7390 C   0  0  0  0  0  0  0  0  0  0  0  0
  140.7580   68.6990  228.2290 Cl  0  0  0  0  0  0  0  0  0  0  0  0
  140.3770   70.8580  226.6440 C   0  0  0  0  0  0  0  0  0  0  0  0
  141.0770   71.7800  227.9630 Cl  0  0  0  0  0  0  0  0  0  0  0  0
  139.9570   71.4740  225.4720 C   0  0  0  0  0  0  0  0  0  0  0  0
  139.7410   74.1900  219.5660 C   0  0  0  0  0  0  0  0  0  0  0  0
  140.6330   75.4110  219.5060 C   0  0  0  0  0  0  0  0  0  0  0  0
  142.2658   80.2026  219.9507 H   0  0  0  0  0  0  0  0  0  0  0  0
  143.2181   80.1351  218.4291 H   0  0  0  0  0  0  0  0  0  0  0  0
  141.5755   80.8621  218.4291 H   0  0  0  0  0  0  0  0  0  0  0  0
  140.5083   78.7956  218.4838 H   0  0  0  0  0  0  0  0  0  0  0  0
  141.9993   78.3495  217.5794 H   0  0  0  0  0  0  0  0  0  0  0  0
  143.1640   78.7581  221.5308 H   0  0  0  0  0  0  0  0  0  0  0  0
  143.3534   80.4243  223.3513 H   0  0  0  0  0  0  0  0  0  0  0  0
  141.2765   81.0475  224.6378 H   0  0  0  0  0  0  0  0  0  0  0  0
  139.1393   79.9884  224.0551 H   0  0  0  0  0  0  0  0  0  0  0  0
  138.9497   78.3180  222.2335 H   0  0  0  0  0  0  0  0  0  0  0  0
  139.2207   76.6662  220.4813 H   0  0  0  0  0  0  0  0  0  0  0  0
  140.5912   76.1739  222.7678 H   0  0  0  0  0  0  0  0  0  0  0  0
  139.0506   75.4708  222.2387 H   0  0  0  0  0  0  0  0  0  0  0  0
  141.8444   74.4033  221.4629 H   0  0  0  0  0  0  0  0  0  0  0  0
  140.8012   73.7006  222.7455 H   0  0  0  0  0  0  0  0  0  0  0  0
  140.9937   71.4943  222.4924 H   0  0  0  0  0  0  0  0  0  0  0  0
  138.8020   69.8400  221.2760 H   0  0  0  0  0  0  0  0  0  0  0  0
  140.3560   69.8620  220.6770 H   0  0  0  0  0  0  0  0  0  0  0  0
  138.8047   72.4897  223.3734 H   0  0  0  0  0  0  0  0  0  0  0  0
  138.0140   70.9581  222.8436 H   0  0  0  0  0  0  0  0  0  0  0  0
  138.8204   68.7702  223.7244 H   0  0  0  0  0  0  0  0  0  0  0  0
  139.5641   67.6673  225.8027 H   0  0  0  0  0  0  0  0  0  0  0  0
  140.0651   72.5636  225.3671 H   0  0  0  0  0  0  0  0  0  0  0  0
  139.9091   73.5526  218.6854 H   0  0  0  0  0  0  0  0  0  0  0  0
  138.6780   74.4730  219.5717 H   0  0  0  0  0  0  0  0  0  0  0  0
  141.6876   75.1117  219.5972 H   0  0  0  0  0  0  0  0  0  0  0  0
  140.5096   75.9369  218.5478 H   0  0  0  0  0  0  0  0  0  0  0  0
  1  2  1  0
  2  3  1  0
  3  4  2  0
  3  5  1  0
  5  6  1  0
  6  7  2  0
  7  8  1  0
  8  9  2  0
  9 10  1  0
 10 11  2  0
  5 12  1  0
 12 13  1  0
 13 14  1  0
 14 15  1  0
 15 16  1  0
 16 17  2  0
 16 18  1  0
 18 19  1  0
 18 20  1  0
 20 21  1  0
 21 22  2  0
 22 23  1  0
 23 24  2  0
 24 25  1  0
 24 26  1  0
 26 27  1  0
 26 28  2  0
 15 29  1  0
 29 30  1  0
 11  6  1  0
 30 12  1  0
 28 21  1  0
  1 31  1  0
  1 32  1  0
  1 33  1  0
  2 34  1  0
  2 35  1  0
  7 36  1  0
  8 37  1  0
  9 38  1  0
 10 39  1  0
 11 40  1  0
 12 41  1  0
 13 42  1  0
 13 43  1  0
 14 44  1  0
 14 45  1  0
 18 46  1  1
 19 47  1  0
 19 48  1  0
 20 49  1  0
 20 50  1  0
 22 51  1  0
 23 52  1  0
 28 53  1  0
 29 54  1  0
 29 55  1  0
 30 56  1  0
 30 57  1  0
M  END
>  <smiles>  (13) 
CCC(=O)N(c1ccccc1)C1CCN(C(=O)[C@H](N)Cc2ccc(Cl)c(Cl)c2)CC1

>  <score_type>  (13) 
oracle

>  <origin>  (13) 
autodockgpu

>  <m_score__min__energy>  (13) 
-7.7000000000000002

>  <m_primary>  (13) 
energy

>  <rmsd>  (13) 
8.781062978747704

>  <m_score__min__rmsd>  (13) 
8.781062978747704

>  <meeko>  (13) 
{"free_energy": -7.22, "intermolecular_energy": -9.61, "internal_energy": -2.77, "cluster_size": 20, "cluster_id": 3, "rank_in_cluster": 6}

>  <energy>  (13) 
-6.96

>  <cluster_rmsd>  (13) 
1.07

>  <cluster>  (13) 
3

$$$$

     RDKit          3D

 57 59  0  0  0  0  0  0  0  0999 V2000
  143.5520   75.7770  219.6770 C   0  0  0  0  0  0  0  0  0  0  0  0
  142.9120   77.1010  219.2600 C   0  0  0  0  0  0  0  0  0  0  0  0
  141.4890   77.1520  219.7300 C   0  0  0  0  0  0  0  0  0  0  0  0
  140.6060   77.0050  218.8450 O   0  0  0  0  0  0  0  0  0  0  0  0
  141.1960   77.3540  221.1070 N   0  0  0  0  0  0  0  0  0  0  0  0
  141.5820   78.5750  221.7120 C   0  0  0  0  0  0  0  0  0  0  0  0
  141.7210   78.5730  223.0890 C   0  0  0  0  0  0  0  0  0  0  0  0
  142.0920   79.6950  223.8040 C   0  0  0  0  0  0  0  0  0  0  0  0
  142.3330   80.8730  223.0950 C   0  0  0  0  0  0  0  0  0  0  0  0
  142.1930   80.8660  221.7290 C   0  0  0  0  0  0  0  0  0  0  0  0
  141.8210   79.7400  221.0100 C   0  0  0  0  0  0  0  0  0  0  0  0
  140.5090   76.2880  221.8150 C   0  0  0  0  0  0  0  0  0  0  0  0
  141.0710   74.9310  221.6000 C   0  0  0  0  0  0  0  0  0  0  0  0
  140.0040   74.1370  220.8300 C   0  0  0  0  0  0  0  0  0  0  0  0
  138.8280   73.9910  221.6500 N   0  0  0  0  0  0  0  0  0  0  0  0
  138.0980   72.8020  221.8450 C   0  0  0  0  0  0  0  0  0  0  0  0
  137.0480   72.8230  222.5850 O   0  0  0  0  0  0  0  0  0  0  0  0
  138.4320   71.4870  221.2620 C   0  0  2  0  0  0  0  0  0  0  0  0
  137.5130   70.5350  221.9270 N   0  0  0  0  0  0  0  0  0  0  0  0
  139.8290   71.0070  221.6410 C   0  0  0  0  0  0  0  0  0  0  0  0
  139.9550   70.8900  223.1260 C   0  0  0  0  0  0  0  0  0  0  0  0
  140.4660   71.9750  223.8430 C   0  0  0  0  0  0  0  0  0  0  0  0
  140.5770   71.8550  225.2010 C   0  0  0  0  0  0  0  0  0  0  0  0
  140.2010   70.7030  225.8620 C   0  0  0  0  0  0  0  0  0  0  0  0
  140.3470   70.5490  227.6140 Cl  0  0  0  0  0  0  0  0  0  0  0  0
  139.6920   69.6140  225.1610 C   0  0  0  0  0  0  0  0  0  0  0  0
  139.2140   68.1470  225.9960 Cl  0  0  0  0  0  0  0  0  0  0  0  0
  139.5780   69.7320  223.7810 C   0  0  0  0  0  0  0  0  0  0  0  0
  138.3790   75.2110  222.3400 C   0  0  0  0  0  0  0  0  0  0  0  0
  139.0060   76.3750  221.6040 C   0  0  0  0  0  0  0  0  0  0  0  0
  143.5824   75.7141  220.7748 H   0  0  0  0  0  0  0  0  0  0  0  0
  142.9585   74.9412  219.2782 H   0  0  0  0  0  0  0  0  0  0  0  0
  144.5757   75.7229  219.2782 H   0  0  0  0  0  0  0  0  0  0  0  0
  143.4737   77.9342  219.7074 H   0  0  0  0  0  0  0  0  0  0  0  0
  142.9337   77.1835  218.1633 H   0  0  0  0  0  0  0  0  0  0  0  0
  141.5279   77.6389  223.6369 H   0  0  0  0  0  0  0  0  0  0  0  0
  142.1944   79.6613  224.8987 H   0  0  0  0  0  0  0  0  0  0  0  0
  142.6302   81.7918  223.6218 H   0  0  0  0  0  0  0  0  0  0  0  0
  142.3852   81.7987  221.1784 H   0  0  0  0  0  0  0  0  0  0  0  0
  141.7195   79.7737  219.9152 H   0  0  0  0  0  0  0  0  0  0  0  0
  140.6992   76.4587  222.8849 H   0  0  0  0  0  0  0  0  0  0  0  0
  141.9983   74.9920  221.0115 H   0  0  0  0  0  0  0  0  0  0  0  0
  141.3175   74.4452  222.5557 H   0  0  0  0  0  0  0  0  0  0  0  0
  139.7425   74.6745  219.9066 H   0  0  0  0  0  0  0  0  0  0  0  0
  140.3995   73.1424  220.5763 H   0  0  0  0  0  0  0  0  0  0  0  0
  138.3625   71.5543  220.1663 H   0  0  0  0  0  0  0  0  0  0  0  0
  137.6010   70.7630  222.9550 H   0  0  0  0  0  0  0  0  0  0  0  0
  136.5550   70.9050  221.6670 H   0  0  0  0  0  0  0  0  0  0  0  0
  140.0109   70.0234  221.1832 H   0  0  0  0  0  0  0  0  0  0  0  0
  140.5678   71.7360  221.2767 H   0  0  0  0  0  0  0  0  0  0  0  0
  140.7703   72.8992  223.3300 H   0  0  0  0  0  0  0  0  0  0  0  0
  140.9766   72.6992  225.7820 H   0  0  0  0  0  0  0  0  0  0  0  0
  139.1802   68.8879  223.1985 H   0  0  0  0  0  0  0  0  0  0  0  0
  137.2821   75.2856  222.3052 H   0  0  0  0  0  0  0  0  0  0  0  0
  138.6770   75.2023  223.3988 H   0  0  0  0  0  0  0  0  0  0  0  0
  138.7724   76.3114  220.5310 H   0  0  0  0  0  0  0  0  0  0  0  0
  138.6147   77.3308  221.9826 H   0  0  0  0  0  0  0  0  0  0  0  0
  1  2  1  0
  2  3  1  0
  3  4  2  0
  3  5  1  0
  5  6  1  0
  6  7  2  0
  7  8  1  0
  8  9  2  0
  9 10  1  0
 10 11  2  0
  5 12  1  0
 12 13  1  0
 13 14  1  0
 14 15  1  0
 15 16  1  0
 16 17  2  0
 16 18  1  0
 18 19  1  0
 18 20  1  0
 20 21  1  0
 21 22  2  0
 22 23  1  0
 23 24  2  0
 24 25  1  0
 24 26  1  0
 26 27  1  0
 26 28  2  0
 15 29  1  0
 29 30  1  0
 11  6  1  0
 30 12  1  0
 28 21  1  0
  1 31  1  0
  1 32  1  0
  1 33  1  0
  2 34  1  0
  2 35  1  0
  7 36  1  0
  8 37  1  0
  9 38  1  0
 10 39  1  0
 11 40  1  0
 12 41  1  0
 13 42  1  0
 13 43  1  0
 14 44  1  0
 14 45  1  0
 18 46  1  6
 19 47  1  0
 19 48  1  0
 20 49  1  0
 20 50  1  0
 22 51  1  0
 23 52  1  0
 28 53  1  0
 29 54  1  0
 29 55  1  0
 30 56  1  0
 30 57  1  0
M  END
>  <smiles>  (14) 
CCC(=O)N(c1ccccc1)C1CCN(C(=O)[C@H](N)Cc2ccc(Cl)c(Cl)c2)CC1

>  <score_type>  (14) 
oracle

>  <origin>  (14) 
autodockgpu

>  <m_score__min__energy>  (14) 
-7.7000000000000002

>  <m_primary>  (14) 
energy

>  <rmsd>  (14) 
7.809435974115646

>  <m_score__min__rmsd>  (14) 
7.809435974115646

>  <meeko>  (14) 
{"free_energy": -6.91, "intermolecular_energy": -9.29, "internal_energy": -3.17, "cluster_size": 20, "cluster_id": 3, "rank_in_cluster": 12}

>  <energy>  (14) 
-6.91

>  <cluster_rmsd>  (14) 
1.18

>  <cluster>  (14) 
3

$$$$

     RDKit          3D

 57 59  0  0  0  0  0  0  0  0999 V2000
  142.1130   80.0410  218.3550 C   0  0  0  0  0  0  0  0  0  0  0  0
  141.0010   80.7980  219.0800 C   0  0  0  0  0  0  0  0  0  0  0  0
  140.1160   79.8330  219.8110 C   0  0  0  0  0  0  0  0  0  0  0  0
  138.8770   79.9790  219.6420 O   0  0  0  0  0  0  0  0  0  0  0  0
  140.6850   78.8240  220.6350 N   0  0  0  0  0  0  0  0  0  0  0  0
  141.2780   79.2030  221.8640 C   0  0  0  0  0  0  0  0  0  0  0  0
  142.2940   80.1410  221.8040 C   0  0  0  0  0  0  0  0  0  0  0  0
  142.9560   80.5970  222.9270 C   0  0  0  0  0  0  0  0  0  0  0  0
  142.5740   80.0820  224.1670 C   0  0  0  0  0  0  0  0  0  0  0  0
  141.5650   79.1520  224.2170 C   0  0  0  0  0  0  0  0  0  0  0  0
  140.8990   78.6930  223.0900 C   0  0  0  0  0  0  0  0  0  0  0  0
  140.6190   77.4500  220.1640 C   0  0  0  0  0  0  0  0  0  0  0  0
  140.0120   76.4900  221.1200 C   0  0  0  0  0  0  0  0  0  0  0  0
  141.1380   75.5360  221.5480 C   0  0  0  0  0  0  0  0  0  0  0  0
  141.5900   74.7810  220.4080 N   0  0  0  0  0  0  0  0  0  0  0  0
  141.8230   73.3920  220.3740 C   0  0  0  0  0  0  0  0  0  0  0  0
  142.2530   72.8520  219.2910 O   0  0  0  0  0  0  0  0  0  0  0  0
  141.6140   72.4620  221.5020 C   0  0  2  0  0  0  0  0  0  0  0  0
  141.7780   71.1130  220.9140 N   0  0  0  0  0  0  0  0  0  0  0  0
  140.1840   72.4820  222.0320 C   0  0  0  0  0  0  0  0  0  0  0  0
  140.0450   71.5480  223.1920 C   0  0  0  0  0  0  0  0  0  0  0  0
  139.3920   70.3280  222.9960 C   0  0  0  0  0  0  0  0  0  0  0  0
  139.2700   69.4830  224.0640 C   0  0  0  0  0  0  0  0  0  0  0  0
  139.7720   69.8080  225.3090 C   0  0  0  0  0  0  0  0  0  0  0  0
  139.6130   68.7180  226.6870 Cl  0  0  0  0  0  0  0  0  0  0  0  0
  140.4240   71.0200  225.5180 C   0  0  0  0  0  0  0  0  0  0  0  0
  141.0620   71.4380  227.0980 Cl  0  0  0  0  0  0  0  0  0  0  0  0
  140.5490   71.8810  224.4350 C   0  0  0  0  0  0  0  0  0  0  0  0
  141.8110   75.5590  219.1780 C   0  0  0  0  0  0  0  0  0  0  0  0
  141.9610   77.0030  219.6060 C   0  0  0  0  0  0  0  0  0  0  0  0
  142.7866   79.5825  219.0940 H   0  0  0  0  0  0  0  0  0  0  0  0
  141.6710   79.2554  217.7246 H   0  0  0  0  0  0  0  0  0  0  0  0
  142.6819   80.7402  217.7246 H   0  0  0  0  0  0  0  0  0  0  0  0
  141.4475   81.4999  219.7998 H   0  0  0  0  0  0  0  0  0  0  0  0
  140.4007   81.3512  218.3428 H   0  0  0  0  0  0  0  0  0  0  0  0
  142.5863   80.5397  220.8213 H   0  0  0  0  0  0  0  0  0  0  0  0
  143.7600   81.3435  222.8468 H   0  0  0  0  0  0  0  0  0  0  0  0
  143.0730   80.4157  225.0888 H   0  0  0  0  0  0  0  0  0  0  0  0
  141.2705   78.7515  225.1983 H   0  0  0  0  0  0  0  0  0  0  0  0
  140.0948   77.9468  223.1704 H   0  0  0  0  0  0  0  0  0  0  0  0
  139.8999   77.4439  219.3316 H   0  0  0  0  0  0  0  0  0  0  0  0
  139.6129   77.0246  221.9946 H   0  0  0  0  0  0  0  0  0  0  0  0
  139.1772   75.9414  220.6594 H   0  0  0  0  0  0  0  0  0  0  0  0
  141.9764   76.1191  221.9569 H   0  0  0  0  0  0  0  0  0  0  0  0
  140.7601   74.8461  222.3169 H   0  0  0  0  0  0  0  0  0  0  0  0
  142.3012   72.7310  222.3177 H   0  0  0  0  0  0  0  0  0  0  0  0
  141.1660   71.1270  220.0540 H   0  0  0  0  0  0  0  0  0  0  0  0
  142.7630   71.1400  220.5240 H   0  0  0  0  0  0  0  0  0  0  0  0
  139.9318   73.5025  222.3560 H   0  0  0  0  0  0  0  0  0  0  0  0
  139.5020   72.1604  221.2311 H   0  0  0  0  0  0  0  0  0  0  0  0
  138.9875   70.0552  222.0101 H   0  0  0  0  0  0  0  0  0  0  0  0
  138.7585   68.5187  223.9280 H   0  0  0  0  0  0  0  0  0  0  0  0
  141.0589   72.8464  224.5694 H   0  0  0  0  0  0  0  0  0  0  0  0
  142.7244   75.2160  218.6700 H   0  0  0  0  0  0  0  0  0  0  0  0
  140.9749   75.4369  218.4737 H   0  0  0  0  0  0  0  0  0  0  0  0
  142.7378   77.0875  220.3802 H   0  0  0  0  0  0  0  0  0  0  0  0
  142.2586   77.6330  218.7548 H   0  0  0  0  0  0  0  0  0  0  0  0
  1  2  1  0
  2  3  1  0
  3  4  2  0
  3  5  1  0
  5  6  1  0
  6  7  2  0
  7  8  1  0
  8  9  2  0
  9 10  1  0
 10 11  2  0
  5 12  1  0
 12 13  1  0
 13 14  1  0
 14 15  1  0
 15 16  1  0
 16 17  2  0
 16 18  1  0
 18 19  1  0
 18 20  1  0
 20 21  1  0
 21 22  2  0
 22 23  1  0
 23 24  2  0
 24 25  1  0
 24 26  1  0
 26 27  1  0
 26 28  2  0
 15 29  1  0
 29 30  1  0
 11  6  1  0
 30 12  1  0
 28 21  1  0
  1 31  1  0
  1 32  1  0
  1 33  1  0
  2 34  1  0
  2 35  1  0
  7 36  1  0
  8 37  1  0
  9 38  1  0
 10 39  1  0
 11 40  1  0
 12 41  1  0
 13 42  1  0
 13 43  1  0
 14 44  1  0
 14 45  1  0
 18 46  1  1
 19 47  1  0
 19 48  1  0
 20 49  1  0
 20 50  1  0
 22 51  1  0
 23 52  1  0
 28 53  1  0
 29 54  1  0
 29 55  1  0
 30 56  1  0
 30 57  1  0
M  END
>  <smiles>  (15) 
CCC(=O)N(c1ccccc1)C1CCN(C(=O)[C@H](N)Cc2ccc(Cl)c(Cl)c2)CC1

>  <score_type>  (15) 
oracle

>  <origin>  (15) 
autodockgpu

>  <m_score__min__energy>  (15) 
-7.7000000000000002

>  <m_primary>  (15) 
energy

>  <rmsd>  (15) 
7.942514312312526

>  <m_score__min__rmsd>  (15) 
7.942514312312526

>  <meeko>  (15) 
{"free_energy": -6.81, "intermolecular_energy": -9.2, "internal_energy": -2.75, "cluster_size": 10, "cluster_id": 7, "rank_in_cluster": 8}

>  <energy>  (15) 
-6.9

>  <cluster_rmsd>  (15) 
1.17

>  <cluster>  (15) 
3

$$$$

     RDKit          3D

 57 59  0  0  0  0  0  0  0  0999 V2000
  141.8610   79.6110  219.1770 C   0  0  0  0  0  0  0  0  0  0  0  0
  141.9270   78.1560  218.7120 C   0  0  0  0  0  0  0  0  0  0  0  0
  142.1170   77.2500  219.8920 C   0  0  0  0  0  0  0  0  0  0  0  0
  143.2430   76.6980  219.9920 O   0  0  0  0  0  0  0  0  0  0  0  0
  141.0590   77.0540  220.8210 N   0  0  0  0  0  0  0  0  0  0  0  0
  140.8530   78.0250  221.8310 C   0  0  0  0  0  0  0  0  0  0  0  0
  139.5400   78.3250  222.1510 C   0  0  0  0  0  0  0  0  0  0  0  0
  139.1990   79.2530  223.1160 C   0  0  0  0  0  0  0  0  0  0  0  0
  140.2330   79.9070  223.7880 C   0  0  0  0  0  0  0  0  0  0  0  0
  141.5330   79.6040  223.4650 C   0  0  0  0  0  0  0  0  0  0  0  0
  141.8750   78.6720  222.4960 C   0  0  0  0  0  0  0  0  0  0  0  0
  140.2440   75.8600  220.6760 C   0  0  0  0  0  0  0  0  0  0  0  0
  139.9770   75.1270  221.9390 C   0  0  0  0  0  0  0  0  0  0  0  0
  140.7040   73.7790  221.8190 C   0  0  0  0  0  0  0  0  0  0  0  0
  140.1230   73.0130  220.7460 N   0  0  0  0  0  0  0  0  0  0  0  0
  139.7690   71.6500  220.8000 C   0  0  0  0  0  0  0  0  0  0  0  0
  139.2830   71.0850  219.7540 O   0  0  0  0  0  0  0  0  0  0  0  0
  139.9060   70.7770  221.9820 C   0  0  2  0  0  0  0  0  0  0  0  0
  139.5670   69.4210  221.4910 N   0  0  0  0  0  0  0  0  0  0  0  0
  138.8670   71.0680  223.0610 C   0  0  0  0  0  0  0  0  0  0  0  0
  139.3130   70.5160  224.3770 C   0  0  0  0  0  0  0  0  0  0  0  0
  139.1330   69.1530  224.6280 C   0  0  0  0  0  0  0  0  0  0  0  0
  139.5440   68.6610  225.8360 C   0  0  0  0  0  0  0  0  0  0  0  0
  140.1220   69.4720  226.7930 C   0  0  0  0  0  0  0  0  0  0  0  0
  140.6510   68.8360  228.3510 Cl  0  0  0  0  0  0  0  0  0  0  0  0
  140.3070   70.8300  226.5560 C   0  0  0  0  0  0  0  0  0  0  0  0
  141.0400   71.8650  227.7690 Cl  0  0  0  0  0  0  0  0  0  0  0  0
  139.8900   71.3340  225.3300 C   0  0  0  0  0  0  0  0  0  0  0  0
  139.8830   73.7510  219.4960 C   0  0  0  0  0  0  0  0  0  0  0  0
  140.7630   74.9810  219.5490 C   0  0  0  0  0  0  0  0  0  0  0  0
  141.8595   79.6448  220.2765 H   0  0  0  0  0  0  0  0  0  0  0  0
  142.7352   80.1582  218.7945 H   0  0  0  0  0  0  0  0  0  0  0  0
  140.9408   80.0768  218.7945 H   0  0  0  0  0  0  0  0  0  0  0  0
  140.9899   77.8945  218.1988 H   0  0  0  0  0  0  0  0  0  0  0  0
  142.7755   78.0348  218.0226 H   0  0  0  0  0  0  0  0  0  0  0  0
  138.7343   77.8025  221.6144 H   0  0  0  0  0  0  0  0  0  0  0  0
  138.1457   79.4697  223.3475 H   0  0  0  0  0  0  0  0  0  0  0  0
  140.0100   80.6536  224.5644 H   0  0  0  0  0  0  0  0  0  0  0  0
  142.3410   80.1248  223.9997 H   0  0  0  0  0  0  0  0  0  0  0  0
  142.9283   78.4552  222.2647 H   0  0  0  0  0  0  0  0  0  0  0  0
  139.2414   76.2070  220.3854 H   0  0  0  0  0  0  0  0  0  0  0  0
  140.3659   75.6940  222.7976 H   0  0  0  0  0  0  0  0  0  0  0  0
  138.8978   74.9857  222.0980 H   0  0  0  0  0  0  0  0  0  0  0  0
  141.7694   73.9546  221.6089 H   0  0  0  0  0  0  0  0  0  0  0  0
  140.6027   73.2229  222.7627 H   0  0  0  0  0  0  0  0  0  0  0  0
  140.9112   70.9104  222.4083 H   0  0  0  0  0  0  0  0  0  0  0  0
  138.5950   69.5240  221.0910 H   0  0  0  0  0  0  0  0  0  0  0  0
  140.1830   69.3160  220.6360 H   0  0  0  0  0  0  0  0  0  0  0  0
  138.7331   72.1561  223.1511 H   0  0  0  0  0  0  0  0  0  0  0  0
  137.9164   70.5921  222.7784 H   0  0  0  0  0  0  0  0  0  0  0  0
  138.6739   68.4949  223.8756 H   0  0  0  0  0  0  0  0  0  0  0  0
  139.4107   67.5905  226.0513 H   0  0  0  0  0  0  0  0  0  0  0  0
  140.0216   72.4045  225.1138 H   0  0  0  0  0  0  0  0  0  0  0  0
  140.1512   73.1287  218.6295 H   0  0  0  0  0  0  0  0  0  0  0  0
  138.8225   74.0241  219.3920 H   0  0  0  0  0  0  0  0  0  0  0  0
  141.8050   74.6901  219.7479 H   0  0  0  0  0  0  0  0  0  0  0  0
  140.7366   75.5204  218.5907 H   0  0  0  0  0  0  0  0  0  0  0  0
  1  2  1  0
  2  3  1  0
  3  4  2  0
  3  5  1  0
  5  6  1  0
  6  7  2  0
  7  8  1  0
  8  9  2  0
  9 10  1  0
 10 11  2  0
  5 12  1  0
 12 13  1  0
 13 14  1  0
 14 15  1  0
 15 16  1  0
 16 17  2  0
 16 18  1  0
 18 19  1  0
 18 20  1  0
 20 21  1  0
 21 22  2  0
 22 23  1  0
 23 24  2  0
 24 25  1  0
 24 26  1  0
 26 27  1  0
 26 28  2  0
 15 29  1  0
 29 30  1  0
 11  6  1  0
 30 12  1  0
 28 21  1  0
  1 31  1  0
  1 32  1  0
  1 33  1  0
  2 34  1  0
  2 35  1  0
  7 36  1  0
  8 37  1  0
  9 38  1  0
 10 39  1  0
 11 40  1  0
 12 41  1  0
 13 42  1  0
 13 43  1  0
 14 44  1  0
 14 45  1  0
 18 46  1  1
 19 47  1  0
 19 48  1  0
 20 49  1  0
 20 50  1  0
 22 51  1  0
 23 52  1  0
 28 53  1  0
 29 54  1  0
 29 55  1  0
 30 56  1  0
 30 57  1  0
M  END
>  <smiles>  (16) 
CCC(=O)N(c1ccccc1)C1CCN(C(=O)[C@H](N)Cc2ccc(Cl)c(Cl)c2)CC1

>  <score_type>  (16) 
oracle

>  <origin>  (16) 
autodockgpu

>  <m_score__min__energy>  (16) 
-7.7000000000000002

>  <m_primary>  (16) 
energy

>  <rmsd>  (16) 
8.937114356560917

>  <m_score__min__rmsd>  (16) 
8.937114356560917

>  <meeko>  (16) 
{"free_energy": -6.98, "intermolecular_energy": -9.36, "internal_energy": -2.85, "cluster_size": 20, "cluster_id": 3, "rank_in_cluster": 10}

>  <energy>  (16) 
-6.88

>  <cluster_rmsd>  (16) 
1.18

>  <cluster>  (16) 
3

$$$$

     RDKit          3D

 57 59  0  0  0  0  0  0  0  0999 V2000
  146.7500   73.3970  221.9660 C   0  0  0  0  0  0  0  0  0  0  0  0
  145.4020   73.3730  221.2450 C   0  0  0  0  0  0  0  0  0  0  0  0
  145.5920   72.9430  219.8200 C   0  0  0  0  0  0  0  0  0  0  0  0
  146.6160   73.3860  219.2380 O   0  0  0  0  0  0  0  0  0  0  0  0
  144.6460   72.0820  219.2010 N   0  0  0  0  0  0  0  0  0  0  0  0
  145.1050   70.8800  218.6080 C   0  0  0  0  0  0  0  0  0  0  0  0
  145.3640   70.9120  217.2490 C   0  0  0  0  0  0  0  0  0  0  0  0
  145.8150   69.8110  216.5480 C   0  0  0  0  0  0  0  0  0  0  0  0
  146.0150   68.6230  217.2540 C   0  0  0  0  0  0  0  0  0  0  0  0
  145.7570   68.6000  218.6020 C   0  0  0  0  0  0  0  0  0  0  0  0
  145.3030   69.7060  219.3070 C   0  0  0  0  0  0  0  0  0  0  0  0
  143.2510   72.4880  219.2150 C   0  0  0  0  0  0  0  0  0  0  0  0
  143.0240   73.9380  219.4360 C   0  0  0  0  0  0  0  0  0  0  0  0
  142.3340   74.0650  220.8030 C   0  0  0  0  0  0  0  0  0  0  0  0
  141.0420   73.4310  220.7510 N   0  0  0  0  0  0  0  0  0  0  0  0
  139.8360   73.9680  221.2430 C   0  0  0  0  0  0  0  0  0  0  0  0
  138.7560   73.2770  221.1540 O   0  0  0  0  0  0  0  0  0  0  0  0
  139.6840   75.2940  221.8740 C   0  0  2  0  0  0  0  0  0  0  0  0
  138.2650   75.3530  222.2920 N   0  0  0  0  0  0  0  0  0  0  0  0
  139.8440   76.4450  220.8850 C   0  0  0  0  0  0  0  0  0  0  0  0
  140.3500   77.6670  221.5840 C   0  0  0  0  0  0  0  0  0  0  0  0
  141.6940   78.0160  221.4360 C   0  0  0  0  0  0  0  0  0  0  0  0
  142.1440   79.1350  222.0810 C   0  0  0  0  0  0  0  0  0  0  0  0
  141.3080   79.9100  222.8610 C   0  0  0  0  0  0  0  0  0  0  0  0
  141.8900   81.3520  223.6940 Cl  0  0  0  0  0  0  0  0  0  0  0  0
  139.9670   79.5730  223.0180 C   0  0  0  0  0  0  0  0  0  0  0  0
  138.9020   80.5540  224.0080 Cl  0  0  0  0  0  0  0  0  0  0  0  0
  139.5070   78.4370  222.3640 C   0  0  0  0  0  0  0  0  0  0  0  0
  141.0100   72.1060  220.1120 C   0  0  0  0  0  0  0  0  0  0  0  0
  142.4320   71.5880  220.1280 C   0  0  0  0  0  0  0  0  0  0  0  0
  146.5843   73.3941  223.0534 H   0  0  0  0  0  0  0  0  0  0  0  0
  147.3338   72.5091  221.6817 H   0  0  0  0  0  0  0  0  0  0  0  0
  147.3018   74.3051  221.6817 H   0  0  0  0  0  0  0  0  0  0  0  0
  144.7295   72.6659  221.7527 H   0  0  0  0  0  0  0  0  0  0  0  0
  144.9638   74.3818  221.2633 H   0  0  0  0  0  0  0  0  0  0  0  0
  145.2039   71.8541  216.7042 H   0  0  0  0  0  0  0  0  0  0  0  0
  146.0106   69.8681  215.4670 H   0  0  0  0  0  0  0  0  0  0  0  0
  146.3736   67.7200  216.7382 H   0  0  0  0  0  0  0  0  0  0  0  0
  145.9178   67.6598  219.1499 H   0  0  0  0  0  0  0  0  0  0  0  0
  145.1072   69.6490  220.3879 H   0  0  0  0  0  0  0  0  0  0  0  0
  142.8785   72.3412  218.1904 H   0  0  0  0  0  0  0  0  0  0  0  0
  143.9830   74.4767  219.4423 H   0  0  0  0  0  0  0  0  0  0  0  0
  142.4067   74.3718  218.6356 H   0  0  0  0  0  0  0  0  0  0  0  0
  142.9511   73.5767  221.5716 H   0  0  0  0  0  0  0  0  0  0  0  0
  142.2098   75.1290  221.0528 H   0  0  0  0  0  0  0  0  0  0  0  0
  140.4367   75.3983  222.6693 H   0  0  0  0  0  0  0  0  0  0  0  0
  137.7240   75.1600  221.4060 H   0  0  0  0  0  0  0  0  0  0  0  0
  138.1460   74.4670  222.8600 H   0  0  0  0  0  0  0  0  0  0  0  0
  140.5592   76.1531  220.1019 H   0  0  0  0  0  0  0  0  0  0  0  0
  138.8645   76.6698  220.4377 H   0  0  0  0  0  0  0  0  0  0  0  0
  142.3715   77.4082  220.8183 H   0  0  0  0  0  0  0  0  0  0  0  0
  143.1997   79.4255  221.9758 H   0  0  0  0  0  0  0  0  0  0  0  0
  138.4518   78.1444  222.4687 H   0  0  0  0  0  0  0  0  0  0  0  0
  140.3520   71.4280  220.6753 H   0  0  0  0  0  0  0  0  0  0  0  0
  140.6204   72.1684  219.0852 H   0  0  0  0  0  0  0  0  0  0  0  0
  142.8342   71.6236  221.1512 H   0  0  0  0  0  0  0  0  0  0  0  0
  142.4704   70.5442  219.7829 H   0  0  0  0  0  0  0  0  0  0  0  0
  1  2  1  0
  2  3  1  0
  3  4  2  0
  3  5  1  0
  5  6  1  0
  6  7  2  0
  7  8  1  0
  8  9  2  0
  9 10  1  0
 10 11  2  0
  5 12  1  0
 12 13  1  0
 13 14  1  0
 14 15  1  0
 15 16  1  0
 16 17  2  0
 16 18  1  0
 18 19  1  0
 18 20  1  0
 20 21  1  0
 21 22  2  0
 22 23  1  0
 23 24  2  0
 24 25  1  0
 24 26  1  0
 26 27  1  0
 26 28  2  0
 15 29  1  0
 29 30  1  0
 11  6  1  0
 30 12  1  0
 28 21  1  0
  1 31  1  0
  1 32  1  0
  1 33  1  0
  2 34  1  0
  2 35  1  0
  7 36  1  0
  8 37  1  0
  9 38  1  0
 10 39  1  0
 11 40  1  0
 12 41  1  0
 13 42  1  0
 13 43  1  0
 14 44  1  0
 14 45  1  0
 18 46  1  1
 19 47  1  0
 19 48  1  0
 20 49  1  0
 20 50  1  0
 22 51  1  0
 23 52  1  0
 28 53  1  0
 29 54  1  0
 29 55  1  0
 30 56  1  0
 30 57  1  0
M  END
>  <smiles>  (17) 
CCC(=O)N(c1ccccc1)C1CCN(C(=O)[C@H](N)Cc2ccc(Cl)c(Cl)c2)CC1

>  <score_type>  (17) 
oracle

>  <origin>  (17) 
autodockgpu

>  <m_score__min__energy>  (17) 
-7.7000000000000002

>  <m_primary>  (17) 
energy

>  <rmsd>  (17) 
4.977061772131031

>  <m_score__min__rmsd>  (17) 
4.977061772131031

>  <meeko>  (17) 
{"free_energy": -7.11, "intermolecular_energy": -9.5, "internal_energy": -2.77, "cluster_size": 2, "cluster_id": 4, "rank_in_cluster": 2}

>  <energy>  (17) 
-6.87

>  <cluster_rmsd>  (17) 
1.71

>  <cluster>  (17) 
3

$$$$

     RDKit          3D

 57 59  0  0  0  0  0  0  0  0999 V2000
  142.5300   78.9150  217.9700 C   0  0  0  0  0  0  0  0  0  0  0  0
  141.5150   77.9010  218.4980 C   0  0  0  0  0  0  0  0  0  0  0  0
  141.8550   77.5230  219.9090 C   0  0  0  0  0  0  0  0  0  0  0  0
  142.8270   76.7360  220.0540 O   0  0  0  0  0  0  0  0  0  0  0  0
  141.1000   78.0480  220.9930 N   0  0  0  0  0  0  0  0  0  0  0  0
  141.3090   79.3940  221.3790 C   0  0  0  0  0  0  0  0  0  0  0  0
  141.8460   79.6070  222.6370 C   0  0  0  0  0  0  0  0  0  0  0  0
  142.0990   80.8690  223.1370 C   0  0  0  0  0  0  0  0  0  0  0  0
  141.7970   81.9660  222.3280 C   0  0  0  0  0  0  0  0  0  0  0  0
  141.2660   81.7460  221.0820 C   0  0  0  0  0  0  0  0  0  0  0  0
  141.0100   80.4790  220.5790 C   0  0  0  0  0  0  0  0  0  0  0  0
  140.1470   77.1640  221.6430 C   0  0  0  0  0  0  0  0  0  0  0  0
  140.7490   76.0020  222.3440 C   0  0  0  0  0  0  0  0  0  0  0  0
  140.2980   74.7510  221.5740 C   0  0  0  0  0  0  0  0  0  0  0  0
  138.8670   74.6170  221.6690 N   0  0  0  0  0  0  0  0  0  0  0  0
  138.1660   73.4310  221.9630 C   0  0  0  0  0  0  0  0  0  0  0  0
  136.8810   73.4500  221.9890 O   0  0  0  0  0  0  0  0  0  0  0  0
  138.7820   72.1220  222.2560 C   0  0  2  0  0  0  0  0  0  0  0  0
  137.8760   71.4900  223.2420 N   0  0  0  0  0  0  0  0  0  0  0  0
  140.1190   72.2420  222.9790 C   0  0  0  0  0  0  0  0  0  0  0  0
  140.1700   71.3020  224.1410 C   0  0  0  0  0  0  0  0  0  0  0  0
  139.9610   69.9390  223.9120 C   0  0  0  0  0  0  0  0  0  0  0  0
  140.0090   69.0910  224.9830 C   0  0  0  0  0  0  0  0  0  0  0  0
  140.2560   69.5480  226.2620 C   0  0  0  0  0  0  0  0  0  0  0  0
  140.3160   68.4520  227.6440 Cl  0  0  0  0  0  0  0  0  0  0  0  0
  140.4650   70.9020  226.5050 C   0  0  0  0  0  0  0  0  0  0  0  0
  140.7780   71.4880  228.1290 Cl  0  0  0  0  0  0  0  0  0  0  0  0
  140.4170   71.7670  225.4200 C   0  0  0  0  0  0  0  0  0  0  0  0
  138.0970   75.8490  221.4410 C   0  0  0  0  0  0  0  0  0  0  0  0
  139.0140   76.7960  220.6980 C   0  0  0  0  0  0  0  0  0  0  0  0
  143.0268   79.4113  218.8166 H   0  0  0  0  0  0  0  0  0  0  0  0
  143.2815   78.3962  217.3567 H   0  0  0  0  0  0  0  0  0  0  0  0
  142.0120   79.6670  217.3567 H   0  0  0  0  0  0  0  0  0  0  0  0
  140.5090   78.3451  218.4721 H   0  0  0  0  0  0  0  0  0  0  0  0
  141.5415   77.0008  217.8664 H   0  0  0  0  0  0  0  0  0  0  0  0
  142.0809   78.7346  223.2644 H   0  0  0  0  0  0  0  0  0  0  0  0
  142.5254   81.0058  224.1417 H   0  0  0  0  0  0  0  0  0  0  0  0
  141.9818   82.9904  222.6838 H   0  0  0  0  0  0  0  0  0  0  0  0
  141.0321   82.6165  220.4516 H   0  0  0  0  0  0  0  0  0  0  0  0
  140.5824   80.3429  219.5747 H   0  0  0  0  0  0  0  0  0  0  0  0
  139.7086   77.7415  222.4702 H   0  0  0  0  0  0  0  0  0  0  0  0
  141.8463   76.0791  222.3356 H   0  0  0  0  0  0  0  0  0  0  0  0
  140.4289   75.9605  223.3956 H   0  0  0  0  0  0  0  0  0  0  0  0
  140.5877   74.8470  220.5172 H   0  0  0  0  0  0  0  0  0  0  0  0
  140.7785   73.8614  222.0073 H   0  0  0  0  0  0  0  0  0  0  0  0
  138.9349   71.5811  221.3105 H   0  0  0  0  0  0  0  0  0  0  0  0
  137.5770   72.2860  223.8680 H   0  0  0  0  0  0  0  0  0  0  0  0
  137.0100   71.2770  222.6700 H   0  0  0  0  0  0  0  0  0  0  0  0
  140.9323   71.9981  222.2797 H   0  0  0  0  0  0  0  0  0  0  0  0
  140.2337   73.2719  223.3481 H   0  0  0  0  0  0  0  0  0  0  0  0
  139.7635   69.5596  222.8986 H   0  0  0  0  0  0  0  0  0  0  0  0
  139.8464   68.0152  224.8213 H   0  0  0  0  0  0  0  0  0  0  0  0
  140.5786   72.8431  225.5807 H   0  0  0  0  0  0  0  0  0  0  0  0
  137.2035   75.6327  220.8369 H   0  0  0  0  0  0  0  0  0  0  0  0
  137.7565   76.2874  222.3907 H   0  0  0  0  0  0  0  0  0  0  0  0
  139.4172   76.3031  219.8010 H   0  0  0  0  0  0  0  0  0  0  0  0
  138.4675   77.6950  220.3769 H   0  0  0  0  0  0  0  0  0  0  0  0
  1  2  1  0
  2  3  1  0
  3  4  2  0
  3  5  1  0
  5  6  1  0
  6  7  2  0
  7  8  1  0
  8  9  2  0
  9 10  1  0
 10 11  2  0
  5 12  1  0
 12 13  1  0
 13 14  1  0
 14 15  1  0
 15 16  1  0
 16 17  2  0
 16 18  1  0
 18 19  1  0
 18 20  1  0
 20 21  1  0
 21 22  2  0
 22 23  1  0
 23 24  2  0
 24 25  1  0
 24 26  1  0
 26 27  1  0
 26 28  2  0
 15 29  1  0
 29 30  1  0
 11  6  1  0
 30 12  1  0
 28 21  1  0
  1 31  1  0
  1 32  1  0
  1 33  1  0
  2 34  1  0
  2 35  1  0
  7 36  1  0
  8 37  1  0
  9 38  1  0
 10 39  1  0
 11 40  1  0
 12 41  1  0
 13 42  1  0
 13 43  1  0
 14 44  1  0
 14 45  1  0
 18 46  1  6
 19 47  1  0
 19 48  1  0
 20 49  1  0
 20 50  1  0
 22 51  1  0
 23 52  1  0
 28 53  1  0
 29 54  1  0
 29 55  1  0
 30 56  1  0
 30 57  1  0
M  END
>  <smiles>  (18) 
CCC(=O)N(c1ccccc1)C1CCN(C(=O)[C@H](N)Cc2ccc(Cl)c(Cl)c2)CC1

>  <score_type>  (18) 
oracle

>  <origin>  (18) 
autodockgpu

>  <m_score__min__energy>  (18) 
-7.7000000000000002

>  <m_primary>  (18) 
energy

>  <rmsd>  (18) 
8.440151209537524

>  <m_score__min__rmsd>  (18) 
8.440151209537524

>  <meeko>  (18) 
{"free_energy": -7.6, "intermolecular_energy": -9.98, "internal_energy": -2.16, "cluster_size": 20, "cluster_id": 3, "rank_in_cluster": 1}

>  <energy>  (18) 
-6.73

>  <cluster_rmsd>  (18) 
0.95

>  <cluster>  (18) 
3

$$$$

     RDKit          3D

 57 59  0  0  0  0  0  0  0  0999 V2000
  131.8310   66.3860  225.0420 C   0  0  0  0  0  0  0  0  0  0  0  0
  133.2390   66.7920  224.6070 C   0  0  0  0  0  0  0  0  0  0  0  0
  133.8770   67.6420  225.6660 C   0  0  0  0  0  0  0  0  0  0  0  0
  133.8950   67.1610  226.8280 O   0  0  0  0  0  0  0  0  0  0  0  0
  134.4200   68.9130  225.3320 N   0  0  0  0  0  0  0  0  0  0  0  0
  133.7780   70.0770  225.8220 C   0  0  0  0  0  0  0  0  0  0  0  0
  134.2780   70.6210  226.9920 C   0  0  0  0  0  0  0  0  0  0  0  0
  133.7460   71.7530  227.5770 C   0  0  0  0  0  0  0  0  0  0  0  0
  132.6580   72.3630  226.9500 C   0  0  0  0  0  0  0  0  0  0  0  0
  132.1680   71.8180  225.7890 C   0  0  0  0  0  0  0  0  0  0  0  0
  132.7030   70.6810  225.2010 C   0  0  0  0  0  0  0  0  0  0  0  0
  135.6130   68.9410  224.5030 C   0  0  0  0  0  0  0  0  0  0  0  0
  136.7720   69.6510  225.1010 C   0  0  0  0  0  0  0  0  0  0  0  0
  137.0090   70.8980  224.2360 C   0  0  0  0  0  0  0  0  0  0  0  0
  137.3890   70.4970  222.9060 N   0  0  0  0  0  0  0  0  0  0  0  0
  138.4510   71.0330  222.1510 C   0  0  0  0  0  0  0  0  0  0  0  0
  138.6610   70.5970  220.9610 O   0  0  0  0  0  0  0  0  0  0  0  0
  139.3810   72.0840  222.6100 C   0  0  2  0  0  0  0  0  0  0  0  0
  139.7490   72.8250  221.3810 N   0  0  0  0  0  0  0  0  0  0  0  0
  140.7000   71.5250  223.1340 C   0  0  0  0  0  0  0  0  0  0  0  0
  140.5140   70.9480  224.5010 C   0  0  0  0  0  0  0  0  0  0  0  0
  140.7090   71.7760  225.6110 C   0  0  0  0  0  0  0  0  0  0  0  0
  140.5370   71.2350  226.8550 C   0  0  0  0  0  0  0  0  0  0  0  0
  140.1820   69.9130  227.0310 C   0  0  0  0  0  0  0  0  0  0  0  0
  139.9630   69.2170  228.6370 Cl  0  0  0  0  0  0  0  0  0  0  0  0
  139.9860   69.0770  225.9360 C   0  0  0  0  0  0  0  0  0  0  0  0
  139.5350   67.3960  226.1540 Cl  0  0  0  0  0  0  0  0  0  0  0  0
  140.1590   69.6220  224.6700 C   0  0  0  0  0  0  0  0  0  0  0  0
  136.5800   69.4210  222.3110 C   0  0  0  0  0  0  0  0  0  0  0  0
  135.2810   69.3830  223.0870 C   0  0  0  0  0  0  0  0  0  0  0  0
  131.7768   66.3704  226.1406 H   0  0  0  0  0  0  0  0  0  0  0  0
  131.1026   67.1107  224.6493 H   0  0  0  0  0  0  0  0  0  0  0  0
  131.6003   65.3847  224.6493 H   0  0  0  0  0  0  0  0  0  0  0  0
  133.8466   65.8886  224.4497 H   0  0  0  0  0  0  0  0  0  0  0  0
  133.1767   67.3667  223.6711 H   0  0  0  0  0  0  0  0  0  0  0  0
  135.1354   70.1310  227.4765 H   0  0  0  0  0  0  0  0  0  0  0  0
  134.1663   72.1614  228.5079 H   0  0  0  0  0  0  0  0  0  0  0  0
  132.2004   73.2664  227.3795 H   0  0  0  0  0  0  0  0  0  0  0  0
  131.3108   72.3059  225.3021 H   0  0  0  0  0  0  0  0  0  0  0  0
  132.2838   70.2735  224.2692 H   0  0  0  0  0  0  0  0  0  0  0  0
  135.9717   67.9027  224.4452 H   0  0  0  0  0  0  0  0  0  0  0  0
  136.5458   69.9438  226.1369 H   0  0  0  0  0  0  0  0  0  0  0  0
  137.6640   69.0078  225.1269 H   0  0  0  0  0  0  0  0  0  0  0  0
  136.0846   71.4925  224.1893 H   0  0  0  0  0  0  0  0  0  0  0  0
  137.8134   71.5033  224.6794 H   0  0  0  0  0  0  0  0  0  0  0  0
  138.8963   72.6638  223.4093 H   0  0  0  0  0  0  0  0  0  0  0  0
  140.3450   72.1450  220.8350 H   0  0  0  0  0  0  0  0  0  0  0  0
  138.8390   72.8570  220.8400 H   0  0  0  0  0  0  0  0  0  0  0  0
  141.0561   70.7376  222.4534 H   0  0  0  0  0  0  0  0  0  0  0  0
  141.4372   72.3396  223.1873 H   0  0  0  0  0  0  0  0  0  0  0  0
  140.9924   72.8316  225.4870 H   0  0  0  0  0  0  0  0  0  0  0  0
  140.6857   71.8711  227.7400 H   0  0  0  0  0  0  0  0  0  0  0  0
  140.0107   68.9865  223.7845 H   0  0  0  0  0  0  0  0  0  0  0  0
  136.3832   69.6354  221.2502 H   0  0  0  0  0  0  0  0  0  0  0  0
  137.1030   68.4546  222.3619 H   0  0  0  0  0  0  0  0  0  0  0  0
  134.8224   70.3827  223.1025 H   0  0  0  0  0  0  0  0  0  0  0  0
  134.5681   68.6880  222.6192 H   0  0  0  0  0  0  0  0  0  0  0  0
  1  2  1  0
  2  3  1  0
  3  4  2  0
  3  5  1  0
  5  6  1  0
  6  7  2  0
  7  8  1  0
  8  9  2  0
  9 10  1  0
 10 11  2  0
  5 12  1  0
 12 13  1  0
 13 14  1  0
 14 15  1  0
 15 16  1  0
 16 17  2  0
 16 18  1  0
 18 19  1  0
 18 20  1  0
 20 21  1  0
 21 22  2  0
 22 23  1  0
 23 24  2  0
 24 25  1  0
 24 26  1  0
 26 27  1  0
 26 28  2  0
 15 29  1  0
 29 30  1  0
 11  6  1  0
 30 12  1  0
 28 21  1  0
  1 31  1  0
  1 32  1  0
  1 33  1  0
  2 34  1  0
  2 35  1  0
  7 36  1  0
  8 37  1  0
  9 38  1  0
 10 39  1  0
 11 40  1  0
 12 41  1  0
 13 42  1  0
 13 43  1  0
 14 44  1  0
 14 45  1  0
 18 46  1  1
 19 47  1  0
 19 48  1  0
 20 49  1  0
 20 50  1  0
 22 51  1  0
 23 52  1  0
 28 53  1  0
 29 54  1  0
 29 55  1  0
 30 56  1  0
 30 57  1  0
M  END
>  <smiles>  (19) 
CCC(=O)N(c1ccccc1)C1CCN(C(=O)[C@H](N)Cc2ccc(Cl)c(Cl)c2)CC1

>  <score_type>  (19) 
oracle

>  <origin>  (19) 
autodockgpu

>  <m_score__min__energy>  (19) 
-7.7000000000000002

>  <m_primary>  (19) 
energy

>  <rmsd>  (19) 
10.47378005498286

>  <m_score__min__rmsd>  (19) 
10.47378005498286

>  <meeko>  (19) 
{"free_energy": -6.2, "intermolecular_energy": -8.58, "internal_energy": -3.47, "cluster_size": 4, "cluster_id": 10, "rank_in_cluster": 4}

>  <energy>  (19) 
-6.54

>  <cluster_rmsd>  (19) 
1.07

>  <cluster>  (19) 
3

$$$$

     RDKit          3D

 57 59  0  0  0  0  0  0  0  0999 V2000
  137.9970   80.8170  224.1850 C   0  0  0  0  0  0  0  0  0  0  0  0
  137.2680   79.9060  223.1980 C   0  0  0  0  0  0  0  0  0  0  0  0
  138.0720   79.7680  221.9390 C   0  0  0  0  0  0  0  0  0  0  0  0
  137.6320   80.3790  220.9300 O   0  0  0  0  0  0  0  0  0  0  0  0
  139.2580   78.9840  221.9290 N   0  0  0  0  0  0  0  0  0  0  0  0
  140.4390   79.5300  222.4880 C   0  0  0  0  0  0  0  0  0  0  0  0
  140.9610   80.6540  221.8720 C   0  0  0  0  0  0  0  0  0  0  0  0
  142.1060   81.2840  222.3150 C   0  0  0  0  0  0  0  0  0  0  0  0
  142.7540   80.7540  223.4330 C   0  0  0  0  0  0  0  0  0  0  0  0
  142.2300   79.6390  224.0380 C   0  0  0  0  0  0  0  0  0  0  0  0
  141.0790   79.0050  223.5930 C   0  0  0  0  0  0  0  0  0  0  0  0
  139.1850   77.6560  221.3420 C   0  0  0  0  0  0  0  0  0  0  0  0
  138.9160   76.5610  222.3070 C   0  0  0  0  0  0  0  0  0  0  0  0
  140.1850   75.6960  222.3440 C   0  0  0  0  0  0  0  0  0  0  0  0
  140.3940   75.0910  221.0530 N   0  0  0  0  0  0  0  0  0  0  0  0
  140.7210   73.7420  220.8150 C   0  0  0  0  0  0  0  0  0  0  0  0
  140.9060   73.3430  219.6070 O   0  0  0  0  0  0  0  0  0  0  0  0
  140.8760   72.7020  221.8520 C   0  0  2  0  0  0  0  0  0  0  0  0
  141.6700   71.6350  221.2010 N   0  0  0  0  0  0  0  0  0  0  0  0
  139.5580   72.0320  222.2240 C   0  0  0  0  0  0  0  0  0  0  0  0
  139.7010   71.2770  223.5080 C   0  0  0  0  0  0  0  0  0  0  0  0
  139.2170   69.9680  223.5740 C   0  0  0  0  0  0  0  0  0  0  0  0
  139.3530   69.2900  224.7530 C   0  0  0  0  0  0  0  0  0  0  0  0
  139.9490   69.8650  225.8580 C   0  0  0  0  0  0  0  0  0  0  0  0
  140.1220   68.9890  227.3800 Cl  0  0  0  0  0  0  0  0  0  0  0  0
  140.4340   71.1670  225.8070 C   0  0  0  0  0  0  0  0  0  0  0  0
  141.1920   71.9030  227.2080 Cl  0  0  0  0  0  0  0  0  0  0  0  0
  140.2980   71.8600  224.6100 C   0  0  0  0  0  0  0  0  0  0  0  0
  140.2370   75.9890  219.8980 C   0  0  0  0  0  0  0  0  0  0  0  0
  140.3750   77.3990  220.4300 C   0  0  0  0  0  0  0  0  0  0  0  0
  137.7534   80.5126  225.2136 H   0  0  0  0  0  0  0  0  0  0  0  0
  139.0824   80.7359  224.0259 H   0  0  0  0  0  0  0  0  0  0  0  0
  137.6799   81.8582  224.0259 H   0  0  0  0  0  0  0  0  0  0  0  0
  137.1288   78.9139  223.6522 H   0  0  0  0  0  0  0  0  0  0  0  0
  136.2891   80.3453  222.9556 H   0  0  0  0  0  0  0  0  0  0  0  0
  140.4415   81.0622  220.9925 H   0  0  0  0  0  0  0  0  0  0  0  0
  142.4964   82.1761  221.8034 H   0  0  0  0  0  0  0  0  0  0  0  0
  143.6698   81.2227  223.8225 H   0  0  0  0  0  0  0  0  0  0  0  0
  142.7473   79.2285  224.9177 H   0  0  0  0  0  0  0  0  0  0  0  0
  140.6888   78.1126  224.1042 H   0  0  0  0  0  0  0  0  0  0  0  0
  138.2829   77.6467  220.7125 H   0  0  0  0  0  0  0  0  0  0  0  0
  138.7084   76.9752  223.3047 H   0  0  0  0  0  0  0  0  0  0  0  0
  138.0385   75.9700  222.0060 H   0  0  0  0  0  0  0  0  0  0  0  0
  141.0504   76.3259  222.5978 H   0  0  0  0  0  0  0  0  0  0  0  0
  140.0687   74.9081  223.1027 H   0  0  0  0  0  0  0  0  0  0  0  0
  141.3108   73.1594  222.7530 H   0  0  0  0  0  0  0  0  0  0  0  0
  141.0500   71.2890  220.4190 H   0  0  0  0  0  0  0  0  0  0  0  0
  142.4320   72.1750  220.7000 H   0  0  0  0  0  0  0  0  0  0  0  0
  138.7805   72.8014  222.3405 H   0  0  0  0  0  0  0  0  0  0  0  0
  139.2773   71.3289  221.4259 H   0  0  0  0  0  0  0  0  0  0  0  0
  138.7401   69.4965  222.7021 H   0  0  0  0  0  0  0  0  0  0  0  0
  138.9775   68.2585  224.8235 H   0  0  0  0  0  0  0  0  0  0  0  0
  140.6725   72.8918  224.5382 H   0  0  0  0  0  0  0  0  0  0  0  0
  141.0178   75.7866  219.1501 H   0  0  0  0  0  0  0  0  0  0  0  0
  139.2632   75.8415  219.4082 H   0  0  0  0  0  0  0  0  0  0  0  0
  141.3123   77.4974  220.9972 H   0  0  0  0  0  0  0  0  0  0  0  0
  140.3981   78.1263  219.6051 H   0  0  0  0  0  0  0  0  0  0  0  0
  1  2  1  0
  2  3  1  0
  3  4  2  0
  3  5  1  0
  5  6  1  0
  6  7  2  0
  7  8  1  0
  8  9  2  0
  9 10  1  0
 10 11  2  0
  5 12  1  0
 12 13  1  0
 13 14  1  0
 14 15  1  0
 15 16  1  0
 16 17  2  0
 16 18  1  0
 18 19  1  0
 18 20  1  0
 20 21  1  0
 21 22  2  0
 22 23  1  0
 23 24  2  0
 24 25  1  0
 24 26  1  0
 26 27  1  0
 26 28  2  0
 15 29  1  0
 29 30  1  0
 11  6  1  0
 30 12  1  0
 28 21  1  0
  1 31  1  0
  1 32  1  0
  1 33  1  0
  2 34  1  0
  2 35  1  0
  7 36  1  0
  8 37  1  0
  9 38  1  0
 10 39  1  0
 11 40  1  0
 12 41  1  0
 13 42  1  0
 13 43  1  0
 14 44  1  0
 14 45  1  0
 18 46  1  1
 19 47  1  0
 19 48  1  0
 20 49  1  0
 20 50  1  0
 22 51  1  0
 23 52  1  0
 28 53  1  0
 29 54  1  0
 29 55  1  0
 30 56  1  0
 30 57  1  0
M  END
>  <smiles>  (20) 
CCC(=O)N(c1ccccc1)C1CCN(C(=O)[C@H](N)Cc2ccc(Cl)c(Cl)c2)CC1

>  <score_type>  (20) 
oracle

>  <origin>  (20) 
autodockgpu

>  <m_score__min__energy>  (20) 
-7.7000000000000002

>  <m_primary>  (20) 
energy

>  <rmsd>  (20) 
8.251514036503536

>  <m_score__min__rmsd>  (20) 
8.251514036503536

>  <meeko>  (20) 
{"free_energy": -6.97, "intermolecular_energy": -9.35, "internal_energy": -2.91, "cluster_size": 10, "cluster_id": 7, "rank_in_cluster": 6}

>  <energy>  (20) 
-6.5

>  <cluster_rmsd>  (20) 
1.27

>  <cluster>  (20) 
3

$$$$

     RDKit          3D

 57 59  0  0  0  0  0  0  0  0999 V2000
  140.5910   76.2770  218.0230 C   0  0  0  0  0  0  0  0  0  0  0  0
  141.1480   77.5270  218.7040 C   0  0  0  0  0  0  0  0  0  0  0  0
  141.9560   77.1380  219.9060 C   0  0  0  0  0  0  0  0  0  0  0  0
  143.0710   76.6010  219.6760 O   0  0  0  0  0  0  0  0  0  0  0  0
  141.4550   77.3820  221.2140 N   0  0  0  0  0  0  0  0  0  0  0  0
  141.6840   78.6490  221.8050 C   0  0  0  0  0  0  0  0  0  0  0  0
  141.7890   78.6850  223.1850 C   0  0  0  0  0  0  0  0  0  0  0  0
  142.0110   79.8540  223.8860 C   0  0  0  0  0  0  0  0  0  0  0  0
  142.1320   81.0400  223.1600 C   0  0  0  0  0  0  0  0  0  0  0  0
  142.0270   80.9950  221.7920 C   0  0  0  0  0  0  0  0  0  0  0  0
  141.8040   79.8220  221.0860 C   0  0  0  0  0  0  0  0  0  0  0  0
  140.7300   76.3080  221.8710 C   0  0  0  0  0  0  0  0  0  0  0  0
  141.2440   74.9440  221.5920 C   0  0  0  0  0  0  0  0  0  0  0  0
  140.1510   74.2260  220.7860 C   0  0  0  0  0  0  0  0  0  0  0  0
  138.9690   74.0830  221.5970 N   0  0  0  0  0  0  0  0  0  0  0  0
  138.1980   72.9120  221.7350 C   0  0  0  0  0  0  0  0  0  0  0  0
  137.1470   72.9350  222.4740 O   0  0  0  0  0  0  0  0  0  0  0  0
  138.4870   71.6150  221.0910 C   0  0  2  0  0  0  0  0  0  0  0  0
  137.5170   70.6710  221.6930 N   0  0  0  0  0  0  0  0  0  0  0  0
  139.8550   71.0570  221.4670 C   0  0  0  0  0  0  0  0  0  0  0  0
  139.9760   70.9270  222.9520 C   0  0  0  0  0  0  0  0  0  0  0  0
  140.5000   71.9990  223.6790 C   0  0  0  0  0  0  0  0  0  0  0  0
  140.6050   71.8660  225.0360 C   0  0  0  0  0  0  0  0  0  0  0  0
  140.2110   70.7150  225.6870 C   0  0  0  0  0  0  0  0  0  0  0  0
  140.3500   70.5450  227.4370 Cl  0  0  0  0  0  0  0  0  0  0  0  0
  139.6880   69.6390  224.9750 C   0  0  0  0  0  0  0  0  0  0  0  0
  139.1870   68.1730  225.7980 Cl  0  0  0  0  0  0  0  0  0  0  0  0
  139.5800   69.7700  223.5970 C   0  0  0  0  0  0  0  0  0  0  0  0
  138.5620   75.2830  222.3430 C   0  0  0  0  0  0  0  0  0  0  0  0
  139.2310   76.4580  221.6630 C   0  0  0  0  0  0  0  0  0  0  0  0
  140.2693   75.5551  218.7881 H   0  0  0  0  0  0  0  0  0  0  0  0
  139.7310   76.5537  217.3954 H   0  0  0  0  0  0  0  0  0  0  0  0
  141.3718   75.8226  217.3954 H   0  0  0  0  0  0  0  0  0  0  0  0
  141.7882   78.0733  217.9957 H   0  0  0  0  0  0  0  0  0  0  0  0
  140.3126   78.1681  219.0220 H   0  0  0  0  0  0  0  0  0  0  0  0
  141.6916   77.7439  223.7461 H   0  0  0  0  0  0  0  0  0  0  0  0
  142.0901   79.8506  224.9832 H   0  0  0  0  0  0  0  0  0  0  0  0
  142.3087   81.9954  223.6758 H   0  0  0  0  0  0  0  0  0  0  0  0
  142.1244   81.9346  221.2284 H   0  0  0  0  0  0  0  0  0  0  0  0
  141.7253   79.8260  219.9888 H   0  0  0  0  0  0  0  0  0  0  0  0
  140.9244   76.4205  222.9478 H   0  0  0  0  0  0  0  0  0  0  0  0
  142.1737   75.0000  221.0067 H   0  0  0  0  0  0  0  0  0  0  0  0
  141.4720   74.4051  222.5235 H   0  0  0  0  0  0  0  0  0  0  0  0
  139.9106   74.8154  219.8889 H   0  0  0  0  0  0  0  0  0  0  0  0
  140.5116   73.2309  220.4865 H   0  0  0  0  0  0  0  0  0  0  0  0
  138.4401   71.7402  219.9992 H   0  0  0  0  0  0  0  0  0  0  0  0
  137.6030   70.8360  222.7320 H   0  0  0  0  0  0  0  0  0  0  0  0
  136.5810   71.0990  221.4440 H   0  0  0  0  0  0  0  0  0  0  0  0
  139.9817   70.0667  221.0052 H   0  0  0  0  0  0  0  0  0  0  0  0
  140.6326   71.7458  221.1050 H   0  0  0  0  0  0  0  0  0  0  0  0
  140.8188   72.9230  223.1745 H   0  0  0  0  0  0  0  0  0  0  0  0
  141.0149   72.6998  225.6249 H   0  0  0  0  0  0  0  0  0  0  0  0
  139.1712   68.9367  223.0067 H   0  0  0  0  0  0  0  0  0  0  0  0
  137.4684   75.3976  222.3114 H   0  0  0  0  0  0  0  0  0  0  0  0
  138.8574   75.2138  223.4003 H   0  0  0  0  0  0  0  0  0  0  0  0
  138.9979   76.4533  220.5880 H   0  0  0  0  0  0  0  0  0  0  0  0
  138.8725   77.4081  222.0857 H   0  0  0  0  0  0  0  0  0  0  0  0
  1  2  1  0
  2  3  1  0
  3  4  2  0
  3  5  1  0
  5  6  1  0
  6  7  2  0
  7  8  1  0
  8  9  2  0
  9 10  1  0
 10 11  2  0
  5 12  1  0
 12 13  1  0
 13 14  1  0
 14 15  1  0
 15 16  1  0
 16 17  2  0
 16 18  1  0
 18 19  1  0
 18 20  1  0
 20 21  1  0
 21 22  2  0
 22 23  1  0
 23 24  2  0
 24 25  1  0
 24 26  1  0
 26 27  1  0
 26 28  2  0
 15 29  1  0
 29 30  1  0
 11  6  1  0
 30 12  1  0
 28 21  1  0
  1 31  1  0
  1 32  1  0
  1 33  1  0
  2 34  1  0
  2 35  1  0
  7 36  1  0
  8 37  1  0
  9 38  1  0
 10 39  1  0
 11 40  1  0
 12 41  1  0
 13 42  1  0
 13 43  1  0
 14 44  1  0
 14 45  1  0
 18 46  1  6
 19 47  1  0
 19 48  1  0
 20 49  1  0
 20 50  1  0
 22 51  1  0
 23 52  1  0
 28 53  1  0
 29 54  1  0
 29 55  1  0
 30 56  1  0
 30 57  1  0
M  END
>  <smiles>  (21) 
CCC(=O)N(c1ccccc1)C1CCN(C(=O)[C@H](N)Cc2ccc(Cl)c(Cl)c2)CC1

>  <score_type>  (21) 
oracle

>  <origin>  (21) 
autodockgpu

>  <m_score__min__energy>  (21) 
-7.7000000000000002

>  <m_primary>  (21) 
energy

>  <rmsd>  (21) 
7.756637054226142

>  <m_score__min__rmsd>  (21) 
7.756637054226142

>  <meeko>  (21) 
{"free_energy": -6.54, "intermolecular_energy": -8.93, "internal_energy": -3.22, "cluster_size": 20, "cluster_id": 3, "rank_in_cluster": 17}

>  <energy>  (21) 
-6.36

>  <cluster_rmsd>  (21) 
1.13

>  <cluster>  (21) 
3

$$$$

     RDKit          3D

 57 59  0  0  0  0  0  0  0  0999 V2000
  137.9780   80.6570  224.1180 C   0  0  0  0  0  0  0  0  0  0  0  0
  137.3020   79.8230  223.0310 C   0  0  0  0  0  0  0  0  0  0  0  0
  138.1750   79.7650  221.8120 C   0  0  0  0  0  0  0  0  0  0  0  0
  137.7660   80.3990  220.8050 O   0  0  0  0  0  0  0  0  0  0  0  0
  139.3890   79.0260  221.8360 N   0  0  0  0  0  0  0  0  0  0  0  0
  140.5320   79.6130  222.4320 C   0  0  0  0  0  0  0  0  0  0  0  0
  141.0960   78.9380  223.5010 C   0  0  0  0  0  0  0  0  0  0  0  0
  142.2110   79.4020  224.1710 C   0  0  0  0  0  0  0  0  0  0  0  0
  142.7820   80.6010  223.7420 C   0  0  0  0  0  0  0  0  0  0  0  0
  142.2160   81.2640  222.6810 C   0  0  0  0  0  0  0  0  0  0  0  0
  141.0960   80.7990  222.0070 C   0  0  0  0  0  0  0  0  0  0  0  0
  139.3840   77.6980  221.2460 C   0  0  0  0  0  0  0  0  0  0  0  0
  139.0250   76.6000  222.1790 C   0  0  0  0  0  0  0  0  0  0  0  0
  140.2890   75.7420  222.3440 C   0  0  0  0  0  0  0  0  0  0  0  0
  140.6300   75.1390  221.0810 N   0  0  0  0  0  0  0  0  0  0  0  0
  140.9870   73.7920  220.8770 C   0  0  0  0  0  0  0  0  0  0  0  0
  141.2950   73.3940  219.6950 O   0  0  0  0  0  0  0  0  0  0  0  0
  141.0430   72.7530  221.9250 C   0  0  2  0  0  0  0  0  0  0  0  0
  141.6290   71.5710  221.2530 N   0  0  0  0  0  0  0  0  0  0  0  0
  139.6620   72.2940  222.3820 C   0  0  0  0  0  0  0  0  0  0  0  0
  139.7790   71.3960  223.5720 C   0  0  0  0  0  0  0  0  0  0  0  0
  139.3520   70.0700  223.4560 C   0  0  0  0  0  0  0  0  0  0  0  0
  139.4640   69.2590  224.5520 C   0  0  0  0  0  0  0  0  0  0  0  0
  139.9800   69.7190  225.7470 C   0  0  0  0  0  0  0  0  0  0  0  0
  140.1210   68.6720  227.1600 Cl  0  0  0  0  0  0  0  0  0  0  0  0
  140.4070   71.0360  225.8770 C   0  0  0  0  0  0  0  0  0  0  0  0
  141.0630   71.6260  227.3940 Cl  0  0  0  0  0  0  0  0  0  0  0  0
  140.2960   71.8630  224.7660 C   0  0  0  0  0  0  0  0  0  0  0  0
  140.5850   76.0360  219.9160 C   0  0  0  0  0  0  0  0  0  0  0  0
  140.6600   77.4470  220.4580 C   0  0  0  0  0  0  0  0  0  0  0  0
  137.6756   80.2839  225.1076 H   0  0  0  0  0  0  0  0  0  0  0  0
  139.0703   80.5782  224.0145 H   0  0  0  0  0  0  0  0  0  0  0  0
  137.6748   81.7093  224.0145 H   0  0  0  0  0  0  0  0  0  0  0  0
  137.1326   78.8031  223.4067 H   0  0  0  0  0  0  0  0  0  0  0  0
  136.3407   80.2868  222.7652 H   0  0  0  0  0  0  0  0  0  0  0  0
  140.6375   77.9938  223.8301 H   0  0  0  0  0  0  0  0  0  0  0  0
  142.6364   78.8431  225.0176 H   0  0  0  0  0  0  0  0  0  0  0  0
  143.6711   81.0083  224.2456 H   0  0  0  0  0  0  0  0  0  0  0  0
  142.6722   82.2085  222.3498 H   0  0  0  0  0  0  0  0  0  0  0  0
  140.6708   81.3580  221.1604 H   0  0  0  0  0  0  0  0  0  0  0  0
  138.5496   77.6850  220.5293 H   0  0  0  0  0  0  0  0  0  0  0  0
  138.7152   77.0122  223.1507 H   0  0  0  0  0  0  0  0  0  0  0  0
  138.1859   76.0042  221.7905 H   0  0  0  0  0  0  0  0  0  0  0  0
  141.1209   76.3766  222.6835 H   0  0  0  0  0  0  0  0  0  0  0  0
  140.1015   74.9532  223.0874 H   0  0  0  0  0  0  0  0  0  0  0  0
  141.5922   73.1499  222.7915 H   0  0  0  0  0  0  0  0  0  0  0  0
  140.9790   71.3820  220.4430 H   0  0  0  0  0  0  0  0  0  0  0  0
  142.4990   71.9630  220.7940 H   0  0  0  0  0  0  0  0  0  0  0  0
  139.0578   73.1734  222.6495 H   0  0  0  0  0  0  0  0  0  0  0  0
  139.1807   71.7400  221.5626 H   0  0  0  0  0  0  0  0  0  0  0  0
  138.9378   69.6896  222.5106 H   0  0  0  0  0  0  0  0  0  0  0  0
  139.1340   68.2122  224.4792 H   0  0  0  0  0  0  0  0  0  0  0  0
  140.6260   72.9099  224.8380 H   0  0  0  0  0  0  0  0  0  0  0  0
  141.4386   75.8384  219.2509 H   0  0  0  0  0  0  0  0  0  0  0  0
  139.6664   75.8826  219.3307 H   0  0  0  0  0  0  0  0  0  0  0  0
  141.5353   77.5513  221.1160 H   0  0  0  0  0  0  0  0  0  0  0  0
  140.7605   78.1738  219.6384 H   0  0  0  0  0  0  0  0  0  0  0  0
  1  2  1  0
  2  3  1  0
  3  4  2  0
  3  5  1  0
  5  6  1  0
  6  7  2  0
  7  8  1  0
  8  9  2  0
  9 10  1  0
 10 11  2  0
  5 12  1  0
 12 13  1  0
 13 14  1  0
 14 15  1  0
 15 16  1  0
 16 17  2  0
 16 18  1  0
 18 19  1  0
 18 20  1  0
 20 21  1  0
 21 22  2  0
 22 23  1  0
 23 24  2  0
 24 25  1  0
 24 26  1  0
 26 27  1  0
 26 28  2  0
 15 29  1  0
 29 30  1  0
 11  6  1  0
 30 12  1  0
 28 21  1  0
  1 31  1  0
  1 32  1  0
  1 33  1  0
  2 34  1  0
  2 35  1  0
  7 36  1  0
  8 37  1  0
  9 38  1  0
 10 39  1  0
 11 40  1  0
 12 41  1  0
 13 42  1  0
 13 43  1  0
 14 44  1  0
 14 45  1  0
 18 46  1  1
 19 47  1  0
 19 48  1  0
 20 49  1  0
 20 50  1  0
 22 51  1  0
 23 52  1  0
 28 53  1  0
 29 54  1  0
 29 55  1  0
 30 56  1  0
 30 57  1  0
M  END
>  <smiles>  (22) 
CCC(=O)N(c1ccccc1)C1CCN(C(=O)[C@H](N)Cc2ccc(Cl)c(Cl)c2)CC1

>  <score_type>  (22) 
oracle

>  <origin>  (22) 
autodockgpu

>  <m_score__min__energy>  (22) 
-7.7000000000000002

>  <m_primary>  (22) 
energy

>  <rmsd>  (22) 
8.209042459618082

>  <m_score__min__rmsd>  (22) 
8.209042459618082

>  <meeko>  (22) 
{"free_energy": -7.02, "intermolecular_energy": -9.41, "internal_energy": -2.96, "cluster_size": 10, "cluster_id": 7, "rank_in_cluster": 2}

>  <energy>  (22) 
-6.35

>  <cluster_rmsd>  (22) 
1.39

>  <cluster>  (22) 
3

$$$$

     RDKit          3D

 57 59  0  0  0  0  0  0  0  0999 V2000
  143.6430   74.8860  220.0830 C   0  0  0  0  0  0  0  0  0  0  0  0
  143.6860   76.3690  219.7190 C   0  0  0  0  0  0  0  0  0  0  0  0
  142.2950   76.8810  219.4890 C   0  0  0  0  0  0  0  0  0  0  0  0
  142.0260   77.2490  218.3160 O   0  0  0  0  0  0  0  0  0  0  0  0
  141.3640   76.9300  220.5620 N   0  0  0  0  0  0  0  0  0  0  0  0
  141.4470   77.9980  221.4880 C   0  0  0  0  0  0  0  0  0  0  0  0
  141.8190   79.2330  220.9860 C   0  0  0  0  0  0  0  0  0  0  0  0
  141.9390   80.3570  221.7790 C   0  0  0  0  0  0  0  0  0  0  0  0
  141.6710   80.2270  223.1430 C   0  0  0  0  0  0  0  0  0  0  0  0
  141.3020   78.9980  223.6330 C   0  0  0  0  0  0  0  0  0  0  0  0
  141.1820   77.8690  222.8370 C   0  0  0  0  0  0  0  0  0  0  0  0
  140.3710   75.8720  220.6430 C   0  0  0  0  0  0  0  0  0  0  0  0
  140.3020   75.1780  221.9540 C   0  0  0  0  0  0  0  0  0  0  0  0
  140.7750   73.7370  221.7070 C   0  0  0  0  0  0  0  0  0  0  0  0
  139.8540   73.0740  220.8190 N   0  0  0  0  0  0  0  0  0  0  0  0
  139.3260   71.7790  220.9920 C   0  0  0  0  0  0  0  0  0  0  0  0
  138.5320   71.2990  220.1030 O   0  0  0  0  0  0  0  0  0  0  0  0
  139.6050   70.8870  222.1350 C   0  0  2  0  0  0  0  0  0  0  0  0
  139.1980   69.5400  221.6700 N   0  0  0  0  0  0  0  0  0  0  0  0
  138.7120   71.1660  223.3400 C   0  0  0  0  0  0  0  0  0  0  0  0
  139.2750   70.5230  224.5670 C   0  0  0  0  0  0  0  0  0  0  0  0
  139.2190   69.1310  224.6800 C   0  0  0  0  0  0  0  0  0  0  0  0
  139.7360   68.5560  225.8070 C   0  0  0  0  0  0  0  0  0  0  0  0
  140.3020   69.3100  226.8160 C   0  0  0  0  0  0  0  0  0  0  0  0
  140.9670   68.5660  228.2700 Cl  0  0  0  0  0  0  0  0  0  0  0  0
  140.3640   70.6970  226.7160 C   0  0  0  0  0  0  0  0  0  0  0  0
  141.0810   71.6610  227.9950 Cl  0  0  0  0  0  0  0  0  0  0  0  0
  139.8390   71.2850  225.5720 C   0  0  0  0  0  0  0  0  0  0  0  0
  139.4400   73.8480  219.6390 C   0  0  0  0  0  0  0  0  0  0  0  0
  140.4790   74.9330  219.4520 C   0  0  0  0  0  0  0  0  0  0  0  0
  143.6398   74.7771  221.1776 H   0  0  0  0  0  0  0  0  0  0  0  0
  142.7313   74.4326  219.6668 H   0  0  0  0  0  0  0  0  0  0  0  0
  144.5269   74.3805  219.6668 H   0  0  0  0  0  0  0  0  0  0  0  0
  144.1504   76.9327  220.5415 H   0  0  0  0  0  0  0  0  0  0  0  0
  144.2752   76.4982  218.7991 H   0  0  0  0  0  0  0  0  0  0  0  0
  142.0279   79.3229  219.9098 H   0  0  0  0  0  0  0  0  0  0  0  0
  142.2365   81.3249  221.3494 H   0  0  0  0  0  0  0  0  0  0  0  0
  141.7540   81.0945  223.8142 H   0  0  0  0  0  0  0  0  0  0  0  0
  141.0916   78.9049  224.7087 H   0  0  0  0  0  0  0  0  0  0  0  0
  140.8850   76.9009  223.2667 H   0  0  0  0  0  0  0  0  0  0  0  0
  139.3903   76.3665  220.5823 H   0  0  0  0  0  0  0  0  0  0  0  0
  140.9596   75.6747  222.6826 H   0  0  0  0  0  0  0  0  0  0  0  0
  139.2810   75.1982  222.3628 H   0  0  0  0  0  0  0  0  0  0  0  0
  141.7762   73.7528  221.2516 H   0  0  0  0  0  0  0  0  0  0  0  0
  140.8155   73.1956  222.6637 H   0  0  0  0  0  0  0  0  0  0  0  0
  140.6566   71.0092  222.4338 H   0  0  0  0  0  0  0  0  0  0  0  0
  138.1620   69.6290  221.4890 H   0  0  0  0  0  0  0  0  0  0  0  0
  139.6210   69.4840  220.7010 H   0  0  0  0  0  0  0  0  0  0  0  0
  138.6460   72.2526  223.4982 H   0  0  0  0  0  0  0  0  0  0  0  0
  137.7121   70.7503  223.1465 H   0  0  0  0  0  0  0  0  0  0  0  0
  138.7718   68.5161  223.8850 H   0  0  0  0  0  0  0  0  0  0  0  0
  139.7002   67.4617  225.9133 H   0  0  0  0  0  0  0  0  0  0  0  0
  139.8731   72.3792  225.4642 H   0  0  0  0  0  0  0  0  0  0  0  0
  139.4043   73.1987  218.7518 H   0  0  0  0  0  0  0  0  0  0  0  0
  138.4364   74.2770  219.7761 H   0  0  0  0  0  0  0  0  0  0  0  0
  141.4845   74.4887  219.4128 H   0  0  0  0  0  0  0  0  0  0  0  0
  140.3097   75.4765  218.5108 H   0  0  0  0  0  0  0  0  0  0  0  0
  1  2  1  0
  2  3  1  0
  3  4  2  0
  3  5  1  0
  5  6  1  0
  6  7  2  0
  7  8  1  0
  8  9  2  0
  9 10  1  0
 10 11  2  0
  5 12  1  0
 12 13  1  0
 13 14  1  0
 14 15  1  0
 15 16  1  0
 16 17  2  0
 16 18  1  0
 18 19  1  0
 18 20  1  0
 20 21  1  0
 21 22  2  0
 22 23  1  0
 23 24  2  0
 24 25  1  0
 24 26  1  0
 26 27  1  0
 26 28  2  0
 15 29  1  0
 29 30  1  0
 11  6  1  0
 30 12  1  0
 28 21  1  0
  1 31  1  0
  1 32  1  0
  1 33  1  0
  2 34  1  0
  2 35  1  0
  7 36  1  0
  8 37  1  0
  9 38  1  0
 10 39  1  0
 11 40  1  0
 12 41  1  0
 13 42  1  0
 13 43  1  0
 14 44  1  0
 14 45  1  0
 18 46  1  1
 19 47  1  0
 19 48  1  0
 20 49  1  0
 20 50  1  0
 22 51  1  0
 23 52  1  0
 28 53  1  0
 29 54  1  0
 29 55  1  0
 30 56  1  0
 30 57  1  0
M  END
>  <smiles>  (23) 
CCC(=O)N(c1ccccc1)C1CCN(C(=O)[C@H](N)Cc2ccc(Cl)c(Cl)c2)CC1

>  <score_type>  (23) 
oracle

>  <origin>  (23) 
autodockgpu

>  <m_score__min__energy>  (23) 
-7.7000000000000002

>  <m_primary>  (23) 
energy

>  <rmsd>  (23) 
8.984843581111036

>  <m_score__min__rmsd>  (23) 
8.984843581111036

>  <meeko>  (23) 
{"free_energy": -7.33, "intermolecular_energy": -9.71, "internal_energy": -2.67, "cluster_size": 20, "cluster_id": 3, "rank_in_cluster": 2}

>  <energy>  (23) 
-7.49

>  <cluster_rmsd>  (23) 
0.0

>  <cluster>  (23) 
4

$$$$

     RDKit          3D

 57 59  0  0  0  0  0  0  0  0999 V2000
  136.8450   76.9170  222.7270 C   0  0  0  0  0  0  0  0  0  0  0  0
  138.1270   77.7420  222.6200 C   0  0  0  0  0  0  0  0  0  0  0  0
  139.2960   76.8400  222.3580 C   0  0  0  0  0  0  0  0  0  0  0  0
  139.1890   75.6570  222.7750 O   0  0  0  0  0  0  0  0  0  0  0  0
  140.4400   77.3320  221.6720 N   0  0  0  0  0  0  0  0  0  0  0  0
  141.0080   78.5610  222.0890 C   0  0  0  0  0  0  0  0  0  0  0  0
  141.6400   78.5710  223.3200 C   0  0  0  0  0  0  0  0  0  0  0  0
  142.2340   79.7020  223.8440 C   0  0  0  0  0  0  0  0  0  0  0  0
  142.1860   80.8760  223.0900 C   0  0  0  0  0  0  0  0  0  0  0  0
  141.5570   80.8570  221.8700 C   0  0  0  0  0  0  0  0  0  0  0  0
  140.9600   79.7210  221.3420 C   0  0  0  0  0  0  0  0  0  0  0  0
  140.9650   76.5350  220.5760 C   0  0  0  0  0  0  0  0  0  0  0  0
  141.1710   75.0990  220.8900 C   0  0  0  0  0  0  0  0  0  0  0  0
  142.6880   74.8590  220.8470 C   0  0  0  0  0  0  0  0  0  0  0  0
  143.1730   75.0810  219.5090 N   0  0  0  0  0  0  0  0  0  0  0  0
  144.0580   74.2440  218.8000 C   0  0  0  0  0  0  0  0  0  0  0  0
  144.4300   74.5800  217.6170 O   0  0  0  0  0  0  0  0  0  0  0  0
  144.6200   72.9740  219.3000 C   0  0  2  0  0  0  0  0  0  0  0  0
  145.8720   72.7870  218.5320 N   0  0  0  0  0  0  0  0  0  0  0  0
  143.7630   71.7630  218.9440 C   0  0  0  0  0  0  0  0  0  0  0  0
  142.3930   71.9050  219.5260 C   0  0  0  0  0  0  0  0  0  0  0  0
  141.3320   72.2260  218.6740 C   0  0  0  0  0  0  0  0  0  0  0  0
  140.0840   72.3530  219.2200 C   0  0  0  0  0  0  0  0  0  0  0  0
  139.8590   72.1730  220.5700 C   0  0  0  0  0  0  0  0  0  0  0  0
  138.2490   72.3390  221.2720 Cl  0  0  0  0  0  0  0  0  0  0  0  0
  140.9060   71.8530  221.4290 C   0  0  0  0  0  0  0  0  0  0  0  0
  140.6250   71.6240  223.1450 Cl  0  0  0  0  0  0  0  0  0  0  0  0
  142.1750   71.7230  220.8790 C   0  0  0  0  0  0  0  0  0  0  0  0
  142.6740   76.2960  218.8450 C   0  0  0  0  0  0  0  0  0  0  0  0
  142.1730   77.2090  219.9430 C   0  0  0  0  0  0  0  0  0  0  0  0
  136.5985   76.7584  223.7872 H   0  0  0  0  0  0  0  0  0  0  0  0
  136.0208   77.4547  222.2354 H   0  0  0  0  0  0  0  0  0  0  0  0
  136.9929   75.9441  222.2354 H   0  0  0  0  0  0  0  0  0  0  0  0
  138.0295   78.4615  221.7937 H   0  0  0  0  0  0  0  0  0  0  0  0
  138.2905   78.2802  223.5653 H   0  0  0  0  0  0  0  0  0  0  0  0
  141.6704   77.6399  223.9050 H   0  0  0  0  0  0  0  0  0  0  0  0
  142.7299   79.6787  224.8256 H   0  0  0  0  0  0  0  0  0  0  0  0
  142.6450   81.8016  223.4676 H   0  0  0  0  0  0  0  0  0  0  0  0
  141.5247   81.7867  221.2829 H   0  0  0  0  0  0  0  0  0  0  0  0
  140.4646   79.7440  220.3601 H   0  0  0  0  0  0  0  0  0  0  0  0
  140.1724   76.5017  219.8140 H   0  0  0  0  0  0  0  0  0  0  0  0
  140.7775   74.8682  221.8909 H   0  0  0  0  0  0  0  0  0  0  0  0
  140.6446   74.4540  220.1710 H   0  0  0  0  0  0  0  0  0  0  0  0
  143.1885   75.5532  221.5380 H   0  0  0  0  0  0  0  0  0  0  0  0
  142.9033   73.8229  221.1471 H   0  0  0  0  0  0  0  0  0  0  0  0
  144.7172   73.0338  220.3941 H   0  0  0  0  0  0  0  0  0  0  0  0
  145.5490   72.6460  217.5370 H   0  0  0  0  0  0  0  0  0  0  0  0
  146.2960   73.7580  218.5260 H   0  0  0  0  0  0  0  0  0  0  0  0
  143.6854   71.6829  217.8497 H   0  0  0  0  0  0  0  0  0  0  0  0
  144.2341   70.8587  219.3566 H   0  0  0  0  0  0  0  0  0  0  0  0
  141.4959   72.3722  217.5961 H   0  0  0  0  0  0  0  0  0  0  0  0
  139.2368   72.6054  218.5654 H   0  0  0  0  0  0  0  0  0  0  0  0
  143.0228   71.4703  221.5327 H   0  0  0  0  0  0  0  0  0  0  0  0
  143.4855   76.7841  218.2853 H   0  0  0  0  0  0  0  0  0  0  0  0
  141.8739   76.0584  218.1284 H   0  0  0  0  0  0  0  0  0  0  0  0
  142.9597   77.3572  220.6975 H   0  0  0  0  0  0  0  0  0  0  0  0
  141.9006   78.1941  219.5362 H   0  0  0  0  0  0  0  0  0  0  0  0
  1  2  1  0
  2  3  1  0
  3  4  2  0
  3  5  1  0
  5  6  1  0
  6  7  2  0
  7  8  1  0
  8  9  2  0
  9 10  1  0
 10 11  2  0
  5 12  1  0
 12 13  1  0
 13 14  1  0
 14 15  1  0
 15 16  1  0
 16 17  2  0
 16 18  1  0
 18 19  1  0
 18 20  1  0
 20 21  1  0
 21 22  2  0
 22 23  1  0
 23 24  2  0
 24 25  1  0
 24 26  1  0
 26 27  1  0
 26 28  2  0
 15 29  1  0
 29 30  1  0
 11  6  1  0
 30 12  1  0
 28 21  1  0
  1 31  1  0
  1 32  1  0
  1 33  1  0
  2 34  1  0
  2 35  1  0
  7 36  1  0
  8 37  1  0
  9 38  1  0
 10 39  1  0
 11 40  1  0
 12 41  1  0
 13 42  1  0
 13 43  1  0
 14 44  1  0
 14 45  1  0
 18 46  1  1
 19 47  1  0
 19 48  1  0
 20 49  1  0
 20 50  1  0
 22 51  1  0
 23 52  1  0
 28 53  1  0
 29 54  1  0
 29 55  1  0
 30 56  1  0
 30 57  1  0
M  END
>  <smiles>  (24) 
CCC(=O)N(c1ccccc1)C1CCN(C(=O)[C@H](N)Cc2ccc(Cl)c(Cl)c2)CC1

>  <score_type>  (24) 
oracle

>  <origin>  (24) 
autodockgpu

>  <m_score__min__energy>  (24) 
-7.7000000000000002

>  <m_primary>  (24) 
energy

>  <rmsd>  (24) 
7.210684784290623

>  <m_score__min__rmsd>  (24) 
7.210684784290623

>  <meeko>  (24) 
{"free_energy": -6.17, "intermolecular_energy": -8.56, "internal_energy": -3.57, "cluster_size": 5, "cluster_id": 12, "rank_in_cluster": 1}

>  <energy>  (24) 
-7.11

>  <cluster_rmsd>  (24) 
1.4

>  <cluster>  (24) 
4

$$$$

     RDKit          3D

 57 59  0  0  0  0  0  0  0  0999 V2000
  143.3470   75.8310  219.6530 C   0  0  0  0  0  0  0  0  0  0  0  0
  142.6950   77.1430  219.2190 C   0  0  0  0  0  0  0  0  0  0  0  0
  141.2970   77.2230  219.7550 C   0  0  0  0  0  0  0  0  0  0  0  0
  140.3710   77.0750  218.9160 O   0  0  0  0  0  0  0  0  0  0  0  0
  141.0740   77.4520  221.1410 N   0  0  0  0  0  0  0  0  0  0  0  0
  141.5370   78.6620  221.7140 C   0  0  0  0  0  0  0  0  0  0  0  0
  141.7860   78.6530  223.0750 C   0  0  0  0  0  0  0  0  0  0  0  0
  142.2400   79.7640  223.7580 C   0  0  0  0  0  0  0  0  0  0  0  0
  142.4530   80.9370  223.0320 C   0  0  0  0  0  0  0  0  0  0  0  0
  142.2040   80.9370  221.6820 C   0  0  0  0  0  0  0  0  0  0  0  0
  141.7470   79.8220  220.9950 C   0  0  0  0  0  0  0  0  0  0  0  0
  140.3750   76.4230  221.8920 C   0  0  0  0  0  0  0  0  0  0  0  0
  140.9970   75.0770  221.8360 C   0  0  0  0  0  0  0  0  0  0  0  0
  140.0160   74.1780  221.0690 C   0  0  0  0  0  0  0  0  0  0  0  0
  138.7900   74.0550  221.8150 N   0  0  0  0  0  0  0  0  0  0  0  0
  138.0890   72.8580  222.0630 C   0  0  0  0  0  0  0  0  0  0  0  0
  136.9880   72.8990  222.7240 O   0  0  0  0  0  0  0  0  0  0  0  0
  138.5100   71.5130  221.6230 C   0  0  2  0  0  0  0  0  0  0  0  0
  137.6530   70.5800  222.3910 N   0  0  0  0  0  0  0  0  0  0  0  0
  139.9340   71.1670  222.0460 C   0  0  0  0  0  0  0  0  0  0  0  0
  139.9460   70.6190  223.4380 C   0  0  0  0  0  0  0  0  0  0  0  0
  139.5820   69.2850  223.6370 C   0  0  0  0  0  0  0  0  0  0  0  0
  139.5960   68.7970  224.9140 C   0  0  0  0  0  0  0  0  0  0  0  0
  139.9580   69.5840  225.9900 C   0  0  0  0  0  0  0  0  0  0  0  0
  139.9750   68.9530  227.6370 Cl  0  0  0  0  0  0  0  0  0  0  0  0
  140.3220   70.9140  225.8060 C   0  0  0  0  0  0  0  0  0  0  0  0
  140.7810   71.9190  227.1690 Cl  0  0  0  0  0  0  0  0  0  0  0  0
  140.3080   71.4140  224.5100 C   0  0  0  0  0  0  0  0  0  0  0  0
  138.2510   75.3100  222.3620 C   0  0  0  0  0  0  0  0  0  0  0  0
  138.8880   76.4310  221.5700 C   0  0  0  0  0  0  0  0  0  0  0  0
  143.3724   75.7800  220.7515 H   0  0  0  0  0  0  0  0  0  0  0  0
  142.7647   74.9846  219.2600 H   0  0  0  0  0  0  0  0  0  0  0  0
  144.3733   75.7840  219.2600 H   0  0  0  0  0  0  0  0  0  0  0  0
  143.2829   77.9878  219.6073 H   0  0  0  0  0  0  0  0  0  0  0  0
  142.6633   77.1842  218.1202 H   0  0  0  0  0  0  0  0  0  0  0  0
  141.6152   77.7224  223.6361 H   0  0  0  0  0  0  0  0  0  0  0  0
  142.4281   79.7258  224.8411 H   0  0  0  0  0  0  0  0  0  0  0  0
  142.8146   81.8468  223.5336 H   0  0  0  0  0  0  0  0  0  0  0  0
  142.3751   81.8658  221.1180 H   0  0  0  0  0  0  0  0  0  0  0  0
  141.5579   79.8606  219.9121 H   0  0  0  0  0  0  0  0  0  0  0  0
  140.4818   76.6913  222.9534 H   0  0  0  0  0  0  0  0  0  0  0  0
  141.9611   75.1250  221.3086 H   0  0  0  0  0  0  0  0  0  0  0  0
  141.1916   74.6852  222.8453 H   0  0  0  0  0  0  0  0  0  0  0  0
  139.8034   74.6232  220.0859 H   0  0  0  0  0  0  0  0  0  0  0  0
  140.4627   73.1820  220.9330 H   0  0  0  0  0  0  0  0  0  0  0  0
  138.4398   71.4585  220.5266 H   0  0  0  0  0  0  0  0  0  0  0  0
  137.6900   70.9460  223.3800 H   0  0  0  0  0  0  0  0  0  0  0  0
  136.6760   70.8300  222.0650 H   0  0  0  0  0  0  0  0  0  0  0  0
  140.3441   70.4143  221.3566 H   0  0  0  0  0  0  0  0  0  0  0  0
  140.5467   72.0801  222.0167 H   0  0  0  0  0  0  0  0  0  0  0  0
  139.2923   68.6454  222.7902 H   0  0  0  0  0  0  0  0  0  0  0  0
  139.3112   67.7491  225.0894 H   0  0  0  0  0  0  0  0  0  0  0  0
  140.5903   72.4624  224.3331 H   0  0  0  0  0  0  0  0  0  0  0  0
  137.1574   75.3365  222.2464 H   0  0  0  0  0  0  0  0  0  0  0  0
  138.4730   75.4045  223.4352 H   0  0  0  0  0  0  0  0  0  0  0  0
  138.7349   76.2656  220.4933 H   0  0  0  0  0  0  0  0  0  0  0  0
  138.4373   77.3993  221.8333 H   0  0  0  0  0  0  0  0  0  0  0  0
  1  2  1  0
  2  3  1  0
  3  4  2  0
  3  5  1  0
  5  6  1  0
  6  7  2  0
  7  8  1  0
  8  9  2  0
  9 10  1  0
 10 11  2  0
  5 12  1  0
 12 13  1  0
 13 14  1  0
 14 15  1  0
 15 16  1  0
 16 17  2  0
 16 18  1  0
 18 19  1  0
 18 20  1  0
 20 21  1  0
 21 22  2  0
 22 23  1  0
 23 24  2  0
 24 25  1  0
 24 26  1  0
 26 27  1  0
 26 28  2  0
 15 29  1  0
 29 30  1  0
 11  6  1  0
 30 12  1  0
 28 21  1  0
  1 31  1  0
  1 32  1  0
  1 33  1  0
  2 34  1  0
  2 35  1  0
  7 36  1  0
  8 37  1  0
  9 38  1  0
 10 39  1  0
 11 40  1  0
 12 41  1  0
 13 42  1  0
 13 43  1  0
 14 44  1  0
 14 45  1  0
 18 46  1  6
 19 47  1  0
 19 48  1  0
 20 49  1  0
 20 50  1  0
 22 51  1  0
 23 52  1  0
 28 53  1  0
 29 54  1  0
 29 55  1  0
 30 56  1  0
 30 57  1  0
M  END
>  <smiles>  (25) 
CCC(=O)N(c1ccccc1)C1CCN(C(=O)[C@H](N)Cc2ccc(Cl)c(Cl)c2)CC1

>  <score_type>  (25) 
oracle

>  <origin>  (25) 
autodockgpu

>  <m_score__min__energy>  (25) 
-7.7000000000000002

>  <m_primary>  (25) 
energy

>  <rmsd>  (25) 
8.679010939198202

>  <m_score__min__rmsd>  (25) 
8.679010939198202

>  <meeko>  (25) 
{"free_energy": -7.17, "intermolecular_energy": -9.55, "internal_energy": -2.74, "cluster_size": 20, "cluster_id": 3, "rank_in_cluster": 7}

>  <energy>  (25) 
-7.15

>  <cluster_rmsd>  (25) 
0.0

>  <cluster>  (25) 
5

$$$$

     RDKit          3D

 57 59  0  0  0  0  0  0  0  0999 V2000
  138.1020   80.8490  224.0950 C   0  0  0  0  0  0  0  0  0  0  0  0
  137.4320   79.8850  223.1170 C   0  0  0  0  0  0  0  0  0  0  0  0
  138.2530   79.7720  221.8660 C   0  0  0  0  0  0  0  0  0  0  0  0
  137.8380   80.4190  220.8690 O   0  0  0  0  0  0  0  0  0  0  0  0
  139.4270   78.9710  221.8510 N   0  0  0  0  0  0  0  0  0  0  0  0
  140.6270   79.5130  222.3730 C   0  0  0  0  0  0  0  0  0  0  0  0
  141.0480   79.0330  223.6010 C   0  0  0  0  0  0  0  0  0  0  0  0
  142.1990   79.4770  224.2220 C   0  0  0  0  0  0  0  0  0  0  0  0
  142.9600   80.4500  223.5710 C   0  0  0  0  0  0  0  0  0  0  0  0
  142.5360   80.9210  222.3530 C   0  0  0  0  0  0  0  0  0  0  0  0
  141.3790   80.4750  221.7290 C   0  0  0  0  0  0  0  0  0  0  0  0
  139.3240   77.6300  221.3000 C   0  0  0  0  0  0  0  0  0  0  0  0
  139.0440   76.5650  222.2950 C   0  0  0  0  0  0  0  0  0  0  0  0
  140.2970   75.6770  222.3430 C   0  0  0  0  0  0  0  0  0  0  0  0
  140.4820   75.0360  221.0670 N   0  0  0  0  0  0  0  0  0  0  0  0
  140.7800   73.6750  220.8600 C   0  0  0  0  0  0  0  0  0  0  0  0
  140.9460   73.2410  219.6620 O   0  0  0  0  0  0  0  0  0  0  0  0
  140.9260   72.6600  221.9220 C   0  0  2  0  0  0  0  0  0  0  0  0
  141.6300   71.5310  221.2720 N   0  0  0  0  0  0  0  0  0  0  0  0
  139.5920   72.0750  222.3740 C   0  0  0  0  0  0  0  0  0  0  0  0
  139.7700   71.2760  223.6260 C   0  0  0  0  0  0  0  0  0  0  0  0
  139.3990   69.9290  223.6200 C   0  0  0  0  0  0  0  0  0  0  0  0
  139.5650   69.2100  224.7710 C   0  0  0  0  0  0  0  0  0  0  0  0
  140.0830   69.7810  225.9170 C   0  0  0  0  0  0  0  0  0  0  0  0
  140.2960   68.8530  227.4020 Cl  0  0  0  0  0  0  0  0  0  0  0  0
  140.4560   71.1220  225.9370 C   0  0  0  0  0  0  0  0  0  0  0  0
  141.1140   71.8530  227.3900 Cl  0  0  0  0  0  0  0  0  0  0  0  0
  140.2880   71.8550  224.7690 C   0  0  0  0  0  0  0  0  0  0  0  0
  140.3300   75.9070  219.8900 C   0  0  0  0  0  0  0  0  0  0  0  0
  140.4990   77.3270  220.3840 C   0  0  0  0  0  0  0  0  0  0  0  0
  137.8839   80.5352  225.1265 H   0  0  0  0  0  0  0  0  0  0  0  0
  139.1897   80.8403  223.9313 H   0  0  0  0  0  0  0  0  0  0  0  0
  137.7147   81.8655  223.9313 H   0  0  0  0  0  0  0  0  0  0  0  0
  137.3432   78.8937  223.5855 H   0  0  0  0  0  0  0  0  0  0  0  0
  136.4327   80.2666  222.8605 H   0  0  0  0  0  0  0  0  0  0  0  0
  140.4405   78.2658  224.1034 H   0  0  0  0  0  0  0  0  0  0  0  0
  142.5067   79.0765  225.1992 H   0  0  0  0  0  0  0  0  0  0  0  0
  143.8848   80.8332  224.0269 H   0  0  0  0  0  0  0  0  0  0  0  0
  143.1416   81.6879  221.8479 H   0  0  0  0  0  0  0  0  0  0  0  0
  141.0710   80.8756  220.7519 H   0  0  0  0  0  0  0  0  0  0  0  0
  138.4154   77.6220  220.6800 H   0  0  0  0  0  0  0  0  0  0  0  0
  138.8536   77.0083  223.2836 H   0  0  0  0  0  0  0  0  0  0  0  0
  138.1529   75.9832  222.0167 H   0  0  0  0  0  0  0  0  0  0  0  0
  141.1765   76.2964  222.5728 H   0  0  0  0  0  0  0  0  0  0  0  0
  140.1732   74.9111  223.1228 H   0  0  0  0  0  0  0  0  0  0  0  0
  141.4259   73.1201  222.7871 H   0  0  0  0  0  0  0  0  0  0  0  0
  140.9670   71.2120  220.5150 H   0  0  0  0  0  0  0  0  0  0  0  0
  142.4110   72.0110  220.7400 H   0  0  0  0  0  0  0  0  0  0  0  0
  138.8830   72.8942  222.5646 H   0  0  0  0  0  0  0  0  0  0  0  0
  139.2049   71.4163  221.5826 H   0  0  0  0  0  0  0  0  0  0  0  0
  138.9851   69.4603  222.7150 H   0  0  0  0  0  0  0  0  0  0  0  0
  139.2783   68.1481  224.7847 H   0  0  0  0  0  0  0  0  0  0  0  0
  140.5729   72.9174  224.7536 H   0  0  0  0  0  0  0  0  0  0  0  0
  141.0996   75.6710  219.1403 H   0  0  0  0  0  0  0  0  0  0  0  0
  139.3489   75.7650  219.4132 H   0  0  0  0  0  0  0  0  0  0  0  0
  141.4437   77.4224  220.9395 H   0  0  0  0  0  0  0  0  0  0  0  0
  140.5268   78.0321  219.5402 H   0  0  0  0  0  0  0  0  0  0  0  0
  1  2  1  0
  2  3  1  0
  3  4  2  0
  3  5  1  0
  5  6  1  0
  6  7  2  0
  7  8  1  0
  8  9  2  0
  9 10  1  0
 10 11  2  0
  5 12  1  0
 12 13  1  0
 13 14  1  0
 14 15  1  0
 15 16  1  0
 16 17  2  0
 16 18  1  0
 18 19  1  0
 18 20  1  0
 20 21  1  0
 21 22  2  0
 22 23  1  0
 23 24  2  0
 24 25  1  0
 24 26  1  0
 26 27  1  0
 26 28  2  0
 15 29  1  0
 29 30  1  0
 11  6  1  0
 30 12  1  0
 28 21  1  0
  1 31  1  0
  1 32  1  0
  1 33  1  0
  2 34  1  0
  2 35  1  0
  7 36  1  0
  8 37  1  0
  9 38  1  0
 10 39  1  0
 11 40  1  0
 12 41  1  0
 13 42  1  0
 13 43  1  0
 14 44  1  0
 14 45  1  0
 18 46  1  1
 19 47  1  0
 19 48  1  0
 20 49  1  0
 20 50  1  0
 22 51  1  0
 23 52  1  0
 28 53  1  0
 29 54  1  0
 29 55  1  0
 30 56  1  0
 30 57  1  0
M  END
>  <smiles>  (26) 
CCC(=O)N(c1ccccc1)C1CCN(C(=O)[C@H](N)Cc2ccc(Cl)c(Cl)c2)CC1

>  <score_type>  (26) 
oracle

>  <origin>  (26) 
autodockgpu

>  <m_score__min__energy>  (26) 
-7.7000000000000002

>  <m_primary>  (26) 
energy

>  <rmsd>  (26) 
8.290030510249506

>  <m_score__min__rmsd>  (26) 
8.290030510249506

>  <meeko>  (26) 
{"free_energy": -7.03, "intermolecular_energy": -9.42, "internal_energy": -2.93, "cluster_size": 10, "cluster_id": 7, "rank_in_cluster": 1}

>  <energy>  (26) 
-6.85

>  <cluster_rmsd>  (26) 
0.19

>  <cluster>  (26) 
5

$$$$

     RDKit          3D

 57 59  0  0  0  0  0  0  0  0999 V2000
  142.1420   79.9500  218.9910 C   0  0  0  0  0  0  0  0  0  0  0  0
  141.9230   78.5090  218.5330 C   0  0  0  0  0  0  0  0  0  0  0  0
  142.1960   77.5630  219.6650 C   0  0  0  0  0  0  0  0  0  0  0  0
  143.2800   76.9260  219.6060 O   0  0  0  0  0  0  0  0  0  0  0  0
  141.2590   77.4270  220.7250 N   0  0  0  0  0  0  0  0  0  0  0  0
  141.2510   78.4000  221.7550 C   0  0  0  0  0  0  0  0  0  0  0  0
  140.0170   78.7420  222.2810 C   0  0  0  0  0  0  0  0  0  0  0  0
  139.8670   79.6760  223.2870 C   0  0  0  0  0  0  0  0  0  0  0  0
  141.0170   80.2920  223.7850 C   0  0  0  0  0  0  0  0  0  0  0  0
  142.2370   79.9460  223.2580 C   0  0  0  0  0  0  0  0  0  0  0  0
  142.3880   79.0080  222.2470 C   0  0  0  0  0  0  0  0  0  0  0  0
  140.3560   76.2890  220.6870 C   0  0  0  0  0  0  0  0  0  0  0  0
  140.2260   75.5510  221.9690 C   0  0  0  0  0  0  0  0  0  0  0  0
  140.8400   74.1630  221.7330 C   0  0  0  0  0  0  0  0  0  0  0  0
  140.0650   73.4540  220.7480 N   0  0  0  0  0  0  0  0  0  0  0  0
  139.6350   72.1150  220.8400 C   0  0  0  0  0  0  0  0  0  0  0  0
  138.9690   71.6000  219.8690 O   0  0  0  0  0  0  0  0  0  0  0  0
  139.8820   71.2130  221.9820 C   0  0  2  0  0  0  0  0  0  0  0  0
  139.6190   69.8550  221.4540 N   0  0  0  0  0  0  0  0  0  0  0  0
  138.8720   71.3920  223.1100 C   0  0  0  0  0  0  0  0  0  0  0  0
  139.3640   70.7350  224.3600 C   0  0  0  0  0  0  0  0  0  0  0  0
  139.2550   69.3460  224.4760 C   0  0  0  0  0  0  0  0  0  0  0  0
  139.7090   68.7580  225.6240 C   0  0  0  0  0  0  0  0  0  0  0  0
  140.2610   69.4980  226.6510 C   0  0  0  0  0  0  0  0  0  0  0  0
  140.8440   68.7380  228.1320 Cl  0  0  0  0  0  0  0  0  0  0  0  0
  140.3750   70.8810  226.5490 C   0  0  0  0  0  0  0  0  0  0  0  0
  141.0760   71.8250  227.8510 Cl  0  0  0  0  0  0  0  0  0  0  0  0
  139.9160   71.4820  225.3840 C   0  0  0  0  0  0  0  0  0  0  0  0
  139.6960   74.2280  219.5520 C   0  0  0  0  0  0  0  0  0  0  0  0
  140.6520   75.4000  219.4890 C   0  0  0  0  0  0  0  0  0  0  0  0
  142.1478   79.9885  220.0903 H   0  0  0  0  0  0  0  0  0  0  0  0
  143.1059   80.3146  218.6062 H   0  0  0  0  0  0  0  0  0  0  0  0
  141.3300   80.5845  218.6062 H   0  0  0  0  0  0  0  0  0  0  0  0
  140.8819   78.3871  218.1996 H   0  0  0  0  0  0  0  0  0  0  0  0
  142.6094   78.2860  217.7029 H   0  0  0  0  0  0  0  0  0  0  0  0
  139.1186   78.2492  221.8810 H   0  0  0  0  0  0  0  0  0  0  0  0
  138.8723   79.9270  223.6838 H   0  0  0  0  0  0  0  0  0  0  0  0
  140.9468   81.0422  224.5864 H   0  0  0  0  0  0  0  0  0  0  0  0
  143.1376   80.4360  223.6565 H   0  0  0  0  0  0  0  0  0  0  0  0
  143.3827   78.7568  221.8501 H   0  0  0  0  0  0  0  0  0  0  0  0
  139.3465   76.7026  220.5459 H   0  0  0  0  0  0  0  0  0  0  0  0
  140.7695   76.0769  222.7678 H   0  0  0  0  0  0  0  0  0  0  0  0
  139.1739   75.4745  222.2808 H   0  0  0  0  0  0  0  0  0  0  0  0
  141.8736   74.2760  221.3739 H   0  0  0  0  0  0  0  0  0  0  0  0
  140.8382   73.5972  222.6763 H   0  0  0  0  0  0  0  0  0  0  0  0
  140.8924   71.4023  222.3736 H   0  0  0  0  0  0  0  0  0  0  0  0
  138.6000   69.8740  221.1800 H   0  0  0  0  0  0  0  0  0  0  0  0
  140.1310   69.8560  220.5260 H   0  0  0  0  0  0  0  0  0  0  0  0
  138.7258   72.4658  223.2985 H   0  0  0  0  0  0  0  0  0  0  0  0
  137.9202   70.9270  222.8136 H   0  0  0  0  0  0  0  0  0  0  0  0
  138.8166   68.7434  223.6669 H   0  0  0  0  0  0  0  0  0  0  0  0
  139.6325   67.6660  225.7324 H   0  0  0  0  0  0  0  0  0  0  0  0
  139.9932   72.5738  225.2739 H   0  0  0  0  0  0  0  0  0  0  0  0
  139.7969   73.6060  218.6504 H   0  0  0  0  0  0  0  0  0  0  0  0
  138.6512   74.5682  219.6041 H   0  0  0  0  0  0  0  0  0  0  0  0
  141.6909   75.0413  219.5338 H   0  0  0  0  0  0  0  0  0  0  0  0
  140.5242   75.9571  218.5492 H   0  0  0  0  0  0  0  0  0  0  0  0
  1  2  1  0
  2  3  1  0
  3  4  2  0
  3  5  1  0
  5  6  1  0
  6  7  2  0
  7  8  1  0
  8  9  2  0
  9 10  1  0
 10 11  2  0
  5 12  1  0
 12 13  1  0
 13 14  1  0
 14 15  1  0
 15 16  1  0
 16 17  2  0
 16 18  1  0
 18 19  1  0
 18 20  1  0
 20 21  1  0
 21 22  2  0
 22 23  1  0
 23 24  2  0
 24 25  1  0
 24 26  1  0
 26 27  1  0
 26 28  2  0
 15 29  1  0
 29 30  1  0
 11  6  1  0
 30 12  1  0
 28 21  1  0
  1 31  1  0
  1 32  1  0
  1 33  1  0
  2 34  1  0
  2 35  1  0
  7 36  1  0
  8 37  1  0
  9 38  1  0
 10 39  1  0
 11 40  1  0
 12 41  1  0
 13 42  1  0
 13 43  1  0
 14 44  1  0
 14 45  1  0
 18 46  1  1
 19 47  1  0
 19 48  1  0
 20 49  1  0
 20 50  1  0
 22 51  1  0
 23 52  1  0
 28 53  1  0
 29 54  1  0
 29 55  1  0
 30 56  1  0
 30 57  1  0
M  END
>  <smiles>  (27) 
CCC(=O)N(c1ccccc1)C1CCN(C(=O)[C@H](N)Cc2ccc(Cl)c(Cl)c2)CC1

>  <score_type>  (27) 
oracle

>  <origin>  (27) 
autodockgpu

>  <m_score__min__energy>  (27) 
-7.7000000000000002

>  <m_primary>  (27) 
energy

>  <rmsd>  (27) 
8.776554573082464

>  <m_score__min__rmsd>  (27) 
8.776554573082464

>  <meeko>  (27) 
{"free_energy": -7.15, "intermolecular_energy": -9.54, "internal_energy": -2.78, "cluster_size": 20, "cluster_id": 3, "rank_in_cluster": 8}

>  <energy>  (27) 
-7.05

>  <cluster_rmsd>  (27) 
0.0

>  <cluster>  (27) 
6

$$$$

     RDKit          3D

 57 59  0  0  0  0  0  0  0  0999 V2000
  137.1140   75.4280  222.1960 C   0  0  0  0  0  0  0  0  0  0  0  0
  138.1580   76.0000  221.2380 C   0  0  0  0  0  0  0  0  0  0  0  0
  139.0200   76.9970  221.9550 C   0  0  0  0  0  0  0  0  0  0  0  0
  138.5380   77.4930  223.0060 O   0  0  0  0  0  0  0  0  0  0  0  0
  140.3030   77.3320  221.4430 N   0  0  0  0  0  0  0  0  0  0  0  0
  140.9630   78.4750  221.9560 C   0  0  0  0  0  0  0  0  0  0  0  0
  141.5130   78.3640  223.2220 C   0  0  0  0  0  0  0  0  0  0  0  0
  142.1820   79.4030  223.8390 C   0  0  0  0  0  0  0  0  0  0  0  0
  142.3010   80.6090  223.1450 C   0  0  0  0  0  0  0  0  0  0  0  0
  141.7520   80.7100  221.8900 C   0  0  0  0  0  0  0  0  0  0  0  0
  141.0800   79.6670  221.2700 C   0  0  0  0  0  0  0  0  0  0  0  0
  140.8680   76.4710  220.4180 C   0  0  0  0  0  0  0  0  0  0  0  0
  141.1280   75.0740  220.8480 C   0  0  0  0  0  0  0  0  0  0  0  0
  142.6540   74.8940  220.8300 C   0  0  0  0  0  0  0  0  0  0  0  0
  143.1400   75.0260  219.4810 N   0  0  0  0  0  0  0  0  0  0  0  0
  144.0620   74.1710  218.8460 C   0  0  0  0  0  0  0  0  0  0  0  0
  144.4290   74.4250  217.6410 O   0  0  0  0  0  0  0  0  0  0  0  0
  144.6710   72.9690  219.4490 C   0  0  2  0  0  0  0  0  0  0  0  0
  145.9440   72.7820  218.7160 N   0  0  0  0  0  0  0  0  0  0  0  0
  143.8750   71.6980  219.1730 C   0  0  0  0  0  0  0  0  0  0  0  0
  142.4730   71.8400  219.6760 C   0  0  0  0  0  0  0  0  0  0  0  0
  141.4520   72.0820  218.7530 C   0  0  0  0  0  0  0  0  0  0  0  0
  140.1750   72.2110  219.2260 C   0  0  0  0  0  0  0  0  0  0  0  0
  139.8840   72.1080  220.5720 C   0  0  0  0  0  0  0  0  0  0  0  0
  138.2360   72.2770  221.1800 Cl  0  0  0  0  0  0  0  0  0  0  0  0
  140.8910   71.8690  221.5010 C   0  0  0  0  0  0  0  0  0  0  0  0
  140.5260   71.7380  223.2120 Cl  0  0  0  0  0  0  0  0  0  0  0  0
  142.1890   71.7370  221.0250 C   0  0  0  0  0  0  0  0  0  0  0  0
  142.5970   76.1620  218.7190 C   0  0  0  0  0  0  0  0  0  0  0  0
  142.0520   77.1400  219.7380 C   0  0  0  0  0  0  0  0  0  0  0  0
  137.4337   75.6032  223.2338 H   0  0  0  0  0  0  0  0  0  0  0  0
  136.1468   75.9222  222.0219 H   0  0  0  0  0  0  0  0  0  0  0  0
  137.0099   74.3469  222.0219 H   0  0  0  0  0  0  0  0  0  0  0  0
  138.7873   75.1832  220.8549 H   0  0  0  0  0  0  0  0  0  0  0  0
  137.6462   76.4997  220.4024 H   0  0  0  0  0  0  0  0  0  0  0  0
  141.4130   77.4089  223.7584 H   0  0  0  0  0  0  0  0  0  0  0  0
  142.6080   79.2842  224.8462 H   0  0  0  0  0  0  0  0  0  0  0  0
  142.8258   81.4641  223.5960 H   0  0  0  0  0  0  0  0  0  0  0  0
  141.8500   81.6638  221.3508 H   0  0  0  0  0  0  0  0  0  0  0  0
  140.6536   79.7861  220.2630 H   0  0  0  0  0  0  0  0  0  0  0  0
  140.0836   76.3438  219.6574 H   0  0  0  0  0  0  0  0  0  0  0  0
  140.7370   74.9088  221.8628 H   0  0  0  0  0  0  0  0  0  0  0  0
  140.6324   74.3520  220.1823 H   0  0  0  0  0  0  0  0  0  0  0  0
  143.1208   75.6622  221.4641 H   0  0  0  0  0  0  0  0  0  0  0  0
  142.9086   73.8951  221.2139 H   0  0  0  0  0  0  0  0  0  0  0  0
  144.7461   73.1150  220.5367 H   0  0  0  0  0  0  0  0  0  0  0  0
  145.6450   72.5500  217.7300 H   0  0  0  0  0  0  0  0  0  0  0  0
  146.3240   73.7680  218.6410 H   0  0  0  0  0  0  0  0  0  0  0  0
  143.8539   71.5119  218.0891 H   0  0  0  0  0  0  0  0  0  0  0  0
  144.3564   70.8561  219.6922 H   0  0  0  0  0  0  0  0  0  0  0  0
  141.6688   72.1663  217.6779 H   0  0  0  0  0  0  0  0  0  0  0  0
  139.3577   72.4020  218.5149 H   0  0  0  0  0  0  0  0  0  0  0  0
  143.0071   71.5468  221.7353 H   0  0  0  0  0  0  0  0  0  0  0  0
  143.3920   76.6358  218.1245 H   0  0  0  0  0  0  0  0  0  0  0  0
  141.8120   75.8349  218.0212 H   0  0  0  0  0  0  0  0  0  0  0  0
  142.8266   77.3801  220.4812 H   0  0  0  0  0  0  0  0  0  0  0  0
  141.7436   78.0774  219.2521 H   0  0  0  0  0  0  0  0  0  0  0  0
  1  2  1  0
  2  3  1  0
  3  4  2  0
  3  5  1  0
  5  6  1  0
  6  7  2  0
  7  8  1  0
  8  9  2  0
  9 10  1  0
 10 11  2  0
  5 12  1  0
 12 13  1  0
 13 14  1  0
 14 15  1  0
 15 16  1  0
 16 17  2  0
 16 18  1  0
 18 19  1  0
 18 20  1  0
 20 21  1  0
 21 22  2  0
 22 23  1  0
 23 24  2  0
 24 25  1  0
 24 26  1  0
 26 27  1  0
 26 28  2  0
 15 29  1  0
 29 30  1  0
 11  6  1  0
 30 12  1  0
 28 21  1  0
  1 31  1  0
  1 32  1  0
  1 33  1  0
  2 34  1  0
  2 35  1  0
  7 36  1  0
  8 37  1  0
  9 38  1  0
 10 39  1  0
 11 40  1  0
 12 41  1  0
 13 42  1  0
 13 43  1  0
 14 44  1  0
 14 45  1  0
 18 46  1  1
 19 47  1  0
 19 48  1  0
 20 49  1  0
 20 50  1  0
 22 51  1  0
 23 52  1  0
 28 53  1  0
 29 54  1  0
 29 55  1  0
 30 56  1  0
 30 57  1  0
M  END
>  <smiles>  (28) 
CCC(=O)N(c1ccccc1)C1CCN(C(=O)[C@H](N)Cc2ccc(Cl)c(Cl)c2)CC1

>  <score_type>  (28) 
oracle

>  <origin>  (28) 
autodockgpu

>  <m_score__min__energy>  (28) 
-7.7000000000000002

>  <m_primary>  (28) 
energy

>  <rmsd>  (28) 
7.269585409234212

>  <m_score__min__rmsd>  (28) 
7.269585409234212

>  <meeko>  (28) 
{"free_energy": -5.9, "intermolecular_energy": -8.28, "internal_energy": -3.64, "cluster_size": 5, "cluster_id": 12, "rank_in_cluster": 4}

>  <energy>  (28) 
-6.78

>  <cluster_rmsd>  (28) 
1.56

>  <cluster>  (28) 
6

$$$$

     RDKit          3D

 57 59  0  0  0  0  0  0  0  0999 V2000
  138.0290   80.4680  223.6130 C   0  0  0  0  0  0  0  0  0  0  0  0
  137.5190   79.5190  222.5290 C   0  0  0  0  0  0  0  0  0  0  0  0
  138.4800   79.4950  221.3760 C   0  0  0  0  0  0  0  0  0  0  0  0
  138.1330   80.1390  220.3520 O   0  0  0  0  0  0  0  0  0  0  0  0
  139.7020   78.7770  221.4780 N   0  0  0  0  0  0  0  0  0  0  0  0
  140.7840   79.3700  222.1740 C   0  0  0  0  0  0  0  0  0  0  0  0
  141.1180   78.8160  223.3980 C   0  0  0  0  0  0  0  0  0  0  0  0
  142.1500   79.2980  224.1780 C   0  0  0  0  0  0  0  0  0  0  0  0
  142.8780   80.3890  223.7000 C   0  0  0  0  0  0  0  0  0  0  0  0
  142.5410   80.9320  222.4850 C   0  0  0  0  0  0  0  0  0  0  0  0
  141.5040   80.4480  221.7000 C   0  0  0  0  0  0  0  0  0  0  0  0
  139.7680   77.4640  220.8590 C   0  0  0  0  0  0  0  0  0  0  0  0
  139.3190   76.3430  221.7220 C   0  0  0  0  0  0  0  0  0  0  0  0
  140.5640   75.4860  222.0000 C   0  0  0  0  0  0  0  0  0  0  0  0
  141.0410   74.9150  220.7670 N   0  0  0  0  0  0  0  0  0  0  0  0
  141.4260   73.5740  220.5700 C   0  0  0  0  0  0  0  0  0  0  0  0
  141.8610   73.2070  219.4180 O   0  0  0  0  0  0  0  0  0  0  0  0
  141.3770   72.5110  221.5930 C   0  0  2  0  0  0  0  0  0  0  0  0
  141.9190   71.3100  220.9150 N   0  0  0  0  0  0  0  0  0  0  0  0
  139.9540   72.1260  221.9830 C   0  0  0  0  0  0  0  0  0  0  0  0
  139.9560   71.3460  223.2590 C   0  0  0  0  0  0  0  0  0  0  0  0
  139.4020   70.0630  223.2620 C   0  0  0  0  0  0  0  0  0  0  0  0
  139.4090   69.3610  224.4350 C   0  0  0  0  0  0  0  0  0  0  0  0
  139.9440   69.8870  225.5940 C   0  0  0  0  0  0  0  0  0  0  0  0
  139.9510   68.9810  227.1080 Cl  0  0  0  0  0  0  0  0  0  0  0  0
  140.4980   71.1640  225.6060 C   0  0  0  0  0  0  0  0  0  0  0  0
  141.1780   71.8380  227.0760 Cl  0  0  0  0  0  0  0  0  0  0  0  0
  140.4920   71.8800  224.4160 C   0  0  0  0  0  0  0  0  0  0  0  0
  141.1140   75.8400  219.6250 C   0  0  0  0  0  0  0  0  0  0  0  0
  141.1230   77.2380  220.2060 C   0  0  0  0  0  0  0  0  0  0  0  0
  137.8032   80.0477  224.6042 H   0  0  0  0  0  0  0  0  0  0  0  0
  139.1166   80.5945  223.5075 H   0  0  0  0  0  0  0  0  0  0  0  0
  137.5343   81.4448  223.5075 H   0  0  0  0  0  0  0  0  0  0  0  0
  137.4251   78.5056  222.9464 H   0  0  0  0  0  0  0  0  0  0  0  0
  136.5379   79.8683  222.1749 H   0  0  0  0  0  0  0  0  0  0  0  0
  140.5372   77.9565  223.7640 H   0  0  0  0  0  0  0  0  0  0  0  0
  142.3913   78.8364  225.1468 H   0  0  0  0  0  0  0  0  0  0  0  0
  143.7086   80.8070  224.2876 H   0  0  0  0  0  0  0  0  0  0  0  0
  143.1203   81.7913  222.1163 H   0  0  0  0  0  0  0  0  0  0  0  0
  141.2634   80.9089  220.7306 H   0  0  0  0  0  0  0  0  0  0  0  0
  139.0150   77.4643  220.0571 H   0  0  0  0  0  0  0  0  0  0  0  0
  138.9052   76.7304  222.6647 H   0  0  0  0  0  0  0  0  0  0  0  0
  138.5295   75.7537  221.2327 H   0  0  0  0  0  0  0  0  0  0  0  0
  141.3510   76.1155  222.4408 H   0  0  0  0  0  0  0  0  0  0  0  0
  140.3036   74.6788  222.7004 H   0  0  0  0  0  0  0  0  0  0  0  0
  141.9126   72.8547  222.4902 H   0  0  0  0  0  0  0  0  0  0  0  0
  141.3200   71.2050  220.0520 H   0  0  0  0  0  0  0  0  0  0  0  0
  142.8500   71.6480  220.5380 H   0  0  0  0  0  0  0  0  0  0  0  0
  139.3554   73.0390  222.1173 H   0  0  0  0  0  0  0  0  0  0  0  0
  139.5213   71.5042  221.1854 H   0  0  0  0  0  0  0  0  0  0  0  0
  138.9725   69.6303  222.3464 H   0  0  0  0  0  0  0  0  0  0  0  0
  138.9767   68.3497  224.4560 H   0  0  0  0  0  0  0  0  0  0  0  0
  140.9223   72.8921  224.3936 H   0  0  0  0  0  0  0  0  0  0  0  0
  142.0342   75.6615  219.0493 H   0  0  0  0  0  0  0  0  0  0  0  0
  140.2634   75.6978  218.9421 H   0  0  0  0  0  0  0  0  0  0  0  0
  141.9224   77.3290  220.9561 H   0  0  0  0  0  0  0  0  0  0  0  0
  141.3067   77.9856  219.4202 H   0  0  0  0  0  0  0  0  0  0  0  0
  1  2  1  0
  2  3  1  0
  3  4  2  0
  3  5  1  0
  5  6  1  0
  6  7  2  0
  7  8  1  0
  8  9  2  0
  9 10  1  0
 10 11  2  0
  5 12  1  0
 12 13  1  0
 13 14  1  0
 14 15  1  0
 15 16  1  0
 16 17  2  0
 16 18  1  0
 18 19  1  0
 18 20  1  0
 20 21  1  0
 21 22  2  0
 22 23  1  0
 23 24  2  0
 24 25  1  0
 24 26  1  0
 26 27  1  0
 26 28  2  0
 15 29  1  0
 29 30  1  0
 11  6  1  0
 30 12  1  0
 28 21  1  0
  1 31  1  0
  1 32  1  0
  1 33  1  0
  2 34  1  0
  2 35  1  0
  7 36  1  0
  8 37  1  0
  9 38  1  0
 10 39  1  0
 11 40  1  0
 12 41  1  0
 13 42  1  0
 13 43  1  0
 14 44  1  0
 14 45  1  0
 18 46  1  1
 19 47  1  0
 19 48  1  0
 20 49  1  0
 20 50  1  0
 22 51  1  0
 23 52  1  0
 28 53  1  0
 29 54  1  0
 29 55  1  0
 30 56  1  0
 30 57  1  0
M  END
>  <smiles>  (29) 
CCC(=O)N(c1ccccc1)C1CCN(C(=O)[C@H](N)Cc2ccc(Cl)c(Cl)c2)CC1

>  <score_type>  (29) 
oracle

>  <origin>  (29) 
autodockgpu

>  <m_score__min__energy>  (29) 
-7.7000000000000002

>  <m_primary>  (29) 
energy

>  <rmsd>  (29) 
8.094923310578597

>  <m_score__min__rmsd>  (29) 
8.094923310578597

>  <meeko>  (29) 
{"free_energy": -6.81, "intermolecular_energy": -9.2, "internal_energy": -3.0, "cluster_size": 10, "cluster_id": 7, "rank_in_cluster": 7}

>  <energy>  (29) 
-7.03

>  <cluster_rmsd>  (29) 
0.0

>  <cluster>  (29) 
7

$$$$

     RDKit          3D

 57 59  0  0  0  0  0  0  0  0999 V2000
  146.3590   73.3840  221.6670 C   0  0  0  0  0  0  0  0  0  0  0  0
  145.2630   73.8520  220.7100 C   0  0  0  0  0  0  0  0  0  0  0  0
  145.1340   72.8880  219.5680 C   0  0  0  0  0  0  0  0  0  0  0  0
  145.9510   73.0340  218.6230 O   0  0  0  0  0  0  0  0  0  0  0  0
  144.1330   71.8780  219.5940 N   0  0  0  0  0  0  0  0  0  0  0  0
  144.5290   70.5240  219.4680 C   0  0  0  0  0  0  0  0  0  0  0  0
  145.8010   70.2880  218.9750 C   0  0  0  0  0  0  0  0  0  0  0  0
  146.3100   69.0160  218.8020 C   0  0  0  0  0  0  0  0  0  0  0  0
  145.4970   67.9340  219.1420 C   0  0  0  0  0  0  0  0  0  0  0  0
  144.2370   68.1770  219.6300 C   0  0  0  0  0  0  0  0  0  0  0  0
  143.7240   69.4540  219.8040 C   0  0  0  0  0  0  0  0  0  0  0  0
  142.7520   72.3010  219.7540 C   0  0  0  0  0  0  0  0  0  0  0  0
  142.1960   72.1170  221.1180 C   0  0  0  0  0  0  0  0  0  0  0  0
  141.1040   71.0420  220.9990 C   0  0  0  0  0  0  0  0  0  0  0  0
  140.0380   71.5280  220.1610 N   0  0  0  0  0  0  0  0  0  0  0  0
  138.6600   71.4340  220.4380 C   0  0  0  0  0  0  0  0  0  0  0  0
  137.8140   71.8890  219.5840 O   0  0  0  0  0  0  0  0  0  0  0  0
  138.0700   70.8420  221.6550 C   0  0  2  0  0  0  0  0  0  0  0  0
  136.6070   70.9120  221.4370 N   0  0  0  0  0  0  0  0  0  0  0  0
  138.3160   71.6820  222.9040 C   0  0  0  0  0  0  0  0  0  0  0  0
  138.9000   70.8400  223.9920 C   0  0  0  0  0  0  0  0  0  0  0  0
  138.7180   69.4550  223.9400 C   0  0  0  0  0  0  0  0  0  0  0  0
  139.2570   68.6970  224.9430 C   0  0  0  0  0  0  0  0  0  0  0  0
  139.9640   69.2640  225.9840 C   0  0  0  0  0  0  0  0  0  0  0  0
  140.6570   68.2840  227.2770 Cl  0  0  0  0  0  0  0  0  0  0  0  0
  140.1520   70.6410  226.0490 C   0  0  0  0  0  0  0  0  0  0  0  0
  141.0490   71.3670  227.3700 Cl  0  0  0  0  0  0  0  0  0  0  0  0
  139.6060   71.4150  225.0330 C   0  0  0  0  0  0  0  0  0  0  0  0
  140.4590   72.1870  218.9150 C   0  0  0  0  0  0  0  0  0  0  0  0
  141.8780   71.7310  218.6480 C   0  0  0  0  0  0  0  0  0  0  0  0
  146.0247   73.5267  222.7052 H   0  0  0  0  0  0  0  0  0  0  0  0
  146.5678   72.3182  221.4923 H   0  0  0  0  0  0  0  0  0  0  0  0
  147.2732   73.9702  221.4923 H   0  0  0  0  0  0  0  0  0  0  0  0
  144.3064   73.9069  221.2504 H   0  0  0  0  0  0  0  0  0  0  0  0
  145.5265   74.8449  220.3167 H   0  0  0  0  0  0  0  0  0  0  0  0
  146.4321   71.1491  218.7102 H   0  0  0  0  0  0  0  0  0  0  0  0
  147.3253   68.8604  218.4082 H   0  0  0  0  0  0  0  0  0  0  0  0
  145.8599   66.9027  219.0209 H   0  0  0  0  0  0  0  0  0  0  0  0
  143.6038   67.3177  219.8958 H   0  0  0  0  0  0  0  0  0  0  0  0
  142.7084   69.6091  220.1971 H   0  0  0  0  0  0  0  0  0  0  0  0
  142.7506   73.3952  219.6413 H   0  0  0  0  0  0  0  0  0  0  0  0
  142.9846   71.7837  221.8087 H   0  0  0  0  0  0  0  0  0  0  0  0
  141.7876   73.0589  221.5130 H   0  0  0  0  0  0  0  0  0  0  0  0
  141.5330   70.1317  220.5548 H   0  0  0  0  0  0  0  0  0  0  0  0
  140.7072   70.8116  221.9987 H   0  0  0  0  0  0  0  0  0  0  0  0
  138.4982   69.8404  221.8080 H   0  0  0  0  0  0  0  0  0  0  0  0
  136.4200   71.9330  221.2420 H   0  0  0  0  0  0  0  0  0  0  0  0
  136.4830   70.4470  220.4930 H   0  0  0  0  0  0  0  0  0  0  0  0
  139.0147   72.4962  222.6613 H   0  0  0  0  0  0  0  0  0  0  0  0
  137.3575   72.0966  223.2495 H   0  0  0  0  0  0  0  0  0  0  0  0
  138.1577   68.9883  223.1165 H   0  0  0  0  0  0  0  0  0  0  0  0
  139.1233   67.6054  224.9193 H   0  0  0  0  0  0  0  0  0  0  0  0
  139.7378   72.5068  225.0569 H   0  0  0  0  0  0  0  0  0  0  0  0
  139.8011   71.8882  218.0856 H   0  0  0  0  0  0  0  0  0  0  0  0
  140.4023   73.2819  219.0043 H   0  0  0  0  0  0  0  0  0  0  0  0
  141.9283   70.6322  218.6571 H   0  0  0  0  0  0  0  0  0  0  0  0
  142.2202   72.0799  217.6625 H   0  0  0  0  0  0  0  0  0  0  0  0
  1  2  1  0
  2  3  1  0
  3  4  2  0
  3  5  1  0
  5  6  1  0
  6  7  2  0
  7  8  1  0
  8  9  2  0
  9 10  1  0
 10 11  2  0
  5 12  1  0
 12 13  1  0
 13 14  1  0
 14 15  1  0
 15 16  1  0
 16 17  2  0
 16 18  1  0
 18 19  1  0
 18 20  1  0
 20 21  1  0
 21 22  2  0
 22 23  1  0
 23 24  2  0
 24 25  1  0
 24 26  1  0
 26 27  1  0
 26 28  2  0
 15 29  1  0
 29 30  1  0
 11  6  1  0
 30 12  1  0
 28 21  1  0
  1 31  1  0
  1 32  1  0
  1 33  1  0
  2 34  1  0
  2 35  1  0
  7 36  1  0
  8 37  1  0
  9 38  1  0
 10 39  1  0
 11 40  1  0
 12 41  1  0
 13 42  1  0
 13 43  1  0
 14 44  1  0
 14 45  1  0
 18 46  1  1
 19 47  1  0
 19 48  1  0
 20 49  1  0
 20 50  1  0
 22 51  1  0
 23 52  1  0
 28 53  1  0
 29 54  1  0
 29 55  1  0
 30 56  1  0
 30 57  1  0
M  END
>  <smiles>  (30) 
CCC(=O)N(c1ccccc1)C1CCN(C(=O)[C@H](N)Cc2ccc(Cl)c(Cl)c2)CC1

>  <score_type>  (30) 
oracle

>  <origin>  (30) 
autodockgpu

>  <m_score__min__energy>  (30) 
-7.7000000000000002

>  <m_primary>  (30) 
energy

>  <rmsd>  (30) 
9.310176884232266

>  <m_score__min__rmsd>  (30) 
9.310176884232266

>  <meeko>  (30) 
{"free_energy": -6.98, "intermolecular_energy": -9.37, "internal_energy": -2.93, "cluster_size": 1, "cluster_id": 8, "rank_in_cluster": 1}

>  <energy>  (30) 
-7.02

>  <cluster_rmsd>  (30) 
0.23

>  <cluster>  (30) 
7

$$$$

     RDKit          3D

 57 59  0  0  0  0  0  0  0  0999 V2000
  137.8570   80.8930  224.2680 C   0  0  0  0  0  0  0  0  0  0  0  0
  137.3110   79.7620  223.3980 C   0  0  0  0  0  0  0  0  0  0  0  0
  138.0710   79.6980  222.1060 C   0  0  0  0  0  0  0  0  0  0  0  0
  137.5320   80.2570  221.1160 O   0  0  0  0  0  0  0  0  0  0  0  0
  139.3270   79.0340  222.0470 N   0  0  0  0  0  0  0  0  0  0  0  0
  140.4470   79.6410  222.6670 C   0  0  0  0  0  0  0  0  0  0  0  0
  140.7630   80.9270  222.2640 C   0  0  0  0  0  0  0  0  0  0  0  0
  141.8290   81.6320  222.7870 C   0  0  0  0  0  0  0  0  0  0  0  0
  142.6110   81.0090  223.7620 C   0  0  0  0  0  0  0  0  0  0  0  0
  142.2900   79.7330  224.1560 C   0  0  0  0  0  0  0  0  0  0  0  0
  141.2190   79.0240  223.6300 C   0  0  0  0  0  0  0  0  0  0  0  0
  139.3860   77.7600  221.3500 C   0  0  0  0  0  0  0  0  0  0  0  0
  138.9900   76.5840  222.1640 C   0  0  0  0  0  0  0  0  0  0  0  0
  140.2570   75.7340  222.3410 C   0  0  0  0  0  0  0  0  0  0  0  0
  140.6920   75.2430  221.0590 N   0  0  0  0  0  0  0  0  0  0  0  0
  141.0870   73.9220  220.7690 C   0  0  0  0  0  0  0  0  0  0  0  0
  141.4800   73.6290  219.5810 O   0  0  0  0  0  0  0  0  0  0  0  0
  141.0960   72.8010  221.7290 C   0  0  2  0  0  0  0  0  0  0  0  0
  141.6550   71.6580  220.9700 N   0  0  0  0  0  0  0  0  0  0  0  0
  139.6960   72.3510  222.1310 C   0  0  0  0  0  0  0  0  0  0  0  0
  139.7600   71.4370  223.3130 C   0  0  0  0  0  0  0  0  0  0  0  0
  139.2460   70.1440  223.1900 C   0  0  0  0  0  0  0  0  0  0  0  0
  139.3100   69.3190  224.2790 C   0  0  0  0  0  0  0  0  0  0  0  0
  139.8640   69.7330  225.4740 C   0  0  0  0  0  0  0  0  0  0  0  0
  139.9450   68.6680  226.8780 Cl  0  0  0  0  0  0  0  0  0  0  0  0
  140.3790   71.0180  225.6100 C   0  0  0  0  0  0  0  0  0  0  0  0
  141.0840   71.5500  227.1270 Cl  0  0  0  0  0  0  0  0  0  0  0  0
  140.3160   71.8600  224.5070 C   0  0  0  0  0  0  0  0  0  0  0  0
  140.7040   76.2330  219.9710 C   0  0  0  0  0  0  0  0  0  0  0  0
  140.7160   77.5950  220.6310 C   0  0  0  0  0  0  0  0  0  0  0  0
  137.7313   80.6326  225.3293 H   0  0  0  0  0  0  0  0  0  0  0  0
  138.9252   81.0399  224.0505 H   0  0  0  0  0  0  0  0  0  0  0  0
  137.3076   81.8208  224.0505 H   0  0  0  0  0  0  0  0  0  0  0  0
  137.4189   78.8065  223.9322 H   0  0  0  0  0  0  0  0  0  0  0  0
  136.2487   79.9508  223.1839 H   0  0  0  0  0  0  0  0  0  0  0  0
  140.1393   81.4071  221.4956 H   0  0  0  0  0  0  0  0  0  0  0  0
  142.0553   82.6531  222.4461 H   0  0  0  0  0  0  0  0  0  0  0  0
  143.4703   81.5318  224.2073 H   0  0  0  0  0  0  0  0  0  0  0  0
  142.9111   79.2501  224.9248 H   0  0  0  0  0  0  0  0  0  0  0  0
  140.9928   78.0026  223.9700 H   0  0  0  0  0  0  0  0  0  0  0  0
  138.6005   77.7937  220.5807 H   0  0  0  0  0  0  0  0  0  0  0  0
  138.6102   76.9097  223.1436 H   0  0  0  0  0  0  0  0  0  0  0  0
  138.1897   76.0103  221.6737 H   0  0  0  0  0  0  0  0  0  0  0  0
  141.0521   76.3502  222.7861 H   0  0  0  0  0  0  0  0  0  0  0  0
  140.0368   74.8832  223.0026 H   0  0  0  0  0  0  0  0  0  0  0  0
  141.6449   73.1092  222.6311 H   0  0  0  0  0  0  0  0  0  0  0  0
  141.0290   71.5770  220.1240 H   0  0  0  0  0  0  0  0  0  0  0  0
  142.5590   72.0490  220.5810 H   0  0  0  0  0  0  0  0  0  0  0  0
  139.0917   73.2335  222.3879 H   0  0  0  0  0  0  0  0  0  0  0  0
  139.2394   71.8117  221.2880 H   0  0  0  0  0  0  0  0  0  0  0  0
  138.8024   69.7991  222.2443 H   0  0  0  0  0  0  0  0  0  0  0  0
  138.9091   68.2977  224.2007 H   0  0  0  0  0  0  0  0  0  0  0  0
  140.7156   72.8819  224.5844 H   0  0  0  0  0  0  0  0  0  0  0  0
  141.6022   76.1038  219.3493 H   0  0  0  0  0  0  0  0  0  0  0  0
  139.8281   76.1156  219.3160 H   0  0  0  0  0  0  0  0  0  0  0  0
  141.5442   77.6566  221.3523 H   0  0  0  0  0  0  0  0  0  0  0  0
  140.8559   78.3893  219.8830 H   0  0  0  0  0  0  0  0  0  0  0  0
  1  2  1  0
  2  3  1  0
  3  4  2  0
  3  5  1  0
  5  6  1  0
  6  7  2  0
  7  8  1  0
  8  9  2  0
  9 10  1  0
 10 11  2  0
  5 12  1  0
 12 13  1  0
 13 14  1  0
 14 15  1  0
 15 16  1  0
 16 17  2  0
 16 18  1  0
 18 19  1  0
 18 20  1  0
 20 21  1  0
 21 22  2  0
 22 23  1  0
 23 24  2  0
 24 25  1  0
 24 26  1  0
 26 27  1  0
 26 28  2  0
 15 29  1  0
 29 30  1  0
 11  6  1  0
 30 12  1  0
 28 21  1  0
  1 31  1  0
  1 32  1  0
  1 33  1  0
  2 34  1  0
  2 35  1  0
  7 36  1  0
  8 37  1  0
  9 38  1  0
 10 39  1  0
 11 40  1  0
 12 41  1  0
 13 42  1  0
 13 43  1  0
 14 44  1  0
 14 45  1  0
 18 46  1  1
 19 47  1  0
 19 48  1  0
 20 49  1  0
 20 50  1  0
 22 51  1  0
 23 52  1  0
 28 53  1  0
 29 54  1  0
 29 55  1  0
 30 56  1  0
 30 57  1  0
M  END
>  <smiles>  (31) 
CCC(=O)N(c1ccccc1)C1CCN(C(=O)[C@H](N)Cc2ccc(Cl)c(Cl)c2)CC1

>  <score_type>  (31) 
oracle

>  <origin>  (31) 
autodockgpu

>  <m_score__min__energy>  (31) 
-7.7000000000000002

>  <m_primary>  (31) 
energy

>  <rmsd>  (31) 
8.138042416029023

>  <m_score__min__rmsd>  (31) 
8.138042416029023

>  <meeko>  (31) 
{"free_energy": -6.99, "intermolecular_energy": -9.38, "internal_energy": -2.96, "cluster_size": 10, "cluster_id": 7, "rank_in_cluster": 5}

>  <energy>  (31) 
-7.0

>  <cluster_rmsd>  (31) 
0.47

>  <cluster>  (31) 
7

$$$$

     RDKit          3D

 57 59  0  0  0  0  0  0  0  0999 V2000
  138.0910   80.8690  224.1340 C   0  0  0  0  0  0  0  0  0  0  0  0
  137.3540   79.9890  223.1260 C   0  0  0  0  0  0  0  0  0  0  0  0
  138.1680   79.8530  221.8730 C   0  0  0  0  0  0  0  0  0  0  0  0
  137.7770   80.5230  220.8820 O   0  0  0  0  0  0  0  0  0  0  0  0
  139.3100   79.0070  221.8500 N   0  0  0  0  0  0  0  0  0  0  0  0
  140.5420   79.5150  222.3310 C   0  0  0  0  0  0  0  0  0  0  0  0
  140.9970   79.0110  223.5370 C   0  0  0  0  0  0  0  0  0  0  0  0
  142.1820   79.4200  224.1180 C   0  0  0  0  0  0  0  0  0  0  0  0
  142.9410   80.3820  223.4500 C   0  0  0  0  0  0  0  0  0  0  0  0
  142.4820   80.8760  222.2540 C   0  0  0  0  0  0  0  0  0  0  0  0
  141.2920   80.4660  221.6690 C   0  0  0  0  0  0  0  0  0  0  0  0
  139.1440   77.6600  221.3330 C   0  0  0  0  0  0  0  0  0  0  0  0
  138.9380   76.6140  222.3670 C   0  0  0  0  0  0  0  0  0  0  0  0
  140.1790   75.7100  222.3210 C   0  0  0  0  0  0  0  0  0  0  0  0
  140.2450   75.0460  221.0440 N   0  0  0  0  0  0  0  0  0  0  0  0
  140.5080   73.6780  220.8360 C   0  0  0  0  0  0  0  0  0  0  0  0
  140.5640   73.2240  219.6350 O   0  0  0  0  0  0  0  0  0  0  0  0
  140.7330   72.6780  221.8990 C   0  0  2  0  0  0  0  0  0  0  0  0
  141.5150   71.6030  221.2460 N   0  0  0  0  0  0  0  0  0  0  0  0
  139.4480   71.9980  222.3580 C   0  0  0  0  0  0  0  0  0  0  0  0
  139.6760   71.2640  223.6410 C   0  0  0  0  0  0  0  0  0  0  0  0
  139.2300   69.9430  223.7460 C   0  0  0  0  0  0  0  0  0  0  0  0
  139.4440   69.2840  224.9240 C   0  0  0  0  0  0  0  0  0  0  0  0
  140.0800   69.8870  225.9910 C   0  0  0  0  0  0  0  0  0  0  0  0
  140.3530   69.0350  227.5110 Cl  0  0  0  0  0  0  0  0  0  0  0  0
  140.5280   71.2010  225.9000 C   0  0  0  0  0  0  0  0  0  0  0  0
  141.3360   71.9730  227.2530 Cl  0  0  0  0  0  0  0  0  0  0  0  0
  140.3120   71.8750  224.7050 C   0  0  0  0  0  0  0  0  0  0  0  0
  140.0030   75.9000  219.8710 C   0  0  0  0  0  0  0  0  0  0  0  0
  140.2310   77.3260  220.3240 C   0  0  0  0  0  0  0  0  0  0  0  0
  137.8285   80.5556  225.1552 H   0  0  0  0  0  0  0  0  0  0  0  0
  139.1762   80.7659  223.9863 H   0  0  0  0  0  0  0  0  0  0  0  0
  137.7990   81.9192  223.9863 H   0  0  0  0  0  0  0  0  0  0  0  0
  137.1893   78.9932  223.5635 H   0  0  0  0  0  0  0  0  0  0  0  0
  136.3872   80.4527  222.8804 H   0  0  0  0  0  0  0  0  0  0  0  0
  140.3901   78.2534  224.0544 H   0  0  0  0  0  0  0  0  0  0  0  0
  142.5170   79.0001  225.0779 H   0  0  0  0  0  0  0  0  0  0  0  0
  143.8911   80.7385  223.8746 H   0  0  0  0  0  0  0  0  0  0  0  0
  143.0868   81.6336  221.7341 H   0  0  0  0  0  0  0  0  0  0  0  0
  140.9574   80.8854  220.7087 H   0  0  0  0  0  0  0  0  0  0  0  0
  138.1853   77.6552  220.7937 H   0  0  0  0  0  0  0  0  0  0  0  0
  138.8397   77.0753  223.3608 H   0  0  0  0  0  0  0  0  0  0  0  0
  138.0189   76.0403  222.1770 H   0  0  0  0  0  0  0  0  0  0  0  0
  141.0826   76.3209  222.4633 H   0  0  0  0  0  0  0  0  0  0  0  0
  140.1137   74.9581  223.1212 H   0  0  0  0  0  0  0  0  0  0  0  0
  141.2018   73.1743  222.7615 H   0  0  0  0  0  0  0  0  0  0  0  0
  140.8510   71.1930  220.5350 H   0  0  0  0  0  0  0  0  0  0  0  0
  142.2160   72.1390  220.6590 H   0  0  0  0  0  0  0  0  0  0  0  0
  138.6691   72.7598  222.5097 H   0  0  0  0  0  0  0  0  0  0  0  0
  139.1296   71.2800  221.5879 H   0  0  0  0  0  0  0  0  0  0  0  0
  138.7217   69.4486  222.9050 H   0  0  0  0  0  0  0  0  0  0  0  0
  139.0999   68.2441  225.0250 H   0  0  0  0  0  0  0  0  0  0  0  0
  140.6539   72.9156  224.6034 H   0  0  0  0  0  0  0  0  0  0  0  0
  140.7022   75.6418  219.0621 H   0  0  0  0  0  0  0  0  0  0  0  0
  138.9827   75.7639  219.4832 H   0  0  0  0  0  0  0  0  0  0  0  0
  141.2214   77.4178  220.7937 H   0  0  0  0  0  0  0  0  0  0  0  0
  140.1935   78.0167  219.4687 H   0  0  0  0  0  0  0  0  0  0  0  0
  1  2  1  0
  2  3  1  0
  3  4  2  0
  3  5  1  0
  5  6  1  0
  6  7  2  0
  7  8  1  0
  8  9  2  0
  9 10  1  0
 10 11  2  0
  5 12  1  0
 12 13  1  0
 13 14  1  0
 14 15  1  0
 15 16  1  0
 16 17  2  0
 16 18  1  0
 18 19  1  0
 18 20  1  0
 20 21  1  0
 21 22  2  0
 22 23  1  0
 23 24  2  0
 24 25  1  0
 24 26  1  0
 26 27  1  0
 26 28  2  0
 15 29  1  0
 29 30  1  0
 11  6  1  0
 30 12  1  0
 28 21  1  0
  1 31  1  0
  1 32  1  0
  1 33  1  0
  2 34  1  0
  2 35  1  0
  7 36  1  0
  8 37  1  0
  9 38  1  0
 10 39  1  0
 11 40  1  0
 12 41  1  0
 13 42  1  0
 13 43  1  0
 14 44  1  0
 14 45  1  0
 18 46  1  1
 19 47  1  0
 19 48  1  0
 20 49  1  0
 20 50  1  0
 22 51  1  0
 23 52  1  0
 28 53  1  0
 29 54  1  0
 29 55  1  0
 30 56  1  0
 30 57  1  0
M  END
>  <smiles>  (32) 
CCC(=O)N(c1ccccc1)C1CCN(C(=O)[C@H](N)Cc2ccc(Cl)c(Cl)c2)CC1

>  <score_type>  (32) 
oracle

>  <origin>  (32) 
autodockgpu

>  <m_score__min__energy>  (32) 
-7.7000000000000002

>  <m_primary>  (32) 
energy

>  <rmsd>  (32) 
8.292301906223987

>  <m_score__min__rmsd>  (32) 
8.292301906223987

>  <meeko>  (32) 
{"free_energy": -6.99, "intermolecular_energy": -9.38, "internal_energy": -2.86, "cluster_size": 10, "cluster_id": 7, "rank_in_cluster": 4}

>  <energy>  (32) 
-6.99

>  <cluster_rmsd>  (32) 
0.18

>  <cluster>  (32) 
7

$$$$

     RDKit          3D

 57 59  0  0  0  0  0  0  0  0999 V2000
  138.0810   78.9890  223.0850 C   0  0  0  0  0  0  0  0  0  0  0  0
  137.9940   77.8540  222.0650 C   0  0  0  0  0  0  0  0  0  0  0  0
  139.2080   76.9780  222.1690 C   0  0  0  0  0  0  0  0  0  0  0  0
  139.0650   75.9040  222.8090 O   0  0  0  0  0  0  0  0  0  0  0  0
  140.4310   77.3750  221.5610 N   0  0  0  0  0  0  0  0  0  0  0  0
  141.0660   78.5550  222.0190 C   0  0  0  0  0  0  0  0  0  0  0  0
  141.6070   78.5200  223.2920 C   0  0  0  0  0  0  0  0  0  0  0  0
  142.2530   79.6010  223.8590 C   0  0  0  0  0  0  0  0  0  0  0  0
  142.3570   80.7710  223.1040 C   0  0  0  0  0  0  0  0  0  0  0  0
  141.8190   80.7970  221.8410 C   0  0  0  0  0  0  0  0  0  0  0  0
  141.1690   79.7110  221.2710 C   0  0  0  0  0  0  0  0  0  0  0  0
  140.9610   76.5360  220.5000 C   0  0  0  0  0  0  0  0  0  0  0  0
  141.1920   75.1190  220.8800 C   0  0  0  0  0  0  0  0  0  0  0  0
  142.7120   74.9020  220.8360 C   0  0  0  0  0  0  0  0  0  0  0  0
  143.1850   75.0680  219.4860 N   0  0  0  0  0  0  0  0  0  0  0  0
  144.0780   74.2130  218.8110 C   0  0  0  0  0  0  0  0  0  0  0  0
  144.4370   74.4990  217.6110 O   0  0  0  0  0  0  0  0  0  0  0  0
  144.6630   72.9760  219.3650 C   0  0  2  0  0  0  0  0  0  0  0  0
  145.9170   72.7770  218.6030 N   0  0  0  0  0  0  0  0  0  0  0  0
  143.8270   71.7360  219.0660 C   0  0  0  0  0  0  0  0  0  0  0  0
  142.4450   71.8940  219.6150 C   0  0  0  0  0  0  0  0  0  0  0  0
  141.4040   72.2000  218.7340 C   0  0  0  0  0  0  0  0  0  0  0  0
  140.1450   72.3430  219.2490 C   0  0  0  0  0  0  0  0  0  0  0  0
  139.8900   72.1920  220.5980 C   0  0  0  0  0  0  0  0  0  0  0  0
  138.2660   72.3780  221.2610 Cl  0  0  0  0  0  0  0  0  0  0  0  0
  140.9170   71.8880  221.4860 C   0  0  0  0  0  0  0  0  0  0  0  0
  140.5980   71.6960  223.2010 Cl  0  0  0  0  0  0  0  0  0  0  0  0
  142.1970   71.7430  220.9670 C   0  0  0  0  0  0  0  0  0  0  0  0
  142.6620   76.2420  218.7700 C   0  0  0  0  0  0  0  0  0  0  0  0
  142.1540   77.1980  219.8280 C   0  0  0  0  0  0  0  0  0  0  0  0
  138.0490   78.5712  224.1021 H   0  0  0  0  0  0  0  0  0  0  0  0
  139.0238   79.5377  222.9435 H   0  0  0  0  0  0  0  0  0  0  0  0
  137.2328   79.6749  222.9435 H   0  0  0  0  0  0  0  0  0  0  0  0
  137.0936   77.2541  222.2632 H   0  0  0  0  0  0  0  0  0  0  0  0
  137.9418   78.2809  221.0526 H   0  0  0  0  0  0  0  0  0  0  0  0
  141.5189   77.5925  223.8768 H   0  0  0  0  0  0  0  0  0  0  0  0
  142.6727   79.5421  224.8741 H   0  0  0  0  0  0  0  0  0  0  0  0
  142.8619   81.6578  223.5146 H   0  0  0  0  0  0  0  0  0  0  0  0
  141.9073   81.7224  221.2529 H   0  0  0  0  0  0  0  0  0  0  0  0
  140.7494   79.7695  220.2559 H   0  0  0  0  0  0  0  0  0  0  0  0
  140.1643   76.4547  219.7459 H   0  0  0  0  0  0  0  0  0  0  0  0
  140.8096   74.9296  221.8938 H   0  0  0  0  0  0  0  0  0  0  0  0
  140.6706   74.4323  220.1970 H   0  0  0  0  0  0  0  0  0  0  0  0
  143.2057   75.6362  221.4897 H   0  0  0  0  0  0  0  0  0  0  0  0
  142.9458   73.8845  221.1824 H   0  0  0  0  0  0  0  0  0  0  0  0
  144.7610   73.0859  220.4551 H   0  0  0  0  0  0  0  0  0  0  0  0
  145.5940   72.5880  217.6150 H   0  0  0  0  0  0  0  0  0  0  0  0
  146.3250   73.7540  218.5540 H   0  0  0  0  0  0  0  0  0  0  0  0
  143.7700   71.5913  217.9770 H   0  0  0  0  0  0  0  0  0  0  0  0
  144.3012   70.8635  219.5391 H   0  0  0  0  0  0  0  0  0  0  0  0
  141.5919   72.3223  217.6571 H   0  0  0  0  0  0  0  0  0  0  0  0
  139.3134   72.5847  218.5707 H   0  0  0  0  0  0  0  0  0  0  0  0
  143.0297   71.5034  221.6446 H   0  0  0  0  0  0  0  0  0  0  0  0
  143.4616   76.7159  218.1817 H   0  0  0  0  0  0  0  0  0  0  0  0
  141.8608   75.9583  218.0718 H   0  0  0  0  0  0  0  0  0  0  0  0
  142.9431   77.3932  220.5691 H   0  0  0  0  0  0  0  0  0  0  0  0
  141.8639   78.1588  219.3779 H   0  0  0  0  0  0  0  0  0  0  0  0
  1  2  1  0
  2  3  1  0
  3  4  2  0
  3  5  1  0
  5  6  1  0
  6  7  2  0
  7  8  1  0
  8  9  2  0
  9 10  1  0
 10 11  2  0
  5 12  1  0
 12 13  1  0
 13 14  1  0
 14 15  1  0
 15 16  1  0
 16 17  2  0
 16 18  1  0
 18 19  1  0
 18 20  1  0
 20 21  1  0
 21 22  2  0
 22 23  1  0
 23 24  2  0
 24 25  1  0
 24 26  1  0
 26 27  1  0
 26 28  2  0
 15 29  1  0
 29 30  1  0
 11  6  1  0
 30 12  1  0
 28 21  1  0
  1 31  1  0
  1 32  1  0
  1 33  1  0
  2 34  1  0
  2 35  1  0
  7 36  1  0
  8 37  1  0
  9 38  1  0
 10 39  1  0
 11 40  1  0
 12 41  1  0
 13 42  1  0
 13 43  1  0
 14 44  1  0
 14 45  1  0
 18 46  1  1
 19 47  1  0
 19 48  1  0
 20 49  1  0
 20 50  1  0
 22 51  1  0
 23 52  1  0
 28 53  1  0
 29 54  1  0
 29 55  1  0
 30 56  1  0
 30 57  1  0
M  END
>  <smiles>  (33) 
CCC(=O)N(c1ccccc1)C1CCN(C(=O)[C@H](N)Cc2ccc(Cl)c(Cl)c2)CC1

>  <score_type>  (33) 
oracle

>  <origin>  (33) 
autodockgpu

>  <m_score__min__energy>  (33) 
-7.7000000000000002

>  <m_primary>  (33) 
energy

>  <rmsd>  (33) 
7.223505498551253

>  <m_score__min__rmsd>  (33) 
7.223505498551253

>  <meeko>  (33) 
{"free_energy": -6.09, "intermolecular_energy": -8.48, "internal_energy": -3.6, "cluster_size": 5, "cluster_id": 12, "rank_in_cluster": 2}

>  <energy>  (33) 
-6.99

>  <cluster_rmsd>  (33) 
0.46

>  <cluster>  (33) 
7

$$$$

     RDKit          3D

 57 59  0  0  0  0  0  0  0  0999 V2000
  132.8310   66.2010  225.8760 C   0  0  0  0  0  0  0  0  0  0  0  0
  133.0790   67.7030  226.0130 C   0  0  0  0  0  0  0  0  0  0  0  0
  133.8390   68.2080  224.8230 C   0  0  0  0  0  0  0  0  0  0  0  0
  134.1140   67.3560  223.9380 O   0  0  0  0  0  0  0  0  0  0  0  0
  134.2060   69.5790  224.7360 N   0  0  0  0  0  0  0  0  0  0  0  0
  133.6270   70.4970  225.6460 C   0  0  0  0  0  0  0  0  0  0  0  0
  132.3450   70.9340  225.3610 C   0  0  0  0  0  0  0  0  0  0  0  0
  131.6650   71.8290  226.1650 C   0  0  0  0  0  0  0  0  0  0  0  0
  132.3110   72.3030  227.3080 C   0  0  0  0  0  0  0  0  0  0  0  0
  133.5830   71.8630  227.5840 C   0  0  0  0  0  0  0  0  0  0  0  0
  134.2660   70.9650  226.7770 C   0  0  0  0  0  0  0  0  0  0  0  0
  135.1640   69.9590  223.7120 C   0  0  0  0  0  0  0  0  0  0  0  0
  136.5870   69.7500  224.0790 C   0  0  0  0  0  0  0  0  0  0  0  0
  137.2180   71.1470  224.1770 C   0  0  0  0  0  0  0  0  0  0  0  0
  137.1950   71.7780  222.8830 N   0  0  0  0  0  0  0  0  0  0  0  0
  138.2680   72.4620  222.2770 C   0  0  0  0  0  0  0  0  0  0  0  0
  138.0980   73.0030  221.1230 O   0  0  0  0  0  0  0  0  0  0  0  0
  139.6160   72.6250  222.8570 C   0  0  2  0  0  0  0  0  0  0  0  0
  140.3430   73.4770  221.8880 N   0  0  0  0  0  0  0  0  0  0  0  0
  140.4080   71.3230  222.8970 C   0  0  0  0  0  0  0  0  0  0  0  0
  140.3410   70.7140  224.2610 C   0  0  0  0  0  0  0  0  0  0  0  0
  139.9180   69.3870  224.3840 C   0  0  0  0  0  0  0  0  0  0  0  0
  139.8610   68.8430  225.6370 C   0  0  0  0  0  0  0  0  0  0  0  0
  140.2080   69.5670  226.7610 C   0  0  0  0  0  0  0  0  0  0  0  0
  140.1330   68.8630  228.3770 Cl  0  0  0  0  0  0  0  0  0  0  0  0
  140.6310   70.8880  226.6530 C   0  0  0  0  0  0  0  0  0  0  0  0
  141.0720   71.8120  228.0780 Cl  0  0  0  0  0  0  0  0  0  0  0  0
  140.6900   71.4450  225.3820 C   0  0  0  0  0  0  0  0  0  0  0  0
  135.9260   71.6740  222.1470 C   0  0  0  0  0  0  0  0  0  0  0  0
  134.8620   71.3480  223.1730 C   0  0  0  0  0  0  0  0  0  0  0  0
  132.7564   65.7490  226.8761 H   0  0  0  0  0  0  0  0  0  0  0  0
  131.8929   66.0329  225.3267 H   0  0  0  0  0  0  0  0  0  0  0  0
  133.6652   65.7402  225.3267 H   0  0  0  0  0  0  0  0  0  0  0  0
  132.1141   68.2271  226.0782 H   0  0  0  0  0  0  0  0  0  0  0  0
  133.6675   67.8902  226.9233 H   0  0  0  0  0  0  0  0  0  0  0  0
  131.8468   70.5532  224.4572 H   0  0  0  0  0  0  0  0  0  0  0  0
  130.6462   72.1577  225.9120 H   0  0  0  0  0  0  0  0  0  0  0  0
  131.8096   73.0176  227.9773 H   0  0  0  0  0  0  0  0  0  0  0  0
  134.0835   72.2408  228.4878 H   0  0  0  0  0  0  0  0  0  0  0  0
  135.2847   70.6361  227.0301 H   0  0  0  0  0  0  0  0  0  0  0  0
  135.0244   69.2496  222.8830 H   0  0  0  0  0  0  0  0  0  0  0  0
  136.6584   69.2314  225.0464 H   0  0  0  0  0  0  0  0  0  0  0  0
  137.1048   69.1295  223.3328 H   0  0  0  0  0  0  0  0  0  0  0  0
  136.6473   71.7574  224.8924 H   0  0  0  0  0  0  0  0  0  0  0  0
  138.2589   71.0550  224.5207 H   0  0  0  0  0  0  0  0  0  0  0  0
  139.5183   73.0153  223.8808 H   0  0  0  0  0  0  0  0  0  0  0  0
  140.2560   72.9620  220.9710 H   0  0  0  0  0  0  0  0  0  0  0  0
  139.6990   74.3110  221.7720 H   0  0  0  0  0  0  0  0  0  0  0  0
  139.9857   70.6192  222.1647 H   0  0  0  0  0  0  0  0  0  0  0  0
  141.4590   71.5370  222.6529 H   0  0  0  0  0  0  0  0  0  0  0  0
  139.6391   68.7976  223.4981 H   0  0  0  0  0  0  0  0  0  0  0  0
  139.5298   67.8005  225.7532 H   0  0  0  0  0  0  0  0  0  0  0  0
  141.0207   72.4876  225.2647 H   0  0  0  0  0  0  0  0  0  0  0  0
  135.6954   72.6277  221.6498 H   0  0  0  0  0  0  0  0  0  0  0  0
  135.9793   70.8992  221.3680 H   0  0  0  0  0  0  0  0  0  0  0  0
  134.8897   72.0833  223.9907 H   0  0  0  0  0  0  0  0  0  0  0  0
  133.8605   71.3803  222.7191 H   0  0  0  0  0  0  0  0  0  0  0  0
  1  2  1  0
  2  3  1  0
  3  4  2  0
  3  5  1  0
  5  6  1  0
  6  7  2  0
  7  8  1  0
  8  9  2  0
  9 10  1  0
 10 11  2  0
  5 12  1  0
 12 13  1  0
 13 14  1  0
 14 15  1  0
 15 16  1  0
 16 17  2  0
 16 18  1  0
 18 19  1  0
 18 20  1  0
 20 21  1  0
 21 22  2  0
 22 23  1  0
 23 24  2  0
 24 25  1  0
 24 26  1  0
 26 27  1  0
 26 28  2  0
 15 29  1  0
 29 30  1  0
 11  6  1  0
 30 12  1  0
 28 21  1  0
  1 31  1  0
  1 32  1  0
  1 33  1  0
  2 34  1  0
  2 35  1  0
  7 36  1  0
  8 37  1  0
  9 38  1  0
 10 39  1  0
 11 40  1  0
 12 41  1  0
 13 42  1  0
 13 43  1  0
 14 44  1  0
 14 45  1  0
 18 46  1  1
 19 47  1  0
 19 48  1  0
 20 49  1  0
 20 50  1  0
 22 51  1  0
 23 52  1  0
 28 53  1  0
 29 54  1  0
 29 55  1  0
 30 56  1  0
 30 57  1  0
M  END
>  <smiles>  (34) 
CCC(=O)N(c1ccccc1)C1CCN(C(=O)[C@H](N)Cc2ccc(Cl)c(Cl)c2)CC1

>  <score_type>  (34) 
oracle

>  <origin>  (34) 
autodockgpu

>  <m_score__min__energy>  (34) 
-7.7000000000000002

>  <m_primary>  (34) 
energy

>  <rmsd>  (34) 
10.500955588344214

>  <m_score__min__rmsd>  (34) 
10.500955588344214

>  <meeko>  (34) 
{"free_energy": -6.91, "intermolecular_energy": -9.29, "internal_energy": -3.29, "cluster_size": 4, "cluster_id": 10, "rank_in_cluster": 1}

>  <energy>  (34) 
-6.97

>  <cluster_rmsd>  (34) 
0.22

>  <cluster>  (34) 
7

$$$$

     RDKit          3D

 57 59  0  0  0  0  0  0  0  0999 V2000
  137.9010   80.9020  224.2240 C   0  0  0  0  0  0  0  0  0  0  0  0
  137.3350   79.7140  223.4470 C   0  0  0  0  0  0  0  0  0  0  0  0
  138.0060   79.6080  222.1100 C   0  0  0  0  0  0  0  0  0  0  0  0
  137.3660   80.0690  221.1300 O   0  0  0  0  0  0  0  0  0  0  0  0
  139.2940   79.0170  222.0010 N   0  0  0  0  0  0  0  0  0  0  0  0
  140.4030   79.6920  222.5680 C   0  0  0  0  0  0  0  0  0  0  0  0
  141.0950   79.0280  223.5660 C   0  0  0  0  0  0  0  0  0  0  0  0
  142.1930   79.5720  224.2020 C   0  0  0  0  0  0  0  0  0  0  0  0
  142.6120   80.8450  223.8120 C   0  0  0  0  0  0  0  0  0  0  0  0
  141.9200   81.4970  222.8200 C   0  0  0  0  0  0  0  0  0  0  0  0
  140.8170   80.9510  222.1810 C   0  0  0  0  0  0  0  0  0  0  0  0
  139.3960   77.7420  221.3110 C   0  0  0  0  0  0  0  0  0  0  0  0
  138.9710   76.5640  222.1070 C   0  0  0  0  0  0  0  0  0  0  0  0
  140.2350   75.7240  222.3460 C   0  0  0  0  0  0  0  0  0  0  0  0
  140.7330   75.2350  221.0870 N   0  0  0  0  0  0  0  0  0  0  0  0
  141.1520   73.9170  220.8180 C   0  0  0  0  0  0  0  0  0  0  0  0
  141.6030   73.6240  219.6510 O   0  0  0  0  0  0  0  0  0  0  0  0
  141.1250   72.7970  221.7810 C   0  0  2  0  0  0  0  0  0  0  0  0
  141.4430   71.5970  220.9730 N   0  0  0  0  0  0  0  0  0  0  0  0
  139.7320   72.5290  222.3400 C   0  0  0  0  0  0  0  0  0  0  0  0
  139.8000   71.5350  223.4560 C   0  0  0  0  0  0  0  0  0  0  0  0
  139.3110   70.2440  223.2360 C   0  0  0  0  0  0  0  0  0  0  0  0
  139.3790   69.3460  224.2640 C   0  0  0  0  0  0  0  0  0  0  0  0
  139.9120   69.6840  225.4920 C   0  0  0  0  0  0  0  0  0  0  0  0
  139.9970   68.5240  226.8180 Cl  0  0  0  0  0  0  0  0  0  0  0  0
  140.4020   70.9650  225.7250 C   0  0  0  0  0  0  0  0  0  0  0  0
  141.0800   71.4010  227.2840 Cl  0  0  0  0  0  0  0  0  0  0  0  0
  140.3350   71.8810  224.6830 C   0  0  0  0  0  0  0  0  0  0  0  0
  140.7900   76.2230  219.9980 C   0  0  0  0  0  0  0  0  0  0  0  0
  140.7600   77.5860  220.6560 C   0  0  0  0  0  0  0  0  0  0  0  0
  137.8100   80.7110  225.3035 H   0  0  0  0  0  0  0  0  0  0  0  0
  138.9610   81.0388  223.9639 H   0  0  0  0  0  0  0  0  0  0  0  0
  137.3394   81.8114  223.9639 H   0  0  0  0  0  0  0  0  0  0  0  0
  137.5103   78.7895  224.0167 H   0  0  0  0  0  0  0  0  0  0  0  0
  136.2552   79.8618  223.2980 H   0  0  0  0  0  0  0  0  0  0  0  0
  140.7560   78.0251  223.8648 H   0  0  0  0  0  0  0  0  0  0  0  0
  142.7217   79.0189  224.9923 H   0  0  0  0  0  0  0  0  0  0  0  0
  143.4818   81.3184  224.2909 H   0  0  0  0  0  0  0  0  0  0  0  0
  142.2570   82.4997  222.5184 H   0  0  0  0  0  0  0  0  0  0  0  0
  140.2884   81.5037  221.3904 H   0  0  0  0  0  0  0  0  0  0  0  0
  138.6470   77.7685  220.5058 H   0  0  0  0  0  0  0  0  0  0  0  0
  138.5422   76.8879  223.0668 H   0  0  0  0  0  0  0  0  0  0  0  0
  138.1997   75.9833  221.5798 H   0  0  0  0  0  0  0  0  0  0  0  0
  141.0035   76.3470  222.8269 H   0  0  0  0  0  0  0  0  0  0  0  0
  139.9909   74.8728  222.9986 H   0  0  0  0  0  0  0  0  0  0  0  0
  141.8070   73.0252  222.6134 H   0  0  0  0  0  0  0  0  0  0  0  0
  140.7960   71.6640  220.1410 H   0  0  0  0  0  0  0  0  0  0  0  0
  142.3970   71.8250  220.5720 H   0  0  0  0  0  0  0  0  0  0  0  0
  139.3061   73.4700  222.7183 H   0  0  0  0  0  0  0  0  0  0  0  0
  139.0981   72.1224  221.5383 H   0  0  0  0  0  0  0  0  0  0  0  0
  138.8837   69.9591  222.2633 H   0  0  0  0  0  0  0  0  0  0  0  0
  138.9985   68.3256  224.1088 H   0  0  0  0  0  0  0  0  0  0  0  0
  140.7151   72.9017  224.8370 H   0  0  0  0  0  0  0  0  0  0  0  0
  141.7180   76.0996  219.4205 H   0  0  0  0  0  0  0  0  0  0  0  0
  139.9480   76.0978  219.3013 H   0  0  0  0  0  0  0  0  0  0  0  0
  141.5525   77.6548  221.4157 H   0  0  0  0  0  0  0  0  0  0  0  0
  140.9290   78.3804  219.9142 H   0  0  0  0  0  0  0  0  0  0  0  0
  1  2  1  0
  2  3  1  0
  3  4  2  0
  3  5  1  0
  5  6  1  0
  6  7  2  0
  7  8  1  0
  8  9  2  0
  9 10  1  0
 10 11  2  0
  5 12  1  0
 12 13  1  0
 13 14  1  0
 14 15  1  0
 15 16  1  0
 16 17  2  0
 16 18  1  0
 18 19  1  0
 18 20  1  0
 20 21  1  0
 21 22  2  0
 22 23  1  0
 23 24  2  0
 24 25  1  0
 24 26  1  0
 26 27  1  0
 26 28  2  0
 15 29  1  0
 29 30  1  0
 11  6  1  0
 30 12  1  0
 28 21  1  0
  1 31  1  0
  1 32  1  0
  1 33  1  0
  2 34  1  0
  2 35  1  0
  7 36  1  0
  8 37  1  0
  9 38  1  0
 10 39  1  0
 11 40  1  0
 12 41  1  0
 13 42  1  0
 13 43  1  0
 14 44  1  0
 14 45  1  0
 18 46  1  1
 19 47  1  0
 19 48  1  0
 20 49  1  0
 20 50  1  0
 22 51  1  0
 23 52  1  0
 28 53  1  0
 29 54  1  0
 29 55  1  0
 30 56  1  0
 30 57  1  0
M  END
>  <smiles>  (35) 
CCC(=O)N(c1ccccc1)C1CCN(C(=O)[C@H](N)Cc2ccc(Cl)c(Cl)c2)CC1

>  <score_type>  (35) 
oracle

>  <origin>  (35) 
autodockgpu

>  <m_score__min__energy>  (35) 
-7.7000000000000002

>  <m_primary>  (35) 
energy

>  <rmsd>  (35) 
8.114782555054985

>  <m_score__min__rmsd>  (35) 
8.114782555054985

>  <meeko>  (35) 
{"free_energy": -7.0, "intermolecular_energy": -9.39, "internal_energy": -2.92, "cluster_size": 10, "cluster_id": 7, "rank_in_cluster": 3}

>  <energy>  (35) 
-6.81

>  <cluster_rmsd>  (35) 
0.53

>  <cluster>  (35) 
7

$$$$

     RDKit          3D

 57 59  0  0  0  0  0  0  0  0999 V2000
  142.1640   80.0190  219.0470 C   0  0  0  0  0  0  0  0  0  0  0  0
  141.2970   78.7710  219.2160 C   0  0  0  0  0  0  0  0  0  0  0  0
  141.8890   77.8740  220.2620 C   0  0  0  0  0  0  0  0  0  0  0  0
  142.8260   77.1230  219.8840 O   0  0  0  0  0  0  0  0  0  0  0  0
  141.3940   77.9030  221.5940 N   0  0  0  0  0  0  0  0  0  0  0  0
  141.5910   79.0730  222.3680 C   0  0  0  0  0  0  0  0  0  0  0  0
  142.8900   79.3590  222.7490 C   0  0  0  0  0  0  0  0  0  0  0  0
  143.2200   80.4670  223.5050 C   0  0  0  0  0  0  0  0  0  0  0  0
  142.1900   81.3260  223.8920 C   0  0  0  0  0  0  0  0  0  0  0  0
  140.9040   81.0360  223.5090 C   0  0  0  0  0  0  0  0  0  0  0  0
  140.5710   79.9230  222.7500 C   0  0  0  0  0  0  0  0  0  0  0  0
  140.7050   76.7220  222.0850 C   0  0  0  0  0  0  0  0  0  0  0  0
  141.0510   75.4600  221.3840 C   0  0  0  0  0  0  0  0  0  0  0  0
  139.7820   75.0150  220.6420 C   0  0  0  0  0  0  0  0  0  0  0  0
  138.7480   74.7070  221.5960 N   0  0  0  0  0  0  0  0  0  0  0  0
  137.9180   73.5690  221.5780 C   0  0  0  0  0  0  0  0  0  0  0  0
  137.0140   73.4350  222.4820 O   0  0  0  0  0  0  0  0  0  0  0  0
  137.9860   72.4750  220.5890 C   0  0  2  0  0  0  0  0  0  0  0  0
  136.8450   71.5920  220.9240 N   0  0  0  0  0  0  0  0  0  0  0  0
  139.2200   71.5950  220.7600 C   0  0  0  0  0  0  0  0  0  0  0  0
  139.4880   71.3490  222.2110 C   0  0  0  0  0  0  0  0  0  0  0  0
  140.4550   72.1260  222.8550 C   0  0  0  0  0  0  0  0  0  0  0  0
  140.6910   71.8900  224.1810 C   0  0  0  0  0  0  0  0  0  0  0  0
  140.0050   70.9170  224.8810 C   0  0  0  0  0  0  0  0  0  0  0  0
  140.3120   70.6130  226.5910 Cl  0  0  0  0  0  0  0  0  0  0  0  0
  139.0410   70.1360  224.2510 C   0  0  0  0  0  0  0  0  0  0  0  0
  138.1670   68.8980  225.1350 Cl  0  0  0  0  0  0  0  0  0  0  0  0
  138.7980   70.3720  222.9040 C   0  0  0  0  0  0  0  0  0  0  0  0
  138.5730   75.6860  222.6810 C   0  0  0  0  0  0  0  0  0  0  0  0
  139.2100   76.9730  222.2030 C   0  0  0  0  0  0  0  0  0  0  0  0
  142.4373   80.4124  220.0372 H   0  0  0  0  0  0  0  0  0  0  0  0
  143.0768   79.7588  218.4911 H   0  0  0  0  0  0  0  0  0  0  0  0
  141.6016   80.7836  218.4911 H   0  0  0  0  0  0  0  0  0  0  0  0
  140.2839   79.0699  219.5232 H   0  0  0  0  0  0  0  0  0  0  0  0
  141.2519   78.2300  218.2593 H   0  0  0  0  0  0  0  0  0  0  0  0
  143.6934   78.6756  222.4369 H   0  0  0  0  0  0  0  0  0  0  0  0
  144.2627   80.6663  223.7933 H   0  0  0  0  0  0  0  0  0  0  0  0
  142.4053   82.2210  224.4942 H   0  0  0  0  0  0  0  0  0  0  0  0
  140.0989   81.7186  223.8186 H   0  0  0  0  0  0  0  0  0  0  0  0
  139.5283   79.7239  222.4617 H   0  0  0  0  0  0  0  0  0  0  0  0
  141.0876   76.5446  223.1010 H   0  0  0  0  0  0  0  0  0  0  0  0
  141.8687   75.6337  220.6691 H   0  0  0  0  0  0  0  0  0  0  0  0
  141.3897   74.6898  222.0926 H   0  0  0  0  0  0  0  0  0  0  0  0
  139.4409   75.8256  219.9812 H   0  0  0  0  0  0  0  0  0  0  0  0
  140.0042   74.1201  220.0421 H   0  0  0  0  0  0  0  0  0  0  0  0
  137.9934   72.9083  219.5780 H   0  0  0  0  0  0  0  0  0  0  0  0
  136.9980   71.3420  221.9380 H   0  0  0  0  0  0  0  0  0  0  0  0
  136.0240   72.2610  220.9480 H   0  0  0  0  0  0  0  0  0  0  0  0
  139.0519   70.6327  220.2542 H   0  0  0  0  0  0  0  0  0  0  0  0
  140.0876   72.1074  220.3187 H   0  0  0  0  0  0  0  0  0  0  0  0
  141.0099   72.9046  222.3110 H   0  0  0  0  0  0  0  0  0  0  0  0
  141.4483   72.4919  224.7047 H   0  0  0  0  0  0  0  0  0  0  0  0
  138.0420   69.7699  222.3786 H   0  0  0  0  0  0  0  0  0  0  0  0
  137.5031   75.8432  222.8825 H   0  0  0  0  0  0  0  0  0  0  0  0
  139.0373   75.3341  223.6140 H   0  0  0  0  0  0  0  0  0  0  0  0
  138.7975   77.2558  221.2233 H   0  0  0  0  0  0  0  0  0  0  0  0
  139.0076   77.7926  222.9082 H   0  0  0  0  0  0  0  0  0  0  0  0
  1  2  1  0
  2  3  1  0
  3  4  2  0
  3  5  1  0
  5  6  1  0
  6  7  2  0
  7  8  1  0
  8  9  2  0
  9 10  1  0
 10 11  2  0
  5 12  1  0
 12 13  1  0
 13 14  1  0
 14 15  1  0
 15 16  1  0
 16 17  2  0
 16 18  1  0
 18 19  1  0
 18 20  1  0
 20 21  1  0
 21 22  2  0
 22 23  1  0
 23 24  2  0
 24 25  1  0
 24 26  1  0
 26 27  1  0
 26 28  2  0
 15 29  1  0
 29 30  1  0
 11  6  1  0
 30 12  1  0
 28 21  1  0
  1 31  1  0
  1 32  1  0
  1 33  1  0
  2 34  1  0
  2 35  1  0
  7 36  1  0
  8 37  1  0
  9 38  1  0
 10 39  1  0
 11 40  1  0
 12 41  1  0
 13 42  1  0
 13 43  1  0
 14 44  1  0
 14 45  1  0
 18 46  1  6
 19 47  1  0
 19 48  1  0
 20 49  1  0
 20 50  1  0
 22 51  1  0
 23 52  1  0
 28 53  1  0
 29 54  1  0
 29 55  1  0
 30 56  1  0
 30 57  1  0
M  END
>  <smiles>  (36) 
CCC(=O)N(c1ccccc1)C1CCN(C(=O)[C@H](N)Cc2ccc(Cl)c(Cl)c2)CC1

>  <score_type>  (36) 
oracle

>  <origin>  (36) 
autodockgpu

>  <m_score__min__energy>  (36) 
-7.7000000000000002

>  <m_primary>  (36) 
energy

>  <rmsd>  (36) 
7.49156630775345

>  <m_score__min__rmsd>  (36) 
7.49156630775345

>  <meeko>  (36) 
{"free_energy": -6.35, "intermolecular_energy": -8.74, "internal_energy": -3.27, "cluster_size": 20, "cluster_id": 3, "rank_in_cluster": 20}

>  <energy>  (36) 
-6.81

>  <cluster_rmsd>  (36) 
1.42

>  <cluster>  (36) 
7

$$$$

     RDKit          3D

 57 59  0  0  0  0  0  0  0  0999 V2000
  136.6890   71.0430  223.8260 C   0  0  0  0  0  0  0  0  0  0  0  0
  136.8880   69.7110  224.5470 C   0  0  0  0  0  0  0  0  0  0  0  0
  138.1950   69.0980  224.1390 C   0  0  0  0  0  0  0  0  0  0  0  0
  138.1250   68.0210  223.4910 O   0  0  0  0  0  0  0  0  0  0  0  0
  139.4210   69.7300  224.4830 N   0  0  0  0  0  0  0  0  0  0  0  0
  139.8910   69.6240  225.8140 C   0  0  0  0  0  0  0  0  0  0  0  0
  140.2290   68.3570  226.2580 C   0  0  0  0  0  0  0  0  0  0  0  0
  140.7000   68.1140  227.5330 C   0  0  0  0  0  0  0  0  0  0  0  0
  140.8360   69.2000  228.4000 C   0  0  0  0  0  0  0  0  0  0  0  0
  140.4990   70.4530  227.9510 C   0  0  0  0  0  0  0  0  0  0  0  0
  140.0260   70.6990  226.6700 C   0  0  0  0  0  0  0  0  0  0  0  0
  140.1250   70.4520  223.4360 C   0  0  0  0  0  0  0  0  0  0  0  0
  140.3710   71.8870  223.7240 C   0  0  0  0  0  0  0  0  0  0  0  0
  139.5270   72.6810  222.7140 C   0  0  0  0  0  0  0  0  0  0  0  0
  140.0030   72.4220  221.3800 N   0  0  0  0  0  0  0  0  0  0  0  0
  140.2410   73.3890  220.3830 C   0  0  0  0  0  0  0  0  0  0  0  0
  140.6410   73.0120  219.2220 O   0  0  0  0  0  0  0  0  0  0  0  0
  140.0700   74.8460  220.5470 C   0  0  2  0  0  0  0  0  0  0  0  0
  140.4810   75.4230  219.2460 N   0  0  0  0  0  0  0  0  0  0  0  0
  141.0380   75.4480  221.5600 C   0  0  0  0  0  0  0  0  0  0  0  0
  140.4810   76.7160  222.1260 C   0  0  0  0  0  0  0  0  0  0  0  0
  139.0970   76.8260  222.2870 C   0  0  0  0  0  0  0  0  0  0  0  0
  138.6000   77.9910  222.8040 C   0  0  0  0  0  0  0  0  0  0  0  0
  139.4260   79.0380  223.1620 C   0  0  0  0  0  0  0  0  0  0  0  0
  138.7830   80.5400  223.8280 Cl  0  0  0  0  0  0  0  0  0  0  0  0
  140.8050   78.9420  223.0060 C   0  0  0  0  0  0  0  0  0  0  0  0
  141.8580   80.2700  223.4590 Cl  0  0  0  0  0  0  0  0  0  0  0  0
  141.3140   77.7600  222.4810 C   0  0  0  0  0  0  0  0  0  0  0  0
  140.2640   71.0090  221.0610 C   0  0  0  0  0  0  0  0  0  0  0  0
  139.4950   70.1920  222.0770 C   0  0  0  0  0  0  0  0  0  0  0  0
  136.5689   71.8468  224.5673 H   0  0  0  0  0  0  0  0  0  0  0  0
  137.5657   71.2534  223.1958 H   0  0  0  0  0  0  0  0  0  0  0  0
  135.7891   70.9879  223.1958 H   0  0  0  0  0  0  0  0  0  0  0  0
  136.8889   69.8814  225.6337 H   0  0  0  0  0  0  0  0  0  0  0  0
  136.0688   69.0282  224.2775 H   0  0  0  0  0  0  0  0  0  0  0  0
  140.1177   67.5088  225.5664 H   0  0  0  0  0  0  0  0  0  0  0  0
  140.9603   67.0952  227.8561 H   0  0  0  0  0  0  0  0  0  0  0  0
  141.2068   69.0542  229.4253 H   0  0  0  0  0  0  0  0  0  0  0  0
  140.6093   71.3031  228.6403 H   0  0  0  0  0  0  0  0  0  0  0  0
  139.7668   71.7180  226.3467 H   0  0  0  0  0  0  0  0  0  0  0  0
  141.1431   70.0364  223.4076 H   0  0  0  0  0  0  0  0  0  0  0  0
  140.0612   72.1277  224.7517 H   0  0  0  0  0  0  0  0  0  0  0  0
  141.4389   72.1351  223.6349 H   0  0  0  0  0  0  0  0  0  0  0  0
  138.4741   72.3725  222.7937 H   0  0  0  0  0  0  0  0  0  0  0  0
  139.6123   73.7560  222.9308 H   0  0  0  0  0  0  0  0  0  0  0  0
  139.0393   75.0493  220.8729 H   0  0  0  0  0  0  0  0  0  0  0  0
  141.4400   75.0180  219.0730 H   0  0  0  0  0  0  0  0  0  0  0  0
  139.8610   74.9150  218.5530 H   0  0  0  0  0  0  0  0  0  0  0  0
  141.2022   74.7286  222.3758 H   0  0  0  0  0  0  0  0  0  0  0  0
  141.9892   75.6711  221.0547 H   0  0  0  0  0  0  0  0  0  0  0  0
  138.4270   76.0000  222.0062 H   0  0  0  0  0  0  0  0  0  0  0  0
  137.5133   78.0965  222.9381 H   0  0  0  0  0  0  0  0  0  0  0  0
  142.4004   77.6535  222.3455 H   0  0  0  0  0  0  0  0  0  0  0  0
  139.9145   70.7778  220.0439 H   0  0  0  0  0  0  0  0  0  0  0  0
  141.3400   70.7836  221.1003 H   0  0  0  0  0  0  0  0  0  0  0  0
  138.4391   70.5001  222.0864 H   0  0  0  0  0  0  0  0  0  0  0  0
  139.5355   69.1215  221.8272 H   0  0  0  0  0  0  0  0  0  0  0  0
  1  2  1  0
  2  3  1  0
  3  4  2  0
  3  5  1  0
  5  6  1  0
  6  7  2  0
  7  8  1  0
  8  9  2  0
  9 10  1  0
 10 11  2  0
  5 12  1  0
 12 13  1  0
 13 14  1  0
 14 15  1  0
 15 16  1  0
 16 17  2  0
 16 18  1  0
 18 19  1  0
 18 20  1  0
 20 21  1  0
 21 22  2  0
 22 23  1  0
 23 24  2  0
 24 25  1  0
 24 26  1  0
 26 27  1  0
 26 28  2  0
 15 29  1  0
 29 30  1  0
 11  6  1  0
 30 12  1  0
 28 21  1  0
  1 31  1  0
  1 32  1  0
  1 33  1  0
  2 34  1  0
  2 35  1  0
  7 36  1  0
  8 37  1  0
  9 38  1  0
 10 39  1  0
 11 40  1  0
 12 41  1  0
 13 42  1  0
 13 43  1  0
 14 44  1  0
 14 45  1  0
 18 46  1  1
 19 47  1  0
 19 48  1  0
 20 49  1  0
 20 50  1  0
 22 51  1  0
 23 52  1  0
 28 53  1  0
 29 54  1  0
 29 55  1  0
 30 56  1  0
 30 57  1  0
M  END
>  <smiles>  (37) 
CCC(=O)N(c1ccccc1)C1CCN(C(=O)[C@H](N)Cc2ccc(Cl)c(Cl)c2)CC1

>  <score_type>  (37) 
oracle

>  <origin>  (37) 
autodockgpu

>  <m_score__min__energy>  (37) 
-7.7000000000000002

>  <m_primary>  (37) 
energy

>  <rmsd>  (37) 
6.20794901726427

>  <m_score__min__rmsd>  (37) 
6.20794901726427

>  <meeko>  (37) 
{"free_energy": -6.91, "intermolecular_energy": -9.3, "internal_energy": -2.91, "cluster_size": 1, "cluster_id": 9, "rank_in_cluster": 1}

>  <energy>  (37) 
-6.79

>  <cluster_rmsd>  (37) 
0.55

>  <cluster>  (37) 
7

$$$$

     RDKit          3D

 57 59  0  0  0  0  0  0  0  0999 V2000
  146.1180   73.0230  221.7310 C   0  0  0  0  0  0  0  0  0  0  0  0
  146.3990   73.8300  220.4640 C   0  0  0  0  0  0  0  0  0  0  0  0
  145.5010   73.3710  219.3540 C   0  0  0  0  0  0  0  0  0  0  0  0
  145.9240   72.4110  218.6590 O   0  0  0  0  0  0  0  0  0  0  0  0
  144.2500   74.0090  219.1350 N   0  0  0  0  0  0  0  0  0  0  0  0
  144.0040   74.6110  217.8760 C   0  0  0  0  0  0  0  0  0  0  0  0
  144.0560   73.7840  216.7680 C   0  0  0  0  0  0  0  0  0  0  0  0
  143.8370   74.2420  215.4840 C   0  0  0  0  0  0  0  0  0  0  0  0
  143.5510   75.5980  215.3120 C   0  0  0  0  0  0  0  0  0  0  0  0
  143.5010   76.4110  216.4180 C   0  0  0  0  0  0  0  0  0  0  0  0
  143.7220   75.9510  217.7080 C   0  0  0  0  0  0  0  0  0  0  0  0
  143.2880   74.0020  220.2240 C   0  0  0  0  0  0  0  0  0  0  0  0
  142.9380   72.6550  220.7410 C   0  0  0  0  0  0  0  0  0  0  0  0
  141.4620   72.4240  220.3850 C   0  0  0  0  0  0  0  0  0  0  0  0
  140.6420   73.3800  221.0860 N   0  0  0  0  0  0  0  0  0  0  0  0
  139.4530   73.0950  221.7850 C   0  0  0  0  0  0  0  0  0  0  0  0
  138.8060   74.0540  222.3440 O   0  0  0  0  0  0  0  0  0  0  0  0
  138.8550   71.7540  221.9460 C   0  0  2  0  0  0  0  0  0  0  0  0
  137.9650   71.8770  223.1240 N   0  0  0  0  0  0  0  0  0  0  0  0
  139.8750   70.6910  222.3410 C   0  0  0  0  0  0  0  0  0  0  0  0
  139.8140   70.4310  223.8120 C   0  0  0  0  0  0  0  0  0  0  0  0
  139.1210   69.3050  224.2660 C   0  0  0  0  0  0  0  0  0  0  0  0
  139.0730   69.0790  225.6140 C   0  0  0  0  0  0  0  0  0  0  0  0
  139.6840   69.9270  226.5160 C   0  0  0  0  0  0  0  0  0  0  0  0
  139.6190   69.6340  228.2540 Cl  0  0  0  0  0  0  0  0  0  0  0  0
  140.3760   71.0510  226.0780 C   0  0  0  0  0  0  0  0  0  0  0  0
  141.1540   72.1320  227.2200 Cl  0  0  0  0  0  0  0  0  0  0  0  0
  140.4280   71.2840  224.7100 C   0  0  0  0  0  0  0  0  0  0  0  0
  141.1230   74.7700  221.0570 C   0  0  0  0  0  0  0  0  0  0  0  0
  142.0830   74.8680  219.8910 C   0  0  0  0  0  0  0  0  0  0  0  0
  146.3333   73.6414  222.6149 H   0  0  0  0  0  0  0  0  0  0  0  0
  145.0610   72.7187  221.7450 H   0  0  0  0  0  0  0  0  0  0  0  0
  146.7574   72.1280  221.7450 H   0  0  0  0  0  0  0  0  0  0  0  0
  146.2162   74.8963  220.6632 H   0  0  0  0  0  0  0  0  0  0  0  0
  147.4472   73.6806  220.1657 H   0  0  0  0  0  0  0  0  0  0  0  0
  144.2811   72.7175  216.9162 H   0  0  0  0  0  0  0  0  0  0  0  0
  143.8863   73.5595  214.6227 H   0  0  0  0  0  0  0  0  0  0  0  0
  143.3688   76.0081  214.3077 H   0  0  0  0  0  0  0  0  0  0  0  0
  143.2749   77.4778  216.2740 H   0  0  0  0  0  0  0  0  0  0  0  0
  143.6739   76.6331  218.5696 H   0  0  0  0  0  0  0  0  0  0  0  0
  143.7955   74.4637  221.0838 H   0  0  0  0  0  0  0  0  0  0  0  0
  143.5684   71.8893  220.2653 H   0  0  0  0  0  0  0  0  0  0  0  0
  143.1013   72.5898  221.8269 H   0  0  0  0  0  0  0  0  0  0  0  0
  141.3230   72.5473  219.3008 H   0  0  0  0  0  0  0  0  0  0  0  0
  141.1695   71.4053  220.6794 H   0  0  0  0  0  0  0  0  0  0  0  0
  138.3808   71.4592  220.9982 H   0  0  0  0  0  0  0  0  0  0  0  0
  138.5360   72.4220  223.8260 H   0  0  0  0  0  0  0  0  0  0  0  0
  137.2330   72.5700  222.7990 H   0  0  0  0  0  0  0  0  0  0  0  0
  139.6559   69.7593  221.7989 H   0  0  0  0  0  0  0  0  0  0  0  0
  140.8824   71.0502  222.0837 H   0  0  0  0  0  0  0  0  0  0  0  0
  138.6286   68.6206  223.5595 H   0  0  0  0  0  0  0  0  0  0  0  0
  138.5328   68.1975  225.9898 H   0  0  0  0  0  0  0  0  0  0  0  0
  140.9685   72.1649  224.3334 H   0  0  0  0  0  0  0  0  0  0  0  0
  140.2794   75.4612  220.9138 H   0  0  0  0  0  0  0  0  0  0  0  0
  141.6163   75.0401  222.0024 H   0  0  0  0  0  0  0  0  0  0  0  0
  141.5990   74.5029  218.9731 H   0  0  0  0  0  0  0  0  0  0  0  0
  142.3875   75.9117  219.7237 H   0  0  0  0  0  0  0  0  0  0  0  0
  1  2  1  0
  2  3  1  0
  3  4  2  0
  3  5  1  0
  5  6  1  0
  6  7  2  0
  7  8  1  0
  8  9  2  0
  9 10  1  0
 10 11  2  0
  5 12  1  0
 12 13  1  0
 13 14  1  0
 14 15  1  0
 15 16  1  0
 16 17  2  0
 16 18  1  0
 18 19  1  0
 18 20  1  0
 20 21  1  0
 21 22  2  0
 22 23  1  0
 23 24  2  0
 24 25  1  0
 24 26  1  0
 26 27  1  0
 26 28  2  0
 15 29  1  0
 29 30  1  0
 11  6  1  0
 30 12  1  0
 28 21  1  0
  1 31  1  0
  1 32  1  0
  1 33  1  0
  2 34  1  0
  2 35  1  0
  7 36  1  0
  8 37  1  0
  9 38  1  0
 10 39  1  0
 11 40  1  0
 12 41  1  0
 13 42  1  0
 13 43  1  0
 14 44  1  0
 14 45  1  0
 18 46  1  6
 19 47  1  0
 19 48  1  0
 20 49  1  0
 20 50  1  0
 22 51  1  0
 23 52  1  0
 28 53  1  0
 29 54  1  0
 29 55  1  0
 30 56  1  0
 30 57  1  0
M  END
>  <smiles>  (38) 
CCC(=O)N(c1ccccc1)C1CCN(C(=O)[C@H](N)Cc2ccc(Cl)c(Cl)c2)CC1

>  <score_type>  (38) 
oracle

>  <origin>  (38) 
autodockgpu

>  <m_score__min__energy>  (38) 
-7.7000000000000002

>  <m_primary>  (38) 
energy

>  <rmsd>  (38) 
8.814903464166688

>  <m_score__min__rmsd>  (38) 
8.814903464166688

>  <meeko>  (38) 
{"free_energy": -7.7, "intermolecular_energy": -10.09, "internal_energy": -2.66, "cluster_size": 1, "cluster_id": 1, "rank_in_cluster": 1}

>  <energy>  (38) 
-6.72

>  <cluster_rmsd>  (38) 
1.58

>  <cluster>  (38) 
7

$$$$

     RDKit          3D

 57 59  0  0  0  0  0  0  0  0999 V2000
  143.1230   76.2990  219.7390 C   0  0  0  0  0  0  0  0  0  0  0  0
  142.2930   77.4260  219.1250 C   0  0  0  0  0  0  0  0  0  0  0  0
  140.9410   77.4780  219.7740 C   0  0  0  0  0  0  0  0  0  0  0  0
  139.9520   77.3500  219.0060 O   0  0  0  0  0  0  0  0  0  0  0  0
  140.8280   77.6600  221.1790 N   0  0  0  0  0  0  0  0  0  0  0  0
  141.4020   78.8150  221.7640 C   0  0  0  0  0  0  0  0  0  0  0  0
  141.7340   78.7370  223.1060 C   0  0  0  0  0  0  0  0  0  0  0  0
  142.2990   79.7890  223.7980 C   0  0  0  0  0  0  0  0  0  0  0  0
  142.5410   80.9750  223.1020 C   0  0  0  0  0  0  0  0  0  0  0  0
  142.2090   81.0450  221.7720 C   0  0  0  0  0  0  0  0  0  0  0  0
  141.6410   79.9870  221.0760 C   0  0  0  0  0  0  0  0  0  0  0  0
  140.1200   76.6420  221.9380 C   0  0  0  0  0  0  0  0  0  0  0  0
  140.7760   75.3100  221.9590 C   0  0  0  0  0  0  0  0  0  0  0  0
  139.8500   74.3600  221.1850 C   0  0  0  0  0  0  0  0  0  0  0  0
  138.5960   74.2340  221.8810 N   0  0  0  0  0  0  0  0  0  0  0  0
  137.9130   73.0300  222.1440 C   0  0  0  0  0  0  0  0  0  0  0  0
  136.7830   73.0680  222.7560 O   0  0  0  0  0  0  0  0  0  0  0  0
  138.3830   71.6810  221.7740 C   0  0  2  0  0  0  0  0  0  0  0  0
  137.5810   70.7590  222.6100 N   0  0  0  0  0  0  0  0  0  0  0  0
  139.8280   71.4200  222.1860 C   0  0  0  0  0  0  0  0  0  0  0  0
  139.8770   70.7840  223.5390 C   0  0  0  0  0  0  0  0  0  0  0  0
  139.5670   69.4270  223.6540 C   0  0  0  0  0  0  0  0  0  0  0  0
  139.6150   68.8580  224.8970 C   0  0  0  0  0  0  0  0  0  0  0  0
  139.9590   69.5880  226.0180 C   0  0  0  0  0  0  0  0  0  0  0  0
  140.0190   68.8530  227.6200 Cl  0  0  0  0  0  0  0  0  0  0  0  0
  140.2690   70.9400  225.9170 C   0  0  0  0  0  0  0  0  0  0  0  0
  140.7060   71.8720  227.3390 Cl  0  0  0  0  0  0  0  0  0  0  0  0
  140.2210   71.5220  224.6570 C   0  0  0  0  0  0  0  0  0  0  0  0
  138.0040   75.4940  222.3580 C   0  0  0  0  0  0  0  0  0  0  0  0
  138.6500   76.6010  221.5520 C   0  0  0  0  0  0  0  0  0  0  0  0
  143.0751   76.3641  220.8360 H   0  0  0  0  0  0  0  0  0  0  0  0
  142.7225   75.3283  219.4114 H   0  0  0  0  0  0  0  0  0  0  0  0
  144.1688   76.3935  219.4114 H   0  0  0  0  0  0  0  0  0  0  0  0
  142.8090   78.3850  219.2803 H   0  0  0  0  0  0  0  0  0  0  0  0
  142.1702   77.2393  218.0479 H   0  0  0  0  0  0  0  0  0  0  0  0
  141.5392   77.7970  223.6432 H   0  0  0  0  0  0  0  0  0  0  0  0
  142.5508   79.6960  224.8647 H   0  0  0  0  0  0  0  0  0  0  0  0
  142.9908   81.8399  223.6117 H   0  0  0  0  0  0  0  0  0  0  0  0
  142.4022   81.9838  221.2323 H   0  0  0  0  0  0  0  0  0  0  0  0
  141.3892   80.0799  220.0092 H   0  0  0  0  0  0  0  0  0  0  0  0
  140.1727   76.9517  222.9922 H   0  0  0  0  0  0  0  0  0  0  0  0
  141.7607   75.3629  221.4715 H   0  0  0  0  0  0  0  0  0  0  0  0
  140.9363   74.9599  222.9894 H   0  0  0  0  0  0  0  0  0  0  0  0
  139.6706   74.7638  220.1777 H   0  0  0  0  0  0  0  0  0  0  0  0
  140.3249   73.3709  221.1062 H   0  0  0  0  0  0  0  0  0  0  0  0
  138.2953   71.5602  220.6842 H   0  0  0  0  0  0  0  0  0  0  0  0
  137.5950   71.1980  223.5700 H   0  0  0  0  0  0  0  0  0  0  0  0
  136.5920   70.9250  222.2690 H   0  0  0  0  0  0  0  0  0  0  0  0
  140.2985   70.7487  221.4526 H   0  0  0  0  0  0  0  0  0  0  0  0
  140.3677   72.3778  222.2219 H   0  0  0  0  0  0  0  0  0  0  0  0
  139.2921   68.8327  222.7701 H   0  0  0  0  0  0  0  0  0  0  0  0
  139.3732   67.7905  225.0068 H   0  0  0  0  0  0  0  0  0  0  0  0
  140.4610   72.5898  224.5461 H   0  0  0  0  0  0  0  0  0  0  0  0
  136.9162   75.4893  222.1946 H   0  0  0  0  0  0  0  0  0  0  0  0
  138.1755   75.6327  223.4357 H   0  0  0  0  0  0  0  0  0  0  0  0
  138.5488   76.3922  220.4768 H   0  0  0  0  0  0  0  0  0  0  0  0
  138.1658   77.5669  221.7586 H   0  0  0  0  0  0  0  0  0  0  0  0
  1  2  1  0
  2  3  1  0
  3  4  2  0
  3  5  1  0
  5  6  1  0
  6  7  2  0
  7  8  1  0
  8  9  2  0
  9 10  1  0
 10 11  2  0
  5 12  1  0
 12 13  1  0
 13 14  1  0
 14 15  1  0
 15 16  1  0
 16 17  2  0
 16 18  1  0
 18 19  1  0
 18 20  1  0
 20 21  1  0
 21 22  2  0
 22 23  1  0
 23 24  2  0
 24 25  1  0
 24 26  1  0
 26 27  1  0
 26 28  2  0
 15 29  1  0
 29 30  1  0
 11  6  1  0
 30 12  1  0
 28 21  1  0
  1 31  1  0
  1 32  1  0
  1 33  1  0
  2 34  1  0
  2 35  1  0
  7 36  1  0
  8 37  1  0
  9 38  1  0
 10 39  1  0
 11 40  1  0
 12 41  1  0
 13 42  1  0
 13 43  1  0
 14 44  1  0
 14 45  1  0
 18 46  1  6
 19 47  1  0
 19 48  1  0
 20 49  1  0
 20 50  1  0
 22 51  1  0
 23 52  1  0
 28 53  1  0
 29 54  1  0
 29 55  1  0
 30 56  1  0
 30 57  1  0
M  END
>  <smiles>  (39) 
CCC(=O)N(c1ccccc1)C1CCN(C(=O)[C@H](N)Cc2ccc(Cl)c(Cl)c2)CC1

>  <score_type>  (39) 
oracle

>  <origin>  (39) 
autodockgpu

>  <m_score__min__energy>  (39) 
-7.7000000000000002

>  <m_primary>  (39) 
energy

>  <rmsd>  (39) 
8.62619991504478

>  <m_score__min__rmsd>  (39) 
8.62619991504478

>  <meeko>  (39) 
{"free_energy": -7.26, "intermolecular_energy": -9.64, "internal_energy": -2.6, "cluster_size": 20, "cluster_id": 3, "rank_in_cluster": 5}

>  <energy>  (39) 
-6.98

>  <cluster_rmsd>  (39) 
0.0

>  <cluster>  (39) 
8

$$$$

     RDKit          3D

 57 59  0  0  0  0  0  0  0  0999 V2000
  141.0850   76.9810  221.3000 C   0  0  0  0  0  0  0  0  0  0  0  0
  141.3140   76.7180  219.8120 C   0  0  0  0  0  0  0  0  0  0  0  0
  142.5690   75.9200  219.6200 C   0  0  0  0  0  0  0  0  0  0  0  0
  143.5430   76.5310  219.1080 O   0  0  0  0  0  0  0  0  0  0  0  0
  142.6160   74.5540  220.0110 N   0  0  0  0  0  0  0  0  0  0  0  0
  143.8790   73.9310  220.1590 C   0  0  0  0  0  0  0  0  0  0  0  0
  144.0290   72.6790  219.5870 C   0  0  0  0  0  0  0  0  0  0  0  0
  145.2080   71.9630  219.6570 C   0  0  0  0  0  0  0  0  0  0  0  0
  146.2840   72.5370  220.3360 C   0  0  0  0  0  0  0  0  0  0  0  0
  146.1260   73.7790  220.9010 C   0  0  0  0  0  0  0  0  0  0  0  0
  144.9430   74.4990  220.8310 C   0  0  0  0  0  0  0  0  0  0  0  0
  141.3520   73.8730  220.2420 C   0  0  0  0  0  0  0  0  0  0  0  0
  141.1480   73.3880  221.6300 C   0  0  0  0  0  0  0  0  0  0  0  0
  141.1420   71.8540  221.5550 C   0  0  0  0  0  0  0  0  0  0  0  0
  140.0140   71.4140  220.7740 N   0  0  0  0  0  0  0  0  0  0  0  0
  139.1250   70.3760  221.1170 C   0  0  0  0  0  0  0  0  0  0  0  0
  138.1730   70.0700  220.3100 O   0  0  0  0  0  0  0  0  0  0  0  0
  139.1800   69.5750  222.3570 C   0  0  2  0  0  0  0  0  0  0  0  0
  138.3140   68.4050  222.0890 N   0  0  0  0  0  0  0  0  0  0  0  0
  138.5300   70.2750  223.5460 C   0  0  0  0  0  0  0  0  0  0  0  0
  139.1690   69.8340  224.8240 C   0  0  0  0  0  0  0  0  0  0  0  0
  139.1780   68.4710  225.1340 C   0  0  0  0  0  0  0  0  0  0  0  0
  139.7650   68.0810  226.3060 C   0  0  0  0  0  0  0  0  0  0  0  0
  140.3370   68.9920  227.1710 C   0  0  0  0  0  0  0  0  0  0  0  0
  141.0920   68.4870  228.6830 Cl  0  0  0  0  0  0  0  0  0  0  0  0
  140.3340   70.3520  226.8750 C   0  0  0  0  0  0  0  0  0  0  0  0
  141.0600   71.5140  227.9720 Cl  0  0  0  0  0  0  0  0  0  0  0  0
  139.7390   70.7520  225.6860 C   0  0  0  0  0  0  0  0  0  0  0  0
  139.7910   72.1400  219.5150 C   0  0  0  0  0  0  0  0  0  0  0  0
  141.1000   72.8200  219.1750 C   0  0  0  0  0  0  0  0  0  0  0  0
  141.6931   76.2826  221.8936 H   0  0  0  0  0  0  0  0  0  0  0  0
  141.3759   78.0146  221.5387 H   0  0  0  0  0  0  0  0  0  0  0  0
  140.0212   76.8351  221.5387 H   0  0  0  0  0  0  0  0  0  0  0  0
  140.4596   76.1569  219.4054 H   0  0  0  0  0  0  0  0  0  0  0  0
  141.4130   77.6791  219.2862 H   0  0  0  0  0  0  0  0  0  0  0  0
  143.1740   72.2364  219.0550 H   0  0  0  0  0  0  0  0  0  0  0  0
  145.2964   70.9702  219.1916 H   0  0  0  0  0  0  0  0  0  0  0  0
  147.2426   72.0036  220.4173 H   0  0  0  0  0  0  0  0  0  0  0  0
  146.9789   74.2238  221.4346 H   0  0  0  0  0  0  0  0  0  0  0  0
  144.8550   75.4918  221.2964 H   0  0  0  0  0  0  0  0  0  0  0  0
  140.5674   74.6371  220.1390 H   0  0  0  0  0  0  0  0  0  0  0  0
  141.9663   73.7343  222.2784 H   0  0  0  0  0  0  0  0  0  0  0  0
  140.2075   73.7710  222.0528 H   0  0  0  0  0  0  0  0  0  0  0  0
  142.0726   71.5067  221.0824 H   0  0  0  0  0  0  0  0  0  0  0  0
  141.0682   71.4383  222.5707 H   0  0  0  0  0  0  0  0  0  0  0  0
  140.2321   69.3636  222.5987 H   0  0  0  0  0  0  0  0  0  0  0  0
  137.3580   68.8210  221.9200 H   0  0  0  0  0  0  0  0  0  0  0  0
  138.6270   68.0900  221.1270 H   0  0  0  0  0  0  0  0  0  0  0  0
  138.6513   71.3628  223.4367 H   0  0  0  0  0  0  0  0  0  0  0  0
  137.4616   70.0144  223.5729 H   0  0  0  0  0  0  0  0  0  0  0  0
  138.7259   67.7333  224.4548 H   0  0  0  0  0  0  0  0  0  0  0  0
  139.7818   67.0124  226.5664 H   0  0  0  0  0  0  0  0  0  0  0  0
  139.7208   71.8204  225.4249 H   0  0  0  0  0  0  0  0  0  0  0  0
  139.5083   71.4384  218.7164 H   0  0  0  0  0  0  0  0  0  0  0  0
  138.9763   72.8721  219.6162 H   0  0  0  0  0  0  0  0  0  0  0  0
  141.9172   72.0837  219.1722 H   0  0  0  0  0  0  0  0  0  0  0  0
  141.0525   73.2800  218.1770 H   0  0  0  0  0  0  0  0  0  0  0  0
  1  2  1  0
  2  3  1  0
  3  4  2  0
  3  5  1  0
  5  6  1  0
  6  7  2  0
  7  8  1  0
  8  9  2  0
  9 10  1  0
 10 11  2  0
  5 12  1  0
 12 13  1  0
 13 14  1  0
 14 15  1  0
 15 16  1  0
 16 17  2  0
 16 18  1  0
 18 19  1  0
 18 20  1  0
 20 21  1  0
 21 22  2  0
 22 23  1  0
 23 24  2  0
 24 25  1  0
 24 26  1  0
 26 27  1  0
 26 28  2  0
 15 29  1  0
 29 30  1  0
 11  6  1  0
 30 12  1  0
 28 21  1  0
  1 31  1  0
  1 32  1  0
  1 33  1  0
  2 34  1  0
  2 35  1  0
  7 36  1  0
  8 37  1  0
  9 38  1  0
 10 39  1  0
 11 40  1  0
 12 41  1  0
 13 42  1  0
 13 43  1  0
 14 44  1  0
 14 45  1  0
 18 46  1  1
 19 47  1  0
 19 48  1  0
 20 49  1  0
 20 50  1  0
 22 51  1  0
 23 52  1  0
 28 53  1  0
 29 54  1  0
 29 55  1  0
 30 56  1  0
 30 57  1  0
M  END
>  <smiles>  (40) 
CCC(=O)N(c1ccccc1)C1CCN(C(=O)[C@H](N)Cc2ccc(Cl)c(Cl)c2)CC1

>  <score_type>  (40) 
oracle

>  <origin>  (40) 
autodockgpu

>  <m_score__min__energy>  (40) 
-7.7000000000000002

>  <m_primary>  (40) 
energy

>  <rmsd>  (40) 
9.730131878721677

>  <m_score__min__rmsd>  (40) 
9.730131878721677

>  <meeko>  (40) 
{"free_energy": -7.05, "intermolecular_energy": -9.44, "internal_energy": -2.77, "cluster_size": 2, "cluster_id": 6, "rank_in_cluster": 1}

>  <energy>  (40) 
-6.91

>  <cluster_rmsd>  (40) 
0.0

>  <cluster>  (40) 
9

$$$$

     RDKit          3D

 57 59  0  0  0  0  0  0  0  0999 V2000
  139.1900   66.3670  222.5260 C   0  0  0  0  0  0  0  0  0  0  0  0
  138.5380   67.7000  222.8920 C   0  0  0  0  0  0  0  0  0  0  0  0
  139.1630   68.2490  224.1400 C   0  0  0  0  0  0  0  0  0  0  0  0
  139.5300   67.4030  224.9960 O   0  0  0  0  0  0  0  0  0  0  0  0
  139.3140   69.6530  224.3060 N   0  0  0  0  0  0  0  0  0  0  0  0
  139.8430   70.1410  225.5260 C   0  0  0  0  0  0  0  0  0  0  0  0
  140.7790   71.1560  225.4400 C   0  0  0  0  0  0  0  0  0  0  0  0
  141.3730   71.7210  226.5510 C   0  0  0  0  0  0  0  0  0  0  0  0
  141.0030   71.2370  227.8080 C   0  0  0  0  0  0  0  0  0  0  0  0
  140.0730   70.2300  227.8850 C   0  0  0  0  0  0  0  0  0  0  0  0
  139.4760   69.6620  226.7680 C   0  0  0  0  0  0  0  0  0  0  0  0
  138.9170   70.5110  223.2020 C   0  0  0  0  0  0  0  0  0  0  0  0
  140.0410   71.1260  222.4530 C   0  0  0  0  0  0  0  0  0  0  0  0
  139.9630   72.6370  222.7180 C   0  0  0  0  0  0  0  0  0  0  0  0
  138.7400   73.1610  222.1660 N   0  0  0  0  0  0  0  0  0  0  0  0
  138.6160   74.3310  221.3910 C   0  0  0  0  0  0  0  0  0  0  0  0
  137.4530   74.6960  220.9840 O   0  0  0  0  0  0  0  0  0  0  0  0
  139.7300   75.2110  220.9860 C   0  0  2  0  0  0  0  0  0  0  0  0
  139.0980   76.5250  220.7280 N   0  0  0  0  0  0  0  0  0  0  0  0
  140.3490   74.8110  219.6510 C   0  0  0  0  0  0  0  0  0  0  0  0
  141.7910   74.4560  219.8300 C   0  0  0  0  0  0  0  0  0  0  0  0
  142.7270   75.4870  219.9430 C   0  0  0  0  0  0  0  0  0  0  0  0
  144.0410   75.1490  220.1060 C   0  0  0  0  0  0  0  0  0  0  0  0
  144.4520   73.8320  220.1590 C   0  0  0  0  0  0  0  0  0  0  0  0
  146.1490   73.3970  220.3680 Cl  0  0  0  0  0  0  0  0  0  0  0  0
  143.5310   72.7950  220.0470 C   0  0  0  0  0  0  0  0  0  0  0  0
  144.0480   71.1190  220.1140 Cl  0  0  0  0  0  0  0  0  0  0  0  0
  142.1950   73.1340  219.8820 C   0  0  0  0  0  0  0  0  0  0  0  0
  137.5280   72.3740  222.4450 C   0  0  0  0  0  0  0  0  0  0  0  0
  137.8500   71.5020  223.6400 C   0  0  0  0  0  0  0  0  0  0  0  0
  139.4555   65.8241  223.4451 H   0  0  0  0  0  0  0  0  0  0  0  0
  138.4851   65.7641  221.9347 H   0  0  0  0  0  0  0  0  0  0  0  0
  140.0987   66.5534  221.9347 H   0  0  0  0  0  0  0  0  0  0  0  0
  138.6811   68.4144  222.0679 H   0  0  0  0  0  0  0  0  0  0  0  0
  137.4632   67.5418  223.0649 H   0  0  0  0  0  0  0  0  0  0  0  0
  141.0620   71.5287  224.4445 H   0  0  0  0  0  0  0  0  0  0  0  0
  142.1145   72.5272  226.4494 H   0  0  0  0  0  0  0  0  0  0  0  0
  141.4497   71.6560  228.7217 H   0  0  0  0  0  0  0  0  0  0  0  0
  139.7874   69.8555  228.8791 H   0  0  0  0  0  0  0  0  0  0  0  0
  138.7342   68.8560  226.8690 H   0  0  0  0  0  0  0  0  0  0  0  0
  138.4610   69.8513  222.4491 H   0  0  0  0  0  0  0  0  0  0  0  0
  141.0010   70.7259  222.8112 H   0  0  0  0  0  0  0  0  0  0  0  0
  139.9717   70.9055  221.3776 H   0  0  0  0  0  0  0  0  0  0  0  0
  139.9834   72.8202  223.8024 H   0  0  0  0  0  0  0  0  0  0  0  0
  140.8213   73.1361  222.2445 H   0  0  0  0  0  0  0  0  0  0  0  0
  140.5076   75.1819  221.7635 H   0  0  0  0  0  0  0  0  0  0  0  0
  138.4740   76.3550  219.8940 H   0  0  0  0  0  0  0  0  0  0  0  0
  138.4200   76.6270  221.5360 H   0  0  0  0  0  0  0  0  0  0  0  0
  139.8092   73.9417  219.2472 H   0  0  0  0  0  0  0  0  0  0  0  0
  140.2743   75.6593  218.9548 H   0  0  0  0  0  0  0  0  0  0  0  0
  142.4151   76.5410  219.9019 H   0  0  0  0  0  0  0  0  0  0  0  0
  144.7916   75.9479  220.1975 H   0  0  0  0  0  0  0  0  0  0  0  0
  141.4432   72.3362  219.7909 H   0  0  0  0  0  0  0  0  0  0  0  0
  136.6857   73.0422  222.6776 H   0  0  0  0  0  0  0  0  0  0  0  0
  137.2379   71.7667  221.5749 H   0  0  0  0  0  0  0  0  0  0  0  0
  138.2280   72.1212  224.4669 H   0  0  0  0  0  0  0  0  0  0  0  0
  136.9504   70.9757  223.9918 H   0  0  0  0  0  0  0  0  0  0  0  0
  1  2  1  0
  2  3  1  0
  3  4  2  0
  3  5  1  0
  5  6  1  0
  6  7  2  0
  7  8  1  0
  8  9  2  0
  9 10  1  0
 10 11  2  0
  5 12  1  0
 12 13  1  0
 13 14  1  0
 14 15  1  0
 15 16  1  0
 16 17  2  0
 16 18  1  0
 18 19  1  0
 18 20  1  0
 20 21  1  0
 21 22  2  0
 22 23  1  0
 23 24  2  0
 24 25  1  0
 24 26  1  0
 26 27  1  0
 26 28  2  0
 15 29  1  0
 29 30  1  0
 11  6  1  0
 30 12  1  0
 28 21  1  0
  1 31  1  0
  1 32  1  0
  1 33  1  0
  2 34  1  0
  2 35  1  0
  7 36  1  0
  8 37  1  0
  9 38  1  0
 10 39  1  0
 11 40  1  0
 12 41  1  0
 13 42  1  0
 13 43  1  0
 14 44  1  0
 14 45  1  0
 18 46  1  1
 19 47  1  0
 19 48  1  0
 20 49  1  0
 20 50  1  0
 22 51  1  0
 23 52  1  0
 28 53  1  0
 29 54  1  0
 29 55  1  0
 30 56  1  0
 30 57  1  0
M  END
>  <smiles>  (41) 
CCC(=O)N(c1ccccc1)C1CCN(C(=O)[C@H](N)Cc2ccc(Cl)c(Cl)c2)CC1

>  <score_type>  (41) 
oracle

>  <origin>  (41) 
autodockgpu

>  <m_score__min__energy>  (41) 
-7.7000000000000002

>  <m_primary>  (41) 
energy

>  <rmsd>  (41) 
7.539137166767118

>  <m_score__min__rmsd>  (41) 
7.539137166767118

>  <meeko>  (41) 
{"free_energy": -7.15, "intermolecular_energy": -9.53, "internal_energy": -2.95, "cluster_size": 2, "cluster_id": 5, "rank_in_cluster": 1}

>  <energy>  (41) 
-6.91

>  <cluster_rmsd>  (41) 
0.0

>  <cluster>  (41) 
10

$$$$

     RDKit          3D

 57 59  0  0  0  0  0  0  0  0999 V2000
  142.2470   80.4960  218.3860 C   0  0  0  0  0  0  0  0  0  0  0  0
  140.7800   80.0680  218.3680 C   0  0  0  0  0  0  0  0  0  0  0  0
  140.3050   79.8100  219.7670 C   0  0  0  0  0  0  0  0  0  0  0  0
  139.3340   80.5080  220.1610 O   0  0  0  0  0  0  0  0  0  0  0  0
  140.9400   78.8220  220.5670 N   0  0  0  0  0  0  0  0  0  0  0  0
  141.4620   79.2000  221.8280 C   0  0  0  0  0  0  0  0  0  0  0  0
  142.2190   80.3580  221.8690 C   0  0  0  0  0  0  0  0  0  0  0  0
  142.7870   80.8380  223.0330 C   0  0  0  0  0  0  0  0  0  0  0  0
  142.5790   80.1160  224.2090 C   0  0  0  0  0  0  0  0  0  0  0  0
  141.8260   78.9680  224.1600 C   0  0  0  0  0  0  0  0  0  0  0  0
  141.2560   78.4850  222.9910 C   0  0  0  0  0  0  0  0  0  0  0  0
  141.0130   77.4690  220.0400 C   0  0  0  0  0  0  0  0  0  0  0  0
  140.2850   76.4480  220.8350 C   0  0  0  0  0  0  0  0  0  0  0  0
  141.3540   75.5130  221.4200 C   0  0  0  0  0  0  0  0  0  0  0  0
  142.0300   74.8240  220.3500 N   0  0  0  0  0  0  0  0  0  0  0  0
  142.3200   73.4460  220.3060 C   0  0  0  0  0  0  0  0  0  0  0  0
  142.9550   72.9690  219.2960 O   0  0  0  0  0  0  0  0  0  0  0  0
  141.9520   72.4610  221.3420 C   0  0  2  0  0  0  0  0  0  0  0  0
  142.2090   71.1430  220.7170 N   0  0  0  0  0  0  0  0  0  0  0  0
  140.4590   72.4560  221.6550 C   0  0  0  0  0  0  0  0  0  0  0  0
  140.1760   71.5770  222.8310 C   0  0  0  0  0  0  0  0  0  0  0  0
  139.3880   70.4370  222.6430 C   0  0  0  0  0  0  0  0  0  0  0  0
  139.1360   69.6430  223.7260 C   0  0  0  0  0  0  0  0  0  0  0  0
  139.6360   69.9400  224.9790 C   0  0  0  0  0  0  0  0  0  0  0  0
  139.3080   68.9140  226.3760 Cl  0  0  0  0  0  0  0  0  0  0  0  0
  140.4200   71.0710  225.1810 C   0  0  0  0  0  0  0  0  0  0  0  0
  141.0570   71.4540  226.7700 Cl  0  0  0  0  0  0  0  0  0  0  0  0
  140.6790   71.8810  224.0820 C   0  0  0  0  0  0  0  0  0  0  0  0
  142.4340   75.6620  219.2100 C   0  0  0  0  0  0  0  0  0  0  0  0
  142.4490   77.0900  219.7130 C   0  0  0  0  0  0  0  0  0  0  0  0
  142.5872   80.5953  219.4273 H   0  0  0  0  0  0  0  0  0  0  0  0
  142.8564   79.7382  217.8718 H   0  0  0  0  0  0  0  0  0  0  0  0
  142.3533   81.4626  217.8718 H   0  0  0  0  0  0  0  0  0  0  0  0
  140.1726   80.8673  217.9184 H   0  0  0  0  0  0  0  0  0  0  0  0
  140.6795   79.1462  217.7762 H   0  0  0  0  0  0  0  0  0  0  0  0
  142.3747   80.9194  220.9359 H   0  0  0  0  0  0  0  0  0  0  0  0
  143.3851   81.7612  223.0330 H   0  0  0  0  0  0  0  0  0  0  0  0
  143.0111   80.4606  225.1601 H   0  0  0  0  0  0  0  0  0  0  0  0
  141.6675   78.4051  225.0917 H   0  0  0  0  0  0  0  0  0  0  0  0
  140.6586   77.5613  222.9907 H   0  0  0  0  0  0  0  0  0  0  0  0
  140.4532   77.4777  219.0931 H   0  0  0  0  0  0  0  0  0  0  0  0
  139.7165   76.9298  221.6442 H   0  0  0  0  0  0  0  0  0  0  0  0
  139.5673   75.8939  220.2122 H   0  0  0  0  0  0  0  0  0  0  0  0
  142.0833   76.1039  221.9935 H   0  0  0  0  0  0  0  0  0  0  0  0
  140.8739   74.7779  222.0827 H   0  0  0  0  0  0  0  0  0  0  0  0
  142.5093   72.6874  222.2629 H   0  0  0  0  0  0  0  0  0  0  0  0
  141.7520   71.2110  219.7670 H   0  0  0  0  0  0  0  0  0  0  0  0
  143.2460   71.1780  220.5030 H   0  0  0  0  0  0  0  0  0  0  0  0
  140.1329   73.4817  221.8823 H   0  0  0  0  0  0  0  0  0  0  0  0
  139.9126   72.0705  220.7816 H   0  0  0  0  0  0  0  0  0  0  0  0
  138.9827   70.1867  221.6515 H   0  0  0  0  0  0  0  0  0  0  0  0
  138.5179   68.7423  223.5966 H   0  0  0  0  0  0  0  0  0  0  0  0
  141.2967   72.7821  224.2102 H   0  0  0  0  0  0  0  0  0  0  0  0
  143.4356   75.3713  218.8603 H   0  0  0  0  0  0  0  0  0  0  0  0
  141.7412   75.5447  218.3637 H   0  0  0  0  0  0  0  0  0  0  0  0
  143.0730   77.1646  220.6158 H   0  0  0  0  0  0  0  0  0  0  0  0
  142.8670   77.7664  218.9529 H   0  0  0  0  0  0  0  0  0  0  0  0
  1  2  1  0
  2  3  1  0
  3  4  2  0
  3  5  1  0
  5  6  1  0
  6  7  2  0
  7  8  1  0
  8  9  2  0
  9 10  1  0
 10 11  2  0
  5 12  1  0
 12 13  1  0
 13 14  1  0
 14 15  1  0
 15 16  1  0
 16 17  2  0
 16 18  1  0
 18 19  1  0
 18 20  1  0
 20 21  1  0
 21 22  2  0
 22 23  1  0
 23 24  2  0
 24 25  1  0
 24 26  1  0
 26 27  1  0
 26 28  2  0
 15 29  1  0
 29 30  1  0
 11  6  1  0
 30 12  1  0
 28 21  1  0
  1 31  1  0
  1 32  1  0
  1 33  1  0
  2 34  1  0
  2 35  1  0
  7 36  1  0
  8 37  1  0
  9 38  1  0
 10 39  1  0
 11 40  1  0
 12 41  1  0
 13 42  1  0
 13 43  1  0
 14 44  1  0
 14 45  1  0
 18 46  1  1
 19 47  1  0
 19 48  1  0
 20 49  1  0
 20 50  1  0
 22 51  1  0
 23 52  1  0
 28 53  1  0
 29 54  1  0
 29 55  1  0
 30 56  1  0
 30 57  1  0
M  END
>  <smiles>  (42) 
CCC(=O)N(c1ccccc1)C1CCN(C(=O)[C@H](N)Cc2ccc(Cl)c(Cl)c2)CC1

>  <score_type>  (42) 
oracle

>  <origin>  (42) 
autodockgpu

>  <m_score__min__energy>  (42) 
-7.7000000000000002

>  <m_primary>  (42) 
energy

>  <rmsd>  (42) 
7.831856601851104

>  <m_score__min__rmsd>  (42) 
7.831856601851104

>  <meeko>  (42) 
{"free_energy": -6.72, "intermolecular_energy": -9.11, "internal_energy": -2.87, "cluster_size": 10, "cluster_id": 7, "rank_in_cluster": 10}

>  <energy>  (42) 
-6.72

>  <cluster_rmsd>  (42) 
1.08

>  <cluster>  (42) 
10

$$$$

     RDKit          3D

 57 59  0  0  0  0  0  0  0  0999 V2000
  143.2970   76.4250  217.3380 C   0  0  0  0  0  0  0  0  0  0  0  0
  142.9370   77.3490  218.5000 C   0  0  0  0  0  0  0  0  0  0  0  0
  142.7270   76.5440  219.7490 C   0  0  0  0  0  0  0  0  0  0  0  0
  143.6240   75.7060  220.0250 O   0  0  0  0  0  0  0  0  0  0  0  0
  141.5690   76.7500  220.5470 N   0  0  0  0  0  0  0  0  0  0  0  0
  141.4670   77.9430  221.3040 C   0  0  0  0  0  0  0  0  0  0  0  0
  141.2100   77.8040  222.6570 C   0  0  0  0  0  0  0  0  0  0  0  0
  141.0870   78.8840  223.5080 C   0  0  0  0  0  0  0  0  0  0  0  0
  141.2300   80.1630  222.9680 C   0  0  0  0  0  0  0  0  0  0  0  0
  141.4850   80.2920  221.6250 C   0  0  0  0  0  0  0  0  0  0  0  0
  141.6090   79.2070  220.7690 C   0  0  0  0  0  0  0  0  0  0  0  0
  140.5480   75.7160  220.5350 C   0  0  0  0  0  0  0  0  0  0  0  0
  140.3170   75.0500  221.8420 C   0  0  0  0  0  0  0  0  0  0  0  0
  140.7800   73.5950  221.6730 C   0  0  0  0  0  0  0  0  0  0  0  0
  139.9470   72.9340  220.7010 N   0  0  0  0  0  0  0  0  0  0  0  0
  139.3720   71.6550  220.8360 C   0  0  0  0  0  0  0  0  0  0  0  0
  138.6690   71.1760  219.8730 O   0  0  0  0  0  0  0  0  0  0  0  0
  139.5010   70.7790  222.0180 C   0  0  2  0  0  0  0  0  0  0  0  0
  138.6740   69.5930  221.7000 N   0  0  0  0  0  0  0  0  0  0  0  0
  138.8630   71.3720  223.2700 C   0  0  0  0  0  0  0  0  0  0  0  0
  139.4070   70.7110  224.4960 C   0  0  0  0  0  0  0  0  0  0  0  0
  139.3430   69.3180  224.5910 C   0  0  0  0  0  0  0  0  0  0  0  0
  139.8440   68.7260  225.7180 C   0  0  0  0  0  0  0  0  0  0  0  0
  140.4010   69.4660  226.7420 C   0  0  0  0  0  0  0  0  0  0  0  0
  141.0440   68.7010  228.1950 Cl  0  0  0  0  0  0  0  0  0  0  0  0
  140.4700   70.8540  226.6600 C   0  0  0  0  0  0  0  0  0  0  0  0
  141.1750   71.7990  227.9590 Cl  0  0  0  0  0  0  0  0  0  0  0  0
  139.9620   71.4580  225.5180 C   0  0  0  0  0  0  0  0  0  0  0  0
  139.6840   73.6940  219.4680 C   0  0  0  0  0  0  0  0  0  0  0  0
  140.7630   74.7520  219.3790 C   0  0  0  0  0  0  0  0  0  0  0  0
  143.6698   75.4682  217.7323 H   0  0  0  0  0  0  0  0  0  0  0  0
  142.4033   76.2447  216.7225 H   0  0  0  0  0  0  0  0  0  0  0  0
  144.0771   76.8968  216.7225 H   0  0  0  0  0  0  0  0  0  0  0  0
  143.7550   78.0663  218.6621 H   0  0  0  0  0  0  0  0  0  0  0  0
  142.0098   77.8893  218.2582 H   0  0  0  0  0  0  0  0  0  0  0  0
  141.0992   76.7910  223.0713 H   0  0  0  0  0  0  0  0  0  0  0  0
  140.8825   78.7409  224.5793 H   0  0  0  0  0  0  0  0  0  0  0  0
  141.1399   81.0532  223.6079 H   0  0  0  0  0  0  0  0  0  0  0  0
  141.5963   81.3037  221.2078 H   0  0  0  0  0  0  0  0  0  0  0  0
  141.8140   79.3500  219.6978 H   0  0  0  0  0  0  0  0  0  0  0  0
  139.5924   76.2309  220.3572 H   0  0  0  0  0  0  0  0  0  0  0  0
  140.9013   75.5463  222.6308 H   0  0  0  0  0  0  0  0  0  0  0  0
  139.2579   75.1008  222.1347 H   0  0  0  0  0  0  0  0  0  0  0  0
  141.8251   73.5806  221.3301 H   0  0  0  0  0  0  0  0  0  0  0  0
  140.7024   73.0719  222.6376 H   0  0  0  0  0  0  0  0  0  0  0  0
  140.5683   70.5977  222.2128 H   0  0  0  0  0  0  0  0  0  0  0  0
  137.7360   69.9940  221.4290 H   0  0  0  0  0  0  0  0  0  0  0  0
  139.0810   69.2570  220.7810 H   0  0  0  0  0  0  0  0  0  0  0  0
  139.0810   72.4494  223.3122 H   0  0  0  0  0  0  0  0  0  0  0  0
  137.7762   71.2073  223.2286 H   0  0  0  0  0  0  0  0  0  0  0  0
  138.9026   68.7152  223.7831 H   0  0  0  0  0  0  0  0  0  0  0  0
  139.8019   67.6307  225.8109 H   0  0  0  0  0  0  0  0  0  0  0  0
  140.0020   72.5533  225.4245 H   0  0  0  0  0  0  0  0  0  0  0  0
  139.7310   73.0283  218.5936 H   0  0  0  0  0  0  0  0  0  0  0  0
  138.6819   74.1473  219.4853 H   0  0  0  0  0  0  0  0  0  0  0  0
  141.7557   74.2848  219.4582 H   0  0  0  0  0  0  0  0  0  0  0  0
  140.7109   75.2811  218.4160 H   0  0  0  0  0  0  0  0  0  0  0  0
  1  2  1  0
  2  3  1  0
  3  4  2  0
  3  5  1  0
  5  6  1  0
  6  7  2  0
  7  8  1  0
  8  9  2  0
  9 10  1  0
 10 11  2  0
  5 12  1  0
 12 13  1  0
 13 14  1  0
 14 15  1  0
 15 16  1  0
 16 17  2  0
 16 18  1  0
 18 19  1  0
 18 20  1  0
 20 21  1  0
 21 22  2  0
 22 23  1  0
 23 24  2  0
 24 25  1  0
 24 26  1  0
 26 27  1  0
 26 28  2  0
 15 29  1  0
 29 30  1  0
 11  6  1  0
 30 12  1  0
 28 21  1  0
  1 31  1  0
  1 32  1  0
  1 33  1  0
  2 34  1  0
  2 35  1  0
  7 36  1  0
  8 37  1  0
  9 38  1  0
 10 39  1  0
 11 40  1  0
 12 41  1  0
 13 42  1  0
 13 43  1  0
 14 44  1  0
 14 45  1  0
 18 46  1  1
 19 47  1  0
 19 48  1  0
 20 49  1  0
 20 50  1  0
 22 51  1  0
 23 52  1  0
 28 53  1  0
 29 54  1  0
 29 55  1  0
 30 56  1  0
 30 57  1  0
M  END
>  <smiles>  (43) 
CCC(=O)N(c1ccccc1)C1CCN(C(=O)[C@H](N)Cc2ccc(Cl)c(Cl)c2)CC1

>  <score_type>  (43) 
oracle

>  <origin>  (43) 
autodockgpu

>  <m_score__min__energy>  (43) 
-7.7000000000000002

>  <m_primary>  (43) 
energy

>  <rmsd>  (43) 
8.891971285043352

>  <m_score__min__rmsd>  (43) 
8.891971285043352

>  <meeko>  (43) 
{"free_energy": -7.08, "intermolecular_energy": -9.47, "internal_energy": -2.66, "cluster_size": 20, "cluster_id": 3, "rank_in_cluster": 9}

>  <energy>  (43) 
-6.6

>  <cluster_rmsd>  (43) 
0.67

>  <cluster>  (43) 
10

$$$$

     RDKit          3D

 57 59  0  0  0  0  0  0  0  0999 V2000
  142.9330   77.4230  218.2580 C   0  0  0  0  0  0  0  0  0  0  0  0
  142.5130   76.7720  219.5760 C   0  0  0  0  0  0  0  0  0  0  0  0
  142.1660   75.3300  219.3480 C   0  0  0  0  0  0  0  0  0  0  0  0
  141.5620   75.0680  218.2750 O   0  0  0  0  0  0  0  0  0  0  0  0
  142.5210   74.3480  220.3120 N   0  0  0  0  0  0  0  0  0  0  0  0
  143.8260   73.7990  220.2760 C   0  0  0  0  0  0  0  0  0  0  0  0
  143.9710   72.5690  219.6580 C   0  0  0  0  0  0  0  0  0  0  0  0
  145.1870   71.9240  219.5550 C   0  0  0  0  0  0  0  0  0  0  0  0
  146.3090   72.5500  220.1010 C   0  0  0  0  0  0  0  0  0  0  0  0
  146.1570   73.7710  220.7110 C   0  0  0  0  0  0  0  0  0  0  0  0
  144.9350   74.4200  220.8150 C   0  0  0  0  0  0  0  0  0  0  0  0
  141.5140   73.9630  221.2870 C   0  0  0  0  0  0  0  0  0  0  0  0
  141.4810   72.5160  221.6140 C   0  0  0  0  0  0  0  0  0  0  0  0
  140.1420   71.9820  221.0830 C   0  0  0  0  0  0  0  0  0  0  0  0
  139.0580   72.6090  221.7940 N   0  0  0  0  0  0  0  0  0  0  0  0
  137.9320   71.9540  222.3300 C   0  0  0  0  0  0  0  0  0  0  0  0
  137.0220   72.6440  222.9190 O   0  0  0  0  0  0  0  0  0  0  0  0
  137.6840   70.4990  222.2800 C   0  0  2  0  0  0  0  0  0  0  0  0
  136.8580   70.2160  223.4760 N   0  0  0  0  0  0  0  0  0  0  0  0
  138.9500   69.6720  222.4790 C   0  0  0  0  0  0  0  0  0  0  0  0
  139.2930   69.5850  223.9320 C   0  0  0  0  0  0  0  0  0  0  0  0
  138.9380   68.4320  224.6370 C   0  0  0  0  0  0  0  0  0  0  0  0
  139.2570   68.3660  225.9650 C   0  0  0  0  0  0  0  0  0  0  0  0
  139.9100   69.3980  226.6090 C   0  0  0  0  0  0  0  0  0  0  0  0
  140.3190   69.3110  228.3230 Cl  0  0  0  0  0  0  0  0  0  0  0  0
  140.2680   70.5520  225.9200 C   0  0  0  0  0  0  0  0  0  0  0  0
  141.0970   71.8670  226.7330 Cl  0  0  0  0  0  0  0  0  0  0  0  0
  139.9460   70.6230  224.5700 C   0  0  0  0  0  0  0  0  0  0  0  0
  139.1690   74.0660  221.9670 C   0  0  0  0  0  0  0  0  0  0  0  0
  140.1570   74.5460  220.9260 C   0  0  0  0  0  0  0  0  0  0  0  0
  143.5184   78.3304  218.4674 H   0  0  0  0  0  0  0  0  0  0  0  0
  143.5461   76.7166  217.6791 H   0  0  0  0  0  0  0  0  0  0  0  0
  142.0367   77.6904  217.6791 H   0  0  0  0  0  0  0  0  0  0  0  0
  143.3425   76.8378  220.2955 H   0  0  0  0  0  0  0  0  0  0  0  0
  141.6320   77.2971  219.9737 H   0  0  0  0  0  0  0  0  0  0  0  0
  143.0800   72.0853  219.2312 H   0  0  0  0  0  0  0  0  0  0  0  0
  145.2695   70.9463  219.0577 H   0  0  0  0  0  0  0  0  0  0  0  0
  147.2986   72.0731  220.0436 H   0  0  0  0  0  0  0  0  0  0  0  0
  147.0465   74.2577  221.1375 H   0  0  0  0  0  0  0  0  0  0  0  0
  144.8525   75.3983  221.3112 H   0  0  0  0  0  0  0  0  0  0  0  0
  141.8219   74.4162  222.2408 H   0  0  0  0  0  0  0  0  0  0  0  0
  142.3185   71.9963  221.1255 H   0  0  0  0  0  0  0  0  0  0  0  0
  141.5754   72.3496  222.6972 H   0  0  0  0  0  0  0  0  0  0  0  0
  140.0565   72.2091  220.0101 H   0  0  0  0  0  0  0  0  0  0  0  0
  140.0968   70.8932  221.2326 H   0  0  0  0  0  0  0  0  0  0  0  0
  137.2424   70.2463  221.3048 H   0  0  0  0  0  0  0  0  0  0  0  0
  137.2620   70.8400  224.2260 H   0  0  0  0  0  0  0  0  0  0  0  0
  135.9310   70.6710  223.2400 H   0  0  0  0  0  0  0  0  0  0  0  0
  138.7867   68.6585  222.0839 H   0  0  0  0  0  0  0  0  0  0  0  0
  139.7804   70.1568  221.9448 H   0  0  0  0  0  0  0  0  0  0  0  0
  138.4170   67.6015  224.1381 H   0  0  0  0  0  0  0  0  0  0  0  0
  138.9859   67.4658  226.5360 H   0  0  0  0  0  0  0  0  0  0  0  0
  140.2160   71.5229  223.9979 H   0  0  0  0  0  0  0  0  0  0  0  0
  138.1903   74.5432  221.8111 H   0  0  0  0  0  0  0  0  0  0  0  0
  139.5040   74.3225  222.9828 H   0  0  0  0  0  0  0  0  0  0  0  0
  139.8513   74.1980  219.9283 H   0  0  0  0  0  0  0  0  0  0  0  0
  140.1984   75.6450  220.9062 H   0  0  0  0  0  0  0  0  0  0  0  0
  1  2  1  0
  2  3  1  0
  3  4  2  0
  3  5  1  0
  5  6  1  0
  6  7  2  0
  7  8  1  0
  8  9  2  0
  9 10  1  0
 10 11  2  0
  5 12  1  0
 12 13  1  0
 13 14  1  0
 14 15  1  0
 15 16  1  0
 16 17  2  0
 16 18  1  0
 18 19  1  0
 18 20  1  0
 20 21  1  0
 21 22  2  0
 22 23  1  0
 23 24  2  0
 24 25  1  0
 24 26  1  0
 26 27  1  0
 26 28  2  0
 15 29  1  0
 29 30  1  0
 11  6  1  0
 30 12  1  0
 28 21  1  0
  1 31  1  0
  1 32  1  0
  1 33  1  0
  2 34  1  0
  2 35  1  0
  7 36  1  0
  8 37  1  0
  9 38  1  0
 10 39  1  0
 11 40  1  0
 12 41  1  0
 13 42  1  0
 13 43  1  0
 14 44  1  0
 14 45  1  0
 18 46  1  6
 19 47  1  0
 19 48  1  0
 20 49  1  0
 20 50  1  0
 22 51  1  0
 23 52  1  0
 28 53  1  0
 29 54  1  0
 29 55  1  0
 30 56  1  0
 30 57  1  0
M  END
>  <smiles>  (44) 
CCC(=O)N(c1ccccc1)C1CCN(C(=O)[C@H](N)Cc2ccc(Cl)c(Cl)c2)CC1

>  <score_type>  (44) 
oracle

>  <origin>  (44) 
autodockgpu

>  <m_score__min__energy>  (44) 
-7.7000000000000002

>  <m_primary>  (44) 
energy

>  <rmsd>  (44) 
9.48054824940881

>  <m_score__min__rmsd>  (44) 
9.48054824940881

>  <meeko>  (44) 
{"free_energy": -6.78, "intermolecular_energy": -9.16, "internal_energy": -2.85, "cluster_size": 2, "cluster_id": 6, "rank_in_cluster": 2}

>  <energy>  (44) 
-6.2

>  <cluster_rmsd>  (44) 
1.19

>  <cluster>  (44) 
10

$$$$

     RDKit          3D

 57 59  0  0  0  0  0  0  0  0999 V2000
  132.8580   66.6520  226.4010 C   0  0  0  0  0  0  0  0  0  0  0  0
  132.5420   67.7600  225.3970 C   0  0  0  0  0  0  0  0  0  0  0  0
  133.7610   68.0740  224.5810 C   0  0  0  0  0  0  0  0  0  0  0  0
  134.2390   67.1240  223.9080 O   0  0  0  0  0  0  0  0  0  0  0  0
  134.3110   69.3850  224.5930 N   0  0  0  0  0  0  0  0  0  0  0  0
  133.7890   70.3340  225.5060 C   0  0  0  0  0  0  0  0  0  0  0  0
  134.3640   70.3710  226.7650 C   0  0  0  0  0  0  0  0  0  0  0  0
  133.9500   71.2470  227.7490 C   0  0  0  0  0  0  0  0  0  0  0  0
  132.9080   72.1260  227.4470 C   0  0  0  0  0  0  0  0  0  0  0  0
  132.3430   72.0820  226.1960 C   0  0  0  0  0  0  0  0  0  0  0  0
  132.7590   71.2020  225.2070 C   0  0  0  0  0  0  0  0  0  0  0  0
  135.3880   69.6740  223.6610 C   0  0  0  0  0  0  0  0  0  0  0  0
  136.7430   69.7150  224.2660 C   0  0  0  0  0  0  0  0  0  0  0  0
  137.2210   71.1710  224.1590 C   0  0  0  0  0  0  0  0  0  0  0  0
  137.3580   71.5330  222.7720 N   0  0  0  0  0  0  0  0  0  0  0  0
  138.4500   72.2130  222.1980 C   0  0  0  0  0  0  0  0  0  0  0  0
  138.4270   72.4970  220.9450 O   0  0  0  0  0  0  0  0  0  0  0  0
  139.6630   72.6480  222.9190 C   0  0  2  0  0  0  0  0  0  0  0  0
  140.3110   73.6240  222.0140 N   0  0  0  0  0  0  0  0  0  0  0  0
  140.6890   71.5310  223.0840 C   0  0  0  0  0  0  0  0  0  0  0  0
  140.5900   70.9300  224.4500 C   0  0  0  0  0  0  0  0  0  0  0  0
  140.9690   71.7020  225.5510 C   0  0  0  0  0  0  0  0  0  0  0  0
  140.8750   71.1390  226.7940 C   0  0  0  0  0  0  0  0  0  0  0  0
  140.4220   69.8480  226.9760 C   0  0  0  0  0  0  0  0  0  0  0  0
  140.3030   69.1230  228.5800 Cl  0  0  0  0  0  0  0  0  0  0  0  0
  140.0420   69.0680  225.8880 C   0  0  0  0  0  0  0  0  0  0  0  0
  139.4660   67.4260  226.1130 Cl  0  0  0  0  0  0  0  0  0  0  0  0
  140.1360   69.6360  224.6240 C   0  0  0  0  0  0  0  0  0  0  0  0
  136.2420   71.1350  221.8990 C   0  0  0  0  0  0  0  0  0  0  0  0
  135.0560   70.8860  222.8050 C   0  0  0  0  0  0  0  0  0  0  0  0
  132.7470   67.0414  227.4238 H   0  0  0  0  0  0  0  0  0  0  0  0
  132.1635   65.8122  226.2509 H   0  0  0  0  0  0  0  0  0  0  0  0
  133.8910   66.3049  226.2509 H   0  0  0  0  0  0  0  0  0  0  0  0
  131.7326   67.4278  224.7302 H   0  0  0  0  0  0  0  0  0  0  0  0
  132.2289   68.6630  225.9416 H   0  0  0  0  0  0  0  0  0  0  0  0
  135.1844   69.6739  226.9907 H   0  0  0  0  0  0  0  0  0  0  0  0
  134.4265   71.2521  228.7404 H   0  0  0  0  0  0  0  0  0  0  0  0
  132.5455   72.8422  228.1990 H   0  0  0  0  0  0  0  0  0  0  0  0
  131.5219   72.7772  225.9672 H   0  0  0  0  0  0  0  0  0  0  0  0
  132.2825   71.1966  224.2156 H   0  0  0  0  0  0  0  0  0  0  0  0
  135.4527   68.8066  222.9876 H   0  0  0  0  0  0  0  0  0  0  0  0
  136.6984   69.4056  225.3207 H   0  0  0  0  0  0  0  0  0  0  0  0
  137.4315   69.0299  223.7497 H   0  0  0  0  0  0  0  0  0  0  0  0
  136.4864   71.8339  224.6397 H   0  0  0  0  0  0  0  0  0  0  0  0
  138.1940   71.2743  224.6616 H   0  0  0  0  0  0  0  0  0  0  0  0
  139.3732   73.0168  223.9140 H   0  0  0  0  0  0  0  0  0  0  0  0
  140.5320   73.0660  221.1450 H   0  0  0  0  0  0  0  0  0  0  0  0
  139.5070   74.2460  221.7180 H   0  0  0  0  0  0  0  0  0  0  0  0
  140.5009   70.7518  222.3307 H   0  0  0  0  0  0  0  0  0  0  0  0
  141.6973   71.9500  222.9506 H   0  0  0  0  0  0  0  0  0  0  0  0
  141.3323   72.7322  225.4220 H   0  0  0  0  0  0  0  0  0  0  0  0
  141.1686   71.7316  227.6730 H   0  0  0  0  0  0  0  0  0  0  0  0
  139.8434   69.0444  223.7440 H   0  0  0  0  0  0  0  0  0  0  0  0
  136.0125   71.9396  221.1849 H   0  0  0  0  0  0  0  0  0  0  0  0
  136.4934   70.2364  221.3165 H   0  0  0  0  0  0  0  0  0  0  0  0
  134.8810   71.7629  223.4457 H   0  0  0  0  0  0  0  0  0  0  0  0
  134.1452   70.7082  222.2144 H   0  0  0  0  0  0  0  0  0  0  0  0
  1  2  1  0
  2  3  1  0
  3  4  2  0
  3  5  1  0
  5  6  1  0
  6  7  2  0
  7  8  1  0
  8  9  2  0
  9 10  1  0
 10 11  2  0
  5 12  1  0
 12 13  1  0
 13 14  1  0
 14 15  1  0
 15 16  1  0
 16 17  2  0
 16 18  1  0
 18 19  1  0
 18 20  1  0
 20 21  1  0
 21 22  2  0
 22 23  1  0
 23 24  2  0
 24 25  1  0
 24 26  1  0
 26 27  1  0
 26 28  2  0
 15 29  1  0
 29 30  1  0
 11  6  1  0
 30 12  1  0
 28 21  1  0
  1 31  1  0
  1 32  1  0
  1 33  1  0
  2 34  1  0
  2 35  1  0
  7 36  1  0
  8 37  1  0
  9 38  1  0
 10 39  1  0
 11 40  1  0
 12 41  1  0
 13 42  1  0
 13 43  1  0
 14 44  1  0
 14 45  1  0
 18 46  1  1
 19 47  1  0
 19 48  1  0
 20 49  1  0
 20 50  1  0
 22 51  1  0
 23 52  1  0
 28 53  1  0
 29 54  1  0
 29 55  1  0
 30 56  1  0
 30 57  1  0
M  END
>  <smiles>  (45) 
CCC(=O)N(c1ccccc1)C1CCN(C(=O)[C@H](N)Cc2ccc(Cl)c(Cl)c2)CC1

>  <score_type>  (45) 
oracle

>  <origin>  (45) 
autodockgpu

>  <m_score__min__energy>  (45) 
-7.7000000000000002

>  <m_primary>  (45) 
energy

>  <rmsd>  (45) 
10.120809363455013

>  <m_score__min__rmsd>  (45) 
10.120809363455013

>  <meeko>  (45) 
{"free_energy": -6.6, "intermolecular_energy": -8.98, "internal_energy": -3.45, "cluster_size": 4, "cluster_id": 10, "rank_in_cluster": 3}

>  <energy>  (45) 
-6.53

>  <cluster_rmsd>  (45) 
0.0

>  <cluster>  (45) 
11

$$$$

     RDKit          3D

 57 59  0  0  0  0  0  0  0  0999 V2000
  139.9430   77.8580  218.8250 C   0  0  0  0  0  0  0  0  0  0  0  0
  141.4660   77.9830  218.8240 C   0  0  0  0  0  0  0  0  0  0  0  0
  142.0330   77.3570  220.0640 C   0  0  0  0  0  0  0  0  0  0  0  0
  143.0020   76.5720  219.8950 O   0  0  0  0  0  0  0  0  0  0  0  0
  141.4780   77.6610  221.3370 N   0  0  0  0  0  0  0  0  0  0  0  0
  141.6890   78.9520  221.8800 C   0  0  0  0  0  0  0  0  0  0  0  0
  142.1590   79.0130  223.1810 C   0  0  0  0  0  0  0  0  0  0  0  0
  142.4060   80.2070  223.8300 C   0  0  0  0  0  0  0  0  0  0  0  0
  142.1690   81.3930  223.1320 C   0  0  0  0  0  0  0  0  0  0  0  0
  141.7040   81.3230  221.8420 C   0  0  0  0  0  0  0  0  0  0  0  0
  141.4550   80.1240  221.1890 C   0  0  0  0  0  0  0  0  0  0  0  0
  140.7180   76.6210  222.0090 C   0  0  0  0  0  0  0  0  0  0  0  0
  141.1400   75.2330  221.6900 C   0  0  0  0  0  0  0  0  0  0  0  0
  139.9740   74.5930  220.9210 C   0  0  0  0  0  0  0  0  0  0  0  0
  138.8210   74.5060  221.7790 N   0  0  0  0  0  0  0  0  0  0  0  0
  137.9880   73.3800  221.9340 C   0  0  0  0  0  0  0  0  0  0  0  0
  136.9720   73.4520  222.7170 O   0  0  0  0  0  0  0  0  0  0  0  0
  138.1730   72.0790  221.2600 C   0  0  2  0  0  0  0  0  0  0  0  0
  137.2500   71.1570  221.9610 N   0  0  0  0  0  0  0  0  0  0  0  0
  139.5590   71.4850  221.4860 C   0  0  0  0  0  0  0  0  0  0  0  0
  139.6420   70.8560  222.8410 C   0  0  0  0  0  0  0  0  0  0  0  0
  139.1700   69.5510  223.0050 C   0  0  0  0  0  0  0  0  0  0  0  0
  139.2510   68.9880  224.2480 C   0  0  0  0  0  0  0  0  0  0  0  0
  139.7820   69.6730  225.3240 C   0  0  0  0  0  0  0  0  0  0  0  0
  139.8840   68.9460  226.9280 Cl  0  0  0  0  0  0  0  0  0  0  0  0
  140.2550   70.9730  225.1750 C   0  0  0  0  0  0  0  0  0  0  0  0
  140.9290   71.8480  226.5380 Cl  0  0  0  0  0  0  0  0  0  0  0  0
  140.1740   71.5480  223.9130 C   0  0  0  0  0  0  0  0  0  0  0  0
  138.5160   75.7160  222.5590 C   0  0  0  0  0  0  0  0  0  0  0  0
  139.2240   76.8610  221.8670 C   0  0  0  0  0  0  0  0  0  0  0  0
  139.5782   77.8281  219.8623 H   0  0  0  0  0  0  0  0  0  0  0  0
  139.5038   78.7231  218.3067 H   0  0  0  0  0  0  0  0  0  0  0  0
  139.6507   76.9328  218.3067 H   0  0  0  0  0  0  0  0  0  0  0  0
  141.8729   77.4718  217.9391 H   0  0  0  0  0  0  0  0  0  0  0  0
  141.7409   79.0478  218.7990 H   0  0  0  0  0  0  0  0  0  0  0  0
  142.3432   78.0719  223.7199 H   0  0  0  0  0  0  0  0  0  0  0  0
  142.7780   80.2231  224.8651 H   0  0  0  0  0  0  0  0  0  0  0  0
  142.3519   82.3677  223.6080 H   0  0  0  0  0  0  0  0  0  0  0  0
  141.5200   82.2624  221.3001 H   0  0  0  0  0  0  0  0  0  0  0  0
  141.0831   80.1080  220.1539 H   0  0  0  0  0  0  0  0  0  0  0  0
  140.9619   76.7052  223.0783 H   0  0  0  0  0  0  0  0  0  0  0  0
  142.0464   75.2443  221.0669 H   0  0  0  0  0  0  0  0  0  0  0  0
  141.3747   74.6669  222.6035 H   0  0  0  0  0  0  0  0  0  0  0  0
  139.7316   75.2100  220.0432 H   0  0  0  0  0  0  0  0  0  0  0  0
  140.2626   73.5836  220.5926 H   0  0  0  0  0  0  0  0  0  0  0  0
  138.0122   72.2105  220.1798 H   0  0  0  0  0  0  0  0  0  0  0  0
  137.4220   71.3440  222.9850 H   0  0  0  0  0  0  0  0  0  0  0  0
  136.2990   71.5880  221.7800 H   0  0  0  0  0  0  0  0  0  0  0  0
  139.7555   70.7212  220.7192 H   0  0  0  0  0  0  0  0  0  0  0  0
  140.3070   72.2887  221.4192 H   0  0  0  0  0  0  0  0  0  0  0  0
  138.7453   68.9926  222.1578 H   0  0  0  0  0  0  0  0  0  0  0  0
  138.8835   67.9618  224.3956 H   0  0  0  0  0  0  0  0  0  0  0  0
  140.5405   72.5744  223.7637 H   0  0  0  0  0  0  0  0  0  0  0  0
  137.4307   75.8943  222.5756 H   0  0  0  0  0  0  0  0  0  0  0  0
  138.8503   75.6127  223.6019 H   0  0  0  0  0  0  0  0  0  0  0  0
  138.9465   76.8870  220.8029 H   0  0  0  0  0  0  0  0  0  0  0  0
  138.9398   77.8235  222.3174 H   0  0  0  0  0  0  0  0  0  0  0  0
  1  2  1  0
  2  3  1  0
  3  4  2  0
  3  5  1  0
  5  6  1  0
  6  7  2  0
  7  8  1  0
  8  9  2  0
  9 10  1  0
 10 11  2  0
  5 12  1  0
 12 13  1  0
 13 14  1  0
 14 15  1  0
 15 16  1  0
 16 17  2  0
 16 18  1  0
 18 19  1  0
 18 20  1  0
 20 21  1  0
 21 22  2  0
 22 23  1  0
 23 24  2  0
 24 25  1  0
 24 26  1  0
 26 27  1  0
 26 28  2  0
 15 29  1  0
 29 30  1  0
 11  6  1  0
 30 12  1  0
 28 21  1  0
  1 31  1  0
  1 32  1  0
  1 33  1  0
  2 34  1  0
  2 35  1  0
  7 36  1  0
  8 37  1  0
  9 38  1  0
 10 39  1  0
 11 40  1  0
 12 41  1  0
 13 42  1  0
 13 43  1  0
 14 44  1  0
 14 45  1  0
 18 46  1  6
 19 47  1  0
 19 48  1  0
 20 49  1  0
 20 50  1  0
 22 51  1  0
 23 52  1  0
 28 53  1  0
 29 54  1  0
 29 55  1  0
 30 56  1  0
 30 57  1  0
M  END
>  <smiles>  (46) 
CCC(=O)N(c1ccccc1)C1CCN(C(=O)[C@H](N)Cc2ccc(Cl)c(Cl)c2)CC1

>  <score_type>  (46) 
oracle

>  <origin>  (46) 
autodockgpu

>  <m_score__min__energy>  (46) 
-7.7000000000000002

>  <m_primary>  (46) 
energy

>  <rmsd>  (46) 
8.42683363093276

>  <m_score__min__rmsd>  (46) 
8.42683363093276

>  <meeko>  (46) 
{"free_energy": -6.73, "intermolecular_energy": -9.12, "internal_energy": -2.86, "cluster_size": 20, "cluster_id": 3, "rank_in_cluster": 16}

>  <energy>  (46) 
-6.17

>  <cluster_rmsd>  (46) 
0.0

>  <cluster>  (46) 
12

$$$$

     RDKit          3D

 57 59  0  0  0  0  0  0  0  0999 V2000
  143.6180   75.8150  219.6880 C   0  0  0  0  0  0  0  0  0  0  0  0
  142.9720   77.1420  219.2930 C   0  0  0  0  0  0  0  0  0  0  0  0
  141.5440   77.1730  219.7500 C   0  0  0  0  0  0  0  0  0  0  0  0
  140.6710   77.0120  218.8580 O   0  0  0  0  0  0  0  0  0  0  0  0
  141.2360   77.3730  221.1240 N   0  0  0  0  0  0  0  0  0  0  0  0
  141.6100   78.5950  221.7340 C   0  0  0  0  0  0  0  0  0  0  0  0
  141.7580   78.5870  223.1100 C   0  0  0  0  0  0  0  0  0  0  0  0
  142.1180   79.7100  223.8290 C   0  0  0  0  0  0  0  0  0  0  0  0
  142.3390   80.8950  223.1250 C   0  0  0  0  0  0  0  0  0  0  0  0
  142.1900   80.8940  221.7600 C   0  0  0  0  0  0  0  0  0  0  0  0
  141.8290   79.7670  221.0370 C   0  0  0  0  0  0  0  0  0  0  0  0
  140.5480   76.3020  221.8250 C   0  0  0  0  0  0  0  0  0  0  0  0
  141.1010   74.9450  221.5910 C   0  0  0  0  0  0  0  0  0  0  0  0
  140.0240   74.1660  220.8200 C   0  0  0  0  0  0  0  0  0  0  0  0
  138.8530   74.0170  221.6450 N   0  0  0  0  0  0  0  0  0  0  0  0
  138.1180   72.8300  221.8310 C   0  0  0  0  0  0  0  0  0  0  0  0
  137.0720   72.8480  222.5780 O   0  0  0  0  0  0  0  0  0  0  0  0
  138.4410   71.5200  221.2320 C   0  0  2  0  0  0  0  0  0  0  0  0
  137.5210   70.5660  221.8930 N   0  0  0  0  0  0  0  0  0  0  0  0
  139.8370   71.0270  221.5970 C   0  0  0  0  0  0  0  0  0  0  0  0
  139.9750   70.9010  223.0810 C   0  0  0  0  0  0  0  0  0  0  0  0
  140.4940   71.9810  223.8000 C   0  0  0  0  0  0  0  0  0  0  0  0
  140.6150   71.8520  225.1560 C   0  0  0  0  0  0  0  0  0  0  0  0
  140.2410   70.6970  225.8140 C   0  0  0  0  0  0  0  0  0  0  0  0
  140.4000   70.5330  227.5630 Cl  0  0  0  0  0  0  0  0  0  0  0  0
  139.7240   69.6150  225.1100 C   0  0  0  0  0  0  0  0  0  0  0  0
  139.2480   68.1440  225.9400 Cl  0  0  0  0  0  0  0  0  0  0  0  0
  139.5990   69.7410  223.7320 C   0  0  0  0  0  0  0  0  0  0  0  0
  138.4150   75.2310  222.3510 C   0  0  0  0  0  0  0  0  0  0  0  0
  139.0430   76.4000  221.6240 C   0  0  0  0  0  0  0  0  0  0  0  0
  143.6557   75.7376  220.7846 H   0  0  0  0  0  0  0  0  0  0  0  0
  143.0242   74.9829  219.2819 H   0  0  0  0  0  0  0  0  0  0  0  0
  144.6393   75.7691  219.2819 H   0  0  0  0  0  0  0  0  0  0  0  0
  143.5231   77.9697  219.7633 H   0  0  0  0  0  0  0  0  0  0  0  0
  143.0034   77.2474  218.1985 H   0  0  0  0  0  0  0  0  0  0  0  0
  141.5816   77.6472  223.6537 H   0  0  0  0  0  0  0  0  0  0  0  0
  142.2272   79.6718  224.9229 H   0  0  0  0  0  0  0  0  0  0  0  0
  142.6278   81.8146  223.6551 H   0  0  0  0  0  0  0  0  0  0  0  0
  142.3655   81.8324  221.2136 H   0  0  0  0  0  0  0  0  0  0  0  0
  141.7205   79.8053  219.9430 H   0  0  0  0  0  0  0  0  0  0  0  0
  140.7463   76.4588  222.8956 H   0  0  0  0  0  0  0  0  0  0  0  0
  142.0244   75.0076  220.9965 H   0  0  0  0  0  0  0  0  0  0  0  0
  141.3519   74.4471  222.5392 H   0  0  0  0  0  0  0  0  0  0  0  0
  139.7595   74.7154  219.9045 H   0  0  0  0  0  0  0  0  0  0  0  0
  140.4123   73.1720  220.5533 H   0  0  0  0  0  0  0  0  0  0  0  0
  138.3653   71.6003  220.1375 H   0  0  0  0  0  0  0  0  0  0  0  0
  137.6180   70.7800  222.9220 H   0  0  0  0  0  0  0  0  0  0  0  0
  136.5640   70.9450  221.6430 H   0  0  0  0  0  0  0  0  0  0  0  0
  140.0072   70.0445  221.1326 H   0  0  0  0  0  0  0  0  0  0  0  0
  140.5783   71.7523  221.2304 H   0  0  0  0  0  0  0  0  0  0  0  0
  140.7963   72.9077  223.2902 H   0  0  0  0  0  0  0  0  0  0  0  0
  141.0216   72.6916  225.7388 H   0  0  0  0  0  0  0  0  0  0  0  0
  139.1931   68.9018  223.1480 H   0  0  0  0  0  0  0  0  0  0  0  0
  137.3183   75.3115  222.3243 H   0  0  0  0  0  0  0  0  0  0  0  0
  138.7200   75.2090  223.4076 H   0  0  0  0  0  0  0  0  0  0  0  0
  138.8023   76.3498  220.5518 H   0  0  0  0  0  0  0  0  0  0  0  0
  138.6591   77.3537  222.0153 H   0  0  0  0  0  0  0  0  0  0  0  0
  1  2  1  0
  2  3  1  0
  3  4  2  0
  3  5  1  0
  5  6  1  0
  6  7  2  0
  7  8  1  0
  8  9  2  0
  9 10  1  0
 10 11  2  0
  5 12  1  0
 12 13  1  0
 13 14  1  0
 14 15  1  0
 15 16  1  0
 16 17  2  0
 16 18  1  0
 18 19  1  0
 18 20  1  0
 20 21  1  0
 21 22  2  0
 22 23  1  0
 23 24  2  0
 24 25  1  0
 24 26  1  0
 26 27  1  0
 26 28  2  0
 15 29  1  0
 29 30  1  0
 11  6  1  0
 30 12  1  0
 28 21  1  0
  1 31  1  0
  1 32  1  0
  1 33  1  0
  2 34  1  0
  2 35  1  0
  7 36  1  0
  8 37  1  0
  9 38  1  0
 10 39  1  0
 11 40  1  0
 12 41  1  0
 13 42  1  0
 13 43  1  0
 14 44  1  0
 14 45  1  0
 18 46  1  6
 19 47  1  0
 19 48  1  0
 20 49  1  0
 20 50  1  0
 22 51  1  0
 23 52  1  0
 28 53  1  0
 29 54  1  0
 29 55  1  0
 30 56  1  0
 30 57  1  0
M  END
>  <smiles>  (47) 
CCC(=O)N(c1ccccc1)C1CCN(C(=O)[C@H](N)Cc2ccc(Cl)c(Cl)c2)CC1

>  <score_type>  (47) 
oracle

>  <origin>  (47) 
autodockgpu

>  <m_score__min__energy>  (47) 
-7.7000000000000002

>  <m_primary>  (47) 
energy

>  <rmsd>  (47) 
7.7977377885632695

>  <m_score__min__rmsd>  (47) 
7.7977377885632695

>  <meeko>  (47) 
{"free_energy": -6.88, "intermolecular_energy": -9.27, "internal_energy": -3.17, "cluster_size": 20, "cluster_id": 3, "rank_in_cluster": 14}

>  <energy>  (47) 
-6.09

>  <cluster_rmsd>  (47) 
0.28

>  <cluster>  (47) 
12

$$$$

     RDKit          3D

 57 59  0  0  0  0  0  0  0  0999 V2000
  143.5600   75.7630  219.6800 C   0  0  0  0  0  0  0  0  0  0  0  0
  142.9280   77.0980  219.2870 C   0  0  0  0  0  0  0  0  0  0  0  0
  141.5020   77.1460  219.7520 C   0  0  0  0  0  0  0  0  0  0  0  0
  140.6230   76.9930  218.8640 O   0  0  0  0  0  0  0  0  0  0  0  0
  141.2040   77.3530  221.1260 N   0  0  0  0  0  0  0  0  0  0  0  0
  141.5910   78.5740  221.7300 C   0  0  0  0  0  0  0  0  0  0  0  0
  141.7570   78.5670  223.1050 C   0  0  0  0  0  0  0  0  0  0  0  0
  142.1310   79.6890  223.8180 C   0  0  0  0  0  0  0  0  0  0  0  0
  142.3480   80.8720  223.1100 C   0  0  0  0  0  0  0  0  0  0  0  0
  142.1810   80.8710  221.7470 C   0  0  0  0  0  0  0  0  0  0  0  0
  141.8050   79.7440  221.0300 C   0  0  0  0  0  0  0  0  0  0  0  0
  140.5110   76.2900  221.8350 C   0  0  0  0  0  0  0  0  0  0  0  0
  141.0790   74.9330  221.6360 C   0  0  0  0  0  0  0  0  0  0  0  0
  140.0220   74.1310  220.8600 C   0  0  0  0  0  0  0  0  0  0  0  0
  138.8380   73.9880  221.6670 N   0  0  0  0  0  0  0  0  0  0  0  0
  138.1080   72.7990  221.8620 C   0  0  0  0  0  0  0  0  0  0  0  0
  137.0490   72.8230  222.5900 O   0  0  0  0  0  0  0  0  0  0  0  0
  138.4520   71.4810  221.2930 C   0  0  2  0  0  0  0  0  0  0  0  0
  137.5510   70.5270  221.9800 N   0  0  0  0  0  0  0  0  0  0  0  0
  139.8580   71.0210  221.6640 C   0  0  0  0  0  0  0  0  0  0  0  0
  139.9910   70.8950  223.1480 C   0  0  0  0  0  0  0  0  0  0  0  0
  140.5060   71.9760  223.8690 C   0  0  0  0  0  0  0  0  0  0  0  0
  140.6240   71.8480  225.2250 C   0  0  0  0  0  0  0  0  0  0  0  0
  140.2500   70.6920  225.8820 C   0  0  0  0  0  0  0  0  0  0  0  0
  140.4030   70.5270  227.6310 Cl  0  0  0  0  0  0  0  0  0  0  0  0
  139.7360   69.6080  225.1760 C   0  0  0  0  0  0  0  0  0  0  0  0
  139.2600   68.1370  226.0050 Cl  0  0  0  0  0  0  0  0  0  0  0  0
  139.6150   69.7350  223.7980 C   0  0  0  0  0  0  0  0  0  0  0  0
  138.3780   75.2120  222.3440 C   0  0  0  0  0  0  0  0  0  0  0  0
  139.0100   76.3720  221.6060 C   0  0  0  0  0  0  0  0  0  0  0  0
  143.5975   75.6838  220.7765 H   0  0  0  0  0  0  0  0  0  0  0  0
  142.9569   74.9379  219.2732 H   0  0  0  0  0  0  0  0  0  0  0  0
  144.5804   75.7065  219.2732 H   0  0  0  0  0  0  0  0  0  0  0  0
  143.4914   77.9194  219.7537 H   0  0  0  0  0  0  0  0  0  0  0  0
  142.9551   77.2026  218.1923 H   0  0  0  0  0  0  0  0  0  0  0  0
  141.5837   77.6285  223.6520 H   0  0  0  0  0  0  0  0  0  0  0  0
  142.2541   79.6515  224.9104 H   0  0  0  0  0  0  0  0  0  0  0  0
  142.6481   81.7906  223.6355 H   0  0  0  0  0  0  0  0  0  0  0  0
  142.3535   81.8081  221.1974 H   0  0  0  0  0  0  0  0  0  0  0  0
  141.6813   79.7820  219.9376 H   0  0  0  0  0  0  0  0  0  0  0  0
  140.6881   76.4687  222.9058 H   0  0  0  0  0  0  0  0  0  0  0  0
  142.0125   74.9922  221.0572 H   0  0  0  0  0  0  0  0  0  0  0  0
  141.3166   74.4546  222.5976 H   0  0  0  0  0  0  0  0  0  0  0  0
  139.7696   74.6613  219.9299 H   0  0  0  0  0  0  0  0  0  0  0  0
  140.4226   73.1355  220.6182 H   0  0  0  0  0  0  0  0  0  0  0  0
  138.3712   71.5340  220.1973 H   0  0  0  0  0  0  0  0  0  0  0  0
  137.6360   70.7780  223.0020 H   0  0  0  0  0  0  0  0  0  0  0  0
  136.5860   70.8740  221.7130 H   0  0  0  0  0  0  0  0  0  0  0  0
  140.0543   70.0440  221.1983 H   0  0  0  0  0  0  0  0  0  0  0  0
  140.5835   71.7647  221.3028 H   0  0  0  0  0  0  0  0  0  0  0  0
  140.8077   72.9032  223.3599 H   0  0  0  0  0  0  0  0  0  0  0  0
  141.0277   72.6884  225.8087 H   0  0  0  0  0  0  0  0  0  0  0  0
  139.2119   68.8955  223.2126 H   0  0  0  0  0  0  0  0  0  0  0  0
  137.2813   75.2834  222.2970 H   0  0  0  0  0  0  0  0  0  0  0  0
  138.6643   75.2117  223.4061 H   0  0  0  0  0  0  0  0  0  0  0  0
  138.7888   76.2996  220.5309 H   0  0  0  0  0  0  0  0  0  0  0  0
  138.6120   77.3298  221.9723 H   0  0  0  0  0  0  0  0  0  0  0  0
  1  2  1  0
  2  3  1  0
  3  4  2  0
  3  5  1  0
  5  6  1  0
  6  7  2  0
  7  8  1  0
  8  9  2  0
  9 10  1  0
 10 11  2  0
  5 12  1  0
 12 13  1  0
 13 14  1  0
 14 15  1  0
 15 16  1  0
 16 17  2  0
 16 18  1  0
 18 19  1  0
 18 20  1  0
 20 21  1  0
 21 22  2  0
 22 23  1  0
 23 24  2  0
 24 25  1  0
 24 26  1  0
 26 27  1  0
 26 28  2  0
 15 29  1  0
 29 30  1  0
 11  6  1  0
 30 12  1  0
 28 21  1  0
  1 31  1  0
  1 32  1  0
  1 33  1  0
  2 34  1  0
  2 35  1  0
  7 36  1  0
  8 37  1  0
  9 38  1  0
 10 39  1  0
 11 40  1  0
 12 41  1  0
 13 42  1  0
 13 43  1  0
 14 44  1  0
 14 45  1  0
 18 46  1  6
 19 47  1  0
 19 48  1  0
 20 49  1  0
 20 50  1  0
 22 51  1  0
 23 52  1  0
 28 53  1  0
 29 54  1  0
 29 55  1  0
 30 56  1  0
 30 57  1  0
M  END
>  <smiles>  (48) 
CCC(=O)N(c1ccccc1)C1CCN(C(=O)[C@H](N)Cc2ccc(Cl)c(Cl)c2)CC1

>  <score_type>  (48) 
oracle

>  <origin>  (48) 
autodockgpu

>  <m_score__min__energy>  (48) 
-7.7000000000000002

>  <m_primary>  (48) 
energy

>  <rmsd>  (48) 
7.819674652391976

>  <m_score__min__rmsd>  (48) 
7.819674652391976

>  <meeko>  (48) 
{"free_energy": -6.9, "intermolecular_energy": -9.29, "internal_energy": -3.14, "cluster_size": 20, "cluster_id": 3, "rank_in_cluster": 13}

>  <energy>  (48) 
-6.05

>  <cluster_rmsd>  (48) 
0.3

>  <cluster>  (48) 
12

$$$$

     RDKit          3D

 57 59  0  0  0  0  0  0  0  0999 V2000
  145.6360   73.0100  221.4680 C   0  0  0  0  0  0  0  0  0  0  0  0
  146.0900   73.5380  220.1070 C   0  0  0  0  0  0  0  0  0  0  0  0
  145.4830   72.7130  219.0110 C   0  0  0  0  0  0  0  0  0  0  0  0
  145.9220   72.9240  217.8500 O   0  0  0  0  0  0  0  0  0  0  0  0
  144.4740   71.7570  219.3080 N   0  0  0  0  0  0  0  0  0  0  0  0
  144.8220   70.3840  219.3280 C   0  0  0  0  0  0  0  0  0  0  0  0
  143.7780   69.4750  219.3430 C   0  0  0  0  0  0  0  0  0  0  0  0
  143.9780   68.1090  219.3630 C   0  0  0  0  0  0  0  0  0  0  0  0
  145.2930   67.6400  219.3680 C   0  0  0  0  0  0  0  0  0  0  0  0
  146.3220   68.5480  219.3530 C   0  0  0  0  0  0  0  0  0  0  0  0
  146.1220   69.9210  219.3330 C   0  0  0  0  0  0  0  0  0  0  0  0
  143.1340   72.2510  219.5810 C   0  0  0  0  0  0  0  0  0  0  0  0
  142.9510   73.7090  219.3710 C   0  0  0  0  0  0  0  0  0  0  0  0
  142.6840   74.3150  220.7570 C   0  0  0  0  0  0  0  0  0  0  0  0
  141.4460   73.7960  221.2790 N   0  0  0  0  0  0  0  0  0  0  0  0
  140.4230   74.5510  221.8870 C   0  0  0  0  0  0  0  0  0  0  0  0
  139.3790   73.9510  222.3340 O   0  0  0  0  0  0  0  0  0  0  0  0
  140.4320   76.0170  222.0660 C   0  0  2  0  0  0  0  0  0  0  0  0
  139.0970   76.3370  222.6210 N   0  0  0  0  0  0  0  0  0  0  0  0
  140.4950   76.7770  220.7460 C   0  0  0  0  0  0  0  0  0  0  0  0
  140.7130   78.2360  220.9940 C   0  0  0  0  0  0  0  0  0  0  0  0
  140.1730   79.1570  220.0920 C   0  0  0  0  0  0  0  0  0  0  0  0
  140.3800   80.4880  220.3310 C   0  0  0  0  0  0  0  0  0  0  0  0
  141.0980   80.9280  221.4250 C   0  0  0  0  0  0  0  0  0  0  0  0
  141.3650   82.6450  221.7290 Cl  0  0  0  0  0  0  0  0  0  0  0  0
  141.6410   80.0220  222.3300 C   0  0  0  0  0  0  0  0  0  0  0  0
  142.5550   80.5760  223.7210 Cl  0  0  0  0  0  0  0  0  0  0  0  0
  141.4330   78.6690  222.0910 C   0  0  0  0  0  0  0  0  0  0  0  0
  141.2580   72.3430  221.1430 C   0  0  0  0  0  0  0  0  0  0  0  0
  142.6350   71.7520  220.9280 C   0  0  0  0  0  0  0  0  0  0  0  0
  146.1291   73.5834  222.2668 H   0  0  0  0  0  0  0  0  0  0  0  0
  144.5451   73.1189  221.5582 H   0  0  0  0  0  0  0  0  0  0  0  0
  145.9072   71.9478  221.5582 H   0  0  0  0  0  0  0  0  0  0  0  0
  145.7692   74.5844  219.9962 H   0  0  0  0  0  0  0  0  0  0  0  0
  147.1863   73.4763  220.0420 H   0  0  0  0  0  0  0  0  0  0  0  0
  142.7464   69.8568  219.3388 H   0  0  0  0  0  0  0  0  0  0  0  0
  143.1274   67.4116  219.3747 H   0  0  0  0  0  0  0  0  0  0  0  0
  145.5010   66.5600  219.3837 H   0  0  0  0  0  0  0  0  0  0  0  0
  147.3547   68.1692  219.3570 H   0  0  0  0  0  0  0  0  0  0  0  0
  146.9727   70.6182  219.3215 H   0  0  0  0  0  0  0  0  0  0  0  0
  142.4822   71.8152  218.8094 H   0  0  0  0  0  0  0  0  0  0  0  0
  143.8595   74.1475  218.9324 H   0  0  0  0  0  0  0  0  0  0  0  0
  142.1198   73.9117  218.6796 H   0  0  0  0  0  0  0  0  0  0  0  0
  143.5075   74.0514  221.4370 H   0  0  0  0  0  0  0  0  0  0  0  0
  142.6148   75.4094  220.6709 H   0  0  0  0  0  0  0  0  0  0  0  0
  141.3010   76.2958  222.6801 H   0  0  0  0  0  0  0  0  0  0  0  0
  138.4200   75.8840  221.9500 H   0  0  0  0  0  0  0  0  0  0  0  0
  139.0450   75.7270  223.4860 H   0  0  0  0  0  0  0  0  0  0  0  0
  141.3254   76.3842  220.1409 H   0  0  0  0  0  0  0  0  0  0  0  0
  139.5424   76.6443  220.2122 H   0  0  0  0  0  0  0  0  0  0  0  0
  139.5986   78.8216  219.2159 H   0  0  0  0  0  0  0  0  0  0  0  0
  139.9629   81.2281  219.6322 H   0  0  0  0  0  0  0  0  0  0  0  0
  141.8498   77.9280  222.7890 H   0  0  0  0  0  0  0  0  0  0  0  0
  140.8056   71.9308  222.0570 H   0  0  0  0  0  0  0  0  0  0  0  0
  140.5865   72.1046  220.3050 H   0  0  0  0  0  0  0  0  0  0  0  0
  143.3153   72.0812  221.7273 H   0  0  0  0  0  0  0  0  0  0  0  0
  142.5951   70.6529  220.9465 H   0  0  0  0  0  0  0  0  0  0  0  0
  1  2  1  0
  2  3  1  0
  3  4  2  0
  3  5  1  0
  5  6  1  0
  6  7  2  0
  7  8  1  0
  8  9  2  0
  9 10  1  0
 10 11  2  0
  5 12  1  0
 12 13  1  0
 13 14  1  0
 14 15  1  0
 15 16  1  0
 16 17  2  0
 16 18  1  0
 18 19  1  0
 18 20  1  0
 20 21  1  0
 21 22  2  0
 22 23  1  0
 23 24  2  0
 24 25  1  0
 24 26  1  0
 26 27  1  0
 26 28  2  0
 15 29  1  0
 29 30  1  0
 11  6  1  0
 30 12  1  0
 28 21  1  0
  1 31  1  0
  1 32  1  0
  1 33  1  0
  2 34  1  0
  2 35  1  0
  7 36  1  0
  8 37  1  0
  9 38  1  0
 10 39  1  0
 11 40  1  0
 12 41  1  0
 13 42  1  0
 13 43  1  0
 14 44  1  0
 14 45  1  0
 18 46  1  1
 19 47  1  0
 19 48  1  0
 20 49  1  0
 20 50  1  0
 22 51  1  0
 23 52  1  0
 28 53  1  0
 29 54  1  0
 29 55  1  0
 30 56  1  0
 30 57  1  0
M  END
>  <smiles>  (49) 
CCC(=O)N(c1ccccc1)C1CCN(C(=O)[C@H](N)Cc2ccc(Cl)c(Cl)c2)CC1

>  <score_type>  (49) 
oracle

>  <origin>  (49) 
autodockgpu

>  <m_score__min__energy>  (49) 
-7.7000000000000002

>  <m_primary>  (49) 
energy

>  <rmsd>  (49) 
4.569057324003612

>  <m_score__min__rmsd>  (49) 
4.569057324003612

>  <meeko>  (49) 
{"free_energy": -7.49, "intermolecular_energy": -9.88, "internal_energy": -2.7, "cluster_size": 2, "cluster_id": 4, "rank_in_cluster": 1}

>  <energy>  (49) 
-5.9

>  <cluster_rmsd>  (49) 
0.58

>  <cluster>  (49) 
12

$$$$

     RDKit          3D

 57 59  0  0  0  0  0  0  0  0999 V2000
  142.9090   78.0510  218.0860 C   0  0  0  0  0  0  0  0  0  0  0  0
  142.6180   77.1000  219.2460 C   0  0  0  0  0  0  0  0  0  0  0  0
  141.2830   77.4230  219.8500 C   0  0  0  0  0  0  0  0  0  0  0  0
  140.3540   77.6770  219.0400 O   0  0  0  0  0  0  0  0  0  0  0  0
  141.1190   77.4260  221.2620 N   0  0  0  0  0  0  0  0  0  0  0  0
  141.5550   78.5570  221.9950 C   0  0  0  0  0  0  0  0  0  0  0  0
  141.7850   79.7170  221.2760 C   0  0  0  0  0  0  0  0  0  0  0  0
  142.2130   80.8900  221.8670 C   0  0  0  0  0  0  0  0  0  0  0  0
  142.4160   80.8900  223.2480 C   0  0  0  0  0  0  0  0  0  0  0  0
  142.1850   79.7360  223.9540 C   0  0  0  0  0  0  0  0  0  0  0  0
  141.7550   78.5570  223.3610 C   0  0  0  0  0  0  0  0  0  0  0  0
  140.5050   76.2600  221.8740 C   0  0  0  0  0  0  0  0  0  0  0  0
  141.1160   74.9610  221.4970 C   0  0  0  0  0  0  0  0  0  0  0  0
  140.0570   74.2040  220.6820 C   0  0  0  0  0  0  0  0  0  0  0  0
  138.9190   73.9180  221.5180 N   0  0  0  0  0  0  0  0  0  0  0  0
  138.2490   72.6820  221.6080 C   0  0  0  0  0  0  0  0  0  0  0  0
  137.2270   72.5750  222.3790 O   0  0  0  0  0  0  0  0  0  0  0  0
  138.6170   71.4530  220.8770 C   0  0  2  0  0  0  0  0  0  0  0  0
  137.6300   70.4410  221.3180 N   0  0  0  0  0  0  0  0  0  0  0  0
  139.9680   70.8880  221.3060 C   0  0  0  0  0  0  0  0  0  0  0  0
  140.0630   70.8400  222.7980 C   0  0  0  0  0  0  0  0  0  0  0  0
  140.6120   71.9360  223.4700 C   0  0  0  0  0  0  0  0  0  0  0  0
  140.6940   71.8780  224.8340 C   0  0  0  0  0  0  0  0  0  0  0  0
  140.2530   70.7790  225.5440 C   0  0  0  0  0  0  0  0  0  0  0  0
  140.3610   70.7070  227.3030 Cl  0  0  0  0  0  0  0  0  0  0  0  0
  139.7050   69.6820  224.8870 C   0  0  0  0  0  0  0  0  0  0  0  0
  139.1440   68.2820  225.7840 Cl  0  0  0  0  0  0  0  0  0  0  0  0
  139.6200   69.7360  223.5020 C   0  0  0  0  0  0  0  0  0  0  0  0
  138.4440   75.0350  222.3490 C   0  0  0  0  0  0  0  0  0  0  0  0
  138.9920   76.2980  221.7220 C   0  0  0  0  0  0  0  0  0  0  0  0
  143.2092   79.0321  218.4827 H   0  0  0  0  0  0  0  0  0  0  0  0
  143.7225   77.6400  217.4701 H   0  0  0  0  0  0  0  0  0  0  0  0
  142.0048   78.1656  217.4701 H   0  0  0  0  0  0  0  0  0  0  0  0
  142.6093   76.0645  218.8750 H   0  0  0  0  0  0  0  0  0  0  0  0
  143.3989   77.2145  220.0122 H   0  0  0  0  0  0  0  0  0  0  0  0
  141.6201   79.7044  220.1885 H   0  0  0  0  0  0  0  0  0  0  0  0
  142.3883   81.7958  221.2680 H   0  0  0  0  0  0  0  0  0  0  0  0
  142.7559   81.8009  223.7625 H   0  0  0  0  0  0  0  0  0  0  0  0
  142.3484   79.7459  225.0417 H   0  0  0  0  0  0  0  0  0  0  0  0
  141.5792   77.6515  223.9603 H   0  0  0  0  0  0  0  0  0  0  0  0
  140.7275   76.3262  222.9492 H   0  0  0  0  0  0  0  0  0  0  0  0
  142.0173   75.1268  220.8887 H   0  0  0  0  0  0  0  0  0  0  0  0
  141.4182   74.3893  222.3868 H   0  0  0  0  0  0  0  0  0  0  0  0
  139.7393   74.8227  219.8298 H   0  0  0  0  0  0  0  0  0  0  0  0
  140.4854   73.2608  220.3119 H   0  0  0  0  0  0  0  0  0  0  0  0
  138.6475   71.6749  219.8001 H   0  0  0  0  0  0  0  0  0  0  0  0
  137.6870   70.4640  222.3720 H   0  0  0  0  0  0  0  0  0  0  0  0
  136.7010   70.9040  221.1040 H   0  0  0  0  0  0  0  0  0  0  0  0
  140.0800   69.8707  220.9028 H   0  0  0  0  0  0  0  0  0  0  0  0
  140.7661   71.5382  220.9183 H   0  0  0  0  0  0  0  0  0  0  0  0
  140.9674   72.8187  222.9182 H   0  0  0  0  0  0  0  0  0  0  0  0
  141.1232   72.7306  225.3806 H   0  0  0  0  0  0  0  0  0  0  0  0
  139.1917   68.8835  222.9544 H   0  0  0  0  0  0  0  0  0  0  0  0
  137.3444   75.0613  222.3583 H   0  0  0  0  0  0  0  0  0  0  0  0
  138.7814   74.9284  223.3905 H   0  0  0  0  0  0  0  0  0  0  0  0
  138.7218   76.3369  220.6564 H   0  0  0  0  0  0  0  0  0  0  0  0
  138.5740   77.1891  222.2131 H   0  0  0  0  0  0  0  0  0  0  0  0
  1  2  1  0
  2  3  1  0
  3  4  2  0
  3  5  1  0
  5  6  1  0
  6  7  2  0
  7  8  1  0
  8  9  2  0
  9 10  1  0
 10 11  2  0
  5 12  1  0
 12 13  1  0
 13 14  1  0
 14 15  1  0
 15 16  1  0
 16 17  2  0
 16 18  1  0
 18 19  1  0
 18 20  1  0
 20 21  1  0
 21 22  2  0
 22 23  1  0
 23 24  2  0
 24 25  1  0
 24 26  1  0
 26 27  1  0
 26 28  2  0
 15 29  1  0
 29 30  1  0
 11  6  1  0
 30 12  1  0
 28 21  1  0
  1 31  1  0
  1 32  1  0
  1 33  1  0
  2 34  1  0
  2 35  1  0
  7 36  1  0
  8 37  1  0
  9 38  1  0
 10 39  1  0
 11 40  1  0
 12 41  1  0
 13 42  1  0
 13 43  1  0
 14 44  1  0
 14 45  1  0
 18 46  1  6
 19 47  1  0
 19 48  1  0
 20 49  1  0
 20 50  1  0
 22 51  1  0
 23 52  1  0
 28 53  1  0
 29 54  1  0
 29 55  1  0
 30 56  1  0
 30 57  1  0
M  END
>  <smiles>  (50) 
CCC(=O)N(c1ccccc1)C1CCN(C(=O)[C@H](N)Cc2ccc(Cl)c(Cl)c2)CC1

>  <score_type>  (50) 
oracle

>  <origin>  (50) 
autodockgpu

>  <m_score__min__energy>  (50) 
-7.7000000000000002

>  <m_primary>  (50) 
energy

>  <rmsd>  (50) 
7.776730646702812

>  <m_score__min__rmsd>  (50) 
7.776730646702812

>  <meeko>  (50) 
{"free_energy": -6.5, "intermolecular_energy": -8.88, "internal_energy": -3.23, "cluster_size": 20, "cluster_id": 3, "rank_in_cluster": 18}

>  <energy>  (50) 
-5.88

>  <cluster_rmsd>  (50) 
0.59

>  <cluster>  (50) 
12

$$$$
