
     RDKit          3D

 42 43  0  0  0  0  0  0  0  0999 V2000
  141.0720   74.9480  221.5400 O   0  0  0  0  0  0  0  0  0  0  0  0
  139.8540   74.7930  221.7980 C   0  0  0  0  0  0  0  0  0  0  0  0
  138.7710   75.7240  221.4980 C   0  0  0  0  0  0  0  0  0  0  0  0
  137.8000   76.0210  222.5890 C   0  0  0  0  0  0  0  0  0  0  0  0
  136.5670   75.1700  222.3900 C   0  0  0  0  0  0  0  0  0  0  0  0
  136.7380   73.8260  222.5780 O   0  0  0  0  0  0  0  0  0  0  0  0
  136.0990   72.9690  223.4070 C   0  0  0  0  0  0  0  0  0  0  0  0
  135.2930   73.2740  224.4700 C   0  0  0  0  0  0  0  0  0  0  0  0
  134.6900   72.2950  225.2530 C   0  0  0  0  0  0  0  0  0  0  0  0
  134.8760   70.9610  224.9960 C   0  0  0  0  0  0  0  0  0  0  0  0
  134.0980   69.7680  226.0060 Cl  0  0  0  0  0  0  0  0  0  0  0  0
  135.6840   70.6300  223.9300 C   0  0  0  0  0  0  0  0  0  0  0  0
  136.2760   71.6020  223.1600 C   0  0  0  0  0  0  0  0  0  0  0  0
  137.2930   71.0740  221.8200 Cl  0  0  0  0  0  0  0  0  0  0  0  0
  139.5080   73.5670  222.4590 N   0  0  0  0  0  0  0  0  0  0  0  0
  140.5760   72.6900  222.7340 N   0  0  0  0  0  0  0  0  0  0  0  0
  140.4580   71.4340  222.9230 C   0  0  0  0  0  0  0  0  0  0  0  0
  140.1770   70.9640  224.2760 C   0  0  0  0  0  0  0  0  0  0  0  0
  139.3410   69.8770  224.4250 C   0  0  0  0  0  0  0  0  0  0  0  0
  139.0160   69.3580  225.6780 C   0  0  0  0  0  0  0  0  0  0  0  0
  139.5510   69.9550  226.8010 C   0  0  0  0  0  0  0  0  0  0  0  0
  140.3900   71.0460  226.6400 C   0  0  0  0  0  0  0  0  0  0  0  0
  140.9870   71.7170  227.8310 C   0  0  0  0  0  0  0  0  0  0  0  0
  139.9430   72.2590  228.5650 F   0  0  0  0  0  0  0  0  0  0  0  0
  141.7720   72.8020  227.4320 F   0  0  0  0  0  0  0  0  0  0  0  0
  141.7800   70.8650  228.5550 F   0  0  0  0  0  0  0  0  0  0  0  0
  140.7130   71.5610  225.3980 C   0  0  0  0  0  0  0  0  0  0  0  0
  139.2295   76.6771  221.1958 H   0  0  0  0  0  0  0  0  0  0  0  0
  138.1760   75.2223  220.7207 H   0  0  0  0  0  0  0  0  0  0  0  0
  138.2560   75.7889  223.5628 H   0  0  0  0  0  0  0  0  0  0  0  0
  137.5263   77.0861  222.5654 H   0  0  0  0  0  0  0  0  0  0  0  0
  135.7997   75.5156  223.0984 H   0  0  0  0  0  0  0  0  0  0  0  0
  136.2855   75.2919  221.3336 H   0  0  0  0  0  0  0  0  0  0  0  0
  135.1155   74.3318  224.7142 H   0  0  0  0  0  0  0  0  0  0  0  0
  134.0508   72.5972  226.0957 H   0  0  0  0  0  0  0  0  0  0  0  0
  135.8579   69.5703  223.6915 H   0  0  0  0  0  0  0  0  0  0  0  0
  138.5200   73.3320  222.7230 H   0  0  0  0  0  0  0  0  0  0  0  0
  140.5651   70.7246  222.0892 H   0  0  0  0  0  0  0  0  0  0  0  0
  138.9171   69.4044  223.5267 H   0  0  0  0  0  0  0  0  0  0  0  0
  138.3465   68.4900  225.7692 H   0  0  0  0  0  0  0  0  0  0  0  0
  139.3159   69.5721  227.8051 H   0  0  0  0  0  0  0  0  0  0  0  0
  141.3832   72.4284  225.3067 H   0  0  0  0  0  0  0  0  0  0  0  0
  1  2  2  0
  2  3  1  0
  3  4  1  0
  4  5  1  0
  5  6  1  0
  6  7  1  0
  7  8  2  0
  8  9  1  0
  9 10  2  0
 10 11  1  0
 10 12  1  0
 12 13  2  0
 13 14  1  0
  2 15  1  0
 15 16  1  0
 16 17  2  0
 17 18  1  0
 18 19  2  0
 19 20  1  0
 20 21  2  0
 21 22  1  0
 22 23  1  0
 23 24  1  0
 23 25  1  0
 23 26  1  0
 22 27  2  0
 13  7  1  0
 27 18  1  0
  3 28  1  0
  3 29  1  0
  4 30  1  0
  4 31  1  0
  5 32  1  0
  5 33  1  0
  8 34  1  0
  9 35  1  0
 12 36  1  0
 15 37  1  0
 17 38  1  0
 19 39  1  0
 20 40  1  0
 21 41  1  0
 27 42  1  0
M  END
>  <smiles>  (1) 
O=C(CCCOc1ccc(Cl)cc1Cl)NN=Cc1cccc(C(F)(F)F)c1

>  <score_type>  (1) 
oracle

>  <origin>  (1) 
autodockgpu

>  <m_score__min__energy>  (1) 
-7.4800000000000004

>  <m_primary>  (1) 
energy

>  <rmsd>  (1) 
10.886236029689499

>  <m_score__min__rmsd>  (1) 
10.886236029689499

>  <meeko>  (1) 
{"free_energy": -5.37, "intermolecular_energy": -8.05, "internal_energy": -2.59, "cluster_size": 1, "cluster_id": 11, "rank_in_cluster": 1}

>  <energy>  (1) 
-7.48

>  <cluster_rmsd>  (1) 
0.0

>  <cluster>  (1) 
1

$$$$

     RDKit          3D

 42 43  0  0  0  0  0  0  0  0999 V2000
  136.5160   71.2470  220.9540 O   0  0  0  0  0  0  0  0  0  0  0  0
  137.4160   71.7920  221.6370 C   0  0  0  0  0  0  0  0  0  0  0  0
  138.7850   72.0720  221.2160 C   0  0  0  0  0  0  0  0  0  0  0  0
  139.5810   73.0140  222.0530 C   0  0  0  0  0  0  0  0  0  0  0  0
  140.3470   72.2200  223.0860 C   0  0  0  0  0  0  0  0  0  0  0  0
  139.6080   71.7450  224.1360 O   0  0  0  0  0  0  0  0  0  0  0  0
  139.9840   71.0230  225.2160 C   0  0  0  0  0  0  0  0  0  0  0  0
  140.7500   71.4320  226.2740 C   0  0  0  0  0  0  0  0  0  0  0  0
  141.0710   70.5880  227.3310 C   0  0  0  0  0  0  0  0  0  0  0  0
  140.6320   69.2890  227.3660 C   0  0  0  0  0  0  0  0  0  0  0  0
  141.0610   68.2660  228.7150 Cl  0  0  0  0  0  0  0  0  0  0  0  0
  139.8590   68.8550  226.3110 C   0  0  0  0  0  0  0  0  0  0  0  0
  139.5450   69.6940  225.2700 C   0  0  0  0  0  0  0  0  0  0  0  0
  138.5510   69.0410  223.9680 Cl  0  0  0  0  0  0  0  0  0  0  0  0
  137.0430   72.1730  222.9700 N   0  0  0  0  0  0  0  0  0  0  0  0
  135.7160   71.8890  223.3460 N   0  0  0  0  0  0  0  0  0  0  0  0
  135.3040   71.7910  224.5490 C   0  0  0  0  0  0  0  0  0  0  0  0
  134.6830   72.9610  225.1630 C   0  0  0  0  0  0  0  0  0  0  0  0
  135.2570   74.1940  224.9370 C   0  0  0  0  0  0  0  0  0  0  0  0
  134.7340   75.3670  225.4820 C   0  0  0  0  0  0  0  0  0  0  0  0
  133.6050   75.2830  226.2720 C   0  0  0  0  0  0  0  0  0  0  0  0
  133.0360   74.0390  226.4920 C   0  0  0  0  0  0  0  0  0  0  0  0
  131.8160   73.9110  227.3400 C   0  0  0  0  0  0  0  0  0  0  0  0
  131.7620   72.6000  227.7890 F   0  0  0  0  0  0  0  0  0  0  0  0
  130.6670   74.0930  226.5660 F   0  0  0  0  0  0  0  0  0  0  0  0
  131.7950   74.8360  228.3510 F   0  0  0  0  0  0  0  0  0  0  0  0
  133.5550   72.8760  225.9520 C   0  0  0  0  0  0  0  0  0  0  0  0
  139.3254   71.1142  221.1925 H   0  0  0  0  0  0  0  0  0  0  0  0
  138.6827   72.5770  220.2441 H   0  0  0  0  0  0  0  0  0  0  0  0
  140.2856   73.5691  221.4163 H   0  0  0  0  0  0  0  0  0  0  0  0
  138.9100   73.7281  222.5528 H   0  0  0  0  0  0  0  0  0  0  0  0
  140.8060   71.3587  222.5785 H   0  0  0  0  0  0  0  0  0  0  0  0
  141.0750   72.9193  223.5231 H   0  0  0  0  0  0  0  0  0  0  0  0
  141.1252   72.4659  226.2884 H   0  0  0  0  0  0  0  0  0  0  0  0
  141.6899   70.9698  228.1564 H   0  0  0  0  0  0  0  0  0  0  0  0
  139.4874   67.8197  226.3025 H   0  0  0  0  0  0  0  0  0  0  0  0
  137.7160   72.6360  223.6290 H   0  0  0  0  0  0  0  0  0  0  0  0
  135.4136   70.8505  225.1088 H   0  0  0  0  0  0  0  0  0  0  0  0
  136.1564   74.2549  224.3066 H   0  0  0  0  0  0  0  0  0  0  0  0
  135.2113   76.3385  225.2863 H   0  0  0  0  0  0  0  0  0  0  0  0
  133.1653   76.1870  226.7186 H   0  0  0  0  0  0  0  0  0  0  0  0
  133.0782   71.9042  226.1477 H   0  0  0  0  0  0  0  0  0  0  0  0
  1  2  2  0
  2  3  1  0
  3  4  1  0
  4  5  1  0
  5  6  1  0
  6  7  1  0
  7  8  2  0
  8  9  1  0
  9 10  2  0
 10 11  1  0
 10 12  1  0
 12 13  2  0
 13 14  1  0
  2 15  1  0
 15 16  1  0
 16 17  2  0
 17 18  1  0
 18 19  2  0
 19 20  1  0
 20 21  2  0
 21 22  1  0
 22 23  1  0
 23 24  1  0
 23 25  1  0
 23 26  1  0
 22 27  2  0
 13  7  1  0
 27 18  1  0
  3 28  1  0
  3 29  1  0
  4 30  1  0
  4 31  1  0
  5 32  1  0
  5 33  1  0
  8 34  1  0
  9 35  1  0
 12 36  1  0
 15 37  1  0
 17 38  1  0
 19 39  1  0
 20 40  1  0
 21 41  1  0
 27 42  1  0
M  END
>  <smiles>  (2) 
O=C(CCCOc1ccc(Cl)cc1Cl)NN=Cc1cccc(C(F)(F)F)c1

>  <score_type>  (2) 
oracle

>  <origin>  (2) 
autodockgpu

>  <m_score__min__energy>  (2) 
-7.4800000000000004

>  <m_primary>  (2) 
energy

>  <rmsd>  (2) 
12.734687222019717

>  <m_score__min__rmsd>  (2) 
12.734687222019717

>  <meeko>  (2) 
{"free_energy": -5.57, "intermolecular_energy": -8.25, "internal_energy": -1.97, "cluster_size": 1, "cluster_id": 10, "rank_in_cluster": 1}

>  <energy>  (2) 
-7.47

>  <cluster_rmsd>  (2) 
1.88

>  <cluster>  (2) 
1

$$$$

     RDKit          3D

 42 43  0  0  0  0  0  0  0  0999 V2000
  140.2370   74.0010  222.3030 O   0  0  0  0  0  0  0  0  0  0  0  0
  140.8450   73.1220  221.6460 C   0  0  0  0  0  0  0  0  0  0  0  0
  141.7830   73.3420  220.5500 C   0  0  0  0  0  0  0  0  0  0  0  0
  141.3850   74.3120  219.4910 C   0  0  0  0  0  0  0  0  0  0  0  0
  141.9360   75.6740  219.8450 C   0  0  0  0  0  0  0  0  0  0  0  0
  141.0550   76.5340  220.4410 O   0  0  0  0  0  0  0  0  0  0  0  0
  141.2740   77.5660  221.2870 C   0  0  0  0  0  0  0  0  0  0  0  0
  141.1120   77.5870  222.6460 C   0  0  0  0  0  0  0  0  0  0  0  0
  141.3700   78.7200  223.4100 C   0  0  0  0  0  0  0  0  0  0  0  0
  141.8040   79.8860  222.8330 C   0  0  0  0  0  0  0  0  0  0  0  0
  142.1150   81.2830  223.8330 Cl  0  0  0  0  0  0  0  0  0  0  0  0
  141.9740   79.8890  221.4660 C   0  0  0  0  0  0  0  0  0  0  0  0
  141.7170   78.7650  220.7170 C   0  0  0  0  0  0  0  0  0  0  0  0
  141.9650   78.8740  218.9740 Cl  0  0  0  0  0  0  0  0  0  0  0  0
  140.5790   71.7640  222.0260 N   0  0  0  0  0  0  0  0  0  0  0  0
  139.6700   71.5850  223.0870 N   0  0  0  0  0  0  0  0  0  0  0  0
  139.3560   70.4590  223.5970 C   0  0  0  0  0  0  0  0  0  0  0  0
  139.7970   70.1710  224.9570 C   0  0  0  0  0  0  0  0  0  0  0  0
  139.8440   68.8520  225.3600 C   0  0  0  0  0  0  0  0  0  0  0  0
  140.2530   68.4810  226.6410 C   0  0  0  0  0  0  0  0  0  0  0  0
  140.6200   69.4710  227.5300 C   0  0  0  0  0  0  0  0  0  0  0  0
  140.5700   70.7920  227.1160 C   0  0  0  0  0  0  0  0  0  0  0  0
  140.9600   71.8870  228.0500 C   0  0  0  0  0  0  0  0  0  0  0  0
  141.8440   71.3480  228.9720 F   0  0  0  0  0  0  0  0  0  0  0  0
  139.8520   72.3080  228.7910 F   0  0  0  0  0  0  0  0  0  0  0  0
  141.4600   72.9750  227.3840 F   0  0  0  0  0  0  0  0  0  0  0  0
  140.1650   71.1600  225.8460 C   0  0  0  0  0  0  0  0  0  0  0  0
  142.7253   73.7013  220.9893 H   0  0  0  0  0  0  0  0  0  0  0  0
  141.8454   72.3724  220.0343 H   0  0  0  0  0  0  0  0  0  0  0  0
  141.7927   73.9889  218.5218 H   0  0  0  0  0  0  0  0  0  0  0  0
  140.2882   74.3595  219.4212 H   0  0  0  0  0  0  0  0  0  0  0  0
  142.7827   75.5279  220.5319 H   0  0  0  0  0  0  0  0  0  0  0  0
  142.2126   76.1431  218.8892 H   0  0  0  0  0  0  0  0  0  0  0  0
  140.7650   76.6742  223.1524 H   0  0  0  0  0  0  0  0  0  0  0  0
  141.2230   78.6802  224.4994 H   0  0  0  0  0  0  0  0  0  0  0  0
  142.3209   80.8052  220.9657 H   0  0  0  0  0  0  0  0  0  0  0  0
  141.0320   70.9490  221.5450 H   0  0  0  0  0  0  0  0  0  0  0  0
  138.7683   69.7248  223.0264 H   0  0  0  0  0  0  0  0  0  0  0  0
  139.5492   68.0673  224.6477 H   0  0  0  0  0  0  0  0  0  0  0  0
  140.2824   67.4218  226.9364 H   0  0  0  0  0  0  0  0  0  0  0  0
  140.9463   69.2156  228.5490 H   0  0  0  0  0  0  0  0  0  0  0  0
  140.1368   72.2192  225.5506 H   0  0  0  0  0  0  0  0  0  0  0  0
  1  2  2  0
  2  3  1  0
  3  4  1  0
  4  5  1  0
  5  6  1  0
  6  7  1  0
  7  8  2  0
  8  9  1  0
  9 10  2  0
 10 11  1  0
 10 12  1  0
 12 13  2  0
 13 14  1  0
  2 15  1  0
 15 16  1  0
 16 17  2  0
 17 18  1  0
 18 19  2  0
 19 20  1  0
 20 21  2  0
 21 22  1  0
 22 23  1  0
 23 24  1  0
 23 25  1  0
 23 26  1  0
 22 27  2  0
 13  7  1  0
 27 18  1  0
  3 28  1  0
  3 29  1  0
  4 30  1  0
  4 31  1  0
  5 32  1  0
  5 33  1  0
  8 34  1  0
  9 35  1  0
 12 36  1  0
 15 37  1  0
 17 38  1  0
 19 39  1  0
 20 40  1  0
 21 41  1  0
 27 42  1  0
M  END
>  <smiles>  (3) 
O=C(CCCOc1ccc(Cl)cc1Cl)NN=Cc1cccc(C(F)(F)F)c1

>  <score_type>  (3) 
oracle

>  <origin>  (3) 
autodockgpu

>  <m_score__min__energy>  (3) 
-7.4800000000000004

>  <m_primary>  (3) 
energy

>  <rmsd>  (3) 
6.1827820627686165

>  <m_score__min__rmsd>  (3) 
6.1827820627686165

>  <meeko>  (3) 
{"free_energy": -7.33, "intermolecular_energy": -10.01, "internal_energy": -0.84, "cluster_size": 22, "cluster_id": 1, "rank_in_cluster": 4}

>  <energy>  (3) 
-7.47

>  <cluster_rmsd>  (3) 
1.86

>  <cluster>  (3) 
1

$$$$

     RDKit          3D

 42 43  0  0  0  0  0  0  0  0999 V2000
  141.1430   74.0500  221.9230 O   0  0  0  0  0  0  0  0  0  0  0  0
  139.9120   74.2920  221.9620 C   0  0  0  0  0  0  0  0  0  0  0  0
  139.2540   75.5380  221.5870 C   0  0  0  0  0  0  0  0  0  0  0  0
  138.2150   76.0710  222.5120 C   0  0  0  0  0  0  0  0  0  0  0  0
  136.8800   75.4610  222.1510 C   0  0  0  0  0  0  0  0  0  0  0  0
  136.4090   74.5110  223.0150 O   0  0  0  0  0  0  0  0  0  0  0  0
  135.5030   74.6090  224.0150 C   0  0  0  0  0  0  0  0  0  0  0  0
  134.9570   75.7460  224.5450 C   0  0  0  0  0  0  0  0  0  0  0  0
  134.0290   75.7150  225.5800 C   0  0  0  0  0  0  0  0  0  0  0  0
  133.6130   74.5290  226.1300 C   0  0  0  0  0  0  0  0  0  0  0  0
  132.4470   74.5400  227.4290 Cl  0  0  0  0  0  0  0  0  0  0  0  0
  134.1500   73.3710  225.6130 C   0  0  0  0  0  0  0  0  0  0  0  0
  135.0660   73.4090  224.5880 C   0  0  0  0  0  0  0  0  0  0  0  0
  135.6940   71.8700  223.9990 Cl  0  0  0  0  0  0  0  0  0  0  0  0
  139.0810   73.2180  222.4270 N   0  0  0  0  0  0  0  0  0  0  0  0
  139.7460   72.0290  222.7820 N   0  0  0  0  0  0  0  0  0  0  0  0
  139.2520   71.1060  223.5100 C   0  0  0  0  0  0  0  0  0  0  0  0
  139.8620   70.8530  224.8110 C   0  0  0  0  0  0  0  0  0  0  0  0
  140.5410   71.8880  225.4220 C   0  0  0  0  0  0  0  0  0  0  0  0
  141.1550   71.7400  226.6660 C   0  0  0  0  0  0  0  0  0  0  0  0
  141.0800   70.5160  227.3000 C   0  0  0  0  0  0  0  0  0  0  0  0
  140.3960   69.4840  226.6780 C   0  0  0  0  0  0  0  0  0  0  0  0
  140.2930   68.1490  227.3330 C   0  0  0  0  0  0  0  0  0  0  0  0
  141.4010   67.4120  226.9440 F   0  0  0  0  0  0  0  0  0  0  0  0
  139.1850   67.4530  226.8430 F   0  0  0  0  0  0  0  0  0  0  0  0
  140.1570   68.2550  228.6930 F   0  0  0  0  0  0  0  0  0  0  0  0
  139.7860   69.6310  225.4450 C   0  0  0  0  0  0  0  0  0  0  0  0
  140.0346   76.3069  221.4897 H   0  0  0  0  0  0  0  0  0  0  0  0
  138.7103   75.3008  220.6607 H   0  0  0  0  0  0  0  0  0  0  0  0
  138.4731   75.8080  223.5484 H   0  0  0  0  0  0  0  0  0  0  0  0
  138.1615   77.1660  222.4217 H   0  0  0  0  0  0  0  0  0  0  0  0
  136.1390   76.2727  222.1045 H   0  0  0  0  0  0  0  0  0  0  0  0
  137.0359   74.9439  221.1927 H   0  0  0  0  0  0  0  0  0  0  0  0
  135.2634   76.7206  224.1373 H   0  0  0  0  0  0  0  0  0  0  0  0
  133.6201   76.6606  225.9656 H   0  0  0  0  0  0  0  0  0  0  0  0
  133.8411   72.3997  226.0268 H   0  0  0  0  0  0  0  0  0  0  0  0
  138.0380   73.3100  222.5010 H   0  0  0  0  0  0  0  0  0  0  0  0
  138.3892   70.5164  223.1664 H   0  0  0  0  0  0  0  0  0  0  0  0
  140.5998   72.8607  224.9117 H   0  0  0  0  0  0  0  0  0  0  0  0
  141.6881   72.5817  227.1323 H   0  0  0  0  0  0  0  0  0  0  0  0
  141.5544   70.3629  228.2806 H   0  0  0  0  0  0  0  0  0  0  0  0
  139.2511   68.7899  224.9798 H   0  0  0  0  0  0  0  0  0  0  0  0
  1  2  2  0
  2  3  1  0
  3  4  1  0
  4  5  1  0
  5  6  1  0
  6  7  1  0
  7  8  2  0
  8  9  1  0
  9 10  2  0
 10 11  1  0
 10 12  1  0
 12 13  2  0
 13 14  1  0
  2 15  1  0
 15 16  1  0
 16 17  2  0
 17 18  1  0
 18 19  2  0
 19 20  1  0
 20 21  2  0
 21 22  1  0
 22 23  1  0
 23 24  1  0
 23 25  1  0
 23 26  1  0
 22 27  2  0
 13  7  1  0
 27 18  1  0
  3 28  1  0
  3 29  1  0
  4 30  1  0
  4 31  1  0
  5 32  1  0
  5 33  1  0
  8 34  1  0
  9 35  1  0
 12 36  1  0
 15 37  1  0
 17 38  1  0
 19 39  1  0
 20 40  1  0
 21 41  1  0
 27 42  1  0
M  END
>  <smiles>  (4) 
O=C(CCCOc1ccc(Cl)cc1Cl)NN=Cc1cccc(C(F)(F)F)c1

>  <score_type>  (4) 
oracle

>  <origin>  (4) 
autodockgpu

>  <m_score__min__energy>  (4) 
-7.4800000000000004

>  <m_primary>  (4) 
energy

>  <rmsd>  (4) 
9.919303414891587

>  <m_score__min__rmsd>  (4) 
9.919303414891587

>  <meeko>  (4) 
{"free_energy": -6.12, "intermolecular_energy": -8.8, "internal_energy": -1.94, "cluster_size": 2, "cluster_id": 6, "rank_in_cluster": 1}

>  <energy>  (4) 
-7.33

>  <cluster_rmsd>  (4) 
1.91

>  <cluster>  (4) 
1

$$$$

     RDKit          3D

 42 43  0  0  0  0  0  0  0  0999 V2000
  140.0740   74.6330  222.1310 O   0  0  0  0  0  0  0  0  0  0  0  0
  140.6020   73.8940  221.2650 C   0  0  0  0  0  0  0  0  0  0  0  0
  140.9380   74.2570  219.8930 C   0  0  0  0  0  0  0  0  0  0  0  0
  139.8470   74.8120  219.0430 C   0  0  0  0  0  0  0  0  0  0  0  0
  139.9780   76.3170  219.0010 C   0  0  0  0  0  0  0  0  0  0  0  0
  139.6310   76.9740  220.1490 O   0  0  0  0  0  0  0  0  0  0  0  0
  140.3440   77.8260  220.9210 C   0  0  0  0  0  0  0  0  0  0  0  0
  141.5270   78.4440  220.6170 C   0  0  0  0  0  0  0  0  0  0  0  0
  142.1680   79.3030  221.5030 C   0  0  0  0  0  0  0  0  0  0  0  0
  141.6410   79.5760  222.7390 C   0  0  0  0  0  0  0  0  0  0  0  0
  142.4820   80.6610  223.8180 Cl  0  0  0  0  0  0  0  0  0  0  0  0
  140.4510   78.9640  223.0680 C   0  0  0  0  0  0  0  0  0  0  0  0
  139.8220   78.1170  222.1870 C   0  0  0  0  0  0  0  0  0  0  0  0
  138.3040   77.3840  222.7040 Cl  0  0  0  0  0  0  0  0  0  0  0  0
  140.8980   72.5540  221.6860 N   0  0  0  0  0  0  0  0  0  0  0  0
  140.5620   72.2350  223.0160 N   0  0  0  0  0  0  0  0  0  0  0  0
  139.9190   71.1940  223.3760 C   0  0  0  0  0  0  0  0  0  0  0  0
  140.1210   70.6930  224.7310 C   0  0  0  0  0  0  0  0  0  0  0  0
  139.9500   69.3430  224.9570 C   0  0  0  0  0  0  0  0  0  0  0  0
  140.1220   68.7740  226.2190 C   0  0  0  0  0  0  0  0  0  0  0  0
  140.4740   69.5940  227.2720 C   0  0  0  0  0  0  0  0  0  0  0  0
  140.6440   70.9480  227.0340 C   0  0  0  0  0  0  0  0  0  0  0  0
  141.0250   71.8640  228.1480 C   0  0  0  0  0  0  0  0  0  0  0  0
  141.7290   72.9200  227.5910 F   0  0  0  0  0  0  0  0  0  0  0  0
  141.9190   71.2280  229.0140 F   0  0  0  0  0  0  0  0  0  0  0  0
  139.9360   72.2590  228.8810 F   0  0  0  0  0  0  0  0  0  0  0  0
  140.4730   71.5130  225.7830 C   0  0  0  0  0  0  0  0  0  0  0  0
  141.7374   75.0113  219.9378 H   0  0  0  0  0  0  0  0  0  0  0  0
  141.2146   73.3078  219.4109 H   0  0  0  0  0  0  0  0  0  0  0  0
  139.9293   74.4054  218.0242 H   0  0  0  0  0  0  0  0  0  0  0  0
  138.8690   74.5342  219.4628 H   0  0  0  0  0  0  0  0  0  0  0  0
  141.0274   76.5589  218.7770 H   0  0  0  0  0  0  0  0  0  0  0  0
  139.2682   76.6588  218.2333 H   0  0  0  0  0  0  0  0  0  0  0  0
  141.9873   78.2542  219.6362 H   0  0  0  0  0  0  0  0  0  0  0  0
  143.1172   79.7731  221.2062 H   0  0  0  0  0  0  0  0  0  0  0  0
  139.9972   79.1564  224.0514 H   0  0  0  0  0  0  0  0  0  0  0  0
  141.3400   71.8510  221.0450 H   0  0  0  0  0  0  0  0  0  0  0  0
  139.2307   70.6876  222.6834 H   0  0  0  0  0  0  0  0  0  0  0  0
  139.6688   68.6940  224.1146 H   0  0  0  0  0  0  0  0  0  0  0  0
  139.9800   67.6940  226.3718 H   0  0  0  0  0  0  0  0  0  0  0  0
  140.6168   69.1801  228.2811 H   0  0  0  0  0  0  0  0  0  0  0  0
  140.6147   72.5931  225.6303 H   0  0  0  0  0  0  0  0  0  0  0  0
  1  2  2  0
  2  3  1  0
  3  4  1  0
  4  5  1  0
  5  6  1  0
  6  7  1  0
  7  8  2  0
  8  9  1  0
  9 10  2  0
 10 11  1  0
 10 12  1  0
 12 13  2  0
 13 14  1  0
  2 15  1  0
 15 16  1  0
 16 17  2  0
 17 18  1  0
 18 19  2  0
 19 20  1  0
 20 21  2  0
 21 22  1  0
 22 23  1  0
 23 24  1  0
 23 25  1  0
 23 26  1  0
 22 27  2  0
 13  7  1  0
 27 18  1  0
  3 28  1  0
  3 29  1  0
  4 30  1  0
  4 31  1  0
  5 32  1  0
  5 33  1  0
  8 34  1  0
  9 35  1  0
 12 36  1  0
 15 37  1  0
 17 38  1  0
 19 39  1  0
 20 40  1  0
 21 41  1  0
 27 42  1  0
M  END
>  <smiles>  (5) 
O=C(CCCOc1ccc(Cl)cc1Cl)NN=Cc1cccc(C(F)(F)F)c1

>  <score_type>  (5) 
oracle

>  <origin>  (5) 
autodockgpu

>  <m_score__min__energy>  (5) 
-7.4800000000000004

>  <m_primary>  (5) 
energy

>  <rmsd>  (5) 
5.86128156872679

>  <m_score__min__rmsd>  (5) 
5.86128156872679

>  <meeko>  (5) 
{"free_energy": -6.63, "intermolecular_energy": -9.31, "internal_energy": -1.03, "cluster_size": 22, "cluster_id": 1, "rank_in_cluster": 16}

>  <energy>  (5) 
-7.31

>  <cluster_rmsd>  (5) 
1.34

>  <cluster>  (5) 
1

$$$$

     RDKit          3D

 42 43  0  0  0  0  0  0  0  0999 V2000
  140.3140   73.7270  222.3430 O   0  0  0  0  0  0  0  0  0  0  0  0
  141.1970   74.2150  221.5960 C   0  0  0  0  0  0  0  0  0  0  0  0
  142.0380   73.4930  220.6490 C   0  0  0  0  0  0  0  0  0  0  0  0
  143.5120   73.6930  220.7480 C   0  0  0  0  0  0  0  0  0  0  0  0
  143.8770   74.9820  220.0470 C   0  0  0  0  0  0  0  0  0  0  0  0
  142.9030   75.5210  219.2520 O   0  0  0  0  0  0  0  0  0  0  0  0
  142.7010   76.7990  218.8570 C   0  0  0  0  0  0  0  0  0  0  0  0
  142.2330   77.8450  219.6060 C   0  0  0  0  0  0  0  0  0  0  0  0
  142.0670   79.1220  219.0810 C   0  0  0  0  0  0  0  0  0  0  0  0
  142.3670   79.3980  217.7710 C   0  0  0  0  0  0  0  0  0  0  0  0
  142.1420   81.0170  217.1560 Cl  0  0  0  0  0  0  0  0  0  0  0  0
  142.8390   78.3610  216.9980 C   0  0  0  0  0  0  0  0  0  0  0  0
  143.0020   77.1010  217.5240 C   0  0  0  0  0  0  0  0  0  0  0  0
  143.6120   75.8420  216.4500 Cl  0  0  0  0  0  0  0  0  0  0  0  0
  141.3840   75.6350  221.6980 N   0  0  0  0  0  0  0  0  0  0  0  0
  140.5560   76.3030  222.6210 N   0  0  0  0  0  0  0  0  0  0  0  0
  139.9780   77.4200  222.4070 C   0  0  0  0  0  0  0  0  0  0  0  0
  140.7570   78.6430  222.5750 C   0  0  0  0  0  0  0  0  0  0  0  0
  141.7710   78.6440  223.5110 C   0  0  0  0  0  0  0  0  0  0  0  0
  142.5670   79.7660  223.7410 C   0  0  0  0  0  0  0  0  0  0  0  0
  142.3280   80.9090  223.0050 C   0  0  0  0  0  0  0  0  0  0  0  0
  141.3080   80.8970  222.0670 C   0  0  0  0  0  0  0  0  0  0  0  0
  141.0210   82.1140  221.2550 C   0  0  0  0  0  0  0  0  0  0  0  0
  141.5320   83.2020  221.9450 F   0  0  0  0  0  0  0  0  0  0  0  0
  139.6430   82.3300  221.1760 F   0  0  0  0  0  0  0  0  0  0  0  0
  141.5040   82.0020  219.9760 F   0  0  0  0  0  0  0  0  0  0  0  0
  140.5180   79.7850  221.8390 C   0  0  0  0  0  0  0  0  0  0  0  0
  141.8410   72.4194  220.7850 H   0  0  0  0  0  0  0  0  0  0  0  0
  141.7649   73.8996  219.6641 H   0  0  0  0  0  0  0  0  0  0  0  0
  143.8069   73.7513  221.8061 H   0  0  0  0  0  0  0  0  0  0  0  0
  144.0362   72.8492  220.2755 H   0  0  0  0  0  0  0  0  0  0  0  0
  144.1341   75.7244  220.8169 H   0  0  0  0  0  0  0  0  0  0  0  0
  144.7097   74.7316  219.3732 H   0  0  0  0  0  0  0  0  0  0  0  0
  141.9790   77.6689  220.6617 H   0  0  0  0  0  0  0  0  0  0  0  0
  141.6878   79.9263  219.7285 H   0  0  0  0  0  0  0  0  0  0  0  0
  143.0898   78.5434  215.9426 H   0  0  0  0  0  0  0  0  0  0  0  0
  142.0940   76.1490  221.1210 H   0  0  0  0  0  0  0  0  0  0  0  0
  138.9213   77.4604  222.1041 H   0  0  0  0  0  0  0  0  0  0  0  0
  141.9575   77.7304  224.0946 H   0  0  0  0  0  0  0  0  0  0  0  0
  143.3689   79.7405  224.4936 H   0  0  0  0  0  0  0  0  0  0  0  0
  142.9359   81.8126  223.1601 H   0  0  0  0  0  0  0  0  0  0  0  0
  139.7160   79.8106  221.0866 H   0  0  0  0  0  0  0  0  0  0  0  0
  1  2  2  0
  2  3  1  0
  3  4  1  0
  4  5  1  0
  5  6  1  0
  6  7  1  0
  7  8  2  0
  8  9  1  0
  9 10  2  0
 10 11  1  0
 10 12  1  0
 12 13  2  0
 13 14  1  0
  2 15  1  0
 15 16  1  0
 16 17  2  0
 17 18  1  0
 18 19  2  0
 19 20  1  0
 20 21  2  0
 21 22  1  0
 22 23  1  0
 23 24  1  0
 23 25  1  0
 23 26  1  0
 22 27  2  0
 13  7  1  0
 27 18  1  0
  3 28  1  0
  3 29  1  0
  4 30  1  0
  4 31  1  0
  5 32  1  0
  5 33  1  0
  8 34  1  0
  9 35  1  0
 12 36  1  0
 15 37  1  0
 17 38  1  0
 19 39  1  0
 20 40  1  0
 21 41  1  0
 27 42  1  0
M  END
>  <smiles>  (6) 
O=C(CCCOc1ccc(Cl)cc1Cl)NN=Cc1cccc(C(F)(F)F)c1

>  <score_type>  (6) 
oracle

>  <origin>  (6) 
autodockgpu

>  <m_score__min__energy>  (6) 
-7.4800000000000004

>  <m_primary>  (6) 
energy

>  <rmsd>  (6) 
7.588515422299318

>  <m_score__min__rmsd>  (6) 
7.588515422299318

>  <meeko>  (6) 
{"free_energy": -5.8, "intermolecular_energy": -8.49, "internal_energy": -2.41, "cluster_size": 4, "cluster_id": 8, "rank_in_cluster": 1}

>  <energy>  (6) 
-7.3

>  <cluster_rmsd>  (6) 
0.29

>  <cluster>  (6) 
1

$$$$

     RDKit          3D

 42 43  0  0  0  0  0  0  0  0999 V2000
  138.9930   72.3980  220.4040 O   0  0  0  0  0  0  0  0  0  0  0  0
  138.4450   73.2160  221.1820 C   0  0  0  0  0  0  0  0  0  0  0  0
  137.1390   73.8430  221.0140 C   0  0  0  0  0  0  0  0  0  0  0  0
  137.1130   75.2910  220.6620 C   0  0  0  0  0  0  0  0  0  0  0  0
  137.3200   76.1030  221.9200 C   0  0  0  0  0  0  0  0  0  0  0  0
  138.6160   76.2230  222.3420 O   0  0  0  0  0  0  0  0  0  0  0  0
  139.3740   77.3250  222.5430 C   0  0  0  0  0  0  0  0  0  0  0  0
  139.0100   78.4930  223.1590 C   0  0  0  0  0  0  0  0  0  0  0  0
  139.8860   79.5630  223.3030 C   0  0  0  0  0  0  0  0  0  0  0  0
  141.1720   79.5010  222.8300 C   0  0  0  0  0  0  0  0  0  0  0  0
  142.2360   80.8710  223.0340 Cl  0  0  0  0  0  0  0  0  0  0  0  0
  141.5600   78.3360  222.2060 C   0  0  0  0  0  0  0  0  0  0  0  0
  140.6890   77.2820  222.0670 C   0  0  0  0  0  0  0  0  0  0  0  0
  141.2840   75.8350  221.2520 Cl  0  0  0  0  0  0  0  0  0  0  0  0
  139.1970   73.5580  222.3560 N   0  0  0  0  0  0  0  0  0  0  0  0
  140.4540   72.9360  222.4890 N   0  0  0  0  0  0  0  0  0  0  0  0
  140.6330   71.6860  222.6690 C   0  0  0  0  0  0  0  0  0  0  0  0
  140.3300   71.1280  223.9830 C   0  0  0  0  0  0  0  0  0  0  0  0
  139.5110   70.0190  224.0440 C   0  0  0  0  0  0  0  0  0  0  0  0
  139.1660   69.4180  225.2550 C   0  0  0  0  0  0  0  0  0  0  0  0
  139.6630   69.9540  226.4250 C   0  0  0  0  0  0  0  0  0  0  0  0
  140.4850   71.0670  226.3520 C   0  0  0  0  0  0  0  0  0  0  0  0
  141.0400   71.6730  227.5960 C   0  0  0  0  0  0  0  0  0  0  0  0
  141.5470   70.6400  228.3690 F   0  0  0  0  0  0  0  0  0  0  0  0
  140.0150   72.2440  228.3560 F   0  0  0  0  0  0  0  0  0  0  0  0
  141.9590   72.6530  227.3230 F   0  0  0  0  0  0  0  0  0  0  0  0
  140.8270   71.6640  225.1520 C   0  0  0  0  0  0  0  0  0  0  0  0
  136.6127   73.2999  220.2153 H   0  0  0  0  0  0  0  0  0  0  0  0
  136.6704   73.7868  222.0076 H   0  0  0  0  0  0  0  0  0  0  0  0
  137.9165   75.5111  219.9437 H   0  0  0  0  0  0  0  0  0  0  0  0
  136.1447   75.5473  220.2074 H   0  0  0  0  0  0  0  0  0  0  0  0
  136.9289   77.1148  221.7374 H   0  0  0  0  0  0  0  0  0  0  0  0
  136.7939   75.5588  222.7182 H   0  0  0  0  0  0  0  0  0  0  0  0
  137.9878   78.5878  223.5540 H   0  0  0  0  0  0  0  0  0  0  0  0
  139.5407   80.4780  223.8065 H   0  0  0  0  0  0  0  0  0  0  0  0
  142.5834   78.2478  221.8126 H   0  0  0  0  0  0  0  0  0  0  0  0
  138.8370   74.2320  223.0750 H   0  0  0  0  0  0  0  0  0  0  0  0
  141.0057   71.0459  221.8558 H   0  0  0  0  0  0  0  0  0  0  0  0
  139.1177   69.5954  223.1082 H   0  0  0  0  0  0  0  0  0  0  0  0
  138.5109   68.5346  225.2764 H   0  0  0  0  0  0  0  0  0  0  0  0
  139.4114   69.5061  227.3977 H   0  0  0  0  0  0  0  0  0  0  0  0
  141.4817   72.5477  225.1308 H   0  0  0  0  0  0  0  0  0  0  0  0
  1  2  2  0
  2  3  1  0
  3  4  1  0
  4  5  1  0
  5  6  1  0
  6  7  1  0
  7  8  2  0
  8  9  1  0
  9 10  2  0
 10 11  1  0
 10 12  1  0
 12 13  2  0
 13 14  1  0
  2 15  1  0
 15 16  1  0
 16 17  2  0
 17 18  1  0
 18 19  2  0
 19 20  1  0
 20 21  2  0
 21 22  1  0
 22 23  1  0
 23 24  1  0
 23 25  1  0
 23 26  1  0
 22 27  2  0
 13  7  1  0
 27 18  1  0
  3 28  1  0
  3 29  1  0
  4 30  1  0
  4 31  1  0
  5 32  1  0
  5 33  1  0
  8 34  1  0
  9 35  1  0
 12 36  1  0
 15 37  1  0
 17 38  1  0
 19 39  1  0
 20 40  1  0
 21 41  1  0
 27 42  1  0
M  END
>  <smiles>  (7) 
O=C(CCCOc1ccc(Cl)cc1Cl)NN=Cc1cccc(C(F)(F)F)c1

>  <score_type>  (7) 
oracle

>  <origin>  (7) 
autodockgpu

>  <m_score__min__energy>  (7) 
-7.4800000000000004

>  <m_primary>  (7) 
energy

>  <rmsd>  (7) 
6.0165094078970975

>  <m_score__min__rmsd>  (7) 
6.0165094078970975

>  <meeko>  (7) 
{"free_energy": -6.48, "intermolecular_energy": -9.17, "internal_energy": -1.78, "cluster_size": 22, "cluster_id": 1, "rank_in_cluster": 18}

>  <energy>  (7) 
-7.2

>  <cluster_rmsd>  (7) 
1.89

>  <cluster>  (7) 
1

$$$$

     RDKit          3D

 42 43  0  0  0  0  0  0  0  0999 V2000
  140.5980   75.1860  222.2660 O   0  0  0  0  0  0  0  0  0  0  0  0
  139.5250   74.7040  221.8290 C   0  0  0  0  0  0  0  0  0  0  0  0
  138.4920   75.4090  221.0790 C   0  0  0  0  0  0  0  0  0  0  0  0
  138.3300   75.0600  219.6390 C   0  0  0  0  0  0  0  0  0  0  0  0
  139.4710   74.1580  219.2250 C   0  0  0  0  0  0  0  0  0  0  0  0
  140.6990   74.7550  219.1440 O   0  0  0  0  0  0  0  0  0  0  0  0
  141.8990   74.3600  219.6270 C   0  0  0  0  0  0  0  0  0  0  0  0
  142.2450   73.1270  220.1100 C   0  0  0  0  0  0  0  0  0  0  0  0
  143.5210   72.8420  220.5840 C   0  0  0  0  0  0  0  0  0  0  0  0
  144.5070   73.7950  220.5920 C   0  0  0  0  0  0  0  0  0  0  0  0
  146.0950   73.3920  221.1970 Cl  0  0  0  0  0  0  0  0  0  0  0  0
  144.1820   75.0450  220.1110 C   0  0  0  0  0  0  0  0  0  0  0  0
  142.9190   75.3190  219.6430 C   0  0  0  0  0  0  0  0  0  0  0  0
  142.6050   76.9490  219.0500 Cl  0  0  0  0  0  0  0  0  0  0  0  0
  139.3090   73.3120  222.1060 N   0  0  0  0  0  0  0  0  0  0  0  0
  140.3250   72.6600  222.8320 N   0  0  0  0  0  0  0  0  0  0  0  0
  140.3960   71.4000  223.0160 C   0  0  0  0  0  0  0  0  0  0  0  0
  140.1900   70.8880  224.3670 C   0  0  0  0  0  0  0  0  0  0  0  0
  139.4630   69.7250  224.5160 C   0  0  0  0  0  0  0  0  0  0  0  0
  139.2150   69.1620  225.7680 C   0  0  0  0  0  0  0  0  0  0  0  0
  139.7150   69.7930  226.8890 C   0  0  0  0  0  0  0  0  0  0  0  0
  140.4440   70.9600  226.7270 C   0  0  0  0  0  0  0  0  0  0  0  0
  141.0000   71.6690  227.9160 C   0  0  0  0  0  0  0  0  0  0  0  0
  141.6330   70.7200  228.7030 F   0  0  0  0  0  0  0  0  0  0  0  0
  139.9640   72.1810  228.7010 F   0  0  0  0  0  0  0  0  0  0  0  0
  141.8130   72.7120  227.5560 F   0  0  0  0  0  0  0  0  0  0  0  0
  140.6900   71.5190  225.4860 C   0  0  0  0  0  0  0  0  0  0  0  0
  137.5308   75.2119  221.5763 H   0  0  0  0  0  0  0  0  0  0  0  0
  138.8135   76.4610  221.0787 H   0  0  0  0  0  0  0  0  0  0  0  0
  137.3733   74.5378  219.4905 H   0  0  0  0  0  0  0  0  0  0  0  0
  138.3372   75.9756  219.0294 H   0  0  0  0  0  0  0  0  0  0  0  0
  139.5398   73.3414  219.9588 H   0  0  0  0  0  0  0  0  0  0  0  0
  139.2329   73.8218  218.2051 H   0  0  0  0  0  0  0  0  0  0  0  0
  141.4853   72.3316  220.1238 H   0  0  0  0  0  0  0  0  0  0  0  0
  143.7437   71.8325  220.9598 H   0  0  0  0  0  0  0  0  0  0  0  0
  144.9459   75.8364  220.1015 H   0  0  0  0  0  0  0  0  0  0  0  0
  138.4470   72.8060  221.7880 H   0  0  0  0  0  0  0  0  0  0  0  0
  140.6067   70.7178  222.1792 H   0  0  0  0  0  0  0  0  0  0  0  0
  139.0665   69.2260  223.6195 H   0  0  0  0  0  0  0  0  0  0  0  0
  138.6324   68.2335  225.8600 H   0  0  0  0  0  0  0  0  0  0  0  0
  139.5381   69.3773  227.8920 H   0  0  0  0  0  0  0  0  0  0  0  0
  141.2724   72.4476  225.3939 H   0  0  0  0  0  0  0  0  0  0  0  0
  1  2  2  0
  2  3  1  0
  3  4  1  0
  4  5  1  0
  5  6  1  0
  6  7  1  0
  7  8  2  0
  8  9  1  0
  9 10  2  0
 10 11  1  0
 10 12  1  0
 12 13  2  0
 13 14  1  0
  2 15  1  0
 15 16  1  0
 16 17  2  0
 17 18  1  0
 18 19  2  0
 19 20  1  0
 20 21  2  0
 21 22  1  0
 22 23  1  0
 23 24  1  0
 23 25  1  0
 23 26  1  0
 22 27  2  0
 13  7  1  0
 27 18  1  0
  3 28  1  0
  3 29  1  0
  4 30  1  0
  4 31  1  0
  5 32  1  0
  5 33  1  0
  8 34  1  0
  9 35  1  0
 12 36  1  0
 15 37  1  0
 17 38  1  0
 19 39  1  0
 20 40  1  0
 21 41  1  0
 27 42  1  0
M  END
>  <smiles>  (8) 
O=C(CCCOc1ccc(Cl)cc1Cl)NN=Cc1cccc(C(F)(F)F)c1

>  <score_type>  (8) 
oracle

>  <origin>  (8) 
autodockgpu

>  <m_score__min__energy>  (8) 
-7.4800000000000004

>  <m_primary>  (8) 
energy

>  <rmsd>  (8) 
9.231321269045393

>  <m_score__min__rmsd>  (8) 
9.231321269045393

>  <meeko>  (8) 
{"free_energy": -6.42, "intermolecular_energy": -9.11, "internal_energy": -1.45, "cluster_size": 2, "cluster_id": 4, "rank_in_cluster": 2}

>  <energy>  (8) 
-7.19

>  <cluster_rmsd>  (8) 
1.39

>  <cluster>  (8) 
1

$$$$

     RDKit          3D

 42 43  0  0  0  0  0  0  0  0999 V2000
  137.3030   71.2700  220.8700 O   0  0  0  0  0  0  0  0  0  0  0  0
  137.7000   72.3600  221.3500 C   0  0  0  0  0  0  0  0  0  0  0  0
  137.5400   73.6840  220.7600 C   0  0  0  0  0  0  0  0  0  0  0  0
  137.2080   74.8090  221.6800 C   0  0  0  0  0  0  0  0  0  0  0  0
  138.4520   75.6380  221.9060 C   0  0  0  0  0  0  0  0  0  0  0  0
  139.5440   74.9540  222.3640 O   0  0  0  0  0  0  0  0  0  0  0  0
  140.6490   74.5270  221.7090 C   0  0  0  0  0  0  0  0  0  0  0  0
  141.0710   73.2380  221.5280 C   0  0  0  0  0  0  0  0  0  0  0  0
  142.2350   72.9260  220.8330 C   0  0  0  0  0  0  0  0  0  0  0  0
  143.0250   73.9060  220.2890 C   0  0  0  0  0  0  0  0  0  0  0  0
  144.4770   73.4660  219.4250 Cl  0  0  0  0  0  0  0  0  0  0  0  0
  142.6200   75.2120  220.4600 C   0  0  0  0  0  0  0  0  0  0  0  0
  141.4690   75.5130  221.1470 C   0  0  0  0  0  0  0  0  0  0  0  0
  141.0390   77.2150  221.3110 Cl  0  0  0  0  0  0  0  0  0  0  0  0
  138.3800   72.2750  222.6110 N   0  0  0  0  0  0  0  0  0  0  0  0
  138.5190   70.9820  223.1530 N   0  0  0  0  0  0  0  0  0  0  0  0
  139.6280   70.4410  223.4750 C   0  0  0  0  0  0  0  0  0  0  0  0
  140.0630   70.5330  224.8640 C   0  0  0  0  0  0  0  0  0  0  0  0
  140.6730   71.6990  225.2780 C   0  0  0  0  0  0  0  0  0  0  0  0
  141.1220   71.8780  226.5870 C   0  0  0  0  0  0  0  0  0  0  0  0
  140.9470   70.8510  227.4920 C   0  0  0  0  0  0  0  0  0  0  0  0
  140.3330   69.6840  227.0670 C   0  0  0  0  0  0  0  0  0  0  0  0
  140.1280   68.5540  228.0170 C   0  0  0  0  0  0  0  0  0  0  0  0
  139.4410   69.0540  229.1120 F   0  0  0  0  0  0  0  0  0  0  0  0
  141.3570   68.1100  228.5140 F   0  0  0  0  0  0  0  0  0  0  0  0
  139.5040   67.4890  227.4200 F   0  0  0  0  0  0  0  0  0  0  0  0
  139.8880   69.5060  225.7690 C   0  0  0  0  0  0  0  0  0  0  0  0
  138.4846   73.9373  220.2564 H   0  0  0  0  0  0  0  0  0  0  0  0
  136.6656   73.5937  220.0987 H   0  0  0  0  0  0  0  0  0  0  0  0
  136.4234   75.4351  221.2301 H   0  0  0  0  0  0  0  0  0  0  0  0
  136.8445   74.4120  222.6393 H   0  0  0  0  0  0  0  0  0  0  0  0
  138.7239   76.1076  220.9492 H   0  0  0  0  0  0  0  0  0  0  0  0
  138.1941   76.3569  222.6976 H   0  0  0  0  0  0  0  0  0  0  0  0
  140.4681   72.4190  221.9472 H   0  0  0  0  0  0  0  0  0  0  0  0
  142.5276   71.8719  220.7175 H   0  0  0  0  0  0  0  0  0  0  0  0
  143.2281   76.0266  220.0397 H   0  0  0  0  0  0  0  0  0  0  0  0
  138.7540   73.1220  223.1030 H   0  0  0  0  0  0  0  0  0  0  0  0
  140.2403   69.9188  222.7250 H   0  0  0  0  0  0  0  0  0  0  0  0
  140.8100   72.5144  224.5524 H   0  0  0  0  0  0  0  0  0  0  0  0
  141.6053   72.8181  226.8912 H   0  0  0  0  0  0  0  0  0  0  0  0
  141.2889   70.9570  228.5321 H   0  0  0  0  0  0  0  0  0  0  0  0
  139.4049   68.5657  225.4649 H   0  0  0  0  0  0  0  0  0  0  0  0
  1  2  2  0
  2  3  1  0
  3  4  1  0
  4  5  1  0
  5  6  1  0
  6  7  1  0
  7  8  2  0
  8  9  1  0
  9 10  2  0
 10 11  1  0
 10 12  1  0
 12 13  2  0
 13 14  1  0
  2 15  1  0
 15 16  1  0
 16 17  2  0
 17 18  1  0
 18 19  2  0
 19 20  1  0
 20 21  2  0
 21 22  1  0
 22 23  1  0
 23 24  1  0
 23 25  1  0
 23 26  1  0
 22 27  2  0
 13  7  1  0
 27 18  1  0
  3 28  1  0
  3 29  1  0
  4 30  1  0
  4 31  1  0
  5 32  1  0
  5 33  1  0
  8 34  1  0
  9 35  1  0
 12 36  1  0
 15 37  1  0
 17 38  1  0
 19 39  1  0
 20 40  1  0
 21 41  1  0
 27 42  1  0
M  END
>  <smiles>  (9) 
O=C(CCCOc1ccc(Cl)cc1Cl)NN=Cc1cccc(C(F)(F)F)c1

>  <score_type>  (9) 
oracle

>  <origin>  (9) 
autodockgpu

>  <m_score__min__energy>  (9) 
-7.4800000000000004

>  <m_primary>  (9) 
energy

>  <rmsd>  (9) 
8.35818024145312

>  <m_score__min__rmsd>  (9) 
8.35818024145312

>  <meeko>  (9) 
{"free_energy": -6.01, "intermolecular_energy": -8.69, "internal_energy": -1.95, "cluster_size": 7, "cluster_id": 5, "rank_in_cluster": 6}

>  <energy>  (9) 
-7.13

>  <cluster_rmsd>  (9) 
1.74

>  <cluster>  (9) 
1

$$$$

     RDKit          3D

 42 43  0  0  0  0  0  0  0  0999 V2000
  139.2020   74.9460  220.0450 O   0  0  0  0  0  0  0  0  0  0  0  0
  139.2490   74.1460  221.0100 C   0  0  0  0  0  0  0  0  0  0  0  0
  139.1060   72.6950  220.9520 C   0  0  0  0  0  0  0  0  0  0  0  0
  140.3540   71.8810  220.9800 C   0  0  0  0  0  0  0  0  0  0  0  0
  141.0660   72.1230  222.2910 C   0  0  0  0  0  0  0  0  0  0  0  0
  140.2670   72.1630  223.4000 O   0  0  0  0  0  0  0  0  0  0  0  0
  140.3420   71.4710  224.5600 C   0  0  0  0  0  0  0  0  0  0  0  0
  141.0740   71.7790  225.6750 C   0  0  0  0  0  0  0  0  0  0  0  0
  141.0700   70.9800  226.8130 C   0  0  0  0  0  0  0  0  0  0  0  0
  140.3240   69.8310  226.8750 C   0  0  0  0  0  0  0  0  0  0  0  0
  140.3500   68.8590  228.3260 Cl  0  0  0  0  0  0  0  0  0  0  0  0
  139.5790   69.5000  225.7640 C   0  0  0  0  0  0  0  0  0  0  0  0
  139.5880   70.2950  224.6430 C   0  0  0  0  0  0  0  0  0  0  0  0
  138.6010   69.7830  223.2740 Cl  0  0  0  0  0  0  0  0  0  0  0  0
  139.4680   74.7380  222.3000 N   0  0  0  0  0  0  0  0  0  0  0  0
  139.6020   76.1390  222.3220 N   0  0  0  0  0  0  0  0  0  0  0  0
  140.7120   76.7660  222.3500 C   0  0  0  0  0  0  0  0  0  0  0  0
  140.7140   78.1470  222.8210 C   0  0  0  0  0  0  0  0  0  0  0  0
  141.9320   78.7610  223.0290 C   0  0  0  0  0  0  0  0  0  0  0  0
  142.0310   80.0780  223.4790 C   0  0  0  0  0  0  0  0  0  0  0  0
  140.8700   80.7830  223.7230 C   0  0  0  0  0  0  0  0  0  0  0  0
  139.6520   80.1570  223.5110 C   0  0  0  0  0  0  0  0  0  0  0  0
  138.3780   80.8880  223.7650 C   0  0  0  0  0  0  0  0  0  0  0  0
  137.3430   80.0790  223.3210 F   0  0  0  0  0  0  0  0  0  0  0  0
  138.3180   82.0430  222.9800 F   0  0  0  0  0  0  0  0  0  0  0  0
  138.2550   81.2630  225.0770 F   0  0  0  0  0  0  0  0  0  0  0  0
  139.5530   78.8510  223.0650 C   0  0  0  0  0  0  0  0  0  0  0  0
  138.4933   72.3892  221.8129 H   0  0  0  0  0  0  0  0  0  0  0  0
  138.6622   72.4954  219.9655 H   0  0  0  0  0  0  0  0  0  0  0  0
  140.1014   70.8143  220.8882 H   0  0  0  0  0  0  0  0  0  0  0  0
  141.0063   72.1693  220.1425 H   0  0  0  0  0  0  0  0  0  0  0  0
  141.7995   71.3154  222.4316 H   0  0  0  0  0  0  0  0  0  0  0  0
  141.5155   73.1236  222.2084 H   0  0  0  0  0  0  0  0  0  0  0  0
  141.6878   72.6918  225.6705 H   0  0  0  0  0  0  0  0  0  0  0  0
  141.6775   71.2756  227.6811 H   0  0  0  0  0  0  0  0  0  0  0  0
  138.9678   68.5855  225.7746 H   0  0  0  0  0  0  0  0  0  0  0  0
  139.5250   74.1640  223.1760 H   0  0  0  0  0  0  0  0  0  0  0  0
  141.6438   76.2784  222.0275 H   0  0  0  0  0  0  0  0  0  0  0  0
  142.8543   78.1942  222.8339 H   0  0  0  0  0  0  0  0  0  0  0  0
  143.0145   80.5449  223.6361 H   0  0  0  0  0  0  0  0  0  0  0  0
  140.9107   81.8229  224.0793 H   0  0  0  0  0  0  0  0  0  0  0  0
  138.5695   78.3840  222.9083 H   0  0  0  0  0  0  0  0  0  0  0  0
  1  2  2  0
  2  3  1  0
  3  4  1  0
  4  5  1  0
  5  6  1  0
  6  7  1  0
  7  8  2  0
  8  9  1  0
  9 10  2  0
 10 11  1  0
 10 12  1  0
 12 13  2  0
 13 14  1  0
  2 15  1  0
 15 16  1  0
 16 17  2  0
 17 18  1  0
 18 19  2  0
 19 20  1  0
 20 21  2  0
 21 22  1  0
 22 23  1  0
 23 24  1  0
 23 25  1  0
 23 26  1  0
 22 27  2  0
 13  7  1  0
 27 18  1  0
  3 28  1  0
  3 29  1  0
  4 30  1  0
  4 31  1  0
  5 32  1  0
  5 33  1  0
  8 34  1  0
  9 35  1  0
 12 36  1  0
 15 37  1  0
 17 38  1  0
 19 39  1  0
 20 40  1  0
 21 41  1  0
 27 42  1  0
M  END
>  <smiles>  (10) 
O=C(CCCOc1ccc(Cl)cc1Cl)NN=Cc1cccc(C(F)(F)F)c1

>  <score_type>  (10) 
oracle

>  <origin>  (10) 
autodockgpu

>  <m_score__min__energy>  (10) 
-7.4800000000000004

>  <m_primary>  (10) 
energy

>  <rmsd>  (10) 
12.25419724277729

>  <m_score__min__rmsd>  (10) 
12.25419724277729

>  <meeko>  (10) 
{"free_energy": -6.66, "intermolecular_energy": -9.34, "internal_energy": -1.65, "cluster_size": 5, "cluster_id": 3, "rank_in_cluster": 5}

>  <energy>  (10) 
-6.98

>  <cluster_rmsd>  (10) 
0.72

>  <cluster>  (10) 
1

$$$$

     RDKit          3D

 42 43  0  0  0  0  0  0  0  0999 V2000
  140.6090   74.1750  222.3390 O   0  0  0  0  0  0  0  0  0  0  0  0
  140.5780   73.4470  221.3180 C   0  0  0  0  0  0  0  0  0  0  0  0
  140.5300   73.8910  219.9290 C   0  0  0  0  0  0  0  0  0  0  0  0
  139.6250   75.0290  219.6040 C   0  0  0  0  0  0  0  0  0  0  0  0
  140.4640   76.2320  219.2370 C   0  0  0  0  0  0  0  0  0  0  0  0
  140.0620   77.4220  219.7780 O   0  0  0  0  0  0  0  0  0  0  0  0
  140.6870   78.2440  220.6520 C   0  0  0  0  0  0  0  0  0  0  0  0
  141.6320   79.1950  220.3800 C   0  0  0  0  0  0  0  0  0  0  0  0
  142.2060   79.9810  221.3740 C   0  0  0  0  0  0  0  0  0  0  0  0
  141.8490   79.8390  222.6900 C   0  0  0  0  0  0  0  0  0  0  0  0
  142.5960   80.8480  223.9040 Cl  0  0  0  0  0  0  0  0  0  0  0  0
  140.8990   78.8870  222.9880 C   0  0  0  0  0  0  0  0  0  0  0  0
  140.3350   78.1140  222.0010 C   0  0  0  0  0  0  0  0  0  0  0  0
  139.1290   76.9220  222.4870 Cl  0  0  0  0  0  0  0  0  0  0  0  0
  140.5930   72.0320  221.5600 N   0  0  0  0  0  0  0  0  0  0  0  0
  140.6400   71.6360  222.9100 N   0  0  0  0  0  0  0  0  0  0  0  0
  139.7940   70.8660  223.4750 C   0  0  0  0  0  0  0  0  0  0  0  0
  140.0520   70.4460  224.8480 C   0  0  0  0  0  0  0  0  0  0  0  0
  139.9290   69.1060  225.1510 C   0  0  0  0  0  0  0  0  0  0  0  0
  140.1570   68.6120  226.4360 C   0  0  0  0  0  0  0  0  0  0  0  0
  140.5150   69.4980  227.4310 C   0  0  0  0  0  0  0  0  0  0  0  0
  140.6370   70.8420  227.1160 C   0  0  0  0  0  0  0  0  0  0  0  0
  141.0230   71.8280  228.1660 C   0  0  0  0  0  0  0  0  0  0  0  0
  139.8550   72.2590  228.7760 F   0  0  0  0  0  0  0  0  0  0  0  0
  141.5840   72.9650  227.5790 F   0  0  0  0  0  0  0  0  0  0  0  0
  141.9390   71.3100  229.0440 F   0  0  0  0  0  0  0  0  0  0  0  0
  140.4110   71.3320  225.8420 C   0  0  0  0  0  0  0  0  0  0  0  0
  141.5496   74.1879  219.6421 H   0  0  0  0  0  0  0  0  0  0  0  0
  140.1168   73.0357  219.3743 H   0  0  0  0  0  0  0  0  0  0  0  0
  138.9791   74.7567  218.7563 H   0  0  0  0  0  0  0  0  0  0  0  0
  138.9954   75.2651  220.4746 H   0  0  0  0  0  0  0  0  0  0  0  0
  141.4945   76.0400  219.5705 H   0  0  0  0  0  0  0  0  0  0  0  0
  140.3623   76.3479  218.1479 H   0  0  0  0  0  0  0  0  0  0  0  0
  141.9496   79.3436  219.3374 H   0  0  0  0  0  0  0  0  0  0  0  0
  142.9615   80.7315  221.0985 H   0  0  0  0  0  0  0  0  0  0  0  0
  140.5866   78.7430  224.0328 H   0  0  0  0  0  0  0  0  0  0  0  0
  140.5700   71.3310  220.7800 H   0  0  0  0  0  0  0  0  0  0  0  0
  138.8938   70.5277  222.9409 H   0  0  0  0  0  0  0  0  0  0  0  0
  139.6420   68.4042  224.3541 H   0  0  0  0  0  0  0  0  0  0  0  0
  140.0534   67.5382  226.6512 H   0  0  0  0  0  0  0  0  0  0  0  0
  140.7003   69.1440  228.4559 H   0  0  0  0  0  0  0  0  0  0  0  0
  140.5155   72.4056  225.6265 H   0  0  0  0  0  0  0  0  0  0  0  0
  1  2  2  0
  2  3  1  0
  3  4  1  0
  4  5  1  0
  5  6  1  0
  6  7  1  0
  7  8  2  0
  8  9  1  0
  9 10  2  0
 10 11  1  0
 10 12  1  0
 12 13  2  0
 13 14  1  0
  2 15  1  0
 15 16  1  0
 16 17  2  0
 17 18  1  0
 18 19  2  0
 19 20  1  0
 20 21  2  0
 21 22  1  0
 22 23  1  0
 23 24  1  0
 23 25  1  0
 23 26  1  0
 22 27  2  0
 13  7  1  0
 27 18  1  0
  3 28  1  0
  3 29  1  0
  4 30  1  0
  4 31  1  0
  5 32  1  0
  5 33  1  0
  8 34  1  0
  9 35  1  0
 12 36  1  0
 15 37  1  0
 17 38  1  0
 19 39  1  0
 20 40  1  0
 21 41  1  0
 27 42  1  0
M  END
>  <smiles>  (11) 
O=C(CCCOc1ccc(Cl)cc1Cl)NN=Cc1cccc(C(F)(F)F)c1

>  <score_type>  (11) 
oracle

>  <origin>  (11) 
autodockgpu

>  <m_score__min__energy>  (11) 
-7.4800000000000004

>  <m_primary>  (11) 
energy

>  <rmsd>  (11) 
5.886621451456537

>  <m_score__min__rmsd>  (11) 
5.886621451456537

>  <meeko>  (11) 
{"free_energy": -6.62, "intermolecular_energy": -9.31, "internal_energy": -0.93, "cluster_size": 22, "cluster_id": 1, "rank_in_cluster": 17}

>  <energy>  (11) 
-6.94

>  <cluster_rmsd>  (11) 
1.7

>  <cluster>  (11) 
1

$$$$

     RDKit          3D

 42 43  0  0  0  0  0  0  0  0999 V2000
  137.1680   71.9350  221.3300 O   0  0  0  0  0  0  0  0  0  0  0  0
  137.2650   73.0710  221.8540 C   0  0  0  0  0  0  0  0  0  0  0  0
  136.1880   74.0310  222.0660 C   0  0  0  0  0  0  0  0  0  0  0  0
  136.3990   75.0810  223.1030 C   0  0  0  0  0  0  0  0  0  0  0  0
  136.9060   76.3360  222.4300 C   0  0  0  0  0  0  0  0  0  0  0  0
  138.2620   76.4130  222.2660 O   0  0  0  0  0  0  0  0  0  0  0  0
  139.1280   77.4040  222.5790 C   0  0  0  0  0  0  0  0  0  0  0  0
  138.8430   78.6250  223.1280 C   0  0  0  0  0  0  0  0  0  0  0  0
  139.8280   79.5660  223.4040 C   0  0  0  0  0  0  0  0  0  0  0  0
  141.1490   79.3160  223.1330 C   0  0  0  0  0  0  0  0  0  0  0  0
  142.3520   80.5290  223.4960 Cl  0  0  0  0  0  0  0  0  0  0  0  0
  141.4600   78.0930  222.5790 C   0  0  0  0  0  0  0  0  0  0  0  0
  140.4810   77.1670  222.3100 C   0  0  0  0  0  0  0  0  0  0  0  0
  140.9830   75.6330  221.6000 Cl  0  0  0  0  0  0  0  0  0  0  0  0
  138.5820   73.4470  222.2840 N   0  0  0  0  0  0  0  0  0  0  0  0
  139.5990   72.4990  222.0660 N   0  0  0  0  0  0  0  0  0  0  0  0
  140.5630   72.2650  222.8680 C   0  0  0  0  0  0  0  0  0  0  0  0
  140.2850   71.4870  224.0710 C   0  0  0  0  0  0  0  0  0  0  0  0
  139.5290   70.3400  223.9430 C   0  0  0  0  0  0  0  0  0  0  0  0
  139.2130   69.5350  225.0370 C   0  0  0  0  0  0  0  0  0  0  0  0
  139.6740   69.9020  226.2850 C   0  0  0  0  0  0  0  0  0  0  0  0
  140.4330   71.0550  226.4020 C   0  0  0  0  0  0  0  0  0  0  0  0
  140.9480   71.4830  227.7340 C   0  0  0  0  0  0  0  0  0  0  0  0
  141.4660   70.3580  228.3570 F   0  0  0  0  0  0  0  0  0  0  0  0
  139.8940   71.9120  228.5460 F   0  0  0  0  0  0  0  0  0  0  0  0
  141.8470   72.5130  227.6300 F   0  0  0  0  0  0  0  0  0  0  0  0
  140.7470   71.8550  225.3180 C   0  0  0  0  0  0  0  0  0  0  0  0
  136.0097   74.5434  221.1091 H   0  0  0  0  0  0  0  0  0  0  0  0
  135.3459   73.4307  222.4409 H   0  0  0  0  0  0  0  0  0  0  0  0
  135.4477   75.2935  223.6128 H   0  0  0  0  0  0  0  0  0  0  0  0
  137.1331   74.7319  223.8441 H   0  0  0  0  0  0  0  0  0  0  0  0
  136.4409   76.3978  221.4351 H   0  0  0  0  0  0  0  0  0  0  0  0
  136.6366   77.1660  223.0997 H   0  0  0  0  0  0  0  0  0  0  0  0
  137.7960   78.8706  223.3593 H   0  0  0  0  0  0  0  0  0  0  0  0
  139.5423   80.5307  223.8488 H   0  0  0  0  0  0  0  0  0  0  0  0
  142.5088   77.8543  222.3484 H   0  0  0  0  0  0  0  0  0  0  0  0
  138.7790   74.3740  222.7360 H   0  0  0  0  0  0  0  0  0  0  0  0
  141.5759   72.6393  222.6586 H   0  0  0  0  0  0  0  0  0  0  0  0
  139.1639   70.0513  222.9463 H   0  0  0  0  0  0  0  0  0  0  0  0
  138.6082   68.6254  224.9078 H   0  0  0  0  0  0  0  0  0  0  0  0
  139.4432   69.2907  227.1699 H   0  0  0  0  0  0  0  0  0  0  0  0
  141.3518   72.7647  225.4473 H   0  0  0  0  0  0  0  0  0  0  0  0
  1  2  2  0
  2  3  1  0
  3  4  1  0
  4  5  1  0
  5  6  1  0
  6  7  1  0
  7  8  2  0
  8  9  1  0
  9 10  2  0
 10 11  1  0
 10 12  1  0
 12 13  2  0
 13 14  1  0
  2 15  1  0
 15 16  1  0
 16 17  2  0
 17 18  1  0
 18 19  2  0
 19 20  1  0
 20 21  2  0
 21 22  1  0
 22 23  1  0
 23 24  1  0
 23 25  1  0
 23 26  1  0
 22 27  2  0
 13  7  1  0
 27 18  1  0
  3 28  1  0
  3 29  1  0
  4 30  1  0
  4 31  1  0
  5 32  1  0
  5 33  1  0
  8 34  1  0
  9 35  1  0
 12 36  1  0
 15 37  1  0
 17 38  1  0
 19 39  1  0
 20 40  1  0
 21 41  1  0
 27 42  1  0
M  END
>  <smiles>  (12) 
O=C(CCCOc1ccc(Cl)cc1Cl)NN=Cc1cccc(C(F)(F)F)c1

>  <score_type>  (12) 
oracle

>  <origin>  (12) 
autodockgpu

>  <m_score__min__energy>  (12) 
-7.4800000000000004

>  <m_primary>  (12) 
energy

>  <rmsd>  (12) 
5.963427353881954

>  <m_score__min__rmsd>  (12) 
5.963427353881954

>  <meeko>  (12) 
{"free_energy": -6.32, "intermolecular_energy": -9.01, "internal_energy": -1.95, "cluster_size": 22, "cluster_id": 1, "rank_in_cluster": 20}

>  <energy>  (12) 
-6.88

>  <cluster_rmsd>  (12) 
1.87

>  <cluster>  (12) 
1

$$$$

     RDKit          3D

 42 43  0  0  0  0  0  0  0  0999 V2000
  139.9910   74.4580  220.0100 O   0  0  0  0  0  0  0  0  0  0  0  0
  139.5280   73.7210  220.9140 C   0  0  0  0  0  0  0  0  0  0  0  0
  139.0340   72.3570  220.7630 C   0  0  0  0  0  0  0  0  0  0  0  0
  139.9070   71.2530  221.2530 C   0  0  0  0  0  0  0  0  0  0  0  0
  140.7010   71.7490  222.4400 C   0  0  0  0  0  0  0  0  0  0  0  0
  140.0110   71.8470  223.6160 O   0  0  0  0  0  0  0  0  0  0  0  0
  140.1520   71.1650  224.7760 C   0  0  0  0  0  0  0  0  0  0  0  0
  140.9500   71.4790  225.8420 C   0  0  0  0  0  0  0  0  0  0  0  0
  141.0100   70.6900  226.9860 C   0  0  0  0  0  0  0  0  0  0  0  0
  140.2660   69.5440  227.1010 C   0  0  0  0  0  0  0  0  0  0  0  0
  140.3740   68.5840  228.5560 Cl  0  0  0  0  0  0  0  0  0  0  0  0
  139.4550   69.2070  226.0390 C   0  0  0  0  0  0  0  0  0  0  0  0
  139.4000   69.9920  224.9130 C   0  0  0  0  0  0  0  0  0  0  0  0
  138.3320   69.4730  223.6090 Cl  0  0  0  0  0  0  0  0  0  0  0  0
  139.4900   74.2970  222.2280 N   0  0  0  0  0  0  0  0  0  0  0  0
  139.9740   75.6150  222.3400 N   0  0  0  0  0  0  0  0  0  0  0  0
  139.3990   76.6470  221.8580 C   0  0  0  0  0  0  0  0  0  0  0  0
  139.6780   77.9410  222.4730 C   0  0  0  0  0  0  0  0  0  0  0  0
  138.6390   78.6000  223.0970 C   0  0  0  0  0  0  0  0  0  0  0  0
  138.8110   79.8410  223.7110 C   0  0  0  0  0  0  0  0  0  0  0  0
  140.0620   80.4230  223.6890 C   0  0  0  0  0  0  0  0  0  0  0  0
  141.0980   79.7520  223.0590 C   0  0  0  0  0  0  0  0  0  0  0  0
  142.4630   80.3510  223.0160 C   0  0  0  0  0  0  0  0  0  0  0  0
  142.6310   81.0820  224.1810 F   0  0  0  0  0  0  0  0  0  0  0  0
  142.5530   81.2770  221.9730 F   0  0  0  0  0  0  0  0  0  0  0  0
  143.4330   79.4010  222.8220 F   0  0  0  0  0  0  0  0  0  0  0  0
  140.9280   78.5220  222.4500 C   0  0  0  0  0  0  0  0  0  0  0  0
  138.0802   72.2895  221.3068 H   0  0  0  0  0  0  0  0  0  0  0  0
  138.9667   72.2010  219.6762 H   0  0  0  0  0  0  0  0  0  0  0  0
  139.2857   70.3971  221.5555 H   0  0  0  0  0  0  0  0  0  0  0  0
  140.5913   70.9348  220.4527 H   0  0  0  0  0  0  0  0  0  0  0  0
  141.5410   71.0565  222.5978 H   0  0  0  0  0  0  0  0  0  0  0  0
  141.0092   72.7742  222.1871 H   0  0  0  0  0  0  0  0  0  0  0  0
  141.5666   72.3886  225.7926 H   0  0  0  0  0  0  0  0  0  0  0  0
  141.6674   70.9914  227.8149 H   0  0  0  0  0  0  0  0  0  0  0  0
  138.8421   68.2952  226.0938 H   0  0  0  0  0  0  0  0  0  0  0  0
  139.1230   73.7720  223.0590 H   0  0  0  0  0  0  0  0  0  0  0  0
  138.7122   76.5639  221.0028 H   0  0  0  0  0  0  0  0  0  0  0  0
  137.6435   78.1323  223.1109 H   0  0  0  0  0  0  0  0  0  0  0  0
  137.9662   80.3454  224.2028 H   0  0  0  0  0  0  0  0  0  0  0  0
  140.2336   81.4009  224.1625 H   0  0  0  0  0  0  0  0  0  0  0  0
  141.7725   78.0178  221.9575 H   0  0  0  0  0  0  0  0  0  0  0  0
  1  2  2  0
  2  3  1  0
  3  4  1  0
  4  5  1  0
  5  6  1  0
  6  7  1  0
  7  8  2  0
  8  9  1  0
  9 10  2  0
 10 11  1  0
 10 12  1  0
 12 13  2  0
 13 14  1  0
  2 15  1  0
 15 16  1  0
 16 17  2  0
 17 18  1  0
 18 19  2  0
 19 20  1  0
 20 21  2  0
 21 22  1  0
 22 23  1  0
 23 24  1  0
 23 25  1  0
 23 26  1  0
 22 27  2  0
 13  7  1  0
 27 18  1  0
  3 28  1  0
  3 29  1  0
  4 30  1  0
  4 31  1  0
  5 32  1  0
  5 33  1  0
  8 34  1  0
  9 35  1  0
 12 36  1  0
 15 37  1  0
 17 38  1  0
 19 39  1  0
 20 40  1  0
 21 41  1  0
 27 42  1  0
M  END
>  <smiles>  (13) 
O=C(CCCOc1ccc(Cl)cc1Cl)NN=Cc1cccc(C(F)(F)F)c1

>  <score_type>  (13) 
oracle

>  <origin>  (13) 
autodockgpu

>  <m_score__min__energy>  (13) 
-7.4800000000000004

>  <m_primary>  (13) 
energy

>  <rmsd>  (13) 
12.580492896525769

>  <m_score__min__rmsd>  (13) 
12.580492896525769

>  <meeko>  (13) 
{"free_energy": -6.82, "intermolecular_energy": -9.5, "internal_energy": -1.38, "cluster_size": 5, "cluster_id": 3, "rank_in_cluster": 2}

>  <energy>  (13) 
-6.76

>  <cluster_rmsd>  (13) 
1.95

>  <cluster>  (13) 
1

$$$$

     RDKit          3D

 42 43  0  0  0  0  0  0  0  0999 V2000
  140.6660   74.0310  222.3350 O   0  0  0  0  0  0  0  0  0  0  0  0
  139.6130   73.6280  221.7820 C   0  0  0  0  0  0  0  0  0  0  0  0
  138.8240   74.3380  220.7820 C   0  0  0  0  0  0  0  0  0  0  0  0
  137.5690   74.9970  221.2390 C   0  0  0  0  0  0  0  0  0  0  0  0
  137.9240   76.2720  221.9700 C   0  0  0  0  0  0  0  0  0  0  0  0
  139.0140   76.9460  221.4890 O   0  0  0  0  0  0  0  0  0  0  0  0
  139.8090   77.8640  222.0850 C   0  0  0  0  0  0  0  0  0  0  0  0
  139.4930   78.7040  223.1180 C   0  0  0  0  0  0  0  0  0  0  0  0
  140.4040   79.6120  223.6460 C   0  0  0  0  0  0  0  0  0  0  0  0
  141.6800   79.7110  223.1510 C   0  0  0  0  0  0  0  0  0  0  0  0
  142.7900   80.8670  223.8460 Cl  0  0  0  0  0  0  0  0  0  0  0  0
  142.0210   78.8750  222.1110 C   0  0  0  0  0  0  0  0  0  0  0  0
  141.1150   77.9800  221.5940 C   0  0  0  0  0  0  0  0  0  0  0  0
  141.6510   76.9550  220.2630 Cl  0  0  0  0  0  0  0  0  0  0  0  0
  139.1530   72.3310  222.1900 N   0  0  0  0  0  0  0  0  0  0  0  0
  139.9360   71.6720  223.1570 N   0  0  0  0  0  0  0  0  0  0  0  0
  139.7330   70.4840  223.5740 C   0  0  0  0  0  0  0  0  0  0  0  0
  140.0030   70.1910  224.9780 C   0  0  0  0  0  0  0  0  0  0  0  0
  139.9450   68.8750  225.3900 C   0  0  0  0  0  0  0  0  0  0  0  0
  140.1880   68.5000  226.7110 C   0  0  0  0  0  0  0  0  0  0  0  0
  140.4950   69.4810  227.6320 C   0  0  0  0  0  0  0  0  0  0  0  0
  140.5520   70.7990  227.2080 C   0  0  0  0  0  0  0  0  0  0  0  0
  140.8810   71.8850  228.1750 C   0  0  0  0  0  0  0  0  0  0  0  0
  141.4360   72.9290  227.4500 F   0  0  0  0  0  0  0  0  0  0  0  0
  141.8810   71.4630  229.0550 F   0  0  0  0  0  0  0  0  0  0  0  0
  139.7920   72.2560  228.9200 F   0  0  0  0  0  0  0  0  0  0  0  0
  140.3110   71.1720  225.8980 C   0  0  0  0  0  0  0  0  0  0  0  0
  139.4668   75.1180  220.3478 H   0  0  0  0  0  0  0  0  0  0  0  0
  138.4923   73.5582  220.0806 H   0  0  0  0  0  0  0  0  0  0  0  0
  136.9381   75.2333  220.3694 H   0  0  0  0  0  0  0  0  0  0  0  0
  137.0174   74.3231  221.9110 H   0  0  0  0  0  0  0  0  0  0  0  0
  137.0571   76.9468  221.9139 H   0  0  0  0  0  0  0  0  0  0  0  0
  138.1860   75.9684  222.9943 H   0  0  0  0  0  0  0  0  0  0  0  0
  138.4809   78.6592  223.5465 H   0  0  0  0  0  0  0  0  0  0  0  0
  140.0958   80.2638  224.4768 H   0  0  0  0  0  0  0  0  0  0  0  0
  143.0349   78.9244  221.6872 H   0  0  0  0  0  0  0  0  0  0  0  0
  138.2850   71.8960  221.7940 H   0  0  0  0  0  0  0  0  0  0  0  0
  139.3645   69.7017  222.8942 H   0  0  0  0  0  0  0  0  0  0  0  0
  139.6992   68.0968  224.6525 H   0  0  0  0  0  0  0  0  0  0  0  0
  140.1360   67.4435  227.0129 H   0  0  0  0  0  0  0  0  0  0  0  0
  140.6907   69.2215  228.6829 H   0  0  0  0  0  0  0  0  0  0  0  0
  140.3638   72.2284  225.5961 H   0  0  0  0  0  0  0  0  0  0  0  0
  1  2  2  0
  2  3  1  0
  3  4  1  0
  4  5  1  0
  5  6  1  0
  6  7  1  0
  7  8  2  0
  8  9  1  0
  9 10  2  0
 10 11  1  0
 10 12  1  0
 12 13  2  0
 13 14  1  0
  2 15  1  0
 15 16  1  0
 16 17  2  0
 17 18  1  0
 18 19  2  0
 19 20  1  0
 20 21  2  0
 21 22  1  0
 22 23  1  0
 23 24  1  0
 23 25  1  0
 23 26  1  0
 22 27  2  0
 13  7  1  0
 27 18  1  0
  3 28  1  0
  3 29  1  0
  4 30  1  0
  4 31  1  0
  5 32  1  0
  5 33  1  0
  8 34  1  0
  9 35  1  0
 12 36  1  0
 15 37  1  0
 17 38  1  0
 19 39  1  0
 20 40  1  0
 21 41  1  0
 27 42  1  0
M  END
>  <smiles>  (14) 
O=C(CCCOc1ccc(Cl)cc1Cl)NN=Cc1cccc(C(F)(F)F)c1

>  <score_type>  (14) 
oracle

>  <origin>  (14) 
autodockgpu

>  <m_score__min__energy>  (14) 
-7.4800000000000004

>  <m_primary>  (14) 
energy

>  <rmsd>  (14) 
5.722397061445553

>  <m_score__min__rmsd>  (14) 
5.722397061445553

>  <meeko>  (14) 
{"free_energy": -7.19, "intermolecular_energy": -9.88, "internal_energy": -1.02, "cluster_size": 22, "cluster_id": 1, "rank_in_cluster": 8}

>  <energy>  (14) 
-6.71

>  <cluster_rmsd>  (14) 
1.45

>  <cluster>  (14) 
1

$$$$

     RDKit          3D

 42 43  0  0  0  0  0  0  0  0999 V2000
  137.5330   70.3940  221.9180 O   0  0  0  0  0  0  0  0  0  0  0  0
  137.3990   71.6030  222.2260 C   0  0  0  0  0  0  0  0  0  0  0  0
  136.2030   72.4210  222.0550 C   0  0  0  0  0  0  0  0  0  0  0  0
  136.2770   73.8440  222.4910 C   0  0  0  0  0  0  0  0  0  0  0  0
  137.0330   74.6350  221.4480 C   0  0  0  0  0  0  0  0  0  0  0  0
  138.3480   74.8820  221.7290 O   0  0  0  0  0  0  0  0  0  0  0  0
  138.9590   76.0190  222.1350 C   0  0  0  0  0  0  0  0  0  0  0  0
  138.3830   77.1280  222.6930 C   0  0  0  0  0  0  0  0  0  0  0  0
  139.1240   78.2430  223.0690 C   0  0  0  0  0  0  0  0  0  0  0  0
  140.4840   78.2870  222.8980 C   0  0  0  0  0  0  0  0  0  0  0  0
  141.3730   79.7090  223.3860 Cl  0  0  0  0  0  0  0  0  0  0  0  0
  141.0860   77.1810  222.3380 C   0  0  0  0  0  0  0  0  0  0  0  0
  140.3480   76.0820  221.9690 C   0  0  0  0  0  0  0  0  0  0  0  0
  141.2140   74.7190  221.2600 Cl  0  0  0  0  0  0  0  0  0  0  0  0
  138.5520   72.2310  222.8050 N   0  0  0  0  0  0  0  0  0  0  0  0
  139.6900   71.4140  222.9570 N   0  0  0  0  0  0  0  0  0  0  0  0
  140.6760   71.6720  223.7240 C   0  0  0  0  0  0  0  0  0  0  0  0
  140.6730   71.1010  225.0670 C   0  0  0  0  0  0  0  0  0  0  0  0
  141.0430   71.9140  226.1180 C   0  0  0  0  0  0  0  0  0  0  0  0
  141.0700   71.4550  227.4360 C   0  0  0  0  0  0  0  0  0  0  0  0
  140.7140   70.1460  227.6880 C   0  0  0  0  0  0  0  0  0  0  0  0
  140.3420   69.3390  226.6250 C   0  0  0  0  0  0  0  0  0  0  0  0
  139.9510   67.9200  226.8600 C   0  0  0  0  0  0  0  0  0  0  0  0
  139.7540   67.7660  228.2240 F   0  0  0  0  0  0  0  0  0  0  0  0
  141.0080   67.0660  226.5330 F   0  0  0  0  0  0  0  0  0  0  0  0
  138.8650   67.5560  226.1070 F   0  0  0  0  0  0  0  0  0  0  0  0
  140.3160   69.7930  225.3190 C   0  0  0  0  0  0  0  0  0  0  0  0
  135.9507   72.4167  220.9843 H   0  0  0  0  0  0  0  0  0  0  0  0
  135.4523   71.9631  222.7159 H   0  0  0  0  0  0  0  0  0  0  0  0
  135.2607   74.2509  222.5986 H   0  0  0  0  0  0  0  0  0  0  0  0
  136.7950   73.9116  223.4590 H   0  0  0  0  0  0  0  0  0  0  0  0
  136.9889   74.0755  220.5020 H   0  0  0  0  0  0  0  0  0  0  0  0
  136.5451   75.6200  221.4070 H   0  0  0  0  0  0  0  0  0  0  0  0
  137.2943   77.1377  222.8497 H   0  0  0  0  0  0  0  0  0  0  0  0
  138.6087   79.1076  223.5128 H   0  0  0  0  0  0  0  0  0  0  0  0
  142.1751   77.1778  222.1838 H   0  0  0  0  0  0  0  0  0  0  0  0
  138.5530   73.2370  223.1010 H   0  0  0  0  0  0  0  0  0  0  0  0
  141.5061   72.3077  223.3824 H   0  0  0  0  0  0  0  0  0  0  0  0
  141.3256   72.9567  225.9111 H   0  0  0  0  0  0  0  0  0  0  0  0
  141.3690   72.1233  228.2570 H   0  0  0  0  0  0  0  0  0  0  0  0
  140.7253   69.7503  228.7143 H   0  0  0  0  0  0  0  0  0  0  0  0
  140.0167   69.1246  224.4982 H   0  0  0  0  0  0  0  0  0  0  0  0
  1  2  2  0
  2  3  1  0
  3  4  1  0
  4  5  1  0
  5  6  1  0
  6  7  1  0
  7  8  2  0
  8  9  1  0
  9 10  2  0
 10 11  1  0
 10 12  1  0
 12 13  2  0
 13 14  1  0
  2 15  1  0
 15 16  1  0
 16 17  2  0
 17 18  1  0
 18 19  2  0
 19 20  1  0
 20 21  2  0
 21 22  1  0
 22 23  1  0
 23 24  1  0
 23 25  1  0
 23 26  1  0
 22 27  2  0
 13  7  1  0
 27 18  1  0
  3 28  1  0
  3 29  1  0
  4 30  1  0
  4 31  1  0
  5 32  1  0
  5 33  1  0
  8 34  1  0
  9 35  1  0
 12 36  1  0
 15 37  1  0
 17 38  1  0
 19 39  1  0
 20 40  1  0
 21 41  1  0
 27 42  1  0
M  END
>  <smiles>  (15) 
O=C(CCCOc1ccc(Cl)cc1Cl)NN=Cc1cccc(C(F)(F)F)c1

>  <score_type>  (15) 
oracle

>  <origin>  (15) 
autodockgpu

>  <m_score__min__energy>  (15) 
-7.4800000000000004

>  <m_primary>  (15) 
energy

>  <rmsd>  (15) 
6.995879949846425

>  <m_score__min__rmsd>  (15) 
6.995879949846425

>  <meeko>  (15) 
{"free_energy": -6.22, "intermolecular_energy": -8.91, "internal_energy": -1.88, "cluster_size": 7, "cluster_id": 5, "rank_in_cluster": 3}

>  <energy>  (15) 
-6.63

>  <cluster_rmsd>  (15) 
1.5

>  <cluster>  (15) 
1

$$$$

     RDKit          3D

 42 43  0  0  0  0  0  0  0  0999 V2000
  140.0840   73.8570  222.2940 O   0  0  0  0  0  0  0  0  0  0  0  0
  141.0570   74.2500  221.6060 C   0  0  0  0  0  0  0  0  0  0  0  0
  141.8570   73.4500  220.6860 C   0  0  0  0  0  0  0  0  0  0  0  0
  141.5000   73.5040  219.2410 C   0  0  0  0  0  0  0  0  0  0  0  0
  141.1820   74.9340  218.8700 C   0  0  0  0  0  0  0  0  0  0  0  0
  142.1930   75.8350  219.0610 O   0  0  0  0  0  0  0  0  0  0  0  0
  142.2430   77.1630  218.8100 C   0  0  0  0  0  0  0  0  0  0  0  0
  142.0680   78.1920  219.6950 C   0  0  0  0  0  0  0  0  0  0  0  0
  142.1420   79.5270  219.3120 C   0  0  0  0  0  0  0  0  0  0  0  0
  142.3960   79.8810  218.0120 C   0  0  0  0  0  0  0  0  0  0  0  0
  142.4800   81.5710  217.5760 Cl  0  0  0  0  0  0  0  0  0  0  0  0
  142.5760   78.8630  217.1020 C   0  0  0  0  0  0  0  0  0  0  0  0
  142.5020   77.5460  217.4880 C   0  0  0  0  0  0  0  0  0  0  0  0
  142.7460   76.3170  216.2470 Cl  0  0  0  0  0  0  0  0  0  0  0  0
  141.4050   75.6350  221.7530 N   0  0  0  0  0  0  0  0  0  0  0  0
  140.6130   76.3800  222.6490 N   0  0  0  0  0  0  0  0  0  0  0  0
  140.0130   77.4680  222.3600 C   0  0  0  0  0  0  0  0  0  0  0  0
  140.7150   78.7260  222.5950 C   0  0  0  0  0  0  0  0  0  0  0  0
  141.7630   78.7270  223.4930 C   0  0  0  0  0  0  0  0  0  0  0  0
  142.4910   79.8810  223.7810 C   0  0  0  0  0  0  0  0  0  0  0  0
  142.1480   81.0560  223.1450 C   0  0  0  0  0  0  0  0  0  0  0  0
  141.0950   81.0440  222.2450 C   0  0  0  0  0  0  0  0  0  0  0  0
  140.6960   82.2960  221.5390 C   0  0  0  0  0  0  0  0  0  0  0  0
  141.5980   83.2820  221.9060 F   0  0  0  0  0  0  0  0  0  0  0  0
  139.4500   82.7340  221.9980 F   0  0  0  0  0  0  0  0  0  0  0  0
  140.6050   82.1130  220.1840 F   0  0  0  0  0  0  0  0  0  0  0  0
  140.3720   79.9000  221.9590 C   0  0  0  0  0  0  0  0  0  0  0  0
  142.9008   73.7840  220.7805 H   0  0  0  0  0  0  0  0  0  0  0  0
  141.6686   72.4078  220.9832 H   0  0  0  0  0  0  0  0  0  0  0  0
  142.3468   73.1452  218.6375 H   0  0  0  0  0  0  0  0  0  0  0  0
  140.6256   72.8651  219.0484 H   0  0  0  0  0  0  0  0  0  0  0  0
  140.9083   74.9539  217.8048 H   0  0  0  0  0  0  0  0  0  0  0  0
  140.3711   75.2456  219.5448 H   0  0  0  0  0  0  0  0  0  0  0  0
  141.8610   77.9544  220.7489 H   0  0  0  0  0  0  0  0  0  0  0  0
  141.9939   80.3138  220.0664 H   0  0  0  0  0  0  0  0  0  0  0  0
  142.7823   79.1079  216.0496 H   0  0  0  0  0  0  0  0  0  0  0  0
  142.2010   76.0710  221.2270 H   0  0  0  0  0  0  0  0  0  0  0  0
  138.9943   77.4584  221.9450 H   0  0  0  0  0  0  0  0  0  0  0  0
  142.0327   77.7875  223.9977 H   0  0  0  0  0  0  0  0  0  0  0  0
  143.3222   79.8548  224.5010 H   0  0  0  0  0  0  0  0  0  0  0  0
  142.7003   81.9852  223.3487 H   0  0  0  0  0  0  0  0  0  0  0  0
  139.5407   79.9265  221.2391 H   0  0  0  0  0  0  0  0  0  0  0  0
  1  2  2  0
  2  3  1  0
  3  4  1  0
  4  5  1  0
  5  6  1  0
  6  7  1  0
  7  8  2  0
  8  9  1  0
  9 10  2  0
 10 11  1  0
 10 12  1  0
 12 13  2  0
 13 14  1  0
  2 15  1  0
 15 16  1  0
 16 17  2  0
 17 18  1  0
 18 19  2  0
 19 20  1  0
 20 21  2  0
 21 22  1  0
 22 23  1  0
 23 24  1  0
 23 25  1  0
 23 26  1  0
 22 27  2  0
 13  7  1  0
 27 18  1  0
  3 28  1  0
  3 29  1  0
  4 30  1  0
  4 31  1  0
  5 32  1  0
  5 33  1  0
  8 34  1  0
  9 35  1  0
 12 36  1  0
 15 37  1  0
 17 38  1  0
 19 39  1  0
 20 40  1  0
 21 41  1  0
 27 42  1  0
M  END
>  <smiles>  (16) 
O=C(CCCOc1ccc(Cl)cc1Cl)NN=Cc1cccc(C(F)(F)F)c1

>  <score_type>  (16) 
oracle

>  <origin>  (16) 
autodockgpu

>  <m_score__min__energy>  (16) 
-7.4800000000000004

>  <m_primary>  (16) 
energy

>  <rmsd>  (16) 
6.974081489283994

>  <m_score__min__rmsd>  (16) 
6.974081489283994

>  <meeko>  (16) 
{"free_energy": -5.43, "intermolecular_energy": -8.12, "internal_energy": -2.44, "cluster_size": 4, "cluster_id": 8, "rank_in_cluster": 2}

>  <energy>  (16) 
-6.63

>  <cluster_rmsd>  (16) 
1.61

>  <cluster>  (16) 
1

$$$$

     RDKit          3D

 42 43  0  0  0  0  0  0  0  0999 V2000
  140.7140   72.2980  223.4130 O   0  0  0  0  0  0  0  0  0  0  0  0
  139.9160   72.3260  222.4450 C   0  0  0  0  0  0  0  0  0  0  0  0
  140.0510   73.1110  221.2230 C   0  0  0  0  0  0  0  0  0  0  0  0
  140.5240   74.5180  221.3600 C   0  0  0  0  0  0  0  0  0  0  0  0
  139.3370   75.4030  221.6640 C   0  0  0  0  0  0  0  0  0  0  0  0
  139.4870   76.7250  221.3470 O   0  0  0  0  0  0  0  0  0  0  0  0
  140.1600   77.7100  221.9860 C   0  0  0  0  0  0  0  0  0  0  0  0
  139.7690   78.4110  223.0940 C   0  0  0  0  0  0  0  0  0  0  0  0
  140.5550   79.4090  223.6600 C   0  0  0  0  0  0  0  0  0  0  0  0
  141.7750   79.7430  223.1300 C   0  0  0  0  0  0  0  0  0  0  0  0
  142.7270   81.0030  223.8750 Cl  0  0  0  0  0  0  0  0  0  0  0  0
  142.1900   79.0500  222.0140 C   0  0  0  0  0  0  0  0  0  0  0  0
  141.4080   78.0650  221.4590 C   0  0  0  0  0  0  0  0  0  0  0  0
  142.0290   77.2380  220.0310 Cl  0  0  0  0  0  0  0  0  0  0  0  0
  138.7550   71.4920  222.5700 N   0  0  0  0  0  0  0  0  0  0  0  0
  138.6540   70.7470  223.7610 N   0  0  0  0  0  0  0  0  0  0  0  0
  139.4030   69.7620  224.0710 C   0  0  0  0  0  0  0  0  0  0  0  0
  139.8800   69.6650  225.4470 C   0  0  0  0  0  0  0  0  0  0  0  0
  139.9620   68.4120  226.0190 C   0  0  0  0  0  0  0  0  0  0  0  0
  140.4060   68.2220  227.3270 C   0  0  0  0  0  0  0  0  0  0  0  0
  140.7740   69.3270  228.0680 C   0  0  0  0  0  0  0  0  0  0  0  0
  140.6880   70.5800  227.4840 C   0  0  0  0  0  0  0  0  0  0  0  0
  141.0770   71.7960  228.2550 C   0  0  0  0  0  0  0  0  0  0  0  0
  139.9370   72.2650  228.8890 F   0  0  0  0  0  0  0  0  0  0  0  0
  141.4720   72.8150  227.3840 F   0  0  0  0  0  0  0  0  0  0  0  0
  142.1170   71.5480  229.1130 F   0  0  0  0  0  0  0  0  0  0  0  0
  140.2470   70.7690  226.1870 C   0  0  0  0  0  0  0  0  0  0  0  0
  140.7636   72.5855  220.5703 H   0  0  0  0  0  0  0  0  0  0  0  0
  139.0276   73.1955  220.8286 H   0  0  0  0  0  0  0  0  0  0  0  0
  141.2544   74.5844  222.1798 H   0  0  0  0  0  0  0  0  0  0  0  0
  141.0038   74.8439  220.4253 H   0  0  0  0  0  0  0  0  0  0  0  0
  138.4742   75.0163  221.1018 H   0  0  0  0  0  0  0  0  0  0  0  0
  139.2090   75.3689  222.7560 H   0  0  0  0  0  0  0  0  0  0  0  0
  138.7976   78.1767  223.5539 H   0  0  0  0  0  0  0  0  0  0  0  0
  140.1907   79.9414  224.5510 H   0  0  0  0  0  0  0  0  0  0  0  0
  143.1629   79.2887  221.5596 H   0  0  0  0  0  0  0  0  0  0  0  0
  138.0220   71.4370  221.8220 H   0  0  0  0  0  0  0  0  0  0  0  0
  139.6817   69.0064  223.3218 H   0  0  0  0  0  0  0  0  0  0  0  0
  139.6677   67.5349  225.4240 H   0  0  0  0  0  0  0  0  0  0  0  0
  140.4619   67.2122  227.7596 H   0  0  0  0  0  0  0  0  0  0  0  0
  141.1290   69.2145  229.1031 H   0  0  0  0  0  0  0  0  0  0  0  0
  140.1902   71.7789  225.7548 H   0  0  0  0  0  0  0  0  0  0  0  0
  1  2  2  0
  2  3  1  0
  3  4  1  0
  4  5  1  0
  5  6  1  0
  6  7  1  0
  7  8  2  0
  8  9  1  0
  9 10  2  0
 10 11  1  0
 10 12  1  0
 12 13  2  0
 13 14  1  0
  2 15  1  0
 15 16  1  0
 16 17  2  0
 17 18  1  0
 18 19  2  0
 19 20  1  0
 20 21  2  0
 21 22  1  0
 22 23  1  0
 23 24  1  0
 23 25  1  0
 23 26  1  0
 22 27  2  0
 13  7  1  0
 27 18  1  0
  3 28  1  0
  3 29  1  0
  4 30  1  0
  4 31  1  0
  5 32  1  0
  5 33  1  0
  8 34  1  0
  9 35  1  0
 12 36  1  0
 15 37  1  0
 17 38  1  0
 19 39  1  0
 20 40  1  0
 21 41  1  0
 27 42  1  0
M  END
>  <smiles>  (17) 
O=C(CCCOc1ccc(Cl)cc1Cl)NN=Cc1cccc(C(F)(F)F)c1

>  <score_type>  (17) 
oracle

>  <origin>  (17) 
autodockgpu

>  <m_score__min__energy>  (17) 
-7.4800000000000004

>  <m_primary>  (17) 
energy

>  <rmsd>  (17) 
6.115802382871698

>  <m_score__min__rmsd>  (17) 
6.115802382871698

>  <meeko>  (17) 
{"free_energy": -7.13, "intermolecular_energy": -9.82, "internal_energy": -0.79, "cluster_size": 22, "cluster_id": 1, "rank_in_cluster": 9}

>  <energy>  (17) 
-6.62

>  <cluster_rmsd>  (17) 
1.73

>  <cluster>  (17) 
1

$$$$

     RDKit          3D

 42 43  0  0  0  0  0  0  0  0999 V2000
  140.5590   74.8310  221.9850 O   0  0  0  0  0  0  0  0  0  0  0  0
  141.2310   73.9480  221.3990 C   0  0  0  0  0  0  0  0  0  0  0  0
  142.0960   74.1340  220.2380 C   0  0  0  0  0  0  0  0  0  0  0  0
  142.7130   75.4770  220.0510 C   0  0  0  0  0  0  0  0  0  0  0  0
  141.6880   76.4040  219.4390 C   0  0  0  0  0  0  0  0  0  0  0  0
  140.9240   77.1110  220.3270 O   0  0  0  0  0  0  0  0  0  0  0  0
  141.2840   78.0070  221.2750 C   0  0  0  0  0  0  0  0  0  0  0  0
  141.2370   77.8550  222.6340 C   0  0  0  0  0  0  0  0  0  0  0  0
  141.6360   78.8580  223.5110 C   0  0  0  0  0  0  0  0  0  0  0  0
  142.1020   80.0630  223.0500 C   0  0  0  0  0  0  0  0  0  0  0  0
  142.5930   81.2930  224.1890 Cl  0  0  0  0  0  0  0  0  0  0  0  0
  142.1590   80.2390  221.6850 C   0  0  0  0  0  0  0  0  0  0  0  0
  141.7630   79.2430  220.8250 C   0  0  0  0  0  0  0  0  0  0  0  0
  141.8730   79.5680  219.0950 Cl  0  0  0  0  0  0  0  0  0  0  0  0
  141.1260   72.6230  221.9400 N   0  0  0  0  0  0  0  0  0  0  0  0
  140.2840   72.4770  223.0600 N   0  0  0  0  0  0  0  0  0  0  0  0
  139.6260   71.4220  223.3440 C   0  0  0  0  0  0  0  0  0  0  0  0
  139.8500   70.8000  224.6450 C   0  0  0  0  0  0  0  0  0  0  0  0
  139.5610   69.4570  224.7810 C   0  0  0  0  0  0  0  0  0  0  0  0
  139.7430   68.7780  225.9850 C   0  0  0  0  0  0  0  0  0  0  0  0
  140.2280   69.4770  227.0730 C   0  0  0  0  0  0  0  0  0  0  0  0
  140.5150   70.8240  226.9250 C   0  0  0  0  0  0  0  0  0  0  0  0
  141.0390   71.6100  228.0780 C   0  0  0  0  0  0  0  0  0  0  0  0
  139.9490   72.1610  228.7330 F   0  0  0  0  0  0  0  0  0  0  0  0
  141.7930   72.6950  227.6220 F   0  0  0  0  0  0  0  0  0  0  0  0
  141.8410   70.8530  228.8930 F   0  0  0  0  0  0  0  0  0  0  0  0
  140.3340   71.4980  225.7310 C   0  0  0  0  0  0  0  0  0  0  0  0
  142.9142   73.4029  220.3156 H   0  0  0  0  0  0  0  0  0  0  0  0
  141.4329   74.0057  219.3697 H   0  0  0  0  0  0  0  0  0  0  0  0
  143.0358   75.8742  221.0247 H   0  0  0  0  0  0  0  0  0  0  0  0
  143.5872   75.3972  219.3881 H   0  0  0  0  0  0  0  0  0  0  0  0
  142.2216   77.1253  218.8027 H   0  0  0  0  0  0  0  0  0  0  0  0
  140.9884   75.7573  218.8891 H   0  0  0  0  0  0  0  0  0  0  0  0
  140.8701   76.9043  223.0482 H   0  0  0  0  0  0  0  0  0  0  0  0
  141.5768   78.6816  224.5951 H   0  0  0  0  0  0  0  0  0  0  0  0
  142.5273   81.1918  221.2769 H   0  0  0  0  0  0  0  0  0  0  0  0
  141.6440   71.8080  221.5300 H   0  0  0  0  0  0  0  0  0  0  0  0
  138.9095   70.9928  222.6281 H   0  0  0  0  0  0  0  0  0  0  0  0
  139.1747   68.9049  223.9116 H   0  0  0  0  0  0  0  0  0  0  0  0
  139.5051   67.7071  226.0668 H   0  0  0  0  0  0  0  0  0  0  0  0
  140.3834   68.9736  228.0386 H   0  0  0  0  0  0  0  0  0  0  0  0
  140.5713   72.5690  225.6495 H   0  0  0  0  0  0  0  0  0  0  0  0
  1  2  2  0
  2  3  1  0
  3  4  1  0
  4  5  1  0
  5  6  1  0
  6  7  1  0
  7  8  2  0
  8  9  1  0
  9 10  2  0
 10 11  1  0
 10 12  1  0
 12 13  2  0
 13 14  1  0
  2 15  1  0
 15 16  1  0
 16 17  2  0
 17 18  1  0
 18 19  2  0
 19 20  1  0
 20 21  2  0
 21 22  1  0
 22 23  1  0
 23 24  1  0
 23 25  1  0
 23 26  1  0
 22 27  2  0
 13  7  1  0
 27 18  1  0
  3 28  1  0
  3 29  1  0
  4 30  1  0
  4 31  1  0
  5 32  1  0
  5 33  1  0
  8 34  1  0
  9 35  1  0
 12 36  1  0
 15 37  1  0
 17 38  1  0
 19 39  1  0
 20 40  1  0
 21 41  1  0
 27 42  1  0
M  END
>  <smiles>  (18) 
O=C(CCCOc1ccc(Cl)cc1Cl)NN=Cc1cccc(C(F)(F)F)c1

>  <score_type>  (18) 
oracle

>  <origin>  (18) 
autodockgpu

>  <m_score__min__energy>  (18) 
-7.4800000000000004

>  <m_primary>  (18) 
energy

>  <rmsd>  (18) 
5.756986848002949

>  <m_score__min__rmsd>  (18) 
5.756986848002949

>  <meeko>  (18) 
{"free_energy": -7.47, "intermolecular_energy": -10.15, "internal_energy": -0.85, "cluster_size": 22, "cluster_id": 1, "rank_in_cluster": 2}

>  <energy>  (18) 
-6.48

>  <cluster_rmsd>  (18) 
1.54

>  <cluster>  (18) 
1

$$$$

     RDKit          3D

 42 43  0  0  0  0  0  0  0  0999 V2000
  139.0160   73.0090  220.2350 O   0  0  0  0  0  0  0  0  0  0  0  0
  138.4670   73.7320  221.1020 C   0  0  0  0  0  0  0  0  0  0  0  0
  137.1560   74.3640  221.0100 C   0  0  0  0  0  0  0  0  0  0  0  0
  136.6420   75.0570  222.2250 C   0  0  0  0  0  0  0  0  0  0  0  0
  137.2090   76.4580  222.2640 C   0  0  0  0  0  0  0  0  0  0  0  0
  138.5730   76.5440  222.3130 O   0  0  0  0  0  0  0  0  0  0  0  0
  139.3740   77.5820  222.6450 C   0  0  0  0  0  0  0  0  0  0  0  0
  139.0590   78.6750  223.4060 C   0  0  0  0  0  0  0  0  0  0  0  0
  139.9770   79.6840  223.6780 C   0  0  0  0  0  0  0  0  0  0  0  0
  141.2580   79.6330  223.1880 C   0  0  0  0  0  0  0  0  0  0  0  0
  142.3760   80.9240  223.5550 Cl  0  0  0  0  0  0  0  0  0  0  0  0
  141.5980   78.5430  222.4190 C   0  0  0  0  0  0  0  0  0  0  0  0
  140.6850   77.5490  222.1550 C   0  0  0  0  0  0  0  0  0  0  0  0
  141.2190   76.1960  221.1590 Cl  0  0  0  0  0  0  0  0  0  0  0  0
  139.2230   73.9470  222.3030 N   0  0  0  0  0  0  0  0  0  0  0  0
  140.4840   73.3220  222.3600 N   0  0  0  0  0  0  0  0  0  0  0  0
  140.6710   72.0650  222.4600 C   0  0  0  0  0  0  0  0  0  0  0  0
  140.1450   71.3800  223.6370 C   0  0  0  0  0  0  0  0  0  0  0  0
  139.0760   70.5240  223.4660 C   0  0  0  0  0  0  0  0  0  0  0  0
  138.5070   69.8270  224.5320 C   0  0  0  0  0  0  0  0  0  0  0  0
  139.0340   70.0050  225.7950 C   0  0  0  0  0  0  0  0  0  0  0  0
  140.1070   70.8660  225.9560 C   0  0  0  0  0  0  0  0  0  0  0  0
  140.7020   71.0820  227.3060 C   0  0  0  0  0  0  0  0  0  0  0  0
  141.3930   69.9280  227.6420 F   0  0  0  0  0  0  0  0  0  0  0  0
  139.6930   71.2110  228.2640 F   0  0  0  0  0  0  0  0  0  0  0  0
  141.4740   72.2140  227.3510 F   0  0  0  0  0  0  0  0  0  0  0  0
  140.6720   71.5580  224.8990 C   0  0  0  0  0  0  0  0  0  0  0  0
  137.2045   75.1082  220.2014 H   0  0  0  0  0  0  0  0  0  0  0  0
  136.4545   73.5335  220.8419 H   0  0  0  0  0  0  0  0  0  0  0  0
  135.5436   75.1037  222.1870 H   0  0  0  0  0  0  0  0  0  0  0  0
  136.9468   74.5055  223.1266 H   0  0  0  0  0  0  0  0  0  0  0  0
  136.8692   76.9855  221.3605 H   0  0  0  0  0  0  0  0  0  0  0  0
  136.8464   76.9025  223.2026 H   0  0  0  0  0  0  0  0  0  0  0  0
  138.0424   78.7587  223.8177 H   0  0  0  0  0  0  0  0  0  0  0  0
  139.6703   80.5394  224.2978 H   0  0  0  0  0  0  0  0  0  0  0  0
  142.6159   78.4659  222.0093 H   0  0  0  0  0  0  0  0  0  0  0  0
  138.8620   74.5340  223.0940 H   0  0  0  0  0  0  0  0  0  0  0  0
  141.2143   71.5112  221.6802 H   0  0  0  0  0  0  0  0  0  0  0  0
  138.6595   70.3870  222.4572 H   0  0  0  0  0  0  0  0  0  0  0  0
  137.6558   69.1495  224.3693 H   0  0  0  0  0  0  0  0  0  0  0  0
  138.6093   69.4724  226.6587 H   0  0  0  0  0  0  0  0  0  0  0  0
  141.5232   72.2355  225.0620 H   0  0  0  0  0  0  0  0  0  0  0  0
  1  2  2  0
  2  3  1  0
  3  4  1  0
  4  5  1  0
  5  6  1  0
  6  7  1  0
  7  8  2  0
  8  9  1  0
  9 10  2  0
 10 11  1  0
 10 12  1  0
 12 13  2  0
 13 14  1  0
  2 15  1  0
 15 16  1  0
 16 17  2  0
 17 18  1  0
 18 19  2  0
 19 20  1  0
 20 21  2  0
 21 22  1  0
 22 23  1  0
 23 24  1  0
 23 25  1  0
 23 26  1  0
 22 27  2  0
 13  7  1  0
 27 18  1  0
  3 28  1  0
  3 29  1  0
  4 30  1  0
  4 31  1  0
  5 32  1  0
  5 33  1  0
  8 34  1  0
  9 35  1  0
 12 36  1  0
 15 37  1  0
 17 38  1  0
 19 39  1  0
 20 40  1  0
 21 41  1  0
 27 42  1  0
M  END
>  <smiles>  (19) 
O=C(CCCOc1ccc(Cl)cc1Cl)NN=Cc1cccc(C(F)(F)F)c1

>  <score_type>  (19) 
oracle

>  <origin>  (19) 
autodockgpu

>  <m_score__min__energy>  (19) 
-7.4800000000000004

>  <m_primary>  (19) 
energy

>  <rmsd>  (19) 
5.805859564960446

>  <m_score__min__rmsd>  (19) 
5.805859564960446

>  <meeko>  (19) 
{"free_energy": -6.4, "intermolecular_energy": -9.09, "internal_energy": -1.79, "cluster_size": 22, "cluster_id": 1, "rank_in_cluster": 19}

>  <energy>  (19) 
-6.4

>  <cluster_rmsd>  (19) 
1.53

>  <cluster>  (19) 
1

$$$$

     RDKit          3D

 42 43  0  0  0  0  0  0  0  0999 V2000
  140.6470   73.9590  221.9850 O   0  0  0  0  0  0  0  0  0  0  0  0
  141.4590   74.6660  221.3400 C   0  0  0  0  0  0  0  0  0  0  0  0
  142.3950   74.2120  220.3180 C   0  0  0  0  0  0  0  0  0  0  0  0
  142.4410   74.9760  219.0400 C   0  0  0  0  0  0  0  0  0  0  0  0
  143.2710   76.2220  219.2450 C   0  0  0  0  0  0  0  0  0  0  0  0
  142.5740   77.3500  219.5790 O   0  0  0  0  0  0  0  0  0  0  0  0
  142.1580   78.3830  218.8100 C   0  0  0  0  0  0  0  0  0  0  0  0
  142.9240   79.3510  218.2200 C   0  0  0  0  0  0  0  0  0  0  0  0
  142.3750   80.3700  217.4490 C   0  0  0  0  0  0  0  0  0  0  0  0
  141.0220   80.4550  217.2400 C   0  0  0  0  0  0  0  0  0  0  0  0
  140.3770   81.7520  216.2650 Cl  0  0  0  0  0  0  0  0  0  0  0  0
  140.2300   79.4920  217.8250 C   0  0  0  0  0  0  0  0  0  0  0  0
  140.7800   78.4870  218.5860 C   0  0  0  0  0  0  0  0  0  0  0  0
  139.6800   77.3040  219.2910 Cl  0  0  0  0  0  0  0  0  0  0  0  0
  141.4500   76.0670  221.6530 N   0  0  0  0  0  0  0  0  0  0  0  0
  140.5350   76.4750  222.6430 N   0  0  0  0  0  0  0  0  0  0  0  0
  139.9280   77.5970  222.6590 C   0  0  0  0  0  0  0  0  0  0  0  0
  140.7310   78.8150  222.6230 C   0  0  0  0  0  0  0  0  0  0  0  0
  141.7930   78.9180  223.4990 C   0  0  0  0  0  0  0  0  0  0  0  0
  142.6150   80.0440  223.5370 C   0  0  0  0  0  0  0  0  0  0  0  0
  142.3530   81.0850  222.6690 C   0  0  0  0  0  0  0  0  0  0  0  0
  141.2850   80.9710  221.7940 C   0  0  0  0  0  0  0  0  0  0  0  0
  140.9720   82.0750  220.8430 C   0  0  0  0  0  0  0  0  0  0  0  0
  140.9520   83.2550  221.5710 F   0  0  0  0  0  0  0  0  0  0  0  0
  139.6790   81.9240  220.3340 F   0  0  0  0  0  0  0  0  0  0  0  0
  141.8420   82.1020  219.7840 F   0  0  0  0  0  0  0  0  0  0  0  0
  140.4690   79.8550  221.7560 C   0  0  0  0  0  0  0  0  0  0  0  0
  143.4031   74.2432  220.7571 H   0  0  0  0  0  0  0  0  0  0  0  0
  142.0366   73.2116  220.0339 H   0  0  0  0  0  0  0  0  0  0  0  0
  142.8955   74.3546  218.2543 H   0  0  0  0  0  0  0  0  0  0  0  0
  141.4213   75.2532  218.7343 H   0  0  0  0  0  0  0  0  0  0  0  0
  143.9920   76.0192  220.0506 H   0  0  0  0  0  0  0  0  0  0  0  0
  143.7379   76.4349  218.2720 H   0  0  0  0  0  0  0  0  0  0  0  0
  144.0146   79.3222  218.3607 H   0  0  0  0  0  0  0  0  0  0  0  0
  143.0387   81.1224  216.9980 H   0  0  0  0  0  0  0  0  0  0  0  0
  139.1400   79.5272  217.6813 H   0  0  0  0  0  0  0  0  0  0  0  0
  142.0860   76.7520  221.1750 H   0  0  0  0  0  0  0  0  0  0  0  0
  138.8298   77.6450  222.6988 H   0  0  0  0  0  0  0  0  0  0  0  0
  141.9973   78.0858  224.1887 H   0  0  0  0  0  0  0  0  0  0  0  0
  143.4553   80.1015  224.2445 H   0  0  0  0  0  0  0  0  0  0  0  0
  142.9807   81.9883  222.6721 H   0  0  0  0  0  0  0  0  0  0  0  0
  139.6284   79.7981  221.0488 H   0  0  0  0  0  0  0  0  0  0  0  0
  1  2  2  0
  2  3  1  0
  3  4  1  0
  4  5  1  0
  5  6  1  0
  6  7  1  0
  7  8  2  0
  8  9  1  0
  9 10  2  0
 10 11  1  0
 10 12  1  0
 12 13  2  0
 13 14  1  0
  2 15  1  0
 15 16  1  0
 16 17  2  0
 17 18  1  0
 18 19  2  0
 19 20  1  0
 20 21  2  0
 21 22  1  0
 22 23  1  0
 23 24  1  0
 23 25  1  0
 23 26  1  0
 22 27  2  0
 13  7  1  0
 27 18  1  0
  3 28  1  0
  3 29  1  0
  4 30  1  0
  4 31  1  0
  5 32  1  0
  5 33  1  0
  8 34  1  0
  9 35  1  0
 12 36  1  0
 15 37  1  0
 17 38  1  0
 19 39  1  0
 20 40  1  0
 21 41  1  0
 27 42  1  0
M  END
>  <smiles>  (20) 
O=C(CCCOc1ccc(Cl)cc1Cl)NN=Cc1cccc(C(F)(F)F)c1

>  <score_type>  (20) 
oracle

>  <origin>  (20) 
autodockgpu

>  <m_score__min__energy>  (20) 
-7.4800000000000004

>  <m_primary>  (20) 
energy

>  <rmsd>  (20) 
7.027625335450259

>  <m_score__min__rmsd>  (20) 
7.027625335450259

>  <meeko>  (20) 
{"free_energy": -4.67, "intermolecular_energy": -7.35, "internal_energy": -3.1, "cluster_size": 4, "cluster_id": 8, "rank_in_cluster": 4}

>  <energy>  (20) 
-6.32

>  <cluster_rmsd>  (20) 
1.76

>  <cluster>  (20) 
1

$$$$

     RDKit          3D

 42 43  0  0  0  0  0  0  0  0999 V2000
  139.9320   73.6260  222.5770 O   0  0  0  0  0  0  0  0  0  0  0  0
  140.1280   72.7790  221.6720 C   0  0  0  0  0  0  0  0  0  0  0  0
  140.6060   73.0400  220.3180 C   0  0  0  0  0  0  0  0  0  0  0  0
  139.6780   73.7410  219.3870 C   0  0  0  0  0  0  0  0  0  0  0  0
  139.8180   75.2330  219.5900 C   0  0  0  0  0  0  0  0  0  0  0  0
  140.9130   75.6330  220.3060 O   0  0  0  0  0  0  0  0  0  0  0  0
  141.0970   76.7200  221.0900 C   0  0  0  0  0  0  0  0  0  0  0  0
  140.7380   76.8790  222.4010 C   0  0  0  0  0  0  0  0  0  0  0  0
  140.9830   78.0540  223.1040 C   0  0  0  0  0  0  0  0  0  0  0  0
  141.6020   79.1240  222.5100 C   0  0  0  0  0  0  0  0  0  0  0  0
  141.8880   80.5790  223.4320 Cl  0  0  0  0  0  0  0  0  0  0  0  0
  141.9720   78.9870  221.1900 C   0  0  0  0  0  0  0  0  0  0  0  0
  141.7280   77.8230  220.5020 C   0  0  0  0  0  0  0  0  0  0  0  0
  142.2400   77.7490  218.8160 Cl  0  0  0  0  0  0  0  0  0  0  0  0
  139.8490   71.4160  222.0240 N   0  0  0  0  0  0  0  0  0  0  0  0
  139.3900   71.1970  223.3370 N   0  0  0  0  0  0  0  0  0  0  0  0
  139.2670   70.0530  223.8860 C   0  0  0  0  0  0  0  0  0  0  0  0
  139.7860   69.8780  225.2390 C   0  0  0  0  0  0  0  0  0  0  0  0
  139.9620   68.5910  225.7060 C   0  0  0  0  0  0  0  0  0  0  0  0
  140.4520   68.3270  226.9850 C   0  0  0  0  0  0  0  0  0  0  0  0
  140.7690   69.3910  227.8050 C   0  0  0  0  0  0  0  0  0  0  0  0
  140.5890   70.6790  227.3260 C   0  0  0  0  0  0  0  0  0  0  0  0
  140.9210   71.8520  228.1840 C   0  0  0  0  0  0  0  0  0  0  0  0
  141.4120   72.8460  227.3520 F   0  0  0  0  0  0  0  0  0  0  0  0
  141.9680   71.5360  229.0530 F   0  0  0  0  0  0  0  0  0  0  0  0
  139.8500   72.2530  228.9410 F   0  0  0  0  0  0  0  0  0  0  0  0
  140.1030   70.9410  226.0580 C   0  0  0  0  0  0  0  0  0  0  0  0
  141.5153   73.6533  220.4015 H   0  0  0  0  0  0  0  0  0  0  0  0
  140.7512   72.0442  219.8739 H   0  0  0  0  0  0  0  0  0  0  0  0
  139.9326   73.4838  218.3482 H   0  0  0  0  0  0  0  0  0  0  0  0
  138.6419   73.4321  219.5896 H   0  0  0  0  0  0  0  0  0  0  0  0
  139.8713   75.7057  218.5982 H   0  0  0  0  0  0  0  0  0  0  0  0
  138.9433   75.5389  220.1828 H   0  0  0  0  0  0  0  0  0  0  0  0
  140.2373   76.0470  222.9178 H   0  0  0  0  0  0  0  0  0  0  0  0
  140.6741   78.1264  224.1573 H   0  0  0  0  0  0  0  0  0  0  0  0
  142.4710   79.8233  220.6785 H   0  0  0  0  0  0  0  0  0  0  0  0
  139.9770   70.6250  221.3460 H   0  0  0  0  0  0  0  0  0  0  0  0
  138.7829   69.2204  223.3545 H   0  0  0  0  0  0  0  0  0  0  0  0
  139.7077   67.7466  225.0485 H   0  0  0  0  0  0  0  0  0  0  0  0
  140.5831   67.2918  227.3331 H   0  0  0  0  0  0  0  0  0  0  0  0
  141.1573   69.2199  228.8199 H   0  0  0  0  0  0  0  0  0  0  0  0
  139.9720   71.9762  225.7100 H   0  0  0  0  0  0  0  0  0  0  0  0
  1  2  2  0
  2  3  1  0
  3  4  1  0
  4  5  1  0
  5  6  1  0
  6  7  1  0
  7  8  2  0
  8  9  1  0
  9 10  2  0
 10 11  1  0
 10 12  1  0
 12 13  2  0
 13 14  1  0
  2 15  1  0
 15 16  1  0
 16 17  2  0
 17 18  1  0
 18 19  2  0
 19 20  1  0
 20 21  2  0
 21 22  1  0
 22 23  1  0
 23 24  1  0
 23 25  1  0
 23 26  1  0
 22 27  2  0
 13  7  1  0
 27 18  1  0
  3 28  1  0
  3 29  1  0
  4 30  1  0
  4 31  1  0
  5 32  1  0
  5 33  1  0
  8 34  1  0
  9 35  1  0
 12 36  1  0
 15 37  1  0
 17 38  1  0
 19 39  1  0
 20 40  1  0
 21 41  1  0
 27 42  1  0
M  END
>  <smiles>  (21) 
O=C(CCCOc1ccc(Cl)cc1Cl)NN=Cc1cccc(C(F)(F)F)c1

>  <score_type>  (21) 
oracle

>  <origin>  (21) 
autodockgpu

>  <m_score__min__energy>  (21) 
-7.4800000000000004

>  <m_primary>  (21) 
energy

>  <rmsd>  (21) 
6.332067256991618

>  <m_score__min__rmsd>  (21) 
6.332067256991618

>  <meeko>  (21) 
{"free_energy": -6.76, "intermolecular_energy": -9.45, "internal_energy": -0.95, "cluster_size": 22, "cluster_id": 1, "rank_in_cluster": 13}

>  <energy>  (21) 
-6.12

>  <cluster_rmsd>  (21) 
1.73

>  <cluster>  (21) 
1

$$$$

     RDKit          3D

 42 43  0  0  0  0  0  0  0  0999 V2000
  138.8670   68.6890  223.9220 O   0  0  0  0  0  0  0  0  0  0  0  0
  139.1070   69.0430  222.7420 C   0  0  0  0  0  0  0  0  0  0  0  0
  139.1400   68.1870  221.5610 C   0  0  0  0  0  0  0  0  0  0  0  0
  139.2410   68.8540  220.2330 C   0  0  0  0  0  0  0  0  0  0  0  0
  140.6780   69.2640  220.0010 C   0  0  0  0  0  0  0  0  0  0  0  0
  140.9560   70.5880  220.2020 O   0  0  0  0  0  0  0  0  0  0  0  0
  142.1420   71.2340  220.2720 C   0  0  0  0  0  0  0  0  0  0  0  0
  143.3800   70.7530  219.9410 C   0  0  0  0  0  0  0  0  0  0  0  0
  144.5340   71.5200  220.0600 C   0  0  0  0  0  0  0  0  0  0  0  0
  144.4880   72.8110  220.5210 C   0  0  0  0  0  0  0  0  0  0  0  0
  145.9630   73.7350  220.6530 Cl  0  0  0  0  0  0  0  0  0  0  0  0
  143.2520   73.3170  220.8600 C   0  0  0  0  0  0  0  0  0  0  0  0
  142.1160   72.5530  220.7400 C   0  0  0  0  0  0  0  0  0  0  0  0
  140.5840   73.2940  221.2020 Cl  0  0  0  0  0  0  0  0  0  0  0  0
  139.3740   70.4410  222.5540 N   0  0  0  0  0  0  0  0  0  0  0  0
  139.3340   71.2400  223.7130 N   0  0  0  0  0  0  0  0  0  0  0  0
  140.3590   71.6960  224.3190 C   0  0  0  0  0  0  0  0  0  0  0  0
  140.6110   71.2440  225.6840 C   0  0  0  0  0  0  0  0  0  0  0  0
  141.0180   72.1780  226.6130 C   0  0  0  0  0  0  0  0  0  0  0  0
  141.2820   71.8380  227.9400 C   0  0  0  0  0  0  0  0  0  0  0  0
  141.1300   70.5220  228.3290 C   0  0  0  0  0  0  0  0  0  0  0  0
  140.7200   69.5920  227.3880 C   0  0  0  0  0  0  0  0  0  0  0  0
  140.5450   68.1620  227.7720 C   0  0  0  0  0  0  0  0  0  0  0  0
  141.3790   67.4110  226.9580 F   0  0  0  0  0  0  0  0  0  0  0  0
  139.2470   67.7370  227.4770 F   0  0  0  0  0  0  0  0  0  0  0  0
  140.7610   67.9610  229.1100 F   0  0  0  0  0  0  0  0  0  0  0  0
  140.4590   69.9290  226.0720 C   0  0  0  0  0  0  0  0  0  0  0  0
  140.0084   67.5194  221.6617 H   0  0  0  0  0  0  0  0  0  0  0  0
  138.1610   67.6855  221.5499 H   0  0  0  0  0  0  0  0  0  0  0  0
  138.9237   68.1564  219.4439 H   0  0  0  0  0  0  0  0  0  0  0  0
  138.5911   69.7412  220.2102 H   0  0  0  0  0  0  0  0  0  0  0  0
  141.3112   68.6781  220.6835 H   0  0  0  0  0  0  0  0  0  0  0  0
  140.8762   69.0739  218.9358 H   0  0  0  0  0  0  0  0  0  0  0  0
  143.4653   69.7220  219.5672 H   0  0  0  0  0  0  0  0  0  0  0  0
  145.5032   71.0824  219.7787 H   0  0  0  0  0  0  0  0  0  0  0  0
  143.1733   74.3490  221.2326 H   0  0  0  0  0  0  0  0  0  0  0  0
  139.5860   70.8480  221.6100 H   0  0  0  0  0  0  0  0  0  0  0  0
  141.0350   72.4106  223.8266 H   0  0  0  0  0  0  0  0  0  0  0  0
  141.1384   73.2249  226.2977 H   0  0  0  0  0  0  0  0  0  0  0  0
  141.6047   72.6028  228.6617 H   0  0  0  0  0  0  0  0  0  0  0  0
  141.3308   70.2178  229.3669 H   0  0  0  0  0  0  0  0  0  0  0  0
  140.1369   69.1642  225.3499 H   0  0  0  0  0  0  0  0  0  0  0  0
  1  2  2  0
  2  3  1  0
  3  4  1  0
  4  5  1  0
  5  6  1  0
  6  7  1  0
  7  8  2  0
  8  9  1  0
  9 10  2  0
 10 11  1  0
 10 12  1  0
 12 13  2  0
 13 14  1  0
  2 15  1  0
 15 16  1  0
 16 17  2  0
 17 18  1  0
 18 19  2  0
 19 20  1  0
 20 21  2  0
 21 22  1  0
 22 23  1  0
 23 24  1  0
 23 25  1  0
 23 26  1  0
 22 27  2  0
 13  7  1  0
 27 18  1  0
  3 28  1  0
  3 29  1  0
  4 30  1  0
  4 31  1  0
  5 32  1  0
  5 33  1  0
  8 34  1  0
  9 35  1  0
 12 36  1  0
 15 37  1  0
 17 38  1  0
 19 39  1  0
 20 40  1  0
 21 41  1  0
 27 42  1  0
M  END
>  <smiles>  (22) 
O=C(CCCOc1ccc(Cl)cc1Cl)NN=Cc1cccc(C(F)(F)F)c1

>  <score_type>  (22) 
oracle

>  <origin>  (22) 
autodockgpu

>  <m_score__min__energy>  (22) 
-7.4800000000000004

>  <m_primary>  (22) 
energy

>  <rmsd>  (22) 
12.269742746800079

>  <m_score__min__rmsd>  (22) 
12.269742746800079

>  <meeko>  (22) 
{"free_energy": -5.66, "intermolecular_energy": -8.35, "internal_energy": -2.13, "cluster_size": 1, "cluster_id": 9, "rank_in_cluster": 1}

>  <energy>  (22) 
-6.05

>  <cluster_rmsd>  (22) 
1.8

>  <cluster>  (22) 
1

$$$$

     RDKit          3D

 42 43  0  0  0  0  0  0  0  0999 V2000
  139.9460   74.0030  222.3430 O   0  0  0  0  0  0  0  0  0  0  0  0
  140.9250   74.3150  221.6210 C   0  0  0  0  0  0  0  0  0  0  0  0
  141.6050   73.4610  220.6540 C   0  0  0  0  0  0  0  0  0  0  0  0
  143.0740   73.6460  220.4890 C   0  0  0  0  0  0  0  0  0  0  0  0
  143.3170   74.7330  219.4680 C   0  0  0  0  0  0  0  0  0  0  0  0
  142.2250   75.4840  219.1300 O   0  0  0  0  0  0  0  0  0  0  0  0
  142.1250   76.7980  218.8240 C   0  0  0  0  0  0  0  0  0  0  0  0
  143.1350   77.6650  218.5060 C   0  0  0  0  0  0  0  0  0  0  0  0
  142.9030   79.0040  218.2110 C   0  0  0  0  0  0  0  0  0  0  0  0
  141.6360   79.5280  218.2260 C   0  0  0  0  0  0  0  0  0  0  0  0
  141.3930   81.2160  217.8490 Cl  0  0  0  0  0  0  0  0  0  0  0  0
  140.6020   78.6740  218.5440 C   0  0  0  0  0  0  0  0  0  0  0  0
  140.8390   77.3520  218.8340 C   0  0  0  0  0  0  0  0  0  0  0  0
  139.4480   76.3420  219.2300 Cl  0  0  0  0  0  0  0  0  0  0  0  0
  141.4120   75.6560  221.7780 N   0  0  0  0  0  0  0  0  0  0  0  0
  140.7340   76.4550  222.7190 N   0  0  0  0  0  0  0  0  0  0  0  0
  140.0610   77.5010  222.4380 C   0  0  0  0  0  0  0  0  0  0  0  0
  140.7390   78.7920  222.4910 C   0  0  0  0  0  0  0  0  0  0  0  0
  141.8650   78.9020  223.2800 C   0  0  0  0  0  0  0  0  0  0  0  0
  142.5790   80.0950  223.3930 C   0  0  0  0  0  0  0  0  0  0  0  0
  142.1380   81.1990  222.6910 C   0  0  0  0  0  0  0  0  0  0  0  0
  141.0060   81.0780  221.9010 C   0  0  0  0  0  0  0  0  0  0  0  0
  140.5010   82.2490  221.1280 C   0  0  0  0  0  0  0  0  0  0  0  0
  139.8550   83.0870  222.0240 F   0  0  0  0  0  0  0  0  0  0  0  0
  139.5210   81.8420  220.2180 F   0  0  0  0  0  0  0  0  0  0  0  0
  141.5000   82.8680  220.4240 F   0  0  0  0  0  0  0  0  0  0  0  0
  140.2980   79.8950  221.7890 C   0  0  0  0  0  0  0  0  0  0  0  0
  141.4361   72.4177  220.9592 H   0  0  0  0  0  0  0  0  0  0  0  0
  141.1754   73.7409  219.6808 H   0  0  0  0  0  0  0  0  0  0  0  0
  143.5203   73.9366  221.4515 H   0  0  0  0  0  0  0  0  0  0  0  0
  143.5330   72.7057  220.1498 H   0  0  0  0  0  0  0  0  0  0  0  0
  144.0820   75.4120  219.8728 H   0  0  0  0  0  0  0  0  0  0  0  0
  143.6222   74.2159  218.5463 H   0  0  0  0  0  0  0  0  0  0  0  0
  144.1684   77.2888  218.4829 H   0  0  0  0  0  0  0  0  0  0  0  0
  143.7529   79.6559  217.9606 H   0  0  0  0  0  0  0  0  0  0  0  0
  139.5710   79.0567  218.5660 H   0  0  0  0  0  0  0  0  0  0  0  0
  142.2240   76.0240  221.2260 H   0  0  0  0  0  0  0  0  0  0  0  0
  138.9981   77.4320  222.1631 H   0  0  0  0  0  0  0  0  0  0  0  0
  142.2114   78.0199  223.8385 H   0  0  0  0  0  0  0  0  0  0  0  0
  143.4749   80.1549  224.0284 H   0  0  0  0  0  0  0  0  0  0  0  0
  142.6751   82.1566  222.7575 H   0  0  0  0  0  0  0  0  0  0  0  0
  139.4021   79.8348  221.1536 H   0  0  0  0  0  0  0  0  0  0  0  0
  1  2  2  0
  2  3  1  0
  3  4  1  0
  4  5  1  0
  5  6  1  0
  6  7  1  0
  7  8  2  0
  8  9  1  0
  9 10  2  0
 10 11  1  0
 10 12  1  0
 12 13  2  0
 13 14  1  0
  2 15  1  0
 15 16  1  0
 16 17  2  0
 17 18  1  0
 18 19  2  0
 19 20  1  0
 20 21  2  0
 21 22  1  0
 22 23  1  0
 23 24  1  0
 23 25  1  0
 23 26  1  0
 22 27  2  0
 13  7  1  0
 27 18  1  0
  3 28  1  0
  3 29  1  0
  4 30  1  0
  4 31  1  0
  5 32  1  0
  5 33  1  0
  8 34  1  0
  9 35  1  0
 12 36  1  0
 15 37  1  0
 17 38  1  0
 19 39  1  0
 20 40  1  0
 21 41  1  0
 27 42  1  0
M  END
>  <smiles>  (23) 
O=C(CCCOc1ccc(Cl)cc1Cl)NN=Cc1cccc(C(F)(F)F)c1

>  <score_type>  (23) 
oracle

>  <origin>  (23) 
autodockgpu

>  <m_score__min__energy>  (23) 
-7.4800000000000004

>  <m_primary>  (23) 
energy

>  <rmsd>  (23) 
7.74662608866411

>  <m_score__min__rmsd>  (23) 
7.74662608866411

>  <meeko>  (23) 
{"free_energy": -4.9, "intermolecular_energy": -7.58, "internal_energy": -2.98, "cluster_size": 4, "cluster_id": 8, "rank_in_cluster": 3}

>  <energy>  (23) 
-7.24

>  <cluster_rmsd>  (23) 
0.0

>  <cluster>  (23) 
2

$$$$

     RDKit          3D

 42 43  0  0  0  0  0  0  0  0999 V2000
  140.6270   74.5590  222.3290 O   0  0  0  0  0  0  0  0  0  0  0  0
  139.5140   74.0920  221.9860 C   0  0  0  0  0  0  0  0  0  0  0  0
  138.4850   74.7700  221.2060 C   0  0  0  0  0  0  0  0  0  0  0  0
  137.3770   75.4270  221.9540 C   0  0  0  0  0  0  0  0  0  0  0  0
  137.5550   76.9260  221.8730 C   0  0  0  0  0  0  0  0  0  0  0  0
  138.7990   77.3560  221.5000 O   0  0  0  0  0  0  0  0  0  0  0  0
  139.6750   78.1640  222.1400 C   0  0  0  0  0  0  0  0  0  0  0  0
  139.4240   79.0150  223.1820 C   0  0  0  0  0  0  0  0  0  0  0  0
  140.4170   79.8010  223.7570 C   0  0  0  0  0  0  0  0  0  0  0  0
  141.7100   79.7630  223.3020 C   0  0  0  0  0  0  0  0  0  0  0  0
  142.9220   80.7690  224.0550 Cl  0  0  0  0  0  0  0  0  0  0  0  0
  141.9860   78.9140  222.2530 C   0  0  0  0  0  0  0  0  0  0  0  0
  141.0000   78.1390  221.6890 C   0  0  0  0  0  0  0  0  0  0  0  0
  141.4560   77.0860  220.3500 Cl  0  0  0  0  0  0  0  0  0  0  0  0
  139.2420   72.7500  222.4160 N   0  0  0  0  0  0  0  0  0  0  0  0
  140.2550   72.1230  223.1670 N   0  0  0  0  0  0  0  0  0  0  0  0
  140.1790   70.9480  223.6580 C   0  0  0  0  0  0  0  0  0  0  0  0
  140.4160   70.7820  225.0880 C   0  0  0  0  0  0  0  0  0  0  0  0
  140.8020   71.8890  225.8160 C   0  0  0  0  0  0  0  0  0  0  0  0
  141.0520   71.8260  227.1870 C   0  0  0  0  0  0  0  0  0  0  0  0
  140.9060   70.6140  227.8300 C   0  0  0  0  0  0  0  0  0  0  0  0
  140.5180   69.5080  227.0910 C   0  0  0  0  0  0  0  0  0  0  0  0
  140.3510   68.1830  227.7530 C   0  0  0  0  0  0  0  0  0  0  0  0
  141.4350   67.3990  227.3870 F   0  0  0  0  0  0  0  0  0  0  0  0
  139.2240   67.5280  227.2480 F   0  0  0  0  0  0  0  0  0  0  0  0
  140.1960   68.3030  229.1090 F   0  0  0  0  0  0  0  0  0  0  0  0
  140.2710   69.5710  225.7310 C   0  0  0  0  0  0  0  0  0  0  0  0
  138.9835   75.5460  220.6065 H   0  0  0  0  0  0  0  0  0  0  0  0
  137.9981   73.9702  220.6287 H   0  0  0  0  0  0  0  0  0  0  0  0
  136.4118   75.1448  221.5080 H   0  0  0  0  0  0  0  0  0  0  0  0
  137.3943   75.1053  223.0057 H   0  0  0  0  0  0  0  0  0  0  0  0
  136.8301   77.3135  221.1420 H   0  0  0  0  0  0  0  0  0  0  0  0
  137.4016   77.3020  222.8953 H   0  0  0  0  0  0  0  0  0  0  0  0
  138.4002   79.0797  223.5790 H   0  0  0  0  0  0  0  0  0  0  0  0
  140.1598   80.4668  224.5940 H   0  0  0  0  0  0  0  0  0  0  0  0
  143.0117   78.8550  221.8601 H   0  0  0  0  0  0  0  0  0  0  0  0
  138.3430   72.2600  222.1860 H   0  0  0  0  0  0  0  0  0  0  0  0
  139.9413   70.0836  223.0206 H   0  0  0  0  0  0  0  0  0  0  0  0
  140.9163   72.8528  225.2982 H   0  0  0  0  0  0  0  0  0  0  0  0
  141.3591   72.7237  227.7437 H   0  0  0  0  0  0  0  0  0  0  0  0
  141.0943   70.5273  228.9103 H   0  0  0  0  0  0  0  0  0  0  0  0
  139.9651   68.6731  225.1741 H   0  0  0  0  0  0  0  0  0  0  0  0
  1  2  2  0
  2  3  1  0
  3  4  1  0
  4  5  1  0
  5  6  1  0
  6  7  1  0
  7  8  2  0
  8  9  1  0
  9 10  2  0
 10 11  1  0
 10 12  1  0
 12 13  2  0
 13 14  1  0
  2 15  1  0
 15 16  1  0
 16 17  2  0
 17 18  1  0
 18 19  2  0
 19 20  1  0
 20 21  2  0
 21 22  1  0
 22 23  1  0
 23 24  1  0
 23 25  1  0
 23 26  1  0
 22 27  2  0
 13  7  1  0
 27 18  1  0
  3 28  1  0
  3 29  1  0
  4 30  1  0
  4 31  1  0
  5 32  1  0
  5 33  1  0
  8 34  1  0
  9 35  1  0
 12 36  1  0
 15 37  1  0
 17 38  1  0
 19 39  1  0
 20 40  1  0
 21 41  1  0
 27 42  1  0
M  END
>  <smiles>  (24) 
O=C(CCCOc1ccc(Cl)cc1Cl)NN=Cc1cccc(C(F)(F)F)c1

>  <score_type>  (24) 
oracle

>  <origin>  (24) 
autodockgpu

>  <m_score__min__energy>  (24) 
-7.4800000000000004

>  <m_primary>  (24) 
energy

>  <rmsd>  (24) 
5.357382918173764

>  <m_score__min__rmsd>  (24) 
5.357382918173764

>  <meeko>  (24) 
{"free_energy": -7.2, "intermolecular_energy": -9.89, "internal_energy": -1.08, "cluster_size": 22, "cluster_id": 1, "rank_in_cluster": 7}

>  <energy>  (24) 
-7.15

>  <cluster_rmsd>  (24) 
1.73

>  <cluster>  (24) 
2

$$$$

     RDKit          3D

 42 43  0  0  0  0  0  0  0  0999 V2000
  137.4440   70.3050  223.9220 O   0  0  0  0  0  0  0  0  0  0  0  0
  137.3290   71.4470  223.4150 C   0  0  0  0  0  0  0  0  0  0  0  0
  136.0870   72.1500  223.1150 C   0  0  0  0  0  0  0  0  0  0  0  0
  136.0930   73.6350  223.2340 C   0  0  0  0  0  0  0  0  0  0  0  0
  136.6070   74.2260  221.9410 C   0  0  0  0  0  0  0  0  0  0  0  0
  137.9580   74.4250  221.8760 O   0  0  0  0  0  0  0  0  0  0  0  0
  138.6940   75.5350  222.1130 C   0  0  0  0  0  0  0  0  0  0  0  0
  138.2520   76.7580  222.5420 C   0  0  0  0  0  0  0  0  0  0  0  0
  139.1130   77.8300  222.7490 C   0  0  0  0  0  0  0  0  0  0  0  0
  140.4620   77.7140  222.5300 C   0  0  0  0  0  0  0  0  0  0  0  0
  141.5040   79.0890  222.8040 Cl  0  0  0  0  0  0  0  0  0  0  0  0
  140.9300   76.4930  222.0980 C   0  0  0  0  0  0  0  0  0  0  0  0
  140.0730   75.4370  221.8960 C   0  0  0  0  0  0  0  0  0  0  0  0
  140.7710   73.9160  221.3410 Cl  0  0  0  0  0  0  0  0  0  0  0  0
  138.5600   72.1180  223.1060 N   0  0  0  0  0  0  0  0  0  0  0  0
  139.7420   71.4130  223.4080 N   0  0  0  0  0  0  0  0  0  0  0  0
  140.6790   71.8470  224.1570 C   0  0  0  0  0  0  0  0  0  0  0  0
  140.7590   71.3410  225.5240 C   0  0  0  0  0  0  0  0  0  0  0  0
  141.0240   72.2410  226.5350 C   0  0  0  0  0  0  0  0  0  0  0  0
  141.1200   71.8500  227.8710 C   0  0  0  0  0  0  0  0  0  0  0  0
  140.9420   70.5180  228.1840 C   0  0  0  0  0  0  0  0  0  0  0  0
  140.6760   69.6220  227.1610 C   0  0  0  0  0  0  0  0  0  0  0  0
  140.4780   68.1750  227.4620 C   0  0  0  0  0  0  0  0  0  0  0  0
  139.1890   67.8450  227.0740 F   0  0  0  0  0  0  0  0  0  0  0  0
  140.5250   67.9570  228.8420 F   0  0  0  0  0  0  0  0  0  0  0  0
  141.4420   67.3940  226.8790 F   0  0  0  0  0  0  0  0  0  0  0  0
  140.5820   70.0100  225.8370 C   0  0  0  0  0  0  0  0  0  0  0  0
  135.8102   71.9032  222.0794 H   0  0  0  0  0  0  0  0  0  0  0  0
  135.3785   71.8094  223.8844 H   0  0  0  0  0  0  0  0  0  0  0  0
  135.0710   73.9946  223.4242 H   0  0  0  0  0  0  0  0  0  0  0  0
  136.7420   73.9402  224.0681 H   0  0  0  0  0  0  0  0  0  0  0  0
  136.3258   73.5461  221.1233 H   0  0  0  0  0  0  0  0  0  0  0  0
  136.1528   75.2251  221.8665 H   0  0  0  0  0  0  0  0  0  0  0  0
  137.1771   76.8974  222.7296 H   0  0  0  0  0  0  0  0  0  0  0  0
  138.7040   78.7906  223.0954 H   0  0  0  0  0  0  0  0  0  0  0  0
  142.0060   76.3605  221.9117 H   0  0  0  0  0  0  0  0  0  0  0  0
  138.5840   73.0760  222.6810 H   0  0  0  0  0  0  0  0  0  0  0  0
  141.4067   72.5823  223.7831 H   0  0  0  0  0  0  0  0  0  0  0  0
  141.1643   73.3017  226.2797 H   0  0  0  0  0  0  0  0  0  0  0  0
  141.3331   72.5882  228.6582 H   0  0  0  0  0  0  0  0  0  0  0  0
  141.0100   70.1737  229.2265 H   0  0  0  0  0  0  0  0  0  0  0  0
  140.3703   69.2717  225.0496 H   0  0  0  0  0  0  0  0  0  0  0  0
  1  2  2  0
  2  3  1  0
  3  4  1  0
  4  5  1  0
  5  6  1  0
  6  7  1  0
  7  8  2  0
  8  9  1  0
  9 10  2  0
 10 11  1  0
 10 12  1  0
 12 13  2  0
 13 14  1  0
  2 15  1  0
 15 16  1  0
 16 17  2  0
 17 18  1  0
 18 19  2  0
 19 20  1  0
 20 21  2  0
 21 22  1  0
 22 23  1  0
 23 24  1  0
 23 25  1  0
 23 26  1  0
 22 27  2  0
 13  7  1  0
 27 18  1  0
  3 28  1  0
  3 29  1  0
  4 30  1  0
  4 31  1  0
  5 32  1  0
  5 33  1  0
  8 34  1  0
  9 35  1  0
 12 36  1  0
 15 37  1  0
 17 38  1  0
 19 39  1  0
 20 40  1  0
 21 41  1  0
 27 42  1  0
M  END
>  <smiles>  (25) 
O=C(CCCOc1ccc(Cl)cc1Cl)NN=Cc1cccc(C(F)(F)F)c1

>  <score_type>  (25) 
oracle

>  <origin>  (25) 
autodockgpu

>  <m_score__min__energy>  (25) 
-7.4800000000000004

>  <m_primary>  (25) 
energy

>  <rmsd>  (25) 
7.4551634460073135

>  <m_score__min__rmsd>  (25) 
7.4551634460073135

>  <meeko>  (25) 
{"free_energy": -6.18, "intermolecular_energy": -8.86, "internal_energy": -2.11, "cluster_size": 7, "cluster_id": 5, "rank_in_cluster": 5}

>  <energy>  (25) 
-6.72

>  <cluster_rmsd>  (25) 
1.68

>  <cluster>  (25) 
2

$$$$

     RDKit          3D

 42 43  0  0  0  0  0  0  0  0999 V2000
  140.9840   72.1830  221.1470 O   0  0  0  0  0  0  0  0  0  0  0  0
  140.3970   73.2430  221.4710 C   0  0  0  0  0  0  0  0  0  0  0  0
  140.3920   74.5010  220.7330 C   0  0  0  0  0  0  0  0  0  0  0  0
  139.1050   74.9300  220.1160 C   0  0  0  0  0  0  0  0  0  0  0  0
  138.3060   75.7000  221.1420 C   0  0  0  0  0  0  0  0  0  0  0  0
  138.9740   76.0300  222.2890 O   0  0  0  0  0  0  0  0  0  0  0  0
  139.7180   77.1210  222.5880 C   0  0  0  0  0  0  0  0  0  0  0  0
  141.0790   77.2020  222.7030 C   0  0  0  0  0  0  0  0  0  0  0  0
  141.7300   78.3900  223.0190 C   0  0  0  0  0  0  0  0  0  0  0  0
  141.0320   79.5500  223.2340 C   0  0  0  0  0  0  0  0  0  0  0  0
  141.8930   81.0170  223.6280 Cl  0  0  0  0  0  0  0  0  0  0  0  0
  139.6600   79.4920  223.1230 C   0  0  0  0  0  0  0  0  0  0  0  0
  139.0230   78.3150  222.8100 C   0  0  0  0  0  0  0  0  0  0  0  0
  137.2640   78.3470  222.6940 Cl  0  0  0  0  0  0  0  0  0  0  0  0
  139.6570   73.1950  222.7010 N   0  0  0  0  0  0  0  0  0  0  0  0
  139.6810   71.9670  223.3900 N   0  0  0  0  0  0  0  0  0  0  0  0
  140.7290   71.4200  223.8690 C   0  0  0  0  0  0  0  0  0  0  0  0
  140.7040   70.9850  225.2620 C   0  0  0  0  0  0  0  0  0  0  0  0
  140.7880   71.9490  226.2450 C   0  0  0  0  0  0  0  0  0  0  0  0
  140.7720   71.6280  227.6030 C   0  0  0  0  0  0  0  0  0  0  0  0
  140.6690   70.3010  227.9670 C   0  0  0  0  0  0  0  0  0  0  0  0
  140.5840   69.3400  226.9720 C   0  0  0  0  0  0  0  0  0  0  0  0
  140.4720   67.8970  227.3280 C   0  0  0  0  0  0  0  0  0  0  0  0
  141.0090   67.7420  228.5970 F   0  0  0  0  0  0  0  0  0  0  0  0
  141.2740   67.1260  226.4820 F   0  0  0  0  0  0  0  0  0  0  0  0
  139.1840   67.4410  227.2200 F   0  0  0  0  0  0  0  0  0  0  0  0
  140.6010   69.6590  225.6260 C   0  0  0  0  0  0  0  0  0  0  0  0
  140.7040   75.2932  221.4295 H   0  0  0  0  0  0  0  0  0  0  0  0
  141.0682   74.3303  219.8824 H   0  0  0  0  0  0  0  0  0  0  0  0
  139.3079   75.5730  219.2468 H   0  0  0  0  0  0  0  0  0  0  0  0
  138.5369   74.0482  219.7848 H   0  0  0  0  0  0  0  0  0  0  0  0
  137.9615   76.6327  220.6714 H   0  0  0  0  0  0  0  0  0  0  0  0
  137.4913   75.0291  221.4523 H   0  0  0  0  0  0  0  0  0  0  0  0
  141.6799   76.2952  222.5397 H   0  0  0  0  0  0  0  0  0  0  0  0
  142.8271   78.3988  223.0979 H   0  0  0  0  0  0  0  0  0  0  0  0
  139.0648   80.4023  223.2875 H   0  0  0  0  0  0  0  0  0  0  0  0
  139.1280   74.0240  223.0680 H   0  0  0  0  0  0  0  0  0  0  0  0
  141.6270   71.2800  223.2493 H   0  0  0  0  0  0  0  0  0  0  0  0
  140.8703   73.0052  225.9488 H   0  0  0  0  0  0  0  0  0  0  0  0
  140.8401   72.4163  228.3672 H   0  0  0  0  0  0  0  0  0  0  0  0
  140.6546   70.0111  229.0280 H   0  0  0  0  0  0  0  0  0  0  0  0
  140.5337   68.8708  224.8616 H   0  0  0  0  0  0  0  0  0  0  0  0
  1  2  2  0
  2  3  1  0
  3  4  1  0
  4  5  1  0
  5  6  1  0
  6  7  1  0
  7  8  2  0
  8  9  1  0
  9 10  2  0
 10 11  1  0
 10 12  1  0
 12 13  2  0
 13 14  1  0
  2 15  1  0
 15 16  1  0
 16 17  2  0
 17 18  1  0
 18 19  2  0
 19 20  1  0
 20 21  2  0
 21 22  1  0
 22 23  1  0
 23 24  1  0
 23 25  1  0
 23 26  1  0
 22 27  2  0
 13  7  1  0
 27 18  1  0
  3 28  1  0
  3 29  1  0
  4 30  1  0
  4 31  1  0
  5 32  1  0
  5 33  1  0
  8 34  1  0
  9 35  1  0
 12 36  1  0
 15 37  1  0
 17 38  1  0
 19 39  1  0
 20 40  1  0
 21 41  1  0
 27 42  1  0
M  END
>  <smiles>  (26) 
O=C(CCCOc1ccc(Cl)cc1Cl)NN=Cc1cccc(C(F)(F)F)c1

>  <score_type>  (26) 
oracle

>  <origin>  (26) 
autodockgpu

>  <m_score__min__energy>  (26) 
-7.4800000000000004

>  <m_primary>  (26) 
energy

>  <rmsd>  (26) 
6.425761192296034

>  <m_score__min__rmsd>  (26) 
6.425761192296034

>  <meeko>  (26) 
{"free_energy": -6.88, "intermolecular_energy": -9.56, "internal_energy": -1.44, "cluster_size": 22, "cluster_id": 1, "rank_in_cluster": 12}

>  <energy>  (26) 
-6.95

>  <cluster_rmsd>  (26) 
0.0

>  <cluster>  (26) 
3

$$$$

     RDKit          3D

 42 43  0  0  0  0  0  0  0  0999 V2000
  139.5640   75.2080  222.6830 O   0  0  0  0  0  0  0  0  0  0  0  0
  139.0470   74.5180  221.7710 C   0  0  0  0  0  0  0  0  0  0  0  0
  138.1340   74.9840  220.7330 C   0  0  0  0  0  0  0  0  0  0  0  0
  137.0710   75.9470  221.1350 C   0  0  0  0  0  0  0  0  0  0  0  0
  137.6750   77.3300  221.2260 C   0  0  0  0  0  0  0  0  0  0  0  0
  138.2280   77.6560  222.4340 O   0  0  0  0  0  0  0  0  0  0  0  0
  139.3670   78.3260  222.7250 C   0  0  0  0  0  0  0  0  0  0  0  0
  140.6570   77.9170  222.5170 C   0  0  0  0  0  0  0  0  0  0  0  0
  141.7520   78.7020  222.8630 C   0  0  0  0  0  0  0  0  0  0  0  0
  141.5910   79.9370  223.4360 C   0  0  0  0  0  0  0  0  0  0  0  0
  142.9960   80.8870  223.8540 Cl  0  0  0  0  0  0  0  0  0  0  0  0
  140.3010   80.3700  223.6550 C   0  0  0  0  0  0  0  0  0  0  0  0
  139.2240   79.5890  223.3100 C   0  0  0  0  0  0  0  0  0  0  0  0
  137.6140   80.2340  223.6330 Cl  0  0  0  0  0  0  0  0  0  0  0  0
  139.4010   73.1270  221.7660 N   0  0  0  0  0  0  0  0  0  0  0  0
  140.2840   72.7100  222.7810 N   0  0  0  0  0  0  0  0  0  0  0  0
  140.5910   71.4960  223.0270 C   0  0  0  0  0  0  0  0  0  0  0  0
  140.3390   70.9800  224.3690 C   0  0  0  0  0  0  0  0  0  0  0  0
  139.6380   69.7980  224.4890 C   0  0  0  0  0  0  0  0  0  0  0  0
  139.3510   69.2290  225.7300 C   0  0  0  0  0  0  0  0  0  0  0  0
  139.7840   69.8750  226.8700 C   0  0  0  0  0  0  0  0  0  0  0  0
  140.4880   71.0610  226.7380 C   0  0  0  0  0  0  0  0  0  0  0  0
  140.9720   71.7860  227.9480 C   0  0  0  0  0  0  0  0  0  0  0  0
  141.7980   72.8110  227.5130 F   0  0  0  0  0  0  0  0  0  0  0  0
  141.7830   70.9500  228.7210 F   0  0  0  0  0  0  0  0  0  0  0  0
  139.9370   72.2160  228.7360 F   0  0  0  0  0  0  0  0  0  0  0  0
  140.7730   71.6260  225.5080 C   0  0  0  0  0  0  0  0  0  0  0  0
  138.7405   75.4688  219.9539 H   0  0  0  0  0  0  0  0  0  0  0  0
  137.5901   74.0832  220.4126 H   0  0  0  0  0  0  0  0  0  0  0  0
  136.2664   75.9437  220.3849 H   0  0  0  0  0  0  0  0  0  0  0  0
  136.6535   75.6568  222.1104 H   0  0  0  0  0  0  0  0  0  0  0  0
  138.4626   77.4061  220.4619 H   0  0  0  0  0  0  0  0  0  0  0  0
  136.8415   78.0323  221.0777 H   0  0  0  0  0  0  0  0  0  0  0  0
  140.8338   76.9323  222.0598 H   0  0  0  0  0  0  0  0  0  0  0  0
  142.7675   78.3242  222.6730 H   0  0  0  0  0  0  0  0  0  0  0  0
  140.1308   81.3556  224.1128 H   0  0  0  0  0  0  0  0  0  0  0  0
  139.0280   72.4570  221.0500 H   0  0  0  0  0  0  0  0  0  0  0  0
  141.0333   70.8561  222.2492 H   0  0  0  0  0  0  0  0  0  0  0  0
  139.2943   69.2878  223.5771 H   0  0  0  0  0  0  0  0  0  0  0  0
  138.7910   68.2847  225.7984 H   0  0  0  0  0  0  0  0  0  0  0  0
  139.5741   69.4560  227.8652 H   0  0  0  0  0  0  0  0  0  0  0  0
  141.3335   72.5700  225.4396 H   0  0  0  0  0  0  0  0  0  0  0  0
  1  2  2  0
  2  3  1  0
  3  4  1  0
  4  5  1  0
  5  6  1  0
  6  7  1  0
  7  8  2  0
  8  9  1  0
  9 10  2  0
 10 11  1  0
 10 12  1  0
 12 13  2  0
 13 14  1  0
  2 15  1  0
 15 16  1  0
 16 17  2  0
 17 18  1  0
 18 19  2  0
 19 20  1  0
 20 21  2  0
 21 22  1  0
 22 23  1  0
 23 24  1  0
 23 25  1  0
 23 26  1  0
 22 27  2  0
 13  7  1  0
 27 18  1  0
  3 28  1  0
  3 29  1  0
  4 30  1  0
  4 31  1  0
  5 32  1  0
  5 33  1  0
  8 34  1  0
  9 35  1  0
 12 36  1  0
 15 37  1  0
 17 38  1  0
 19 39  1  0
 20 40  1  0
 21 41  1  0
 27 42  1  0
M  END
>  <smiles>  (27) 
O=C(CCCOc1ccc(Cl)cc1Cl)NN=Cc1cccc(C(F)(F)F)c1

>  <score_type>  (27) 
oracle

>  <origin>  (27) 
autodockgpu

>  <m_score__min__energy>  (27) 
-7.4800000000000004

>  <m_primary>  (27) 
energy

>  <rmsd>  (27) 
5.453343234713305

>  <m_score__min__rmsd>  (27) 
5.453343234713305

>  <meeko>  (27) 
{"free_energy": -6.98, "intermolecular_energy": -9.66, "internal_energy": -0.9, "cluster_size": 22, "cluster_id": 1, "rank_in_cluster": 10}

>  <energy>  (27) 
-6.82

>  <cluster_rmsd>  (27) 
1.52

>  <cluster>  (27) 
3

$$$$

     RDKit          3D

 42 43  0  0  0  0  0  0  0  0999 V2000
  137.5010   71.9580  220.7010 O   0  0  0  0  0  0  0  0  0  0  0  0
  137.3520   72.8590  221.5620 C   0  0  0  0  0  0  0  0  0  0  0  0
  136.1270   73.5960  221.8520 C   0  0  0  0  0  0  0  0  0  0  0  0
  136.2690   74.9710  222.4090 C   0  0  0  0  0  0  0  0  0  0  0  0
  137.2720   75.7340  221.5740 C   0  0  0  0  0  0  0  0  0  0  0  0
  138.5260   75.8460  222.1100 O   0  0  0  0  0  0  0  0  0  0  0  0
  139.2400   76.9440  222.4480 C   0  0  0  0  0  0  0  0  0  0  0  0
  138.7940   78.0750  223.0750 C   0  0  0  0  0  0  0  0  0  0  0  0
  139.6320   79.1450  223.3680 C   0  0  0  0  0  0  0  0  0  0  0  0
  140.9630   79.1190  223.0380 C   0  0  0  0  0  0  0  0  0  0  0  0
  141.9780   80.4870  223.4250 Cl  0  0  0  0  0  0  0  0  0  0  0  0
  141.4360   77.9900  222.4050 C   0  0  0  0  0  0  0  0  0  0  0  0
  140.6010   76.9360  222.1190 C   0  0  0  0  0  0  0  0  0  0  0  0
  141.3040   75.5380  221.3070 Cl  0  0  0  0  0  0  0  0  0  0  0  0
  138.5180   73.1850  222.3310 N   0  0  0  0  0  0  0  0  0  0  0  0
  139.6840   72.4560  222.0270 N   0  0  0  0  0  0  0  0  0  0  0  0
  140.6310   72.2180  222.8480 C   0  0  0  0  0  0  0  0  0  0  0  0
  140.3180   71.4770  224.0650 C   0  0  0  0  0  0  0  0  0  0  0  0
  139.5510   70.3360  223.9520 C   0  0  0  0  0  0  0  0  0  0  0  0
  139.2020   69.5640  225.0600 C   0  0  0  0  0  0  0  0  0  0  0  0
  139.6410   69.9610  226.3070 C   0  0  0  0  0  0  0  0  0  0  0  0
  140.4100   71.1080  226.4100 C   0  0  0  0  0  0  0  0  0  0  0  0
  140.9010   71.5660  227.7410 C   0  0  0  0  0  0  0  0  0  0  0  0
  141.4220   70.4590  228.3930 F   0  0  0  0  0  0  0  0  0  0  0  0
  139.8310   72.0000  228.5290 F   0  0  0  0  0  0  0  0  0  0  0  0
  141.7910   72.6030  227.6300 F   0  0  0  0  0  0  0  0  0  0  0  0
  140.7570   71.8740  225.3110 C   0  0  0  0  0  0  0  0  0  0  0  0
  135.5608   73.6775  220.9124 H   0  0  0  0  0  0  0  0  0  0  0  0
  135.6340   73.0195  222.6486 H   0  0  0  0  0  0  0  0  0  0  0  0
  135.2965   75.4842  222.3790 H   0  0  0  0  0  0  0  0  0  0  0  0
  136.6146   74.9178  223.4519 H   0  0  0  0  0  0  0  0  0  0  0  0
  137.3632   75.2229  220.6042 H   0  0  0  0  0  0  0  0  0  0  0  0
  136.8835   76.7606  221.5018 H   0  0  0  0  0  0  0  0  0  0  0  0
  137.7330   78.1403  223.3579 H   0  0  0  0  0  0  0  0  0  0  0  0
  139.2194   80.0300  223.8745 H   0  0  0  0  0  0  0  0  0  0  0  0
  142.4980   77.9313  222.1243 H   0  0  0  0  0  0  0  0  0  0  0  0
  138.5090   73.9220  223.0780 H   0  0  0  0  0  0  0  0  0  0  0  0
  141.6556   72.5622  222.6438 H   0  0  0  0  0  0  0  0  0  0  0  0
  139.2034   70.0249  222.9558 H   0  0  0  0  0  0  0  0  0  0  0  0
  138.5897   68.6577  224.9425 H   0  0  0  0  0  0  0  0  0  0  0  0
  139.3846   69.3766  227.2030 H   0  0  0  0  0  0  0  0  0  0  0  0
  141.3697   72.7800  225.4285 H   0  0  0  0  0  0  0  0  0  0  0  0
  1  2  2  0
  2  3  1  0
  3  4  1  0
  4  5  1  0
  5  6  1  0
  6  7  1  0
  7  8  2  0
  8  9  1  0
  9 10  2  0
 10 11  1  0
 10 12  1  0
 12 13  2  0
 13 14  1  0
  2 15  1  0
 15 16  1  0
 16 17  2  0
 17 18  1  0
 18 19  2  0
 19 20  1  0
 20 21  2  0
 21 22  1  0
 22 23  1  0
 23 24  1  0
 23 25  1  0
 23 26  1  0
 22 27  2  0
 13  7  1  0
 27 18  1  0
  3 28  1  0
  3 29  1  0
  4 30  1  0
  4 31  1  0
  5 32  1  0
  5 33  1  0
  8 34  1  0
  9 35  1  0
 12 36  1  0
 15 37  1  0
 17 38  1  0
 19 39  1  0
 20 40  1  0
 21 41  1  0
 27 42  1  0
M  END
>  <smiles>  (28) 
O=C(CCCOc1ccc(Cl)cc1Cl)NN=Cc1cccc(C(F)(F)F)c1

>  <score_type>  (28) 
oracle

>  <origin>  (28) 
autodockgpu

>  <m_score__min__energy>  (28) 
-7.4800000000000004

>  <m_primary>  (28) 
energy

>  <rmsd>  (28) 
6.205782069237196

>  <m_score__min__rmsd>  (28) 
6.205782069237196

>  <meeko>  (28) 
{"free_energy": -6.05, "intermolecular_energy": -8.74, "internal_energy": -1.87, "cluster_size": 22, "cluster_id": 1, "rank_in_cluster": 22}

>  <energy>  (28) 
-6.8

>  <cluster_rmsd>  (28) 
1.63

>  <cluster>  (28) 
3

$$$$

     RDKit          3D

 42 43  0  0  0  0  0  0  0  0999 V2000
  139.4530   74.8980  219.9220 O   0  0  0  0  0  0  0  0  0  0  0  0
  139.3010   74.1140  220.8900 C   0  0  0  0  0  0  0  0  0  0  0  0
  139.1120   72.6690  220.8250 C   0  0  0  0  0  0  0  0  0  0  0  0
  140.3000   71.8090  221.0900 C   0  0  0  0  0  0  0  0  0  0  0  0
  140.9700   72.2810  222.3600 C   0  0  0  0  0  0  0  0  0  0  0  0
  140.1850   72.2800  223.4800 O   0  0  0  0  0  0  0  0  0  0  0  0
  140.2790   71.5520  224.6160 C   0  0  0  0  0  0  0  0  0  0  0  0
  141.0360   71.8210  225.7240 C   0  0  0  0  0  0  0  0  0  0  0  0
  141.0490   70.9880  226.8380 C   0  0  0  0  0  0  0  0  0  0  0  0
  140.2960   69.8420  226.8800 C   0  0  0  0  0  0  0  0  0  0  0  0
  140.3450   68.8270  228.3000 Cl  0  0  0  0  0  0  0  0  0  0  0  0
  139.5260   69.5510  225.7750 C   0  0  0  0  0  0  0  0  0  0  0  0
  139.5170   70.3790  224.6780 C   0  0  0  0  0  0  0  0  0  0  0  0
  138.4990   69.9160  223.3150 Cl  0  0  0  0  0  0  0  0  0  0  0  0
  139.3180   74.7210  222.1910 N   0  0  0  0  0  0  0  0  0  0  0  0
  139.5020   76.1170  222.2210 N   0  0  0  0  0  0  0  0  0  0  0  0
  140.6330   76.7020  222.3020 C   0  0  0  0  0  0  0  0  0  0  0  0
  140.6620   78.0810  222.7770 C   0  0  0  0  0  0  0  0  0  0  0  0
  141.8920   78.6650  223.0020 C   0  0  0  0  0  0  0  0  0  0  0  0
  142.0180   79.9780  223.4550 C   0  0  0  0  0  0  0  0  0  0  0  0
  140.8720   80.7120  223.6850 C   0  0  0  0  0  0  0  0  0  0  0  0
  139.6420   80.1170  223.4560 C   0  0  0  0  0  0  0  0  0  0  0  0
  138.3830   80.8790  223.6930 C   0  0  0  0  0  0  0  0  0  0  0  0
  137.3320   80.0870  223.2580 F   0  0  0  0  0  0  0  0  0  0  0  0
  138.3510   82.0230  222.8910 F   0  0  0  0  0  0  0  0  0  0  0  0
  138.2640   81.2770  225.0000 F   0  0  0  0  0  0  0  0  0  0  0  0
  139.5170   78.8140  223.0060 C   0  0  0  0  0  0  0  0  0  0  0  0
  138.3413   72.4036  221.5636 H   0  0  0  0  0  0  0  0  0  0  0  0
  138.8469   72.4670  219.7767 H   0  0  0  0  0  0  0  0  0  0  0  0
  139.9803   70.7630  221.2075 H   0  0  0  0  0  0  0  0  0  0  0  0
  141.0051   71.8763  220.2484 H   0  0  0  0  0  0  0  0  0  0  0  0
  141.8323   71.6254  222.5510 H   0  0  0  0  0  0  0  0  0  0  0  0
  141.2399   73.3327  222.1838 H   0  0  0  0  0  0  0  0  0  0  0  0
  141.6568   72.7290  225.7340 H   0  0  0  0  0  0  0  0  0  0  0  0
  141.6754   71.2534  227.7023 H   0  0  0  0  0  0  0  0  0  0  0  0
  138.9082   68.6409  225.7707 H   0  0  0  0  0  0  0  0  0  0  0  0
  139.2010   74.1610  223.0710 H   0  0  0  0  0  0  0  0  0  0  0  0
  141.5603   76.1811  222.0215 H   0  0  0  0  0  0  0  0  0  0  0  0
  142.8025   78.0758  222.8181 H   0  0  0  0  0  0  0  0  0  0  0  0
  143.0109   80.4198  223.6256 H   0  0  0  0  0  0  0  0  0  0  0  0
  140.9341   81.7501  224.0435 H   0  0  0  0  0  0  0  0  0  0  0  0
  138.5243   78.3723  222.8346 H   0  0  0  0  0  0  0  0  0  0  0  0
  1  2  2  0
  2  3  1  0
  3  4  1  0
  4  5  1  0
  5  6  1  0
  6  7  1  0
  7  8  2  0
  8  9  1  0
  9 10  2  0
 10 11  1  0
 10 12  1  0
 12 13  2  0
 13 14  1  0
  2 15  1  0
 15 16  1  0
 16 17  2  0
 17 18  1  0
 18 19  2  0
 19 20  1  0
 20 21  2  0
 21 22  1  0
 22 23  1  0
 23 24  1  0
 23 25  1  0
 23 26  1  0
 22 27  2  0
 13  7  1  0
 27 18  1  0
  3 28  1  0
  3 29  1  0
  4 30  1  0
  4 31  1  0
  5 32  1  0
  5 33  1  0
  8 34  1  0
  9 35  1  0
 12 36  1  0
 15 37  1  0
 17 38  1  0
 19 39  1  0
 20 40  1  0
 21 41  1  0
 27 42  1  0
M  END
>  <smiles>  (29) 
O=C(CCCOc1ccc(Cl)cc1Cl)NN=Cc1cccc(C(F)(F)F)c1

>  <score_type>  (29) 
oracle

>  <origin>  (29) 
autodockgpu

>  <m_score__min__energy>  (29) 
-7.4800000000000004

>  <m_primary>  (29) 
energy

>  <rmsd>  (29) 
12.173108655151797

>  <m_score__min__rmsd>  (29) 
12.173108655151797

>  <meeko>  (29) 
{"free_energy": -6.7, "intermolecular_energy": -9.38, "internal_energy": -1.61, "cluster_size": 5, "cluster_id": 3, "rank_in_cluster": 4}

>  <energy>  (29) 
-6.7

>  <cluster_rmsd>  (29) 
1.63

>  <cluster>  (29) 
3

$$$$

     RDKit          3D

 42 43  0  0  0  0  0  0  0  0999 V2000
  140.7200   74.5530  221.1490 O   0  0  0  0  0  0  0  0  0  0  0  0
  139.5300   74.4610  221.5370 C   0  0  0  0  0  0  0  0  0  0  0  0
  138.4120   75.3080  221.1350 C   0  0  0  0  0  0  0  0  0  0  0  0
  137.2940   75.4730  222.1060 C   0  0  0  0  0  0  0  0  0  0  0  0
  137.5620   76.6950  222.9560 C   0  0  0  0  0  0  0  0  0  0  0  0
  138.2050   77.7250  222.3260 O   0  0  0  0  0  0  0  0  0  0  0  0
  139.3490   78.3710  222.6480 C   0  0  0  0  0  0  0  0  0  0  0  0
  140.6350   77.9280  222.4940 C   0  0  0  0  0  0  0  0  0  0  0  0
  141.7360   78.6910  222.8670 C   0  0  0  0  0  0  0  0  0  0  0  0
  141.5860   79.9380  223.4160 C   0  0  0  0  0  0  0  0  0  0  0  0
  142.9980   80.8590  223.8710 Cl  0  0  0  0  0  0  0  0  0  0  0  0
  140.3000   80.4050  223.5820 C   0  0  0  0  0  0  0  0  0  0  0  0
  139.2160   79.6460  223.2090 C   0  0  0  0  0  0  0  0  0  0  0  0
  137.6130   80.3350  223.4640 Cl  0  0  0  0  0  0  0  0  0  0  0  0
  139.2590   73.4080  222.4730 N   0  0  0  0  0  0  0  0  0  0  0  0
  140.3590   72.6080  222.8410 N   0  0  0  0  0  0  0  0  0  0  0  0
  140.3200   71.3440  223.0050 C   0  0  0  0  0  0  0  0  0  0  0  0
  140.2840   70.8270  224.3690 C   0  0  0  0  0  0  0  0  0  0  0  0
  139.8440   69.5340  224.5620 C   0  0  0  0  0  0  0  0  0  0  0  0
  139.7750   68.9550  225.8290 C   0  0  0  0  0  0  0  0  0  0  0  0
  140.1600   69.7060  226.9210 C   0  0  0  0  0  0  0  0  0  0  0  0
  140.6000   71.0030  226.7170 C   0  0  0  0  0  0  0  0  0  0  0  0
  141.0230   71.8440  227.8730 C   0  0  0  0  0  0  0  0  0  0  0  0
  141.7750   71.0390  228.7150 F   0  0  0  0  0  0  0  0  0  0  0  0
  139.9090   72.2360  228.6210 F   0  0  0  0  0  0  0  0  0  0  0  0
  141.6800   72.9770  227.4700 F   0  0  0  0  0  0  0  0  0  0  0  0
  140.6680   71.5780  225.4600 C   0  0  0  0  0  0  0  0  0  0  0  0
  138.8158   76.3091  220.9232 H   0  0  0  0  0  0  0  0  0  0  0  0
  137.9631   74.7918  220.2736 H   0  0  0  0  0  0  0  0  0  0  0  0
  136.3473   75.6023  221.5611 H   0  0  0  0  0  0  0  0  0  0  0  0
  137.2208   74.5815  222.7462 H   0  0  0  0  0  0  0  0  0  0  0  0
  136.5951   77.0723  223.3203 H   0  0  0  0  0  0  0  0  0  0  0  0
  138.2400   76.3619  223.7556 H   0  0  0  0  0  0  0  0  0  0  0  0
  140.8036   76.9318  222.0592 H   0  0  0  0  0  0  0  0  0  0  0  0
  142.7478   78.2857  222.7185 H   0  0  0  0  0  0  0  0  0  0  0  0
  140.1383   81.4010  224.0200 H   0  0  0  0  0  0  0  0  0  0  0  0
  138.3000   73.2390  222.8640 H   0  0  0  0  0  0  0  0  0  0  0  0
  140.3137   70.6621  222.1419 H   0  0  0  0  0  0  0  0  0  0  0  0
  139.5376   68.9402  223.6882 H   0  0  0  0  0  0  0  0  0  0  0  0
  139.4210   67.9212  225.9553 H   0  0  0  0  0  0  0  0  0  0  0  0
  140.1181   69.2819  227.9351 H   0  0  0  0  0  0  0  0  0  0  0  0
  141.0209   72.6122  225.3338 H   0  0  0  0  0  0  0  0  0  0  0  0
  1  2  2  0
  2  3  1  0
  3  4  1  0
  4  5  1  0
  5  6  1  0
  6  7  1  0
  7  8  2  0
  8  9  1  0
  9 10  2  0
 10 11  1  0
 10 12  1  0
 12 13  2  0
 13 14  1  0
  2 15  1  0
 15 16  1  0
 16 17  2  0
 17 18  1  0
 18 19  2  0
 19 20  1  0
 20 21  2  0
 21 22  1  0
 22 23  1  0
 23 24  1  0
 23 25  1  0
 23 26  1  0
 22 27  2  0
 13  7  1  0
 27 18  1  0
  3 28  1  0
  3 29  1  0
  4 30  1  0
  4 31  1  0
  5 32  1  0
  5 33  1  0
  8 34  1  0
  9 35  1  0
 12 36  1  0
 15 37  1  0
 17 38  1  0
 19 39  1  0
 20 40  1  0
 21 41  1  0
 27 42  1  0
M  END
>  <smiles>  (30) 
O=C(CCCOc1ccc(Cl)cc1Cl)NN=Cc1cccc(C(F)(F)F)c1

>  <score_type>  (30) 
oracle

>  <origin>  (30) 
autodockgpu

>  <m_score__min__energy>  (30) 
-7.4800000000000004

>  <m_primary>  (30) 
energy

>  <rmsd>  (30) 
5.988723982543301

>  <m_score__min__rmsd>  (30) 
5.988723982543301

>  <meeko>  (30) 
{"free_energy": -7.3, "intermolecular_energy": -9.98, "internal_energy": -0.97, "cluster_size": 22, "cluster_id": 1, "rank_in_cluster": 6}

>  <energy>  (30) 
-6.66

>  <cluster_rmsd>  (30) 
1.65

>  <cluster>  (30) 
3

$$$$

     RDKit          3D

 42 43  0  0  0  0  0  0  0  0999 V2000
  137.9230   70.7040  221.5670 O   0  0  0  0  0  0  0  0  0  0  0  0
  137.9380   71.9480  221.7270 C   0  0  0  0  0  0  0  0  0  0  0  0
  137.1320   72.9310  221.0120 C   0  0  0  0  0  0  0  0  0  0  0  0
  136.1140   73.6850  221.7970 C   0  0  0  0  0  0  0  0  0  0  0  0
  136.7920   74.8430  222.4920 C   0  0  0  0  0  0  0  0  0  0  0  0
  138.0250   75.1850  222.0080 O   0  0  0  0  0  0  0  0  0  0  0  0
  138.8050   76.2570  222.2760 C   0  0  0  0  0  0  0  0  0  0  0  0
  138.4130   77.4880  222.7270 C   0  0  0  0  0  0  0  0  0  0  0  0
  139.3180   78.5180  222.9640 C   0  0  0  0  0  0  0  0  0  0  0  0
  140.6620   78.3480  222.7540 C   0  0  0  0  0  0  0  0  0  0  0  0
  141.7600   79.6700  223.0660 Cl  0  0  0  0  0  0  0  0  0  0  0  0
  141.0810   77.1170  222.3000 C   0  0  0  0  0  0  0  0  0  0  0  0
  140.1810   76.1030  222.0680 C   0  0  0  0  0  0  0  0  0  0  0  0
  140.8180   74.5650  221.4860 Cl  0  0  0  0  0  0  0  0  0  0  0  0
  138.8500   72.4370  222.7220 N   0  0  0  0  0  0  0  0  0  0  0  0
  139.6130   71.4630  223.3940 N   0  0  0  0  0  0  0  0  0  0  0  0
  140.6910   71.6960  224.0360 C   0  0  0  0  0  0  0  0  0  0  0  0
  140.7750   71.2540  225.4250 C   0  0  0  0  0  0  0  0  0  0  0  0
  141.0750   72.1940  226.3880 C   0  0  0  0  0  0  0  0  0  0  0  0
  141.1770   71.8640  227.7400 C   0  0  0  0  0  0  0  0  0  0  0  0
  140.9710   70.5530  228.1190 C   0  0  0  0  0  0  0  0  0  0  0  0
  140.6690   69.6170  227.1430 C   0  0  0  0  0  0  0  0  0  0  0  0
  140.4400   68.1910  227.5150 C   0  0  0  0  0  0  0  0  0  0  0  0
  141.4090   67.4360  226.8730 F   0  0  0  0  0  0  0  0  0  0  0  0
  139.2160   67.7490  227.0060 F   0  0  0  0  0  0  0  0  0  0  0  0
  140.4200   68.0130  228.8740 F   0  0  0  0  0  0  0  0  0  0  0  0
  140.5690   69.9430  225.8020 C   0  0  0  0  0  0  0  0  0  0  0  0
  137.8218   73.6670  220.5733 H   0  0  0  0  0  0  0  0  0  0  0  0
  136.5496   72.3434  220.2871 H   0  0  0  0  0  0  0  0  0  0  0  0
  135.3338   74.0653  221.1212 H   0  0  0  0  0  0  0  0  0  0  0  0
  135.6515   73.0215  222.5426 H   0  0  0  0  0  0  0  0  0  0  0  0
  136.1373   75.7222  222.4009 H   0  0  0  0  0  0  0  0  0  0  0  0
  136.9570   74.5156  223.5291 H   0  0  0  0  0  0  0  0  0  0  0  0
  137.3435   77.6699  222.9088 H   0  0  0  0  0  0  0  0  0  0  0  0
  138.9476   79.4880  223.3271 H   0  0  0  0  0  0  0  0  0  0  0  0
  142.1520   76.9420  222.1202 H   0  0  0  0  0  0  0  0  0  0  0  0
  138.9460   73.4590  222.9390 H   0  0  0  0  0  0  0  0  0  0  0  0
  141.5336   72.2155  223.5562 H   0  0  0  0  0  0  0  0  0  0  0  0
  141.2392   73.2374  226.0807 H   0  0  0  0  0  0  0  0  0  0  0  0
  141.4168   72.6334  228.4887 H   0  0  0  0  0  0  0  0  0  0  0  0
  141.0451   70.2568  229.1758 H   0  0  0  0  0  0  0  0  0  0  0  0
  140.3305   69.1737  225.0529 H   0  0  0  0  0  0  0  0  0  0  0  0
  1  2  2  0
  2  3  1  0
  3  4  1  0
  4  5  1  0
  5  6  1  0
  6  7  1  0
  7  8  2  0
  8  9  1  0
  9 10  2  0
 10 11  1  0
 10 12  1  0
 12 13  2  0
 13 14  1  0
  2 15  1  0
 15 16  1  0
 16 17  2  0
 17 18  1  0
 18 19  2  0
 19 20  1  0
 20 21  2  0
 21 22  1  0
 22 23  1  0
 23 24  1  0
 23 25  1  0
 23 26  1  0
 22 27  2  0
 13  7  1  0
 27 18  1  0
  3 28  1  0
  3 29  1  0
  4 30  1  0
  4 31  1  0
  5 32  1  0
  5 33  1  0
  8 34  1  0
  9 35  1  0
 12 36  1  0
 15 37  1  0
 17 38  1  0
 19 39  1  0
 20 40  1  0
 21 41  1  0
 27 42  1  0
M  END
>  <smiles>  (31) 
O=C(CCCOc1ccc(Cl)cc1Cl)NN=Cc1cccc(C(F)(F)F)c1

>  <score_type>  (31) 
oracle

>  <origin>  (31) 
autodockgpu

>  <m_score__min__energy>  (31) 
-7.4800000000000004

>  <m_primary>  (31) 
energy

>  <rmsd>  (31) 
6.98649458532101

>  <m_score__min__rmsd>  (31) 
6.98649458532101

>  <meeko>  (31) 
{"free_energy": -6.43, "intermolecular_energy": -9.12, "internal_energy": -1.85, "cluster_size": 7, "cluster_id": 5, "rank_in_cluster": 1}

>  <energy>  (31) 
-6.65

>  <cluster_rmsd>  (31) 
0.0

>  <cluster>  (31) 
4

$$$$

     RDKit          3D

 42 43  0  0  0  0  0  0  0  0999 V2000
  139.7870   74.9220  222.2450 O   0  0  0  0  0  0  0  0  0  0  0  0
  140.7000   74.3710  221.5830 C   0  0  0  0  0  0  0  0  0  0  0  0
  141.4110   74.9310  220.4390 C   0  0  0  0  0  0  0  0  0  0  0  0
  140.9980   76.2840  219.9700 C   0  0  0  0  0  0  0  0  0  0  0  0
  141.6940   77.3270  220.8140 C   0  0  0  0  0  0  0  0  0  0  0  0
  141.2620   77.4270  222.1080 O   0  0  0  0  0  0  0  0  0  0  0  0
  140.3600   78.2640  222.6690 C   0  0  0  0  0  0  0  0  0  0  0  0
  139.0050   78.0950  222.7670 C   0  0  0  0  0  0  0  0  0  0  0  0
  138.1780   79.0360  223.3700 C   0  0  0  0  0  0  0  0  0  0  0  0
  138.6850   80.1950  223.9010 C   0  0  0  0  0  0  0  0  0  0  0  0
  137.6080   81.3480  224.6490 Cl  0  0  0  0  0  0  0  0  0  0  0  0
  140.0470   80.3870  223.8140 C   0  0  0  0  0  0  0  0  0  0  0  0
  140.8580   79.4520  223.2180 C   0  0  0  0  0  0  0  0  0  0  0  0
  142.5870   79.7940  223.1560 Cl  0  0  0  0  0  0  0  0  0  0  0  0
  141.0700   73.0510  222.0100 N   0  0  0  0  0  0  0  0  0  0  0  0
  140.3650   72.5390  223.1170 N   0  0  0  0  0  0  0  0  0  0  0  0
  140.2850   71.3030  223.4220 C   0  0  0  0  0  0  0  0  0  0  0  0
  140.4650   70.9250  224.8190 C   0  0  0  0  0  0  0  0  0  0  0  0
  140.9000   71.8910  225.7030 C   0  0  0  0  0  0  0  0  0  0  0  0
  141.1000   71.6220  227.0570 C   0  0  0  0  0  0  0  0  0  0  0  0
  140.8540   70.3460  227.5210 C   0  0  0  0  0  0  0  0  0  0  0  0
  140.4170   69.3830  226.6260 C   0  0  0  0  0  0  0  0  0  0  0  0
  140.1410   67.9940  227.0920 C   0  0  0  0  0  0  0  0  0  0  0  0
  138.9240   67.6100  226.5500 F   0  0  0  0  0  0  0  0  0  0  0  0
  139.9590   67.9750  228.4780 F   0  0  0  0  0  0  0  0  0  0  0  0
  141.1680   67.1380  226.7900 F   0  0  0  0  0  0  0  0  0  0  0  0
  140.2180   69.6490  225.2830 C   0  0  0  0  0  0  0  0  0  0  0  0
  142.4764   74.9858  220.7073 H   0  0  0  0  0  0  0  0  0  0  0  0
  141.1718   74.2581  219.6023 H   0  0  0  0  0  0  0  0  0  0  0  0
  141.2826   76.4122  218.9152 H   0  0  0  0  0  0  0  0  0  0  0  0
  139.9076   76.3948  220.0639 H   0  0  0  0  0  0  0  0  0  0  0  0
  142.7669   77.0852  220.8335 H   0  0  0  0  0  0  0  0  0  0  0  0
  141.4637   78.2950  220.3451 H   0  0  0  0  0  0  0  0  0  0  0  0
  138.5539   77.1810  222.3534 H   0  0  0  0  0  0  0  0  0  0  0  0
  137.0955   78.8475  223.4224 H   0  0  0  0  0  0  0  0  0  0  0  0
  140.4918   81.3037  224.2285 H   0  0  0  0  0  0  0  0  0  0  0  0
  141.8200   72.4970  221.5300 H   0  0  0  0  0  0  0  0  0  0  0  0
  140.0857   70.5429  222.6522 H   0  0  0  0  0  0  0  0  0  0  0  0
  141.0954   72.9064  225.3277 H   0  0  0  0  0  0  0  0  0  0  0  0
  141.4467   72.4108  227.7408 H   0  0  0  0  0  0  0  0  0  0  0  0
  141.0022   70.0979  228.5824 H   0  0  0  0  0  0  0  0  0  0  0  0
  139.8703   68.8603  224.5996 H   0  0  0  0  0  0  0  0  0  0  0  0
  1  2  2  0
  2  3  1  0
  3  4  1  0
  4  5  1  0
  5  6  1  0
  6  7  1  0
  7  8  2  0
  8  9  1  0
  9 10  2  0
 10 11  1  0
 10 12  1  0
 12 13  2  0
 13 14  1  0
  2 15  1  0
 15 16  1  0
 16 17  2  0
 17 18  1  0
 18 19  2  0
 19 20  1  0
 20 21  2  0
 21 22  1  0
 22 23  1  0
 23 24  1  0
 23 25  1  0
 23 26  1  0
 22 27  2  0
 13  7  1  0
 27 18  1  0
  3 28  1  0
  3 29  1  0
  4 30  1  0
  4 31  1  0
  5 32  1  0
  5 33  1  0
  8 34  1  0
  9 35  1  0
 12 36  1  0
 15 37  1  0
 17 38  1  0
 19 39  1  0
 20 40  1  0
 21 41  1  0
 27 42  1  0
M  END
>  <smiles>  (32) 
O=C(CCCOc1ccc(Cl)cc1Cl)NN=Cc1cccc(C(F)(F)F)c1

>  <score_type>  (32) 
oracle

>  <origin>  (32) 
autodockgpu

>  <m_score__min__energy>  (32) 
-7.4800000000000004

>  <m_primary>  (32) 
energy

>  <rmsd>  (32) 
5.688359104916679

>  <m_score__min__rmsd>  (32) 
5.688359104916679

>  <meeko>  (32) 
{"free_energy": -7.15, "intermolecular_energy": -9.83, "internal_energy": -0.91, "cluster_size": 3, "cluster_id": 2, "rank_in_cluster": 2}

>  <energy>  (32) 
-6.42

>  <cluster_rmsd>  (32) 
1.84

>  <cluster>  (32) 
4

$$$$

     RDKit          3D

 42 43  0  0  0  0  0  0  0  0999 V2000
  140.3200   73.9700  222.0450 O   0  0  0  0  0  0  0  0  0  0  0  0
  139.1240   73.6100  221.9210 C   0  0  0  0  0  0  0  0  0  0  0  0
  138.0670   74.3210  221.2090 C   0  0  0  0  0  0  0  0  0  0  0  0
  137.1370   75.1560  222.0190 C   0  0  0  0  0  0  0  0  0  0  0  0
  137.9480   76.1200  222.8550 C   0  0  0  0  0  0  0  0  0  0  0  0
  138.6740   77.0450  222.1560 O   0  0  0  0  0  0  0  0  0  0  0  0
  139.5660   77.9660  222.5860 C   0  0  0  0  0  0  0  0  0  0  0  0
  139.3540   78.9890  223.4710 C   0  0  0  0  0  0  0  0  0  0  0  0
  140.3590   79.8790  223.8350 C   0  0  0  0  0  0  0  0  0  0  0  0
  141.6260   79.7750  223.3190 C   0  0  0  0  0  0  0  0  0  0  0  0
  142.8550   80.9160  223.8060 Cl  0  0  0  0  0  0  0  0  0  0  0  0
  141.8620   78.7520  222.4260 C   0  0  0  0  0  0  0  0  0  0  0  0
  140.8650   77.8760  222.0710 C   0  0  0  0  0  0  0  0  0  0  0  0
  141.2700   76.6030  220.9200 Cl  0  0  0  0  0  0  0  0  0  0  0  0
  138.7780   72.3680  222.5510 N   0  0  0  0  0  0  0  0  0  0  0  0
  139.8210   71.7070  223.2300 N   0  0  0  0  0  0  0  0  0  0  0  0
  139.7890   70.4890  223.6070 C   0  0  0  0  0  0  0  0  0  0  0  0
  140.0380   70.1960  225.0140 C   0  0  0  0  0  0  0  0  0  0  0  0
  139.9530   68.8830  225.4300 C   0  0  0  0  0  0  0  0  0  0  0  0
  140.1750   68.5090  226.7550 C   0  0  0  0  0  0  0  0  0  0  0  0
  140.4880   69.4880  227.6760 C   0  0  0  0  0  0  0  0  0  0  0  0
  140.5720   70.8030  227.2480 C   0  0  0  0  0  0  0  0  0  0  0  0
  140.9090   71.8870  228.2150 C   0  0  0  0  0  0  0  0  0  0  0  0
  141.4530   72.9340  227.4880 F   0  0  0  0  0  0  0  0  0  0  0  0
  141.9190   71.4650  229.0830 F   0  0  0  0  0  0  0  0  0  0  0  0
  139.8260   72.2520  228.9730 F   0  0  0  0  0  0  0  0  0  0  0  0
  140.3520   71.1750  225.9340 C   0  0  0  0  0  0  0  0  0  0  0  0
  138.5507   74.9828  220.4754 H   0  0  0  0  0  0  0  0  0  0  0  0
  137.4343   73.5294  220.7811 H   0  0  0  0  0  0  0  0  0  0  0  0
  136.4684   75.7186  221.3508 H   0  0  0  0  0  0  0  0  0  0  0  0
  136.5317   74.5120  222.6739 H   0  0  0  0  0  0  0  0  0  0  0  0
  137.2541   76.6626  223.5139 H   0  0  0  0  0  0  0  0  0  0  0  0
  138.6843   75.5047  223.3928 H   0  0  0  0  0  0  0  0  0  0  0  0
  138.3528   79.1114  223.9099 H   0  0  0  0  0  0  0  0  0  0  0  0
  140.1333   80.6827  224.5513 H   0  0  0  0  0  0  0  0  0  0  0  0
  142.8652   78.6350  221.9903 H   0  0  0  0  0  0  0  0  0  0  0  0
  137.8080   71.9720  222.5120 H   0  0  0  0  0  0  0  0  0  0  0  0
  139.5793   69.6812  222.8904 H   0  0  0  0  0  0  0  0  0  0  0  0
  139.7020   68.1063  224.6926 H   0  0  0  0  0  0  0  0  0  0  0  0
  140.1021   67.4546  227.0600 H   0  0  0  0  0  0  0  0  0  0  0  0
  140.6674   69.2291  228.7299 H   0  0  0  0  0  0  0  0  0  0  0  0
  140.4259   72.2293  225.6290 H   0  0  0  0  0  0  0  0  0  0  0  0
  1  2  2  0
  2  3  1  0
  3  4  1  0
  4  5  1  0
  5  6  1  0
  6  7  1  0
  7  8  2  0
  8  9  1  0
  9 10  2  0
 10 11  1  0
 10 12  1  0
 12 13  2  0
 13 14  1  0
  2 15  1  0
 15 16  1  0
 16 17  2  0
 17 18  1  0
 18 19  2  0
 19 20  1  0
 20 21  2  0
 21 22  1  0
 22 23  1  0
 23 24  1  0
 23 25  1  0
 23 26  1  0
 22 27  2  0
 13  7  1  0
 27 18  1  0
  3 28  1  0
  3 29  1  0
  4 30  1  0
  4 31  1  0
  5 32  1  0
  5 33  1  0
  8 34  1  0
  9 35  1  0
 12 36  1  0
 15 37  1  0
 17 38  1  0
 19 39  1  0
 20 40  1  0
 21 41  1  0
 27 42  1  0
M  END
>  <smiles>  (33) 
O=C(CCCOc1ccc(Cl)cc1Cl)NN=Cc1cccc(C(F)(F)F)c1

>  <score_type>  (33) 
oracle

>  <origin>  (33) 
autodockgpu

>  <m_score__min__energy>  (33) 
-7.4800000000000004

>  <m_primary>  (33) 
energy

>  <rmsd>  (33) 
5.997574073972928

>  <m_score__min__rmsd>  (33) 
5.997574073972928

>  <meeko>  (33) 
{"free_energy": -7.31, "intermolecular_energy": -9.99, "internal_energy": -0.99, "cluster_size": 22, "cluster_id": 1, "rank_in_cluster": 5}

>  <energy>  (33) 
-6.43

>  <cluster_rmsd>  (33) 
0.0

>  <cluster>  (33) 
5

$$$$

     RDKit          3D

 42 43  0  0  0  0  0  0  0  0999 V2000
  140.3520   74.7100  220.1960 O   0  0  0  0  0  0  0  0  0  0  0  0
  139.7180   74.2430  221.1720 C   0  0  0  0  0  0  0  0  0  0  0  0
  139.0980   72.9260  221.2630 C   0  0  0  0  0  0  0  0  0  0  0  0
  139.9760   71.7760  221.6210 C   0  0  0  0  0  0  0  0  0  0  0  0
  140.6620   72.0770  222.9340 C   0  0  0  0  0  0  0  0  0  0  0  0
  139.9170   71.8510  224.0580 O   0  0  0  0  0  0  0  0  0  0  0  0
  140.1950   71.1220  225.1630 C   0  0  0  0  0  0  0  0  0  0  0  0
  140.8490   71.5290  226.2940 C   0  0  0  0  0  0  0  0  0  0  0  0
  141.0770   70.6770  227.3700 C   0  0  0  0  0  0  0  0  0  0  0  0
  140.6550   69.3720  227.3480 C   0  0  0  0  0  0  0  0  0  0  0  0
  140.9650   68.3400  228.7230 Cl  0  0  0  0  0  0  0  0  0  0  0  0
  139.9950   68.9400  226.2190 C   0  0  0  0  0  0  0  0  0  0  0  0
  139.7720   69.7870  225.1600 C   0  0  0  0  0  0  0  0  0  0  0  0
  138.9190   69.1360  223.7610 Cl  0  0  0  0  0  0  0  0  0  0  0  0
  139.6020   75.1090  222.3110 N   0  0  0  0  0  0  0  0  0  0  0  0
  140.2120   76.3730  222.1920 N   0  0  0  0  0  0  0  0  0  0  0  0
  139.6510   77.4830  222.4750 C   0  0  0  0  0  0  0  0  0  0  0  0
  140.4970   78.6600  222.6400 C   0  0  0  0  0  0  0  0  0  0  0  0
  141.4610   78.6350  223.6260 C   0  0  0  0  0  0  0  0  0  0  0  0
  142.3150   79.7140  223.8570 C   0  0  0  0  0  0  0  0  0  0  0  0
  142.1860   80.8400  223.0690 C   0  0  0  0  0  0  0  0  0  0  0  0
  141.2150   80.8550  222.0810 C   0  0  0  0  0  0  0  0  0  0  0  0
  141.0470   82.0540  221.2110 C   0  0  0  0  0  0  0  0  0  0  0  0
  141.4480   83.1580  221.9480 F   0  0  0  0  0  0  0  0  0  0  0  0
  139.6940   82.2610  220.9270 F   0  0  0  0  0  0  0  0  0  0  0  0
  141.7120   81.9210  220.0200 F   0  0  0  0  0  0  0  0  0  0  0  0
  140.3680   79.7850  221.8520 C   0  0  0  0  0  0  0  0  0  0  0  0
  138.3067   72.9862  222.0247 H   0  0  0  0  0  0  0  0  0  0  0  0
  138.7521   72.7076  220.2419 H   0  0  0  0  0  0  0  0  0  0  0  0
  139.3686   70.8645  221.7217 H   0  0  0  0  0  0  0  0  0  0  0  0
  140.7281   71.6206  220.8334 H   0  0  0  0  0  0  0  0  0  0  0  0
  141.5643   71.4509  222.9951 H   0  0  0  0  0  0  0  0  0  0  0  0
  140.8684   73.1574  222.9235 H   0  0  0  0  0  0  0  0  0  0  0  0
  141.2074   72.5672  226.3546 H   0  0  0  0  0  0  0  0  0  0  0  0
  141.6062   71.0575  228.2561 H   0  0  0  0  0  0  0  0  0  0  0  0
  139.6406   67.9001  226.1640 H   0  0  0  0  0  0  0  0  0  0  0  0
  139.0930   74.8220  223.1830 H   0  0  0  0  0  0  0  0  0  0  0  0
  138.5593   77.5509  222.5915 H   0  0  0  0  0  0  0  0  0  0  0  0
  141.5598   77.7350  224.2507 H   0  0  0  0  0  0  0  0  0  0  0  0
  143.0753   79.6683  224.6506 H   0  0  0  0  0  0  0  0  0  0  0  0
  142.8421   81.7094  223.2227 H   0  0  0  0  0  0  0  0  0  0  0  0
  139.6078   79.8305  221.0583 H   0  0  0  0  0  0  0  0  0  0  0  0
  1  2  2  0
  2  3  1  0
  3  4  1  0
  4  5  1  0
  5  6  1  0
  6  7  1  0
  7  8  2  0
  8  9  1  0
  9 10  2  0
 10 11  1  0
 10 12  1  0
 12 13  2  0
 13 14  1  0
  2 15  1  0
 15 16  1  0
 16 17  2  0
 17 18  1  0
 18 19  2  0
 19 20  1  0
 20 21  2  0
 21 22  1  0
 22 23  1  0
 23 24  1  0
 23 25  1  0
 23 26  1  0
 22 27  2  0
 13  7  1  0
 27 18  1  0
  3 28  1  0
  3 29  1  0
  4 30  1  0
  4 31  1  0
  5 32  1  0
  5 33  1  0
  8 34  1  0
  9 35  1  0
 12 36  1  0
 15 37  1  0
 17 38  1  0
 19 39  1  0
 20 40  1  0
 21 41  1  0
 27 42  1  0
M  END
>  <smiles>  (34) 
O=C(CCCOc1ccc(Cl)cc1Cl)NN=Cc1cccc(C(F)(F)F)c1

>  <score_type>  (34) 
oracle

>  <origin>  (34) 
autodockgpu

>  <m_score__min__energy>  (34) 
-7.4800000000000004

>  <m_primary>  (34) 
energy

>  <rmsd>  (34) 
12.659510787115742

>  <m_score__min__rmsd>  (34) 
12.659510787115742

>  <meeko>  (34) 
{"free_energy": -6.95, "intermolecular_energy": -9.63, "internal_energy": -0.88, "cluster_size": 5, "cluster_id": 3, "rank_in_cluster": 1}

>  <energy>  (34) 
-6.33

>  <cluster_rmsd>  (34) 
0.77

>  <cluster>  (34) 
5

$$$$

     RDKit          3D

 42 43  0  0  0  0  0  0  0  0999 V2000
  137.3320   70.0650  223.0860 O   0  0  0  0  0  0  0  0  0  0  0  0
  137.2790   71.3140  222.9890 C   0  0  0  0  0  0  0  0  0  0  0  0
  136.0840   72.1260  222.7920 C   0  0  0  0  0  0  0  0  0  0  0  0
  136.1910   73.5850  223.0750 C   0  0  0  0  0  0  0  0  0  0  0  0
  136.6510   74.2930  221.8220 C   0  0  0  0  0  0  0  0  0  0  0  0
  137.9990   74.4990  221.7190 O   0  0  0  0  0  0  0  0  0  0  0  0
  138.7460   75.5860  222.0220 C   0  0  0  0  0  0  0  0  0  0  0  0
  138.3080   76.8210  222.4160 C   0  0  0  0  0  0  0  0  0  0  0  0
  139.1810   77.8660  222.7000 C   0  0  0  0  0  0  0  0  0  0  0  0
  140.5390   77.7080  222.5970 C   0  0  0  0  0  0  0  0  0  0  0  0
  141.5970   79.0480  222.9640 Cl  0  0  0  0  0  0  0  0  0  0  0  0
  141.0040   76.4720  222.2020 C   0  0  0  0  0  0  0  0  0  0  0  0
  140.1350   75.4440  221.9240 C   0  0  0  0  0  0  0  0  0  0  0  0
  140.8300   73.9030  221.4240 Cl  0  0  0  0  0  0  0  0  0  0  0  0
  138.5370   72.0000  223.0840 N   0  0  0  0  0  0  0  0  0  0  0  0
  139.6720   71.1890  223.2740 N   0  0  0  0  0  0  0  0  0  0  0  0
  140.7000   71.5200  223.9520 C   0  0  0  0  0  0  0  0  0  0  0  0
  140.7500   71.1370  225.3600 C   0  0  0  0  0  0  0  0  0  0  0  0
  141.0380   72.1160  226.2890 C   0  0  0  0  0  0  0  0  0  0  0  0
  141.1070   71.8440  227.6550 C   0  0  0  0  0  0  0  0  0  0  0  0
  140.8800   70.5520  228.0850 C   0  0  0  0  0  0  0  0  0  0  0  0
  140.5920   69.5770  227.1440 C   0  0  0  0  0  0  0  0  0  0  0  0
  140.3410   68.1710  227.5720 C   0  0  0  0  0  0  0  0  0  0  0  0
  140.3150   68.1600  228.9580 F   0  0  0  0  0  0  0  0  0  0  0  0
  141.4160   67.3550  227.2080 F   0  0  0  0  0  0  0  0  0  0  0  0
  139.2070   67.6560  227.0000 F   0  0  0  0  0  0  0  0  0  0  0  0
  140.5230   69.8460  225.7890 C   0  0  0  0  0  0  0  0  0  0  0  0
  135.7798   72.0154  221.7407 H   0  0  0  0  0  0  0  0  0  0  0  0
  135.3628   71.7485  223.5319 H   0  0  0  0  0  0  0  0  0  0  0  0
  135.2089   73.9751  223.3804 H   0  0  0  0  0  0  0  0  0  0  0  0
  136.9135   73.7557  223.8867 H   0  0  0  0  0  0  0  0  0  0  0  0
  136.3340   73.6909  220.9577 H   0  0  0  0  0  0  0  0  0  0  0  0
  136.1963   75.2940  221.8587 H   0  0  0  0  0  0  0  0  0  0  0  0
  137.2259   76.9938  222.5117 H   0  0  0  0  0  0  0  0  0  0  0  0
  138.7737   78.8385  223.0135 H   0  0  0  0  0  0  0  0  0  0  0  0
  142.0873   76.3058  222.1078 H   0  0  0  0  0  0  0  0  0  0  0  0
  138.6110   73.0450  223.0160 H   0  0  0  0  0  0  0  0  0  0  0  0
  141.5265   72.0788  223.4887 H   0  0  0  0  0  0  0  0  0  0  0  0
  141.2189   73.1437  225.9409 H   0  0  0  0  0  0  0  0  0  0  0  0
  141.3376   72.6428  228.3753 H   0  0  0  0  0  0  0  0  0  0  0  0
  140.9270   70.3013  229.1550 H   0  0  0  0  0  0  0  0  0  0  0  0
  140.2920   69.0473  225.0688 H   0  0  0  0  0  0  0  0  0  0  0  0
  1  2  2  0
  2  3  1  0
  3  4  1  0
  4  5  1  0
  5  6  1  0
  6  7  1  0
  7  8  2  0
  8  9  1  0
  9 10  2  0
 10 11  1  0
 10 12  1  0
 12 13  2  0
 13 14  1  0
  2 15  1  0
 15 16  1  0
 16 17  2  0
 17 18  1  0
 18 19  2  0
 19 20  1  0
 20 21  2  0
 21 22  1  0
 22 23  1  0
 23 24  1  0
 23 25  1  0
 23 26  1  0
 22 27  2  0
 13  7  1  0
 27 18  1  0
  3 28  1  0
  3 29  1  0
  4 30  1  0
  4 31  1  0
  5 32  1  0
  5 33  1  0
  8 34  1  0
  9 35  1  0
 12 36  1  0
 15 37  1  0
 17 38  1  0
 19 39  1  0
 20 40  1  0
 21 41  1  0
 27 42  1  0
M  END
>  <smiles>  (35) 
O=C(CCCOc1ccc(Cl)cc1Cl)NN=Cc1cccc(C(F)(F)F)c1

>  <score_type>  (35) 
oracle

>  <origin>  (35) 
autodockgpu

>  <m_score__min__energy>  (35) 
-7.4800000000000004

>  <m_primary>  (35) 
energy

>  <rmsd>  (35) 
7.392217395188944

>  <m_score__min__rmsd>  (35) 
7.392217395188944

>  <meeko>  (35) 
{"free_energy": -6.33, "intermolecular_energy": -9.02, "internal_energy": -2.03, "cluster_size": 7, "cluster_id": 5, "rank_in_cluster": 2}

>  <energy>  (35) 
-6.22

>  <cluster_rmsd>  (35) 
0.63

>  <cluster>  (35) 
5

$$$$

     RDKit          3D

 42 43  0  0  0  0  0  0  0  0999 V2000
  139.6180   72.8150  220.2170 O   0  0  0  0  0  0  0  0  0  0  0  0
  138.9020   73.5180  220.9710 C   0  0  0  0  0  0  0  0  0  0  0  0
  137.6870   74.2370  220.6030 C   0  0  0  0  0  0  0  0  0  0  0  0
  136.7570   74.6200  221.7020 C   0  0  0  0  0  0  0  0  0  0  0  0
  137.2640   75.8880  222.3510 C   0  0  0  0  0  0  0  0  0  0  0  0
  138.5820   76.1800  222.1300 O   0  0  0  0  0  0  0  0  0  0  0  0
  139.3010   77.2790  222.4520 C   0  0  0  0  0  0  0  0  0  0  0  0
  138.8720   78.4000  223.1100 C   0  0  0  0  0  0  0  0  0  0  0  0
  139.7140   79.4730  223.3820 C   0  0  0  0  0  0  0  0  0  0  0  0
  141.0310   79.4600  222.9990 C   0  0  0  0  0  0  0  0  0  0  0  0
  142.0510   80.8310  223.3630 Cl  0  0  0  0  0  0  0  0  0  0  0  0
  141.4860   78.3420  222.3360 C   0  0  0  0  0  0  0  0  0  0  0  0
  140.6480   77.2850  222.0710 C   0  0  0  0  0  0  0  0  0  0  0  0
  141.3280   75.9010  221.2140 Cl  0  0  0  0  0  0  0  0  0  0  0  0
  139.3400   73.6140  222.3340 N   0  0  0  0  0  0  0  0  0  0  0  0
  140.5160   72.9090  222.6580 N   0  0  0  0  0  0  0  0  0  0  0  0
  140.5840   71.6480  222.8360 C   0  0  0  0  0  0  0  0  0  0  0  0
  140.2600   71.1200  224.1570 C   0  0  0  0  0  0  0  0  0  0  0  0
  139.4690   69.9920  224.2290 C   0  0  0  0  0  0  0  0  0  0  0  0
  139.1070   69.4160  225.4480 C   0  0  0  0  0  0  0  0  0  0  0  0
  139.5580   69.9990  226.6150 C   0  0  0  0  0  0  0  0  0  0  0  0
  140.3510   71.1320  226.5310 C   0  0  0  0  0  0  0  0  0  0  0  0
  140.8560   71.7890  227.7710 C   0  0  0  0  0  0  0  0  0  0  0  0
  141.7750   72.7510  227.3840 F   0  0  0  0  0  0  0  0  0  0  0  0
  141.5720   70.8730  228.5470 F   0  0  0  0  0  0  0  0  0  0  0  0
  139.8350   72.2850  228.5390 F   0  0  0  0  0  0  0  0  0  0  0  0
  140.7100   71.7030  225.3230 C   0  0  0  0  0  0  0  0  0  0  0  0
  137.9930   75.1620  220.0924 H   0  0  0  0  0  0  0  0  0  0  0  0
  137.1162   73.5271  219.9863 H   0  0  0  0  0  0  0  0  0  0  0  0
  135.7509   74.7917  221.2917 H   0  0  0  0  0  0  0  0  0  0  0  0
  136.7078   73.8129  222.4477 H   0  0  0  0  0  0  0  0  0  0  0  0
  136.6632   76.7268  221.9696 H   0  0  0  0  0  0  0  0  0  0  0  0
  137.1692   75.7292  223.4353 H   0  0  0  0  0  0  0  0  0  0  0  0
  137.8227   78.4542  223.4356 H   0  0  0  0  0  0  0  0  0  0  0  0
  139.3160   80.3492  223.9147 H   0  0  0  0  0  0  0  0  0  0  0  0
  142.5365   78.2940  222.0134 H   0  0  0  0  0  0  0  0  0  0  0  0
  138.8190   74.1750  223.0520 H   0  0  0  0  0  0  0  0  0  0  0  0
  140.8789   70.9767  222.0160 H   0  0  0  0  0  0  0  0  0  0  0  0
  139.1121   69.5317  223.2959 H   0  0  0  0  0  0  0  0  0  0  0  0
  138.4753   68.5160  225.4779 H   0  0  0  0  0  0  0  0  0  0  0  0
  139.2928   69.5720  227.5935 H   0  0  0  0  0  0  0  0  0  0  0  0
  141.3413   72.6033  225.2932 H   0  0  0  0  0  0  0  0  0  0  0  0
  1  2  2  0
  2  3  1  0
  3  4  1  0
  4  5  1  0
  5  6  1  0
  6  7  1  0
  7  8  2  0
  8  9  1  0
  9 10  2  0
 10 11  1  0
 10 12  1  0
 12 13  2  0
 13 14  1  0
  2 15  1  0
 15 16  1  0
 16 17  2  0
 17 18  1  0
 18 19  2  0
 19 20  1  0
 20 21  2  0
 21 22  1  0
 22 23  1  0
 23 24  1  0
 23 25  1  0
 23 26  1  0
 22 27  2  0
 13  7  1  0
 27 18  1  0
  3 28  1  0
  3 29  1  0
  4 30  1  0
  4 31  1  0
  5 32  1  0
  5 33  1  0
  8 34  1  0
  9 35  1  0
 12 36  1  0
 15 37  1  0
 17 38  1  0
 19 39  1  0
 20 40  1  0
 21 41  1  0
 27 42  1  0
M  END
>  <smiles>  (36) 
O=C(CCCOc1ccc(Cl)cc1Cl)NN=Cc1cccc(C(F)(F)F)c1

>  <score_type>  (36) 
oracle

>  <origin>  (36) 
autodockgpu

>  <m_score__min__energy>  (36) 
-7.4800000000000004

>  <m_primary>  (36) 
energy

>  <rmsd>  (36) 
6.134728409918181

>  <m_score__min__rmsd>  (36) 
6.134728409918181

>  <meeko>  (36) 
{"free_energy": -6.71, "intermolecular_energy": -9.39, "internal_energy": -1.69, "cluster_size": 22, "cluster_id": 1, "rank_in_cluster": 14}

>  <energy>  (36) 
-6.2

>  <cluster_rmsd>  (36) 
1.8

>  <cluster>  (36) 
5

$$$$

     RDKit          3D

 42 43  0  0  0  0  0  0  0  0999 V2000
  141.0610   74.7010  221.4080 O   0  0  0  0  0  0  0  0  0  0  0  0
  139.8180   74.6120  221.5550 C   0  0  0  0  0  0  0  0  0  0  0  0
  138.8020   75.4620  220.9450 C   0  0  0  0  0  0  0  0  0  0  0  0
  137.4900   75.5710  221.6420 C   0  0  0  0  0  0  0  0  0  0  0  0
  137.6590   76.4390  222.8670 C   0  0  0  0  0  0  0  0  0  0  0  0
  138.0310   77.7340  222.6300 O   0  0  0  0  0  0  0  0  0  0  0  0
  139.2010   78.3680  222.8720 C   0  0  0  0  0  0  0  0  0  0  0  0
  140.4690   77.9000  222.6540 C   0  0  0  0  0  0  0  0  0  0  0  0
  141.6010   78.6530  222.9470 C   0  0  0  0  0  0  0  0  0  0  0  0
  141.5010   79.9140  223.4770 C   0  0  0  0  0  0  0  0  0  0  0  0
  142.9510   80.8220  223.8290 Cl  0  0  0  0  0  0  0  0  0  0  0  0
  140.2350   80.4060  223.7050 C   0  0  0  0  0  0  0  0  0  0  0  0
  139.1200   79.6570  223.4110 C   0  0  0  0  0  0  0  0  0  0  0  0
  137.5440   80.3760  223.7420 Cl  0  0  0  0  0  0  0  0  0  0  0  0
  139.3680   73.5560  222.4170 N   0  0  0  0  0  0  0  0  0  0  0  0
  140.3730   72.7540  222.9910 N   0  0  0  0  0  0  0  0  0  0  0  0
  140.3210   71.4840  223.0940 C   0  0  0  0  0  0  0  0  0  0  0  0
  140.1780   70.9060  224.4260 C   0  0  0  0  0  0  0  0  0  0  0  0
  139.5530   69.6810  224.5390 C   0  0  0  0  0  0  0  0  0  0  0  0
  139.3710   69.0520  225.7710 C   0  0  0  0  0  0  0  0  0  0  0  0
  139.8320   69.6800  226.9100 C   0  0  0  0  0  0  0  0  0  0  0  0
  140.4580   70.9100  226.7850 C   0  0  0  0  0  0  0  0  0  0  0  0
  140.9680   71.6180  227.9940 C   0  0  0  0  0  0  0  0  0  0  0  0
  141.7950   72.6410  227.5550 F   0  0  0  0  0  0  0  0  0  0  0  0
  141.7860   70.7680  228.7440 F   0  0  0  0  0  0  0  0  0  0  0  0
  139.9500   72.0480  228.8050 F   0  0  0  0  0  0  0  0  0  0  0  0
  140.6390   71.5340  225.5640 C   0  0  0  0  0  0  0  0  0  0  0  0
  139.2215   76.4762  220.8710 H   0  0  0  0  0  0  0  0  0  0  0  0
  138.5707   74.9784  219.9845 H   0  0  0  0  0  0  0  0  0  0  0  0
  136.7495   76.0247  220.9669 H   0  0  0  0  0  0  0  0  0  0  0  0
  137.1405   74.5710  221.9383 H   0  0  0  0  0  0  0  0  0  0  0  0
  136.6992   76.4560  223.4041 H   0  0  0  0  0  0  0  0  0  0  0  0
  138.4835   75.9905  223.4407 H   0  0  0  0  0  0  0  0  0  0  0  0
  140.5971   76.8923  222.2320 H   0  0  0  0  0  0  0  0  0  0  0  0
  142.5965   78.2287  222.7497 H   0  0  0  0  0  0  0  0  0  0  0  0
  140.1140   81.4138  224.1289 H   0  0  0  0  0  0  0  0  0  0  0  0
  138.3500   73.3890  222.6120 H   0  0  0  0  0  0  0  0  0  0  0  0
  140.3823   70.8419  222.2030 H   0  0  0  0  0  0  0  0  0  0  0  0
  139.1865   69.1844  223.6285 H   0  0  0  0  0  0  0  0  0  0  0  0
  138.8699   68.0747  225.8332 H   0  0  0  0  0  0  0  0  0  0  0  0
  139.7050   69.2133  227.8980 H   0  0  0  0  0  0  0  0  0  0  0  0
  141.1404   72.5111  225.5019 H   0  0  0  0  0  0  0  0  0  0  0  0
  1  2  2  0
  2  3  1  0
  3  4  1  0
  4  5  1  0
  5  6  1  0
  6  7  1  0
  7  8  2  0
  8  9  1  0
  9 10  2  0
 10 11  1  0
 10 12  1  0
 12 13  2  0
 13 14  1  0
  2 15  1  0
 15 16  1  0
 16 17  2  0
 17 18  1  0
 18 19  2  0
 19 20  1  0
 20 21  2  0
 21 22  1  0
 22 23  1  0
 23 24  1  0
 23 25  1  0
 23 26  1  0
 22 27  2  0
 13  7  1  0
 27 18  1  0
  3 28  1  0
  3 29  1  0
  4 30  1  0
  4 31  1  0
  5 32  1  0
  5 33  1  0
  8 34  1  0
  9 35  1  0
 12 36  1  0
 15 37  1  0
 17 38  1  0
 19 39  1  0
 20 40  1  0
 21 41  1  0
 27 42  1  0
M  END
>  <smiles>  (37) 
O=C(CCCOc1ccc(Cl)cc1Cl)NN=Cc1cccc(C(F)(F)F)c1

>  <score_type>  (37) 
oracle

>  <origin>  (37) 
autodockgpu

>  <m_score__min__energy>  (37) 
-7.4800000000000004

>  <m_primary>  (37) 
energy

>  <rmsd>  (37) 
6.1249909801042515

>  <m_score__min__rmsd>  (37) 
6.1249909801042515

>  <meeko>  (37) 
{"free_energy": -7.48, "intermolecular_energy": -10.17, "internal_energy": -0.99, "cluster_size": 22, "cluster_id": 1, "rank_in_cluster": 1}

>  <energy>  (37) 
-6.18

>  <cluster_rmsd>  (37) 
0.88

>  <cluster>  (37) 
5

$$$$

     RDKit          3D

 42 43  0  0  0  0  0  0  0  0999 V2000
  141.1780   74.9450  221.8010 O   0  0  0  0  0  0  0  0  0  0  0  0
  139.9330   74.9080  221.9500 C   0  0  0  0  0  0  0  0  0  0  0  0
  138.9850   75.9770  221.6550 C   0  0  0  0  0  0  0  0  0  0  0  0
  137.9620   76.2930  222.6920 C   0  0  0  0  0  0  0  0  0  0  0  0
  136.6600   75.6250  222.3130 C   0  0  0  0  0  0  0  0  0  0  0  0
  136.4990   74.3440  222.7630 O   0  0  0  0  0  0  0  0  0  0  0  0
  135.7500   73.8600  223.7800 C   0  0  0  0  0  0  0  0  0  0  0  0
  135.0250   74.5690  224.6990 C   0  0  0  0  0  0  0  0  0  0  0  0
  134.2910   73.9520  225.7070 C   0  0  0  0  0  0  0  0  0  0  0  0
  134.2590   72.5870  225.8310 C   0  0  0  0  0  0  0  0  0  0  0  0
  133.3240   71.8560  227.1120 Cl  0  0  0  0  0  0  0  0  0  0  0  0
  134.9810   71.8520  224.9170 C   0  0  0  0  0  0  0  0  0  0  0  0
  135.7030   72.4680  223.9230 C   0  0  0  0  0  0  0  0  0  0  0  0
  136.5950   71.4380  222.8040 Cl  0  0  0  0  0  0  0  0  0  0  0  0
  139.4030   73.6780  222.4670 N   0  0  0  0  0  0  0  0  0  0  0  0
  140.3440   72.6670  222.7420 N   0  0  0  0  0  0  0  0  0  0  0  0
  140.0670   71.4280  222.8690 C   0  0  0  0  0  0  0  0  0  0  0  0
  139.9430   70.8850  224.2180 C   0  0  0  0  0  0  0  0  0  0  0  0
  139.2340   69.7130  224.3840 C   0  0  0  0  0  0  0  0  0  0  0  0
  139.0630   69.1200  225.6350 C   0  0  0  0  0  0  0  0  0  0  0  0
  139.6230   69.7310  226.7390 C   0  0  0  0  0  0  0  0  0  0  0  0
  140.3330   70.9070  226.5610 C   0  0  0  0  0  0  0  0  0  0  0  0
  140.9520   71.5950  227.7310 C   0  0  0  0  0  0  0  0  0  0  0  0
  141.5460   70.6190  228.5170 F   0  0  0  0  0  0  0  0  0  0  0  0
  139.9630   72.1740  228.5310 F   0  0  0  0  0  0  0  0  0  0  0  0
  141.8160   72.5870  227.3440 F   0  0  0  0  0  0  0  0  0  0  0  0
  140.5030   71.4960  225.3210 C   0  0  0  0  0  0  0  0  0  0  0  0
  139.5665   76.8933  221.4754 H   0  0  0  0  0  0  0  0  0  0  0  0
  138.4077   75.6107  220.7933 H   0  0  0  0  0  0  0  0  0  0  0  0
  138.2988   75.9179  223.6697 H   0  0  0  0  0  0  0  0  0  0  0  0
  137.8184   77.3818  222.7551 H   0  0  0  0  0  0  0  0  0  0  0  0
  135.8376   76.2321  222.7194 H   0  0  0  0  0  0  0  0  0  0  0  0
  136.6647   75.5592  221.2150 H   0  0  0  0  0  0  0  0  0  0  0  0
  135.0225   75.6673  224.6384 H   0  0  0  0  0  0  0  0  0  0  0  0
  133.7252   74.5715  226.4184 H   0  0  0  0  0  0  0  0  0  0  0  0
  134.9797   70.7540  224.9837 H   0  0  0  0  0  0  0  0  0  0  0  0
  138.3770   73.5360  222.6320 H   0  0  0  0  0  0  0  0  0  0  0  0
  139.9256   70.7870  221.9864 H   0  0  0  0  0  0  0  0  0  0  0  0
  138.7891   69.2306  223.5012 H   0  0  0  0  0  0  0  0  0  0  0  0
  138.4936   68.1847  225.7396 H   0  0  0  0  0  0  0  0  0  0  0  0
  139.5076   69.2923  227.7411 H   0  0  0  0  0  0  0  0  0  0  0  0
  141.0724   72.4314  225.2166 H   0  0  0  0  0  0  0  0  0  0  0  0
  1  2  2  0
  2  3  1  0
  3  4  1  0
  4  5  1  0
  5  6  1  0
  6  7  1  0
  7  8  2  0
  8  9  1  0
  9 10  2  0
 10 11  1  0
 10 12  1  0
 12 13  2  0
 13 14  1  0
  2 15  1  0
 15 16  1  0
 16 17  2  0
 17 18  1  0
 18 19  2  0
 19 20  1  0
 20 21  2  0
 21 22  1  0
 22 23  1  0
 23 24  1  0
 23 25  1  0
 23 26  1  0
 22 27  2  0
 13  7  1  0
 27 18  1  0
  3 28  1  0
  3 29  1  0
  4 30  1  0
  4 31  1  0
  5 32  1  0
  5 33  1  0
  8 34  1  0
  9 35  1  0
 12 36  1  0
 15 37  1  0
 17 38  1  0
 19 39  1  0
 20 40  1  0
 21 41  1  0
 27 42  1  0
M  END
>  <smiles>  (38) 
O=C(CCCOc1ccc(Cl)cc1Cl)NN=Cc1cccc(C(F)(F)F)c1

>  <score_type>  (38) 
oracle

>  <origin>  (38) 
autodockgpu

>  <m_score__min__energy>  (38) 
-7.4800000000000004

>  <m_primary>  (38) 
energy

>  <rmsd>  (38) 
10.31556412448226

>  <m_score__min__rmsd>  (38) 
10.31556412448226

>  <meeko>  (38) 
{"free_energy": -6.06, "intermolecular_energy": -8.74, "internal_energy": -2.27, "cluster_size": 2, "cluster_id": 6, "rank_in_cluster": 2}

>  <energy>  (38) 
-6.01

>  <cluster_rmsd>  (38) 
1.92

>  <cluster>  (38) 
5

$$$$

     RDKit          3D

 42 43  0  0  0  0  0  0  0  0999 V2000
  139.7380   74.9840  222.3500 O   0  0  0  0  0  0  0  0  0  0  0  0
  140.7660   74.4920  221.8250 C   0  0  0  0  0  0  0  0  0  0  0  0
  141.7850   75.2050  221.0630 C   0  0  0  0  0  0  0  0  0  0  0  0
  141.3490   75.9100  219.8250 C   0  0  0  0  0  0  0  0  0  0  0  0
  141.3540   77.3990  220.0840 C   0  0  0  0  0  0  0  0  0  0  0  0
  141.4010   77.7720  221.3990 O   0  0  0  0  0  0  0  0  0  0  0  0
  140.4990   78.4430  222.1520 C   0  0  0  0  0  0  0  0  0  0  0  0
  139.1550   78.2080  222.2610 C   0  0  0  0  0  0  0  0  0  0  0  0
  138.3280   78.9750  223.0740 C   0  0  0  0  0  0  0  0  0  0  0  0
  138.8230   80.0170  223.8140 C   0  0  0  0  0  0  0  0  0  0  0  0
  137.7450   80.9530  224.8210 Cl  0  0  0  0  0  0  0  0  0  0  0  0
  140.1730   80.2740  223.7200 C   0  0  0  0  0  0  0  0  0  0  0  0
  140.9860   79.5110  222.9160 C   0  0  0  0  0  0  0  0  0  0  0  0
  142.7000   79.9220  222.8650 Cl  0  0  0  0  0  0  0  0  0  0  0  0
  140.9410   73.0790  222.0030 N   0  0  0  0  0  0  0  0  0  0  0  0
  139.9400   72.4200  222.7430 N   0  0  0  0  0  0  0  0  0  0  0  0
  139.9810   71.1940  223.0950 C   0  0  0  0  0  0  0  0  0  0  0  0
  140.2640   70.8880  224.4940 C   0  0  0  0  0  0  0  0  0  0  0  0
  140.7810   71.8910  225.2870 C   0  0  0  0  0  0  0  0  0  0  0  0
  141.0830   71.6910  226.6340 C   0  0  0  0  0  0  0  0  0  0  0  0
  140.8550   70.4460  227.1850 C   0  0  0  0  0  0  0  0  0  0  0  0
  140.3360   69.4450  226.3800 C   0  0  0  0  0  0  0  0  0  0  0  0
  140.0780   68.0880  226.9410 C   0  0  0  0  0  0  0  0  0  0  0  0
  138.9340   67.5990  226.3290 F   0  0  0  0  0  0  0  0  0  0  0  0
  139.7700   68.1780  228.3010 F   0  0  0  0  0  0  0  0  0  0  0  0
  141.1640   67.2630  226.8080 F   0  0  0  0  0  0  0  0  0  0  0  0
  140.0370   69.6440  225.0440 C   0  0  0  0  0  0  0  0  0  0  0  0
  142.2304   75.9569  221.7311 H   0  0  0  0  0  0  0  0  0  0  0  0
  142.4729   74.4215  220.7124 H   0  0  0  0  0  0  0  0  0  0  0  0
  142.0413   75.6756  219.0029 H   0  0  0  0  0  0  0  0  0  0  0  0
  140.3365   75.5829  219.5460 H   0  0  0  0  0  0  0  0  0  0  0  0
  142.2330   77.8268  219.5797 H   0  0  0  0  0  0  0  0  0  0  0  0
  140.3935   77.7734  219.7003 H   0  0  0  0  0  0  0  0  0  0  0  0
  138.7130   77.3821  221.6843 H   0  0  0  0  0  0  0  0  0  0  0  0
  137.2544   78.7407  223.1243 H   0  0  0  0  0  0  0  0  0  0  0  0
  140.6075   81.1032  224.2976 H   0  0  0  0  0  0  0  0  0  0  0  0
  141.7640   72.5620  221.6080 H   0  0  0  0  0  0  0  0  0  0  0  0
  139.8079   70.3901  222.3644 H   0  0  0  0  0  0  0  0  0  0  0  0
  140.9611   72.8810  224.8427 H   0  0  0  0  0  0  0  0  0  0  0  0
  141.4943   72.5084  227.2445 H   0  0  0  0  0  0  0  0  0  0  0  0
  141.0813   70.2522  228.2439 H   0  0  0  0  0  0  0  0  0  0  0  0
  139.6266   68.8266  224.4329 H   0  0  0  0  0  0  0  0  0  0  0  0
  1  2  2  0
  2  3  1  0
  3  4  1  0
  4  5  1  0
  5  6  1  0
  6  7  1  0
  7  8  2  0
  8  9  1  0
  9 10  2  0
 10 11  1  0
 10 12  1  0
 12 13  2  0
 13 14  1  0
  2 15  1  0
 15 16  1  0
 16 17  2  0
 17 18  1  0
 18 19  2  0
 19 20  1  0
 20 21  2  0
 21 22  1  0
 22 23  1  0
 23 24  1  0
 23 25  1  0
 23 26  1  0
 22 27  2  0
 13  7  1  0
 27 18  1  0
  3 28  1  0
  3 29  1  0
  4 30  1  0
  4 31  1  0
  5 32  1  0
  5 33  1  0
  8 34  1  0
  9 35  1  0
 12 36  1  0
 15 37  1  0
 17 38  1  0
 19 39  1  0
 20 40  1  0
 21 41  1  0
 27 42  1  0
M  END
>  <smiles>  (39) 
O=C(CCCOc1ccc(Cl)cc1Cl)NN=Cc1cccc(C(F)(F)F)c1

>  <score_type>  (39) 
oracle

>  <origin>  (39) 
autodockgpu

>  <m_score__min__energy>  (39) 
-7.4800000000000004

>  <m_primary>  (39) 
energy

>  <rmsd>  (39) 
5.415761428939588

>  <m_score__min__rmsd>  (39) 
5.415761428939588

>  <meeko>  (39) 
{"free_energy": -6.72, "intermolecular_energy": -9.4, "internal_energy": -1.01, "cluster_size": 3, "cluster_id": 2, "rank_in_cluster": 3}

>  <energy>  (39) 
-5.71

>  <cluster_rmsd>  (39) 
1.4

>  <cluster>  (39) 
5

$$$$

     RDKit          3D

 42 43  0  0  0  0  0  0  0  0999 V2000
  140.0500   73.3850  222.7240 O   0  0  0  0  0  0  0  0  0  0  0  0
  139.3910   72.8750  221.7860 C   0  0  0  0  0  0  0  0  0  0  0  0
  138.8110   73.5730  220.6440 C   0  0  0  0  0  0  0  0  0  0  0  0
  137.7410   74.5730  220.9220 C   0  0  0  0  0  0  0  0  0  0  0  0
  138.2470   75.5550  221.9550 C   0  0  0  0  0  0  0  0  0  0  0  0
  138.7980   76.7040  221.4590 O   0  0  0  0  0  0  0  0  0  0  0  0
  139.5900   77.6250  222.0560 C   0  0  0  0  0  0  0  0  0  0  0  0
  139.2380   78.5410  223.0100 C   0  0  0  0  0  0  0  0  0  0  0  0
  140.1490   79.4430  223.5490 C   0  0  0  0  0  0  0  0  0  0  0  0
  141.4600   79.4590  223.1460 C   0  0  0  0  0  0  0  0  0  0  0  0
  142.5680   80.6090  223.8510 Cl  0  0  0  0  0  0  0  0  0  0  0  0
  141.8370   78.5450  222.1860 C   0  0  0  0  0  0  0  0  0  0  0  0
  140.9310   77.6560  221.6580 C   0  0  0  0  0  0  0  0  0  0  0  0
  141.5140   76.5280  220.4350 Cl  0  0  0  0  0  0  0  0  0  0  0  0
  139.1970   71.4550  221.8610 N   0  0  0  0  0  0  0  0  0  0  0  0
  139.7700   70.8100  222.9750 N   0  0  0  0  0  0  0  0  0  0  0  0
  139.1200   70.1340  223.8390 C   0  0  0  0  0  0  0  0  0  0  0  0
  139.7260   69.9280  225.1510 C   0  0  0  0  0  0  0  0  0  0  0  0
  139.9610   68.6320  225.5620 C   0  0  0  0  0  0  0  0  0  0  0  0
  140.5360   68.3380  226.7980 C   0  0  0  0  0  0  0  0  0  0  0  0
  140.8790   69.3820  227.6330 C   0  0  0  0  0  0  0  0  0  0  0  0
  140.6400   70.6800  227.2110 C   0  0  0  0  0  0  0  0  0  0  0  0
  140.9970   71.8330  228.0860 C   0  0  0  0  0  0  0  0  0  0  0  0
  139.8240   72.2910  228.6650 F   0  0  0  0  0  0  0  0  0  0  0  0
  141.4780   72.8950  227.3160 F   0  0  0  0  0  0  0  0  0  0  0  0
  141.9640   71.5020  228.9990 F   0  0  0  0  0  0  0  0  0  0  0  0
  140.0690   70.9720  225.9850 C   0  0  0  0  0  0  0  0  0  0  0  0
  139.6284   74.0990  220.1290 H   0  0  0  0  0  0  0  0  0  0  0  0
  138.3150   72.7866  220.0561 H   0  0  0  0  0  0  0  0  0  0  0  0
  137.4866   75.1092  219.9958 H   0  0  0  0  0  0  0  0  0  0  0  0
  136.8425   74.0632  221.3000 H   0  0  0  0  0  0  0  0  0  0  0  0
  137.3999   75.8362  222.5979 H   0  0  0  0  0  0  0  0  0  0  0  0
  139.0585   75.0385  222.4885 H   0  0  0  0  0  0  0  0  0  0  0  0
  138.1966   78.5646  223.3633 H   0  0  0  0  0  0  0  0  0  0  0  0
  139.8114   80.1579  224.3138 H   0  0  0  0  0  0  0  0  0  0  0  0
  142.8798   78.5265  221.8365 H   0  0  0  0  0  0  0  0  0  0  0  0
  138.6620   70.9240  221.1320 H   0  0  0  0  0  0  0  0  0  0  0  0
  138.1298   69.7175  223.6022 H   0  0  0  0  0  0  0  0  0  0  0  0
  139.6858   67.8035  224.8928 H   0  0  0  0  0  0  0  0  0  0  0  0
  140.7125   67.2955  227.1012 H   0  0  0  0  0  0  0  0  0  0  0  0
  141.3338   69.1872  228.6155 H   0  0  0  0  0  0  0  0  0  0  0  0
  139.8923   72.0145  225.6817 H   0  0  0  0  0  0  0  0  0  0  0  0
  1  2  2  0
  2  3  1  0
  3  4  1  0
  4  5  1  0
  5  6  1  0
  6  7  1  0
  7  8  2  0
  8  9  1  0
  9 10  2  0
 10 11  1  0
 10 12  1  0
 12 13  2  0
 13 14  1  0
  2 15  1  0
 15 16  1  0
 16 17  2  0
 17 18  1  0
 18 19  2  0
 19 20  1  0
 20 21  2  0
 21 22  1  0
 22 23  1  0
 23 24  1  0
 23 25  1  0
 23 26  1  0
 22 27  2  0
 13  7  1  0
 27 18  1  0
  3 28  1  0
  3 29  1  0
  4 30  1  0
  4 31  1  0
  5 32  1  0
  5 33  1  0
  8 34  1  0
  9 35  1  0
 12 36  1  0
 15 37  1  0
 17 38  1  0
 19 39  1  0
 20 40  1  0
 21 41  1  0
 27 42  1  0
M  END
>  <smiles>  (40) 
O=C(CCCOc1ccc(Cl)cc1Cl)NN=Cc1cccc(C(F)(F)F)c1

>  <score_type>  (40) 
oracle

>  <origin>  (40) 
autodockgpu

>  <m_score__min__energy>  (40) 
-7.4800000000000004

>  <m_primary>  (40) 
energy

>  <rmsd>  (40) 
6.109686510518131

>  <m_score__min__rmsd>  (40) 
6.109686510518131

>  <meeko>  (40) 
{"free_energy": -6.94, "intermolecular_energy": -9.62, "internal_energy": -0.97, "cluster_size": 22, "cluster_id": 1, "rank_in_cluster": 11}

>  <energy>  (40) 
-6.12

>  <cluster_rmsd>  (40) 
0.0

>  <cluster>  (40) 
6

$$$$

     RDKit          3D

 42 43  0  0  0  0  0  0  0  0999 V2000
  137.6800   71.9870  220.7030 O   0  0  0  0  0  0  0  0  0  0  0  0
  137.5540   72.9890  221.4480 C   0  0  0  0  0  0  0  0  0  0  0  0
  136.3960   73.8710  221.5380 C   0  0  0  0  0  0  0  0  0  0  0  0
  136.5210   75.2310  220.9410 C   0  0  0  0  0  0  0  0  0  0  0  0
  136.9560   76.1980  222.0180 C   0  0  0  0  0  0  0  0  0  0  0  0
  138.2890   76.1800  222.3270 O   0  0  0  0  0  0  0  0  0  0  0  0
  139.1420   77.1980  222.5870 C   0  0  0  0  0  0  0  0  0  0  0  0
  138.8520   78.4170  223.1360 C   0  0  0  0  0  0  0  0  0  0  0  0
  139.8240   79.3870  223.3530 C   0  0  0  0  0  0  0  0  0  0  0  0
  141.1370   79.1680  223.0220 C   0  0  0  0  0  0  0  0  0  0  0  0
  142.3230   80.4160  223.3130 Cl  0  0  0  0  0  0  0  0  0  0  0  0
  141.4530   77.9470  222.4670 C   0  0  0  0  0  0  0  0  0  0  0  0
  140.4870   76.9920  222.2560 C   0  0  0  0  0  0  0  0  0  0  0  0
  140.9950   75.4630  221.5390 Cl  0  0  0  0  0  0  0  0  0  0  0  0
  138.6760   73.2820  222.2940 N   0  0  0  0  0  0  0  0  0  0  0  0
  139.7780   72.4120  222.1830 N   0  0  0  0  0  0  0  0  0  0  0  0
  140.6730   72.2500  223.0780 C   0  0  0  0  0  0  0  0  0  0  0  0
  140.3360   71.4560  224.2550 C   0  0  0  0  0  0  0  0  0  0  0  0
  139.5530   70.3340  224.0790 C   0  0  0  0  0  0  0  0  0  0  0  0
  139.1800   69.5150  225.1440 C   0  0  0  0  0  0  0  0  0  0  0  0
  139.6110   69.8440  226.4140 C   0  0  0  0  0  0  0  0  0  0  0  0
  140.3970   70.9720  226.5800 C   0  0  0  0  0  0  0  0  0  0  0  0
  140.8810   71.3580  227.9360 C   0  0  0  0  0  0  0  0  0  0  0  0
  141.3710   70.2110  228.5420 F   0  0  0  0  0  0  0  0  0  0  0  0
  139.8100   71.7760  228.7310 F   0  0  0  0  0  0  0  0  0  0  0  0
  141.7920   72.3810  227.8840 F   0  0  0  0  0  0  0  0  0  0  0  0
  140.7670   71.7850  225.5230 C   0  0  0  0  0  0  0  0  0  0  0  0
  135.5572   73.3663  221.0362 H   0  0  0  0  0  0  0  0  0  0  0  0
  136.2607   74.0482  222.6152 H   0  0  0  0  0  0  0  0  0  0  0  0
  137.2698   75.2137  220.1354 H   0  0  0  0  0  0  0  0  0  0  0  0
  135.5531   75.5465  220.5244 H   0  0  0  0  0  0  0  0  0  0  0  0
  136.7000   77.2142  221.6836 H   0  0  0  0  0  0  0  0  0  0  0  0
  136.4314   75.8847  222.9327 H   0  0  0  0  0  0  0  0  0  0  0  0
  137.8114   78.6378  223.4161 H   0  0  0  0  0  0  0  0  0  0  0  0
  139.5342   80.3498  223.7992 H   0  0  0  0  0  0  0  0  0  0  0  0
  142.4953   77.7330  222.1882 H   0  0  0  0  0  0  0  0  0  0  0  0
  138.6810   74.0950  222.9560 H   0  0  0  0  0  0  0  0  0  0  0  0
  141.6718   72.6969  222.9653 H   0  0  0  0  0  0  0  0  0  0  0  0
  139.2117   70.0770  223.0653 H   0  0  0  0  0  0  0  0  0  0  0  0
  138.5554   68.6253  224.9760 H   0  0  0  0  0  0  0  0  0  0  0  0
  139.3350   69.2215  227.2779 H   0  0  0  0  0  0  0  0  0  0  0  0
  141.3916   72.6748  225.6907 H   0  0  0  0  0  0  0  0  0  0  0  0
  1  2  2  0
  2  3  1  0
  3  4  1  0
  4  5  1  0
  5  6  1  0
  6  7  1  0
  7  8  2  0
  8  9  1  0
  9 10  2  0
 10 11  1  0
 10 12  1  0
 12 13  2  0
 13 14  1  0
  2 15  1  0
 15 16  1  0
 16 17  2  0
 17 18  1  0
 18 19  2  0
 19 20  1  0
 20 21  2  0
 21 22  1  0
 22 23  1  0
 23 24  1  0
 23 25  1  0
 23 26  1  0
 22 27  2  0
 13  7  1  0
 27 18  1  0
  3 28  1  0
  3 29  1  0
  4 30  1  0
  4 31  1  0
  5 32  1  0
  5 33  1  0
  8 34  1  0
  9 35  1  0
 12 36  1  0
 15 37  1  0
 17 38  1  0
 19 39  1  0
 20 40  1  0
 21 41  1  0
 27 42  1  0
M  END
>  <smiles>  (41) 
O=C(CCCOc1ccc(Cl)cc1Cl)NN=Cc1cccc(C(F)(F)F)c1

>  <score_type>  (41) 
oracle

>  <origin>  (41) 
autodockgpu

>  <m_score__min__energy>  (41) 
-7.4800000000000004

>  <m_primary>  (41) 
energy

>  <rmsd>  (41) 
6.083669696029566

>  <m_score__min__rmsd>  (41) 
6.083669696029566

>  <meeko>  (41) 
{"free_energy": -6.12, "intermolecular_energy": -8.8, "internal_energy": -1.89, "cluster_size": 22, "cluster_id": 1, "rank_in_cluster": 21}

>  <energy>  (41) 
-6.06

>  <cluster_rmsd>  (41) 
1.74

>  <cluster>  (41) 
6

$$$$

     RDKit          3D

 42 43  0  0  0  0  0  0  0  0999 V2000
  139.9560   75.1320  222.3900 O   0  0  0  0  0  0  0  0  0  0  0  0
  140.5710   74.5970  221.4360 C   0  0  0  0  0  0  0  0  0  0  0  0
  140.9280   75.2190  220.1660 C   0  0  0  0  0  0  0  0  0  0  0  0
  142.2270   75.9470  220.0990 C   0  0  0  0  0  0  0  0  0  0  0  0
  143.3110   74.9740  219.6970 C   0  0  0  0  0  0  0  0  0  0  0  0
  143.2680   73.7520  220.3100 O   0  0  0  0  0  0  0  0  0  0  0  0
  143.8020   72.5650  219.9370 C   0  0  0  0  0  0  0  0  0  0  0  0
  143.1460   71.4660  219.4520 C   0  0  0  0  0  0  0  0  0  0  0  0
  143.8110   70.2960  219.1030 C   0  0  0  0  0  0  0  0  0  0  0  0
  145.1720   70.1840  219.2320 C   0  0  0  0  0  0  0  0  0  0  0  0
  145.9640   68.6940  218.7820 Cl  0  0  0  0  0  0  0  0  0  0  0  0
  145.8530   71.2780  219.7190 C   0  0  0  0  0  0  0  0  0  0  0  0
  145.1900   72.4320  220.0610 C   0  0  0  0  0  0  0  0  0  0  0  0
  146.1530   73.7740  220.6760 Cl  0  0  0  0  0  0  0  0  0  0  0  0
  140.9570   73.2280  221.6340 N   0  0  0  0  0  0  0  0  0  0  0  0
  140.5980   72.6570  222.8700 N   0  0  0  0  0  0  0  0  0  0  0  0
  140.1950   71.4570  223.0300 C   0  0  0  0  0  0  0  0  0  0  0  0
  140.2540   70.8830  224.3700 C   0  0  0  0  0  0  0  0  0  0  0  0
  139.9090   69.5560  224.5240 C   0  0  0  0  0  0  0  0  0  0  0  0
  139.9350   68.9220  225.7660 C   0  0  0  0  0  0  0  0  0  0  0  0
  140.3180   69.6510  226.8730 C   0  0  0  0  0  0  0  0  0  0  0  0
  140.6620   70.9830  226.7080 C   0  0  0  0  0  0  0  0  0  0  0  0
  141.0800   71.8020  227.8820 C   0  0  0  0  0  0  0  0  0  0  0  0
  141.7900   70.9700  228.7340 F   0  0  0  0  0  0  0  0  0  0  0  0
  139.9590   72.2160  228.6070 F   0  0  0  0  0  0  0  0  0  0  0  0
  141.7760   72.9210  227.5050 F   0  0  0  0  0  0  0  0  0  0  0  0
  140.6360   71.6120  225.4770 C   0  0  0  0  0  0  0  0  0  0  0  0
  140.9557   74.4244  219.4059 H   0  0  0  0  0  0  0  0  0  0  0  0
  140.1633   75.9938  220.0079 H   0  0  0  0  0  0  0  0  0  0  0  0
  142.1603   76.7542  219.3547 H   0  0  0  0  0  0  0  0  0  0  0  0
  142.4619   76.3830  221.0812 H   0  0  0  0  0  0  0  0  0  0  0  0
  143.2333   74.8108  218.6120 H   0  0  0  0  0  0  0  0  0  0  0  0
  144.2591   75.4343  220.0120 H   0  0  0  0  0  0  0  0  0  0  0  0
  142.0532   71.5101  219.3341 H   0  0  0  0  0  0  0  0  0  0  0  0
  143.2342   69.4431  218.7157 H   0  0  0  0  0  0  0  0  0  0  0  0
  146.9456   71.2269  219.8360 H   0  0  0  0  0  0  0  0  0  0  0  0
  141.4750   72.6820  220.9040 H   0  0  0  0  0  0  0  0  0  0  0  0
  139.8135   70.8712  222.1807 H   0  0  0  0  0  0  0  0  0  0  0  0
  139.6035   68.9794  223.6385 H   0  0  0  0  0  0  0  0  0  0  0  0
  139.6558   67.8623  225.8611 H   0  0  0  0  0  0  0  0  0  0  0  0
  140.3497   69.1834  227.8682 H   0  0  0  0  0  0  0  0  0  0  0  0
  140.9142   72.6720  225.3823 H   0  0  0  0  0  0  0  0  0  0  0  0
  1  2  2  0
  2  3  1  0
  3  4  1  0
  4  5  1  0
  5  6  1  0
  6  7  1  0
  7  8  2  0
  8  9  1  0
  9 10  2  0
 10 11  1  0
 10 12  1  0
 12 13  2  0
 13 14  1  0
  2 15  1  0
 15 16  1  0
 16 17  2  0
 17 18  1  0
 18 19  2  0
 19 20  1  0
 20 21  2  0
 21 22  1  0
 22 23  1  0
 23 24  1  0
 23 25  1  0
 23 26  1  0
 22 27  2  0
 13  7  1  0
 27 18  1  0
  3 28  1  0
  3 29  1  0
  4 30  1  0
  4 31  1  0
  5 32  1  0
  5 33  1  0
  8 34  1  0
  9 35  1  0
 12 36  1  0
 15 37  1  0
 17 38  1  0
 19 39  1  0
 20 40  1  0
 21 41  1  0
 27 42  1  0
M  END
>  <smiles>  (42) 
O=C(CCCOc1ccc(Cl)cc1Cl)NN=Cc1cccc(C(F)(F)F)c1

>  <score_type>  (42) 
oracle

>  <origin>  (42) 
autodockgpu

>  <m_score__min__energy>  (42) 
-7.4800000000000004

>  <m_primary>  (42) 
energy

>  <rmsd>  (42) 
11.232953335030686

>  <m_score__min__rmsd>  (42) 
11.232953335030686

>  <meeko>  (42) 
{"free_energy": -6.65, "intermolecular_energy": -9.34, "internal_energy": -1.65, "cluster_size": 2, "cluster_id": 4, "rank_in_cluster": 1}

>  <energy>  (42) 
-6.06

>  <cluster_rmsd>  (42) 
0.0

>  <cluster>  (42) 
7

$$$$

     RDKit          3D

 42 43  0  0  0  0  0  0  0  0999 V2000
  139.8610   74.2930  222.0850 O   0  0  0  0  0  0  0  0  0  0  0  0
  140.6260   73.4370  221.5780 C   0  0  0  0  0  0  0  0  0  0  0  0
  141.6690   73.6740  220.5870 C   0  0  0  0  0  0  0  0  0  0  0  0
  142.5830   74.8280  220.8140 C   0  0  0  0  0  0  0  0  0  0  0  0
  142.0180   76.0430  220.1140 C   0  0  0  0  0  0  0  0  0  0  0  0
  141.1490   76.8010  220.8510 O   0  0  0  0  0  0  0  0  0  0  0  0
  141.3830   77.8470  221.6770 C   0  0  0  0  0  0  0  0  0  0  0  0
  141.3580   77.8560  223.0460 C   0  0  0  0  0  0  0  0  0  0  0  0
  141.6150   79.0040  223.7880 C   0  0  0  0  0  0  0  0  0  0  0  0
  141.9080   80.1970  223.1780 C   0  0  0  0  0  0  0  0  0  0  0  0
  142.2240   81.6120  224.1510 Cl  0  0  0  0  0  0  0  0  0  0  0  0
  141.9380   80.2120  221.8000 C   0  0  0  0  0  0  0  0  0  0  0  0
  141.6840   79.0730  221.0730 C   0  0  0  0  0  0  0  0  0  0  0  0
  141.7450   79.1980  219.3150 Cl  0  0  0  0  0  0  0  0  0  0  0  0
  140.4400   72.0890  222.0350 N   0  0  0  0  0  0  0  0  0  0  0  0
  139.4250   71.8930  222.9920 N   0  0  0  0  0  0  0  0  0  0  0  0
  139.2880   70.8450  223.7050 C   0  0  0  0  0  0  0  0  0  0  0  0
  139.8900   70.8310  225.0340 C   0  0  0  0  0  0  0  0  0  0  0  0
  140.7120   71.8820  225.3860 C   0  0  0  0  0  0  0  0  0  0  0  0
  141.3310   71.9540  226.6340 C   0  0  0  0  0  0  0  0  0  0  0  0
  141.1110   70.9380  227.5410 C   0  0  0  0  0  0  0  0  0  0  0  0
  140.2830   69.8880  227.1790 C   0  0  0  0  0  0  0  0  0  0  0  0
  140.0220   68.7730  228.1340 C   0  0  0  0  0  0  0  0  0  0  0  0
  139.2100   69.2730  229.1400 F   0  0  0  0  0  0  0  0  0  0  0  0
  141.2090   68.3870  228.7630 F   0  0  0  0  0  0  0  0  0  0  0  0
  139.4990   67.6720  227.5060 F   0  0  0  0  0  0  0  0  0  0  0  0
  139.6690   69.8160  225.9410 C   0  0  0  0  0  0  0  0  0  0  0  0
  142.2893   72.7669  220.5380 H   0  0  0  0  0  0  0  0  0  0  0  0
  141.1266   73.9232  219.6630 H   0  0  0  0  0  0  0  0  0  0  0  0
  142.6651   75.0278  221.8926 H   0  0  0  0  0  0  0  0  0  0  0  0
  143.5816   74.5976  220.4145 H   0  0  0  0  0  0  0  0  0  0  0  0
  142.8607   76.6855  219.8189 H   0  0  0  0  0  0  0  0  0  0  0  0
  141.4341   75.6563  219.2658 H   0  0  0  0  0  0  0  0  0  0  0  0
  141.1263   76.9216  223.5782 H   0  0  0  0  0  0  0  0  0  0  0  0
  141.5826   78.9541  224.8864 H   0  0  0  0  0  0  0  0  0  0  0  0
  142.1688   81.1500  221.2737 H   0  0  0  0  0  0  0  0  0  0  0  0
  141.0230   71.2920  221.6790 H   0  0  0  0  0  0  0  0  0  0  0  0
  138.7308   69.9746  223.3283 H   0  0  0  0  0  0  0  0  0  0  0  0
  140.8847   72.6892  224.6589 H   0  0  0  0  0  0  0  0  0  0  0  0
  141.9813   72.8036  226.8897 H   0  0  0  0  0  0  0  0  0  0  0  0
  141.5844   70.9612  228.5336 H   0  0  0  0  0  0  0  0  0  0  0  0
  139.0182   68.9668  225.6857 H   0  0  0  0  0  0  0  0  0  0  0  0
  1  2  2  0
  2  3  1  0
  3  4  1  0
  4  5  1  0
  5  6  1  0
  6  7  1  0
  7  8  2  0
  8  9  1  0
  9 10  2  0
 10 11  1  0
 10 12  1  0
 12 13  2  0
 13 14  1  0
  2 15  1  0
 15 16  1  0
 16 17  2  0
 17 18  1  0
 18 19  2  0
 19 20  1  0
 20 21  2  0
 21 22  1  0
 22 23  1  0
 23 24  1  0
 23 25  1  0
 23 26  1  0
 22 27  2  0
 13  7  1  0
 27 18  1  0
  3 28  1  0
  3 29  1  0
  4 30  1  0
  4 31  1  0
  5 32  1  0
  5 33  1  0
  8 34  1  0
  9 35  1  0
 12 36  1  0
 15 37  1  0
 17 38  1  0
 19 39  1  0
 20 40  1  0
 21 41  1  0
 27 42  1  0
M  END
>  <smiles>  (43) 
O=C(CCCOc1ccc(Cl)cc1Cl)NN=Cc1cccc(C(F)(F)F)c1

>  <score_type>  (43) 
oracle

>  <origin>  (43) 
autodockgpu

>  <m_score__min__energy>  (43) 
-7.4800000000000004

>  <m_primary>  (43) 
energy

>  <rmsd>  (43) 
6.027389323974344

>  <m_score__min__rmsd>  (43) 
6.027389323974344

>  <meeko>  (43) 
{"free_energy": -7.24, "intermolecular_energy": -9.92, "internal_energy": -0.89, "cluster_size": 3, "cluster_id": 2, "rank_in_cluster": 1}

>  <energy>  (43) 
-5.8

>  <cluster_rmsd>  (43) 
0.0

>  <cluster>  (43) 
8

$$$$

     RDKit          3D

 42 43  0  0  0  0  0  0  0  0999 V2000
  141.3220   73.5990  220.4690 O   0  0  0  0  0  0  0  0  0  0  0  0
  140.8280   72.9900  221.4490 C   0  0  0  0  0  0  0  0  0  0  0  0
  141.0090   71.5820  221.7850 C   0  0  0  0  0  0  0  0  0  0  0  0
  139.8740   70.6580  221.5030 C   0  0  0  0  0  0  0  0  0  0  0  0
  138.7100   71.0310  222.3920 C   0  0  0  0  0  0  0  0  0  0  0  0
  139.0390   71.5010  223.6340 O   0  0  0  0  0  0  0  0  0  0  0  0
  139.5720   70.8620  224.7010 C   0  0  0  0  0  0  0  0  0  0  0  0
  140.7850   71.0870  225.2940 C   0  0  0  0  0  0  0  0  0  0  0  0
  141.2240   70.3570  226.3920 C   0  0  0  0  0  0  0  0  0  0  0  0
  140.4550   69.3620  226.9410 C   0  0  0  0  0  0  0  0  0  0  0  0
  141.0490   68.4710  228.3200 Cl  0  0  0  0  0  0  0  0  0  0  0  0
  139.2300   69.1170  226.3600 C   0  0  0  0  0  0  0  0  0  0  0  0
  138.8020   69.8440  225.2750 C   0  0  0  0  0  0  0  0  0  0  0  0
  137.2190   69.4520  224.6050 Cl  0  0  0  0  0  0  0  0  0  0  0  0
  140.0020   73.7770  222.3200 N   0  0  0  0  0  0  0  0  0  0  0  0
  139.8470   75.1320  221.9690 N   0  0  0  0  0  0  0  0  0  0  0  0
  140.7840   75.9980  221.9710 C   0  0  0  0  0  0  0  0  0  0  0  0
  140.4700   77.3530  222.4130 C   0  0  0  0  0  0  0  0  0  0  0  0
  139.1520   77.6580  222.6860 C   0  0  0  0  0  0  0  0  0  0  0  0
  138.7580   78.9250  223.1130 C   0  0  0  0  0  0  0  0  0  0  0  0
  139.7210   79.9020  223.2650 C   0  0  0  0  0  0  0  0  0  0  0  0
  141.0410   79.5860  222.9880 C   0  0  0  0  0  0  0  0  0  0  0  0
  142.1080   80.6160  223.1400 C   0  0  0  0  0  0  0  0  0  0  0  0
  141.7730   81.3980  224.2340 F   0  0  0  0  0  0  0  0  0  0  0  0
  142.1060   81.4810  222.0430 F   0  0  0  0  0  0  0  0  0  0  0  0
  143.3550   80.0530  223.2320 F   0  0  0  0  0  0  0  0  0  0  0  0
  141.4330   78.3280  222.5640 C   0  0  0  0  0  0  0  0  0  0  0  0
  141.8795   71.2173  221.2201 H   0  0  0  0  0  0  0  0  0  0  0  0
  141.1195   71.5660  222.8793 H   0  0  0  0  0  0  0  0  0  0  0  0
  139.5771   70.7484  220.4477 H   0  0  0  0  0  0  0  0  0  0  0  0
  140.1787   69.6200  221.7021 H   0  0  0  0  0  0  0  0  0  0  0  0
  138.1289   71.8111  221.8784 H   0  0  0  0  0  0  0  0  0  0  0  0
  138.1519   70.0985  222.5624 H   0  0  0  0  0  0  0  0  0  0  0  0
  141.4361   71.8744  224.8865 H   0  0  0  0  0  0  0  0  0  0  0  0
  142.2078   70.5814  226.8299 H   0  0  0  0  0  0  0  0  0  0  0  0
  138.5843   68.3270  226.7710 H   0  0  0  0  0  0  0  0  0  0  0  0
  139.5390   73.3710  223.1690 H   0  0  0  0  0  0  0  0  0  0  0  0
  141.8010   75.7306  221.6483 H   0  0  0  0  0  0  0  0  0  0  0  0
  138.3880   76.8762  222.5627 H   0  0  0  0  0  0  0  0  0  0  0  0
  137.7006   79.1419  223.3246 H   0  0  0  0  0  0  0  0  0  0  0  0
  139.4454   80.9129  223.5999 H   0  0  0  0  0  0  0  0  0  0  0  0
  142.4903   78.1108  222.3520 H   0  0  0  0  0  0  0  0  0  0  0  0
  1  2  2  0
  2  3  1  0
  3  4  1  0
  4  5  1  0
  5  6  1  0
  6  7  1  0
  7  8  2  0
  8  9  1  0
  9 10  2  0
 10 11  1  0
 10 12  1  0
 12 13  2  0
 13 14  1  0
  2 15  1  0
 15 16  1  0
 16 17  2  0
 17 18  1  0
 18 19  2  0
 19 20  1  0
 20 21  2  0
 21 22  1  0
 22 23  1  0
 23 24  1  0
 23 25  1  0
 23 26  1  0
 22 27  2  0
 13  7  1  0
 27 18  1  0
  3 28  1  0
  3 29  1  0
  4 30  1  0
  4 31  1  0
  5 32  1  0
  5 33  1  0
  8 34  1  0
  9 35  1  0
 12 36  1  0
 15 37  1  0
 17 38  1  0
 19 39  1  0
 20 40  1  0
 21 41  1  0
 27 42  1  0
M  END
>  <smiles>  (44) 
O=C(CCCOc1ccc(Cl)cc1Cl)NN=Cc1cccc(C(F)(F)F)c1

>  <score_type>  (44) 
oracle

>  <origin>  (44) 
autodockgpu

>  <m_score__min__energy>  (44) 
-7.4800000000000004

>  <m_primary>  (44) 
energy

>  <rmsd>  (44) 
12.886618725855861

>  <m_score__min__rmsd>  (44) 
12.886618725855861

>  <meeko>  (44) 
{"free_energy": -6.8, "intermolecular_energy": -9.48, "internal_energy": -1.41, "cluster_size": 5, "cluster_id": 3, "rank_in_cluster": 3}

>  <energy>  (44) 
-5.43

>  <cluster_rmsd>  (44) 
0.72

>  <cluster>  (44) 
8

$$$$

     RDKit          3D

 42 43  0  0  0  0  0  0  0  0999 V2000
  140.7470   74.3270  221.8660 O   0  0  0  0  0  0  0  0  0  0  0  0
  139.5410   73.9840  221.9110 C   0  0  0  0  0  0  0  0  0  0  0  0
  138.4210   74.6380  221.2440 C   0  0  0  0  0  0  0  0  0  0  0  0
  137.3470   75.2070  222.1050 C   0  0  0  0  0  0  0  0  0  0  0  0
  137.6890   76.6450  222.4260 C   0  0  0  0  0  0  0  0  0  0  0  0
  138.8820   77.0940  221.9310 O   0  0  0  0  0  0  0  0  0  0  0  0
  139.7460   78.0100  222.4250 C   0  0  0  0  0  0  0  0  0  0  0  0
  139.5220   78.9250  223.4180 C   0  0  0  0  0  0  0  0  0  0  0  0
  140.4980   79.8220  223.8380 C   0  0  0  0  0  0  0  0  0  0  0  0
  141.7470   79.8350  223.2710 C   0  0  0  0  0  0  0  0  0  0  0  0
  142.9400   80.9800  223.8320 Cl  0  0  0  0  0  0  0  0  0  0  0  0
  141.9960   78.9230  222.2690 C   0  0  0  0  0  0  0  0  0  0  0  0
  141.0260   78.0390  221.8590 C   0  0  0  0  0  0  0  0  0  0  0  0
  141.4450   76.9130  220.5680 Cl  0  0  0  0  0  0  0  0  0  0  0  0
  139.2520   72.8250  222.7060 N   0  0  0  0  0  0  0  0  0  0  0  0
  140.3550   72.2170  223.3370 N   0  0  0  0  0  0  0  0  0  0  0  0
  140.3710   71.0240  223.7890 C   0  0  0  0  0  0  0  0  0  0  0  0
  140.5900   70.8320  225.2190 C   0  0  0  0  0  0  0  0  0  0  0  0
  140.8980   71.9390  225.9840 C   0  0  0  0  0  0  0  0  0  0  0  0
  141.1240   71.8520  227.3570 C   0  0  0  0  0  0  0  0  0  0  0  0
  141.0370   70.6160  227.9650 C   0  0  0  0  0  0  0  0  0  0  0  0
  140.7270   69.5110  227.1890 C   0  0  0  0  0  0  0  0  0  0  0  0
  140.6250   68.1600  227.8110 C   0  0  0  0  0  0  0  0  0  0  0  0
  141.1700   67.2510  226.9180 F   0  0  0  0  0  0  0  0  0  0  0  0
  139.2840   67.7930  227.9520 F   0  0  0  0  0  0  0  0  0  0  0  0
  141.2050   68.1220  229.0520 F   0  0  0  0  0  0  0  0  0  0  0  0
  140.5030   69.5970  225.8260 C   0  0  0  0  0  0  0  0  0  0  0  0
  138.8314   75.4615  220.6412 H   0  0  0  0  0  0  0  0  0  0  0  0
  137.9283   73.8377  220.6723 H   0  0  0  0  0  0  0  0  0  0  0  0
  136.3856   75.1659  221.5721 H   0  0  0  0  0  0  0  0  0  0  0  0
  137.2670   74.6256  223.0354 H   0  0  0  0  0  0  0  0  0  0  0  0
  136.8914   77.2820  222.0160 H   0  0  0  0  0  0  0  0  0  0  0  0
  137.7801   76.6950  223.5211 H   0  0  0  0  0  0  0  0  0  0  0  0
  138.5342   78.9517  223.9013 H   0  0  0  0  0  0  0  0  0  0  0  0
  140.2637   80.5358  224.6414 H   0  0  0  0  0  0  0  0  0  0  0  0
  142.9858   78.9017  221.7897 H   0  0  0  0  0  0  0  0  0  0  0  0
  138.2790   72.4490  222.8150 H   0  0  0  0  0  0  0  0  0  0  0  0
  140.2238   70.1639  223.1193 H   0  0  0  0  0  0  0  0  0  0  0  0
  140.9674   72.9216  225.4945 H   0  0  0  0  0  0  0  0  0  0  0  0
  141.3667   72.7502  227.9438 H   0  0  0  0  0  0  0  0  0  0  0  0
  141.2107   70.5102  229.0460 H   0  0  0  0  0  0  0  0  0  0  0  0
  140.2606   68.6988  225.2391 H   0  0  0  0  0  0  0  0  0  0  0  0
  1  2  2  0
  2  3  1  0
  3  4  1  0
  4  5  1  0
  5  6  1  0
  6  7  1  0
  7  8  2  0
  8  9  1  0
  9 10  2  0
 10 11  1  0
 10 12  1  0
 12 13  2  0
 13 14  1  0
  2 15  1  0
 15 16  1  0
 16 17  2  0
 17 18  1  0
 18 19  2  0
 19 20  1  0
 20 21  2  0
 21 22  1  0
 22 23  1  0
 23 24  1  0
 23 25  1  0
 23 26  1  0
 22 27  2  0
 13  7  1  0
 27 18  1  0
  3 28  1  0
  3 29  1  0
  4 30  1  0
  4 31  1  0
  5 32  1  0
  5 33  1  0
  8 34  1  0
  9 35  1  0
 12 36  1  0
 15 37  1  0
 17 38  1  0
 19 39  1  0
 20 40  1  0
 21 41  1  0
 27 42  1  0
M  END
>  <smiles>  (45) 
O=C(CCCOc1ccc(Cl)cc1Cl)NN=Cc1cccc(C(F)(F)F)c1

>  <score_type>  (45) 
oracle

>  <origin>  (45) 
autodockgpu

>  <m_score__min__energy>  (45) 
-7.4800000000000004

>  <m_primary>  (45) 
energy

>  <rmsd>  (45) 
5.6288300598686565

>  <m_score__min__rmsd>  (45) 
5.6288300598686565

>  <meeko>  (45) 
{"free_energy": -7.47, "intermolecular_energy": -10.15, "internal_energy": -1.01, "cluster_size": 22, "cluster_id": 1, "rank_in_cluster": 3}

>  <energy>  (45) 
-4.9

>  <cluster_rmsd>  (45) 
1.21

>  <cluster>  (45) 
8

$$$$

     RDKit          3D

 42 43  0  0  0  0  0  0  0  0999 V2000
  137.9000   71.9750  220.9490 O   0  0  0  0  0  0  0  0  0  0  0  0
  137.7730   73.1100  221.4680 C   0  0  0  0  0  0  0  0  0  0  0  0
  136.6610   74.0360  221.2860 C   0  0  0  0  0  0  0  0  0  0  0  0
  136.3530   74.9680  222.4070 C   0  0  0  0  0  0  0  0  0  0  0  0
  137.0460   76.2870  222.1490 C   0  0  0  0  0  0  0  0  0  0  0  0
  138.3670   76.3410  222.5000 O   0  0  0  0  0  0  0  0  0  0  0  0
  139.1720   77.4050  222.7230 C   0  0  0  0  0  0  0  0  0  0  0  0
  138.8380   78.6050  223.2890 C   0  0  0  0  0  0  0  0  0  0  0  0
  139.7620   79.6300  223.4640 C   0  0  0  0  0  0  0  0  0  0  0  0
  141.0680   79.4860  223.0710 C   0  0  0  0  0  0  0  0  0  0  0  0
  142.1930   80.8000  223.3110 Cl  0  0  0  0  0  0  0  0  0  0  0  0
  141.4280   78.2860  222.4980 C   0  0  0  0  0  0  0  0  0  0  0  0
  140.5090   77.2780  222.3290 C   0  0  0  0  0  0  0  0  0  0  0  0
  141.0700   75.7810  221.5840 Cl  0  0  0  0  0  0  0  0  0  0  0  0
  138.8440   73.5230  222.3300 N   0  0  0  0  0  0  0  0  0  0  0  0
  139.9020   72.6070  222.4860 N   0  0  0  0  0  0  0  0  0  0  0  0
  140.3450   72.1870  223.6060 C   0  0  0  0  0  0  0  0  0  0  0  0
  139.6810   71.0460  224.2260 C   0  0  0  0  0  0  0  0  0  0  0  0
  138.3670   70.7970  223.8880 C   0  0  0  0  0  0  0  0  0  0  0  0
  137.6510   69.7290  224.4300 C   0  0  0  0  0  0  0  0  0  0  0  0
  138.2830   68.8990  225.3330 C   0  0  0  0  0  0  0  0  0  0  0  0
  139.6030   69.1580  225.6650 C   0  0  0  0  0  0  0  0  0  0  0  0
  140.3180   68.2820  226.6380 C   0  0  0  0  0  0  0  0  0  0  0  0
  139.5570   67.1350  226.7980 F   0  0  0  0  0  0  0  0  0  0  0  0
  140.3580   68.8880  227.8970 F   0  0  0  0  0  0  0  0  0  0  0  0
  141.6090   68.0320  226.2490 F   0  0  0  0  0  0  0  0  0  0  0  0
  140.3130   70.2160  225.1290 C   0  0  0  0  0  0  0  0  0  0  0  0
  136.8835   74.6484  220.3997 H   0  0  0  0  0  0  0  0  0  0  0  0
  135.7717   73.3940  221.2022 H   0  0  0  0  0  0  0  0  0  0  0  0
  135.2662   75.1271  222.4675 H   0  0  0  0  0  0  0  0  0  0  0  0
  136.7063   74.5398  223.3566 H   0  0  0  0  0  0  0  0  0  0  0  0
  136.9731   76.5024  221.0728 H   0  0  0  0  0  0  0  0  0  0  0  0
  136.5357   77.0239  222.7866 H   0  0  0  0  0  0  0  0  0  0  0  0
  137.8006   78.7652  223.6178 H   0  0  0  0  0  0  0  0  0  0  0  0
  139.4389   80.5743  223.9266 H   0  0  0  0  0  0  0  0  0  0  0  0
  142.4669   78.1322  222.1707 H   0  0  0  0  0  0  0  0  0  0  0  0
  138.8430   74.4520  222.8170 H   0  0  0  0  0  0  0  0  0  0  0  0
  141.2047   72.6723  224.0912 H   0  0  0  0  0  0  0  0  0  0  0  0
  137.8675   71.4618  223.1679 H   0  0  0  0  0  0  0  0  0  0  0  0
  136.6039   69.5523  224.1431 H   0  0  0  0  0  0  0  0  0  0  0  0
  137.7491   68.0479  225.7808 H   0  0  0  0  0  0  0  0  0  0  0  0
  141.3600   70.3925  225.4164 H   0  0  0  0  0  0  0  0  0  0  0  0
  1  2  2  0
  2  3  1  0
  3  4  1  0
  4  5  1  0
  5  6  1  0
  6  7  1  0
  7  8  2  0
  8  9  1  0
  9 10  2  0
 10 11  1  0
 10 12  1  0
 12 13  2  0
 13 14  1  0
  2 15  1  0
 15 16  1  0
 16 17  2  0
 17 18  1  0
 18 19  2  0
 19 20  1  0
 20 21  2  0
 21 22  1  0
 22 23  1  0
 23 24  1  0
 23 25  1  0
 23 26  1  0
 22 27  2  0
 13  7  1  0
 27 18  1  0
  3 28  1  0
  3 29  1  0
  4 30  1  0
  4 31  1  0
  5 32  1  0
  5 33  1  0
  8 34  1  0
  9 35  1  0
 12 36  1  0
 15 37  1  0
 17 38  1  0
 19 39  1  0
 20 40  1  0
 21 41  1  0
 27 42  1  0
M  END
>  <smiles>  (46) 
O=C(CCCOc1ccc(Cl)cc1Cl)NN=Cc1cccc(C(F)(F)F)c1

>  <score_type>  (46) 
oracle

>  <origin>  (46) 
autodockgpu

>  <m_score__min__energy>  (46) 
-7.4800000000000004

>  <m_primary>  (46) 
energy

>  <rmsd>  (46) 
5.921762754907848

>  <m_score__min__rmsd>  (46) 
5.921762754907848

>  <meeko>  (46) 
{"free_energy": -5.71, "intermolecular_energy": -8.39, "internal_energy": -1.97, "cluster_size": 7, "cluster_id": 5, "rank_in_cluster": 7}

>  <energy>  (46) 
-4.67

>  <cluster_rmsd>  (46) 
1.4

>  <cluster>  (46) 
8

$$$$

     RDKit          3D

 42 43  0  0  0  0  0  0  0  0999 V2000
  136.8250   70.8680  222.9830 O   0  0  0  0  0  0  0  0  0  0  0  0
  136.9580   72.1150  223.0250 C   0  0  0  0  0  0  0  0  0  0  0  0
  135.9290   73.0930  223.3610 C   0  0  0  0  0  0  0  0  0  0  0  0
  135.7830   74.2720  222.4610 C   0  0  0  0  0  0  0  0  0  0  0  0
  136.6200   75.4070  223.0040 C   0  0  0  0  0  0  0  0  0  0  0  0
  137.7930   75.6480  222.3420 O   0  0  0  0  0  0  0  0  0  0  0  0
  138.7180   76.6180  222.5220 C   0  0  0  0  0  0  0  0  0  0  0  0
  138.5190   77.8910  222.9860 C   0  0  0  0  0  0  0  0  0  0  0  0
  139.5590   78.8040  223.1250 C   0  0  0  0  0  0  0  0  0  0  0  0
  140.8490   78.4700  222.8000 C   0  0  0  0  0  0  0  0  0  0  0  0
  142.1220   79.6500  222.9920 Cl  0  0  0  0  0  0  0  0  0  0  0  0
  141.0730   77.1950  222.3300 C   0  0  0  0  0  0  0  0  0  0  0  0
  140.0410   76.2970  222.1960 C   0  0  0  0  0  0  0  0  0  0  0  0
  140.4320   74.6900  221.5840 Cl  0  0  0  0  0  0  0  0  0  0  0  0
  138.2650   72.6130  222.7050 N   0  0  0  0  0  0  0  0  0  0  0  0
  139.2360   71.6440  222.3840 N   0  0  0  0  0  0  0  0  0  0  0  0
  140.2970   71.4240  223.0580 C   0  0  0  0  0  0  0  0  0  0  0  0
  140.1570   70.8920  224.4090 C   0  0  0  0  0  0  0  0  0  0  0  0
  139.5240   69.6770  224.5670 C   0  0  0  0  0  0  0  0  0  0  0  0
  139.3450   69.0900  225.8200 C   0  0  0  0  0  0  0  0  0  0  0  0
  139.8190   69.7530  226.9340 C   0  0  0  0  0  0  0  0  0  0  0  0
  140.4540   70.9720  226.7650 C   0  0  0  0  0  0  0  0  0  0  0  0
  140.9780   71.7160  227.9460 C   0  0  0  0  0  0  0  0  0  0  0  0
  141.8230   72.7060  227.4680 F   0  0  0  0  0  0  0  0  0  0  0  0
  141.7800   70.8800  228.7280 F   0  0  0  0  0  0  0  0  0  0  0  0
  139.9680   72.1960  228.7390 F   0  0  0  0  0  0  0  0  0  0  0  0
  140.6310   71.5540  225.5220 C   0  0  0  0  0  0  0  0  0  0  0  0
  134.9638   72.5655  223.3729 H   0  0  0  0  0  0  0  0  0  0  0  0
  136.2457   73.5139  224.3267 H   0  0  0  0  0  0  0  0  0  0  0  0
  136.1274   74.0098  221.4497 H   0  0  0  0  0  0  0  0  0  0  0  0
  134.7271   74.5766  222.4130 H   0  0  0  0  0  0  0  0  0  0  0  0
  136.0138   76.3240  222.9625 H   0  0  0  0  0  0  0  0  0  0  0  0
  136.9065   75.1078  224.0230 H   0  0  0  0  0  0  0  0  0  0  0  0
  137.4999   78.2027  223.2586 H   0  0  0  0  0  0  0  0  0  0  0  0
  139.3426   79.8141  223.5031 H   0  0  0  0  0  0  0  0  0  0  0  0
  142.0942   76.8904  222.0575 H   0  0  0  0  0  0  0  0  0  0  0  0
  138.4900   73.6380  222.7070 H   0  0  0  0  0  0  0  0  0  0  0  0
  141.2900   71.6299  222.6319 H   0  0  0  0  0  0  0  0  0  0  0  0
  139.1478   69.1534  223.6757 H   0  0  0  0  0  0  0  0  0  0  0  0
  138.8369   68.1193  225.9180 H   0  0  0  0  0  0  0  0  0  0  0  0
  139.6946   69.3209  227.9379 H   0  0  0  0  0  0  0  0  0  0  0  0
  141.1393   72.5246  225.4238 H   0  0  0  0  0  0  0  0  0  0  0  0
  1  2  2  0
  2  3  1  0
  3  4  1  0
  4  5  1  0
  5  6  1  0
  6  7  1  0
  7  8  2  0
  8  9  1  0
  9 10  2  0
 10 11  1  0
 10 12  1  0
 12 13  2  0
 13 14  1  0
  2 15  1  0
 15 16  1  0
 16 17  2  0
 17 18  1  0
 18 19  2  0
 19 20  1  0
 20 21  2  0
 21 22  1  0
 22 23  1  0
 23 24  1  0
 23 25  1  0
 23 26  1  0
 22 27  2  0
 13  7  1  0
 27 18  1  0
  3 28  1  0
  3 29  1  0
  4 30  1  0
  4 31  1  0
  5 32  1  0
  5 33  1  0
  8 34  1  0
  9 35  1  0
 12 36  1  0
 15 37  1  0
 17 38  1  0
 19 39  1  0
 20 40  1  0
 21 41  1  0
 27 42  1  0
M  END
>  <smiles>  (47) 
O=C(CCCOc1ccc(Cl)cc1Cl)NN=Cc1cccc(C(F)(F)F)c1

>  <score_type>  (47) 
oracle

>  <origin>  (47) 
autodockgpu

>  <m_score__min__energy>  (47) 
-7.4800000000000004

>  <m_primary>  (47) 
energy

>  <rmsd>  (47) 
6.755917025772624

>  <m_score__min__rmsd>  (47) 
6.755917025772624

>  <meeko>  (47) 
{"free_energy": -6.2, "intermolecular_energy": -8.89, "internal_energy": -1.98, "cluster_size": 7, "cluster_id": 5, "rank_in_cluster": 4}

>  <energy>  (47) 
-5.66

>  <cluster_rmsd>  (47) 
0.0

>  <cluster>  (47) 
9

$$$$

     RDKit          3D

 42 43  0  0  0  0  0  0  0  0999 V2000
  139.5090   72.5770  220.2710 O   0  0  0  0  0  0  0  0  0  0  0  0
  138.6960   73.2870  220.9130 C   0  0  0  0  0  0  0  0  0  0  0  0
  137.4610   73.8760  220.4070 C   0  0  0  0  0  0  0  0  0  0  0  0
  137.4610   75.3410  220.1360 C   0  0  0  0  0  0  0  0  0  0  0  0
  137.3370   76.0810  221.4480 C   0  0  0  0  0  0  0  0  0  0  0  0
  138.4830   76.1680  222.1900 O   0  0  0  0  0  0  0  0  0  0  0  0
  139.2450   77.2420  222.5030 C   0  0  0  0  0  0  0  0  0  0  0  0
  138.8450   78.4120  223.0900 C   0  0  0  0  0  0  0  0  0  0  0  0
  139.7290   79.4500  223.3620 C   0  0  0  0  0  0  0  0  0  0  0  0
  141.0610   79.3520  223.0490 C   0  0  0  0  0  0  0  0  0  0  0  0
  142.1340   80.6820  223.4090 Cl  0  0  0  0  0  0  0  0  0  0  0  0
  141.4870   78.1830  222.4570 C   0  0  0  0  0  0  0  0  0  0  0  0
  140.6070   77.1610  222.1920 C   0  0  0  0  0  0  0  0  0  0  0  0
  141.2530   75.7070  221.4310 Cl  0  0  0  0  0  0  0  0  0  0  0  0
  139.0340   73.5330  222.2860 N   0  0  0  0  0  0  0  0  0  0  0  0
  140.2320   72.9500  222.7430 N   0  0  0  0  0  0  0  0  0  0  0  0
  140.4260   71.6980  222.8830 C   0  0  0  0  0  0  0  0  0  0  0  0
  140.1940   71.1060  224.1970 C   0  0  0  0  0  0  0  0  0  0  0  0
  139.4500   69.9460  224.2640 C   0  0  0  0  0  0  0  0  0  0  0  0
  139.1770   69.3100  225.4750 C   0  0  0  0  0  0  0  0  0  0  0  0
  139.6680   69.8640  226.6400 C   0  0  0  0  0  0  0  0  0  0  0  0
  140.4130   71.0290  226.5610 C   0  0  0  0  0  0  0  0  0  0  0  0
  140.9590   71.6570  227.7980 C   0  0  0  0  0  0  0  0  0  0  0  0
  141.5140   70.6430  228.5650 F   0  0  0  0  0  0  0  0  0  0  0  0
  139.9220   72.1890  228.5700 F   0  0  0  0  0  0  0  0  0  0  0  0
  141.8370   72.6700  227.5150 F   0  0  0  0  0  0  0  0  0  0  0  0
  140.6850   71.6610  225.3600 C   0  0  0  0  0  0  0  0  0  0  0  0
  137.2143   73.3660  219.4641 H   0  0  0  0  0  0  0  0  0  0  0  0
  136.7312   73.7400  221.2187 H   0  0  0  0  0  0  0  0  0  0  0  0
  138.4006   75.6247  219.6393 H   0  0  0  0  0  0  0  0  0  0  0  0
  136.6158   75.5991  219.4810 H   0  0  0  0  0  0  0  0  0  0  0  0
  136.9980   77.1041  221.2283 H   0  0  0  0  0  0  0  0  0  0  0  0
  136.6295   75.4978  222.0558 H   0  0  0  0  0  0  0  0  0  0  0  0
  137.7849   78.5356  223.3564 H   0  0  0  0  0  0  0  0  0  0  0  0
  139.3530   80.3679  223.8375 H   0  0  0  0  0  0  0  0  0  0  0  0
  142.5482   78.0658  222.1923 H   0  0  0  0  0  0  0  0  0  0  0  0
  138.4270   74.1130  222.9160 H   0  0  0  0  0  0  0  0  0  0  0  0
  140.7594   71.0801  222.0362 H   0  0  0  0  0  0  0  0  0  0  0  0
  139.0598   69.5090  223.3330 H   0  0  0  0  0  0  0  0  0  0  0  0
  138.5821   68.3851  225.5011 H   0  0  0  0  0  0  0  0  0  0  0  0
  139.4714   69.3893  227.6126 H   0  0  0  0  0  0  0  0  0  0  0  0
  141.2799   72.5859  225.3338 H   0  0  0  0  0  0  0  0  0  0  0  0
  1  2  2  0
  2  3  1  0
  3  4  1  0
  4  5  1  0
  5  6  1  0
  6  7  1  0
  7  8  2  0
  8  9  1  0
  9 10  2  0
 10 11  1  0
 10 12  1  0
 12 13  2  0
 13 14  1  0
  2 15  1  0
 15 16  1  0
 16 17  2  0
 17 18  1  0
 18 19  2  0
 19 20  1  0
 20 21  2  0
 21 22  1  0
 22 23  1  0
 23 24  1  0
 23 25  1  0
 23 26  1  0
 22 27  2  0
 13  7  1  0
 27 18  1  0
  3 28  1  0
  3 29  1  0
  4 30  1  0
  4 31  1  0
  5 32  1  0
  5 33  1  0
  8 34  1  0
  9 35  1  0
 12 36  1  0
 15 37  1  0
 17 38  1  0
 19 39  1  0
 20 40  1  0
 21 41  1  0
 27 42  1  0
M  END
>  <smiles>  (48) 
O=C(CCCOc1ccc(Cl)cc1Cl)NN=Cc1cccc(C(F)(F)F)c1

>  <score_type>  (48) 
oracle

>  <origin>  (48) 
autodockgpu

>  <m_score__min__energy>  (48) 
-7.4800000000000004

>  <m_primary>  (48) 
energy

>  <rmsd>  (48) 
6.021675066570642

>  <m_score__min__rmsd>  (48) 
6.021675066570642

>  <meeko>  (48) 
{"free_energy": -6.63, "intermolecular_energy": -9.32, "internal_energy": -1.73, "cluster_size": 22, "cluster_id": 1, "rank_in_cluster": 15}

>  <energy>  (48) 
-5.57

>  <cluster_rmsd>  (48) 
0.0

>  <cluster>  (48) 
10

$$$$

     RDKit          3D

 42 43  0  0  0  0  0  0  0  0999 V2000
  139.5620   74.9230  222.7160 O   0  0  0  0  0  0  0  0  0  0  0  0
  139.4680   74.3800  221.5880 C   0  0  0  0  0  0  0  0  0  0  0  0
  138.9730   74.9920  220.3610 C   0  0  0  0  0  0  0  0  0  0  0  0
  139.9830   75.5290  219.4060 C   0  0  0  0  0  0  0  0  0  0  0  0
  140.5010   74.3940  218.5540 C   0  0  0  0  0  0  0  0  0  0  0  0
  141.2350   73.4460  219.2120 O   0  0  0  0  0  0  0  0  0  0  0  0
  142.4680   73.5190  219.7640 C   0  0  0  0  0  0  0  0  0  0  0  0
  143.2540   74.6290  219.9170 C   0  0  0  0  0  0  0  0  0  0  0  0
  144.5150   74.5740  220.5020 C   0  0  0  0  0  0  0  0  0  0  0  0
  145.0380   73.3920  220.9590 C   0  0  0  0  0  0  0  0  0  0  0  0
  146.6250   73.3720  221.6870 Cl  0  0  0  0  0  0  0  0  0  0  0  0
  144.2650   72.2610  220.8150 C   0  0  0  0  0  0  0  0  0  0  0  0
  143.0200   72.3220  220.2360 C   0  0  0  0  0  0  0  0  0  0  0  0
  142.1100   70.8180  220.0980 Cl  0  0  0  0  0  0  0  0  0  0  0  0
  139.8990   73.0120  221.5190 N   0  0  0  0  0  0  0  0  0  0  0  0
  140.3720   72.4510  222.7210 N   0  0  0  0  0  0  0  0  0  0  0  0
  140.1900   71.2410  223.0820 C   0  0  0  0  0  0  0  0  0  0  0  0
  140.3950   70.9030  224.4860 C   0  0  0  0  0  0  0  0  0  0  0  0
  140.8550   71.8910  225.3320 C   0  0  0  0  0  0  0  0  0  0  0  0
  141.0800   71.6600  226.6890 C   0  0  0  0  0  0  0  0  0  0  0  0
  140.8340   70.4000  227.1960 C   0  0  0  0  0  0  0  0  0  0  0  0
  140.3710   69.4150  226.3380 C   0  0  0  0  0  0  0  0  0  0  0  0
  140.0940   68.0420  226.8510 C   0  0  0  0  0  0  0  0  0  0  0  0
  140.1040   68.1090  228.2350 F   0  0  0  0  0  0  0  0  0  0  0  0
  141.1370   67.1770  226.5070 F   0  0  0  0  0  0  0  0  0  0  0  0
  138.9330   67.5280  226.3360 F   0  0  0  0  0  0  0  0  0  0  0  0
  140.1480   69.6430  224.9920 C   0  0  0  0  0  0  0  0  0  0  0  0
  138.3856   74.2309  219.8265 H   0  0  0  0  0  0  0  0  0  0  0  0
  138.4060   75.8733  220.6954 H   0  0  0  0  0  0  0  0  0  0  0  0
  139.5160   76.2900  218.7635 H   0  0  0  0  0  0  0  0  0  0  0  0
  140.8142   75.9885  219.9610 H   0  0  0  0  0  0  0  0  0  0  0  0
  139.6355   73.8933  218.0955 H   0  0  0  0  0  0  0  0  0  0  0  0
  141.1870   74.8534  217.8272 H   0  0  0  0  0  0  0  0  0  0  0  0
  142.8749   75.5997  219.5647 H   0  0  0  0  0  0  0  0  0  0  0  0
  145.1044   75.4976  220.5999 H   0  0  0  0  0  0  0  0  0  0  0  0
  144.6503   71.2935  221.1691 H   0  0  0  0  0  0  0  0  0  0  0  0
  139.8660   72.4600  220.6280 H   0  0  0  0  0  0  0  0  0  0  0  0
  139.8868   70.4737  222.3545 H   0  0  0  0  0  0  0  0  0  0  0  0
  141.0506   72.8933  224.9231 H   0  0  0  0  0  0  0  0  0  0  0  0
  141.4462   72.4659  227.3421 H   0  0  0  0  0  0  0  0  0  0  0  0
  141.0023   70.1818  228.2609 H   0  0  0  0  0  0  0  0  0  0  0  0
  139.7816   68.8372  224.3389 H   0  0  0  0  0  0  0  0  0  0  0  0
  1  2  2  0
  2  3  1  0
  3  4  1  0
  4  5  1  0
  5  6  1  0
  6  7  1  0
  7  8  2  0
  8  9  1  0
  9 10  2  0
 10 11  1  0
 10 12  1  0
 12 13  2  0
 13 14  1  0
  2 15  1  0
 15 16  1  0
 16 17  2  0
 17 18  1  0
 18 19  2  0
 19 20  1  0
 20 21  2  0
 21 22  1  0
 22 23  1  0
 23 24  1  0
 23 25  1  0
 23 26  1  0
 22 27  2  0
 13  7  1  0
 27 18  1  0
  3 28  1  0
  3 29  1  0
  4 30  1  0
  4 31  1  0
  5 32  1  0
  5 33  1  0
  8 34  1  0
  9 35  1  0
 12 36  1  0
 15 37  1  0
 17 38  1  0
 19 39  1  0
 20 40  1  0
 21 41  1  0
 27 42  1  0
M  END
>  <smiles>  (49) 
O=C(CCCOc1ccc(Cl)cc1Cl)NN=Cc1cccc(C(F)(F)F)c1

>  <score_type>  (49) 
oracle

>  <origin>  (49) 
autodockgpu

>  <m_score__min__energy>  (49) 
-7.4800000000000004

>  <m_primary>  (49) 
energy

>  <rmsd>  (49) 
9.566306820690011

>  <m_score__min__rmsd>  (49) 
9.566306820690011

>  <meeko>  (49) 
{"free_energy": -6.06, "intermolecular_energy": -8.74, "internal_energy": -2.16, "cluster_size": 1, "cluster_id": 7, "rank_in_cluster": 1}

>  <energy>  (49) 
-5.37

>  <cluster_rmsd>  (49) 
0.0

>  <cluster>  (49) 
11

$$$$

     RDKit          3D

 42 43  0  0  0  0  0  0  0  0999 V2000
  140.7630   73.4770  222.3330 O   0  0  0  0  0  0  0  0  0  0  0  0
  140.8630   74.2880  221.3800 C   0  0  0  0  0  0  0  0  0  0  0  0
  141.8580   74.2660  220.3130 C   0  0  0  0  0  0  0  0  0  0  0  0
  142.6930   75.4860  220.1300 C   0  0  0  0  0  0  0  0  0  0  0  0
  141.9350   76.4720  219.2700 C   0  0  0  0  0  0  0  0  0  0  0  0
  141.1470   77.3630  219.9450 O   0  0  0  0  0  0  0  0  0  0  0  0
  141.4390   78.1830  220.9810 C   0  0  0  0  0  0  0  0  0  0  0  0
  141.4190   77.8870  222.3170 C   0  0  0  0  0  0  0  0  0  0  0  0
  141.7410   78.8240  223.2930 C   0  0  0  0  0  0  0  0  0  0  0  0
  142.0970   80.1060  222.9600 C   0  0  0  0  0  0  0  0  0  0  0  0
  142.4920   81.2490  224.2200 Cl  0  0  0  0  0  0  0  0  0  0  0  0
  142.1230   80.4280  221.6210 C   0  0  0  0  0  0  0  0  0  0  0  0
  141.8050   79.4960  220.6610 C   0  0  0  0  0  0  0  0  0  0  0  0
  141.8690   80.0080  218.9750 Cl  0  0  0  0  0  0  0  0  0  0  0  0
  139.8860   75.3390  221.3520 N   0  0  0  0  0  0  0  0  0  0  0  0
  138.9390   75.3320  222.3950 N   0  0  0  0  0  0  0  0  0  0  0  0
  137.8980   76.0680  222.4400 C   0  0  0  0  0  0  0  0  0  0  0  0
  138.0100   77.4490  221.9830 C   0  0  0  0  0  0  0  0  0  0  0  0
  137.8600   77.7010  220.6350 C   0  0  0  0  0  0  0  0  0  0  0  0
  137.9500   78.9890  220.1070 C   0  0  0  0  0  0  0  0  0  0  0  0
  138.1980   80.0410  220.9660 C   0  0  0  0  0  0  0  0  0  0  0  0
  138.3460   79.7770  222.3180 C   0  0  0  0  0  0  0  0  0  0  0  0
  138.6140   80.8880  223.2750 C   0  0  0  0  0  0  0  0  0  0  0  0
  139.1350   80.3220  224.4290 F   0  0  0  0  0  0  0  0  0  0  0  0
  137.4160   81.4950  223.6600 F   0  0  0  0  0  0  0  0  0  0  0  0
  139.4190   81.8530  222.7280 F   0  0  0  0  0  0  0  0  0  0  0  0
  138.2570   78.4990  222.8420 C   0  0  0  0  0  0  0  0  0  0  0  0
  142.5397   73.4266  220.5146 H   0  0  0  0  0  0  0  0  0  0  0  0
  141.2737   74.1828  219.3847 H   0  0  0  0  0  0  0  0  0  0  0  0
  142.9065   75.9381  221.1098 H   0  0  0  0  0  0  0  0  0  0  0  0
  143.6426   75.2189  219.6432 H   0  0  0  0  0  0  0  0  0  0  0  0
  142.6695   77.0454  218.6854 H   0  0  0  0  0  0  0  0  0  0  0  0
  141.2492   75.8698  218.6559 H   0  0  0  0  0  0  0  0  0  0  0  0
  141.1380   76.8707  222.6304 H   0  0  0  0  0  0  0  0  0  0  0  0
  141.7095   78.5312  224.3528 H   0  0  0  0  0  0  0  0  0  0  0  0
  142.4026   81.4468  221.3147 H   0  0  0  0  0  0  0  0  0  0  0  0
  139.8740   76.0720  220.6020 H   0  0  0  0  0  0  0  0  0  0  0  0
  136.9419   75.6722  222.8132 H   0  0  0  0  0  0  0  0  0  0  0  0
  137.6631   76.8593  219.9547 H   0  0  0  0  0  0  0  0  0  0  0  0
  137.8259   79.1630  219.0280 H   0  0  0  0  0  0  0  0  0  0  0  0
  138.2766   81.0696  220.5841 H   0  0  0  0  0  0  0  0  0  0  0  0
  138.3807   78.3246  223.9210 H   0  0  0  0  0  0  0  0  0  0  0  0
  1  2  2  0
  2  3  1  0
  3  4  1  0
  4  5  1  0
  5  6  1  0
  6  7  1  0
  7  8  2  0
  8  9  1  0
  9 10  2  0
 10 11  1  0
 10 12  1  0
 12 13  2  0
 13 14  1  0
  2 15  1  0
 15 16  1  0
 16 17  2  0
 17 18  1  0
 18 19  2  0
 19 20  1  0
 20 21  2  0
 21 22  1  0
 22 23  1  0
 23 24  1  0
 23 25  1  0
 23 26  1  0
 22 27  2  0
 13  7  1  0
 27 18  1  0
  3 28  1  0
  3 29  1  0
  4 30  1  0
  4 31  1  0
  5 32  1  0
  5 33  1  0
  8 34  1  0
  9 35  1  0
 12 36  1  0
 15 37  1  0
 17 38  1  0
 19 39  1  0
 20 40  1  0
 21 41  1  0
 27 42  1  0
M  END
>  <smiles>  (50) 
O=C(CCCOc1ccc(Cl)cc1Cl)NN=Cc1cccc(C(F)(F)F)c1

>  <score_type>  (50) 
oracle

>  <origin>  (50) 
autodockgpu

>  <m_score__min__energy>  (50) 
-7.4800000000000004

>  <m_primary>  (50) 
energy

>  <rmsd>  (50) 
5.754603035985682

>  <m_score__min__rmsd>  (50) 
5.754603035985682

>  <meeko>  (50) 
{"free_energy": -4.44, "intermolecular_energy": -7.13, "internal_energy": -3.38, "cluster_size": 1, "cluster_id": 12, "rank_in_cluster": 1}

>  <energy>  (50) 
-4.44

>  <cluster_rmsd>  (50) 
0.0

>  <cluster>  (50) 
12

$$$$

     RDKit          3D

 42 43  0  0  0  0  0  0  0  0999 V2000
  141.0390   75.7930  218.8670 O   0  0  0  0  0  0  0  0  0  0  0  0
  142.0210   76.1510  219.5740 C   0  0  0  0  0  0  0  0  0  0  0  0
  142.7310   75.1870  220.4810 C   0  0  0  0  0  0  0  0  0  0  0  0
  141.9150   73.9190  220.4670 C   0  0  0  0  0  0  0  0  0  0  0  0
  140.8590   73.9020  221.5760 C   0  0  0  0  0  0  0  0  0  0  0  0
  140.3830   75.0470  221.9480 O   0  0  0  0  0  0  0  0  0  0  0  0
  139.8880   76.1670  222.3030 C   0  0  0  0  0  0  0  0  0  0  0  0
  140.6940   77.2570  222.6610 C   0  0  0  0  0  0  0  0  0  0  0  0
  140.1780   78.4670  223.0440 C   0  0  0  0  0  0  0  0  0  0  0  0
  138.8140   78.5990  223.0770 C   0  0  0  0  0  0  0  0  0  0  0  0
  138.1480   80.1320  223.5640 Cl  0  0  0  0  0  0  0  0  0  0  0  0
  137.9550   77.5770  222.7420 C   0  0  0  0  0  0  0  0  0  0  0  0
  138.5050   76.3860  222.3640 C   0  0  0  0  0  0  0  0  0  0  0  0
  137.4590   75.0520  221.9280 Cl  0  0  0  0  0  0  0  0  0  0  0  0
  142.4650   77.5270  219.4980 N   0  0  0  0  0  0  0  0  0  0  0  0
  141.7790   78.3540  218.6540 N   0  0  0  0  0  0  0  0  0  0  0  0
  141.6600   79.5940  218.8670 C   0  0  0  0  0  0  0  0  0  0  0  0
  141.5290   80.3070  220.1100 C   0  0  0  0  0  0  0  0  0  0  0  0
  140.5370   81.2990  220.1540 C   0  0  0  0  0  0  0  0  0  0  0  0
  140.3280   82.0390  221.2930 C   0  0  0  0  0  0  0  0  0  0  0  0
  141.0590   81.8650  222.4480 C   0  0  0  0  0  0  0  0  0  0  0  0
  142.0350   80.8940  222.4160 C   0  0  0  0  0  0  0  0  0  0  0  0
  142.8600   80.6530  223.6260 C   0  0  0  0  0  0  0  0  0  0  0  0
  142.4300   79.4580  224.1950 F   0  0  0  0  0  0  0  0  0  0  0  0
  142.7130   81.6340  224.5680 F   0  0  0  0  0  0  0  0  0  0  0  0
  144.1980   80.5210  223.3020 F   0  0  0  0  0  0  0  0  0  0  0  0
  142.2440   80.1400  221.2470 C   0  0  0  0  0  0  0  0  0  0  0  0
  143.7473   74.9908  220.1087 H   0  0  0  0  0  0  0  0  0  0  0  0
  142.8273   75.5910  221.4996 H   0  0  0  0  0  0  0  0  0  0  0  0
  141.4091   73.8334  219.4940 H   0  0  0  0  0  0  0  0  0  0  0  0
  142.5986   73.0741  220.6368 H   0  0  0  0  0  0  0  0  0  0  0  0
  140.0158   73.2902  221.2229 H   0  0  0  0  0  0  0  0  0  0  0  0
  141.3783   73.5057  222.4610 H   0  0  0  0  0  0  0  0  0  0  0  0
  141.7869   77.1355  222.6332 H   0  0  0  0  0  0  0  0  0  0  0  0
  140.8366   79.3050  223.3161 H   0  0  0  0  0  0  0  0  0  0  0  0
  136.8643   77.7150  222.7776 H   0  0  0  0  0  0  0  0  0  0  0  0
  143.2610   77.8790  220.0770 H   0  0  0  0  0  0  0  0  0  0  0  0
  141.6559   80.2239  217.9652 H   0  0  0  0  0  0  0  0  0  0  0  0
  139.9181   81.4868  219.2642 H   0  0  0  0  0  0  0  0  0  0  0  0
  139.5400   82.8064  221.2821 H   0  0  0  0  0  0  0  0  0  0  0  0
  140.8728   82.4696  223.3479 H   0  0  0  0  0  0  0  0  0  0  0  0
  143.0319   79.3724  221.2575 H   0  0  0  0  0  0  0  0  0  0  0  0
  1  2  2  0
  2  3  1  0
  3  4  1  0
  4  5  1  0
  5  6  1  0
  6  7  1  0
  7  8  2  0
  8  9  1  0
  9 10  2  0
 10 11  1  0
 10 12  1  0
 12 13  2  0
 13 14  1  0
  2 15  1  0
 15 16  1  0
 16 17  2  0
 17 18  1  0
 18 19  2  0
 19 20  1  0
 20 21  2  0
 21 22  1  0
 22 23  1  0
 23 24  1  0
 23 25  1  0
 23 26  1  0
 22 27  2  0
 13  7  1  0
 27 18  1  0
  3 28  1  0
  3 29  1  0
  4 30  1  0
  4 31  1  0
  5 32  1  0
  5 33  1  0
  8 34  1  0
  9 35  1  0
 12 36  1  0
 15 37  1  0
 17 38  1  0
 19 39  1  0
 20 40  1  0
 21 41  1  0
 27 42  1  0
M  END
>  <smiles>  (51) 
O=C(CCCOc1ccc(Cl)cc1Cl)NN=Cc1cccc(C(F)(F)F)c1

>  <score_type>  (51) 
oracle

>  <origin>  (51) 
autodockgpu

>  <m_score__min__energy>  (51) 
-7.5199999999999996

>  <m_primary>  (51) 
energy

>  <rmsd>  (51) 
7.66797775020703

>  <m_score__min__rmsd>  (51) 
7.66797775020703

>  <meeko>  (51) 
{"free_energy": -5.31, "intermolecular_energy": -8.0, "internal_energy": -2.05, "cluster_size": 1, "cluster_id": 12, "rank_in_cluster": 1}

>  <energy>  (51) 
-7.52

>  <cluster_rmsd>  (51) 
0.0

>  <cluster>  (51) 
1

$$$$

     RDKit          3D

 42 43  0  0  0  0  0  0  0  0999 V2000
  140.9040   74.5480  220.6550 O   0  0  0  0  0  0  0  0  0  0  0  0
  139.8300   74.8280  221.2560 C   0  0  0  0  0  0  0  0  0  0  0  0
  138.9860   76.0020  220.8520 C   0  0  0  0  0  0  0  0  0  0  0  0
  138.4110   76.5670  222.1270 C   0  0  0  0  0  0  0  0  0  0  0  0
  136.9120   76.2820  222.2580 C   0  0  0  0  0  0  0  0  0  0  0  0
  136.5750   75.1100  222.6930 O   0  0  0  0  0  0  0  0  0  0  0  0
  136.2200   73.9690  223.1350 C   0  0  0  0  0  0  0  0  0  0  0  0
  136.5800   72.7760  222.4910 C   0  0  0  0  0  0  0  0  0  0  0  0
  136.2060   71.5420  222.9530 C   0  0  0  0  0  0  0  0  0  0  0  0
  135.4460   71.4880  224.0930 C   0  0  0  0  0  0  0  0  0  0  0  0
  134.9660   69.9240  224.6880 Cl  0  0  0  0  0  0  0  0  0  0  0  0
  135.0520   72.6120  224.7820 C   0  0  0  0  0  0  0  0  0  0  0  0
  135.4430   73.8250  224.2930 C   0  0  0  0  0  0  0  0  0  0  0  0
  134.9690   75.2870  225.1300 Cl  0  0  0  0  0  0  0  0  0  0  0  0
  139.4130   73.9880  222.3600 N   0  0  0  0  0  0  0  0  0  0  0  0
  140.2240   72.9360  222.6780 N   0  0  0  0  0  0  0  0  0  0  0  0
  139.7700   71.8190  223.0580 C   0  0  0  0  0  0  0  0  0  0  0  0
  139.8980   71.1590  224.3300 C   0  0  0  0  0  0  0  0  0  0  0  0
  139.5060   69.8110  224.3710 C   0  0  0  0  0  0  0  0  0  0  0  0
  139.5880   69.0870  225.5360 C   0  0  0  0  0  0  0  0  0  0  0  0
  140.0480   69.6180  226.7220 C   0  0  0  0  0  0  0  0  0  0  0  0
  140.4350   70.9400  226.6920 C   0  0  0  0  0  0  0  0  0  0  0  0
  140.9420   71.5750  227.9340 C   0  0  0  0  0  0  0  0  0  0  0  0
  141.7920   72.6120  227.5580 F   0  0  0  0  0  0  0  0  0  0  0  0
  141.6650   70.7120  228.7110 F   0  0  0  0  0  0  0  0  0  0  0  0
  139.9090   72.1130  228.6800 F   0  0  0  0  0  0  0  0  0  0  0  0
  140.3500   71.6750  225.4970 C   0  0  0  0  0  0  0  0  0  0  0  0
  139.6028   76.7581  220.3442 H   0  0  0  0  0  0  0  0  0  0  0  0
  138.1914   75.7022  220.1529 H   0  0  0  0  0  0  0  0  0  0  0  0
  138.9341   76.1155  222.9828 H   0  0  0  0  0  0  0  0  0  0  0  0
  138.5481   77.6582  222.1064 H   0  0  0  0  0  0  0  0  0  0  0  0
  136.4911   77.0269  222.9494 H   0  0  0  0  0  0  0  0  0  0  0  0
  136.5197   76.3309  221.2315 H   0  0  0  0  0  0  0  0  0  0  0  0
  137.1883   72.8339  221.5764 H   0  0  0  0  0  0  0  0  0  0  0  0
  136.5057   70.6239  222.4265 H   0  0  0  0  0  0  0  0  0  0  0  0
  134.4432   72.5357  225.6950 H   0  0  0  0  0  0  0  0  0  0  0  0
  138.5430   74.1890  222.9030 H   0  0  0  0  0  0  0  0  0  0  0  0
  139.1898   71.2689  222.3025 H   0  0  0  0  0  0  0  0  0  0  0  0
  139.1281   69.3281  223.4578 H   0  0  0  0  0  0  0  0  0  0  0  0
  139.2715   68.0336  225.5215 H   0  0  0  0  0  0  0  0  0  0  0  0
  140.1031   69.0186  227.6427 H   0  0  0  0  0  0  0  0  0  0  0  0
  140.6684   72.7278  225.5108 H   0  0  0  0  0  0  0  0  0  0  0  0
  1  2  2  0
  2  3  1  0
  3  4  1  0
  4  5  1  0
  5  6  1  0
  6  7  1  0
  7  8  2  0
  8  9  1  0
  9 10  2  0
 10 11  1  0
 10 12  1  0
 12 13  2  0
 13 14  1  0
  2 15  1  0
 15 16  1  0
 16 17  2  0
 17 18  1  0
 18 19  2  0
 19 20  1  0
 20 21  2  0
 21 22  1  0
 22 23  1  0
 23 24  1  0
 23 25  1  0
 23 26  1  0
 22 27  2  0
 13  7  1  0
 27 18  1  0
  3 28  1  0
  3 29  1  0
  4 30  1  0
  4 31  1  0
  5 32  1  0
  5 33  1  0
  8 34  1  0
  9 35  1  0
 12 36  1  0
 15 37  1  0
 17 38  1  0
 19 39  1  0
 20 40  1  0
 21 41  1  0
 27 42  1  0
M  END
>  <smiles>  (52) 
O=C(CCCOc1ccc(Cl)cc1Cl)NN=Cc1cccc(C(F)(F)F)c1

>  <score_type>  (52) 
oracle

>  <origin>  (52) 
autodockgpu

>  <m_score__min__energy>  (52) 
-7.5199999999999996

>  <m_primary>  (52) 
energy

>  <rmsd>  (52) 
10.07413468430659

>  <m_score__min__rmsd>  (52) 
10.07413468430659

>  <meeko>  (52) 
{"free_energy": -5.58, "intermolecular_energy": -8.27, "internal_energy": -2.3, "cluster_size": 12, "cluster_id": 9, "rank_in_cluster": 7}

>  <energy>  (52) 
-7.42

>  <cluster_rmsd>  (52) 
0.26

>  <cluster>  (52) 
1

$$$$

     RDKit          3D

 42 43  0  0  0  0  0  0  0  0999 V2000
  141.0960   75.5360  221.5390 O   0  0  0  0  0  0  0  0  0  0  0  0
  139.9050   75.4020  221.9360 C   0  0  0  0  0  0  0  0  0  0  0  0
  138.9450   76.5570  221.9470 C   0  0  0  0  0  0  0  0  0  0  0  0
  137.8780   76.2070  222.9540 C   0  0  0  0  0  0  0  0  0  0  0  0
  136.7160   75.4380  222.3170 C   0  0  0  0  0  0  0  0  0  0  0  0
  136.3600   74.3350  222.8930 O   0  0  0  0  0  0  0  0  0  0  0  0
  135.9930   73.2420  223.4360 C   0  0  0  0  0  0  0  0  0  0  0  0
  136.4280   71.9940  222.9670 C   0  0  0  0  0  0  0  0  0  0  0  0
  136.0430   70.8110  223.5400 C   0  0  0  0  0  0  0  0  0  0  0  0
  135.1930   70.8660  224.6140 C   0  0  0  0  0  0  0  0  0  0  0  0
  134.6970   69.3670  225.3490 Cl  0  0  0  0  0  0  0  0  0  0  0  0
  134.7210   72.0500  225.1330 C   0  0  0  0  0  0  0  0  0  0  0  0
  135.1260   73.2090  224.5380 C   0  0  0  0  0  0  0  0  0  0  0  0
  134.5550   74.7440  225.1570 Cl  0  0  0  0  0  0  0  0  0  0  0  0
  139.4670   74.0980  222.3890 N   0  0  0  0  0  0  0  0  0  0  0  0
  140.3870   73.0890  222.3540 N   0  0  0  0  0  0  0  0  0  0  0  0
  140.1120   71.9060  222.7040 C   0  0  0  0  0  0  0  0  0  0  0  0
  139.9800   71.3440  224.0220 C   0  0  0  0  0  0  0  0  0  0  0  0
  139.2320   70.1600  224.1190 C   0  0  0  0  0  0  0  0  0  0  0  0
  139.0440   69.5410  225.3320 C   0  0  0  0  0  0  0  0  0  0  0  0
  139.5630   70.0250  226.5130 C   0  0  0  0  0  0  0  0  0  0  0  0
  140.2990   71.1860  226.4280 C   0  0  0  0  0  0  0  0  0  0  0  0
  140.8880   71.7630  227.6630 C   0  0  0  0  0  0  0  0  0  0  0  0
  141.4790   70.7210  228.3720 F   0  0  0  0  0  0  0  0  0  0  0  0
  139.9510   72.3360  228.4770 F   0  0  0  0  0  0  0  0  0  0  0  0
  141.8690   72.6910  227.3640 F   0  0  0  0  0  0  0  0  0  0  0  0
  140.4880   71.8150  225.1850 C   0  0  0  0  0  0  0  0  0  0  0  0
  139.4628   77.4805  222.2453 H   0  0  0  0  0  0  0  0  0  0  0  0
  138.5141   76.7299  220.9498 H   0  0  0  0  0  0  0  0  0  0  0  0
  138.3252   75.5847  223.7431 H   0  0  0  0  0  0  0  0  0  0  0  0
  137.4786   77.1458  223.3652 H   0  0  0  0  0  0  0  0  0  0  0  0
  135.8415   76.1052  222.3067 H   0  0  0  0  0  0  0  0  0  0  0  0
  137.0798   75.1388  221.3229 H   0  0  0  0  0  0  0  0  0  0  0  0
  137.1072   71.9639  222.1023 H   0  0  0  0  0  0  0  0  0  0  0  0
  136.4043   69.8477  223.1508 H   0  0  0  0  0  0  0  0  0  0  0  0
  134.0409   72.0615  225.9975 H   0  0  0  0  0  0  0  0  0  0  0  0
  138.4980   73.9390  222.7460 H   0  0  0  0  0  0  0  0  0  0  0  0
  139.9491   71.1998  221.8765 H   0  0  0  0  0  0  0  0  0  0  0  0
  138.7903   69.7216  223.2120 H   0  0  0  0  0  0  0  0  0  0  0  0
  138.4509   68.6151  225.3611 H   0  0  0  0  0  0  0  0  0  0  0  0
  139.3984   69.5119  227.4720 H   0  0  0  0  0  0  0  0  0  0  0  0
  141.0813   72.7408  225.1559 H   0  0  0  0  0  0  0  0  0  0  0  0
  1  2  2  0
  2  3  1  0
  3  4  1  0
  4  5  1  0
  5  6  1  0
  6  7  1  0
  7  8  2  0
  8  9  1  0
  9 10  2  0
 10 11  1  0
 10 12  1  0
 12 13  2  0
 13 14  1  0
  2 15  1  0
 15 16  1  0
 16 17  2  0
 17 18  1  0
 18 19  2  0
 19 20  1  0
 20 21  2  0
 21 22  1  0
 22 23  1  0
 23 24  1  0
 23 25  1  0
 23 26  1  0
 22 27  2  0
 13  7  1  0
 27 18  1  0
  3 28  1  0
  3 29  1  0
  4 30  1  0
  4 31  1  0
  5 32  1  0
  5 33  1  0
  8 34  1  0
  9 35  1  0
 12 36  1  0
 15 37  1  0
 17 38  1  0
 19 39  1  0
 20 40  1  0
 21 41  1  0
 27 42  1  0
M  END
>  <smiles>  (53) 
O=C(CCCOc1ccc(Cl)cc1Cl)NN=Cc1cccc(C(F)(F)F)c1

>  <score_type>  (53) 
oracle

>  <origin>  (53) 
autodockgpu

>  <m_score__min__energy>  (53) 
-7.5199999999999996

>  <m_primary>  (53) 
energy

>  <rmsd>  (53) 
10.855565240414329

>  <m_score__min__rmsd>  (53) 
10.855565240414329

>  <meeko>  (53) 
{"free_energy": -5.61, "intermolecular_energy": -8.3, "internal_energy": -2.37, "cluster_size": 12, "cluster_id": 9, "rank_in_cluster": 6}

>  <energy>  (53) 
-6.99

>  <cluster_rmsd>  (53) 
0.63

>  <cluster>  (53) 
1

$$$$

     RDKit          3D

 42 43  0  0  0  0  0  0  0  0999 V2000
  138.6980   72.5620  220.4560 O   0  0  0  0  0  0  0  0  0  0  0  0
  138.2790   73.4170  221.2850 C   0  0  0  0  0  0  0  0  0  0  0  0
  136.8630   73.9150  221.2530 C   0  0  0  0  0  0  0  0  0  0  0  0
  136.5600   74.4130  222.6440 C   0  0  0  0  0  0  0  0  0  0  0  0
  136.4670   75.9400  222.7020 C   0  0  0  0  0  0  0  0  0  0  0  0
  137.5840   76.5940  222.7110 O   0  0  0  0  0  0  0  0  0  0  0  0
  138.6690   77.2640  222.7160 C   0  0  0  0  0  0  0  0  0  0  0  0
  139.9090   76.6730  222.4370 C   0  0  0  0  0  0  0  0  0  0  0  0
  141.0840   77.3780  222.4390 C   0  0  0  0  0  0  0  0  0  0  0  0
  141.0260   78.7170  222.7280 C   0  0  0  0  0  0  0  0  0  0  0  0
  142.5140   79.6220  222.7330 Cl  0  0  0  0  0  0  0  0  0  0  0  0
  139.8490   79.3700  223.0130 C   0  0  0  0  0  0  0  0  0  0  0  0
  138.6980   78.6360  223.0020 C   0  0  0  0  0  0  0  0  0  0  0  0
  137.1730   79.4160  223.3580 Cl  0  0  0  0  0  0  0  0  0  0  0  0
  139.1960   73.9200  222.2870 N   0  0  0  0  0  0  0  0  0  0  0  0
  140.4700   73.4270  222.2630 N   0  0  0  0  0  0  0  0  0  0  0  0
  140.7520   72.2570  222.6480 C   0  0  0  0  0  0  0  0  0  0  0  0
  140.2440   71.5080  223.7670 C   0  0  0  0  0  0  0  0  0  0  0  0
  139.1440   70.6760  223.5070 C   0  0  0  0  0  0  0  0  0  0  0  0
  138.5810   69.9180  224.5060 C   0  0  0  0  0  0  0  0  0  0  0  0
  139.0430   69.9190  225.8040 C   0  0  0  0  0  0  0  0  0  0  0  0
  140.1220   70.7330  226.0690 C   0  0  0  0  0  0  0  0  0  0  0  0
  140.6720   70.7820  227.4470 C   0  0  0  0  0  0  0  0  0  0  0  0
  141.4920   71.9040  227.5310 F   0  0  0  0  0  0  0  0  0  0  0  0
  141.4380   69.6900  227.7490 F   0  0  0  0  0  0  0  0  0  0  0  0
  139.6640   70.9130  228.3850 F   0  0  0  0  0  0  0  0  0  0  0  0
  140.6950   71.5060  225.0430 C   0  0  0  0  0  0  0  0  0  0  0  0
  136.7631   74.7334  220.5249 H   0  0  0  0  0  0  0  0  0  0  0  0
  136.1654   73.1198  220.9514 H   0  0  0  0  0  0  0  0  0  0  0  0
  135.6006   73.9866  222.9721 H   0  0  0  0  0  0  0  0  0  0  0  0
  137.3829   74.0987  223.3028 H   0  0  0  0  0  0  0  0  0  0  0  0
  135.8945   76.2719  221.8233 H   0  0  0  0  0  0  0  0  0  0  0  0
  135.9961   76.1625  223.6709 H   0  0  0  0  0  0  0  0  0  0  0  0
  139.9402   75.5978  222.2067 H   0  0  0  0  0  0  0  0  0  0  0  0
  142.0422   76.8859  222.2161 H   0  0  0  0  0  0  0  0  0  0  0  0
  139.8359   80.4459  223.2417 H   0  0  0  0  0  0  0  0  0  0  0  0
  138.9040   74.6430  222.9830 H   0  0  0  0  0  0  0  0  0  0  0  0
  141.4989   71.7313  222.0350 H   0  0  0  0  0  0  0  0  0  0  0  0
  138.7268   70.6299  222.4902 H   0  0  0  0  0  0  0  0  0  0  0  0
  137.7202   69.2799  224.2571 H   0  0  0  0  0  0  0  0  0  0  0  0
  138.5754   69.3031  226.5863 H   0  0  0  0  0  0  0  0  0  0  0  0
  141.5564   72.1434  225.2912 H   0  0  0  0  0  0  0  0  0  0  0  0
  1  2  2  0
  2  3  1  0
  3  4  1  0
  4  5  1  0
  5  6  1  0
  6  7  1  0
  7  8  2  0
  8  9  1  0
  9 10  2  0
 10 11  1  0
 10 12  1  0
 12 13  2  0
 13 14  1  0
  2 15  1  0
 15 16  1  0
 16 17  2  0
 17 18  1  0
 18 19  2  0
 19 20  1  0
 20 21  2  0
 21 22  1  0
 22 23  1  0
 23 24  1  0
 23 25  1  0
 23 26  1  0
 22 27  2  0
 13  7  1  0
 27 18  1  0
  3 28  1  0
  3 29  1  0
  4 30  1  0
  4 31  1  0
  5 32  1  0
  5 33  1  0
  8 34  1  0
  9 35  1  0
 12 36  1  0
 15 37  1  0
 17 38  1  0
 19 39  1  0
 20 40  1  0
 21 41  1  0
 27 42  1  0
M  END
>  <smiles>  (54) 
O=C(CCCOc1ccc(Cl)cc1Cl)NN=Cc1cccc(C(F)(F)F)c1

>  <score_type>  (54) 
oracle

>  <origin>  (54) 
autodockgpu

>  <m_score__min__energy>  (54) 
-7.5199999999999996

>  <m_primary>  (54) 
energy

>  <rmsd>  (54) 
6.561164506341426

>  <m_score__min__rmsd>  (54) 
6.561164506341426

>  <meeko>  (54) 
{"free_energy": -5.97, "intermolecular_energy": -8.65, "internal_energy": -1.52, "cluster_size": 11, "cluster_id": 1, "rank_in_cluster": 11}

>  <energy>  (54) 
-6.94

>  <cluster_rmsd>  (54) 
1.57

>  <cluster>  (54) 
1

$$$$

     RDKit          3D

 42 43  0  0  0  0  0  0  0  0999 V2000
  140.2200   71.2290  223.1480 O   0  0  0  0  0  0  0  0  0  0  0  0
  138.9710   71.1200  222.9980 C   0  0  0  0  0  0  0  0  0  0  0  0
  138.1240   72.2860  222.5780 C   0  0  0  0  0  0  0  0  0  0  0  0
  138.7890   72.8720  221.3580 C   0  0  0  0  0  0  0  0  0  0  0  0
  140.1050   73.5740  221.7010 C   0  0  0  0  0  0  0  0  0  0  0  0
  140.0340   74.8270  222.0210 O   0  0  0  0  0  0  0  0  0  0  0  0
  139.9330   76.0570  222.3400 C   0  0  0  0  0  0  0  0  0  0  0  0
  141.0590   76.8800  222.4950 C   0  0  0  0  0  0  0  0  0  0  0  0
  140.9680   78.2030  222.8370 C   0  0  0  0  0  0  0  0  0  0  0  0
  139.7170   78.7300  223.0320 C   0  0  0  0  0  0  0  0  0  0  0  0
  139.5910   80.4110  223.4670 Cl  0  0  0  0  0  0  0  0  0  0  0  0
  138.5650   77.9890  222.9000 C   0  0  0  0  0  0  0  0  0  0  0  0
  138.6940   76.6730  222.5580 C   0  0  0  0  0  0  0  0  0  0  0  0
  137.2610   75.6840  222.3760 Cl  0  0  0  0  0  0  0  0  0  0  0  0
  138.3540   69.8320  223.2390 N   0  0  0  0  0  0  0  0  0  0  0  0
  139.1780   68.8110  223.6180 N   0  0  0  0  0  0  0  0  0  0  0  0
  139.1400   68.3010  224.7740 C   0  0  0  0  0  0  0  0  0  0  0  0
  139.7850   68.7230  225.9890 C   0  0  0  0  0  0  0  0  0  0  0  0
  140.2220   67.7020  226.8470 C   0  0  0  0  0  0  0  0  0  0  0  0
  140.8490   67.9970  228.0330 C   0  0  0  0  0  0  0  0  0  0  0  0
  141.0900   69.2850  228.4580 C   0  0  0  0  0  0  0  0  0  0  0  0
  140.6650   70.2950  227.6230 C   0  0  0  0  0  0  0  0  0  0  0  0
  140.8920   71.7080  228.0190 C   0  0  0  0  0  0  0  0  0  0  0  0
  139.7550   72.1420  228.6940 F   0  0  0  0  0  0  0  0  0  0  0  0
  141.0740   72.5340  226.9440 F   0  0  0  0  0  0  0  0  0  0  0  0
  141.9710   71.8200  228.8760 F   0  0  0  0  0  0  0  0  0  0  0  0
  140.0230   69.9880  226.4100 C   0  0  0  0  0  0  0  0  0  0  0  0
  137.1061   71.9489  222.3325 H   0  0  0  0  0  0  0  0  0  0  0  0
  138.0384   73.0299  223.3838 H   0  0  0  0  0  0  0  0  0  0  0  0
  138.9950   72.0620  220.6428 H   0  0  0  0  0  0  0  0  0  0  0  0
  138.1078   73.6208  220.9276 H   0  0  0  0  0  0  0  0  0  0  0  0
  140.5557   73.0391  222.5500 H   0  0  0  0  0  0  0  0  0  0  0  0
  140.6948   73.5477  220.7728 H   0  0  0  0  0  0  0  0  0  0  0  0
  142.0563   76.4443  222.3351 H   0  0  0  0  0  0  0  0  0  0  0  0
  141.8694   78.8230  222.9516 H   0  0  0  0  0  0  0  0  0  0  0  0
  137.5754   78.4405  223.0641 H   0  0  0  0  0  0  0  0  0  0  0  0
  137.3220   69.6940  223.1480 H   0  0  0  0  0  0  0  0  0  0  0  0
  138.5195   67.3972  224.8649 H   0  0  0  0  0  0  0  0  0  0  0  0
  140.0602   66.6509  226.5658 H   0  0  0  0  0  0  0  0  0  0  0  0
  141.1744   67.1646  228.6743 H   0  0  0  0  0  0  0  0  0  0  0  0
  141.5945   69.4957  229.4125 H   0  0  0  0  0  0  0  0  0  0  0  0
  139.6966   70.8200  225.7687 H   0  0  0  0  0  0  0  0  0  0  0  0
  1  2  2  0
  2  3  1  0
  3  4  1  0
  4  5  1  0
  5  6  1  0
  6  7  1  0
  7  8  2  0
  8  9  1  0
  9 10  2  0
 10 11  1  0
 10 12  1  0
 12 13  2  0
 13 14  1  0
  2 15  1  0
 15 16  1  0
 16 17  2  0
 17 18  1  0
 18 19  2  0
 19 20  1  0
 20 21  2  0
 21 22  1  0
 22 23  1  0
 23 24  1  0
 23 25  1  0
 23 26  1  0
 22 27  2  0
 13  7  1  0
 27 18  1  0
  3 28  1  0
  3 29  1  0
  4 30  1  0
  4 31  1  0
  5 32  1  0
  5 33  1  0
  8 34  1  0
  9 35  1  0
 12 36  1  0
 15 37  1  0
 17 38  1  0
 19 39  1  0
 20 40  1  0
 21 41  1  0
 27 42  1  0
M  END
>  <smiles>  (55) 
O=C(CCCOc1ccc(Cl)cc1Cl)NN=Cc1cccc(C(F)(F)F)c1

>  <score_type>  (55) 
oracle

>  <origin>  (55) 
autodockgpu

>  <m_score__min__energy>  (55) 
-7.5199999999999996

>  <m_primary>  (55) 
energy

>  <rmsd>  (55) 
7.7312586972376165

>  <m_score__min__rmsd>  (55) 
7.7312586972376165

>  <meeko>  (55) 
{"free_energy": -6.74, "intermolecular_energy": -9.42, "internal_energy": -0.88, "cluster_size": 1, "cluster_id": 4, "rank_in_cluster": 1}

>  <energy>  (55) 
-6.82

>  <cluster_rmsd>  (55) 
2.0

>  <cluster>  (55) 
1

$$$$

     RDKit          3D

 42 43  0  0  0  0  0  0  0  0999 V2000
  139.7460   73.7700  220.3130 O   0  0  0  0  0  0  0  0  0  0  0  0
  139.0920   73.9460  221.3780 C   0  0  0  0  0  0  0  0  0  0  0  0
  137.8390   73.1720  221.6690 C   0  0  0  0  0  0  0  0  0  0  0  0
  138.2770   71.7670  221.9950 C   0  0  0  0  0  0  0  0  0  0  0  0
  139.7240   71.7170  222.4950 C   0  0  0  0  0  0  0  0  0  0  0  0
  139.9290   71.1390  223.6350 O   0  0  0  0  0  0  0  0  0  0  0  0
  140.1040   70.5570  224.7560 C   0  0  0  0  0  0  0  0  0  0  0  0
  140.8030   71.1640  225.8090 C   0  0  0  0  0  0  0  0  0  0  0  0
  141.0000   70.5520  227.0190 C   0  0  0  0  0  0  0  0  0  0  0  0
  140.4870   69.2920  227.1900 C   0  0  0  0  0  0  0  0  0  0  0  0
  140.7330   68.5050  228.7230 Cl  0  0  0  0  0  0  0  0  0  0  0  0
  139.7910   68.6290  226.2050 C   0  0  0  0  0  0  0  0  0  0  0  0
  139.6140   69.2690  225.0130 C   0  0  0  0  0  0  0  0  0  0  0  0
  138.7360   68.4710  223.7260 Cl  0  0  0  0  0  0  0  0  0  0  0  0
  139.5740   74.9210  222.3350 N   0  0  0  0  0  0  0  0  0  0  0  0
  140.7190   75.5910  222.0120 N   0  0  0  0  0  0  0  0  0  0  0  0
  140.7130   76.7840  221.5940 C   0  0  0  0  0  0  0  0  0  0  0  0
  140.5880   78.0160  222.3270 C   0  0  0  0  0  0  0  0  0  0  0  0
  141.7880   78.6420  222.6980 C   0  0  0  0  0  0  0  0  0  0  0  0
  141.7810   79.8220  223.4010 C   0  0  0  0  0  0  0  0  0  0  0  0
  140.6230   80.4630  223.7850 C   0  0  0  0  0  0  0  0  0  0  0  0
  139.4390   79.8570  223.4270 C   0  0  0  0  0  0  0  0  0  0  0  0
  138.1530   80.4930  223.8080 C   0  0  0  0  0  0  0  0  0  0  0  0
  138.0930   80.5140  225.1990 F   0  0  0  0  0  0  0  0  0  0  0  0
  137.0660   79.7950  223.3600 F   0  0  0  0  0  0  0  0  0  0  0  0
  138.0850   81.7970  223.3530 F   0  0  0  0  0  0  0  0  0  0  0  0
  139.4530   78.6480  222.7070 C   0  0  0  0  0  0  0  0  0  0  0  0
  137.3082   73.6140  222.5251 H   0  0  0  0  0  0  0  0  0  0  0  0
  137.1505   73.1878  220.8112 H   0  0  0  0  0  0  0  0  0  0  0  0
  137.6173   71.3619  222.7765 H   0  0  0  0  0  0  0  0  0  0  0  0
  138.2159   71.1702  221.0730 H   0  0  0  0  0  0  0  0  0  0  0  0
  140.3186   71.1826  221.7395 H   0  0  0  0  0  0  0  0  0  0  0  0
  140.0109   72.7676  222.6498 H   0  0  0  0  0  0  0  0  0  0  0  0
  141.2105   72.1744  225.6573 H   0  0  0  0  0  0  0  0  0  0  0  0
  141.5517   71.0551  227.8268 H   0  0  0  0  0  0  0  0  0  0  0  0
  139.3912   67.6181  226.3729 H   0  0  0  0  0  0  0  0  0  0  0  0
  139.0590   75.1180  223.2230 H   0  0  0  0  0  0  0  0  0  0  0  0
  140.8195   76.8975  220.5051 H   0  0  0  0  0  0  0  0  0  0  0  0
  142.7479   78.1811  222.4219 H   0  0  0  0  0  0  0  0  0  0  0  0
  142.7456   80.2770  223.6703 H   0  0  0  0  0  0  0  0  0  0  0  0
  140.6432   81.4081  224.3474 H   0  0  0  0  0  0  0  0  0  0  0  0
  138.4889   78.1916  222.4383 H   0  0  0  0  0  0  0  0  0  0  0  0
  1  2  2  0
  2  3  1  0
  3  4  1  0
  4  5  1  0
  5  6  1  0
  6  7  1  0
  7  8  2  0
  8  9  1  0
  9 10  2  0
 10 11  1  0
 10 12  1  0
 12 13  2  0
 13 14  1  0
  2 15  1  0
 15 16  1  0
 16 17  2  0
 17 18  1  0
 18 19  2  0
 19 20  1  0
 20 21  2  0
 21 22  1  0
 22 23  1  0
 23 24  1  0
 23 25  1  0
 23 26  1  0
 22 27  2  0
 13  7  1  0
 27 18  1  0
  3 28  1  0
  3 29  1  0
  4 30  1  0
  4 31  1  0
  5 32  1  0
  5 33  1  0
  8 34  1  0
  9 35  1  0
 12 36  1  0
 15 37  1  0
 17 38  1  0
 19 39  1  0
 20 40  1  0
 21 41  1  0
 27 42  1  0
M  END
>  <smiles>  (56) 
O=C(CCCOc1ccc(Cl)cc1Cl)NN=Cc1cccc(C(F)(F)F)c1

>  <score_type>  (56) 
oracle

>  <origin>  (56) 
autodockgpu

>  <m_score__min__energy>  (56) 
-7.5199999999999996

>  <m_primary>  (56) 
energy

>  <rmsd>  (56) 
12.83217312148437

>  <m_score__min__rmsd>  (56) 
12.83217312148437

>  <meeko>  (56) 
{"free_energy": -6.81, "intermolecular_energy": -9.5, "internal_energy": -0.84, "cluster_size": 1, "cluster_id": 3, "rank_in_cluster": 1}

>  <energy>  (56) 
-6.59

>  <cluster_rmsd>  (56) 
1.62

>  <cluster>  (56) 
1

$$$$

     RDKit          3D

 42 43  0  0  0  0  0  0  0  0999 V2000
  139.3530   74.0460  222.3640 O   0  0  0  0  0  0  0  0  0  0  0  0
  139.6840   74.3270  221.1790 C   0  0  0  0  0  0  0  0  0  0  0  0
  139.0960   73.6000  220.0040 C   0  0  0  0  0  0  0  0  0  0  0  0
  139.3280   74.4820  218.8030 C   0  0  0  0  0  0  0  0  0  0  0  0
  140.6050   74.1020  218.0480 C   0  0  0  0  0  0  0  0  0  0  0  0
  141.6870   73.9900  218.7490 O   0  0  0  0  0  0  0  0  0  0  0  0
  142.7570   73.8520  219.4280 C   0  0  0  0  0  0  0  0  0  0  0  0
  143.1680   72.6070  219.9260 C   0  0  0  0  0  0  0  0  0  0  0  0
  144.3150   72.4420  220.6570 C   0  0  0  0  0  0  0  0  0  0  0  0
  145.0810   73.5520  220.9050 C   0  0  0  0  0  0  0  0  0  0  0  0
  146.5400   73.3530  221.8340 Cl  0  0  0  0  0  0  0  0  0  0  0  0
  144.7460   74.8080  220.4520 C   0  0  0  0  0  0  0  0  0  0  0  0
  143.5970   74.9340  219.7270 C   0  0  0  0  0  0  0  0  0  0  0  0
  143.1240   76.5090  219.1260 Cl  0  0  0  0  0  0  0  0  0  0  0  0
  140.6550   75.3790  220.9610 N   0  0  0  0  0  0  0  0  0  0  0  0
  141.1520   76.0030  222.0690 N   0  0  0  0  0  0  0  0  0  0  0  0
  140.6080   77.0260  222.5740 C   0  0  0  0  0  0  0  0  0  0  0  0
  141.0790   78.3850  222.6330 C   0  0  0  0  0  0  0  0  0  0  0  0
  141.8760   78.7170  223.7400 C   0  0  0  0  0  0  0  0  0  0  0  0
  142.3770   79.9870  223.8930 C   0  0  0  0  0  0  0  0  0  0  0  0
  142.1410   81.0040  222.9930 C   0  0  0  0  0  0  0  0  0  0  0  0
  141.3600   80.6880  221.9030 C   0  0  0  0  0  0  0  0  0  0  0  0
  141.0660   81.7350  220.8930 C   0  0  0  0  0  0  0  0  0  0  0  0
  139.7120   81.6490  220.5820 F   0  0  0  0  0  0  0  0  0  0  0  0
  141.7670   81.5600  219.7310 F   0  0  0  0  0  0  0  0  0  0  0  0
  141.3140   82.9990  221.3960 F   0  0  0  0  0  0  0  0  0  0  0  0
  140.8500   79.3860  221.7510 C   0  0  0  0  0  0  0  0  0  0  0  0
  139.5962   72.6300  219.8668 H   0  0  0  0  0  0  0  0  0  0  0  0
  138.0247   73.3995  220.1525 H   0  0  0  0  0  0  0  0  0  0  0  0
  138.4705   74.3854  218.1209 H   0  0  0  0  0  0  0  0  0  0  0  0
  139.4399   75.5168  219.1589 H   0  0  0  0  0  0  0  0  0  0  0  0
  140.4254   73.1343  217.5567 H   0  0  0  0  0  0  0  0  0  0  0  0
  140.7931   74.9405  217.3613 H   0  0  0  0  0  0  0  0  0  0  0  0
  142.5429   71.7254  219.7210 H   0  0  0  0  0  0  0  0  0  0  0  0
  144.6117   71.4516  221.0326 H   0  0  0  0  0  0  0  0  0  0  0  0
  145.3822   75.6793  220.6669 H   0  0  0  0  0  0  0  0  0  0  0  0
  140.9770   75.6370  220.0000 H   0  0  0  0  0  0  0  0  0  0  0  0
  139.6263   76.8515  223.0386 H   0  0  0  0  0  0  0  0  0  0  0  0
  142.1024   77.9498  224.4951 H   0  0  0  0  0  0  0  0  0  0  0  0
  142.9962   80.2027  224.7762 H   0  0  0  0  0  0  0  0  0  0  0  0
  142.5539   82.0133  223.1373 H   0  0  0  0  0  0  0  0  0  0  0  0
  140.2315   79.1695  220.8675 H   0  0  0  0  0  0  0  0  0  0  0  0
  1  2  2  0
  2  3  1  0
  3  4  1  0
  4  5  1  0
  5  6  1  0
  6  7  1  0
  7  8  2  0
  8  9  1  0
  9 10  2  0
 10 11  1  0
 10 12  1  0
 12 13  2  0
 13 14  1  0
  2 15  1  0
 15 16  1  0
 16 17  2  0
 17 18  1  0
 18 19  2  0
 19 20  1  0
 20 21  2  0
 21 22  1  0
 22 23  1  0
 23 24  1  0
 23 25  1  0
 23 26  1  0
 22 27  2  0
 13  7  1  0
 27 18  1  0
  3 28  1  0
  3 29  1  0
  4 30  1  0
  4 31  1  0
  5 32  1  0
  5 33  1  0
  8 34  1  0
  9 35  1  0
 12 36  1  0
 15 37  1  0
 17 38  1  0
 19 39  1  0
 20 40  1  0
 21 41  1  0
 27 42  1  0
M  END
>  <smiles>  (57) 
O=C(CCCOc1ccc(Cl)cc1Cl)NN=Cc1cccc(C(F)(F)F)c1

>  <score_type>  (57) 
oracle

>  <origin>  (57) 
autodockgpu

>  <m_score__min__energy>  (57) 
-7.5199999999999996

>  <m_primary>  (57) 
energy

>  <rmsd>  (57) 
9.719145580687874

>  <m_score__min__rmsd>  (57) 
9.719145580687874

>  <meeko>  (57) 
{"free_energy": -5.53, "intermolecular_energy": -8.22, "internal_energy": -2.11, "cluster_size": 2, "cluster_id": 10, "rank_in_cluster": 2}

>  <energy>  (57) 
-6.56

>  <cluster_rmsd>  (57) 
1.16

>  <cluster>  (57) 
1

$$$$

     RDKit          3D

 42 43  0  0  0  0  0  0  0  0999 V2000
  140.3970   73.3940  222.6370 O   0  0  0  0  0  0  0  0  0  0  0  0
  139.4270   72.9130  221.9860 C   0  0  0  0  0  0  0  0  0  0  0  0
  138.5350   73.7810  221.1470 C   0  0  0  0  0  0  0  0  0  0  0  0
  138.6530   73.2650  219.7350 C   0  0  0  0  0  0  0  0  0  0  0  0
  139.7460   73.9910  218.9460 C   0  0  0  0  0  0  0  0  0  0  0  0
  140.9580   73.8780  219.3870 O   0  0  0  0  0  0  0  0  0  0  0  0
  142.1410   73.7660  219.8490 C   0  0  0  0  0  0  0  0  0  0  0  0
  142.6520   72.5390  220.2960 C   0  0  0  0  0  0  0  0  0  0  0  0
  143.9210   72.4010  220.7950 C   0  0  0  0  0  0  0  0  0  0  0  0
  144.7090   73.5210  220.8560 C   0  0  0  0  0  0  0  0  0  0  0  0
  146.3230   73.3570  221.4890 Cl  0  0  0  0  0  0  0  0  0  0  0  0
  144.2810   74.7600  220.4380 C   0  0  0  0  0  0  0  0  0  0  0  0
  143.0120   74.8600  219.9460 C   0  0  0  0  0  0  0  0  0  0  0  0
  142.4160   76.4130  219.4020 Cl  0  0  0  0  0  0  0  0  0  0  0  0
  139.1830   71.4880  222.0590 N   0  0  0  0  0  0  0  0  0  0  0  0
  140.0300   70.7530  222.8390 N   0  0  0  0  0  0  0  0  0  0  0  0
  139.6140   69.9470  223.7200 C   0  0  0  0  0  0  0  0  0  0  0  0
  139.9320   69.8730  225.1220 C   0  0  0  0  0  0  0  0  0  0  0  0
  139.9050   68.5920  225.6970 C   0  0  0  0  0  0  0  0  0  0  0  0
  140.1920   68.4100  227.0280 C   0  0  0  0  0  0  0  0  0  0  0  0
  140.5190   69.4450  227.8770 C   0  0  0  0  0  0  0  0  0  0  0  0
  140.5490   70.7060  227.3220 C   0  0  0  0  0  0  0  0  0  0  0  0
  140.8950   71.8680  228.1790 C   0  0  0  0  0  0  0  0  0  0  0  0
  141.8920   71.4570  229.0600 F   0  0  0  0  0  0  0  0  0  0  0  0
  139.8370   72.3030  228.9300 F   0  0  0  0  0  0  0  0  0  0  0  0
  141.3890   72.9170  227.4260 F   0  0  0  0  0  0  0  0  0  0  0  0
  140.2540   70.8870  225.9590 C   0  0  0  0  0  0  0  0  0  0  0  0
  137.4940   73.7065  221.4945 H   0  0  0  0  0  0  0  0  0  0  0  0
  138.8282   74.8391  221.2129 H   0  0  0  0  0  0  0  0  0  0  0  0
  138.8929   72.1920  219.7684 H   0  0  0  0  0  0  0  0  0  0  0  0
  137.6935   73.4438  219.2277 H   0  0  0  0  0  0  0  0  0  0  0  0
  139.7285   73.6011  217.9176 H   0  0  0  0  0  0  0  0  0  0  0  0
  139.5050   75.0603  219.0382 H   0  0  0  0  0  0  0  0  0  0  0  0
  142.0069   71.6495  220.2440 H   0  0  0  0  0  0  0  0  0  0  0  0
  144.2947   71.4240  221.1352 H   0  0  0  0  0  0  0  0  0  0  0  0
  144.9389   75.6395  220.4983 H   0  0  0  0  0  0  0  0  0  0  0  0
  138.3820   71.0430  221.5550 H   0  0  0  0  0  0  0  0  0  0  0  0
  138.9024   69.1887  223.3613 H   0  0  0  0  0  0  0  0  0  0  0  0
  139.6506   67.7225  225.0731 H   0  0  0  0  0  0  0  0  0  0  0  0
  140.1592   67.3889  227.4357 H   0  0  0  0  0  0  0  0  0  0  0  0
  140.7439   69.2739  228.9401 H   0  0  0  0  0  0  0  0  0  0  0  0
  140.2867   71.9080  225.5508 H   0  0  0  0  0  0  0  0  0  0  0  0
  1  2  2  0
  2  3  1  0
  3  4  1  0
  4  5  1  0
  5  6  1  0
  6  7  1  0
  7  8  2  0
  8  9  1  0
  9 10  2  0
 10 11  1  0
 10 12  1  0
 12 13  2  0
 13 14  1  0
  2 15  1  0
 15 16  1  0
 16 17  2  0
 17 18  1  0
 18 19  2  0
 19 20  1  0
 20 21  2  0
 21 22  1  0
 22 23  1  0
 23 24  1  0
 23 25  1  0
 23 26  1  0
 22 27  2  0
 13  7  1  0
 27 18  1  0
  3 28  1  0
  3 29  1  0
  4 30  1  0
  4 31  1  0
  5 32  1  0
  5 33  1  0
  8 34  1  0
  9 35  1  0
 12 36  1  0
 15 37  1  0
 17 38  1  0
 19 39  1  0
 20 40  1  0
 21 41  1  0
 27 42  1  0
M  END
>  <smiles>  (58) 
O=C(CCCOc1ccc(Cl)cc1Cl)NN=Cc1cccc(C(F)(F)F)c1

>  <score_type>  (58) 
oracle

>  <origin>  (58) 
autodockgpu

>  <m_score__min__energy>  (58) 
-7.5199999999999996

>  <m_primary>  (58) 
energy

>  <rmsd>  (58) 
9.502418293596333

>  <m_score__min__rmsd>  (58) 
9.502418293596333

>  <meeko>  (58) 
{"free_energy": -6.42, "intermolecular_energy": -9.11, "internal_energy": -1.26, "cluster_size": 3, "cluster_id": 7, "rank_in_cluster": 1}

>  <energy>  (58) 
-6.49

>  <cluster_rmsd>  (58) 
1.18

>  <cluster>  (58) 
1

$$$$

     RDKit          3D

 42 43  0  0  0  0  0  0  0  0999 V2000
  140.7620   74.9230  221.1160 O   0  0  0  0  0  0  0  0  0  0  0  0
  139.5690   74.7330  221.4830 C   0  0  0  0  0  0  0  0  0  0  0  0
  138.4560   75.6360  221.0370 C   0  0  0  0  0  0  0  0  0  0  0  0
  137.4710   75.6860  222.1780 C   0  0  0  0  0  0  0  0  0  0  0  0
  137.2780   77.1090  222.7100 C   0  0  0  0  0  0  0  0  0  0  0  0
  138.3480   77.8130  222.8990 O   0  0  0  0  0  0  0  0  0  0  0  0
  139.4150   78.4810  223.0970 C   0  0  0  0  0  0  0  0  0  0  0  0
  140.6870   77.9450  222.8480 C   0  0  0  0  0  0  0  0  0  0  0  0
  141.8430   78.6500  223.0550 C   0  0  0  0  0  0  0  0  0  0  0  0
  141.7340   79.9320  223.5280 C   0  0  0  0  0  0  0  0  0  0  0  0
  143.1980   80.8370  223.7950 Cl  0  0  0  0  0  0  0  0  0  0  0  0
  140.5240   80.5300  223.7980 C   0  0  0  0  0  0  0  0  0  0  0  0
  139.3940   79.7970  223.5790 C   0  0  0  0  0  0  0  0  0  0  0  0
  137.8280   80.5080  223.9060 Cl  0  0  0  0  0  0  0  0  0  0  0  0
  139.2820   73.6130  222.3540 N   0  0  0  0  0  0  0  0  0  0  0  0
  140.3370   72.8290  222.7240 N   0  0  0  0  0  0  0  0  0  0  0  0
  140.1980   71.6190  223.0640 C   0  0  0  0  0  0  0  0  0  0  0  0
  140.1620   71.0300  224.3760 C   0  0  0  0  0  0  0  0  0  0  0  0
  139.5840   69.7540  224.4670 C   0  0  0  0  0  0  0  0  0  0  0  0
  139.4990   69.1020  225.6740 C   0  0  0  0  0  0  0  0  0  0  0  0
  139.9620   69.6400  226.8550 C   0  0  0  0  0  0  0  0  0  0  0  0
  140.5300   70.8930  226.7760 C   0  0  0  0  0  0  0  0  0  0  0  0
  141.0500   71.5320  228.0110 C   0  0  0  0  0  0  0  0  0  0  0  0
  139.9540   71.9590  228.7560 F   0  0  0  0  0  0  0  0  0  0  0  0
  141.8240   72.6300  227.7510 F   0  0  0  0  0  0  0  0  0  0  0  0
  141.7680   70.6320  228.7770 F   0  0  0  0  0  0  0  0  0  0  0  0
  140.6150   71.5550  225.5390 C   0  0  0  0  0  0  0  0  0  0  0  0
  138.8442   76.6430  220.8241 H   0  0  0  0  0  0  0  0  0  0  0  0
  137.9834   75.2644  220.1158 H   0  0  0  0  0  0  0  0  0  0  0  0
  136.5012   75.3041  221.8264 H   0  0  0  0  0  0  0  0  0  0  0  0
  137.8695   75.0691  222.9970 H   0  0  0  0  0  0  0  0  0  0  0  0
  136.6467   77.6504  221.9900 H   0  0  0  0  0  0  0  0  0  0  0  0
  136.8360   76.9844  223.7095 H   0  0  0  0  0  0  0  0  0  0  0  0
  140.7593   76.9144  222.4704 H   0  0  0  0  0  0  0  0  0  0  0  0
  142.8263   78.2022  222.8485 H   0  0  0  0  0  0  0  0  0  0  0  0
  140.4699   81.5614  224.1766 H   0  0  0  0  0  0  0  0  0  0  0  0
  138.3140   73.4240  222.7020 H   0  0  0  0  0  0  0  0  0  0  0  0
  140.0880   70.9096  222.2306 H   0  0  0  0  0  0  0  0  0  0  0  0
  139.1938   69.2693  223.5599 H   0  0  0  0  0  0  0  0  0  0  0  0
  139.0394   68.1029  225.6983 H   0  0  0  0  0  0  0  0  0  0  0  0
  139.8825   69.0986  227.8092 H   0  0  0  0  0  0  0  0  0  0  0  0
  141.0746   72.5541  225.5144 H   0  0  0  0  0  0  0  0  0  0  0  0
  1  2  2  0
  2  3  1  0
  3  4  1  0
  4  5  1  0
  5  6  1  0
  6  7  1  0
  7  8  2  0
  8  9  1  0
  9 10  2  0
 10 11  1  0
 10 12  1  0
 12 13  2  0
 13 14  1  0
  2 15  1  0
 15 16  1  0
 16 17  2  0
 17 18  1  0
 18 19  2  0
 19 20  1  0
 20 21  2  0
 21 22  1  0
 22 23  1  0
 23 24  1  0
 23 25  1  0
 23 26  1  0
 22 27  2  0
 13  7  1  0
 27 18  1  0
  3 28  1  0
  3 29  1  0
  4 30  1  0
  4 31  1  0
  5 32  1  0
  5 33  1  0
  8 34  1  0
  9 35  1  0
 12 36  1  0
 15 37  1  0
 17 38  1  0
 19 39  1  0
 20 40  1  0
 21 41  1  0
 27 42  1  0
M  END
>  <smiles>  (59) 
O=C(CCCOc1ccc(Cl)cc1Cl)NN=Cc1cccc(C(F)(F)F)c1

>  <score_type>  (59) 
oracle

>  <origin>  (59) 
autodockgpu

>  <m_score__min__energy>  (59) 
-7.5199999999999996

>  <m_primary>  (59) 
energy

>  <rmsd>  (59) 
5.834555951088847

>  <m_score__min__rmsd>  (59) 
5.834555951088847

>  <meeko>  (59) 
{"free_energy": -7.52, "intermolecular_energy": -10.21, "internal_energy": -0.93, "cluster_size": 11, "cluster_id": 1, "rank_in_cluster": 1}

>  <energy>  (59) 
-6.42

>  <cluster_rmsd>  (59) 
1.3

>  <cluster>  (59) 
1

$$$$

     RDKit          3D

 42 43  0  0  0  0  0  0  0  0999 V2000
  137.5030   71.6190  220.4030 O   0  0  0  0  0  0  0  0  0  0  0  0
  137.9670   72.6150  221.0250 C   0  0  0  0  0  0  0  0  0  0  0  0
  137.8490   74.0080  220.4770 C   0  0  0  0  0  0  0  0  0  0  0  0
  137.5570   74.9010  221.6570 C   0  0  0  0  0  0  0  0  0  0  0  0
  138.8370   75.3790  222.3490 C   0  0  0  0  0  0  0  0  0  0  0  0
  139.9570   74.9240  221.8860 O   0  0  0  0  0  0  0  0  0  0  0  0
  141.0460   74.4680  221.4040 C   0  0  0  0  0  0  0  0  0  0  0  0
  141.4140   73.1220  221.5400 C   0  0  0  0  0  0  0  0  0  0  0  0
  142.5800   72.6170  221.0290 C   0  0  0  0  0  0  0  0  0  0  0  0
  143.4120   73.4780  220.3610 C   0  0  0  0  0  0  0  0  0  0  0  0
  144.8970   72.8460  219.7080 Cl  0  0  0  0  0  0  0  0  0  0  0  0
  143.1230   74.8120  220.1860 C   0  0  0  0  0  0  0  0  0  0  0  0
  141.9520   75.2800  220.7090 C   0  0  0  0  0  0  0  0  0  0  0  0
  141.5340   76.9690  220.5160 Cl  0  0  0  0  0  0  0  0  0  0  0  0
  138.6250   72.3940  222.2950 N   0  0  0  0  0  0  0  0  0  0  0  0
  138.6990   71.1050  222.7390 N   0  0  0  0  0  0  0  0  0  0  0  0
  139.7200   70.6460  223.3270 C   0  0  0  0  0  0  0  0  0  0  0  0
  139.9290   70.3660  224.7230 C   0  0  0  0  0  0  0  0  0  0  0  0
  139.7490   69.0320  225.1220 C   0  0  0  0  0  0  0  0  0  0  0  0
  139.9240   68.6580  226.4320 C   0  0  0  0  0  0  0  0  0  0  0  0
  140.2800   69.5420  227.4270 C   0  0  0  0  0  0  0  0  0  0  0  0
  140.4600   70.8540  227.0460 C   0  0  0  0  0  0  0  0  0  0  0  0
  140.8450   71.8600  228.0670 C   0  0  0  0  0  0  0  0  0  0  0  0
  141.3430   72.9720  227.3930 F   0  0  0  0  0  0  0  0  0  0  0  0
  141.8290   71.4120  228.9050 F   0  0  0  0  0  0  0  0  0  0  0  0
  139.7510   72.2620  228.8120 F   0  0  0  0  0  0  0  0  0  0  0  0
  140.2790   71.2310  225.7030 C   0  0  0  0  0  0  0  0  0  0  0  0
  138.7907   74.3091  219.9947 H   0  0  0  0  0  0  0  0  0  0  0  0
  137.0555   74.0743  219.7181 H   0  0  0  0  0  0  0  0  0  0  0  0
  136.9943   75.7788  221.3067 H   0  0  0  0  0  0  0  0  0  0  0  0
  136.9750   74.3186  222.3865 H   0  0  0  0  0  0  0  0  0  0  0  0
  138.8666   76.4759  222.2724 H   0  0  0  0  0  0  0  0  0  0  0  0
  138.7712   74.9894  223.3756 H   0  0  0  0  0  0  0  0  0  0  0  0
  140.7377   72.4429  222.0799 H   0  0  0  0  0  0  0  0  0  0  0  0
  142.8405   71.5552  221.1506 H   0  0  0  0  0  0  0  0  0  0  0  0
  143.8110   75.4775  219.6440 H   0  0  0  0  0  0  0  0  0  0  0  0
  139.0430   73.1820  222.8400 H   0  0  0  0  0  0  0  0  0  0  0  0
  140.5773   70.4280  222.6732 H   0  0  0  0  0  0  0  0  0  0  0  0
  139.4640   68.2761  224.3754 H   0  0  0  0  0  0  0  0  0  0  0  0
  139.7726   67.6018  226.6996 H   0  0  0  0  0  0  0  0  0  0  0  0
  140.4134   69.2179  228.4697 H   0  0  0  0  0  0  0  0  0  0  0  0
  140.4303   72.2870  225.4346 H   0  0  0  0  0  0  0  0  0  0  0  0
  1  2  2  0
  2  3  1  0
  3  4  1  0
  4  5  1  0
  5  6  1  0
  6  7  1  0
  7  8  2  0
  8  9  1  0
  9 10  2  0
 10 11  1  0
 10 12  1  0
 12 13  2  0
 13 14  1  0
  2 15  1  0
 15 16  1  0
 16 17  2  0
 17 18  1  0
 18 19  2  0
 19 20  1  0
 20 21  2  0
 21 22  1  0
 22 23  1  0
 23 24  1  0
 23 25  1  0
 23 26  1  0
 22 27  2  0
 13  7  1  0
 27 18  1  0
  3 28  1  0
  3 29  1  0
  4 30  1  0
  4 31  1  0
  5 32  1  0
  5 33  1  0
  8 34  1  0
  9 35  1  0
 12 36  1  0
 15 37  1  0
 17 38  1  0
 19 39  1  0
 20 40  1  0
 21 41  1  0
 27 42  1  0
M  END
>  <smiles>  (60) 
O=C(CCCOc1ccc(Cl)cc1Cl)NN=Cc1cccc(C(F)(F)F)c1

>  <score_type>  (60) 
oracle

>  <origin>  (60) 
autodockgpu

>  <m_score__min__energy>  (60) 
-7.5199999999999996

>  <m_primary>  (60) 
energy

>  <rmsd>  (60) 
8.717375340339483

>  <m_score__min__rmsd>  (60) 
8.717375340339483

>  <meeko>  (60) 
{"free_energy": -5.98, "intermolecular_energy": -8.66, "internal_energy": -1.86, "cluster_size": 3, "cluster_id": 7, "rank_in_cluster": 2}

>  <energy>  (60) 
-6.13

>  <cluster_rmsd>  (60) 
1.58

>  <cluster>  (60) 
1

$$$$

     RDKit          3D

 42 43  0  0  0  0  0  0  0  0999 V2000
  139.9480   73.9230  221.9640 O   0  0  0  0  0  0  0  0  0  0  0  0
  140.9540   74.3810  221.3540 C   0  0  0  0  0  0  0  0  0  0  0  0
  141.6370   73.6020  220.2670 C   0  0  0  0  0  0  0  0  0  0  0  0
  143.0190   73.2860  220.7800 C   0  0  0  0  0  0  0  0  0  0  0  0
  144.0240   74.3920  220.4450 C   0  0  0  0  0  0  0  0  0  0  0  0
  143.5820   75.3950  219.7560 O   0  0  0  0  0  0  0  0  0  0  0  0
  143.1750   76.3900  219.0720 C   0  0  0  0  0  0  0  0  0  0  0  0
  142.5890   77.5150  219.6700 C   0  0  0  0  0  0  0  0  0  0  0  0
  142.1460   78.5920  218.9480 C   0  0  0  0  0  0  0  0  0  0  0  0
  142.2890   78.5520  217.5850 C   0  0  0  0  0  0  0  0  0  0  0  0
  141.7290   79.9170  216.6600 Cl  0  0  0  0  0  0  0  0  0  0  0  0
  142.8530   77.4860  216.9240 C   0  0  0  0  0  0  0  0  0  0  0  0
  143.2830   76.4300  217.6750 C   0  0  0  0  0  0  0  0  0  0  0  0
  144.0080   75.0470  216.8840 Cl  0  0  0  0  0  0  0  0  0  0  0  0
  141.4510   75.6910  221.7210 N   0  0  0  0  0  0  0  0  0  0  0  0
  140.7860   76.3480  222.7170 N   0  0  0  0  0  0  0  0  0  0  0  0
  140.2790   77.4950  222.5530 C   0  0  0  0  0  0  0  0  0  0  0  0
  140.8970   78.7930  222.6170 C   0  0  0  0  0  0  0  0  0  0  0  0
  141.8190   78.9890  223.6570 C   0  0  0  0  0  0  0  0  0  0  0  0
  142.4660   80.1920  223.8090 C   0  0  0  0  0  0  0  0  0  0  0  0
  142.2610   81.2680  222.9720 C   0  0  0  0  0  0  0  0  0  0  0  0
  141.3580   81.0850  221.9480 C   0  0  0  0  0  0  0  0  0  0  0  0
  141.0900   82.2030  221.0090 C   0  0  0  0  0  0  0  0  0  0  0  0
  139.7290   82.1900  220.7200 F   0  0  0  0  0  0  0  0  0  0  0  0
  141.7630   82.0700  219.8250 F   0  0  0  0  0  0  0  0  0  0  0  0
  141.3990   83.4230  221.5810 F   0  0  0  0  0  0  0  0  0  0  0  0
  140.7000   79.8520  221.7970 C   0  0  0  0  0  0  0  0  0  0  0  0
  141.0856   72.6730  220.0597 H   0  0  0  0  0  0  0  0  0  0  0  0
  141.6792   74.1753  219.3292 H   0  0  0  0  0  0  0  0  0  0  0  0
  142.9733   73.1671  221.8726 H   0  0  0  0  0  0  0  0  0  0  0  0
  143.3583   72.3604  220.2920 H   0  0  0  0  0  0  0  0  0  0  0  0
  144.4128   74.7869  221.3952 H   0  0  0  0  0  0  0  0  0  0  0  0
  144.7763   73.9114  219.8023 H   0  0  0  0  0  0  0  0  0  0  0  0
  142.4805   77.5336  220.7645 H   0  0  0  0  0  0  0  0  0  0  0  0
  141.6903   79.4606  219.4458 H   0  0  0  0  0  0  0  0  0  0  0  0
  142.9541   77.4842  215.8287 H   0  0  0  0  0  0  0  0  0  0  0  0
  142.2920   76.1070  221.2610 H   0  0  0  0  0  0  0  0  0  0  0  0
  139.2025   77.5014  222.3272 H   0  0  0  0  0  0  0  0  0  0  0  0
  142.0265   78.1687  224.3599 H   0  0  0  0  0  0  0  0  0  0  0  0
  143.1811   80.3014  224.6376 H   0  0  0  0  0  0  0  0  0  0  0  0
  142.7902   82.2218  223.1142 H   0  0  0  0  0  0  0  0  0  0  0  0
  139.9862   79.7416  220.9674 H   0  0  0  0  0  0  0  0  0  0  0  0
  1  2  2  0
  2  3  1  0
  3  4  1  0
  4  5  1  0
  5  6  1  0
  6  7  1  0
  7  8  2  0
  8  9  1  0
  9 10  2  0
 10 11  1  0
 10 12  1  0
 12 13  2  0
 13 14  1  0
  2 15  1  0
 15 16  1  0
 16 17  2  0
 17 18  1  0
 18 19  2  0
 19 20  1  0
 20 21  2  0
 21 22  1  0
 22 23  1  0
 23 24  1  0
 23 25  1  0
 23 26  1  0
 22 27  2  0
 13  7  1  0
 27 18  1  0
  3 28  1  0
  3 29  1  0
  4 30  1  0
  4 31  1  0
  5 32  1  0
  5 33  1  0
  8 34  1  0
  9 35  1  0
 12 36  1  0
 15 37  1  0
 17 38  1  0
 19 39  1  0
 20 40  1  0
 21 41  1  0
 27 42  1  0
M  END
>  <smiles>  (61) 
O=C(CCCOc1ccc(Cl)cc1Cl)NN=Cc1cccc(C(F)(F)F)c1

>  <score_type>  (61) 
oracle

>  <origin>  (61) 
autodockgpu

>  <m_score__min__energy>  (61) 
-7.5199999999999996

>  <m_primary>  (61) 
energy

>  <rmsd>  (61) 
8.146678126537577

>  <m_score__min__rmsd>  (61) 
8.146678126537577

>  <meeko>  (61) 
{"free_energy": -5.76, "intermolecular_energy": -8.44, "internal_energy": -2.31, "cluster_size": 5, "cluster_id": 8, "rank_in_cluster": 1}

>  <energy>  (61) 
-5.97

>  <cluster_rmsd>  (61) 
1.34

>  <cluster>  (61) 
1

$$$$

     RDKit          3D

 42 43  0  0  0  0  0  0  0  0999 V2000
  138.0350   74.9490  222.3380 O   0  0  0  0  0  0  0  0  0  0  0  0
  139.1900   75.2950  221.9630 C   0  0  0  0  0  0  0  0  0  0  0  0
  139.4910   76.7030  221.5380 C   0  0  0  0  0  0  0  0  0  0  0  0
  140.9520   76.9290  221.8330 C   0  0  0  0  0  0  0  0  0  0  0  0
  141.8060   76.9050  220.5620 C   0  0  0  0  0  0  0  0  0  0  0  0
  142.4540   75.8110  220.3140 O   0  0  0  0  0  0  0  0  0  0  0  0
  143.0760   74.7210  220.0910 C   0  0  0  0  0  0  0  0  0  0  0  0
  144.4080   74.5300  220.4850 C   0  0  0  0  0  0  0  0  0  0  0  0
  145.0900   73.3650  220.2530 C   0  0  0  0  0  0  0  0  0  0  0  0
  144.4290   72.3540  219.6050 C   0  0  0  0  0  0  0  0  0  0  0  0
  145.2870   70.8700  219.3050 Cl  0  0  0  0  0  0  0  0  0  0  0  0
  143.1220   72.4640  219.1860 C   0  0  0  0  0  0  0  0  0  0  0  0
  142.4740   73.6390  219.4340 C   0  0  0  0  0  0  0  0  0  0  0  0
  140.8110   73.8320  218.9230 Cl  0  0  0  0  0  0  0  0  0  0  0  0
  140.2410   74.2990  221.9490 N   0  0  0  0  0  0  0  0  0  0  0  0
  139.9040   73.0370  222.3470 N   0  0  0  0  0  0  0  0  0  0  0  0
  140.6920   72.2990  223.0060 C   0  0  0  0  0  0  0  0  0  0  0  0
  140.4590   71.5530  224.2140 C   0  0  0  0  0  0  0  0  0  0  0  0
  139.7960   70.3240  224.0660 C   0  0  0  0  0  0  0  0  0  0  0  0
  139.5240   69.5330  225.1550 C   0  0  0  0  0  0  0  0  0  0  0  0
  139.8730   69.8780  226.4430 C   0  0  0  0  0  0  0  0  0  0  0  0
  140.5240   71.0820  226.6000 C   0  0  0  0  0  0  0  0  0  0  0  0
  140.9300   71.5160  227.9600 C   0  0  0  0  0  0  0  0  0  0  0  0
  141.8240   72.5730  227.8140 F   0  0  0  0  0  0  0  0  0  0  0  0
  141.5690   70.5300  228.6590 F   0  0  0  0  0  0  0  0  0  0  0  0
  139.8430   71.9670  228.6870 F   0  0  0  0  0  0  0  0  0  0  0  0
  140.8000   71.8880  225.4810 C   0  0  0  0  0  0  0  0  0  0  0  0
  139.2957   76.8265  220.4625 H   0  0  0  0  0  0  0  0  0  0  0  0
  138.8579   77.4267  222.0723 H   0  0  0  0  0  0  0  0  0  0  0  0
  141.0683   77.9084  222.3202 H   0  0  0  0  0  0  0  0  0  0  0  0
  141.2956   76.1146  222.4878 H   0  0  0  0  0  0  0  0  0  0  0  0
  141.1385   77.0970  219.7090 H   0  0  0  0  0  0  0  0  0  0  0  0
  142.5814   77.6687  220.7219 H   0  0  0  0  0  0  0  0  0  0  0  0
  144.9272   75.3503  221.0022 H   0  0  0  0  0  0  0  0  0  0  0  0
  146.1345   73.2446  220.5763 H   0  0  0  0  0  0  0  0  0  0  0  0
  142.6179   71.6339  218.6695 H   0  0  0  0  0  0  0  0  0  0  0  0
  141.2090   74.5290  221.6290 H   0  0  0  0  0  0  0  0  0  0  0  0
  141.7083   72.2149  222.5935 H   0  0  0  0  0  0  0  0  0  0  0  0
  139.4902   69.9902  223.0635 H   0  0  0  0  0  0  0  0  0  0  0  0
  139.0026   68.5783  224.9916 H   0  0  0  0  0  0  0  0  0  0  0  0
  139.6440   69.2270  227.2996 H   0  0  0  0  0  0  0  0  0  0  0  0
  141.3214   72.8428  225.6439 H   0  0  0  0  0  0  0  0  0  0  0  0
  1  2  2  0
  2  3  1  0
  3  4  1  0
  4  5  1  0
  5  6  1  0
  6  7  1  0
  7  8  2  0
  8  9  1  0
  9 10  2  0
 10 11  1  0
 10 12  1  0
 12 13  2  0
 13 14  1  0
  2 15  1  0
 15 16  1  0
 16 17  2  0
 17 18  1  0
 18 19  2  0
 19 20  1  0
 20 21  2  0
 21 22  1  0
 22 23  1  0
 23 24  1  0
 23 25  1  0
 23 26  1  0
 22 27  2  0
 13  7  1  0
 27 18  1  0
  3 28  1  0
  3 29  1  0
  4 30  1  0
  4 31  1  0
  5 32  1  0
  5 33  1  0
  8 34  1  0
  9 35  1  0
 12 36  1  0
 15 37  1  0
 17 38  1  0
 19 39  1  0
 20 40  1  0
 21 41  1  0
 27 42  1  0
M  END
>  <smiles>  (62) 
O=C(CCCOc1ccc(Cl)cc1Cl)NN=Cc1cccc(C(F)(F)F)c1

>  <score_type>  (62) 
oracle

>  <origin>  (62) 
autodockgpu

>  <m_score__min__energy>  (62) 
-7.5199999999999996

>  <m_primary>  (62) 
energy

>  <rmsd>  (62) 
9.00101026094741

>  <m_score__min__rmsd>  (62) 
9.00101026094741

>  <meeko>  (62) 
{"free_energy": -5.44, "intermolecular_energy": -8.13, "internal_energy": -1.97, "cluster_size": 1, "cluster_id": 11, "rank_in_cluster": 1}

>  <energy>  (62) 
-6.91

>  <cluster_rmsd>  (62) 
0.0

>  <cluster>  (62) 
2

$$$$

     RDKit          3D

 42 43  0  0  0  0  0  0  0  0999 V2000
  140.0090   74.9020  222.0750 O   0  0  0  0  0  0  0  0  0  0  0  0
  139.2990   73.9650  221.6150 C   0  0  0  0  0  0  0  0  0  0  0  0
  138.3770   74.1750  220.4500 C   0  0  0  0  0  0  0  0  0  0  0  0
  139.0870   73.6130  219.2440 C   0  0  0  0  0  0  0  0  0  0  0  0
  140.2430   74.5080  218.7870 C   0  0  0  0  0  0  0  0  0  0  0  0
  141.4010   74.2860  219.3230 O   0  0  0  0  0  0  0  0  0  0  0  0
  142.5520   74.0890  219.8330 C   0  0  0  0  0  0  0  0  0  0  0  0
  143.5090   75.1100  219.9270 C   0  0  0  0  0  0  0  0  0  0  0  0
  144.7510   74.9150  220.4720 C   0  0  0  0  0  0  0  0  0  0  0  0
  145.0550   73.6620  220.9380 C   0  0  0  0  0  0  0  0  0  0  0  0
  146.6310   73.4030  221.6320 Cl  0  0  0  0  0  0  0  0  0  0  0  0
  144.1720   72.6080  220.8810 C   0  0  0  0  0  0  0  0  0  0  0  0
  142.9440   72.8390  220.3320 C   0  0  0  0  0  0  0  0  0  0  0  0
  141.7820   71.5340  220.2340 Cl  0  0  0  0  0  0  0  0  0  0  0  0
  139.3880   72.6590  222.2360 N   0  0  0  0  0  0  0  0  0  0  0  0
  140.2450   72.5320  223.2920 N   0  0  0  0  0  0  0  0  0  0  0  0
  140.5190   71.4140  223.8140 C   0  0  0  0  0  0  0  0  0  0  0  0
  140.6410   71.0510  225.2010 C   0  0  0  0  0  0  0  0  0  0  0  0
  141.0150   72.0800  226.0800 C   0  0  0  0  0  0  0  0  0  0  0  0
  141.1600   71.8400  227.4260 C   0  0  0  0  0  0  0  0  0  0  0  0
  140.9540   70.6030  227.9970 C   0  0  0  0  0  0  0  0  0  0  0  0
  140.5860   69.5870  227.1430 C   0  0  0  0  0  0  0  0  0  0  0  0
  140.3470   68.2290  227.6910 C   0  0  0  0  0  0  0  0  0  0  0  0
  140.1150   68.3630  229.0570 F   0  0  0  0  0  0  0  0  0  0  0  0
  141.4250   67.4000  227.5370 F   0  0  0  0  0  0  0  0  0  0  0  0
  139.2310   67.6460  227.1190 F   0  0  0  0  0  0  0  0  0  0  0  0
  140.4390   69.8380  225.7670 C   0  0  0  0  0  0  0  0  0  0  0  0
  137.4275   73.6446  220.6149 H   0  0  0  0  0  0  0  0  0  0  0  0
  138.1391   75.2404  220.3144 H   0  0  0  0  0  0  0  0  0  0  0  0
  139.4863   72.6201  219.4982 H   0  0  0  0  0  0  0  0  0  0  0  0
  138.3600   73.5520  218.4208 H   0  0  0  0  0  0  0  0  0  0  0  0
  140.3504   74.3833  217.6994 H   0  0  0  0  0  0  0  0  0  0  0  0
  139.9663   75.5225  219.1098 H   0  0  0  0  0  0  0  0  0  0  0  0
  143.2516   76.1097  219.5471 H   0  0  0  0  0  0  0  0  0  0  0  0
  145.4799   75.7365  220.5336 H   0  0  0  0  0  0  0  0  0  0  0  0
  144.4463   71.6142  221.2645 H   0  0  0  0  0  0  0  0  0  0  0  0
  138.8070   71.8550  221.9060 H   0  0  0  0  0  0  0  0  0  0  0  0
  140.6900   70.5948  223.1001 H   0  0  0  0  0  0  0  0  0  0  0  0
  141.1943   73.0915  225.6866 H   0  0  0  0  0  0  0  0  0  0  0  0
  141.4545   72.6754  228.0782 H   0  0  0  0  0  0  0  0  0  0  0  0
  141.0769   70.4358  229.0773 H   0  0  0  0  0  0  0  0  0  0  0  0
  140.1437   69.0028  225.1149 H   0  0  0  0  0  0  0  0  0  0  0  0
  1  2  2  0
  2  3  1  0
  3  4  1  0
  4  5  1  0
  5  6  1  0
  6  7  1  0
  7  8  2  0
  8  9  1  0
  9 10  2  0
 10 11  1  0
 10 12  1  0
 12 13  2  0
 13 14  1  0
  2 15  1  0
 15 16  1  0
 16 17  2  0
 17 18  1  0
 18 19  2  0
 19 20  1  0
 20 21  2  0
 21 22  1  0
 22 23  1  0
 23 24  1  0
 23 25  1  0
 23 26  1  0
 22 27  2  0
 13  7  1  0
 27 18  1  0
  3 28  1  0
  3 29  1  0
  4 30  1  0
  4 31  1  0
  5 32  1  0
  5 33  1  0
  8 34  1  0
  9 35  1  0
 12 36  1  0
 15 37  1  0
 17 38  1  0
 19 39  1  0
 20 40  1  0
 21 41  1  0
 27 42  1  0
M  END
>  <smiles>  (63) 
O=C(CCCOc1ccc(Cl)cc1Cl)NN=Cc1cccc(C(F)(F)F)c1

>  <score_type>  (63) 
oracle

>  <origin>  (63) 
autodockgpu

>  <m_score__min__energy>  (63) 
-7.5199999999999996

>  <m_primary>  (63) 
energy

>  <rmsd>  (63) 
9.206140547271602

>  <m_score__min__rmsd>  (63) 
9.206140547271602

>  <meeko>  (63) 
{"free_energy": -6.42, "intermolecular_energy": -9.11, "internal_energy": -1.41, "cluster_size": 4, "cluster_id": 6, "rank_in_cluster": 1}

>  <energy>  (63) 
-6.77

>  <cluster_rmsd>  (63) 
1.27

>  <cluster>  (63) 
2

$$$$

     RDKit          3D

 42 43  0  0  0  0  0  0  0  0999 V2000
  141.0320   71.7370  221.0950 O   0  0  0  0  0  0  0  0  0  0  0  0
  140.4640   72.7060  221.6720 C   0  0  0  0  0  0  0  0  0  0  0  0
  140.8460   74.1280  221.3820 C   0  0  0  0  0  0  0  0  0  0  0  0
  139.8410   74.6390  220.3810 C   0  0  0  0  0  0  0  0  0  0  0  0
  138.9880   75.7760  220.9510 C   0  0  0  0  0  0  0  0  0  0  0  0
  139.6210   76.7660  221.4940 O   0  0  0  0  0  0  0  0  0  0  0  0
  140.2680   77.7350  222.0120 C   0  0  0  0  0  0  0  0  0  0  0  0
  139.7880   78.4410  223.1240 C   0  0  0  0  0  0  0  0  0  0  0  0
  140.4710   79.4840  223.6920 C   0  0  0  0  0  0  0  0  0  0  0  0
  141.6720   79.8420  223.1350 C   0  0  0  0  0  0  0  0  0  0  0  0
  142.5470   81.1670  223.8490 Cl  0  0  0  0  0  0  0  0  0  0  0  0
  142.2100   79.2000  222.0430 C   0  0  0  0  0  0  0  0  0  0  0  0
  141.5020   78.1650  221.5040 C   0  0  0  0  0  0  0  0  0  0  0  0
  142.1400   77.3140  220.1140 Cl  0  0  0  0  0  0  0  0  0  0  0  0
  139.4200   72.4230  222.6340 N   0  0  0  0  0  0  0  0  0  0  0  0
  139.1180   71.1090  222.8530 N   0  0  0  0  0  0  0  0  0  0  0  0
  139.8630   70.3450  223.5320 C   0  0  0  0  0  0  0  0  0  0  0  0
  139.9610   70.1850  224.9580 C   0  0  0  0  0  0  0  0  0  0  0  0
  139.6020   68.9270  225.4670 C   0  0  0  0  0  0  0  0  0  0  0  0
  139.6590   68.6680  226.8150 C   0  0  0  0  0  0  0  0  0  0  0  0
  140.0630   69.6020  227.7450 C   0  0  0  0  0  0  0  0  0  0  0  0
  140.4170   70.8400  227.2560 C   0  0  0  0  0  0  0  0  0  0  0  0
  140.8630   71.8930  228.2020 C   0  0  0  0  0  0  0  0  0  0  0  0
  139.7590   72.2660  228.9650 F   0  0  0  0  0  0  0  0  0  0  0  0
  141.3200   73.0140  227.5660 F   0  0  0  0  0  0  0  0  0  0  0  0
  141.8380   71.4170  229.0590 F   0  0  0  0  0  0  0  0  0  0  0  0
  140.3570   71.0990  225.8750 C   0  0  0  0  0  0  0  0  0  0  0  0
  140.8061   74.7287  222.3027 H   0  0  0  0  0  0  0  0  0  0  0  0
  141.8715   74.1950  220.9897 H   0  0  0  0  0  0  0  0  0  0  0  0
  140.3787   75.0085  219.4954 H   0  0  0  0  0  0  0  0  0  0  0  0
  139.1686   73.8081  220.1214 H   0  0  0  0  0  0  0  0  0  0  0  0
  138.3807   76.1809  220.1281 H   0  0  0  0  0  0  0  0  0  0  0  0
  138.4114   75.3202  221.7693 H   0  0  0  0  0  0  0  0  0  0  0  0
  138.8220   78.1450  223.5589 H   0  0  0  0  0  0  0  0  0  0  0  0
  140.0692   80.0169  224.5664 H   0  0  0  0  0  0  0  0  0  0  0  0
  143.1767   79.5101  221.6195 H   0  0  0  0  0  0  0  0  0  0  0  0
  138.9320   73.1880  223.1540 H   0  0  0  0  0  0  0  0  0  0  0  0
  140.5379   69.7065  222.9430 H   0  0  0  0  0  0  0  0  0  0  0  0
  139.2703   68.1374  224.7767 H   0  0  0  0  0  0  0  0  0  0  0  0
  139.3685   67.6679  227.1691 H   0  0  0  0  0  0  0  0  0  0  0  0
  140.1006   69.3710  228.8198 H   0  0  0  0  0  0  0  0  0  0  0  0
  140.6477   72.0989  225.5205 H   0  0  0  0  0  0  0  0  0  0  0  0
  1  2  2  0
  2  3  1  0
  3  4  1  0
  4  5  1  0
  5  6  1  0
  6  7  1  0
  7  8  2  0
  8  9  1  0
  9 10  2  0
 10 11  1  0
 10 12  1  0
 12 13  2  0
 13 14  1  0
  2 15  1  0
 15 16  1  0
 16 17  2  0
 17 18  1  0
 18 19  2  0
 19 20  1  0
 20 21  2  0
 21 22  1  0
 22 23  1  0
 23 24  1  0
 23 25  1  0
 23 26  1  0
 22 27  2  0
 13  7  1  0
 27 18  1  0
  3 28  1  0
  3 29  1  0
  4 30  1  0
  4 31  1  0
  5 32  1  0
  5 33  1  0
  8 34  1  0
  9 35  1  0
 12 36  1  0
 15 37  1  0
 17 38  1  0
 19 39  1  0
 20 40  1  0
 21 41  1  0
 27 42  1  0
M  END
>  <smiles>  (64) 
O=C(CCCOc1ccc(Cl)cc1Cl)NN=Cc1cccc(C(F)(F)F)c1

>  <score_type>  (64) 
oracle

>  <origin>  (64) 
autodockgpu

>  <m_score__min__energy>  (64) 
-7.5199999999999996

>  <m_primary>  (64) 
energy

>  <rmsd>  (64) 
5.84846440321559

>  <m_score__min__rmsd>  (64) 
5.84846440321559

>  <meeko>  (64) 
{"free_energy": -6.94, "intermolecular_energy": -9.63, "internal_energy": -0.76, "cluster_size": 11, "cluster_id": 1, "rank_in_cluster": 4}

>  <energy>  (64) 
-6.73

>  <cluster_rmsd>  (64) 
1.3

>  <cluster>  (64) 
2

$$$$

     RDKit          3D

 42 43  0  0  0  0  0  0  0  0999 V2000
  140.0200   73.8540  221.9630 O   0  0  0  0  0  0  0  0  0  0  0  0
  141.0090   74.3580  221.3630 C   0  0  0  0  0  0  0  0  0  0  0  0
  141.7430   73.6090  220.2890 C   0  0  0  0  0  0  0  0  0  0  0  0
  143.1240   73.3390  220.8320 C   0  0  0  0  0  0  0  0  0  0  0  0
  144.1220   74.4300  220.4360 C   0  0  0  0  0  0  0  0  0  0  0  0
  143.6530   75.4390  219.7730 O   0  0  0  0  0  0  0  0  0  0  0  0
  143.2000   76.4190  219.0960 C   0  0  0  0  0  0  0  0  0  0  0  0
  142.5710   77.5160  219.7030 C   0  0  0  0  0  0  0  0  0  0  0  0
  142.0780   78.5760  218.9890 C   0  0  0  0  0  0  0  0  0  0  0  0
  142.2110   78.5470  217.6250 C   0  0  0  0  0  0  0  0  0  0  0  0
  141.5880   79.8900  216.7090 Cl  0  0  0  0  0  0  0  0  0  0  0  0
  142.8150   77.5070  216.9550 C   0  0  0  0  0  0  0  0  0  0  0  0
  143.2940   76.4680  217.6980 C   0  0  0  0  0  0  0  0  0  0  0  0
  144.0700   75.1190  216.8970 Cl  0  0  0  0  0  0  0  0  0  0  0  0
  141.4360   75.6930  221.7300 N   0  0  0  0  0  0  0  0  0  0  0  0
  140.7270   76.3220  222.7130 N   0  0  0  0  0  0  0  0  0  0  0  0
  140.2320   77.4750  222.5630 C   0  0  0  0  0  0  0  0  0  0  0  0
  140.8660   78.7650  222.6360 C   0  0  0  0  0  0  0  0  0  0  0  0
  141.8300   78.9260  223.6440 C   0  0  0  0  0  0  0  0  0  0  0  0
  142.4940   80.1180  223.8020 C   0  0  0  0  0  0  0  0  0  0  0  0
  142.2680   81.2180  223.0030 C   0  0  0  0  0  0  0  0  0  0  0  0
  141.3240   81.0700  222.0100 C   0  0  0  0  0  0  0  0  0  0  0  0
  141.0310   82.2150  221.1120 C   0  0  0  0  0  0  0  0  0  0  0  0
  141.7570   82.0240  219.9390 F   0  0  0  0  0  0  0  0  0  0  0  0
  141.4170   83.4150  221.6430 F   0  0  0  0  0  0  0  0  0  0  0  0
  139.6880   82.2650  220.7850 F   0  0  0  0  0  0  0  0  0  0  0  0
  140.6470   79.8480  221.8530 C   0  0  0  0  0  0  0  0  0  0  0  0
  141.2294   72.6623  220.0655 H   0  0  0  0  0  0  0  0  0  0  0  0
  141.7861   74.1881  219.3548 H   0  0  0  0  0  0  0  0  0  0  0  0
  143.0701   73.2891  221.9295 H   0  0  0  0  0  0  0  0  0  0  0  0
  143.4754   72.3877  220.4060 H   0  0  0  0  0  0  0  0  0  0  0  0
  144.5725   74.8201  221.3606 H   0  0  0  0  0  0  0  0  0  0  0  0
  144.8278   73.9386  219.7502 H   0  0  0  0  0  0  0  0  0  0  0  0
  142.4694   77.5255  220.7983 H   0  0  0  0  0  0  0  0  0  0  0  0
  141.5910   79.4233  219.4940 H   0  0  0  0  0  0  0  0  0  0  0  0
  142.9081   77.5136  215.8590 H   0  0  0  0  0  0  0  0  0  0  0  0
  142.2620   76.1480  221.2780 H   0  0  0  0  0  0  0  0  0  0  0  0
  139.1543   77.4958  222.3436 H   0  0  0  0  0  0  0  0  0  0  0  0
  142.0567   78.0857  224.3167 H   0  0  0  0  0  0  0  0  0  0  0  0
  143.2419   80.1985  224.6046 H   0  0  0  0  0  0  0  0  0  0  0  0
  142.8117   82.1629  223.1500 H   0  0  0  0  0  0  0  0  0  0  0  0
  139.8989   79.7671  221.0507 H   0  0  0  0  0  0  0  0  0  0  0  0
  1  2  2  0
  2  3  1  0
  3  4  1  0
  4  5  1  0
  5  6  1  0
  6  7  1  0
  7  8  2  0
  8  9  1  0
  9 10  2  0
 10 11  1  0
 10 12  1  0
 12 13  2  0
 13 14  1  0
  2 15  1  0
 15 16  1  0
 16 17  2  0
 17 18  1  0
 18 19  2  0
 19 20  1  0
 20 21  2  0
 21 22  1  0
 22 23  1  0
 23 24  1  0
 23 25  1  0
 23 26  1  0
 22 27  2  0
 13  7  1  0
 27 18  1  0
  3 28  1  0
  3 29  1  0
  4 30  1  0
  4 31  1  0
  5 32  1  0
  5 33  1  0
  8 34  1  0
  9 35  1  0
 12 36  1  0
 15 37  1  0
 17 38  1  0
 19 39  1  0
 20 40  1  0
 21 41  1  0
 27 42  1  0
M  END
>  <smiles>  (65) 
O=C(CCCOc1ccc(Cl)cc1Cl)NN=Cc1cccc(C(F)(F)F)c1

>  <score_type>  (65) 
oracle

>  <origin>  (65) 
autodockgpu

>  <m_score__min__energy>  (65) 
-7.5199999999999996

>  <m_primary>  (65) 
energy

>  <rmsd>  (65) 
8.134234431057754

>  <m_score__min__rmsd>  (65) 
8.134234431057754

>  <meeko>  (65) 
{"free_energy": -5.75, "intermolecular_energy": -8.44, "internal_energy": -2.29, "cluster_size": 5, "cluster_id": 8, "rank_in_cluster": 2}

>  <energy>  (65) 
-6.72

>  <cluster_rmsd>  (65) 
0.44

>  <cluster>  (65) 
2

$$$$

     RDKit          3D

 42 43  0  0  0  0  0  0  0  0999 V2000
  140.2510   73.6240  222.0750 O   0  0  0  0  0  0  0  0  0  0  0  0
  141.2440   74.1560  221.5060 C   0  0  0  0  0  0  0  0  0  0  0  0
  142.2130   73.3460  220.6940 C   0  0  0  0  0  0  0  0  0  0  0  0
  143.4870   74.1510  220.6320 C   0  0  0  0  0  0  0  0  0  0  0  0
  143.6340   74.8930  219.3000 C   0  0  0  0  0  0  0  0  0  0  0  0
  142.8460   75.9020  219.1030 O   0  0  0  0  0  0  0  0  0  0  0  0
  142.0950   76.9130  218.9090 C   0  0  0  0  0  0  0  0  0  0  0  0
  142.5830   78.2260  218.9720 C   0  0  0  0  0  0  0  0  0  0  0  0
  141.7890   79.3240  218.7660 C   0  0  0  0  0  0  0  0  0  0  0  0
  140.4630   79.1110  218.4900 C   0  0  0  0  0  0  0  0  0  0  0  0
  139.4450   80.4990  218.2280 Cl  0  0  0  0  0  0  0  0  0  0  0  0
  139.9080   77.8550  218.4120 C   0  0  0  0  0  0  0  0  0  0  0  0
  140.7290   76.7850  218.6230 C   0  0  0  0  0  0  0  0  0  0  0  0
  140.0740   75.1640  218.5350 Cl  0  0  0  0  0  0  0  0  0  0  0  0
  141.4410   75.5840  221.6460 N   0  0  0  0  0  0  0  0  0  0  0  0
  140.5240   76.2650  222.3960 N   0  0  0  0  0  0  0  0  0  0  0  0
  140.1560   77.4410  222.1150 C   0  0  0  0  0  0  0  0  0  0  0  0
  140.8150   78.6960  222.3640 C   0  0  0  0  0  0  0  0  0  0  0  0
  141.8240   78.6830  223.3390 C   0  0  0  0  0  0  0  0  0  0  0  0
  142.5160   79.8280  223.6540 C   0  0  0  0  0  0  0  0  0  0  0  0
  142.2760   81.0430  223.0500 C   0  0  0  0  0  0  0  0  0  0  0  0
  141.2860   81.0660  222.0920 C   0  0  0  0  0  0  0  0  0  0  0  0
  140.9750   82.3430  221.4000 C   0  0  0  0  0  0  0  0  0  0  0  0
  141.7890   83.3280  221.9530 F   0  0  0  0  0  0  0  0  0  0  0  0
  139.6770   82.7350  221.5760 F   0  0  0  0  0  0  0  0  0  0  0  0
  141.2540   82.2610  220.0490 F   0  0  0  0  0  0  0  0  0  0  0  0
  140.5820   79.8910  221.7740 C   0  0  0  0  0  0  0  0  0  0  0  0
  142.3983   72.3758  221.1781 H   0  0  0  0  0  0  0  0  0  0  0  0
  141.8191   73.1413  219.6875 H   0  0  0  0  0  0  0  0  0  0  0  0
  143.4820   74.8869  221.4496 H   0  0  0  0  0  0  0  0  0  0  0  0
  144.3332   73.4548  220.7278 H   0  0  0  0  0  0  0  0  0  0  0  0
  144.6685   75.2615  219.2369 H   0  0  0  0  0  0  0  0  0  0  0  0
  143.3583   74.1580  218.5294 H   0  0  0  0  0  0  0  0  0  0  0  0
  143.6486   78.3814  219.1963 H   0  0  0  0  0  0  0  0  0  0  0  0
  142.2018   80.3421  218.8203 H   0  0  0  0  0  0  0  0  0  0  0  0
  138.8400   77.7175  218.1875 H   0  0  0  0  0  0  0  0  0  0  0  0
  142.2580   76.0700  221.2110 H   0  0  0  0  0  0  0  0  0  0  0  0
  139.1855   77.5168  221.6028 H   0  0  0  0  0  0  0  0  0  0  0  0
  142.0645   77.7436  223.8583 H   0  0  0  0  0  0  0  0  0  0  0  0
  143.2986   79.7718  224.4249 H   0  0  0  0  0  0  0  0  0  0  0  0
  142.8442   81.9459  223.3182 H   0  0  0  0  0  0  0  0  0  0  0  0
  139.7990   79.9465  221.0034 H   0  0  0  0  0  0  0  0  0  0  0  0
  1  2  2  0
  2  3  1  0
  3  4  1  0
  4  5  1  0
  5  6  1  0
  6  7  1  0
  7  8  2  0
  8  9  1  0
  9 10  2  0
 10 11  1  0
 10 12  1  0
 12 13  2  0
 13 14  1  0
  2 15  1  0
 15 16  1  0
 16 17  2  0
 17 18  1  0
 18 19  2  0
 19 20  1  0
 20 21  2  0
 21 22  1  0
 22 23  1  0
 23 24  1  0
 23 25  1  0
 23 26  1  0
 22 27  2  0
 13  7  1  0
 27 18  1  0
  3 28  1  0
  3 29  1  0
  4 30  1  0
  4 31  1  0
  5 32  1  0
  5 33  1  0
  8 34  1  0
  9 35  1  0
 12 36  1  0
 15 37  1  0
 17 38  1  0
 19 39  1  0
 20 40  1  0
 21 41  1  0
 27 42  1  0
M  END
>  <smiles>  (66) 
O=C(CCCOc1ccc(Cl)cc1Cl)NN=Cc1cccc(C(F)(F)F)c1

>  <score_type>  (66) 
oracle

>  <origin>  (66) 
autodockgpu

>  <m_score__min__energy>  (66) 
-7.5199999999999996

>  <m_primary>  (66) 
energy

>  <rmsd>  (66) 
7.601519252084224

>  <m_score__min__rmsd>  (66) 
7.601519252084224

>  <meeko>  (66) 
{"free_energy": -4.69, "intermolecular_energy": -7.38, "internal_energy": -3.01, "cluster_size": 5, "cluster_id": 8, "rank_in_cluster": 5}

>  <energy>  (66) 
-6.46

>  <cluster_rmsd>  (66) 
1.85

>  <cluster>  (66) 
2

$$$$

     RDKit          3D

 42 43  0  0  0  0  0  0  0  0999 V2000
  139.7600   74.3740  220.2420 O   0  0  0  0  0  0  0  0  0  0  0  0
  140.9290   74.4480  220.7110 C   0  0  0  0  0  0  0  0  0  0  0  0
  141.9620   73.3980  220.4200 C   0  0  0  0  0  0  0  0  0  0  0  0
  141.7790   72.3260  221.4640 C   0  0  0  0  0  0  0  0  0  0  0  0
  140.5900   72.6160  222.3850 C   0  0  0  0  0  0  0  0  0  0  0  0
  140.5070   71.9180  223.4720 O   0  0  0  0  0  0  0  0  0  0  0  0
  140.4450   71.2490  224.5550 C   0  0  0  0  0  0  0  0  0  0  0  0
  141.0910   71.6680  225.7270 C   0  0  0  0  0  0  0  0  0  0  0  0
  141.0340   70.9600  226.8990 C   0  0  0  0  0  0  0  0  0  0  0  0
  140.3130   69.7950  226.9080 C   0  0  0  0  0  0  0  0  0  0  0  0
  140.2350   68.8890  228.3930 Cl  0  0  0  0  0  0  0  0  0  0  0  0
  139.6510   69.3160  225.8010 C   0  0  0  0  0  0  0  0  0  0  0  0
  139.7300   70.0470  224.6510 C   0  0  0  0  0  0  0  0  0  0  0  0
  138.9070   69.4840  223.2120 Cl  0  0  0  0  0  0  0  0  0  0  0  0
  141.2700   75.5800  221.5490 N   0  0  0  0  0  0  0  0  0  0  0  0
  140.2870   76.5000  221.7760 N   0  0  0  0  0  0  0  0  0  0  0  0
  140.3490   77.3430  222.7160 C   0  0  0  0  0  0  0  0  0  0  0  0
  140.9620   78.6450  222.7460 C   0  0  0  0  0  0  0  0  0  0  0  0
  141.9170   78.8580  223.7530 C   0  0  0  0  0  0  0  0  0  0  0  0
  142.5610   80.0660  223.8700 C   0  0  0  0  0  0  0  0  0  0  0  0
  142.3230   81.1320  223.0290 C   0  0  0  0  0  0  0  0  0  0  0  0
  141.3870   80.9330  222.0380 C   0  0  0  0  0  0  0  0  0  0  0  0
  141.0820   82.0390  221.0960 C   0  0  0  0  0  0  0  0  0  0  0  0
  141.8120   81.8120  219.9320 F   0  0  0  0  0  0  0  0  0  0  0  0
  141.4510   83.2630  221.5810 F   0  0  0  0  0  0  0  0  0  0  0  0
  139.7390   82.0590  220.7650 F   0  0  0  0  0  0  0  0  0  0  0  0
  140.7310   79.6940  221.9220 C   0  0  0  0  0  0  0  0  0  0  0  0
  141.8083   72.9805  219.4140 H   0  0  0  0  0  0  0  0  0  0  0  0
  142.9786   73.8171  220.4502 H   0  0  0  0  0  0  0  0  0  0  0  0
  141.6098   71.3638  220.9585 H   0  0  0  0  0  0  0  0  0  0  0  0
  142.6879   72.2971  222.0830 H   0  0  0  0  0  0  0  0  0  0  0  0
  140.6444   73.6759  222.6741 H   0  0  0  0  0  0  0  0  0  0  0  0
  139.7002   72.3414  221.7994 H   0  0  0  0  0  0  0  0  0  0  0  0
  141.6678   72.6044  225.7047 H   0  0  0  0  0  0  0  0  0  0  0  0
  141.5502   71.3154  227.8030 H   0  0  0  0  0  0  0  0  0  0  0  0
  139.0786   68.3775  225.8413 H   0  0  0  0  0  0  0  0  0  0  0  0
  142.2180   75.6780  221.9790 H   0  0  0  0  0  0  0  0  0  0  0  0
  139.8608   77.0350  223.6524 H   0  0  0  0  0  0  0  0  0  0  0  0
  142.1527   78.0469  224.4577 H   0  0  0  0  0  0  0  0  0  0  0  0
  143.3023   80.1884  224.6735 H   0  0  0  0  0  0  0  0  0  0  0  0
  142.8519   82.0898  223.1431 H   0  0  0  0  0  0  0  0  0  0  0  0
  139.9902   79.5708  221.1182 H   0  0  0  0  0  0  0  0  0  0  0  0
  1  2  2  0
  2  3  1  0
  3  4  1  0
  4  5  1  0
  5  6  1  0
  6  7  1  0
  7  8  2  0
  8  9  1  0
  9 10  2  0
 10 11  1  0
 10 12  1  0
 12 13  2  0
 13 14  1  0
  2 15  1  0
 15 16  1  0
 16 17  2  0
 17 18  1  0
 18 19  2  0
 19 20  1  0
 20 21  2  0
 21 22  1  0
 22 23  1  0
 23 24  1  0
 23 25  1  0
 23 26  1  0
 22 27  2  0
 13  7  1  0
 27 18  1  0
  3 28  1  0
  3 29  1  0
  4 30  1  0
  4 31  1  0
  5 32  1  0
  5 33  1  0
  8 34  1  0
  9 35  1  0
 12 36  1  0
 15 37  1  0
 17 38  1  0
 19 39  1  0
 20 40  1  0
 21 41  1  0
 27 42  1  0
M  END
>  <smiles>  (67) 
O=C(CCCOc1ccc(Cl)cc1Cl)NN=Cc1cccc(C(F)(F)F)c1

>  <score_type>  (67) 
oracle

>  <origin>  (67) 
autodockgpu

>  <m_score__min__energy>  (67) 
-7.5199999999999996

>  <m_primary>  (67) 
energy

>  <rmsd>  (67) 
12.159883941008069

>  <m_score__min__rmsd>  (67) 
12.159883941008069

>  <meeko>  (67) 
{"free_energy": -6.91, "intermolecular_energy": -9.59, "internal_energy": -0.81, "cluster_size": 5, "cluster_id": 2, "rank_in_cluster": 1}

>  <energy>  (67) 
-6.81

>  <cluster_rmsd>  (67) 
0.0

>  <cluster>  (67) 
3

$$$$

     RDKit          3D

 42 43  0  0  0  0  0  0  0  0999 V2000
  141.1920   75.4170  221.9240 O   0  0  0  0  0  0  0  0  0  0  0  0
  139.9420   75.2390  221.9420 C   0  0  0  0  0  0  0  0  0  0  0  0
  138.9860   76.3270  221.5480 C   0  0  0  0  0  0  0  0  0  0  0  0
  137.8470   76.2650  222.5340 C   0  0  0  0  0  0  0  0  0  0  0  0
  136.6480   75.4910  221.9810 C   0  0  0  0  0  0  0  0  0  0  0  0
  136.3670   74.3620  222.5490 O   0  0  0  0  0  0  0  0  0  0  0  0
  136.0620   73.2590  223.1090 C   0  0  0  0  0  0  0  0  0  0  0  0
  135.3800   73.2090  224.3340 C   0  0  0  0  0  0  0  0  0  0  0  0
  135.0450   72.0320  224.9490 C   0  0  0  0  0  0  0  0  0  0  0  0
  135.4010   70.8620  224.3290 C   0  0  0  0  0  0  0  0  0  0  0  0
  134.9800   69.3600  225.1030 Cl  0  0  0  0  0  0  0  0  0  0  0  0
  136.0710   70.8260  223.1270 C   0  0  0  0  0  0  0  0  0  0  0  0
  136.3880   72.0190  222.5440 C   0  0  0  0  0  0  0  0  0  0  0  0
  137.2410   72.0320  221.0150 Cl  0  0  0  0  0  0  0  0  0  0  0  0
  139.4320   73.9480  222.3550 N   0  0  0  0  0  0  0  0  0  0  0  0
  140.3530   73.0000  222.7010 N   0  0  0  0  0  0  0  0  0  0  0  0
  140.0280   71.8170  223.0060 C   0  0  0  0  0  0  0  0  0  0  0  0
  139.9550   71.1870  224.2980 C   0  0  0  0  0  0  0  0  0  0  0  0
  139.2890   69.9520  224.3480 C   0  0  0  0  0  0  0  0  0  0  0  0
  139.1620   69.2660  225.5330 C   0  0  0  0  0  0  0  0  0  0  0  0
  139.6660   69.7290  226.7290 C   0  0  0  0  0  0  0  0  0  0  0  0
  140.3210   70.9400  226.6900 C   0  0  0  0  0  0  0  0  0  0  0  0
  140.8900   71.4980  227.9420 C   0  0  0  0  0  0  0  0  0  0  0  0
  141.5630   70.4680  228.5920 F   0  0  0  0  0  0  0  0  0  0  0  0
  139.9290   71.9640  228.7960 F   0  0  0  0  0  0  0  0  0  0  0  0
  141.7990   72.5060  227.6750 F   0  0  0  0  0  0  0  0  0  0  0  0
  140.4480   71.6380  225.4750 C   0  0  0  0  0  0  0  0  0  0  0  0
  139.4820   77.3074  221.5998 H   0  0  0  0  0  0  0  0  0  0  0  0
  138.6299   76.1928  220.5159 H   0  0  0  0  0  0  0  0  0  0  0  0
  138.1979   75.7680  223.4504 H   0  0  0  0  0  0  0  0  0  0  0  0
  137.5199   77.2951  222.7387 H   0  0  0  0  0  0  0  0  0  0  0  0
  135.7635   76.1384  222.0729 H   0  0  0  0  0  0  0  0  0  0  0  0
  136.9257   75.2313  220.9488 H   0  0  0  0  0  0  0  0  0  0  0  0
  135.1025   74.1554  224.8213 H   0  0  0  0  0  0  0  0  0  0  0  0
  134.5079   72.0255  225.9089 H   0  0  0  0  0  0  0  0  0  0  0  0
  136.3411   69.8706  222.6535 H   0  0  0  0  0  0  0  0  0  0  0  0
  138.4060   73.7550  222.4060 H   0  0  0  0  0  0  0  0  0  0  0  0
  139.7608   71.1720  222.1559 H   0  0  0  0  0  0  0  0  0  0  0  0
  138.8631   69.5275  223.4269 H   0  0  0  0  0  0  0  0  0  0  0  0
  138.6329   68.3017  225.5258 H   0  0  0  0  0  0  0  0  0  0  0  0
  139.5514   69.1619  227.6646 H   0  0  0  0  0  0  0  0  0  0  0  0
  140.9767   72.6026  225.4821 H   0  0  0  0  0  0  0  0  0  0  0  0
  1  2  2  0
  2  3  1  0
  3  4  1  0
  4  5  1  0
  5  6  1  0
  6  7  1  0
  7  8  2  0
  8  9  1  0
  9 10  2  0
 10 11  1  0
 10 12  1  0
 12 13  2  0
 13 14  1  0
  2 15  1  0
 15 16  1  0
 16 17  2  0
 17 18  1  0
 18 19  2  0
 19 20  1  0
 20 21  2  0
 21 22  1  0
 22 23  1  0
 23 24  1  0
 23 25  1  0
 23 26  1  0
 22 27  2  0
 13  7  1  0
 27 18  1  0
  3 28  1  0
  3 29  1  0
  4 30  1  0
  4 31  1  0
  5 32  1  0
  5 33  1  0
  8 34  1  0
  9 35  1  0
 12 36  1  0
 15 37  1  0
 17 38  1  0
 19 39  1  0
 20 40  1  0
 21 41  1  0
 27 42  1  0
M  END
>  <smiles>  (68) 
O=C(CCCOc1ccc(Cl)cc1Cl)NN=Cc1cccc(C(F)(F)F)c1

>  <score_type>  (68) 
oracle

>  <origin>  (68) 
autodockgpu

>  <m_score__min__energy>  (68) 
-7.5199999999999996

>  <m_primary>  (68) 
energy

>  <rmsd>  (68) 
10.528193396803296

>  <m_score__min__rmsd>  (68) 
10.528193396803296

>  <meeko>  (68) 
{"free_energy": -5.21, "intermolecular_energy": -7.89, "internal_energy": -2.61, "cluster_size": 12, "cluster_id": 9, "rank_in_cluster": 10}

>  <energy>  (68) 
-6.74

>  <cluster_rmsd>  (68) 
0.0

>  <cluster>  (68) 
4

$$$$

     RDKit          3D

 42 43  0  0  0  0  0  0  0  0999 V2000
  140.0540   74.2960  219.9710 O   0  0  0  0  0  0  0  0  0  0  0  0
  139.2600   74.5730  220.9120 C   0  0  0  0  0  0  0  0  0  0  0  0
  138.0680   75.4620  220.7010 C   0  0  0  0  0  0  0  0  0  0  0  0
  137.2170   75.3260  221.9390 C   0  0  0  0  0  0  0  0  0  0  0  0
  137.0920   76.6490  222.7000 C   0  0  0  0  0  0  0  0  0  0  0  0
  138.1680   77.3600  222.8170 O   0  0  0  0  0  0  0  0  0  0  0  0
  139.2190   78.0670  222.9610 C   0  0  0  0  0  0  0  0  0  0  0  0
  140.5000   77.5600  222.6950 C   0  0  0  0  0  0  0  0  0  0  0  0
  141.6380   78.3070  222.8440 C   0  0  0  0  0  0  0  0  0  0  0  0
  141.5030   79.6020  223.2740 C   0  0  0  0  0  0  0  0  0  0  0  0
  142.9440   80.5590  223.4670 Cl  0  0  0  0  0  0  0  0  0  0  0  0
  140.2830   80.1720  223.5560 C   0  0  0  0  0  0  0  0  0  0  0  0
  139.1700   79.3990  223.3960 C   0  0  0  0  0  0  0  0  0  0  0  0
  137.5920   80.0740  223.7410 Cl  0  0  0  0  0  0  0  0  0  0  0  0
  139.5160   74.0120  222.2230 N   0  0  0  0  0  0  0  0  0  0  0  0
  140.6150   73.2120  222.3500 N   0  0  0  0  0  0  0  0  0  0  0  0
  140.5320   71.9860  222.6480 C   0  0  0  0  0  0  0  0  0  0  0  0
  140.2390   71.3640  223.9120 C   0  0  0  0  0  0  0  0  0  0  0  0
  139.3810   70.2540  223.8730 C   0  0  0  0  0  0  0  0  0  0  0  0
  139.0370   69.5880  225.0250 C   0  0  0  0  0  0  0  0  0  0  0  0
  139.4970   69.9510  226.2720 C   0  0  0  0  0  0  0  0  0  0  0  0
  140.3400   71.0390  226.3210 C   0  0  0  0  0  0  0  0  0  0  0  0
  140.8750   71.4840  227.6320 C   0  0  0  0  0  0  0  0  0  0  0  0
  141.4310   70.3720  228.2580 F   0  0  0  0  0  0  0  0  0  0  0  0
  139.9020   71.9770  228.4580 F   0  0  0  0  0  0  0  0  0  0  0  0
  141.8690   72.4320  227.4720 F   0  0  0  0  0  0  0  0  0  0  0  0
  140.6890   71.7170  225.1390 C   0  0  0  0  0  0  0  0  0  0  0  0
  138.3891   76.5061  220.5719 H   0  0  0  0  0  0  0  0  0  0  0  0
  137.5096   75.1760  219.7974 H   0  0  0  0  0  0  0  0  0  0  0  0
  136.2120   74.9904  221.6435 H   0  0  0  0  0  0  0  0  0  0  0  0
  137.7015   74.5966  222.6048 H   0  0  0  0  0  0  0  0  0  0  0  0
  136.3427   77.2630  222.1789 H   0  0  0  0  0  0  0  0  0  0  0  0
  136.8219   76.3650  223.7278 H   0  0  0  0  0  0  0  0  0  0  0  0
  140.5941   76.5189  222.3525 H   0  0  0  0  0  0  0  0  0  0  0  0
  142.6287   77.8818  222.6257 H   0  0  0  0  0  0  0  0  0  0  0  0
  140.2074   81.2146  223.8985 H   0  0  0  0  0  0  0  0  0  0  0  0
  138.9000   74.2260  223.0400 H   0  0  0  0  0  0  0  0  0  0  0  0
  140.7108   71.2899  221.8153 H   0  0  0  0  0  0  0  0  0  0  0  0
  138.9786   69.9126  222.9078 H   0  0  0  0  0  0  0  0  0  0  0  0
  138.3617   68.7232  224.9477 H   0  0  0  0  0  0  0  0  0  0  0  0
  139.2066   69.4014  227.1795 H   0  0  0  0  0  0  0  0  0  0  0  0
  141.3647   72.5816  225.2159 H   0  0  0  0  0  0  0  0  0  0  0  0
  1  2  2  0
  2  3  1  0
  3  4  1  0
  4  5  1  0
  5  6  1  0
  6  7  1  0
  7  8  2  0
  8  9  1  0
  9 10  2  0
 10 11  1  0
 10 12  1  0
 12 13  2  0
 13 14  1  0
  2 15  1  0
 15 16  1  0
 16 17  2  0
 17 18  1  0
 18 19  2  0
 19 20  1  0
 20 21  2  0
 21 22  1  0
 22 23  1  0
 23 24  1  0
 23 25  1  0
 23 26  1  0
 22 27  2  0
 13  7  1  0
 27 18  1  0
  3 28  1  0
  3 29  1  0
  4 30  1  0
  4 31  1  0
  5 32  1  0
  5 33  1  0
  8 34  1  0
  9 35  1  0
 12 36  1  0
 15 37  1  0
 17 38  1  0
 19 39  1  0
 20 40  1  0
 21 41  1  0
 27 42  1  0
M  END
>  <smiles>  (69) 
O=C(CCCOc1ccc(Cl)cc1Cl)NN=Cc1cccc(C(F)(F)F)c1

>  <score_type>  (69) 
oracle

>  <origin>  (69) 
autodockgpu

>  <m_score__min__energy>  (69) 
-7.5199999999999996

>  <m_primary>  (69) 
energy

>  <rmsd>  (69) 
6.086569702570806

>  <m_score__min__rmsd>  (69) 
6.086569702570806

>  <meeko>  (69) 
{"free_energy": -6.99, "intermolecular_energy": -9.67, "internal_energy": -1.04, "cluster_size": 11, "cluster_id": 1, "rank_in_cluster": 3}

>  <energy>  (69) 
-6.68

>  <cluster_rmsd>  (69) 
0.0

>  <cluster>  (69) 
5

$$$$

     RDKit          3D

 42 43  0  0  0  0  0  0  0  0999 V2000
  140.3530   73.8940  220.1600 O   0  0  0  0  0  0  0  0  0  0  0  0
  139.5100   73.8330  221.0980 C   0  0  0  0  0  0  0  0  0  0  0  0
  138.4430   72.7780  221.1300 C   0  0  0  0  0  0  0  0  0  0  0  0
  138.4810   72.1810  222.5140 C   0  0  0  0  0  0  0  0  0  0  0  0
  139.9120   72.0540  223.0460 C   0  0  0  0  0  0  0  0  0  0  0  0
  140.0750   71.3580  224.1250 O   0  0  0  0  0  0  0  0  0  0  0  0
  140.2250   70.6480  225.1730 C   0  0  0  0  0  0  0  0  0  0  0  0
  140.9070   71.1230  226.3020 C   0  0  0  0  0  0  0  0  0  0  0  0
  141.0770   70.3720  227.4360 C   0  0  0  0  0  0  0  0  0  0  0  0
  140.5530   69.1060  227.4500 C   0  0  0  0  0  0  0  0  0  0  0  0
  140.7640   68.1440  228.8860 Cl  0  0  0  0  0  0  0  0  0  0  0  0
  139.8710   68.5670  226.3830 C   0  0  0  0  0  0  0  0  0  0  0  0
  139.7210   69.3430  225.2700 C   0  0  0  0  0  0  0  0  0  0  0  0
  138.8620   68.7070  223.8840 Cl  0  0  0  0  0  0  0  0  0  0  0  0
  139.5880   74.8100  222.1640 N   0  0  0  0  0  0  0  0  0  0  0  0
  140.5820   75.7430  222.0780 N   0  0  0  0  0  0  0  0  0  0  0  0
  140.3880   76.9010  221.6100 C   0  0  0  0  0  0  0  0  0  0  0  0
  140.8070   78.1810  222.1180 C   0  0  0  0  0  0  0  0  0  0  0  0
  141.4320   78.1750  223.3750 C   0  0  0  0  0  0  0  0  0  0  0  0
  141.8700   79.3430  223.9510 C   0  0  0  0  0  0  0  0  0  0  0  0
  141.7310   80.5760  223.3520 C   0  0  0  0  0  0  0  0  0  0  0  0
  141.1190   80.5930  222.1180 C   0  0  0  0  0  0  0  0  0  0  0  0
  140.9380   81.8880  221.4150 C   0  0  0  0  0  0  0  0  0  0  0  0
  141.7210   82.8340  222.0720 F   0  0  0  0  0  0  0  0  0  0  0  0
  139.6440   82.3300  221.4490 F   0  0  0  0  0  0  0  0  0  0  0  0
  141.3660   81.8100  220.1030 F   0  0  0  0  0  0  0  0  0  0  0  0
  140.6730   79.3940  221.5330 C   0  0  0  0  0  0  0  0  0  0  0  0
  137.4576   73.2266  220.9354 H   0  0  0  0  0  0  0  0  0  0  0  0
  138.6140   72.0123  220.3590 H   0  0  0  0  0  0  0  0  0  0  0  0
  137.9052   72.8254  223.1945 H   0  0  0  0  0  0  0  0  0  0  0  0
  138.0481   71.1712  222.4601 H   0  0  0  0  0  0  0  0  0  0  0  0
  140.5206   71.5899  222.2559 H   0  0  0  0  0  0  0  0  0  0  0  0
  140.2097   73.0777  223.3168 H   0  0  0  0  0  0  0  0  0  0  0  0
  141.3231   72.1410  226.2768 H   0  0  0  0  0  0  0  0  0  0  0  0
  141.6167   70.7727  228.3067 H   0  0  0  0  0  0  0  0  0  0  0  0
  139.4613   67.5470  226.4255 H   0  0  0  0  0  0  0  0  0  0  0  0
  138.9030   74.8150  222.9540 H   0  0  0  0  0  0  0  0  0  0  0  0
  139.8122   76.9359  220.6734 H   0  0  0  0  0  0  0  0  0  0  0  0
  141.5730   77.2221  223.9061 H   0  0  0  0  0  0  0  0  0  0  0  0
  142.3546   79.2913  224.9371 H   0  0  0  0  0  0  0  0  0  0  0  0
  142.0896   81.4977  223.8335 H   0  0  0  0  0  0  0  0  0  0  0  0
  140.1890   79.4451  220.5465 H   0  0  0  0  0  0  0  0  0  0  0  0
  1  2  2  0
  2  3  1  0
  3  4  1  0
  4  5  1  0
  5  6  1  0
  6  7  1  0
  7  8  2  0
  8  9  1  0
  9 10  2  0
 10 11  1  0
 10 12  1  0
 12 13  2  0
 13 14  1  0
  2 15  1  0
 15 16  1  0
 16 17  2  0
 17 18  1  0
 18 19  2  0
 19 20  1  0
 20 21  2  0
 21 22  1  0
 22 23  1  0
 23 24  1  0
 23 25  1  0
 23 26  1  0
 22 27  2  0
 13  7  1  0
 27 18  1  0
  3 28  1  0
  3 29  1  0
  4 30  1  0
  4 31  1  0
  5 32  1  0
  5 33  1  0
  8 34  1  0
  9 35  1  0
 12 36  1  0
 15 37  1  0
 17 38  1  0
 19 39  1  0
 20 40  1  0
 21 41  1  0
 27 42  1  0
M  END
>  <smiles>  (70) 
O=C(CCCOc1ccc(Cl)cc1Cl)NN=Cc1cccc(C(F)(F)F)c1

>  <score_type>  (70) 
oracle

>  <origin>  (70) 
autodockgpu

>  <m_score__min__energy>  (70) 
-7.5199999999999996

>  <m_primary>  (70) 
energy

>  <rmsd>  (70) 
12.919266160506643

>  <m_score__min__rmsd>  (70) 
12.919266160506643

>  <meeko>  (70) 
{"free_energy": -6.77, "intermolecular_energy": -9.46, "internal_energy": -0.72, "cluster_size": 5, "cluster_id": 2, "rank_in_cluster": 2}

>  <energy>  (70) 
-6.4

>  <cluster_rmsd>  (70) 
1.99

>  <cluster>  (70) 
5

$$$$

     RDKit          3D

 42 43  0  0  0  0  0  0  0  0999 V2000
  139.9270   75.6350  222.3640 O   0  0  0  0  0  0  0  0  0  0  0  0
  138.9120   74.8850  222.3240 C   0  0  0  0  0  0  0  0  0  0  0  0
  137.5210   75.4460  222.2700 C   0  0  0  0  0  0  0  0  0  0  0  0
  137.4110   76.1750  220.9540 C   0  0  0  0  0  0  0  0  0  0  0  0
  137.4020   77.6950  221.1370 C   0  0  0  0  0  0  0  0  0  0  0  0
  138.4630   78.2280  221.6550 O   0  0  0  0  0  0  0  0  0  0  0  0
  139.5180   78.7570  222.1380 C   0  0  0  0  0  0  0  0  0  0  0  0
  139.4860   79.5740  223.2770 C   0  0  0  0  0  0  0  0  0  0  0  0
  140.6100   80.1490  223.8080 C   0  0  0  0  0  0  0  0  0  0  0  0
  141.8080   79.9080  223.1860 C   0  0  0  0  0  0  0  0  0  0  0  0
  143.2420   80.6350  223.8530 Cl  0  0  0  0  0  0  0  0  0  0  0  0
  141.9220   79.1180  222.0640 C   0  0  0  0  0  0  0  0  0  0  0  0
  140.7810   78.5610  221.5630 C   0  0  0  0  0  0  0  0  0  0  0  0
  140.8680   77.5490  220.1380 Cl  0  0  0  0  0  0  0  0  0  0  0  0
  139.1100   73.4500  222.3290 N   0  0  0  0  0  0  0  0  0  0  0  0
  140.3990   73.0030  222.3790 N   0  0  0  0  0  0  0  0  0  0  0  0
  140.7100   71.8800  222.8710 C   0  0  0  0  0  0  0  0  0  0  0  0
  140.3880   71.3170  224.1550 C   0  0  0  0  0  0  0  0  0  0  0  0
  139.5490   70.1910  224.1450 C   0  0  0  0  0  0  0  0  0  0  0  0
  139.1790   69.5760  225.3170 C   0  0  0  0  0  0  0  0  0  0  0  0
  139.5940   70.0090  226.5580 C   0  0  0  0  0  0  0  0  0  0  0  0
  140.4170   71.1130  226.5780 C   0  0  0  0  0  0  0  0  0  0  0  0
  140.9020   71.6330  227.8820 C   0  0  0  0  0  0  0  0  0  0  0  0
  141.8220   72.6420  227.6140 F   0  0  0  0  0  0  0  0  0  0  0  0
  141.5420   70.6790  228.6250 F   0  0  0  0  0  0  0  0  0  0  0  0
  139.8670   72.1760  228.6200 F   0  0  0  0  0  0  0  0  0  0  0  0
  140.7930   71.7380  225.3760 C   0  0  0  0  0  0  0  0  0  0  0  0
  136.7804   74.6341  222.3191 H   0  0  0  0  0  0  0  0  0  0  0  0
  137.3275   76.1192  223.1181 H   0  0  0  0  0  0  0  0  0  0  0  0
  138.2684   75.8988  220.3227 H   0  0  0  0  0  0  0  0  0  0  0  0
  136.4597   75.8846  220.4842 H   0  0  0  0  0  0  0  0  0  0  0  0
  137.2519   78.1484  220.1461 H   0  0  0  0  0  0  0  0  0  0  0  0
  136.5982   77.8925  221.8614 H   0  0  0  0  0  0  0  0  0  0  0  0
  138.5178   79.7610  223.7645 H   0  0  0  0  0  0  0  0  0  0  0  0
  140.5535   80.7837  224.7046 H   0  0  0  0  0  0  0  0  0  0  0  0
  142.8980   78.9420  221.5882 H   0  0  0  0  0  0  0  0  0  0  0  0
  138.3030   72.7860  222.3170 H   0  0  0  0  0  0  0  0  0  0  0  0
  141.3186   71.2367  222.2185 H   0  0  0  0  0  0  0  0  0  0  0  0
  139.1829   69.7958  223.1860 H   0  0  0  0  0  0  0  0  0  0  0  0
  138.5205   68.6966  225.2621 H   0  0  0  0  0  0  0  0  0  0  0  0
  139.2844   69.5001  227.4828 H   0  0  0  0  0  0  0  0  0  0  0  0
  141.4522   72.6169  225.4309 H   0  0  0  0  0  0  0  0  0  0  0  0
  1  2  2  0
  2  3  1  0
  3  4  1  0
  4  5  1  0
  5  6  1  0
  6  7  1  0
  7  8  2  0
  8  9  1  0
  9 10  2  0
 10 11  1  0
 10 12  1  0
 12 13  2  0
 13 14  1  0
  2 15  1  0
 15 16  1  0
 16 17  2  0
 17 18  1  0
 18 19  2  0
 19 20  1  0
 20 21  2  0
 21 22  1  0
 22 23  1  0
 23 24  1  0
 23 25  1  0
 23 26  1  0
 22 27  2  0
 13  7  1  0
 27 18  1  0
  3 28  1  0
  3 29  1  0
  4 30  1  0
  4 31  1  0
  5 32  1  0
  5 33  1  0
  8 34  1  0
  9 35  1  0
 12 36  1  0
 15 37  1  0
 17 38  1  0
 19 39  1  0
 20 40  1  0
 21 41  1  0
 27 42  1  0
M  END
>  <smiles>  (71) 
O=C(CCCOc1ccc(Cl)cc1Cl)NN=Cc1cccc(C(F)(F)F)c1

>  <score_type>  (71) 
oracle

>  <origin>  (71) 
autodockgpu

>  <m_score__min__energy>  (71) 
-7.5199999999999996

>  <m_primary>  (71) 
energy

>  <rmsd>  (71) 
4.815082181626418

>  <m_score__min__rmsd>  (71) 
4.815082181626418

>  <meeko>  (71) 
{"free_energy": -6.42, "intermolecular_energy": -9.11, "internal_energy": -1.09, "cluster_size": 11, "cluster_id": 1, "rank_in_cluster": 9}

>  <energy>  (71) 
-6.42

>  <cluster_rmsd>  (71) 
0.0

>  <cluster>  (71) 
6

$$$$

     RDKit          3D

 42 43  0  0  0  0  0  0  0  0999 V2000
  139.5570   75.4980  222.4280 O   0  0  0  0  0  0  0  0  0  0  0  0
  139.7120   74.8330  221.3660 C   0  0  0  0  0  0  0  0  0  0  0  0
  139.4800   75.4430  220.0140 C   0  0  0  0  0  0  0  0  0  0  0  0
  139.0470   74.3150  219.1120 C   0  0  0  0  0  0  0  0  0  0  0  0
  140.2230   73.7150  218.3350 C   0  0  0  0  0  0  0  0  0  0  0  0
  141.3530   73.6270  218.9600 O   0  0  0  0  0  0  0  0  0  0  0  0
  142.4700   73.5700  219.5720 C   0  0  0  0  0  0  0  0  0  0  0  0
  143.2870   74.6980  219.7360 C   0  0  0  0  0  0  0  0  0  0  0  0
  144.4900   74.6530  220.3910 C   0  0  0  0  0  0  0  0  0  0  0  0
  144.8980   73.4460  220.8990 C   0  0  0  0  0  0  0  0  0  0  0  0
  146.4250   73.3790  221.7320 Cl  0  0  0  0  0  0  0  0  0  0  0  0
  144.1540   72.2950  220.7780 C   0  0  0  0  0  0  0  0  0  0  0  0
  142.9610   72.3770  220.1200 C   0  0  0  0  0  0  0  0  0  0  0  0
  141.9740   70.9420  219.9380 Cl  0  0  0  0  0  0  0  0  0  0  0  0
  140.1250   73.4490  221.4700 N   0  0  0  0  0  0  0  0  0  0  0  0
  140.3200   72.9530  222.7280 N   0  0  0  0  0  0  0  0  0  0  0  0
  140.0450   71.7580  223.0370 C   0  0  0  0  0  0  0  0  0  0  0  0
  140.0460   71.1180  224.3260 C   0  0  0  0  0  0  0  0  0  0  0  0
  139.5210   69.8170  224.3720 C   0  0  0  0  0  0  0  0  0  0  0  0
  139.4740   69.1160  225.5530 C   0  0  0  0  0  0  0  0  0  0  0  0
  139.9270   69.6260  226.7500 C   0  0  0  0  0  0  0  0  0  0  0  0
  140.4440   70.9030  226.7160 C   0  0  0  0  0  0  0  0  0  0  0  0
  140.9500   71.5150  227.9700 C   0  0  0  0  0  0  0  0  0  0  0  0
  139.8470   71.9430  228.7020 F   0  0  0  0  0  0  0  0  0  0  0  0
  141.7420   72.6060  227.7420 F   0  0  0  0  0  0  0  0  0  0  0  0
  141.6430   70.5920  228.7330 F   0  0  0  0  0  0  0  0  0  0  0  0
  140.4890   71.6150  225.5040 C   0  0  0  0  0  0  0  0  0  0  0  0
  138.6926   76.2090  220.0714 H   0  0  0  0  0  0  0  0  0  0  0  0
  140.3885   75.9335  219.6344 H   0  0  0  0  0  0  0  0  0  0  0  0
  138.5880   73.5261  219.7259 H   0  0  0  0  0  0  0  0  0  0  0  0
  138.3305   74.7205  218.3825 H   0  0  0  0  0  0  0  0  0  0  0  0
  139.9340   72.6996  218.0262 H   0  0  0  0  0  0  0  0  0  0  0  0
  140.4068   74.4150  217.5066 H   0  0  0  0  0  0  0  0  0  0  0  0
  142.9481   75.6590  219.3216 H   0  0  0  0  0  0  0  0  0  0  0  0
  145.1083   75.5555  220.5056 H   0  0  0  0  0  0  0  0  0  0  0  0
  144.5084   71.3417  221.1970 H   0  0  0  0  0  0  0  0  0  0  0  0
  140.2480   72.8490  220.6230 H   0  0  0  0  0  0  0  0  0  0  0  0
  139.7626   71.1104  222.1939 H   0  0  0  0  0  0  0  0  0  0  0  0
  139.1419   69.3522  223.4499 H   0  0  0  0  0  0  0  0  0  0  0  0
  139.0547   68.0991  225.5421 H   0  0  0  0  0  0  0  0  0  0  0  0
  139.8786   69.0450  227.6828 H   0  0  0  0  0  0  0  0  0  0  0  0
  140.9075   72.6322  225.5142 H   0  0  0  0  0  0  0  0  0  0  0  0
  1  2  2  0
  2  3  1  0
  3  4  1  0
  4  5  1  0
  5  6  1  0
  6  7  1  0
  7  8  2  0
  8  9  1  0
  9 10  2  0
 10 11  1  0
 10 12  1  0
 12 13  2  0
 13 14  1  0
  2 15  1  0
 15 16  1  0
 16 17  2  0
 17 18  1  0
 18 19  2  0
 19 20  1  0
 20 21  2  0
 21 22  1  0
 22 23  1  0
 23 24  1  0
 23 25  1  0
 23 26  1  0
 22 27  2  0
 13  7  1  0
 27 18  1  0
  3 28  1  0
  3 29  1  0
  4 30  1  0
  4 31  1  0
  5 32  1  0
  5 33  1  0
  8 34  1  0
  9 35  1  0
 12 36  1  0
 15 37  1  0
 17 38  1  0
 19 39  1  0
 20 40  1  0
 21 41  1  0
 27 42  1  0
M  END
>  <smiles>  (72) 
O=C(CCCOc1ccc(Cl)cc1Cl)NN=Cc1cccc(C(F)(F)F)c1

>  <score_type>  (72) 
oracle

>  <origin>  (72) 
autodockgpu

>  <m_score__min__energy>  (72) 
-7.5199999999999996

>  <m_primary>  (72) 
energy

>  <rmsd>  (72) 
9.739400084176904

>  <m_score__min__rmsd>  (72) 
9.739400084176904

>  <meeko>  (72) 
{"free_energy": -6.13, "intermolecular_energy": -8.81, "internal_energy": -2.09, "cluster_size": 4, "cluster_id": 6, "rank_in_cluster": 2}

>  <energy>  (72) 
-6.13

>  <cluster_rmsd>  (72) 
1.67

>  <cluster>  (72) 
6

$$$$

     RDKit          3D

 42 43  0  0  0  0  0  0  0  0999 V2000
  141.2880   75.3020  221.3620 O   0  0  0  0  0  0  0  0  0  0  0  0
  140.0950   75.3240  221.7730 C   0  0  0  0  0  0  0  0  0  0  0  0
  139.2510   76.5620  221.6750 C   0  0  0  0  0  0  0  0  0  0  0  0
  138.0980   76.3620  222.6260 C   0  0  0  0  0  0  0  0  0  0  0  0
  136.9380   75.6050  221.9730 C   0  0  0  0  0  0  0  0  0  0  0  0
  136.5290   74.5330  222.5720 O   0  0  0  0  0  0  0  0  0  0  0  0
  136.1460   73.4610  223.1480 C   0  0  0  0  0  0  0  0  0  0  0  0
  136.5200   72.1920  222.6820 C   0  0  0  0  0  0  0  0  0  0  0  0
  136.1170   71.0320  223.2890 C   0  0  0  0  0  0  0  0  0  0  0  0
  135.3140   71.1330  224.3950 C   0  0  0  0  0  0  0  0  0  0  0  0
  134.7960   69.6640  225.1730 Cl  0  0  0  0  0  0  0  0  0  0  0  0
  134.9030   72.3410  224.9120 C   0  0  0  0  0  0  0  0  0  0  0  0
  135.3230   73.4760  224.2820 C   0  0  0  0  0  0  0  0  0  0  0  0
  134.8300   75.0380  224.8990 Cl  0  0  0  0  0  0  0  0  0  0  0  0
  139.5380   74.1180  222.3500 N   0  0  0  0  0  0  0  0  0  0  0  0
  140.3560   73.0250  222.4100 N   0  0  0  0  0  0  0  0  0  0  0  0
  139.9370   71.8800  222.7430 C   0  0  0  0  0  0  0  0  0  0  0  0
  139.9020   71.2530  224.0370 C   0  0  0  0  0  0  0  0  0  0  0  0
  139.2460   70.0140  224.1080 C   0  0  0  0  0  0  0  0  0  0  0  0
  139.1550   69.3300  225.2970 C   0  0  0  0  0  0  0  0  0  0  0  0
  139.6870   69.7990  226.4780 C   0  0  0  0  0  0  0  0  0  0  0  0
  140.3340   71.0150  226.4190 C   0  0  0  0  0  0  0  0  0  0  0  0
  140.9320   71.5790  227.6550 C   0  0  0  0  0  0  0  0  0  0  0  0
  139.8980   72.1290  228.4070 F   0  0  0  0  0  0  0  0  0  0  0  0
  141.8300   72.5780  227.3970 F   0  0  0  0  0  0  0  0  0  0  0  0
  141.5400   70.5950  228.4120 F   0  0  0  0  0  0  0  0  0  0  0  0
  140.4240   71.7100  225.2000 C   0  0  0  0  0  0  0  0  0  0  0  0
  139.8364   77.4466  221.9663 H   0  0  0  0  0  0  0  0  0  0  0  0
  138.8980   76.7258  220.6462 H   0  0  0  0  0  0  0  0  0  0  0  0
  138.4509   75.7886  223.4958 H   0  0  0  0  0  0  0  0  0  0  0  0
  137.7295   77.3543  222.9253 H   0  0  0  0  0  0  0  0  0  0  0  0
  136.0845   76.2959  221.9081 H   0  0  0  0  0  0  0  0  0  0  0  0
  137.3284   75.2615  221.0037 H   0  0  0  0  0  0  0  0  0  0  0  0
  137.1635   72.1256  221.7924 H   0  0  0  0  0  0  0  0  0  0  0  0
  136.4280   70.0508  222.9011 H   0  0  0  0  0  0  0  0  0  0  0  0
  134.2584   72.3894  225.8020 H   0  0  0  0  0  0  0  0  0  0  0  0
  138.5620   74.0890  222.7230 H   0  0  0  0  0  0  0  0  0  0  0  0
  139.5388   71.2707  221.9183 H   0  0  0  0  0  0  0  0  0  0  0  0
  138.7985   69.5844  223.1996 H   0  0  0  0  0  0  0  0  0  0  0  0
  138.6325   68.3621  225.3058 H   0  0  0  0  0  0  0  0  0  0  0  0
  139.6002   69.2337  227.4176 H   0  0  0  0  0  0  0  0  0  0  0  0
  140.9469   72.6777  225.1905 H   0  0  0  0  0  0  0  0  0  0  0  0
  1  2  2  0
  2  3  1  0
  3  4  1  0
  4  5  1  0
  5  6  1  0
  6  7  1  0
  7  8  2  0
  8  9  1  0
  9 10  2  0
 10 11  1  0
 10 12  1  0
 12 13  2  0
 13 14  1  0
  2 15  1  0
 15 16  1  0
 16 17  2  0
 17 18  1  0
 18 19  2  0
 19 20  1  0
 20 21  2  0
 21 22  1  0
 22 23  1  0
 23 24  1  0
 23 25  1  0
 23 26  1  0
 22 27  2  0
 13  7  1  0
 27 18  1  0
  3 28  1  0
  3 29  1  0
  4 30  1  0
  4 31  1  0
  5 32  1  0
  5 33  1  0
  8 34  1  0
  9 35  1  0
 12 36  1  0
 15 37  1  0
 17 38  1  0
 19 39  1  0
 20 40  1  0
 21 41  1  0
 27 42  1  0
M  END
>  <smiles>  (73) 
O=C(CCCOc1ccc(Cl)cc1Cl)NN=Cc1cccc(C(F)(F)F)c1

>  <score_type>  (73) 
oracle

>  <origin>  (73) 
autodockgpu

>  <m_score__min__energy>  (73) 
-7.5199999999999996

>  <m_primary>  (73) 
energy

>  <rmsd>  (73) 
10.547306158406347

>  <m_score__min__rmsd>  (73) 
10.547306158406347

>  <meeko>  (73) 
{"free_energy": -5.74, "intermolecular_energy": -8.42, "internal_energy": -2.39, "cluster_size": 12, "cluster_id": 9, "rank_in_cluster": 1}

>  <energy>  (73) 
-6.1

>  <cluster_rmsd>  (73) 
1.6

>  <cluster>  (73) 
6

$$$$

     RDKit          3D

 42 43  0  0  0  0  0  0  0  0999 V2000
  140.2480   74.9390  222.0060 O   0  0  0  0  0  0  0  0  0  0  0  0
  140.7730   74.0220  221.3150 C   0  0  0  0  0  0  0  0  0  0  0  0
  141.3190   74.2850  219.9420 C   0  0  0  0  0  0  0  0  0  0  0  0
  142.6400   74.9850  220.1420 C   0  0  0  0  0  0  0  0  0  0  0  0
  142.5580   76.4770  219.8050 C   0  0  0  0  0  0  0  0  0  0  0  0
  141.8720   77.2210  220.6120 O   0  0  0  0  0  0  0  0  0  0  0  0
  141.1740   77.9340  221.4060 C   0  0  0  0  0  0  0  0  0  0  0  0
  141.7540   78.6750  222.4460 C   0  0  0  0  0  0  0  0  0  0  0  0
  141.0180   79.4460  223.3070 C   0  0  0  0  0  0  0  0  0  0  0  0
  139.6590   79.4820  223.1320 C   0  0  0  0  0  0  0  0  0  0  0  0
  138.7160   80.4590  224.2210 Cl  0  0  0  0  0  0  0  0  0  0  0  0
  139.0150   78.7840  222.1360 C   0  0  0  0  0  0  0  0  0  0  0  0
  139.7800   78.0270  221.2970 C   0  0  0  0  0  0  0  0  0  0  0  0
  139.0110   77.1180  220.0130 Cl  0  0  0  0  0  0  0  0  0  0  0  0
  140.8440   72.6880  221.8740 N   0  0  0  0  0  0  0  0  0  0  0  0
  140.3300   72.5130  223.1270 N   0  0  0  0  0  0  0  0  0  0  0  0
  140.1540   71.3690  223.6360 C   0  0  0  0  0  0  0  0  0  0  0  0
  140.4040   70.9100  224.9770 C   0  0  0  0  0  0  0  0  0  0  0  0
  140.7740   71.8910  225.9100 C   0  0  0  0  0  0  0  0  0  0  0  0
  141.0350   71.5600  227.2170 C   0  0  0  0  0  0  0  0  0  0  0  0
  140.9550   70.2700  227.6980 C   0  0  0  0  0  0  0  0  0  0  0  0
  140.5930   69.3000  226.7900 C   0  0  0  0  0  0  0  0  0  0  0  0
  140.4870   67.8890  227.2400 C   0  0  0  0  0  0  0  0  0  0  0  0
  141.2480   67.1130  226.3710 F   0  0  0  0  0  0  0  0  0  0  0  0
  139.2040   67.4160  227.1970 F   0  0  0  0  0  0  0  0  0  0  0  0
  140.9940   67.7310  228.5170 F   0  0  0  0  0  0  0  0  0  0  0  0
  140.3260   69.6450  225.4530 C   0  0  0  0  0  0  0  0  0  0  0  0
  141.4671   73.3379  219.4025 H   0  0  0  0  0  0  0  0  0  0  0  0
  140.6268   74.8976  219.3457 H   0  0  0  0  0  0  0  0  0  0  0  0
  142.9442   74.8750  221.1934 H   0  0  0  0  0  0  0  0  0  0  0  0
  143.3737   74.5243  219.4641 H   0  0  0  0  0  0  0  0  0  0  0  0
  143.5852   76.8699  219.7823 H   0  0  0  0  0  0  0  0  0  0  0  0
  142.0241   76.5261  218.8445 H   0  0  0  0  0  0  0  0  0  0  0  0
  142.8456   78.6356  222.5759 H   0  0  0  0  0  0  0  0  0  0  0  0
  141.5021   80.0176  224.1126 H   0  0  0  0  0  0  0  0  0  0  0  0
  137.9223   78.8345  222.0203 H   0  0  0  0  0  0  0  0  0  0  0  0
  141.2510   71.8890  221.3360 H   0  0  0  0  0  0  0  0  0  0  0  0
  139.7487   70.6101  222.9505 H   0  0  0  0  0  0  0  0  0  0  0  0
  140.8561   72.9401  225.5897 H   0  0  0  0  0  0  0  0  0  0  0  0
  141.3215   72.3619  227.9133 H   0  0  0  0  0  0  0  0  0  0  0  0
  141.1687   70.0290  228.7498 H   0  0  0  0  0  0  0  0  0  0  0  0
  140.0383   68.8438  224.7564 H   0  0  0  0  0  0  0  0  0  0  0  0
  1  2  2  0
  2  3  1  0
  3  4  1  0
  4  5  1  0
  5  6  1  0
  6  7  1  0
  7  8  2  0
  8  9  1  0
  9 10  2  0
 10 11  1  0
 10 12  1  0
 12 13  2  0
 13 14  1  0
  2 15  1  0
 15 16  1  0
 16 17  2  0
 17 18  1  0
 18 19  2  0
 19 20  1  0
 20 21  2  0
 21 22  1  0
 22 23  1  0
 23 24  1  0
 23 25  1  0
 23 26  1  0
 22 27  2  0
 13  7  1  0
 27 18  1  0
  3 28  1  0
  3 29  1  0
  4 30  1  0
  4 31  1  0
  5 32  1  0
  5 33  1  0
  8 34  1  0
  9 35  1  0
 12 36  1  0
 15 37  1  0
 17 38  1  0
 19 39  1  0
 20 40  1  0
 21 41  1  0
 27 42  1  0
M  END
>  <smiles>  (74) 
O=C(CCCOc1ccc(Cl)cc1Cl)NN=Cc1cccc(C(F)(F)F)c1

>  <score_type>  (74) 
oracle

>  <origin>  (74) 
autodockgpu

>  <m_score__min__energy>  (74) 
-7.5199999999999996

>  <m_primary>  (74) 
energy

>  <rmsd>  (74) 
6.0632923642431305

>  <m_score__min__rmsd>  (74) 
6.0632923642431305

>  <meeko>  (74) 
{"free_energy": -6.68, "intermolecular_energy": -9.37, "internal_energy": -1.06, "cluster_size": 2, "cluster_id": 5, "rank_in_cluster": 1}

>  <energy>  (74) 
-6.1

>  <cluster_rmsd>  (74) 
1.66

>  <cluster>  (74) 
6

$$$$

     RDKit          3D

 42 43  0  0  0  0  0  0  0  0999 V2000
  140.2340   72.1710  220.4600 O   0  0  0  0  0  0  0  0  0  0  0  0
  139.4740   73.0490  220.9540 C   0  0  0  0  0  0  0  0  0  0  0  0
  138.4850   73.7990  220.1080 C   0  0  0  0  0  0  0  0  0  0  0  0
  137.1480   73.6470  220.7890 C   0  0  0  0  0  0  0  0  0  0  0  0
  136.7880   74.8740  221.6310 C   0  0  0  0  0  0  0  0  0  0  0  0
  137.7480   75.6980  221.9050 O   0  0  0  0  0  0  0  0  0  0  0  0
  138.6900   76.5040  222.2040 C   0  0  0  0  0  0  0  0  0  0  0  0
  140.0400   76.1350  222.1200 C   0  0  0  0  0  0  0  0  0  0  0  0
  141.0630   76.9890  222.4370 C   0  0  0  0  0  0  0  0  0  0  0  0
  140.7360   78.2530  222.8550 C   0  0  0  0  0  0  0  0  0  0  0  0
  142.0290   79.3460  223.2610 Cl  0  0  0  0  0  0  0  0  0  0  0  0
  139.4360   78.6910  222.9640 C   0  0  0  0  0  0  0  0  0  0  0  0
  138.4420   77.8130  222.6390 C   0  0  0  0  0  0  0  0  0  0  0  0
  136.7710   78.3180  222.7600 Cl  0  0  0  0  0  0  0  0  0  0  0  0
  139.5670   73.3300  222.3710 N   0  0  0  0  0  0  0  0  0  0  0  0
  140.4860   72.6150  223.0850 N   0  0  0  0  0  0  0  0  0  0  0  0
  140.2390   71.4650  223.5500 C   0  0  0  0  0  0  0  0  0  0  0  0
  140.4120   70.9550  224.8840 C   0  0  0  0  0  0  0  0  0  0  0  0
  140.8720   71.8720  225.8430 C   0  0  0  0  0  0  0  0  0  0  0  0
  141.0720   71.4880  227.1480 C   0  0  0  0  0  0  0  0  0  0  0  0
  140.8430   70.2060  227.5990 C   0  0  0  0  0  0  0  0  0  0  0  0
  140.3910   69.2990  226.6660 C   0  0  0  0  0  0  0  0  0  0  0  0
  140.1230   67.9000  227.0840 C   0  0  0  0  0  0  0  0  0  0  0  0
  138.9060   67.5210  226.5230 F   0  0  0  0  0  0  0  0  0  0  0  0
  140.0090   67.7680  228.4400 F   0  0  0  0  0  0  0  0  0  0  0  0
  141.1000   67.0410  226.6160 F   0  0  0  0  0  0  0  0  0  0  0  0
  140.1880   69.6980  225.3320 C   0  0  0  0  0  0  0  0  0  0  0  0
  138.7634   74.8615  220.0474 H   0  0  0  0  0  0  0  0  0  0  0  0
  138.4582   73.4073  219.0804 H   0  0  0  0  0  0  0  0  0  0  0  0
  136.3732   73.5038  220.0214 H   0  0  0  0  0  0  0  0  0  0  0  0
  137.2075   72.7794  221.4626 H   0  0  0  0  0  0  0  0  0  0  0  0
  136.0137   75.4348  221.0870 H   0  0  0  0  0  0  0  0  0  0  0  0
  136.4693   74.4711  222.6037 H   0  0  0  0  0  0  0  0  0  0  0  0
  140.2881   75.1169  221.7855 H   0  0  0  0  0  0  0  0  0  0  0  0
  142.1131   76.6708  222.3587 H   0  0  0  0  0  0  0  0  0  0  0  0
  139.2057   79.7124  223.3011 H   0  0  0  0  0  0  0  0  0  0  0  0
  138.9740   74.0620  222.8250 H   0  0  0  0  0  0  0  0  0  0  0  0
  139.8301   70.7461  222.8247 H   0  0  0  0  0  0  0  0  0  0  0  0
  141.0750   72.9115  225.5461 H   0  0  0  0  0  0  0  0  0  0  0  0
  141.4318   72.2396  227.8661 H   0  0  0  0  0  0  0  0  0  0  0  0
  141.0122   69.9222  228.6482 H   0  0  0  0  0  0  0  0  0  0  0  0
  139.8274   68.9468  224.6139 H   0  0  0  0  0  0  0  0  0  0  0  0
  1  2  2  0
  2  3  1  0
  3  4  1  0
  4  5  1  0
  5  6  1  0
  6  7  1  0
  7  8  2  0
  8  9  1  0
  9 10  2  0
 10 11  1  0
 10 12  1  0
 12 13  2  0
 13 14  1  0
  2 15  1  0
 15 16  1  0
 16 17  2  0
 17 18  1  0
 18 19  2  0
 19 20  1  0
 20 21  2  0
 21 22  1  0
 22 23  1  0
 23 24  1  0
 23 25  1  0
 23 26  1  0
 22 27  2  0
 13  7  1  0
 27 18  1  0
  3 28  1  0
  3 29  1  0
  4 30  1  0
  4 31  1  0
  5 32  1  0
  5 33  1  0
  8 34  1  0
  9 35  1  0
 12 36  1  0
 15 37  1  0
 17 38  1  0
 19 39  1  0
 20 40  1  0
 21 41  1  0
 27 42  1  0
M  END
>  <smiles>  (75) 
O=C(CCCOc1ccc(Cl)cc1Cl)NN=Cc1cccc(C(F)(F)F)c1

>  <score_type>  (75) 
oracle

>  <origin>  (75) 
autodockgpu

>  <m_score__min__energy>  (75) 
-7.5199999999999996

>  <m_primary>  (75) 
energy

>  <rmsd>  (75) 
7.091362822741529

>  <m_score__min__rmsd>  (75) 
7.091362822741529

>  <meeko>  (75) 
{"free_energy": -6.4, "intermolecular_energy": -9.08, "internal_energy": -1.56, "cluster_size": 2, "cluster_id": 5, "rank_in_cluster": 2}

>  <energy>  (75) 
-6.42

>  <cluster_rmsd>  (75) 
0.0

>  <cluster>  (75) 
7

$$$$

     RDKit          3D

 42 43  0  0  0  0  0  0  0  0999 V2000
  140.9400   74.7950  220.8290 O   0  0  0  0  0  0  0  0  0  0  0  0
  139.7520   74.7530  221.2530 C   0  0  0  0  0  0  0  0  0  0  0  0
  138.6860   75.6530  220.6960 C   0  0  0  0  0  0  0  0  0  0  0  0
  137.5170   75.5580  221.6440 C   0  0  0  0  0  0  0  0  0  0  0  0
  137.2920   76.8620  222.4140 C   0  0  0  0  0  0  0  0  0  0  0  0
  138.3370   77.5910  222.6470 O   0  0  0  0  0  0  0  0  0  0  0  0
  139.3510   78.3200  222.9010 C   0  0  0  0  0  0  0  0  0  0  0  0
  140.6630   77.8660  222.7000 C   0  0  0  0  0  0  0  0  0  0  0  0
  141.7640   78.6370  222.9680 C   0  0  0  0  0  0  0  0  0  0  0  0
  141.5560   79.9020  223.4540 C   0  0  0  0  0  0  0  0  0  0  0  0
  142.9490   80.8890  223.7970 Cl  0  0  0  0  0  0  0  0  0  0  0  0
  140.3010   80.4200  223.6790 C   0  0  0  0  0  0  0  0  0  0  0  0
  139.2280   79.6230  223.4010 C   0  0  0  0  0  0  0  0  0  0  0  0
  137.6090   80.2320  223.6690 Cl  0  0  0  0  0  0  0  0  0  0  0  0
  139.4220   73.8100  222.3000 N   0  0  0  0  0  0  0  0  0  0  0  0
  140.4350   73.0200  222.7640 N   0  0  0  0  0  0  0  0  0  0  0  0
  140.2650   71.8040  223.0650 C   0  0  0  0  0  0  0  0  0  0  0  0
  140.1730   71.1810  224.3590 C   0  0  0  0  0  0  0  0  0  0  0  0
  139.5430   69.9270  224.4000 C   0  0  0  0  0  0  0  0  0  0  0  0
  139.4020   69.2460  225.5850 C   0  0  0  0  0  0  0  0  0  0  0  0
  139.8580   69.7310  226.7910 C   0  0  0  0  0  0  0  0  0  0  0  0
  140.4780   70.9610  226.7620 C   0  0  0  0  0  0  0  0  0  0  0  0
  140.9940   71.5440  228.0260 C   0  0  0  0  0  0  0  0  0  0  0  0
  141.8150   72.6160  227.6890 F   0  0  0  0  0  0  0  0  0  0  0  0
  141.7480   70.6590  228.7460 F   0  0  0  0  0  0  0  0  0  0  0  0
  139.9630   72.0210  228.8150 F   0  0  0  0  0  0  0  0  0  0  0  0
  140.6190   71.6540  225.5460 C   0  0  0  0  0  0  0  0  0  0  0  0
  139.0511   76.6893  220.6436 H   0  0  0  0  0  0  0  0  0  0  0  0
  138.4008   75.3532  219.6768 H   0  0  0  0  0  0  0  0  0  0  0  0
  136.6100   75.3262  221.0664 H   0  0  0  0  0  0  0  0  0  0  0  0
  137.7377   74.7666  222.3755 H   0  0  0  0  0  0  0  0  0  0  0  0
  136.5831   77.4721  221.8350 H   0  0  0  0  0  0  0  0  0  0  0  0
  136.9309   76.5517  223.4056 H   0  0  0  0  0  0  0  0  0  0  0  0
  140.8145   76.8483  222.3109 H   0  0  0  0  0  0  0  0  0  0  0  0
  142.7810   78.2535  222.7988 H   0  0  0  0  0  0  0  0  0  0  0  0
  140.1672   81.4398  224.0689 H   0  0  0  0  0  0  0  0  0  0  0  0
  138.4580   73.7490  222.7000 H   0  0  0  0  0  0  0  0  0  0  0  0
  140.1737   71.1191  222.2091 H   0  0  0  0  0  0  0  0  0  0  0  0
  139.1569   69.4835  223.4704 H   0  0  0  0  0  0  0  0  0  0  0  0
  138.9011   68.2668  225.5700 H   0  0  0  0  0  0  0  0  0  0  0  0
  139.7338   69.1665  227.7269 H   0  0  0  0  0  0  0  0  0  0  0  0
  141.1190   72.6337  225.5607 H   0  0  0  0  0  0  0  0  0  0  0  0
  1  2  2  0
  2  3  1  0
  3  4  1  0
  4  5  1  0
  5  6  1  0
  6  7  1  0
  7  8  2  0
  8  9  1  0
  9 10  2  0
 10 11  1  0
 10 12  1  0
 12 13  2  0
 13 14  1  0
  2 15  1  0
 15 16  1  0
 16 17  2  0
 17 18  1  0
 18 19  2  0
 19 20  1  0
 20 21  2  0
 21 22  1  0
 22 23  1  0
 23 24  1  0
 23 25  1  0
 23 26  1  0
 22 27  2  0
 13  7  1  0
 27 18  1  0
  3 28  1  0
  3 29  1  0
  4 30  1  0
  4 31  1  0
  5 32  1  0
  5 33  1  0
  8 34  1  0
  9 35  1  0
 12 36  1  0
 15 37  1  0
 17 38  1  0
 19 39  1  0
 20 40  1  0
 21 41  1  0
 27 42  1  0
M  END
>  <smiles>  (76) 
O=C(CCCOc1ccc(Cl)cc1Cl)NN=Cc1cccc(C(F)(F)F)c1

>  <score_type>  (76) 
oracle

>  <origin>  (76) 
autodockgpu

>  <m_score__min__energy>  (76) 
-7.5199999999999996

>  <m_primary>  (76) 
energy

>  <rmsd>  (76) 
5.89262390135655

>  <m_score__min__rmsd>  (76) 
5.89262390135655

>  <meeko>  (76) 
{"free_energy": -7.42, "intermolecular_energy": -10.1, "internal_energy": -0.95, "cluster_size": 11, "cluster_id": 1, "rank_in_cluster": 2}

>  <energy>  (76) 
-5.98

>  <cluster_rmsd>  (76) 
1.47

>  <cluster>  (76) 
7

$$$$

     RDKit          3D

 42 43  0  0  0  0  0  0  0  0999 V2000
  139.1640   74.9180  219.7980 O   0  0  0  0  0  0  0  0  0  0  0  0
  139.3840   74.2990  220.8760 C   0  0  0  0  0  0  0  0  0  0  0  0
  140.1660   73.0170  220.9020 C   0  0  0  0  0  0  0  0  0  0  0  0
  140.4520   72.7270  222.3540 C   0  0  0  0  0  0  0  0  0  0  0  0
  139.3600   71.8650  222.9940 C   0  0  0  0  0  0  0  0  0  0  0  0
  139.6980   71.1720  224.0350 O   0  0  0  0  0  0  0  0  0  0  0  0
  140.0110   70.5070  225.0760 C   0  0  0  0  0  0  0  0  0  0  0  0
  140.7160   71.0820  226.1430 C   0  0  0  0  0  0  0  0  0  0  0  0
  141.0600   70.3810  227.2680 C   0  0  0  0  0  0  0  0  0  0  0  0
  140.6950   69.0610  227.3370 C   0  0  0  0  0  0  0  0  0  0  0  0
  141.1280   68.1610  228.7620 Cl  0  0  0  0  0  0  0  0  0  0  0  0
  140.0030   68.4240  226.3320 C   0  0  0  0  0  0  0  0  0  0  0  0
  139.6770   69.1540  225.2260 C   0  0  0  0  0  0  0  0  0  0  0  0
  138.7980   68.3930  223.9170 Cl  0  0  0  0  0  0  0  0  0  0  0  0
  138.8640   74.8500  222.1100 N   0  0  0  0  0  0  0  0  0  0  0  0
  138.1620   76.0180  222.0200 N   0  0  0  0  0  0  0  0  0  0  0  0
  138.5510   77.0880  222.5680 C   0  0  0  0  0  0  0  0  0  0  0  0
  139.7560   77.8470  222.3540 C   0  0  0  0  0  0  0  0  0  0  0  0
  140.6460   77.3380  221.3950 C   0  0  0  0  0  0  0  0  0  0  0  0
  141.8250   77.9850  221.1140 C   0  0  0  0  0  0  0  0  0  0  0  0
  142.2120   79.1510  221.7370 C   0  0  0  0  0  0  0  0  0  0  0  0
  141.3450   79.6590  222.6800 C   0  0  0  0  0  0  0  0  0  0  0  0
  141.6980   80.9130  223.3900 C   0  0  0  0  0  0  0  0  0  0  0  0
  140.6240   81.2470  224.2100 F   0  0  0  0  0  0  0  0  0  0  0  0
  141.9060   81.9620  222.5370 F   0  0  0  0  0  0  0  0  0  0  0  0
  142.8140   80.7400  224.1890 F   0  0  0  0  0  0  0  0  0  0  0  0
  140.1390   78.9920  222.9630 C   0  0  0  0  0  0  0  0  0  0  0  0
  139.5754   72.2012  220.4595 H   0  0  0  0  0  0  0  0  0  0  0  0
  141.0955   73.1030  220.3201 H   0  0  0  0  0  0  0  0  0  0  0  0
  141.4123   72.1955  222.4273 H   0  0  0  0  0  0  0  0  0  0  0  0
  140.4854   73.6862  222.8913 H   0  0  0  0  0  0  0  0  0  0  0  0
  138.5395   72.5344  223.2919 H   0  0  0  0  0  0  0  0  0  0  0  0
  139.0937   71.1221  222.2277 H   0  0  0  0  0  0  0  0  0  0  0  0
  141.0050   72.1411  226.0734 H   0  0  0  0  0  0  0  0  0  0  0  0
  141.6113   70.8613  228.0898 H   0  0  0  0  0  0  0  0  0  0  0  0
  139.7226   67.3638  226.4173 H   0  0  0  0  0  0  0  0  0  0  0  0
  139.0010   74.3660  223.0270 H   0  0  0  0  0  0  0  0  0  0  0  0
  137.8659   77.5023  223.3223 H   0  0  0  0  0  0  0  0  0  0  0  0
  140.3961   76.4090  220.8616 H   0  0  0  0  0  0  0  0  0  0  0  0
  142.4922   77.5509  220.3548 H   0  0  0  0  0  0  0  0  0  0  0  0
  143.1620   79.6498  221.4948 H   0  0  0  0  0  0  0  0  0  0  0  0
  139.4708   79.4258  223.7215 H   0  0  0  0  0  0  0  0  0  0  0  0
  1  2  2  0
  2  3  1  0
  3  4  1  0
  4  5  1  0
  5  6  1  0
  6  7  1  0
  7  8  2  0
  8  9  1  0
  9 10  2  0
 10 11  1  0
 10 12  1  0
 12 13  2  0
 13 14  1  0
  2 15  1  0
 15 16  1  0
 16 17  2  0
 17 18  1  0
 18 19  2  0
 19 20  1  0
 20 21  2  0
 21 22  1  0
 22 23  1  0
 23 24  1  0
 23 25  1  0
 23 26  1  0
 22 27  2  0
 13  7  1  0
 27 18  1  0
  3 28  1  0
  3 29  1  0
  4 30  1  0
  4 31  1  0
  5 32  1  0
  5 33  1  0
  8 34  1  0
  9 35  1  0
 12 36  1  0
 15 37  1  0
 17 38  1  0
 19 39  1  0
 20 40  1  0
 21 41  1  0
 27 42  1  0
M  END
>  <smiles>  (77) 
O=C(CCCOc1ccc(Cl)cc1Cl)NN=Cc1cccc(C(F)(F)F)c1

>  <score_type>  (77) 
oracle

>  <origin>  (77) 
autodockgpu

>  <m_score__min__energy>  (77) 
-7.5199999999999996

>  <m_primary>  (77) 
energy

>  <rmsd>  (77) 
13.006027743875952

>  <m_score__min__rmsd>  (77) 
13.006027743875952

>  <meeko>  (77) 
{"free_energy": -6.46, "intermolecular_energy": -9.14, "internal_energy": -0.85, "cluster_size": 5, "cluster_id": 2, "rank_in_cluster": 5}

>  <energy>  (77) 
-5.35

>  <cluster_rmsd>  (77) 
1.42

>  <cluster>  (77) 
7

$$$$

     RDKit          3D

 42 43  0  0  0  0  0  0  0  0999 V2000
  141.1160   75.4960  221.4680 O   0  0  0  0  0  0  0  0  0  0  0  0
  139.9380   75.3170  221.8850 C   0  0  0  0  0  0  0  0  0  0  0  0
  138.9280   76.4270  221.8900 C   0  0  0  0  0  0  0  0  0  0  0  0
  138.0530   76.2060  220.6830 C   0  0  0  0  0  0  0  0  0  0  0  0
  137.4540   74.7970  220.6560 C   0  0  0  0  0  0  0  0  0  0  0  0
  136.8160   74.4120  221.7140 O   0  0  0  0  0  0  0  0  0  0  0  0
  136.1800   74.0080  222.7430 C   0  0  0  0  0  0  0  0  0  0  0  0
  135.5220   74.8960  223.6070 C   0  0  0  0  0  0  0  0  0  0  0  0
  134.8350   74.4780  224.7160 C   0  0  0  0  0  0  0  0  0  0  0  0
  134.7990   73.1330  224.9780 C   0  0  0  0  0  0  0  0  0  0  0  0
  133.9280   72.5920  226.3850 Cl  0  0  0  0  0  0  0  0  0  0  0  0
  135.4190   72.1990  224.1790 C   0  0  0  0  0  0  0  0  0  0  0  0
  136.0940   72.6510  223.0830 C   0  0  0  0  0  0  0  0  0  0  0  0
  136.9010   71.5070  222.0320 Cl  0  0  0  0  0  0  0  0  0  0  0  0
  139.5660   74.0030  222.3660 N   0  0  0  0  0  0  0  0  0  0  0  0
  140.5300   73.0360  222.3350 N   0  0  0  0  0  0  0  0  0  0  0  0
  140.3030   71.8390  222.6750 C   0  0  0  0  0  0  0  0  0  0  0  0
  140.1440   71.2690  223.9860 C   0  0  0  0  0  0  0  0  0  0  0  0
  139.3990   70.0820  224.0600 C   0  0  0  0  0  0  0  0  0  0  0  0
  139.1870   69.4550  225.2650 C   0  0  0  0  0  0  0  0  0  0  0  0
  139.6780   69.9340  226.4600 C   0  0  0  0  0  0  0  0  0  0  0  0
  140.4110   71.0990  226.3980 C   0  0  0  0  0  0  0  0  0  0  0  0
  140.9710   71.6710  227.6480 C   0  0  0  0  0  0  0  0  0  0  0  0
  139.9190   72.2510  228.3520 F   0  0  0  0  0  0  0  0  0  0  0  0
  141.8970   72.6500  227.4120 F   0  0  0  0  0  0  0  0  0  0  0  0
  141.5310   70.6870  228.4420 F   0  0  0  0  0  0  0  0  0  0  0  0
  140.6250   71.7360  225.1620 C   0  0  0  0  0  0  0  0  0  0  0  0
  138.3254   76.3899  222.8095 H   0  0  0  0  0  0  0  0  0  0  0  0
  139.4157   77.4124  221.8560 H   0  0  0  0  0  0  0  0  0  0  0  0
  137.2335   76.9396  220.6999 H   0  0  0  0  0  0  0  0  0  0  0  0
  138.6775   76.3259  219.7854 H   0  0  0  0  0  0  0  0  0  0  0  0
  136.7530   74.7500  219.8096 H   0  0  0  0  0  0  0  0  0  0  0  0
  138.3173   74.1196  220.5792 H   0  0  0  0  0  0  0  0  0  0  0  0
  135.5593   75.9727  223.3847 H   0  0  0  0  0  0  0  0  0  0  0  0
  134.3285   75.1985  225.3751 H   0  0  0  0  0  0  0  0  0  0  0  0
  135.3718   71.1259  224.4160 H   0  0  0  0  0  0  0  0  0  0  0  0
  138.6100   73.8070  222.7410 H   0  0  0  0  0  0  0  0  0  0  0  0
  140.2137   71.1261  221.8421 H   0  0  0  0  0  0  0  0  0  0  0  0
  138.9788   69.6472  223.1411 H   0  0  0  0  0  0  0  0  0  0  0  0
  138.5972   68.5266  225.2756 H   0  0  0  0  0  0  0  0  0  0  0  0
  139.4947   69.4144  227.4121 H   0  0  0  0  0  0  0  0  0  0  0  0
  141.2153   72.6641  225.1506 H   0  0  0  0  0  0  0  0  0  0  0  0
  1  2  2  0
  2  3  1  0
  3  4  1  0
  4  5  1  0
  5  6  1  0
  6  7  1  0
  7  8  2  0
  8  9  1  0
  9 10  2  0
 10 11  1  0
 10 12  1  0
 12 13  2  0
 13 14  1  0
  2 15  1  0
 15 16  1  0
 16 17  2  0
 17 18  1  0
 18 19  2  0
 19 20  1  0
 20 21  2  0
 21 22  1  0
 22 23  1  0
 23 24  1  0
 23 25  1  0
 23 26  1  0
 22 27  2  0
 13  7  1  0
 27 18  1  0
  3 28  1  0
  3 29  1  0
  4 30  1  0
  4 31  1  0
  5 32  1  0
  5 33  1  0
  8 34  1  0
  9 35  1  0
 12 36  1  0
 15 37  1  0
 17 38  1  0
 19 39  1  0
 20 40  1  0
 21 41  1  0
 27 42  1  0
M  END
>  <smiles>  (78) 
O=C(CCCOc1ccc(Cl)cc1Cl)NN=Cc1cccc(C(F)(F)F)c1

>  <score_type>  (78) 
oracle

>  <origin>  (78) 
autodockgpu

>  <m_score__min__energy>  (78) 
-7.5199999999999996

>  <m_primary>  (78) 
energy

>  <rmsd>  (78) 
9.881005409376625

>  <m_score__min__rmsd>  (78) 
9.881005409376625

>  <meeko>  (78) 
{"free_energy": -5.54, "intermolecular_energy": -8.22, "internal_energy": -2.27, "cluster_size": 12, "cluster_id": 9, "rank_in_cluster": 8}

>  <energy>  (78) 
-5.76

>  <cluster_rmsd>  (78) 
0.0

>  <cluster>  (78) 
8

$$$$

     RDKit          3D

 42 43  0  0  0  0  0  0  0  0999 V2000
  141.9590   73.3630  221.1630 O   0  0  0  0  0  0  0  0  0  0  0  0
  142.3660   74.5080  220.8210 C   0  0  0  0  0  0  0  0  0  0  0  0
  143.5790   74.6840  219.9530 C   0  0  0  0  0  0  0  0  0  0  0  0
  143.7040   76.1650  219.7000 C   0  0  0  0  0  0  0  0  0  0  0  0
  142.5880   76.6910  218.7930 C   0  0  0  0  0  0  0  0  0  0  0  0
  142.0210   77.8000  219.1450 O   0  0  0  0  0  0  0  0  0  0  0  0
  141.4410   78.8870  219.4730 C   0  0  0  0  0  0  0  0  0  0  0  0
  142.1610   80.0540  219.7690 C   0  0  0  0  0  0  0  0  0  0  0  0
  141.5530   81.2300  220.1220 C   0  0  0  0  0  0  0  0  0  0  0  0
  140.1830   81.2490  220.1850 C   0  0  0  0  0  0  0  0  0  0  0  0
  139.4010   82.7390  220.6340 Cl  0  0  0  0  0  0  0  0  0  0  0  0
  139.4070   80.1460  219.9100 C   0  0  0  0  0  0  0  0  0  0  0  0
  140.0470   78.9920  219.5620 C   0  0  0  0  0  0  0  0  0  0  0  0
  139.1080   77.5590  219.2020 Cl  0  0  0  0  0  0  0  0  0  0  0  0
  141.6370   75.6700  221.2820 N   0  0  0  0  0  0  0  0  0  0  0  0
  140.5430   75.4430  222.0680 N   0  0  0  0  0  0  0  0  0  0  0  0
  139.6810   76.3370  222.3070 C   0  0  0  0  0  0  0  0  0  0  0  0
  139.8630   77.7080  222.7030 C   0  0  0  0  0  0  0  0  0  0  0  0
  138.6950   78.4290  222.9970 C   0  0  0  0  0  0  0  0  0  0  0  0
  138.7570   79.7460  223.3840 C   0  0  0  0  0  0  0  0  0  0  0  0
  139.9410   80.4390  223.5100 C   0  0  0  0  0  0  0  0  0  0  0  0
  141.0930   79.7410  223.2250 C   0  0  0  0  0  0  0  0  0  0  0  0
  142.4050   80.4260  223.3410 C   0  0  0  0  0  0  0  0  0  0  0  0
  142.9320   80.1140  224.5910 F   0  0  0  0  0  0  0  0  0  0  0  0
  142.2970   81.7880  223.2680 F   0  0  0  0  0  0  0  0  0  0  0  0
  143.2900   79.9810  222.3760 F   0  0  0  0  0  0  0  0  0  0  0  0
  141.0240   78.3930  222.8290 C   0  0  0  0  0  0  0  0  0  0  0  0
  144.4749   74.3084  220.4690 H   0  0  0  0  0  0  0  0  0  0  0  0
  143.4829   74.1233  219.0115 H   0  0  0  0  0  0  0  0  0  0  0  0
  143.6574   76.6945  220.6631 H   0  0  0  0  0  0  0  0  0  0  0  0
  144.6640   76.3420  219.1930 H   0  0  0  0  0  0  0  0  0  0  0  0
  143.0168   76.8404  217.7911 H   0  0  0  0  0  0  0  0  0  0  0  0
  141.7930   75.9327  218.8474 H   0  0  0  0  0  0  0  0  0  0  0  0
  143.2593   80.0237  219.7155 H   0  0  0  0  0  0  0  0  0  0  0  0
  142.1444   82.1297  220.3475 H   0  0  0  0  0  0  0  0  0  0  0  0
  138.3096   80.1930  219.9687 H   0  0  0  0  0  0  0  0  0  0  0  0
  141.9440   76.6400  221.0430 H   0  0  0  0  0  0  0  0  0  0  0  0
  138.6342   76.0182  222.1952 H   0  0  0  0  0  0  0  0  0  0  0  0
  137.7166   77.9328  222.9164 H   0  0  0  0  0  0  0  0  0  0  0  0
  137.8163   80.2721  223.6037 H   0  0  0  0  0  0  0  0  0  0  0  0
  139.9647   81.4937  223.8216 H   0  0  0  0  0  0  0  0  0  0  0  0
  141.9647   77.8667  222.6097 H   0  0  0  0  0  0  0  0  0  0  0  0
  1  2  2  0
  2  3  1  0
  3  4  1  0
  4  5  1  0
  5  6  1  0
  6  7  1  0
  7  8  2  0
  8  9  1  0
  9 10  2  0
 10 11  1  0
 10 12  1  0
 12 13  2  0
 13 14  1  0
  2 15  1  0
 15 16  1  0
 16 17  2  0
 17 18  1  0
 18 19  2  0
 19 20  1  0
 20 21  2  0
 21 22  1  0
 22 23  1  0
 23 24  1  0
 23 25  1  0
 23 26  1  0
 22 27  2  0
 13  7  1  0
 27 18  1  0
  3 28  1  0
  3 29  1  0
  4 30  1  0
  4 31  1  0
  5 32  1  0
  5 33  1  0
  8 34  1  0
  9 35  1  0
 12 36  1  0
 15 37  1  0
 17 38  1  0
 19 39  1  0
 20 40  1  0
 21 41  1  0
 27 42  1  0
M  END
>  <smiles>  (79) 
O=C(CCCOc1ccc(Cl)cc1Cl)NN=Cc1cccc(C(F)(F)F)c1

>  <score_type>  (79) 
oracle

>  <origin>  (79) 
autodockgpu

>  <m_score__min__energy>  (79) 
-7.5199999999999996

>  <m_primary>  (79) 
energy

>  <rmsd>  (79) 
5.9525748733939

>  <m_score__min__rmsd>  (79) 
5.9525748733939

>  <meeko>  (79) 
{"free_energy": -4.4, "intermolecular_energy": -7.09, "internal_energy": -3.16, "cluster_size": 2, "cluster_id": 13, "rank_in_cluster": 2}

>  <energy>  (79) 
-5.75

>  <cluster_rmsd>  (79) 
0.08

>  <cluster>  (79) 
8

$$$$

     RDKit          3D

 42 43  0  0  0  0  0  0  0  0999 V2000
  138.6990   72.2720  220.5810 O   0  0  0  0  0  0  0  0  0  0  0  0
  138.2520   73.2030  221.3070 C   0  0  0  0  0  0  0  0  0  0  0  0
  136.8410   73.6970  221.1720 C   0  0  0  0  0  0  0  0  0  0  0  0
  136.9290   75.1990  221.0670 C   0  0  0  0  0  0  0  0  0  0  0  0
  137.0910   75.8630  222.4380 C   0  0  0  0  0  0  0  0  0  0  0  0
  138.0740   76.6960  222.5710 O   0  0  0  0  0  0  0  0  0  0  0  0
  139.0520   77.4980  222.7240 C   0  0  0  0  0  0  0  0  0  0  0  0
  140.3850   77.0730  222.6320 C   0  0  0  0  0  0  0  0  0  0  0  0
  141.4480   77.9230  222.7930 C   0  0  0  0  0  0  0  0  0  0  0  0
  141.1790   79.2410  223.0590 C   0  0  0  0  0  0  0  0  0  0  0  0
  142.5220   80.3280  223.2660 Cl  0  0  0  0  0  0  0  0  0  0  0  0
  139.8990   79.7350  223.1660 C   0  0  0  0  0  0  0  0  0  0  0  0
  138.8650   78.8600  222.9990 C   0  0  0  0  0  0  0  0  0  0  0  0
  137.2170   79.4360  223.1250 Cl  0  0  0  0  0  0  0  0  0  0  0  0
  139.1320   73.7990  222.2900 N   0  0  0  0  0  0  0  0  0  0  0  0
  140.4030   73.3050  222.3640 N   0  0  0  0  0  0  0  0  0  0  0  0
  140.6530   72.1310  222.7600 C   0  0  0  0  0  0  0  0  0  0  0  0
  140.3450   71.4970  224.0150 C   0  0  0  0  0  0  0  0  0  0  0  0
  139.5220   70.3610  223.9500 C   0  0  0  0  0  0  0  0  0  0  0  0
  139.1670   69.6820  225.0900 C   0  0  0  0  0  0  0  0  0  0  0  0
  139.5800   70.0560  226.3500 C   0  0  0  0  0  0  0  0  0  0  0  0
  140.3870   71.1700  226.4250 C   0  0  0  0  0  0  0  0  0  0  0  0
  140.8700   71.6280  227.7510 C   0  0  0  0  0  0  0  0  0  0  0  0
  141.8150   72.6270  227.5310 F   0  0  0  0  0  0  0  0  0  0  0  0
  141.4810   70.6330  228.4640 F   0  0  0  0  0  0  0  0  0  0  0  0
  139.8400   72.1670  228.5010 F   0  0  0  0  0  0  0  0  0  0  0  0
  140.7490   71.8610  225.2550 C   0  0  0  0  0  0  0  0  0  0  0  0
  136.3753   73.2782  220.2677 H   0  0  0  0  0  0  0  0  0  0  0  0
  136.2253   73.3907  222.0305 H   0  0  0  0  0  0  0  0  0  0  0  0
  137.7950   75.4609  220.4413 H   0  0  0  0  0  0  0  0  0  0  0  0
  135.9912   75.5634  220.6223 H   0  0  0  0  0  0  0  0  0  0  0  0
  136.1609   76.4084  222.6556 H   0  0  0  0  0  0  0  0  0  0  0  0
  137.3156   75.0396  223.1319 H   0  0  0  0  0  0  0  0  0  0  0  0
  140.5862   76.0122  222.4217 H   0  0  0  0  0  0  0  0  0  0  0  0
  142.4831   77.5598  222.7115 H   0  0  0  0  0  0  0  0  0  0  0  0
  139.7156   80.7985  223.3788 H   0  0  0  0  0  0  0  0  0  0  0  0
  138.8170   74.5860  222.9020 H   0  0  0  0  0  0  0  0  0  0  0  0
  141.1868   71.4979  222.0359 H   0  0  0  0  0  0  0  0  0  0  0  0
  139.1569   70.0104  222.9734 H   0  0  0  0  0  0  0  0  0  0  0  0
  138.5216   68.7966  224.9922 H   0  0  0  0  0  0  0  0  0  0  0  0
  139.2814   69.4952  227.2480 H   0  0  0  0  0  0  0  0  0  0  0  0
  141.3956   72.7455  225.3525 H   0  0  0  0  0  0  0  0  0  0  0  0
  1  2  2  0
  2  3  1  0
  3  4  1  0
  4  5  1  0
  5  6  1  0
  6  7  1  0
  7  8  2  0
  8  9  1  0
  9 10  2  0
 10 11  1  0
 10 12  1  0
 12 13  2  0
 13 14  1  0
  2 15  1  0
 15 16  1  0
 16 17  2  0
 17 18  1  0
 18 19  2  0
 19 20  1  0
 20 21  2  0
 21 22  1  0
 22 23  1  0
 23 24  1  0
 23 25  1  0
 23 26  1  0
 22 27  2  0
 13  7  1  0
 27 18  1  0
  3 28  1  0
  3 29  1  0
  4 30  1  0
  4 31  1  0
  5 32  1  0
  5 33  1  0
  8 34  1  0
  9 35  1  0
 12 36  1  0
 15 37  1  0
 17 38  1  0
 19 39  1  0
 20 40  1  0
 21 41  1  0
 27 42  1  0
M  END
>  <smiles>  (80) 
O=C(CCCOc1ccc(Cl)cc1Cl)NN=Cc1cccc(C(F)(F)F)c1

>  <score_type>  (80) 
oracle

>  <origin>  (80) 
autodockgpu

>  <m_score__min__energy>  (80) 
-7.5199999999999996

>  <m_primary>  (80) 
energy

>  <rmsd>  (80) 
6.513044139663172

>  <m_score__min__rmsd>  (80) 
6.513044139663172

>  <meeko>  (80) 
{"free_energy": -6.56, "intermolecular_energy": -9.24, "internal_energy": -1.44, "cluster_size": 11, "cluster_id": 1, "rank_in_cluster": 7}

>  <energy>  (80) 
-5.72

>  <cluster_rmsd>  (80) 
0.16

>  <cluster>  (80) 
8

$$$$

     RDKit          3D

 42 43  0  0  0  0  0  0  0  0999 V2000
  137.6140   75.1970  220.6010 O   0  0  0  0  0  0  0  0  0  0  0  0
  138.0830   74.6260  221.6240 C   0  0  0  0  0  0  0  0  0  0  0  0
  137.5570   73.3010  222.0960 C   0  0  0  0  0  0  0  0  0  0  0  0
  138.5890   72.2740  221.7020 C   0  0  0  0  0  0  0  0  0  0  0  0
  139.9050   72.4580  222.4630 C   0  0  0  0  0  0  0  0  0  0  0  0
  140.0590   71.7610  223.5430 O   0  0  0  0  0  0  0  0  0  0  0  0
  140.1890   71.0560  224.5970 C   0  0  0  0  0  0  0  0  0  0  0  0
  140.8920   71.5180  225.7190 C   0  0  0  0  0  0  0  0  0  0  0  0
  141.0400   70.7730  226.8590 C   0  0  0  0  0  0  0  0  0  0  0  0
  140.4730   69.5250  226.8870 C   0  0  0  0  0  0  0  0  0  0  0  0
  140.6560   68.5700  228.3310 Cl  0  0  0  0  0  0  0  0  0  0  0  0
  139.7690   69.0000  225.8270 C   0  0  0  0  0  0  0  0  0  0  0  0
  139.6410   69.7710  224.7080 C   0  0  0  0  0  0  0  0  0  0  0  0
  138.7550   69.1520  223.3310 Cl  0  0  0  0  0  0  0  0  0  0  0  0
  139.1560   75.2740  222.3500 N   0  0  0  0  0  0  0  0  0  0  0  0
  139.5900   76.4770  221.8710 N   0  0  0  0  0  0  0  0  0  0  0  0
  140.7320   76.9440  222.1430 C   0  0  0  0  0  0  0  0  0  0  0  0
  141.1370   78.3040  222.3830 C   0  0  0  0  0  0  0  0  0  0  0  0
  141.8330   78.5430  223.5780 C   0  0  0  0  0  0  0  0  0  0  0  0
  142.2640   79.8060  223.9040 C   0  0  0  0  0  0  0  0  0  0  0  0
  142.0500   80.9050  223.1010 C   0  0  0  0  0  0  0  0  0  0  0  0
  141.3680   80.6820  221.9250 C   0  0  0  0  0  0  0  0  0  0  0  0
  141.1030   81.8220  221.0120 C   0  0  0  0  0  0  0  0  0  0  0  0
  141.8380   81.6070  219.8500 F   0  0  0  0  0  0  0  0  0  0  0  0
  141.5030   83.0210  221.5360 F   0  0  0  0  0  0  0  0  0  0  0  0
  139.7650   81.8900  220.6700 F   0  0  0  0  0  0  0  0  0  0  0  0
  140.9290   79.3870  221.5970 C   0  0  0  0  0  0  0  0  0  0  0  0
  137.4256   73.3100  223.1881 H   0  0  0  0  0  0  0  0  0  0  0  0
  136.5772   73.0765  221.6492 H   0  0  0  0  0  0  0  0  0  0  0  0
  138.1918   71.2712  221.9178 H   0  0  0  0  0  0  0  0  0  0  0  0
  138.7980   72.3983  220.6292 H   0  0  0  0  0  0  0  0  0  0  0  0
  140.7246   72.1951  221.7781 H   0  0  0  0  0  0  0  0  0  0  0  0
  139.8996   73.5063  222.7963 H   0  0  0  0  0  0  0  0  0  0  0  0
  141.3434   72.5204  225.6821 H   0  0  0  0  0  0  0  0  0  0  0  0
  141.5959   71.1635  227.7242 H   0  0  0  0  0  0  0  0  0  0  0  0
  139.3253   67.9948  225.8799 H   0  0  0  0  0  0  0  0  0  0  0  0
  139.5650   74.8520  223.2150 H   0  0  0  0  0  0  0  0  0  0  0  0
  141.5385   76.1986  222.2059 H   0  0  0  0  0  0  0  0  0  0  0  0
  142.0363   77.7070  224.2634 H   0  0  0  0  0  0  0  0  0  0  0  0
  142.8057   79.9466  224.8510 H   0  0  0  0  0  0  0  0  0  0  0  0
  142.4048   81.9071  223.3838 H   0  0  0  0  0  0  0  0  0  0  0  0
  140.3870   79.2459  220.6502 H   0  0  0  0  0  0  0  0  0  0  0  0
  1  2  2  0
  2  3  1  0
  3  4  1  0
  4  5  1  0
  5  6  1  0
  6  7  1  0
  7  8  2  0
  8  9  1  0
  9 10  2  0
 10 11  1  0
 10 12  1  0
 12 13  2  0
 13 14  1  0
  2 15  1  0
 15 16  1  0
 16 17  2  0
 17 18  1  0
 18 19  2  0
 19 20  1  0
 20 21  2  0
 21 22  1  0
 22 23  1  0
 23 24  1  0
 23 25  1  0
 23 26  1  0
 22 27  2  0
 13  7  1  0
 27 18  1  0
  3 28  1  0
  3 29  1  0
  4 30  1  0
  4 31  1  0
  5 32  1  0
  5 33  1  0
  8 34  1  0
  9 35  1  0
 12 36  1  0
 15 37  1  0
 17 38  1  0
 19 39  1  0
 20 40  1  0
 21 41  1  0
 27 42  1  0
M  END
>  <smiles>  (81) 
O=C(CCCOc1ccc(Cl)cc1Cl)NN=Cc1cccc(C(F)(F)F)c1

>  <score_type>  (81) 
oracle

>  <origin>  (81) 
autodockgpu

>  <m_score__min__energy>  (81) 
-7.5199999999999996

>  <m_primary>  (81) 
energy

>  <rmsd>  (81) 
12.329159496139846

>  <m_score__min__rmsd>  (81) 
12.329159496139846

>  <meeko>  (81) 
{"free_energy": -6.73, "intermolecular_energy": -9.41, "internal_energy": -0.8, "cluster_size": 5, "cluster_id": 2, "rank_in_cluster": 3}

>  <energy>  (81) 
-5.5

>  <cluster_rmsd>  (81) 
0.96

>  <cluster>  (81) 
8

$$$$

     RDKit          3D

 42 43  0  0  0  0  0  0  0  0999 V2000
  141.3140   75.3400  221.4870 O   0  0  0  0  0  0  0  0  0  0  0  0
  140.0960   75.3160  221.8180 C   0  0  0  0  0  0  0  0  0  0  0  0
  139.2160   76.5230  221.6660 C   0  0  0  0  0  0  0  0  0  0  0  0
  138.0120   76.2790  222.5410 C   0  0  0  0  0  0  0  0  0  0  0  0
  136.9550   75.4210  221.8390 C   0  0  0  0  0  0  0  0  0  0  0  0
  136.5500   74.3630  222.4650 O   0  0  0  0  0  0  0  0  0  0  0  0
  136.1790   73.3130  223.0870 C   0  0  0  0  0  0  0  0  0  0  0  0
  136.4910   72.0260  222.6260 C   0  0  0  0  0  0  0  0  0  0  0  0
  136.1010   70.8890  223.2820 C   0  0  0  0  0  0  0  0  0  0  0  0
  135.3730   71.0320  224.4340 C   0  0  0  0  0  0  0  0  0  0  0  0
  134.8710   69.5920  225.2750 Cl  0  0  0  0  0  0  0  0  0  0  0  0
  135.0250   72.2600  224.9510 C   0  0  0  0  0  0  0  0  0  0  0  0
  135.4320   73.3710  224.2710 C   0  0  0  0  0  0  0  0  0  0  0  0
  135.0170   74.9580  224.8840 Cl  0  0  0  0  0  0  0  0  0  0  0  0
  139.5470   74.0880  222.3540 N   0  0  0  0  0  0  0  0  0  0  0  0
  140.3990   73.0260  222.4660 N   0  0  0  0  0  0  0  0  0  0  0  0
  140.0030   71.8690  222.7870 C   0  0  0  0  0  0  0  0  0  0  0  0
  139.9230   71.2500  224.0840 C   0  0  0  0  0  0  0  0  0  0  0  0
  139.2360   70.0280  224.1460 C   0  0  0  0  0  0  0  0  0  0  0  0
  139.1010   69.3540  225.3360 C   0  0  0  0  0  0  0  0  0  0  0  0
  139.6170   69.8170  226.5270 C   0  0  0  0  0  0  0  0  0  0  0  0
  140.2940   71.0160  226.4760 C   0  0  0  0  0  0  0  0  0  0  0  0
  140.8770   71.5730  227.7230 C   0  0  0  0  0  0  0  0  0  0  0  0
  141.7850   72.5630  227.3550 F   0  0  0  0  0  0  0  0  0  0  0  0
  141.5610   70.6370  228.4490 F   0  0  0  0  0  0  0  0  0  0  0  0
  139.9040   72.1530  228.5150 F   0  0  0  0  0  0  0  0  0  0  0  0
  140.4290   71.7010  225.2560 C   0  0  0  0  0  0  0  0  0  0  0  0
  139.7491   77.4274  221.9945 H   0  0  0  0  0  0  0  0  0  0  0  0
  138.9243   76.6767  220.6166 H   0  0  0  0  0  0  0  0  0  0  0  0
  138.3373   75.7629  223.4563 H   0  0  0  0  0  0  0  0  0  0  0  0
  137.5581   77.2538  222.7728 H   0  0  0  0  0  0  0  0  0  0  0  0
  136.0761   76.0576  221.6590 H   0  0  0  0  0  0  0  0  0  0  0  0
  137.4477   75.0456  220.9300 H   0  0  0  0  0  0  0  0  0  0  0  0
  137.0736   71.9255  221.6984 H   0  0  0  0  0  0  0  0  0  0  0  0
  136.3637   69.8928  222.8965 H   0  0  0  0  0  0  0  0  0  0  0  0
  134.4399   72.3424  225.8788 H   0  0  0  0  0  0  0  0  0  0  0  0
  138.5500   74.0220  222.6610 H   0  0  0  0  0  0  0  0  0  0  0  0
  139.6691   71.2404  221.9483 H   0  0  0  0  0  0  0  0  0  0  0  0
  138.7996   69.6038  223.2297 H   0  0  0  0  0  0  0  0  0  0  0  0
  138.5549   68.3991  225.3379 H   0  0  0  0  0  0  0  0  0  0  0  0
  139.4950   69.2596  227.4674 H   0  0  0  0  0  0  0  0  0  0  0  0
  140.9756   72.6556  225.2534 H   0  0  0  0  0  0  0  0  0  0  0  0
  1  2  2  0
  2  3  1  0
  3  4  1  0
  4  5  1  0
  5  6  1  0
  6  7  1  0
  7  8  2  0
  8  9  1  0
  9 10  2  0
 10 11  1  0
 10 12  1  0
 12 13  2  0
 13 14  1  0
  2 15  1  0
 15 16  1  0
 16 17  2  0
 17 18  1  0
 18 19  2  0
 19 20  1  0
 20 21  2  0
 21 22  1  0
 22 23  1  0
 23 24  1  0
 23 25  1  0
 23 26  1  0
 22 27  2  0
 13  7  1  0
 27 18  1  0
  3 28  1  0
  3 29  1  0
  4 30  1  0
  4 31  1  0
  5 32  1  0
  5 33  1  0
  8 34  1  0
  9 35  1  0
 12 36  1  0
 15 37  1  0
 17 38  1  0
 19 39  1  0
 20 40  1  0
 21 41  1  0
 27 42  1  0
M  END
>  <smiles>  (82) 
O=C(CCCOc1ccc(Cl)cc1Cl)NN=Cc1cccc(C(F)(F)F)c1

>  <score_type>  (82) 
oracle

>  <origin>  (82) 
autodockgpu

>  <m_score__min__energy>  (82) 
-7.5199999999999996

>  <m_primary>  (82) 
energy

>  <rmsd>  (82) 
10.652835196718279

>  <m_score__min__rmsd>  (82) 
10.652835196718279

>  <meeko>  (82) 
{"free_energy": -5.66, "intermolecular_energy": -8.34, "internal_energy": -2.42, "cluster_size": 12, "cluster_id": 9, "rank_in_cluster": 5}

>  <energy>  (82) 
-4.69

>  <cluster_rmsd>  (82) 
1.33

>  <cluster>  (82) 
8

$$$$

     RDKit          3D

 42 43  0  0  0  0  0  0  0  0999 V2000
  141.1520   74.9840  220.8700 O   0  0  0  0  0  0  0  0  0  0  0  0
  140.0380   75.1140  221.4490 C   0  0  0  0  0  0  0  0  0  0  0  0
  139.1680   76.3160  221.2210 C   0  0  0  0  0  0  0  0  0  0  0  0
  138.2780   76.4280  222.4330 C   0  0  0  0  0  0  0  0  0  0  0  0
  136.8810   75.8570  222.1750 C   0  0  0  0  0  0  0  0  0  0  0  0
  136.7170   74.5910  222.3940 O   0  0  0  0  0  0  0  0  0  0  0  0
  136.5560   73.3500  222.6380 C   0  0  0  0  0  0  0  0  0  0  0  0
  136.0440   72.8930  223.8610 C   0  0  0  0  0  0  0  0  0  0  0  0
  135.8650   71.5640  224.1390 C   0  0  0  0  0  0  0  0  0  0  0  0
  136.2080   70.6550  223.1710 C   0  0  0  0  0  0  0  0  0  0  0  0
  135.9840   68.9630  223.5150 Cl  0  0  0  0  0  0  0  0  0  0  0  0
  136.7170   71.0240  221.9470 C   0  0  0  0  0  0  0  0  0  0  0  0
  136.8810   72.3570  221.7040 C   0  0  0  0  0  0  0  0  0  0  0  0
  137.5250   72.8820  220.1630 Cl  0  0  0  0  0  0  0  0  0  0  0  0
  139.5990   74.0690  222.3500 N   0  0  0  0  0  0  0  0  0  0  0  0
  140.4350   73.0010  222.5140 N   0  0  0  0  0  0  0  0  0  0  0  0
  140.0170   71.8580  222.8560 C   0  0  0  0  0  0  0  0  0  0  0  0
  140.0160   71.2270  224.1490 C   0  0  0  0  0  0  0  0  0  0  0  0
  139.4680   69.9360  224.2090 C   0  0  0  0  0  0  0  0  0  0  0  0
  139.4180   69.2450  225.3960 C   0  0  0  0  0  0  0  0  0  0  0  0
  139.8890   69.7550  226.5860 C   0  0  0  0  0  0  0  0  0  0  0  0
  140.4290   71.0220  226.5380 C   0  0  0  0  0  0  0  0  0  0  0  0
  140.9570   71.6340  227.7830 C   0  0  0  0  0  0  0  0  0  0  0  0
  139.8760   72.1700  228.4770 F   0  0  0  0  0  0  0  0  0  0  0  0
  141.8360   72.6530  227.5390 F   0  0  0  0  0  0  0  0  0  0  0  0
  141.5600   70.6860  228.5900 F   0  0  0  0  0  0  0  0  0  0  0  0
  140.4780   71.7250  225.3200 C   0  0  0  0  0  0  0  0  0  0  0  0
  139.7862   77.2199  221.1172 H   0  0  0  0  0  0  0  0  0  0  0  0
  138.5776   76.2139  220.2985 H   0  0  0  0  0  0  0  0  0  0  0  0
  138.7394   75.8751  223.2645 H   0  0  0  0  0  0  0  0  0  0  0  0
  138.1687   77.4952  222.6762 H   0  0  0  0  0  0  0  0  0  0  0  0
  136.1752   76.4003  222.8205 H   0  0  0  0  0  0  0  0  0  0  0  0
  136.7126   75.9861  221.0957 H   0  0  0  0  0  0  0  0  0  0  0  0
  135.7749   73.6330  224.6291 H   0  0  0  0  0  0  0  0  0  0  0  0
  135.4592   71.2362  225.1075 H   0  0  0  0  0  0  0  0  0  0  0  0
  136.9825   70.2708  221.1906 H   0  0  0  0  0  0  0  0  0  0  0  0
  138.6940   74.1370  222.8690 H   0  0  0  0  0  0  0  0  0  0  0  0
  139.5893   71.2545  222.0418 H   0  0  0  0  0  0  0  0  0  0  0  0
  139.0732   69.4711  223.2936 H   0  0  0  0  0  0  0  0  0  0  0  0
  138.9806   68.2357  225.3959 H   0  0  0  0  0  0  0  0  0  0  0  0
  139.8369   69.1820  227.5235 H   0  0  0  0  0  0  0  0  0  0  0  0
  140.9155   72.7342  225.3193 H   0  0  0  0  0  0  0  0  0  0  0  0
  1  2  2  0
  2  3  1  0
  3  4  1  0
  4  5  1  0
  5  6  1  0
  6  7  1  0
  7  8  2  0
  8  9  1  0
  9 10  2  0
 10 11  1  0
 10 12  1  0
 12 13  2  0
 13 14  1  0
  2 15  1  0
 15 16  1  0
 16 17  2  0
 17 18  1  0
 18 19  2  0
 19 20  1  0
 20 21  2  0
 21 22  1  0
 22 23  1  0
 23 24  1  0
 23 25  1  0
 23 26  1  0
 22 27  2  0
 13  7  1  0
 27 18  1  0
  3 28  1  0
  3 29  1  0
  4 30  1  0
  4 31  1  0
  5 32  1  0
  5 33  1  0
  8 34  1  0
  9 35  1  0
 12 36  1  0
 15 37  1  0
 17 38  1  0
 19 39  1  0
 20 40  1  0
 21 41  1  0
 27 42  1  0
M  END
>  <smiles>  (83) 
O=C(CCCOc1ccc(Cl)cc1Cl)NN=Cc1cccc(C(F)(F)F)c1

>  <score_type>  (83) 
oracle

>  <origin>  (83) 
autodockgpu

>  <m_score__min__energy>  (83) 
-7.5199999999999996

>  <m_primary>  (83) 
energy

>  <rmsd>  (83) 
10.183021644741423

>  <m_score__min__rmsd>  (83) 
10.183021644741423

>  <meeko>  (83) 
{"free_energy": -4.89, "intermolecular_energy": -7.57, "internal_energy": -2.79, "cluster_size": 12, "cluster_id": 9, "rank_in_cluster": 12}

>  <energy>  (83) 
-5.74

>  <cluster_rmsd>  (83) 
0.0

>  <cluster>  (83) 
9

$$$$

     RDKit          3D

 42 43  0  0  0  0  0  0  0  0999 V2000
  139.6750   73.3870  222.6170 O   0  0  0  0  0  0  0  0  0  0  0  0
  139.8630   73.7440  221.4210 C   0  0  0  0  0  0  0  0  0  0  0  0
  139.4330   72.8850  220.2670 C   0  0  0  0  0  0  0  0  0  0  0  0
  139.2410   73.8170  219.0970 C   0  0  0  0  0  0  0  0  0  0  0  0
  140.5330   74.0120  218.2980 C   0  0  0  0  0  0  0  0  0  0  0  0
  141.6470   73.8810  218.9460 O   0  0  0  0  0  0  0  0  0  0  0  0
  142.7560   73.7710  219.5650 C   0  0  0  0  0  0  0  0  0  0  0  0
  143.2180   72.5400  220.0520 C   0  0  0  0  0  0  0  0  0  0  0  0
  144.4070   72.4050  220.7190 C   0  0  0  0  0  0  0  0  0  0  0  0
  145.1640   73.5320  220.9110 C   0  0  0  0  0  0  0  0  0  0  0  0
  146.6760   73.3720  221.7590 Cl  0  0  0  0  0  0  0  0  0  0  0  0
  144.7800   74.7760  220.4640 C   0  0  0  0  0  0  0  0  0  0  0  0
  143.5890   74.8720  219.8040 C   0  0  0  0  0  0  0  0  0  0  0  0
  143.0530   76.4300  219.2140 Cl  0  0  0  0  0  0  0  0  0  0  0  0
  140.5080   75.0160  221.1700 N   0  0  0  0  0  0  0  0  0  0  0  0
  140.8740   75.7510  222.2620 N   0  0  0  0  0  0  0  0  0  0  0  0
  140.4120   76.9060  222.4890 C   0  0  0  0  0  0  0  0  0  0  0  0
  141.0400   78.1930  222.3430 C   0  0  0  0  0  0  0  0  0  0  0  0
  141.8150   78.6320  223.4280 C   0  0  0  0  0  0  0  0  0  0  0  0
  142.4570   79.8460  223.3910 C   0  0  0  0  0  0  0  0  0  0  0  0
  142.3890   80.7020  222.3130 C   0  0  0  0  0  0  0  0  0  0  0  0
  141.6310   80.2800  221.2430 C   0  0  0  0  0  0  0  0  0  0  0  0
  141.5150   81.1520  220.0480 C   0  0  0  0  0  0  0  0  0  0  0  0
  142.4710   80.7320  219.1280 F   0  0  0  0  0  0  0  0  0  0  0  0
  141.7640   82.4680  220.3280 F   0  0  0  0  0  0  0  0  0  0  0  0
  140.2690   81.0340  219.4600 F   0  0  0  0  0  0  0  0  0  0  0  0
  140.9760   79.0360  221.2860 C   0  0  0  0  0  0  0  0  0  0  0  0
  140.2082   72.1392  220.0372 H   0  0  0  0  0  0  0  0  0  0  0  0
  138.5080   72.3366  220.4985 H   0  0  0  0  0  0  0  0  0  0  0  0
  138.4723   73.3972  218.4315 H   0  0  0  0  0  0  0  0  0  0  0  0
  138.9352   74.7973  219.4913 H   0  0  0  0  0  0  0  0  0  0  0  0
  140.5341   73.2741  217.4822 H   0  0  0  0  0  0  0  0  0  0  0  0
  140.5127   75.0620  217.9708 H   0  0  0  0  0  0  0  0  0  0  0  0
  142.5995   71.6446  219.8917 H   0  0  0  0  0  0  0  0  0  0  0  0
  144.7432   71.4249  221.0883 H   0  0  0  0  0  0  0  0  0  0  0  0
  145.4106   75.6614  220.6327 H   0  0  0  0  0  0  0  0  0  0  0  0
  140.7040   75.3490  220.1990 H   0  0  0  0  0  0  0  0  0  0  0  0
  139.3742   76.9310  222.8527 H   0  0  0  0  0  0  0  0  0  0  0  0
  141.9095   77.9953  224.3200 H   0  0  0  0  0  0  0  0  0  0  0  0
  143.0540   80.1494  224.2637 H   0  0  0  0  0  0  0  0  0  0  0  0
  142.9118   81.6698  222.3073 H   0  0  0  0  0  0  0  0  0  0  0  0
  140.3794   78.7318  220.4133 H   0  0  0  0  0  0  0  0  0  0  0  0
  1  2  2  0
  2  3  1  0
  3  4  1  0
  4  5  1  0
  5  6  1  0
  6  7  1  0
  7  8  2  0
  8  9  1  0
  9 10  2  0
 10 11  1  0
 10 12  1  0
 12 13  2  0
 13 14  1  0
  2 15  1  0
 15 16  1  0
 16 17  2  0
 17 18  1  0
 18 19  2  0
 19 20  1  0
 20 21  2  0
 21 22  1  0
 22 23  1  0
 23 24  1  0
 23 25  1  0
 23 26  1  0
 22 27  2  0
 13  7  1  0
 27 18  1  0
  3 28  1  0
  3 29  1  0
  4 30  1  0
  4 31  1  0
  5 32  1  0
  5 33  1  0
  8 34  1  0
  9 35  1  0
 12 36  1  0
 15 37  1  0
 17 38  1  0
 19 39  1  0
 20 40  1  0
 21 41  1  0
 27 42  1  0
M  END
>  <smiles>  (84) 
O=C(CCCOc1ccc(Cl)cc1Cl)NN=Cc1cccc(C(F)(F)F)c1

>  <score_type>  (84) 
oracle

>  <origin>  (84) 
autodockgpu

>  <m_score__min__energy>  (84) 
-7.5199999999999996

>  <m_primary>  (84) 
energy

>  <rmsd>  (84) 
9.736544254906297

>  <m_score__min__rmsd>  (84) 
9.736544254906297

>  <meeko>  (84) 
{"free_energy": -5.55, "intermolecular_energy": -8.23, "internal_energy": -2.23, "cluster_size": 2, "cluster_id": 10, "rank_in_cluster": 1}

>  <energy>  (84) 
-5.74

>  <cluster_rmsd>  (84) 
0.23

>  <cluster>  (84) 
9

$$$$

     RDKit          3D

 42 43  0  0  0  0  0  0  0  0999 V2000
  141.7040   73.2030  221.1840 O   0  0  0  0  0  0  0  0  0  0  0  0
  142.2420   74.2890  220.8320 C   0  0  0  0  0  0  0  0  0  0  0  0
  143.4590   74.3160  219.9540 C   0  0  0  0  0  0  0  0  0  0  0  0
  143.7590   75.7700  219.6930 C   0  0  0  0  0  0  0  0  0  0  0  0
  142.8060   76.3790  218.6610 C   0  0  0  0  0  0  0  0  0  0  0  0
  142.1820   77.4590  219.0060 O   0  0  0  0  0  0  0  0  0  0  0  0
  141.5430   78.5130  219.3310 C   0  0  0  0  0  0  0  0  0  0  0  0
  142.1980   79.7110  219.6540 C   0  0  0  0  0  0  0  0  0  0  0  0
  141.5260   80.8520  220.0060 C   0  0  0  0  0  0  0  0  0  0  0  0
  140.1560   80.8030  220.0410 C   0  0  0  0  0  0  0  0  0  0  0  0
  139.2930   82.2480  220.4870 Cl  0  0  0  0  0  0  0  0  0  0  0  0
  139.4410   79.6670  219.7390 C   0  0  0  0  0  0  0  0  0  0  0  0
  140.1430   78.5490  219.3920 C   0  0  0  0  0  0  0  0  0  0  0  0
  139.2830   77.0760  218.9990 Cl  0  0  0  0  0  0  0  0  0  0  0  0
  141.6600   75.5330  221.2930 N   0  0  0  0  0  0  0  0  0  0  0  0
  140.5540   75.4410  222.0890 N   0  0  0  0  0  0  0  0  0  0  0  0
  139.7330   76.3930  222.2220 C   0  0  0  0  0  0  0  0  0  0  0  0
  139.9510   77.7400  222.6800 C   0  0  0  0  0  0  0  0  0  0  0  0
  138.8100   78.4520  223.0800 C   0  0  0  0  0  0  0  0  0  0  0  0
  138.9070   79.7460  223.5330 C   0  0  0  0  0  0  0  0  0  0  0  0
  140.1040   80.4230  223.6250 C   0  0  0  0  0  0  0  0  0  0  0  0
  141.2300   79.7330  223.2350 C   0  0  0  0  0  0  0  0  0  0  0  0
  142.5530   80.4020  223.3090 C   0  0  0  0  0  0  0  0  0  0  0  0
  143.4920   79.5380  222.7530 F   0  0  0  0  0  0  0  0  0  0  0  0
  142.9430   80.6610  224.5940 F   0  0  0  0  0  0  0  0  0  0  0  0
  142.5620   81.5770  222.5780 F   0  0  0  0  0  0  0  0  0  0  0  0
  141.1240   78.4090  222.7720 C   0  0  0  0  0  0  0  0  0  0  0  0
  144.3078   73.8375  220.4644 H   0  0  0  0  0  0  0  0  0  0  0  0
  143.2878   73.7680  219.0157 H   0  0  0  0  0  0  0  0  0  0  0  0
  143.6626   76.3269  220.6367 H   0  0  0  0  0  0  0  0  0  0  0  0
  144.7809   75.8380  219.2917 H   0  0  0  0  0  0  0  0  0  0  0  0
  143.3942   76.6084  217.7602 H   0  0  0  0  0  0  0  0  0  0  0  0
  142.0176   75.6252  218.5188 H   0  0  0  0  0  0  0  0  0  0  0  0
  143.2973   79.7352  219.6234 H   0  0  0  0  0  0  0  0  0  0  0  0
  142.0677   81.7771  220.2524 H   0  0  0  0  0  0  0  0  0  0  0  0
  138.3416   79.6600  219.7759 H   0  0  0  0  0  0  0  0  0  0  0  0
  142.0790   76.4580  221.0470 H   0  0  0  0  0  0  0  0  0  0  0  0
  138.6949   76.1561  221.9459 H   0  0  0  0  0  0  0  0  0  0  0  0
  137.8237   77.9676  223.0303 H   0  0  0  0  0  0  0  0  0  0  0  0
  137.9862   80.2657  223.8363 H   0  0  0  0  0  0  0  0  0  0  0  0
  140.1570   81.4592  223.9905 H   0  0  0  0  0  0  0  0  0  0  0  0
  142.0445   77.8890  222.4682 H   0  0  0  0  0  0  0  0  0  0  0  0
  1  2  2  0
  2  3  1  0
  3  4  1  0
  4  5  1  0
  5  6  1  0
  6  7  1  0
  7  8  2  0
  8  9  1  0
  9 10  2  0
 10 11  1  0
 10 12  1  0
 12 13  2  0
 13 14  1  0
  2 15  1  0
 15 16  1  0
 16 17  2  0
 17 18  1  0
 18 19  2  0
 19 20  1  0
 20 21  2  0
 21 22  1  0
 22 23  1  0
 23 24  1  0
 23 25  1  0
 23 26  1  0
 22 27  2  0
 13  7  1  0
 27 18  1  0
  3 28  1  0
  3 29  1  0
  4 30  1  0
  4 31  1  0
  5 32  1  0
  5 33  1  0
  8 34  1  0
  9 35  1  0
 12 36  1  0
 15 37  1  0
 17 38  1  0
 19 39  1  0
 20 40  1  0
 21 41  1  0
 27 42  1  0
M  END
>  <smiles>  (85) 
O=C(CCCOc1ccc(Cl)cc1Cl)NN=Cc1cccc(C(F)(F)F)c1

>  <score_type>  (85) 
oracle

>  <origin>  (85) 
autodockgpu

>  <m_score__min__energy>  (85) 
-7.5199999999999996

>  <m_primary>  (85) 
energy

>  <rmsd>  (85) 
6.2014703461504

>  <m_score__min__rmsd>  (85) 
6.2014703461504

>  <meeko>  (85) 
{"free_energy": -4.45, "intermolecular_energy": -7.14, "internal_energy": -3.19, "cluster_size": 2, "cluster_id": 13, "rank_in_cluster": 1}

>  <energy>  (85) 
-5.73

>  <cluster_rmsd>  (85) 
0.28

>  <cluster>  (85) 
9

$$$$

     RDKit          3D

 42 43  0  0  0  0  0  0  0  0999 V2000
  141.2440   75.1680  221.5760 O   0  0  0  0  0  0  0  0  0  0  0  0
  140.0060   75.1090  221.8130 C   0  0  0  0  0  0  0  0  0  0  0  0
  139.0960   76.2710  221.5370 C   0  0  0  0  0  0  0  0  0  0  0  0
  138.1040   76.3090  222.6730 C   0  0  0  0  0  0  0  0  0  0  0  0
  136.7530   75.7070  222.2780 C   0  0  0  0  0  0  0  0  0  0  0  0
  136.4480   74.5620  222.7990 O   0  0  0  0  0  0  0  0  0  0  0  0
  136.1500   73.4220  223.2850 C   0  0  0  0  0  0  0  0  0  0  0  0
  136.6260   72.2270  222.7260 C   0  0  0  0  0  0  0  0  0  0  0  0
  136.3150   70.9940  223.2370 C   0  0  0  0  0  0  0  0  0  0  0  0
  135.5010   70.9440  224.3390 C   0  0  0  0  0  0  0  0  0  0  0  0
  135.0990   69.3820  224.9950 Cl  0  0  0  0  0  0  0  0  0  0  0  0
  134.9930   72.0710  224.9440 C   0  0  0  0  0  0  0  0  0  0  0  0
  135.3240   73.2820  224.4090 C   0  0  0  0  0  0  0  0  0  0  0  0
  134.7050   74.7470  225.1390 Cl  0  0  0  0  0  0  0  0  0  0  0  0
  139.4630   73.8850  222.3650 N   0  0  0  0  0  0  0  0  0  0  0  0
  140.3420   72.8650  222.5920 N   0  0  0  0  0  0  0  0  0  0  0  0
  139.9670   71.7140  222.9560 C   0  0  0  0  0  0  0  0  0  0  0  0
  139.9560   71.1200  224.2660 C   0  0  0  0  0  0  0  0  0  0  0  0
  139.3810   69.8430  224.3640 C   0  0  0  0  0  0  0  0  0  0  0  0
  139.3200   69.1870  225.5700 C   0  0  0  0  0  0  0  0  0  0  0  0
  139.8040   69.7220  226.7440 C   0  0  0  0  0  0  0  0  0  0  0  0
  140.3700   70.9750  226.6590 C   0  0  0  0  0  0  0  0  0  0  0  0
  140.9120   71.6110  227.8860 C   0  0  0  0  0  0  0  0  0  0  0  0
  141.5700   70.6230  228.6140 F   0  0  0  0  0  0  0  0  0  0  0  0
  139.9340   72.1310  228.6870 F   0  0  0  0  0  0  0  0  0  0  0  0
  141.8280   72.5990  227.5740 F   0  0  0  0  0  0  0  0  0  0  0  0
  140.4300   71.6420  225.4220 C   0  0  0  0  0  0  0  0  0  0  0  0
  139.6727   77.2071  221.5031 H   0  0  0  0  0  0  0  0  0  0  0  0
  138.5896   76.1614  220.5667 H   0  0  0  0  0  0  0  0  0  0  0  0
  138.5126   75.7383  223.5200 H   0  0  0  0  0  0  0  0  0  0  0  0
  137.9393   77.3623  222.9439 H   0  0  0  0  0  0  0  0  0  0  0  0
  135.9715   76.4239  222.5700 H   0  0  0  0  0  0  0  0  0  0  0  0
  136.8273   75.5197  221.1966 H   0  0  0  0  0  0  0  0  0  0  0  0
  137.2762   72.2817  221.8404 H   0  0  0  0  0  0  0  0  0  0  0  0
  136.7059   70.0741  222.7777 H   0  0  0  0  0  0  0  0  0  0  0  0
  134.3427   71.9981  225.8282 H   0  0  0  0  0  0  0  0  0  0  0  0
  138.4480   73.7920  222.5980 H   0  0  0  0  0  0  0  0  0  0  0  0
  139.5921   71.0685  222.1481 H   0  0  0  0  0  0  0  0  0  0  0  0
  138.9737   69.3609  223.4631 H   0  0  0  0  0  0  0  0  0  0  0  0
  138.8629   68.1869  225.5996 H   0  0  0  0  0  0  0  0  0  0  0  0
  139.7417   69.1777  227.6979 H   0  0  0  0  0  0  0  0  0  0  0  0
  140.8869   72.6422  225.3921 H   0  0  0  0  0  0  0  0  0  0  0  0
  1  2  2  0
  2  3  1  0
  3  4  1  0
  4  5  1  0
  5  6  1  0
  6  7  1  0
  7  8  2  0
  8  9  1  0
  9 10  2  0
 10 11  1  0
 10 12  1  0
 12 13  2  0
 13 14  1  0
  2 15  1  0
 15 16  1  0
 16 17  2  0
 17 18  1  0
 18 19  2  0
 19 20  1  0
 20 21  2  0
 21 22  1  0
 22 23  1  0
 23 24  1  0
 23 25  1  0
 23 26  1  0
 22 27  2  0
 13  7  1  0
 27 18  1  0
  3 28  1  0
  3 29  1  0
  4 30  1  0
  4 31  1  0
  5 32  1  0
  5 33  1  0
  8 34  1  0
  9 35  1  0
 12 36  1  0
 15 37  1  0
 17 38  1  0
 19 39  1  0
 20 40  1  0
 21 41  1  0
 27 42  1  0
M  END
>  <smiles>  (86) 
O=C(CCCOc1ccc(Cl)cc1Cl)NN=Cc1cccc(C(F)(F)F)c1

>  <score_type>  (86) 
oracle

>  <origin>  (86) 
autodockgpu

>  <m_score__min__energy>  (86) 
-7.5199999999999996

>  <m_primary>  (86) 
energy

>  <rmsd>  (86) 
10.591979708077634

>  <m_score__min__rmsd>  (86) 
10.591979708077634

>  <meeko>  (86) 
{"free_energy": -5.73, "intermolecular_energy": -8.41, "internal_energy": -2.43, "cluster_size": 12, "cluster_id": 9, "rank_in_cluster": 3}

>  <energy>  (86) 
-5.71

>  <cluster_rmsd>  (86) 
1.3

>  <cluster>  (86) 
9

$$$$

     RDKit          3D

 42 43  0  0  0  0  0  0  0  0999 V2000
  139.6740   75.6100  222.3320 O   0  0  0  0  0  0  0  0  0  0  0  0
  139.9260   74.9240  221.3020 C   0  0  0  0  0  0  0  0  0  0  0  0
  139.8730   75.5210  219.9260 C   0  0  0  0  0  0  0  0  0  0  0  0
  139.3150   74.4490  219.0230 C   0  0  0  0  0  0  0  0  0  0  0  0
  140.4190   73.5830  218.4090 C   0  0  0  0  0  0  0  0  0  0  0  0
  141.5600   73.5700  219.0200 O   0  0  0  0  0  0  0  0  0  0  0  0
  142.6840   73.5270  219.6210 C   0  0  0  0  0  0  0  0  0  0  0  0
  143.4810   74.6680  219.7920 C   0  0  0  0  0  0  0  0  0  0  0  0
  144.6900   74.6380  220.4360 C   0  0  0  0  0  0  0  0  0  0  0  0
  145.1250   73.4340  220.9260 C   0  0  0  0  0  0  0  0  0  0  0  0
  146.6600   73.3860  221.7450 Cl  0  0  0  0  0  0  0  0  0  0  0  0
  144.4020   72.2700  220.7980 C   0  0  0  0  0  0  0  0  0  0  0  0
  143.2020   72.3370  220.1510 C   0  0  0  0  0  0  0  0  0  0  0  0
  142.2420   70.8860  219.9610 Cl  0  0  0  0  0  0  0  0  0  0  0  0
  140.2760   73.5280  221.4680 N   0  0  0  0  0  0  0  0  0  0  0  0
  140.3080   73.0450  222.7460 N   0  0  0  0  0  0  0  0  0  0  0  0
  140.4200   71.8130  223.0030 C   0  0  0  0  0  0  0  0  0  0  0  0
  140.2120   71.1080  224.2400 C   0  0  0  0  0  0  0  0  0  0  0  0
  139.5420   69.8780  224.1480 C   0  0  0  0  0  0  0  0  0  0  0  0
  139.2920   69.1250  225.2700 C   0  0  0  0  0  0  0  0  0  0  0  0
  139.6700   69.5120  226.5370 C   0  0  0  0  0  0  0  0  0  0  0  0
  140.3280   70.7180  226.6380 C   0  0  0  0  0  0  0  0  0  0  0  0
  140.7650   71.1960  227.9740 C   0  0  0  0  0  0  0  0  0  0  0  0
  139.6220   71.5410  228.6900 F   0  0  0  0  0  0  0  0  0  0  0  0
  141.5570   72.3090  227.9030 F   0  0  0  0  0  0  0  0  0  0  0  0
  141.4270   70.2020  228.6700 F   0  0  0  0  0  0  0  0  0  0  0  0
  140.5820   71.4850  225.4870 C   0  0  0  0  0  0  0  0  0  0  0  0
  139.2179   76.4047  219.9187 H   0  0  0  0  0  0  0  0  0  0  0  0
  140.8690   75.8476  219.5923 H   0  0  0  0  0  0  0  0  0  0  0  0
  138.6435   73.8048  219.6096 H   0  0  0  0  0  0  0  0  0  0  0  0
  138.7756   74.9438  218.2019 H   0  0  0  0  0  0  0  0  0  0  0  0
  140.0488   72.5478  218.3740 H   0  0  0  0  0  0  0  0  0  0  0  0
  140.6244   74.0335  217.4267 H   0  0  0  0  0  0  0  0  0  0  0  0
  143.1205   75.6273  219.3924 H   0  0  0  0  0  0  0  0  0  0  0  0
  145.2921   75.5507  220.5560 H   0  0  0  0  0  0  0  0  0  0  0  0
  144.7780   71.3189  221.2030 H   0  0  0  0  0  0  0  0  0  0  0  0
  140.4740   72.9120  220.6480 H   0  0  0  0  0  0  0  0  0  0  0  0
  140.7222   71.1843  222.1525 H   0  0  0  0  0  0  0  0  0  0  0  0
  139.2126   69.5119  223.1644 H   0  0  0  0  0  0  0  0  0  0  0  0
  138.7646   68.1670  225.1507 H   0  0  0  0  0  0  0  0  0  0  0  0
  139.4579   68.8916  227.4202 H   0  0  0  0  0  0  0  0  0  0  0  0
  141.1097   72.4428  225.6060 H   0  0  0  0  0  0  0  0  0  0  0  0
  1  2  2  0
  2  3  1  0
  3  4  1  0
  4  5  1  0
  5  6  1  0
  6  7  1  0
  7  8  2  0
  8  9  1  0
  9 10  2  0
 10 11  1  0
 10 12  1  0
 12 13  2  0
 13 14  1  0
  2 15  1  0
 15 16  1  0
 16 17  2  0
 17 18  1  0
 18 19  2  0
 19 20  1  0
 20 21  2  0
 21 22  1  0
 22 23  1  0
 23 24  1  0
 23 25  1  0
 23 26  1  0
 22 27  2  0
 13  7  1  0
 27 18  1  0
  3 28  1  0
  3 29  1  0
  4 30  1  0
  4 31  1  0
  5 32  1  0
  5 33  1  0
  8 34  1  0
  9 35  1  0
 12 36  1  0
 15 37  1  0
 17 38  1  0
 19 39  1  0
 20 40  1  0
 21 41  1  0
 27 42  1  0
M  END
>  <smiles>  (87) 
O=C(CCCOc1ccc(Cl)cc1Cl)NN=Cc1cccc(C(F)(F)F)c1

>  <score_type>  (87) 
oracle

>  <origin>  (87) 
autodockgpu

>  <m_score__min__energy>  (87) 
-7.5199999999999996

>  <m_primary>  (87) 
energy

>  <rmsd>  (87) 
9.881206504988448

>  <m_score__min__rmsd>  (87) 
9.881206504988448

>  <meeko>  (87) 
{"free_energy": -6.1, "intermolecular_energy": -8.78, "internal_energy": -2.06, "cluster_size": 4, "cluster_id": 6, "rank_in_cluster": 3}

>  <energy>  (87) 
-5.66

>  <cluster_rmsd>  (87) 
0.12

>  <cluster>  (87) 
9

$$$$

     RDKit          3D

 42 43  0  0  0  0  0  0  0  0999 V2000
  138.5210   71.4030  221.1270 O   0  0  0  0  0  0  0  0  0  0  0  0
  138.0260   72.4140  221.7000 C   0  0  0  0  0  0  0  0  0  0  0  0
  136.5480   72.6770  221.6940 C   0  0  0  0  0  0  0  0  0  0  0  0
  136.3570   74.0210  222.3500 C   0  0  0  0  0  0  0  0  0  0  0  0
  136.7370   75.1760  221.4180 C   0  0  0  0  0  0  0  0  0  0  0  0
  137.7180   75.9330  221.7940 O   0  0  0  0  0  0  0  0  0  0  0  0
  138.6680   76.6840  222.1890 C   0  0  0  0  0  0  0  0  0  0  0  0
  140.0070   76.2660  222.1670 C   0  0  0  0  0  0  0  0  0  0  0  0
  141.0400   77.0610  222.5880 C   0  0  0  0  0  0  0  0  0  0  0  0
  140.7350   78.3150  223.0500 C   0  0  0  0  0  0  0  0  0  0  0  0
  142.0400   79.3340  223.5880 Cl  0  0  0  0  0  0  0  0  0  0  0  0
  139.4470   78.7990  223.1040 C   0  0  0  0  0  0  0  0  0  0  0  0
  138.4440   77.9790  222.6760 C   0  0  0  0  0  0  0  0  0  0  0  0
  136.7870   78.5440  222.7240 Cl  0  0  0  0  0  0  0  0  0  0  0  0
  138.9180   73.3320  222.3780 N   0  0  0  0  0  0  0  0  0  0  0  0
  140.2510   73.0360  222.3480 N   0  0  0  0  0  0  0  0  0  0  0  0
  140.7290   71.9990  222.8900 C   0  0  0  0  0  0  0  0  0  0  0  0
  140.4100   71.3910  224.1550 C   0  0  0  0  0  0  0  0  0  0  0  0
  139.5860   70.2560  224.1060 C   0  0  0  0  0  0  0  0  0  0  0  0
  139.2200   69.5990  225.2570 C   0  0  0  0  0  0  0  0  0  0  0  0
  139.6250   69.9980  226.5120 C   0  0  0  0  0  0  0  0  0  0  0  0
  140.4340   71.1110  226.5710 C   0  0  0  0  0  0  0  0  0  0  0  0
  140.9080   71.5950  227.8910 C   0  0  0  0  0  0  0  0  0  0  0  0
  141.8430   72.6000  227.6590 F   0  0  0  0  0  0  0  0  0  0  0  0
  141.5280   70.6180  228.6200 F   0  0  0  0  0  0  0  0  0  0  0  0
  139.8700   72.1340  228.6290 F   0  0  0  0  0  0  0  0  0  0  0  0
  140.8050   71.7790  225.3900 C   0  0  0  0  0  0  0  0  0  0  0  0
  136.1689   72.6993  220.6616 H   0  0  0  0  0  0  0  0  0  0  0  0
  135.9985   71.8883  222.2288 H   0  0  0  0  0  0  0  0  0  0  0  0
  135.3004   74.1291  222.6363 H   0  0  0  0  0  0  0  0  0  0  0  0
  137.0153   74.0651  223.2302 H   0  0  0  0  0  0  0  0  0  0  0  0
  137.0064   74.7422  220.4437 H   0  0  0  0  0  0  0  0  0  0  0  0
  135.8559   75.8344  221.4028 H   0  0  0  0  0  0  0  0  0  0  0  0
  140.2373   75.2565  221.7957 H   0  0  0  0  0  0  0  0  0  0  0  0
  142.0802   76.7048  222.5564 H   0  0  0  0  0  0  0  0  0  0  0  0
  139.2342   79.8110  223.4790 H   0  0  0  0  0  0  0  0  0  0  0  0
  138.5610   74.1930  222.8500 H   0  0  0  0  0  0  0  0  0  0  0  0
  141.5062   71.4833  222.3068 H   0  0  0  0  0  0  0  0  0  0  0  0
  139.2281   69.8870  223.1335 H   0  0  0  0  0  0  0  0  0  0  0  0
  138.5734   68.7132  225.1719 H   0  0  0  0  0  0  0  0  0  0  0  0
  139.3184   69.4562  227.4189 H   0  0  0  0  0  0  0  0  0  0  0  0
  141.4514   72.6650  225.4748 H   0  0  0  0  0  0  0  0  0  0  0  0
  1  2  2  0
  2  3  1  0
  3  4  1  0
  4  5  1  0
  5  6  1  0
  6  7  1  0
  7  8  2  0
  8  9  1  0
  9 10  2  0
 10 11  1  0
 10 12  1  0
 12 13  2  0
 13 14  1  0
  2 15  1  0
 15 16  1  0
 16 17  2  0
 17 18  1  0
 18 19  2  0
 19 20  1  0
 20 21  2  0
 21 22  1  0
 22 23  1  0
 23 24  1  0
 23 25  1  0
 23 26  1  0
 22 27  2  0
 13  7  1  0
 27 18  1  0
  3 28  1  0
  3 29  1  0
  4 30  1  0
  4 31  1  0
  5 32  1  0
  5 33  1  0
  8 34  1  0
  9 35  1  0
 12 36  1  0
 15 37  1  0
 17 38  1  0
 19 39  1  0
 20 40  1  0
 21 41  1  0
 27 42  1  0
M  END
>  <smiles>  (88) 
O=C(CCCOc1ccc(Cl)cc1Cl)NN=Cc1cccc(C(F)(F)F)c1

>  <score_type>  (88) 
oracle

>  <origin>  (88) 
autodockgpu

>  <m_score__min__energy>  (88) 
-7.5199999999999996

>  <m_primary>  (88) 
energy

>  <rmsd>  (88) 
6.876259949876076

>  <m_score__min__rmsd>  (88) 
6.876259949876076

>  <meeko>  (88) 
{"free_energy": -6.13, "intermolecular_energy": -8.81, "internal_energy": -1.69, "cluster_size": 11, "cluster_id": 1, "rank_in_cluster": 10}

>  <energy>  (88) 
-5.61

>  <cluster_rmsd>  (88) 
0.3

>  <cluster>  (88) 
9

$$$$

     RDKit          3D

 42 43  0  0  0  0  0  0  0  0999 V2000
  139.4110   74.3180  220.4740 O   0  0  0  0  0  0  0  0  0  0  0  0
  140.5400   74.5410  220.9930 C   0  0  0  0  0  0  0  0  0  0  0  0
  141.7080   73.6260  220.7630 C   0  0  0  0  0  0  0  0  0  0  0  0
  141.4610   72.4060  221.6150 C   0  0  0  0  0  0  0  0  0  0  0  0
  140.3240   72.6250  222.6170 C   0  0  0  0  0  0  0  0  0  0  0  0
  140.3300   71.8850  223.6800 O   0  0  0  0  0  0  0  0  0  0  0  0
  140.3580   71.1390  224.7130 C   0  0  0  0  0  0  0  0  0  0  0  0
  140.9650   71.5480  225.9100 C   0  0  0  0  0  0  0  0  0  0  0  0
  141.0030   70.7590  227.0290 C   0  0  0  0  0  0  0  0  0  0  0  0
  140.4210   69.5200  226.9590 C   0  0  0  0  0  0  0  0  0  0  0  0
  140.4650   68.5100  228.3760 Cl  0  0  0  0  0  0  0  0  0  0  0  0
  139.8070   69.0460  225.8220 C   0  0  0  0  0  0  0  0  0  0  0  0
  139.7880   69.8590  224.7260 C   0  0  0  0  0  0  0  0  0  0  0  0
  139.0200   69.3050  223.2540 Cl  0  0  0  0  0  0  0  0  0  0  0  0
  140.6980   75.7130  221.8290 N   0  0  0  0  0  0  0  0  0  0  0  0
  139.5990   76.5060  221.9990 N   0  0  0  0  0  0  0  0  0  0  0  0
  139.6210   77.5570  222.7020 C   0  0  0  0  0  0  0  0  0  0  0  0
  140.5200   78.6790  222.6520 C   0  0  0  0  0  0  0  0  0  0  0  0
  141.6880   78.5730  223.4240 C   0  0  0  0  0  0  0  0  0  0  0  0
  142.6130   79.5880  223.4480 C   0  0  0  0  0  0  0  0  0  0  0  0
  142.4670   80.7570  222.7330 C   0  0  0  0  0  0  0  0  0  0  0  0
  141.3250   80.8710  221.9720 C   0  0  0  0  0  0  0  0  0  0  0  0
  141.1030   82.1040  221.1750 C   0  0  0  0  0  0  0  0  0  0  0  0
  141.6750   83.1630  221.8750 F   0  0  0  0  0  0  0  0  0  0  0  0
  139.7770   82.3910  221.0050 F   0  0  0  0  0  0  0  0  0  0  0  0
  141.7190   82.0210  219.9400 F   0  0  0  0  0  0  0  0  0  0  0  0
  140.3810   79.8280  221.9510 C   0  0  0  0  0  0  0  0  0  0  0  0
  141.7682   73.3440  219.7015 H   0  0  0  0  0  0  0  0  0  0  0  0
  142.6577   74.1140  221.0275 H   0  0  0  0  0  0  0  0  0  0  0  0
  141.1987   71.5625  220.9595 H   0  0  0  0  0  0  0  0  0  0  0  0
  142.3792   72.1981  222.1840 H   0  0  0  0  0  0  0  0  0  0  0  0
  140.3654   73.6749  222.9426 H   0  0  0  0  0  0  0  0  0  0  0  0
  139.4075   72.3446  222.0771 H   0  0  0  0  0  0  0  0  0  0  0  0
  141.4299   72.5441  225.9516 H   0  0  0  0  0  0  0  0  0  0  0  0
  141.4850   71.1084  227.9540 H   0  0  0  0  0  0  0  0  0  0  0  0
  139.3477   68.0468  225.7976 H   0  0  0  0  0  0  0  0  0  0  0  0
  141.6060   75.9330  222.2990 H   0  0  0  0  0  0  0  0  0  0  0  0
  138.8338   77.6233  223.4674 H   0  0  0  0  0  0  0  0  0  0  0  0
  141.8647   77.6642  224.0180 H   0  0  0  0  0  0  0  0  0  0  0  0
  143.5132   79.4618  224.0674 H   0  0  0  0  0  0  0  0  0  0  0  0
  143.2221   81.5561  222.7683 H   0  0  0  0  0  0  0  0  0  0  0  0
  139.4810   79.9534  221.3310 H   0  0  0  0  0  0  0  0  0  0  0  0
  1  2  2  0
  2  3  1  0
  3  4  1  0
  4  5  1  0
  5  6  1  0
  6  7  1  0
  7  8  2  0
  8  9  1  0
  9 10  2  0
 10 11  1  0
 10 12  1  0
 12 13  2  0
 13 14  1  0
  2 15  1  0
 15 16  1  0
 16 17  2  0
 17 18  1  0
 18 19  2  0
 19 20  1  0
 20 21  2  0
 21 22  1  0
 22 23  1  0
 23 24  1  0
 23 25  1  0
 23 26  1  0
 22 27  2  0
 13  7  1  0
 27 18  1  0
  3 28  1  0
  3 29  1  0
  4 30  1  0
  4 31  1  0
  5 32  1  0
  5 33  1  0
  8 34  1  0
  9 35  1  0
 12 36  1  0
 15 37  1  0
 17 38  1  0
 19 39  1  0
 20 40  1  0
 21 41  1  0
 27 42  1  0
M  END
>  <smiles>  (89) 
O=C(CCCOc1ccc(Cl)cc1Cl)NN=Cc1cccc(C(F)(F)F)c1

>  <score_type>  (89) 
oracle

>  <origin>  (89) 
autodockgpu

>  <m_score__min__energy>  (89) 
-7.5199999999999996

>  <m_primary>  (89) 
energy

>  <rmsd>  (89) 
12.307074998444955

>  <m_score__min__rmsd>  (89) 
12.307074998444955

>  <meeko>  (89) 
{"free_energy": -6.72, "intermolecular_energy": -9.41, "internal_energy": -0.82, "cluster_size": 5, "cluster_id": 2, "rank_in_cluster": 4}

>  <energy>  (89) 
-5.58

>  <cluster_rmsd>  (89) 
0.52

>  <cluster>  (89) 
9

$$$$

     RDKit          3D

 42 43  0  0  0  0  0  0  0  0999 V2000
  139.9600   74.0960  222.1240 O   0  0  0  0  0  0  0  0  0  0  0  0
  141.0550   74.4270  221.5890 C   0  0  0  0  0  0  0  0  0  0  0  0
  141.9790   73.4050  220.9910 C   0  0  0  0  0  0  0  0  0  0  0  0
  142.1810   73.8120  219.5530 C   0  0  0  0  0  0  0  0  0  0  0  0
  143.3290   74.8140  219.3940 C   0  0  0  0  0  0  0  0  0  0  0  0
  143.0050   76.0320  219.1000 O   0  0  0  0  0  0  0  0  0  0  0  0
  142.7110   77.2410  218.8230 C   0  0  0  0  0  0  0  0  0  0  0  0
  142.1930   78.1210  219.7850 C   0  0  0  0  0  0  0  0  0  0  0  0
  141.8730   79.4230  219.5030 C   0  0  0  0  0  0  0  0  0  0  0  0
  142.0710   79.8680  218.2220 C   0  0  0  0  0  0  0  0  0  0  0  0
  141.6660   81.5210  217.8540 Cl  0  0  0  0  0  0  0  0  0  0  0  0
  142.5740   79.0670  217.2220 C   0  0  0  0  0  0  0  0  0  0  0  0
  142.8820   77.7760  217.5390 C   0  0  0  0  0  0  0  0  0  0  0  0
  143.5250   76.7140  216.3040 Cl  0  0  0  0  0  0  0  0  0  0  0  0
  141.4170   75.8290  221.5590 N   0  0  0  0  0  0  0  0  0  0  0  0
  140.5340   76.7080  222.1190 N   0  0  0  0  0  0  0  0  0  0  0  0
  140.8580   77.4880  223.0600 C   0  0  0  0  0  0  0  0  0  0  0  0
  141.1540   78.8960  223.0280 C   0  0  0  0  0  0  0  0  0  0  0  0
  142.2470   79.3170  223.8020 C   0  0  0  0  0  0  0  0  0  0  0  0
  142.6150   80.6400  223.8420 C   0  0  0  0  0  0  0  0  0  0  0  0
  141.9540   81.6270  223.1440 C   0  0  0  0  0  0  0  0  0  0  0  0
  140.8790   81.2240  222.3830 C   0  0  0  0  0  0  0  0  0  0  0  0
  140.1210   82.2360  221.6040 C   0  0  0  0  0  0  0  0  0  0  0  0
  138.9600   82.5270  222.3140 F   0  0  0  0  0  0  0  0  0  0  0  0
  139.7460   81.7800  220.3710 F   0  0  0  0  0  0  0  0  0  0  0  0
  140.8450   83.4060  221.4640 F   0  0  0  0  0  0  0  0  0  0  0  0
  140.5070   79.8680  222.3450 C   0  0  0  0  0  0  0  0  0  0  0  0
  142.9406   73.4013  221.5251 H   0  0  0  0  0  0  0  0  0  0  0  0
  141.5584   72.3914  221.0658 H   0  0  0  0  0  0  0  0  0  0  0  0
  142.4085   72.9146  218.9589 H   0  0  0  0  0  0  0  0  0  0  0  0
  141.2571   74.2971  219.2050 H   0  0  0  0  0  0  0  0  0  0  0  0
  143.8839   74.8374  220.3435 H   0  0  0  0  0  0  0  0  0  0  0  0
  143.9072   74.4539  218.5302 H   0  0  0  0  0  0  0  0  0  0  0  0
  142.0372   77.7500  220.8088 H   0  0  0  0  0  0  0  0  0  0  0  0
  141.4702   80.0897  220.2797 H   0  0  0  0  0  0  0  0  0  0  0  0
  142.7225   79.4540  216.2031 H   0  0  0  0  0  0  0  0  0  0  0  0
  142.3210   76.1530  221.1460 H   0  0  0  0  0  0  0  0  0  0  0  0
  140.9235   77.0196  224.0531 H   0  0  0  0  0  0  0  0  0  0  0  0
  142.8164   78.5776  224.3843 H   0  0  0  0  0  0  0  0  0  0  0  0
  143.4786   80.9249  224.4608 H   0  0  0  0  0  0  0  0  0  0  0  0
  142.2679   82.6802  223.1919 H   0  0  0  0  0  0  0  0  0  0  0  0
  139.6433   79.5826  221.7265 H   0  0  0  0  0  0  0  0  0  0  0  0
  1  2  2  0
  2  3  1  0
  3  4  1  0
  4  5  1  0
  5  6  1  0
  6  7  1  0
  7  8  2  0
  8  9  1  0
  9 10  2  0
 10 11  1  0
 10 12  1  0
 12 13  2  0
 13 14  1  0
  2 15  1  0
 15 16  1  0
 16 17  2  0
 17 18  1  0
 18 19  2  0
 19 20  1  0
 20 21  2  0
 21 22  1  0
 22 23  1  0
 23 24  1  0
 23 25  1  0
 23 26  1  0
 22 27  2  0
 13  7  1  0
 27 18  1  0
  3 28  1  0
  3 29  1  0
  4 30  1  0
  4 31  1  0
  5 32  1  0
  5 33  1  0
  8 34  1  0
  9 35  1  0
 12 36  1  0
 15 37  1  0
 17 38  1  0
 19 39  1  0
 20 40  1  0
 21 41  1  0
 27 42  1  0
M  END
>  <smiles>  (90) 
O=C(CCCOc1ccc(Cl)cc1Cl)NN=Cc1cccc(C(F)(F)F)c1

>  <score_type>  (90) 
oracle

>  <origin>  (90) 
autodockgpu

>  <m_score__min__energy>  (90) 
-7.5199999999999996

>  <m_primary>  (90) 
energy

>  <rmsd>  (90) 
7.389862937254658

>  <m_score__min__rmsd>  (90) 
7.389862937254658

>  <meeko>  (90) 
{"free_energy": -5.5, "intermolecular_energy": -8.18, "internal_energy": -2.36, "cluster_size": 5, "cluster_id": 8, "rank_in_cluster": 4}

>  <energy>  (90) 
-5.54

>  <cluster_rmsd>  (90) 
1.19

>  <cluster>  (90) 
9

$$$$

     RDKit          3D

 42 43  0  0  0  0  0  0  0  0999 V2000
  140.0000   73.9000  221.9670 O   0  0  0  0  0  0  0  0  0  0  0  0
  141.0100   74.3790  221.3800 C   0  0  0  0  0  0  0  0  0  0  0  0
  141.7440   73.6060  220.3220 C   0  0  0  0  0  0  0  0  0  0  0  0
  143.1460   73.4090  220.8410 C   0  0  0  0  0  0  0  0  0  0  0  0
  144.1220   74.4410  220.2690 C   0  0  0  0  0  0  0  0  0  0  0  0
  143.6050   75.4570  219.6550 O   0  0  0  0  0  0  0  0  0  0  0  0
  143.1220   76.4730  219.0560 C   0  0  0  0  0  0  0  0  0  0  0  0
  142.5400   77.5420  219.7530 C   0  0  0  0  0  0  0  0  0  0  0  0
  142.0170   78.6400  219.1240 C   0  0  0  0  0  0  0  0  0  0  0  0
  142.0700   78.6800  217.7540 C   0  0  0  0  0  0  0  0  0  0  0  0
  141.4070   80.0710  216.9450 Cl  0  0  0  0  0  0  0  0  0  0  0  0
  142.6240   77.6710  216.9990 C   0  0  0  0  0  0  0  0  0  0  0  0
  143.1350   76.5920  217.6590 C   0  0  0  0  0  0  0  0  0  0  0  0
  143.8510   75.2810  216.7470 Cl  0  0  0  0  0  0  0  0  0  0  0  0
  141.4600   75.7060  221.7450 N   0  0  0  0  0  0  0  0  0  0  0  0
  140.7500   76.3560  222.7130 N   0  0  0  0  0  0  0  0  0  0  0  0
  140.2510   77.5040  222.5350 C   0  0  0  0  0  0  0  0  0  0  0  0
  140.8750   78.7990  222.6040 C   0  0  0  0  0  0  0  0  0  0  0  0
  141.8050   78.9850  223.6390 C   0  0  0  0  0  0  0  0  0  0  0  0
  142.4570   80.1840  223.7960 C   0  0  0  0  0  0  0  0  0  0  0  0
  142.2520   81.2670  222.9690 C   0  0  0  0  0  0  0  0  0  0  0  0
  141.3410   81.0950  221.9500 C   0  0  0  0  0  0  0  0  0  0  0  0
  141.0710   82.2210  221.0200 C   0  0  0  0  0  0  0  0  0  0  0  0
  139.7080   82.2100  220.7340 F   0  0  0  0  0  0  0  0  0  0  0  0
  141.7410   82.0990  219.8350 F   0  0  0  0  0  0  0  0  0  0  0  0
  141.3790   83.4360  221.6030 F   0  0  0  0  0  0  0  0  0  0  0  0
  140.6760   79.8650  221.7940 C   0  0  0  0  0  0  0  0  0  0  0  0
  141.2589   72.6329  220.1552 H   0  0  0  0  0  0  0  0  0  0  0  0
  141.7439   74.1421  219.3615 H   0  0  0  0  0  0  0  0  0  0  0  0
  143.1347   73.5009  221.9371 H   0  0  0  0  0  0  0  0  0  0  0  0
  143.4861   72.4109  220.5278 H   0  0  0  0  0  0  0  0  0  0  0  0
  144.7239   74.8282  221.1043 H   0  0  0  0  0  0  0  0  0  0  0  0
  144.6935   73.9007  219.4999 H   0  0  0  0  0  0  0  0  0  0  0  0
  142.5021   77.4963  220.8514 H   0  0  0  0  0  0  0  0  0  0  0  0
  141.5687   79.4637  219.6990 H   0  0  0  0  0  0  0  0  0  0  0  0
  142.6536   77.7327  215.9011 H   0  0  0  0  0  0  0  0  0  0  0  0
  142.3020   76.1390  221.3030 H   0  0  0  0  0  0  0  0  0  0  0  0
  139.1785   77.5145  222.2906 H   0  0  0  0  0  0  0  0  0  0  0  0
  142.0147   78.1588  224.3343 H   0  0  0  0  0  0  0  0  0  0  0  0
  143.1772   80.2843  224.6214 H   0  0  0  0  0  0  0  0  0  0  0  0
  142.7867   82.2172  223.1146 H   0  0  0  0  0  0  0  0  0  0  0  0
  139.9553   79.7642  220.9691 H   0  0  0  0  0  0  0  0  0  0  0  0
  1  2  2  0
  2  3  1  0
  3  4  1  0
  4  5  1  0
  5  6  1  0
  6  7  1  0
  7  8  2  0
  8  9  1  0
  9 10  2  0
 10 11  1  0
 10 12  1  0
 12 13  2  0
 13 14  1  0
  2 15  1  0
 15 16  1  0
 16 17  2  0
 17 18  1  0
 18 19  2  0
 19 20  1  0
 20 21  2  0
 21 22  1  0
 22 23  1  0
 23 24  1  0
 23 25  1  0
 23 26  1  0
 22 27  2  0
 13  7  1  0
 27 18  1  0
  3 28  1  0
  3 29  1  0
  4 30  1  0
  4 31  1  0
  5 32  1  0
  5 33  1  0
  8 34  1  0
  9 35  1  0
 12 36  1  0
 15 37  1  0
 17 38  1  0
 19 39  1  0
 20 40  1  0
 21 41  1  0
 27 42  1  0
M  END
>  <smiles>  (91) 
O=C(CCCOc1ccc(Cl)cc1Cl)NN=Cc1cccc(C(F)(F)F)c1

>  <score_type>  (91) 
oracle

>  <origin>  (91) 
autodockgpu

>  <m_score__min__energy>  (91) 
-7.5199999999999996

>  <m_primary>  (91) 
energy

>  <rmsd>  (91) 
8.065271545504979

>  <m_score__min__rmsd>  (91) 
8.065271545504979

>  <meeko>  (91) 
{"free_energy": -5.72, "intermolecular_energy": -8.4, "internal_energy": -2.28, "cluster_size": 5, "cluster_id": 8, "rank_in_cluster": 3}

>  <energy>  (91) 
-5.5

>  <cluster_rmsd>  (91) 
0.28

>  <cluster>  (91) 
9

$$$$

     RDKit          3D

 42 43  0  0  0  0  0  0  0  0999 V2000
  141.0900   75.1330  220.8980 O   0  0  0  0  0  0  0  0  0  0  0  0
  140.0120   75.2160  221.5510 C   0  0  0  0  0  0  0  0  0  0  0  0
  139.1590   76.4510  221.5060 C   0  0  0  0  0  0  0  0  0  0  0  0
  137.9250   76.1400  222.3140 C   0  0  0  0  0  0  0  0  0  0  0  0
  137.0190   75.1230  221.6140 C   0  0  0  0  0  0  0  0  0  0  0  0
  136.6380   74.1010  222.3110 O   0  0  0  0  0  0  0  0  0  0  0  0
  136.2380   73.1090  223.0050 C   0  0  0  0  0  0  0  0  0  0  0  0
  136.5340   71.7850  222.6500 C   0  0  0  0  0  0  0  0  0  0  0  0
  136.1120   70.7080  223.3850 C   0  0  0  0  0  0  0  0  0  0  0  0
  135.3680   70.9530  224.5100 C   0  0  0  0  0  0  0  0  0  0  0  0
  134.8260   69.5910  225.4500 Cl  0  0  0  0  0  0  0  0  0  0  0  0
  135.0350   72.2220  224.9240 C   0  0  0  0  0  0  0  0  0  0  0  0
  135.4730   73.2710  224.1680 C   0  0  0  0  0  0  0  0  0  0  0  0
  135.0780   74.9070  224.6490 Cl  0  0  0  0  0  0  0  0  0  0  0  0
  139.6000   74.0860  222.3570 N   0  0  0  0  0  0  0  0  0  0  0  0
  140.4190   72.9930  222.3550 N   0  0  0  0  0  0  0  0  0  0  0  0
  140.0150   71.8410  222.6860 C   0  0  0  0  0  0  0  0  0  0  0  0
  139.9420   71.2300  223.9860 C   0  0  0  0  0  0  0  0  0  0  0  0
  139.2480   70.0120  224.0600 C   0  0  0  0  0  0  0  0  0  0  0  0
  139.1180   69.3450  225.2550 C   0  0  0  0  0  0  0  0  0  0  0  0
  139.6460   69.8120  226.4390 C   0  0  0  0  0  0  0  0  0  0  0  0
  140.3290   71.0070  226.3770 C   0  0  0  0  0  0  0  0  0  0  0  0
  140.9240   71.5680  227.6160 C   0  0  0  0  0  0  0  0  0  0  0  0
  141.8250   72.5580  227.2370 F   0  0  0  0  0  0  0  0  0  0  0  0
  141.6170   70.6350  228.3370 F   0  0  0  0  0  0  0  0  0  0  0  0
  139.9580   72.1470  228.4180 F   0  0  0  0  0  0  0  0  0  0  0  0
  140.4580   71.6850  225.1520 C   0  0  0  0  0  0  0  0  0  0  0  0
  139.6981   77.3029  221.9460 H   0  0  0  0  0  0  0  0  0  0  0  0
  138.9025   76.7233  220.4716 H   0  0  0  0  0  0  0  0  0  0  0  0
  138.2324   75.7302  223.2874 H   0  0  0  0  0  0  0  0  0  0  0  0
  137.3557   77.0733  222.4356 H   0  0  0  0  0  0  0  0  0  0  0  0
  136.1150   75.6555  221.2834 H   0  0  0  0  0  0  0  0  0  0  0  0
  137.6317   74.7041  220.8021 H   0  0  0  0  0  0  0  0  0  0  0  0
  137.1299   71.6033  221.7435 H   0  0  0  0  0  0  0  0  0  0  0  0
  136.3621   69.6805  223.0821 H   0  0  0  0  0  0  0  0  0  0  0  0
  134.4367   72.3857  225.8324 H   0  0  0  0  0  0  0  0  0  0  0  0
  138.7270   74.1120  222.9310 H   0  0  0  0  0  0  0  0  0  0  0  0
  139.6669   71.2113  221.8539 H   0  0  0  0  0  0  0  0  0  0  0  0
  138.8021   69.5855  223.1494 H   0  0  0  0  0  0  0  0  0  0  0  0
  138.5663   68.3934  225.2666 H   0  0  0  0  0  0  0  0  0  0  0  0
  139.5285   69.2602  227.3833 H   0  0  0  0  0  0  0  0  0  0  0  0
  141.0084   72.6373  225.1404 H   0  0  0  0  0  0  0  0  0  0  0  0
  1  2  2  0
  2  3  1  0
  3  4  1  0
  4  5  1  0
  5  6  1  0
  6  7  1  0
  7  8  2  0
  8  9  1  0
  9 10  2  0
 10 11  1  0
 10 12  1  0
 12 13  2  0
 13 14  1  0
  2 15  1  0
 15 16  1  0
 16 17  2  0
 17 18  1  0
 18 19  2  0
 19 20  1  0
 20 21  2  0
 21 22  1  0
 22 23  1  0
 23 24  1  0
 23 25  1  0
 23 26  1  0
 22 27  2  0
 13  7  1  0
 27 18  1  0
  3 28  1  0
  3 29  1  0
  4 30  1  0
  4 31  1  0
  5 32  1  0
  5 33  1  0
  8 34  1  0
  9 35  1  0
 12 36  1  0
 15 37  1  0
 17 38  1  0
 19 39  1  0
 20 40  1  0
 21 41  1  0
 27 42  1  0
M  END
>  <smiles>  (92) 
O=C(CCCOc1ccc(Cl)cc1Cl)NN=Cc1cccc(C(F)(F)F)c1

>  <score_type>  (92) 
oracle

>  <origin>  (92) 
autodockgpu

>  <m_score__min__energy>  (92) 
-7.5199999999999996

>  <m_primary>  (92) 
energy

>  <rmsd>  (92) 
10.806527333454728

>  <m_score__min__rmsd>  (92) 
10.806527333454728

>  <meeko>  (92) 
{"free_energy": -5.5, "intermolecular_energy": -8.18, "internal_energy": -2.39, "cluster_size": 12, "cluster_id": 9, "rank_in_cluster": 9}

>  <energy>  (92) 
-5.21

>  <cluster_rmsd>  (92) 
1.06

>  <cluster>  (92) 
9

$$$$

     RDKit          3D

 42 43  0  0  0  0  0  0  0  0999 V2000
  141.1580   75.2400  221.1540 O   0  0  0  0  0  0  0  0  0  0  0  0
  139.9720   75.1930  221.5840 C   0  0  0  0  0  0  0  0  0  0  0  0
  139.0070   76.3200  221.3530 C   0  0  0  0  0  0  0  0  0  0  0  0
  138.1290   76.3800  222.5780 C   0  0  0  0  0  0  0  0  0  0  0  0
  136.7230   75.8380  222.3060 C   0  0  0  0  0  0  0  0  0  0  0  0
  136.5020   74.6020  222.6220 O   0  0  0  0  0  0  0  0  0  0  0  0
  136.2730   73.3940  222.9590 C   0  0  0  0  0  0  0  0  0  0  0  0
  135.6840   73.0630  224.1880 C   0  0  0  0  0  0  0  0  0  0  0  0
  135.4300   71.7710  224.5650 C   0  0  0  0  0  0  0  0  0  0  0  0
  135.7750   70.7700  223.6930 C   0  0  0  0  0  0  0  0  0  0  0  0
  135.4580   69.1240  224.1630 Cl  0  0  0  0  0  0  0  0  0  0  0  0
  136.3570   71.0130  222.4700 C   0  0  0  0  0  0  0  0  0  0  0  0
  136.5940   72.3130  222.1280 C   0  0  0  0  0  0  0  0  0  0  0  0
  137.3330   72.6780  220.5830 Cl  0  0  0  0  0  0  0  0  0  0  0  0
  139.5450   74.0180  222.3150 N   0  0  0  0  0  0  0  0  0  0  0  0
  140.4700   73.0290  222.4910 N   0  0  0  0  0  0  0  0  0  0  0  0
  140.1490   71.8480  222.8090 C   0  0  0  0  0  0  0  0  0  0  0  0
  140.0070   71.2520  224.1110 C   0  0  0  0  0  0  0  0  0  0  0  0
  139.2480   70.0720  224.1730 C   0  0  0  0  0  0  0  0  0  0  0  0
  139.0490   69.4230  225.3680 C   0  0  0  0  0  0  0  0  0  0  0  0
  139.5670   69.8700  226.5630 C   0  0  0  0  0  0  0  0  0  0  0  0
  140.3140   71.0270  226.5130 C   0  0  0  0  0  0  0  0  0  0  0  0
  140.9030   71.5660  227.7650 C   0  0  0  0  0  0  0  0  0  0  0  0
  141.8060   72.5630  227.4080 F   0  0  0  0  0  0  0  0  0  0  0  0
  141.5930   70.6200  228.4730 F   0  0  0  0  0  0  0  0  0  0  0  0
  139.9330   72.1300  228.5730 F   0  0  0  0  0  0  0  0  0  0  0  0
  140.5140   71.6880  225.2880 C   0  0  0  0  0  0  0  0  0  0  0  0
  139.5508   77.2678  221.2268 H   0  0  0  0  0  0  0  0  0  0  0  0
  138.4128   76.1584  220.4415 H   0  0  0  0  0  0  0  0  0  0  0  0
  138.5919   75.7808  223.3759 H   0  0  0  0  0  0  0  0  0  0  0  0
  138.0338   77.4348  222.8752 H   0  0  0  0  0  0  0  0  0  0  0  0
  136.0122   76.4582  222.8718 H   0  0  0  0  0  0  0  0  0  0  0  0
  136.6047   75.8810  221.2132 H   0  0  0  0  0  0  0  0  0  0  0  0
  135.4146   73.8757  224.8786 H   0  0  0  0  0  0  0  0  0  0  0  0
  134.9645   71.5436  225.5354 H   0  0  0  0  0  0  0  0  0  0  0  0
  136.6220   70.1885  221.7917 H   0  0  0  0  0  0  0  0  0  0  0  0
  138.5800   73.9390  222.7090 H   0  0  0  0  0  0  0  0  0  0  0  0
  139.9480   71.1747  221.9627 H   0  0  0  0  0  0  0  0  0  0  0  0
  138.8068   69.6617  223.2527 H   0  0  0  0  0  0  0  0  0  0  0  0
  138.4471   68.5023  225.3699 H   0  0  0  0  0  0  0  0  0  0  0  0
  139.3938   69.3324  227.5069 H   0  0  0  0  0  0  0  0  0  0  0  0
  141.1150   72.6093  225.2861 H   0  0  0  0  0  0  0  0  0  0  0  0
  1  2  2  0
  2  3  1  0
  3  4  1  0
  4  5  1  0
  5  6  1  0
  6  7  1  0
  7  8  2  0
  8  9  1  0
  9 10  2  0
 10 11  1  0
 10 12  1  0
 12 13  2  0
 13 14  1  0
  2 15  1  0
 15 16  1  0
 16 17  2  0
 17 18  1  0
 18 19  2  0
 19 20  1  0
 20 21  2  0
 21 22  1  0
 22 23  1  0
 23 24  1  0
 23 25  1  0
 23 26  1  0
 22 27  2  0
 13  7  1  0
 27 18  1  0
  3 28  1  0
  3 29  1  0
  4 30  1  0
  4 31  1  0
  5 32  1  0
  5 33  1  0
  8 34  1  0
  9 35  1  0
 12 36  1  0
 15 37  1  0
 17 38  1  0
 19 39  1  0
 20 40  1  0
 21 41  1  0
 27 42  1  0
M  END
>  <smiles>  (93) 
O=C(CCCOc1ccc(Cl)cc1Cl)NN=Cc1cccc(C(F)(F)F)c1

>  <score_type>  (93) 
oracle

>  <origin>  (93) 
autodockgpu

>  <m_score__min__energy>  (93) 
-7.5199999999999996

>  <m_primary>  (93) 
energy

>  <rmsd>  (93) 
10.306945757610627

>  <m_score__min__rmsd>  (93) 
10.306945757610627

>  <meeko>  (93) 
{"free_energy": -5.04, "intermolecular_energy": -7.72, "internal_energy": -2.74, "cluster_size": 12, "cluster_id": 9, "rank_in_cluster": 11}

>  <energy>  (93) 
-5.04

>  <cluster_rmsd>  (93) 
1.12

>  <cluster>  (93) 
9

$$$$

     RDKit          3D

 42 43  0  0  0  0  0  0  0  0999 V2000
  141.6930   73.3420  220.9730 O   0  0  0  0  0  0  0  0  0  0  0  0
  140.8440   73.9990  221.6380 C   0  0  0  0  0  0  0  0  0  0  0  0
  140.8910   75.4970  221.7130 C   0  0  0  0  0  0  0  0  0  0  0  0
  141.7280   75.9510  220.5430 C   0  0  0  0  0  0  0  0  0  0  0  0
  141.8190   77.4780  220.4580 C   0  0  0  0  0  0  0  0  0  0  0  0
  141.0520   78.1540  221.2520 O   0  0  0  0  0  0  0  0  0  0  0  0
  140.3160   78.8160  222.0550 C   0  0  0  0  0  0  0  0  0  0  0  0
  138.9330   78.6010  222.1460 C   0  0  0  0  0  0  0  0  0  0  0  0
  138.1280   79.3040  223.0040 C   0  0  0  0  0  0  0  0  0  0  0  0
  138.7150   80.2550  223.7980 C   0  0  0  0  0  0  0  0  0  0  0  0
  137.7010   81.1530  224.8910 Cl  0  0  0  0  0  0  0  0  0  0  0  0
  140.0640   80.5250  223.7670 C   0  0  0  0  0  0  0  0  0  0  0  0
  140.8350   79.8060  222.9000 C   0  0  0  0  0  0  0  0  0  0  0  0
  142.5570   80.1100  222.8200 Cl  0  0  0  0  0  0  0  0  0  0  0  0
  139.8030   73.2760  222.3390 N   0  0  0  0  0  0  0  0  0  0  0  0
  139.8140   71.9140  222.2310 N   0  0  0  0  0  0  0  0  0  0  0  0
  139.3700   71.1570  223.1410 C   0  0  0  0  0  0  0  0  0  0  0  0
  139.9200   70.8520  224.4350 C   0  0  0  0  0  0  0  0  0  0  0  0
  140.6410   71.8820  225.0600 C   0  0  0  0  0  0  0  0  0  0  0  0
  141.2090   71.6950  226.2980 C   0  0  0  0  0  0  0  0  0  0  0  0
  141.1160   70.5120  226.9980 C   0  0  0  0  0  0  0  0  0  0  0  0
  140.4100   69.4950  226.3930 C   0  0  0  0  0  0  0  0  0  0  0  0
  140.2700   68.1930  227.0920 C   0  0  0  0  0  0  0  0  0  0  0  0
  139.1740   67.5360  226.5390 F   0  0  0  0  0  0  0  0  0  0  0  0
  140.0300   68.3360  228.4310 F   0  0  0  0  0  0  0  0  0  0  0  0
  141.3870   67.4000  226.9050 F   0  0  0  0  0  0  0  0  0  0  0  0
  139.8310   69.6920  225.1260 C   0  0  0  0  0  0  0  0  0  0  0  0
  139.8759   75.9145  221.6404 H   0  0  0  0  0  0  0  0  0  0  0  0
  141.3186   75.8373  222.6677 H   0  0  0  0  0  0  0  0  0  0  0  0
  142.7427   75.5407  220.6523 H   0  0  0  0  0  0  0  0  0  0  0  0
  141.2481   75.5883  219.6220 H   0  0  0  0  0  0  0  0  0  0  0  0
  142.8586   77.7621  220.6781 H   0  0  0  0  0  0  0  0  0  0  0  0
  141.4767   77.7304  219.4436 H   0  0  0  0  0  0  0  0  0  0  0  0
  138.4752   77.8360  221.5017 H   0  0  0  0  0  0  0  0  0  0  0  0
  137.0461   79.1114  223.0539 H   0  0  0  0  0  0  0  0  0  0  0  0
  140.5057   81.2936  224.4183 H   0  0  0  0  0  0  0  0  0  0  0  0
  139.0880   73.7710  222.9190 H   0  0  0  0  0  0  0  0  0  0  0  0
  138.4190   70.6555  222.9082 H   0  0  0  0  0  0  0  0  0  0  0  0
  140.7529   72.8514  224.5524 H   0  0  0  0  0  0  0  0  0  0  0  0
  141.7641   72.5296  226.7512 H   0  0  0  0  0  0  0  0  0  0  0  0
  141.5806   70.3861  227.9871 H   0  0  0  0  0  0  0  0  0  0  0  0
  139.2758   68.8577  224.6725 H   0  0  0  0  0  0  0  0  0  0  0  0
  1  2  2  0
  2  3  1  0
  3  4  1  0
  4  5  1  0
  5  6  1  0
  6  7  1  0
  7  8  2  0
  8  9  1  0
  9 10  2  0
 10 11  1  0
 10 12  1  0
 12 13  2  0
 13 14  1  0
  2 15  1  0
 15 16  1  0
 16 17  2  0
 17 18  1  0
 18 19  2  0
 19 20  1  0
 20 21  2  0
 21 22  1  0
 22 23  1  0
 23 24  1  0
 23 25  1  0
 23 26  1  0
 22 27  2  0
 13  7  1  0
 27 18  1  0
  3 28  1  0
  3 29  1  0
  4 30  1  0
  4 31  1  0
  5 32  1  0
  5 33  1  0
  8 34  1  0
  9 35  1  0
 12 36  1  0
 15 37  1  0
 17 38  1  0
 19 39  1  0
 20 40  1  0
 21 41  1  0
 27 42  1  0
M  END
>  <smiles>  (94) 
O=C(CCCOc1ccc(Cl)cc1Cl)NN=Cc1cccc(C(F)(F)F)c1

>  <score_type>  (94) 
oracle

>  <origin>  (94) 
autodockgpu

>  <m_score__min__energy>  (94) 
-7.5199999999999996

>  <m_primary>  (94) 
energy

>  <rmsd>  (94) 
5.398426013930794

>  <m_score__min__rmsd>  (94) 
5.398426013930794

>  <meeko>  (94) 
{"free_energy": -6.82, "intermolecular_energy": -9.5, "internal_energy": -0.81, "cluster_size": 11, "cluster_id": 1, "rank_in_cluster": 5}

>  <energy>  (94) 
-4.89

>  <cluster_rmsd>  (94) 
1.28

>  <cluster>  (94) 
9

$$$$

     RDKit          3D

 42 43  0  0  0  0  0  0  0  0999 V2000
  138.6210   72.2710  220.7100 O   0  0  0  0  0  0  0  0  0  0  0  0
  138.2050   73.2300  221.4170 C   0  0  0  0  0  0  0  0  0  0  0  0
  136.7830   73.7050  221.3400 C   0  0  0  0  0  0  0  0  0  0  0  0
  136.8470   75.2000  221.1540 C   0  0  0  0  0  0  0  0  0  0  0  0
  137.0190   75.9390  222.4840 C   0  0  0  0  0  0  0  0  0  0  0  0
  138.0390   76.7300  222.5860 O   0  0  0  0  0  0  0  0  0  0  0  0
  139.0420   77.5060  222.7160 C   0  0  0  0  0  0  0  0  0  0  0  0
  140.3610   77.0440  222.5970 C   0  0  0  0  0  0  0  0  0  0  0  0
  141.4490   77.8640  222.7340 C   0  0  0  0  0  0  0  0  0  0  0  0
  141.2220   79.1890  223.0010 C   0  0  0  0  0  0  0  0  0  0  0  0
  142.5990   80.2400  223.1770 Cl  0  0  0  0  0  0  0  0  0  0  0  0
  139.9590   79.7200  223.1330 C   0  0  0  0  0  0  0  0  0  0  0  0
  138.8990   78.8730  222.9900 C   0  0  0  0  0  0  0  0  0  0  0  0
  137.2700   79.4950  223.1490 Cl  0  0  0  0  0  0  0  0  0  0  0  0
  139.1320   73.8780  222.3210 N   0  0  0  0  0  0  0  0  0  0  0  0
  140.4110   73.3990  222.3450 N   0  0  0  0  0  0  0  0  0  0  0  0
  140.6910   72.2290  222.7330 C   0  0  0  0  0  0  0  0  0  0  0  0
  140.3580   71.5640  223.9650 C   0  0  0  0  0  0  0  0  0  0  0  0
  139.5200   70.4420  223.8570 C   0  0  0  0  0  0  0  0  0  0  0  0
  139.1410   69.7340  224.9720 C   0  0  0  0  0  0  0  0  0  0  0  0
  139.5440   70.0650  226.2470 C   0  0  0  0  0  0  0  0  0  0  0  0
  140.3670   71.1640  226.3640 C   0  0  0  0  0  0  0  0  0  0  0  0
  140.8400   71.5760  227.7090 C   0  0  0  0  0  0  0  0  0  0  0  0
  141.8030   72.5660  227.5300 F   0  0  0  0  0  0  0  0  0  0  0  0
  141.4270   70.5510  228.3990 F   0  0  0  0  0  0  0  0  0  0  0  0
  139.8090   72.1090  228.4620 F   0  0  0  0  0  0  0  0  0  0  0  0
  140.7520   71.8850  225.2190 C   0  0  0  0  0  0  0  0  0  0  0  0
  136.2704   73.2364  220.4870 H   0  0  0  0  0  0  0  0  0  0  0  0
  136.2221   73.4382  222.2478 H   0  0  0  0  0  0  0  0  0  0  0  0
  137.6997   75.4401  220.5019 H   0  0  0  0  0  0  0  0  0  0  0  0
  135.8972   75.5265  220.7054 H   0  0  0  0  0  0  0  0  0  0  0  0
  136.1134   76.5412  222.6493 H   0  0  0  0  0  0  0  0  0  0  0  0
  137.1916   75.1500  223.2308 H   0  0  0  0  0  0  0  0  0  0  0  0
  140.5285   75.9778  222.3846 H   0  0  0  0  0  0  0  0  0  0  0  0
  142.4719   77.4721  222.6330 H   0  0  0  0  0  0  0  0  0  0  0  0
  139.8096   80.7888  223.3461 H   0  0  0  0  0  0  0  0  0  0  0  0
  138.8420   74.6890  222.9140 H   0  0  0  0  0  0  0  0  0  0  0  0
  141.2775   71.6288  222.0218 H   0  0  0  0  0  0  0  0  0  0  0  0
  139.1622   70.1257  222.8661 H   0  0  0  0  0  0  0  0  0  0  0  0
  138.4845   68.8613  224.8402 H   0  0  0  0  0  0  0  0  0  0  0  0
  139.2259   69.4832  227.1247 H   0  0  0  0  0  0  0  0  0  0  0  0
  141.4092   72.7573  225.3503 H   0  0  0  0  0  0  0  0  0  0  0  0
  1  2  2  0
  2  3  1  0
  3  4  1  0
  4  5  1  0
  5  6  1  0
  6  7  1  0
  7  8  2  0
  8  9  1  0
  9 10  2  0
 10 11  1  0
 10 12  1  0
 12 13  2  0
 13 14  1  0
  2 15  1  0
 15 16  1  0
 16 17  2  0
 17 18  1  0
 18 19  2  0
 19 20  1  0
 20 21  2  0
 21 22  1  0
 22 23  1  0
 23 24  1  0
 23 25  1  0
 23 26  1  0
 22 27  2  0
 13  7  1  0
 27 18  1  0
  3 28  1  0
  3 29  1  0
  4 30  1  0
  4 31  1  0
  5 32  1  0
  5 33  1  0
  8 34  1  0
  9 35  1  0
 12 36  1  0
 15 37  1  0
 17 38  1  0
 19 39  1  0
 20 40  1  0
 21 41  1  0
 27 42  1  0
M  END
>  <smiles>  (95) 
O=C(CCCOc1ccc(Cl)cc1Cl)NN=Cc1cccc(C(F)(F)F)c1

>  <score_type>  (95) 
oracle

>  <origin>  (95) 
autodockgpu

>  <m_score__min__energy>  (95) 
-7.5199999999999996

>  <m_primary>  (95) 
energy

>  <rmsd>  (95) 
6.486134044989633

>  <m_score__min__rmsd>  (95) 
6.486134044989633

>  <meeko>  (95) 
{"free_energy": -6.49, "intermolecular_energy": -9.17, "internal_energy": -1.53, "cluster_size": 11, "cluster_id": 1, "rank_in_cluster": 8}

>  <energy>  (95) 
-5.55

>  <cluster_rmsd>  (95) 
0.0

>  <cluster>  (95) 
10

$$$$

     RDKit          3D

 42 43  0  0  0  0  0  0  0  0999 V2000
  139.5840   75.3050  222.4940 O   0  0  0  0  0  0  0  0  0  0  0  0
  139.6730   74.6650  221.4100 C   0  0  0  0  0  0  0  0  0  0  0  0
  139.1820   75.2410  220.1130 C   0  0  0  0  0  0  0  0  0  0  0  0
  139.0370   74.0790  219.1640 C   0  0  0  0  0  0  0  0  0  0  0  0
  140.2960   73.8670  218.3170 C   0  0  0  0  0  0  0  0  0  0  0  0
  141.4190   73.7660  218.9530 O   0  0  0  0  0  0  0  0  0  0  0  0
  142.5380   73.6800  219.5570 C   0  0  0  0  0  0  0  0  0  0  0  0
  143.3480   74.8020  219.7860 C   0  0  0  0  0  0  0  0  0  0  0  0
  144.5540   74.7260  220.4330 C   0  0  0  0  0  0  0  0  0  0  0  0
  144.9710   73.4950  220.8660 C   0  0  0  0  0  0  0  0  0  0  0  0
  146.5020   73.3880  221.6890 Cl  0  0  0  0  0  0  0  0  0  0  0  0
  144.2350   72.3470  220.6790 C   0  0  0  0  0  0  0  0  0  0  0  0
  143.0390   72.4600  220.0310 C   0  0  0  0  0  0  0  0  0  0  0  0
  142.0620   71.0320  219.7660 Cl  0  0  0  0  0  0  0  0  0  0  0  0
  140.2650   73.3430  221.4320 N   0  0  0  0  0  0  0  0  0  0  0  0
  140.6920   72.8760  222.6420 N   0  0  0  0  0  0  0  0  0  0  0  0
  140.5460   71.6710  222.9950 C   0  0  0  0  0  0  0  0  0  0  0  0
  140.3370   71.1150  224.3050 C   0  0  0  0  0  0  0  0  0  0  0  0
  139.5760   69.9360  224.3640 C   0  0  0  0  0  0  0  0  0  0  0  0
  139.3170   69.3230  225.5660 C   0  0  0  0  0  0  0  0  0  0  0  0
  139.7720   69.8080  226.7730 C   0  0  0  0  0  0  0  0  0  0  0  0
  140.5200   70.9640  226.7260 C   0  0  0  0  0  0  0  0  0  0  0  0
  141.0440   71.5410  227.9890 C   0  0  0  0  0  0  0  0  0  0  0  0
  139.9520   71.9740  228.7360 F   0  0  0  0  0  0  0  0  0  0  0  0
  141.8530   72.6240  227.7790 F   0  0  0  0  0  0  0  0  0  0  0  0
  141.7240   70.5920  228.7300 F   0  0  0  0  0  0  0  0  0  0  0  0
  140.7830   71.5870  225.4930 C   0  0  0  0  0  0  0  0  0  0  0  0
  138.2111   75.7370  220.2595 H   0  0  0  0  0  0  0  0  0  0  0  0
  139.8801   75.9946  219.7197 H   0  0  0  0  0  0  0  0  0  0  0  0
  138.8439   73.1665  219.7472 H   0  0  0  0  0  0  0  0  0  0  0  0
  138.2028   74.3003  218.4820 H   0  0  0  0  0  0  0  0  0  0  0  0
  140.1564   72.9410  217.7399 H   0  0  0  0  0  0  0  0  0  0  0  0
  140.3908   74.7796  217.7103 H   0  0  0  0  0  0  0  0  0  0  0  0
  143.0010   75.7838  219.4316 H   0  0  0  0  0  0  0  0  0  0  0  0
  145.1670   75.6241  220.5991 H   0  0  0  0  0  0  0  0  0  0  0  0
  144.5978   71.3730  221.0390 H   0  0  0  0  0  0  0  0  0  0  0  0
  140.3440   72.7640  220.5650 H   0  0  0  0  0  0  0  0  0  0  0  0
  140.5846   70.9368  222.1768 H   0  0  0  0  0  0  0  0  0  0  0  0
  139.1820   69.4975  223.4353 H   0  0  0  0  0  0  0  0  0  0  0  0
  138.7176   68.4007  225.5649 H   0  0  0  0  0  0  0  0  0  0  0  0
  139.5499   69.2995  227.7228 H   0  0  0  0  0  0  0  0  0  0  0  0
  141.3840   72.5083  225.4938 H   0  0  0  0  0  0  0  0  0  0  0  0
  1  2  2  0
  2  3  1  0
  3  4  1  0
  4  5  1  0
  5  6  1  0
  6  7  1  0
  7  8  2  0
  8  9  1  0
  9 10  2  0
 10 11  1  0
 10 12  1  0
 12 13  2  0
 13 14  1  0
  2 15  1  0
 15 16  1  0
 16 17  2  0
 17 18  1  0
 18 19  2  0
 19 20  1  0
 20 21  2  0
 21 22  1  0
 22 23  1  0
 23 24  1  0
 23 25  1  0
 23 26  1  0
 22 27  2  0
 13  7  1  0
 27 18  1  0
  3 28  1  0
  3 29  1  0
  4 30  1  0
  4 31  1  0
  5 32  1  0
  5 33  1  0
  8 34  1  0
  9 35  1  0
 12 36  1  0
 15 37  1  0
 17 38  1  0
 19 39  1  0
 20 40  1  0
 21 41  1  0
 27 42  1  0
M  END
>  <smiles>  (96) 
O=C(CCCOc1ccc(Cl)cc1Cl)NN=Cc1cccc(C(F)(F)F)c1

>  <score_type>  (96) 
oracle

>  <origin>  (96) 
autodockgpu

>  <m_score__min__energy>  (96) 
-7.5199999999999996

>  <m_primary>  (96) 
energy

>  <rmsd>  (96) 
9.636727415562865

>  <m_score__min__rmsd>  (96) 
9.636727415562865

>  <meeko>  (96) 
{"free_energy": -6.1, "intermolecular_energy": -8.78, "internal_energy": -2.09, "cluster_size": 4, "cluster_id": 6, "rank_in_cluster": 4}

>  <energy>  (96) 
-5.53

>  <cluster_rmsd>  (96) 
0.64

>  <cluster>  (96) 
10

$$$$

     RDKit          3D

 42 43  0  0  0  0  0  0  0  0999 V2000
  141.2000   75.1690  221.3290 O   0  0  0  0  0  0  0  0  0  0  0  0
  139.9900   75.1530  221.6900 C   0  0  0  0  0  0  0  0  0  0  0  0
  139.0820   76.3250  221.4530 C   0  0  0  0  0  0  0  0  0  0  0  0
  138.1580   76.3900  222.6430 C   0  0  0  0  0  0  0  0  0  0  0  0
  136.7660   75.8380  222.3210 C   0  0  0  0  0  0  0  0  0  0  0  0
  136.4690   74.6790  222.8150 O   0  0  0  0  0  0  0  0  0  0  0  0
  136.1580   73.5320  223.2770 C   0  0  0  0  0  0  0  0  0  0  0  0
  136.6260   72.3440  222.6960 C   0  0  0  0  0  0  0  0  0  0  0  0
  136.3020   71.1040  223.1810 C   0  0  0  0  0  0  0  0  0  0  0  0
  135.4830   71.0400  224.2780 C   0  0  0  0  0  0  0  0  0  0  0  0
  135.0650   69.4680  224.9010 Cl  0  0  0  0  0  0  0  0  0  0  0  0
  134.9830   72.1580  224.9040 C   0  0  0  0  0  0  0  0  0  0  0  0
  135.3270   73.3770  224.3940 C   0  0  0  0  0  0  0  0  0  0  0  0
  134.7170   74.8330  225.1520 Cl  0  0  0  0  0  0  0  0  0  0  0  0
  139.4790   73.9680  222.3480 N   0  0  0  0  0  0  0  0  0  0  0  0
  140.3540   72.9360  222.5340 N   0  0  0  0  0  0  0  0  0  0  0  0
  139.9790   71.7830  222.8920 C   0  0  0  0  0  0  0  0  0  0  0  0
  139.9540   71.1880  224.2020 C   0  0  0  0  0  0  0  0  0  0  0  0
  139.3280   69.9360  224.3020 C   0  0  0  0  0  0  0  0  0  0  0  0
  139.2500   69.2810  225.5080 C   0  0  0  0  0  0  0  0  0  0  0  0
  139.7660   69.7930  226.6780 C   0  0  0  0  0  0  0  0  0  0  0  0
  140.3820   71.0220  226.5900 C   0  0  0  0  0  0  0  0  0  0  0  0
  140.9610   71.6330  227.8130 C   0  0  0  0  0  0  0  0  0  0  0  0
  139.9120   72.1860  228.5430 F   0  0  0  0  0  0  0  0  0  0  0  0
  141.8430   72.6400  227.5330 F   0  0  0  0  0  0  0  0  0  0  0  0
  141.5810   70.6820  228.6030 F   0  0  0  0  0  0  0  0  0  0  0  0
  140.4600   71.6880  225.3540 C   0  0  0  0  0  0  0  0  0  0  0  0
  139.6688   77.2521  221.3750 H   0  0  0  0  0  0  0  0  0  0  0  0
  138.5191   76.2122  220.5147 H   0  0  0  0  0  0  0  0  0  0  0  0
  138.5930   75.7995  223.4628 H   0  0  0  0  0  0  0  0  0  0  0  0
  138.0463   77.4464  222.9285 H   0  0  0  0  0  0  0  0  0  0  0  0
  136.0264   76.5598  222.6979 H   0  0  0  0  0  0  0  0  0  0  0  0
  136.7578   75.6965  221.2302 H   0  0  0  0  0  0  0  0  0  0  0  0
  137.2804   72.4106  221.8143 H   0  0  0  0  0  0  0  0  0  0  0  0
  136.6867   70.1898  222.7054 H   0  0  0  0  0  0  0  0  0  0  0  0
  134.3291   72.0731  225.7844 H   0  0  0  0  0  0  0  0  0  0  0  0
  138.4900   73.9110  222.6840 H   0  0  0  0  0  0  0  0  0  0  0  0
  139.6170   71.1366  222.0789 H   0  0  0  0  0  0  0  0  0  0  0  0
  138.8941   69.4727  223.4036 H   0  0  0  0  0  0  0  0  0  0  0  0
  138.7516   68.3009  225.5403 H   0  0  0  0  0  0  0  0  0  0  0  0
  139.6903   69.2497  227.6314 H   0  0  0  0  0  0  0  0  0  0  0  0
  140.9589   72.6678  225.3213 H   0  0  0  0  0  0  0  0  0  0  0  0
  1  2  2  0
  2  3  1  0
  3  4  1  0
  4  5  1  0
  5  6  1  0
  6  7  1  0
  7  8  2  0
  8  9  1  0
  9 10  2  0
 10 11  1  0
 10 12  1  0
 12 13  2  0
 13 14  1  0
  2 15  1  0
 15 16  1  0
 16 17  2  0
 17 18  1  0
 18 19  2  0
 19 20  1  0
 20 21  2  0
 21 22  1  0
 22 23  1  0
 23 24  1  0
 23 25  1  0
 23 26  1  0
 22 27  2  0
 13  7  1  0
 27 18  1  0
  3 28  1  0
  3 29  1  0
  4 30  1  0
  4 31  1  0
  5 32  1  0
  5 33  1  0
  8 34  1  0
  9 35  1  0
 12 36  1  0
 15 37  1  0
 17 38  1  0
 19 39  1  0
 20 40  1  0
 21 41  1  0
 27 42  1  0
M  END
>  <smiles>  (97) 
O=C(CCCOc1ccc(Cl)cc1Cl)NN=Cc1cccc(C(F)(F)F)c1

>  <score_type>  (97) 
oracle

>  <origin>  (97) 
autodockgpu

>  <m_score__min__energy>  (97) 
-7.5199999999999996

>  <m_primary>  (97) 
energy

>  <rmsd>  (97) 
10.4941784578253

>  <m_score__min__rmsd>  (97) 
10.4941784578253

>  <meeko>  (97) 
{"free_energy": -5.74, "intermolecular_energy": -8.42, "internal_energy": -2.42, "cluster_size": 12, "cluster_id": 9, "rank_in_cluster": 2}

>  <energy>  (97) 
-5.44

>  <cluster_rmsd>  (97) 
0.0

>  <cluster>  (97) 
11

$$$$

     RDKit          3D

 42 43  0  0  0  0  0  0  0  0999 V2000
  141.2280   74.3500  220.7020 O   0  0  0  0  0  0  0  0  0  0  0  0
  140.1010   74.7030  221.1500 C   0  0  0  0  0  0  0  0  0  0  0  0
  139.3280   75.8330  220.5340 C   0  0  0  0  0  0  0  0  0  0  0  0
  137.8780   75.5780  220.8600 C   0  0  0  0  0  0  0  0  0  0  0  0
  137.4660   76.2170  222.1890 C   0  0  0  0  0  0  0  0  0  0  0  0
  136.7320   75.5000  222.9790 O   0  0  0  0  0  0  0  0  0  0  0  0
  136.0230   74.7700  223.7480 C   0  0  0  0  0  0  0  0  0  0  0  0
  135.3830   75.2880  224.8840 C   0  0  0  0  0  0  0  0  0  0  0  0
  134.6190   74.5170  225.7190 C   0  0  0  0  0  0  0  0  0  0  0  0
  134.4850   73.1860  225.4190 C   0  0  0  0  0  0  0  0  0  0  0  0
  133.5160   72.1980  226.4750 Cl  0  0  0  0  0  0  0  0  0  0  0  0
  135.0810   72.6030  224.3240 C   0  0  0  0  0  0  0  0  0  0  0  0
  135.8360   73.4010  223.5140 C   0  0  0  0  0  0  0  0  0  0  0  0
  136.6170   72.7120  222.1070 Cl  0  0  0  0  0  0  0  0  0  0  0  0
  139.5530   73.9910  222.2860 N   0  0  0  0  0  0  0  0  0  0  0  0
  140.3040   72.9730  222.8000 N   0  0  0  0  0  0  0  0  0  0  0  0
  139.8120   71.8450  223.0900 C   0  0  0  0  0  0  0  0  0  0  0  0
  139.8110   71.1360  224.3420 C   0  0  0  0  0  0  0  0  0  0  0  0
  139.1580   69.8940  224.3510 C   0  0  0  0  0  0  0  0  0  0  0  0
  139.0980   69.1360  225.4950 C   0  0  0  0  0  0  0  0  0  0  0  0
  139.6600   69.5290  226.6900 C   0  0  0  0  0  0  0  0  0  0  0  0
  140.3040   70.7470  226.6920 C   0  0  0  0  0  0  0  0  0  0  0  0
  140.9330   71.2330  227.9460 C   0  0  0  0  0  0  0  0  0  0  0  0
  139.9200   71.7410  228.7540 F   0  0  0  0  0  0  0  0  0  0  0  0
  141.8310   72.2420  227.7290 F   0  0  0  0  0  0  0  0  0  0  0  0
  141.5520   70.2020  228.6280 F   0  0  0  0  0  0  0  0  0  0  0  0
  140.3620   71.5190  225.5180 C   0  0  0  0  0  0  0  0  0  0  0  0
  139.6516   76.7937  220.9610 H   0  0  0  0  0  0  0  0  0  0  0  0
  139.4914   75.8849  219.4474 H   0  0  0  0  0  0  0  0  0  0  0  0
  137.2547   75.9972  220.0564 H   0  0  0  0  0  0  0  0  0  0  0  0
  137.7366   74.4907  220.9484 H   0  0  0  0  0  0  0  0  0  0  0  0
  138.3863   76.4756  222.7333 H   0  0  0  0  0  0  0  0  0  0  0  0
  136.8370   77.0760  221.9125 H   0  0  0  0  0  0  0  0  0  0  0  0
  135.4997   76.3575  225.1134 H   0  0  0  0  0  0  0  0  0  0  0  0
  134.1284   74.9518  226.6023 H   0  0  0  0  0  0  0  0  0  0  0  0
  134.9534   71.5317  224.1092 H   0  0  0  0  0  0  0  0  0  0  0  0
  138.6340   74.2560  222.7070 H   0  0  0  0  0  0  0  0  0  0  0  0
  139.3088   71.3276  222.2599 H   0  0  0  0  0  0  0  0  0  0  0  0
  138.6875   69.5221  223.4289 H   0  0  0  0  0  0  0  0  0  0  0  0
  138.5761   68.1685  225.4551 H   0  0  0  0  0  0  0  0  0  0  0  0
  139.5979   68.9043  227.5933 H   0  0  0  0  0  0  0  0  0  0  0  0
  140.8834   72.4868  225.5572 H   0  0  0  0  0  0  0  0  0  0  0  0
  1  2  2  0
  2  3  1  0
  3  4  1  0
  4  5  1  0
  5  6  1  0
  6  7  1  0
  7  8  2  0
  8  9  1  0
  9 10  2  0
 10 11  1  0
 10 12  1  0
 12 13  2  0
 13 14  1  0
  2 15  1  0
 15 16  1  0
 16 17  2  0
 17 18  1  0
 18 19  2  0
 19 20  1  0
 20 21  2  0
 21 22  1  0
 22 23  1  0
 23 24  1  0
 23 25  1  0
 23 26  1  0
 22 27  2  0
 13  7  1  0
 27 18  1  0
  3 28  1  0
  3 29  1  0
  4 30  1  0
  4 31  1  0
  5 32  1  0
  5 33  1  0
  8 34  1  0
  9 35  1  0
 12 36  1  0
 15 37  1  0
 17 38  1  0
 19 39  1  0
 20 40  1  0
 21 41  1  0
 27 42  1  0
M  END
>  <smiles>  (98) 
O=C(CCCOc1ccc(Cl)cc1Cl)NN=Cc1cccc(C(F)(F)F)c1

>  <score_type>  (98) 
oracle

>  <origin>  (98) 
autodockgpu

>  <m_score__min__energy>  (98) 
-7.5199999999999996

>  <m_primary>  (98) 
energy

>  <rmsd>  (98) 
9.529630193941385

>  <m_score__min__rmsd>  (98) 
9.529630193941385

>  <meeko>  (98) 
{"free_energy": -5.71, "intermolecular_energy": -8.39, "internal_energy": -1.89, "cluster_size": 12, "cluster_id": 9, "rank_in_cluster": 4}

>  <energy>  (98) 
-5.31

>  <cluster_rmsd>  (98) 
0.0

>  <cluster>  (98) 
12

$$$$

     RDKit          3D

 42 43  0  0  0  0  0  0  0  0999 V2000
  136.9710   71.6160  223.3900 O   0  0  0  0  0  0  0  0  0  0  0  0
  137.4660   72.4480  222.5800 C   0  0  0  0  0  0  0  0  0  0  0  0
  136.7850   73.7510  222.2760 C   0  0  0  0  0  0  0  0  0  0  0  0
  137.6220   74.4280  221.2210 C   0  0  0  0  0  0  0  0  0  0  0  0
  138.8220   75.1640  221.8230 C   0  0  0  0  0  0  0  0  0  0  0  0
  139.9980   74.7560  221.4670 O   0  0  0  0  0  0  0  0  0  0  0  0
  141.1600   74.3790  221.1000 C   0  0  0  0  0  0  0  0  0  0  0  0
  141.5900   73.0520  221.2400 C   0  0  0  0  0  0  0  0  0  0  0  0
  142.8340   72.6310  220.8510 C   0  0  0  0  0  0  0  0  0  0  0  0
  143.6830   73.5600  220.3070 C   0  0  0  0  0  0  0  0  0  0  0  0
  145.2670   73.0350  219.8100 Cl  0  0  0  0  0  0  0  0  0  0  0  0
  143.3360   74.8810  220.1370 C   0  0  0  0  0  0  0  0  0  0  0  0
  142.0880   75.2640  220.5360 C   0  0  0  0  0  0  0  0  0  0  0  0
  141.5950   76.9330  220.3440 Cl  0  0  0  0  0  0  0  0  0  0  0  0
  138.7230   72.1260  221.9370 N   0  0  0  0  0  0  0  0  0  0  0  0
  139.2930   70.9260  222.2560 N   0  0  0  0  0  0  0  0  0  0  0  0
  140.2050   70.8170  223.1240 C   0  0  0  0  0  0  0  0  0  0  0  0
  140.1080   70.5430  224.5330 C   0  0  0  0  0  0  0  0  0  0  0  0
  139.4170   69.3740  224.8910 C   0  0  0  0  0  0  0  0  0  0  0  0
  139.2660   69.0190  226.2100 C   0  0  0  0  0  0  0  0  0  0  0  0
  139.7680   69.7660  227.2530 C   0  0  0  0  0  0  0  0  0  0  0  0
  140.4470   70.9160  226.9130 C   0  0  0  0  0  0  0  0  0  0  0  0
  141.0150   71.7680  227.9870 C   0  0  0  0  0  0  0  0  0  0  0  0
  139.9500   72.2620  228.7370 F   0  0  0  0  0  0  0  0  0  0  0  0
  141.7070   72.8420  227.4990 F   0  0  0  0  0  0  0  0  0  0  0  0
  141.8320   71.0360  228.8290 F   0  0  0  0  0  0  0  0  0  0  0  0
  140.5990   71.2740  225.5610 C   0  0  0  0  0  0  0  0  0  0  0  0
  135.7680   73.5704  221.8978 H   0  0  0  0  0  0  0  0  0  0  0  0
  136.6947   74.3754  223.1771 H   0  0  0  0  0  0  0  0  0  0  0  0
  137.9894   73.6667  220.5171 H   0  0  0  0  0  0  0  0  0  0  0  0
  136.9899   75.1703  220.7116 H   0  0  0  0  0  0  0  0  0  0  0  0
  138.7381   76.2237  221.5400 H   0  0  0  0  0  0  0  0  0  0  0  0
  138.7656   74.9684  222.9040 H   0  0  0  0  0  0  0  0  0  0  0  0
  140.8993   72.3181  221.6808 H   0  0  0  0  0  0  0  0  0  0  0  0
  143.1418   71.5818  220.9711 H   0  0  0  0  0  0  0  0  0  0  0  0
  144.0392   75.6024  219.6954 H   0  0  0  0  0  0  0  0  0  0  0  0
  139.1650   72.7720  221.2440 H   0  0  0  0  0  0  0  0  0  0  0  0
  141.2286   70.9522  222.7445 H   0  0  0  0  0  0  0  0  0  0  0  0
  138.9907   68.7336  224.1048 H   0  0  0  0  0  0  0  0  0  0  0  0
  138.7182   68.0943  226.4441 H   0  0  0  0  0  0  0  0  0  0  0  0
  139.6340   69.4608  228.3013 H   0  0  0  0  0  0  0  0  0  0  0  0
  141.1468   72.1986  225.3264 H   0  0  0  0  0  0  0  0  0  0  0  0
  1  2  2  0
  2  3  1  0
  3  4  1  0
  4  5  1  0
  5  6  1  0
  6  7  1  0
  7  8  2  0
  8  9  1  0
  9 10  2  0
 10 11  1  0
 10 12  1  0
 12 13  2  0
 13 14  1  0
  2 15  1  0
 15 16  1  0
 16 17  2  0
 17 18  1  0
 18 19  2  0
 19 20  1  0
 20 21  2  0
 21 22  1  0
 22 23  1  0
 23 24  1  0
 23 25  1  0
 23 26  1  0
 22 27  2  0
 13  7  1  0
 27 18  1  0
  3 28  1  0
  3 29  1  0
  4 30  1  0
  4 31  1  0
  5 32  1  0
  5 33  1  0
  8 34  1  0
  9 35  1  0
 12 36  1  0
 15 37  1  0
 17 38  1  0
 19 39  1  0
 20 40  1  0
 21 41  1  0
 27 42  1  0
M  END
>  <smiles>  (99) 
O=C(CCCOc1ccc(Cl)cc1Cl)NN=Cc1cccc(C(F)(F)F)c1

>  <score_type>  (99) 
oracle

>  <origin>  (99) 
autodockgpu

>  <m_score__min__energy>  (99) 
-7.5199999999999996

>  <m_primary>  (99) 
energy

>  <rmsd>  (99) 
8.764484553435075

>  <m_score__min__rmsd>  (99) 
8.764484553435075

>  <meeko>  (99) 
{"free_energy": -5.35, "intermolecular_energy": -8.03, "internal_energy": -1.95, "cluster_size": 3, "cluster_id": 7, "rank_in_cluster": 3}

>  <energy>  (99) 
-4.45

>  <cluster_rmsd>  (99) 
0.0

>  <cluster>  (99) 
13

$$$$

     RDKit          3D

 42 43  0  0  0  0  0  0  0  0999 V2000
  138.7400   72.1280  220.6610 O   0  0  0  0  0  0  0  0  0  0  0  0
  138.3810   73.0850  221.4010 C   0  0  0  0  0  0  0  0  0  0  0  0
  136.9990   73.6670  221.3200 C   0  0  0  0  0  0  0  0  0  0  0  0
  137.1780   75.1570  221.1680 C   0  0  0  0  0  0  0  0  0  0  0  0
  137.3620   75.8560  222.5180 C   0  0  0  0  0  0  0  0  0  0  0  0
  138.3380   76.7010  222.6100 O   0  0  0  0  0  0  0  0  0  0  0  0
  139.2940   77.5430  222.6730 C   0  0  0  0  0  0  0  0  0  0  0  0
  139.2090   78.7090  223.4480 C   0  0  0  0  0  0  0  0  0  0  0  0
  140.2260   79.6230  223.5260 C   0  0  0  0  0  0  0  0  0  0  0  0
  141.3680   79.3730  222.8100 C   0  0  0  0  0  0  0  0  0  0  0  0
  142.6670   80.5290  222.9020 Cl  0  0  0  0  0  0  0  0  0  0  0  0
  141.5290   78.2520  222.0260 C   0  0  0  0  0  0  0  0  0  0  0  0
  140.4940   77.3640  221.9720 C   0  0  0  0  0  0  0  0  0  0  0  0
  140.6450   75.9220  220.9910 Cl  0  0  0  0  0  0  0  0  0  0  0  0
  139.3340   73.6250  222.3480 N   0  0  0  0  0  0  0  0  0  0  0  0
  140.5740   73.0520  222.3740 N   0  0  0  0  0  0  0  0  0  0  0  0
  140.7730   71.8840  222.8140 C   0  0  0  0  0  0  0  0  0  0  0  0
  140.3830   71.2930  224.0660 C   0  0  0  0  0  0  0  0  0  0  0  0
  139.4580   70.2390  223.9930 C   0  0  0  0  0  0  0  0  0  0  0  0
  139.0180   69.6060  225.1300 C   0  0  0  0  0  0  0  0  0  0  0  0
  139.4420   69.9500  226.3960 C   0  0  0  0  0  0  0  0  0  0  0  0
  140.3490   70.9820  226.4790 C   0  0  0  0  0  0  0  0  0  0  0  0
  140.8490   71.4050  227.8110 C   0  0  0  0  0  0  0  0  0  0  0  0
  141.4520   70.2980  228.4030 F   0  0  0  0  0  0  0  0  0  0  0  0
  139.8460   71.8200  228.6430 F   0  0  0  0  0  0  0  0  0  0  0  0
  141.7980   72.4040  227.6970 F   0  0  0  0  0  0  0  0  0  0  0  0
  140.7960   71.6270  225.3110 C   0  0  0  0  0  0  0  0  0  0  0  0
  136.4628   73.2568  220.4515 H   0  0  0  0  0  0  0  0  0  0  0  0
  136.4085   73.4236  222.2156 H   0  0  0  0  0  0  0  0  0  0  0  0
  138.0659   75.3460  220.5468 H   0  0  0  0  0  0  0  0  0  0  0  0
  136.2690   75.5611  220.6985 H   0  0  0  0  0  0  0  0  0  0  0  0
  136.4310   76.3974  222.7419 H   0  0  0  0  0  0  0  0  0  0  0  0
  137.6100   75.0520  223.2266 H   0  0  0  0  0  0  0  0  0  0  0  0
  138.2867   78.8973  224.0171 H   0  0  0  0  0  0  0  0  0  0  0  0
  140.1296   80.5284  224.1432 H   0  0  0  0  0  0  0  0  0  0  0  0
  142.4584   78.0787  221.4636 H   0  0  0  0  0  0  0  0  0  0  0  0
  139.0930   74.4300  222.9700 H   0  0  0  0  0  0  0  0  0  0  0  0
  141.3286   71.2186  222.1369 H   0  0  0  0  0  0  0  0  0  0  0  0
  139.0805   69.9157  223.0117 H   0  0  0  0  0  0  0  0  0  0  0  0
  138.2928   68.7855  225.0254 H   0  0  0  0  0  0  0  0  0  0  0  0
  139.0751   69.4276  227.2918 H   0  0  0  0  0  0  0  0  0  0  0  0
  141.5209   72.4477  225.4155 H   0  0  0  0  0  0  0  0  0  0  0  0
  1  2  2  0
  2  3  1  0
  3  4  1  0
  4  5  1  0
  5  6  1  0
  6  7  1  0
  7  8  2  0
  8  9  1  0
  9 10  2  0
 10 11  1  0
 10 12  1  0
 12 13  2  0
 13 14  1  0
  2 15  1  0
 15 16  1  0
 16 17  2  0
 17 18  1  0
 18 19  2  0
 19 20  1  0
 20 21  2  0
 21 22  1  0
 22 23  1  0
 23 24  1  0
 23 25  1  0
 23 26  1  0
 22 27  2  0
 13  7  1  0
 27 18  1  0
  3 28  1  0
  3 29  1  0
  4 30  1  0
  4 31  1  0
  5 32  1  0
  5 33  1  0
  8 34  1  0
  9 35  1  0
 12 36  1  0
 15 37  1  0
 17 38  1  0
 19 39  1  0
 20 40  1  0
 21 41  1  0
 27 42  1  0
M  END
>  <smiles>  (100) 
O=C(CCCOc1ccc(Cl)cc1Cl)NN=Cc1cccc(C(F)(F)F)c1

>  <score_type>  (100) 
oracle

>  <origin>  (100) 
autodockgpu

>  <m_score__min__energy>  (100) 
-7.5199999999999996

>  <m_primary>  (100) 
energy

>  <rmsd>  (100) 
6.193963454058997

>  <m_score__min__rmsd>  (100) 
6.193963454058997

>  <meeko>  (100) 
{"free_energy": -6.59, "intermolecular_energy": -9.27, "internal_energy": -1.33, "cluster_size": 11, "cluster_id": 1, "rank_in_cluster": 6}

>  <energy>  (100) 
-4.4

>  <cluster_rmsd>  (100) 
0.38

>  <cluster>  (100) 
13

$$$$
