
     RDKit          3D

 49 52  0  0  0  0  0  0  0  0999 V2000
  141.2820   72.8710  221.2570 O   0  0  0  0  0  0  0  0  0  0  0  0
  140.3800   73.0450  222.0960 C   0  0  0  0  0  0  0  0  0  0  0  0
  139.6400   74.2720  222.0450 N   0  0  0  0  0  0  0  0  0  0  0  0
  139.9890   75.2140  221.0290 C   0  0  0  0  0  0  0  0  0  0  0  0
  140.8230   76.3370  221.5670 C   0  0  0  0  0  0  0  0  0  0  0  0
  141.0630   76.4730  222.7940 O   0  0  0  0  0  0  0  0  0  0  0  0
  141.3650   77.2850  220.6510 N   0  0  0  0  0  0  0  0  0  0  0  0
  142.4290   76.9500  219.7240 C   0  0  0  0  0  0  0  0  0  0  0  0
  142.1810   77.8880  218.5830 C   0  0  2  0  0  0  0  0  0  0  0  0
  143.3230   78.1260  217.8280 O   0  0  0  0  0  0  0  0  0  0  0  0
  141.6190   79.1180  219.2160 C   0  0  0  0  0  0  0  0  0  0  0  0
  140.9670   78.6710  220.4980 C   0  0  2  0  0  0  0  0  0  0  0  0
  141.3720   79.5120  221.6730 C   0  0  0  0  0  0  0  0  0  0  0  0
  142.5660   79.3210  222.3360 C   0  0  0  0  0  0  0  0  0  0  0  0
  142.9600   80.0780  223.4120 C   0  0  0  0  0  0  0  0  0  0  0  0
  142.1190   81.0910  223.8640 C   0  0  0  0  0  0  0  0  0  0  0  0
  140.9170   81.3050  223.2210 C   0  0  0  0  0  0  0  0  0  0  0  0
  140.5520   80.5200  222.1350 C   0  0  0  0  0  0  0  0  0  0  0  0
  140.0580   72.0450  223.1220 C   0  0  0  0  0  0  0  0  0  0  0  0
  139.1340   71.0720  222.8120 C   0  0  0  0  0  0  0  0  0  0  0  0
  138.8010   70.1130  223.7430 C   0  0  0  0  0  0  0  0  0  0  0  0
  139.4130   70.1560  224.9780 C   0  0  0  0  0  0  0  0  0  0  0  0
  139.1280   69.2260  225.9600 C   0  0  0  0  0  0  0  0  0  0  0  0
  139.7530   69.2890  227.1850 C   0  0  0  0  0  0  0  0  0  0  0  0
  140.6790   70.2610  227.4980 C   0  0  0  0  0  0  0  0  0  0  0  0
  140.9700   71.2040  226.5080 C   0  0  0  0  0  0  0  0  0  0  0  0
  140.3470   71.1540  225.2630 C   0  0  0  0  0  0  0  0  0  0  0  0
  140.6660   72.0890  224.3430 N   0  0  0  0  0  0  0  0  0  0  0  0
  138.8660   74.4710  222.7310 H   0  0  0  0  0  0  0  0  0  0  0  0
  140.5571   74.6946  220.2432 H   0  0  0  0  0  0  0  0  0  0  0  0
  139.0583   75.6432  220.6295 H   0  0  0  0  0  0  0  0  0  0  0  0
  143.4171   77.1260  220.1743 H   0  0  0  0  0  0  0  0  0  0  0  0
  142.4300   75.8912  219.4256 H   0  0  0  0  0  0  0  0  0  0  0  0
  141.4810   77.4656  217.8471 H   0  0  0  0  0  0  0  0  0  0  0  0
  143.3740   79.0390  217.4510 H   0  0  0  0  0  0  0  0  0  0  0  0
  142.4225   79.8388  219.4281 H   0  0  0  0  0  0  0  0  0  0  0  0
  140.8973   79.6163  218.5520 H   0  0  0  0  0  0  0  0  0  0  0  0
  139.8733   78.7813  220.4562 H   0  0  0  0  0  0  0  0  0  0  0  0
  143.2363   78.5224  221.9855 H   0  0  0  0  0  0  0  0  0  0  0  0
  143.9232   79.8872  223.9079 H   0  0  0  0  0  0  0  0  0  0  0  0
  142.4091   81.7134  224.7234 H   0  0  0  0  0  0  0  0  0  0  0  0
  140.2441   82.1019  223.5705 H   0  0  0  0  0  0  0  0  0  0  0  0
  139.5906   80.7058  221.6338 H   0  0  0  0  0  0  0  0  0  0  0  0
  138.6610   71.0606  221.8190 H   0  0  0  0  0  0  0  0  0  0  0  0
  138.0641   69.3312  223.5069 H   0  0  0  0  0  0  0  0  0  0  0  0
  138.3961   68.4293  225.7612 H   0  0  0  0  0  0  0  0  0  0  0  0
  139.5035   68.5334  227.9445 H   0  0  0  0  0  0  0  0  0  0  0  0
  141.1673   70.2932  228.4832 H   0  0  0  0  0  0  0  0  0  0  0  0
  141.7025   71.9981  226.7153 H   0  0  0  0  0  0  0  0  0  0  0  0
  1  2  2  0
  2  3  1  0
  3  4  1  0
  4  5  1  0
  5  6  2  0
  5  7  1  0
  7  8  1  0
  8  9  1  0
  9 10  1  0
  9 11  1  0
 11 12  1  0
 12 13  1  0
 13 14  2  0
 14 15  1  0
 15 16  2  0
 16 17  1  0
 17 18  2  0
  2 19  1  0
 19 20  2  0
 20 21  1  0
 21 22  2  0
 22 23  1  0
 23 24  2  0
 24 25  1  0
 25 26  2  0
 26 27  1  0
 27 28  2  0
 12  7  1  0
 18 13  1  0
 28 19  1  0
 27 22  1  0
  3 29  1  0
  4 30  1  0
  4 31  1  0
  8 32  1  0
  8 33  1  0
  9 34  1  6
 10 35  1  0
 11 36  1  0
 11 37  1  0
 12 38  1  6
 14 39  1  0
 15 40  1  0
 16 41  1  0
 17 42  1  0
 18 43  1  0
 20 44  1  0
 21 45  1  0
 23 46  1  0
 24 47  1  0
 25 48  1  0
 26 49  1  0
M  END
>  <smiles>  (1) 
O=C(NCC(=O)N1C[C@H](O)C[C@@H]1c1ccccc1)c1ccc2ccccc2n1

>  <score_type>  (1) 
oracle

>  <origin>  (1) 
autodockgpu

>  <m_score__min__energy>  (1) 
-9.3699999999999992

>  <m_primary>  (1) 
energy

>  <rmsd>  (1) 
2.36219044816745

>  <m_score__min__rmsd>  (1) 
2.36219044816745

>  <meeko>  (1) 
{"free_energy": -8.73, "intermolecular_energy": -10.52, "internal_energy": -1.25, "cluster_size": 28, "cluster_id": 1, "rank_in_cluster": 20}

>  <energy>  (1) 
-9.37

>  <cluster_rmsd>  (1) 
0.0

>  <cluster>  (1) 
1

$$$$

     RDKit          3D

 49 52  0  0  0  0  0  0  0  0999 V2000
  139.6400   71.1130  221.2610 O   0  0  0  0  0  0  0  0  0  0  0  0
  139.7050   71.7730  222.3140 C   0  0  0  0  0  0  0  0  0  0  0  0
  139.6640   73.2020  222.2180 N   0  0  0  0  0  0  0  0  0  0  0  0
  139.5510   73.7750  220.9130 C   0  0  0  0  0  0  0  0  0  0  0  0
  140.6910   73.3800  220.0250 C   0  0  0  0  0  0  0  0  0  0  0  0
  140.6100   72.4310  219.2040 O   0  0  0  0  0  0  0  0  0  0  0  0
  141.9120   74.1090  220.1150 N   0  0  0  0  0  0  0  0  0  0  0  0
  143.1230   73.5330  220.6670 C   0  0  0  0  0  0  0  0  0  0  0  0
  144.2030   74.2810  219.9480 C   0  0  2  0  0  0  0  0  0  0  0  0
  145.4040   74.2900  220.6470 O   0  0  0  0  0  0  0  0  0  0  0  0
  143.6370   75.6440  219.7210 C   0  0  0  0  0  0  0  0  0  0  0  0
  142.1400   75.4780  219.6930 C   0  0  2  0  0  0  0  0  0  0  0  0
  141.4350   76.4690  220.5720 C   0  0  0  0  0  0  0  0  0  0  0  0
  141.1120   76.1890  221.8830 C   0  0  0  0  0  0  0  0  0  0  0  0
  140.4690   77.0780  222.7080 C   0  0  0  0  0  0  0  0  0  0  0  0
  140.1210   78.3290  222.2050 C   0  0  0  0  0  0  0  0  0  0  0  0
  140.4300   78.6380  220.8960 C   0  0  0  0  0  0  0  0  0  0  0  0
  141.0810   77.7130  220.0910 C   0  0  0  0  0  0  0  0  0  0  0  0
  139.8200   71.1370  223.6330 C   0  0  0  0  0  0  0  0  0  0  0  0
  139.3550   69.8490  223.7750 C   0  0  0  0  0  0  0  0  0  0  0  0
  139.4420   69.2120  224.9930 C   0  0  0  0  0  0  0  0  0  0  0  0
  140.0030   69.8950  226.0520 C   0  0  0  0  0  0  0  0  0  0  0  0
  140.1240   69.3190  227.3020 C   0  0  0  0  0  0  0  0  0  0  0  0
  140.6880   70.0210  228.3450 C   0  0  0  0  0  0  0  0  0  0  0  0
  141.1550   71.3100  228.2050 C   0  0  0  0  0  0  0  0  0  0  0  0
  141.0360   71.8960  226.9420 C   0  0  0  0  0  0  0  0  0  0  0  0
  140.4670   71.2000  225.8780 C   0  0  0  0  0  0  0  0  0  0  0  0
  140.3760   71.8150  224.6790 N   0  0  0  0  0  0  0  0  0  0  0  0
  139.7140   73.8090  223.0770 H   0  0  0  0  0  0  0  0  0  0  0  0
  138.6103   73.4341  220.4559 H   0  0  0  0  0  0  0  0  0  0  0  0
  139.5680   74.8696  221.0204 H   0  0  0  0  0  0  0  0  0  0  0  0
  143.1815   73.6988  221.7529 H   0  0  0  0  0  0  0  0  0  0  0  0
  143.1862   72.4427  220.5354 H   0  0  0  0  0  0  0  0  0  0  0  0
  144.4732   73.8002  218.9962 H   0  0  0  0  0  0  0  0  0  0  0  0
  146.1930   74.5060  220.0900 H   0  0  0  0  0  0  0  0  0  0  0  0
  143.9305   76.3197  220.5379 H   0  0  0  0  0  0  0  0  0  0  0  0
  144.0094   76.0816  218.7830 H   0  0  0  0  0  0  0  0  0  0  0  0
  141.7295   75.6718  218.6910 H   0  0  0  0  0  0  0  0  0  0  0  0
  141.3834   75.2031  222.2883 H   0  0  0  0  0  0  0  0  0  0  0  0
  140.2329   76.8071  223.7476 H   0  0  0  0  0  0  0  0  0  0  0  0
  139.6060   79.0620  222.8433 H   0  0  0  0  0  0  0  0  0  0  0  0
  140.1589   79.6229  220.4880 H   0  0  0  0  0  0  0  0  0  0  0  0
  141.3191   77.9767  219.0500 H   0  0  0  0  0  0  0  0  0  0  0  0
  138.9128   69.3273  222.9134 H   0  0  0  0  0  0  0  0  0  0  0  0
  139.0730   68.1833  225.1183 H   0  0  0  0  0  0  0  0  0  0  0  0
  139.7671   68.2915  227.4660 H   0  0  0  0  0  0  0  0  0  0  0  0
  140.7686   69.5335  229.3278 H   0  0  0  0  0  0  0  0  0  0  0  0
  141.6018   71.8537  229.0504 H   0  0  0  0  0  0  0  0  0  0  0  0
  141.3974   72.9231  226.7856 H   0  0  0  0  0  0  0  0  0  0  0  0
  1  2  2  0
  2  3  1  0
  3  4  1  0
  4  5  1  0
  5  6  2  0
  5  7  1  0
  7  8  1  0
  8  9  1  0
  9 10  1  0
  9 11  1  0
 11 12  1  0
 12 13  1  0
 13 14  2  0
 14 15  1  0
 15 16  2  0
 16 17  1  0
 17 18  2  0
  2 19  1  0
 19 20  2  0
 20 21  1  0
 21 22  2  0
 22 23  1  0
 23 24  2  0
 24 25  1  0
 25 26  2  0
 26 27  1  0
 27 28  2  0
 12  7  1  0
 18 13  1  0
 28 19  1  0
 27 22  1  0
  3 29  1  0
  4 30  1  0
  4 31  1  0
  8 32  1  0
  8 33  1  0
  9 34  1  6
 10 35  1  0
 11 36  1  0
 11 37  1  0
 12 38  1  6
 14 39  1  0
 15 40  1  0
 16 41  1  0
 17 42  1  0
 18 43  1  0
 20 44  1  0
 21 45  1  0
 23 46  1  0
 24 47  1  0
 25 48  1  0
 26 49  1  0
M  END
>  <smiles>  (2) 
O=C(NCC(=O)N1C[C@H](O)C[C@@H]1c1ccccc1)c1ccc2ccccc2n1

>  <score_type>  (2) 
oracle

>  <origin>  (2) 
autodockgpu

>  <m_score__min__energy>  (2) 
-9.3699999999999992

>  <m_primary>  (2) 
energy

>  <rmsd>  (2) 
2.5514993037885767

>  <m_score__min__rmsd>  (2) 
2.5514993037885767

>  <meeko>  (2) 
{"free_energy": -7.93, "intermolecular_energy": -9.72, "internal_energy": -1.4, "cluster_size": 28, "cluster_id": 1, "rank_in_cluster": 28}

>  <energy>  (2) 
-9.34

>  <cluster_rmsd>  (2) 
0.13

>  <cluster>  (2) 
1

$$$$

     RDKit          3D

 49 52  0  0  0  0  0  0  0  0999 V2000
  140.6910   72.3810  221.0300 O   0  0  0  0  0  0  0  0  0  0  0  0
  140.2690   72.7790  222.1310 C   0  0  0  0  0  0  0  0  0  0  0  0
  139.8990   74.1590  222.2510 N   0  0  0  0  0  0  0  0  0  0  0  0
  140.0390   74.9860  221.0940 C   0  0  0  0  0  0  0  0  0  0  0  0
  141.4740   75.3030  220.8000 C   0  0  0  0  0  0  0  0  0  0  0  0
  142.4220   74.5890  221.2160 O   0  0  0  0  0  0  0  0  0  0  0  0
  141.7720   76.4570  220.0200 N   0  0  0  0  0  0  0  0  0  0  0  0
  142.7900   76.4550  218.9870 C   0  0  0  0  0  0  0  0  0  0  0  0
  142.2950   77.4960  218.0320 C   0  0  2  0  0  0  0  0  0  0  0  0
  143.3130   78.0390  217.2560 O   0  0  0  0  0  0  0  0  0  0  0  0
  141.6000   78.5010  218.8890 C   0  0  0  0  0  0  0  0  0  0  0  0
  141.1440   77.7600  220.1190 C   0  0  2  0  0  0  0  0  0  0  0  0
  141.5100   78.4730  221.3880 C   0  0  0  0  0  0  0  0  0  0  0  0
  141.1870   77.9710  222.6320 C   0  0  0  0  0  0  0  0  0  0  0  0
  141.5120   78.6030  223.8060 C   0  0  0  0  0  0  0  0  0  0  0  0
  142.2010   79.8110  223.7510 C   0  0  0  0  0  0  0  0  0  0  0  0
  142.5370   80.3380  222.5210 C   0  0  0  0  0  0  0  0  0  0  0  0
  142.1920   79.6710  221.3530 C   0  0  0  0  0  0  0  0  0  0  0  0
  140.1430   71.8890  223.2920 C   0  0  0  0  0  0  0  0  0  0  0  0
  139.4870   70.6900  223.1220 C   0  0  0  0  0  0  0  0  0  0  0  0
  139.3440   69.8230  224.1830 C   0  0  0  0  0  0  0  0  0  0  0  0
  139.8720   70.1880  225.4040 C   0  0  0  0  0  0  0  0  0  0  0  0
  139.7670   69.3680  226.5110 C   0  0  0  0  0  0  0  0  0  0  0  0
  140.3020   69.7530  227.7200 C   0  0  0  0  0  0  0  0  0  0  0  0
  140.9590   70.9520  227.8930 C   0  0  0  0  0  0  0  0  0  0  0  0
  141.0680   71.7850  226.7750 C   0  0  0  0  0  0  0  0  0  0  0  0
  140.5330   71.4100  225.5460 C   0  0  0  0  0  0  0  0  0  0  0  0
  140.6660   72.2520  224.4990 N   0  0  0  0  0  0  0  0  0  0  0  0
  139.5350   74.5490  223.1600 H   0  0  0  0  0  0  0  0  0  0  0  0
  139.6067   74.4621  220.2287 H   0  0  0  0  0  0  0  0  0  0  0  0
  139.5150   75.9334  221.2885 H   0  0  0  0  0  0  0  0  0  0  0  0
  143.7725   76.7297  219.3983 H   0  0  0  0  0  0  0  0  0  0  0  0
  142.9351   75.4695  218.5203 H   0  0  0  0  0  0  0  0  0  0  0  0
  141.6102   77.0735  217.2819 H   0  0  0  0  0  0  0  0  0  0  0  0
  143.3120   79.0270  217.2260 H   0  0  0  0  0  0  0  0  0  0  0  0
  142.2920   79.3100  219.1657 H   0  0  0  0  0  0  0  0  0  0  0  0
  140.7521   78.9610  218.3604 H   0  0  0  0  0  0  0  0  0  0  0  0
  140.0475   77.6837  220.1629 H   0  0  0  0  0  0  0  0  0  0  0  0
  140.6420   77.0170  222.6854 H   0  0  0  0  0  0  0  0  0  0  0  0
  141.2326   78.1622  224.7743 H   0  0  0  0  0  0  0  0  0  0  0  0
  142.4742   80.3389  224.6765 H   0  0  0  0  0  0  0  0  0  0  0  0
  143.0814   81.2922  222.4653 H   0  0  0  0  0  0  0  0  0  0  0  0
  142.4680   80.1065  220.3813 H   0  0  0  0  0  0  0  0  0  0  0  0
  139.0763   70.4241  222.1368 H   0  0  0  0  0  0  0  0  0  0  0  0
  138.8214   68.8629  224.0595 H   0  0  0  0  0  0  0  0  0  0  0  0
  139.2519   68.3998  226.4259 H   0  0  0  0  0  0  0  0  0  0  0  0
  140.2010   69.0768  228.5817 H   0  0  0  0  0  0  0  0  0  0  0  0
  141.3792   71.2411  228.8676 H   0  0  0  0  0  0  0  0  0  0  0  0
  141.5846   72.7517  226.8683 H   0  0  0  0  0  0  0  0  0  0  0  0
  1  2  2  0
  2  3  1  0
  3  4  1  0
  4  5  1  0
  5  6  2  0
  5  7  1  0
  7  8  1  0
  8  9  1  0
  9 10  1  0
  9 11  1  0
 11 12  1  0
 12 13  1  0
 13 14  2  0
 14 15  1  0
 15 16  2  0
 16 17  1  0
 17 18  2  0
  2 19  1  0
 19 20  2  0
 20 21  1  0
 21 22  2  0
 22 23  1  0
 23 24  2  0
 24 25  1  0
 25 26  2  0
 26 27  1  0
 27 28  2  0
 12  7  1  0
 18 13  1  0
 28 19  1  0
 27 22  1  0
  3 29  1  0
  4 30  1  0
  4 31  1  0
  8 32  1  0
  8 33  1  0
  9 34  1  6
 10 35  1  0
 11 36  1  0
 11 37  1  0
 12 38  1  6
 14 39  1  0
 15 40  1  0
 16 41  1  0
 17 42  1  0
 18 43  1  0
 20 44  1  0
 21 45  1  0
 23 46  1  0
 24 47  1  0
 25 48  1  0
 26 49  1  0
M  END
>  <smiles>  (3) 
O=C(NCC(=O)N1C[C@H](O)C[C@@H]1c1ccccc1)c1ccc2ccccc2n1

>  <score_type>  (3) 
oracle

>  <origin>  (3) 
autodockgpu

>  <m_score__min__energy>  (3) 
-9.3699999999999992

>  <m_primary>  (3) 
energy

>  <rmsd>  (3) 
2.1176820127790883

>  <m_score__min__rmsd>  (3) 
2.1176820127790883

>  <meeko>  (3) 
{"free_energy": -8.71, "intermolecular_energy": -10.5, "internal_energy": -1.29, "cluster_size": 28, "cluster_id": 1, "rank_in_cluster": 24}

>  <energy>  (3) 
-9.29

>  <cluster_rmsd>  (3) 
0.12

>  <cluster>  (3) 
1

$$$$

     RDKit          3D

 49 52  0  0  0  0  0  0  0  0999 V2000
  141.3910   72.7470  222.0770 O   0  0  0  0  0  0  0  0  0  0  0  0
  140.3120   72.6160  222.6840 C   0  0  0  0  0  0  0  0  0  0  0  0
  139.2180   73.4600  222.3020 N   0  0  0  0  0  0  0  0  0  0  0  0
  139.4400   74.3970  221.2460 C   0  0  0  0  0  0  0  0  0  0  0  0
  139.9470   75.7110  221.7580 C   0  0  0  0  0  0  0  0  0  0  0  0
  139.5710   76.1990  222.8540 O   0  0  0  0  0  0  0  0  0  0  0  0
  140.8910   76.4320  220.9720 N   0  0  0  0  0  0  0  0  0  0  0  0
  142.1020   75.8210  220.4570 C   0  0  0  0  0  0  0  0  0  0  0  0
  142.3670   76.6120  219.2130 C   0  0  2  0  0  0  0  0  0  0  0  0
  143.7040   76.5760  218.8320 O   0  0  0  0  0  0  0  0  0  0  0  0
  141.8740   77.9870  219.5220 C   0  0  0  0  0  0  0  0  0  0  0  0
  140.8080   77.8240  220.5740 C   0  0  2  0  0  0  0  0  0  0  0  0
  140.9960   78.7590  221.7330 C   0  0  0  0  0  0  0  0  0  0  0  0
  142.2440   79.1900  222.1340 C   0  0  0  0  0  0  0  0  0  0  0  0
  142.4410   80.0460  223.1890 C   0  0  0  0  0  0  0  0  0  0  0  0
  141.3350   80.5070  223.8960 C   0  0  0  0  0  0  0  0  0  0  0  0
  140.0740   80.0930  223.5180 C   0  0  0  0  0  0  0  0  0  0  0  0
  139.9120   79.2270  222.4450 C   0  0  0  0  0  0  0  0  0  0  0  0
  140.1320   71.6370  223.7640 C   0  0  0  0  0  0  0  0  0  0  0  0
  139.4020   70.5010  223.4940 C   0  0  0  0  0  0  0  0  0  0  0  0
  139.2070   69.5540  224.4750 C   0  0  0  0  0  0  0  0  0  0  0  0
  139.7580   69.7770  225.7200 C   0  0  0  0  0  0  0  0  0  0  0  0
  139.6040   68.8710  226.7520 C   0  0  0  0  0  0  0  0  0  0  0  0
  140.1640   69.1150  227.9870 C   0  0  0  0  0  0  0  0  0  0  0  0
  140.8950   70.2510  228.2590 C   0  0  0  0  0  0  0  0  0  0  0  0
  141.0540   71.1700  227.2180 C   0  0  0  0  0  0  0  0  0  0  0  0
  140.4940   70.9380  225.9640 C   0  0  0  0  0  0  0  0  0  0  0  0
  140.6790   71.8590  224.9940 N   0  0  0  0  0  0  0  0  0  0  0  0
  138.2830   73.3910  222.7820 H   0  0  0  0  0  0  0  0  0  0  0  0
  140.1808   73.9778  220.5493 H   0  0  0  0  0  0  0  0  0  0  0  0
  138.4780   74.5767  220.7437 H   0  0  0  0  0  0  0  0  0  0  0  0
  142.9311   75.9188  221.1733 H   0  0  0  0  0  0  0  0  0  0  0  0
  142.0021   74.7409  220.2743 H   0  0  0  0  0  0  0  0  0  0  0  0
  141.8472   76.1921  218.3392 H   0  0  0  0  0  0  0  0  0  0  0  0
  144.2940   77.1530  219.3780 H   0  0  0  0  0  0  0  0  0  0  0  0
  142.6958   78.6098  219.9050 H   0  0  0  0  0  0  0  0  0  0  0  0
  141.4782   78.4826  218.6233 H   0  0  0  0  0  0  0  0  0  0  0  0
  139.8118   78.0800  220.1841 H   0  0  0  0  0  0  0  0  0  0  0  0
  143.1242   78.8300  221.5812 H   0  0  0  0  0  0  0  0  0  0  0  0
  143.4563   80.3621  223.4706 H   0  0  0  0  0  0  0  0  0  0  0  0
  141.4641   81.1932  224.7460 H   0  0  0  0  0  0  0  0  0  0  0  0
  139.1924   80.4511  224.0699 H   0  0  0  0  0  0  0  0  0  0  0  0
  138.8993   78.9081  222.1574 H   0  0  0  0  0  0  0  0  0  0  0  0
  138.9735   70.3495  222.4923 H   0  0  0  0  0  0  0  0  0  0  0  0
  138.6263   68.6424  224.2708 H   0  0  0  0  0  0  0  0  0  0  0  0
  139.0297   67.9476  226.5862 H   0  0  0  0  0  0  0  0  0  0  0  0
  140.0220   68.3738  228.7873 H   0  0  0  0  0  0  0  0  0  0  0  0
  141.3342   70.4269  229.2521 H   0  0  0  0  0  0  0  0  0  0  0  0
  141.6303   72.0907  227.3918 H   0  0  0  0  0  0  0  0  0  0  0  0
  1  2  2  0
  2  3  1  0
  3  4  1  0
  4  5  1  0
  5  6  2  0
  5  7  1  0
  7  8  1  0
  8  9  1  0
  9 10  1  0
  9 11  1  0
 11 12  1  0
 12 13  1  0
 13 14  2  0
 14 15  1  0
 15 16  2  0
 16 17  1  0
 17 18  2  0
  2 19  1  0
 19 20  2  0
 20 21  1  0
 21 22  2  0
 22 23  1  0
 23 24  2  0
 24 25  1  0
 25 26  2  0
 26 27  1  0
 27 28  2  0
 12  7  1  0
 18 13  1  0
 28 19  1  0
 27 22  1  0
  3 29  1  0
  4 30  1  0
  4 31  1  0
  8 32  1  0
  8 33  1  0
  9 34  1  6
 10 35  1  0
 11 36  1  0
 11 37  1  0
 12 38  1  6
 14 39  1  0
 15 40  1  0
 16 41  1  0
 17 42  1  0
 18 43  1  0
 20 44  1  0
 21 45  1  0
 23 46  1  0
 24 47  1  0
 25 48  1  0
 26 49  1  0
M  END
>  <smiles>  (4) 
O=C(NCC(=O)N1C[C@H](O)C[C@@H]1c1ccccc1)c1ccc2ccccc2n1

>  <score_type>  (4) 
oracle

>  <origin>  (4) 
autodockgpu

>  <m_score__min__energy>  (4) 
-9.3699999999999992

>  <m_primary>  (4) 
energy

>  <rmsd>  (4) 
1.9708699736065243

>  <m_score__min__rmsd>  (4) 
1.9708699736065243

>  <meeko>  (4) 
{"free_energy": -9.1, "intermolecular_energy": -10.89, "internal_energy": -1.3, "cluster_size": 28, "cluster_id": 1, "rank_in_cluster": 11}

>  <energy>  (4) 
-9.28

>  <cluster_rmsd>  (4) 
0.15

>  <cluster>  (4) 
1

$$$$

     RDKit          3D

 49 52  0  0  0  0  0  0  0  0999 V2000
  140.7150   72.3530  221.0330 O   0  0  0  0  0  0  0  0  0  0  0  0
  140.2600   72.7690  222.1150 C   0  0  0  0  0  0  0  0  0  0  0  0
  139.8710   74.1460  222.1970 N   0  0  0  0  0  0  0  0  0  0  0  0
  140.0300   74.9510  221.0270 C   0  0  0  0  0  0  0  0  0  0  0  0
  141.4660   75.2940  220.7720 C   0  0  0  0  0  0  0  0  0  0  0  0
  142.4160   74.6020  221.2200 O   0  0  0  0  0  0  0  0  0  0  0  0
  141.7650   76.4470  219.9910 N   0  0  0  0  0  0  0  0  0  0  0  0
  142.7870   76.4460  218.9620 C   0  0  0  0  0  0  0  0  0  0  0  0
  142.2920   77.4840  218.0030 C   0  0  2  0  0  0  0  0  0  0  0  0
  143.3120   78.0290  217.2310 O   0  0  0  0  0  0  0  0  0  0  0  0
  141.5910   78.4880  218.8560 C   0  0  0  0  0  0  0  0  0  0  0  0
  141.1320   77.7480  220.0850 C   0  0  2  0  0  0  0  0  0  0  0  0
  141.4910   78.4650  221.3550 C   0  0  0  0  0  0  0  0  0  0  0  0
  141.1850   77.9520  222.5980 C   0  0  0  0  0  0  0  0  0  0  0  0
  141.5040   78.5860  223.7730 C   0  0  0  0  0  0  0  0  0  0  0  0
  142.1680   79.8080  223.7180 C   0  0  0  0  0  0  0  0  0  0  0  0
  142.4860   80.3470  222.4880 C   0  0  0  0  0  0  0  0  0  0  0  0
  142.1480   79.6760  221.3200 C   0  0  0  0  0  0  0  0  0  0  0  0
  140.1150   71.9020  223.2910 C   0  0  0  0  0  0  0  0  0  0  0  0
  139.4120   70.7270  223.1480 C   0  0  0  0  0  0  0  0  0  0  0  0
  139.2490   69.8820  224.2230 C   0  0  0  0  0  0  0  0  0  0  0  0
  139.8070   70.2440  225.4320 C   0  0  0  0  0  0  0  0  0  0  0  0
  139.6860   69.4450  226.5530 C   0  0  0  0  0  0  0  0  0  0  0  0
  140.2520   69.8270  227.7490 C   0  0  0  0  0  0  0  0  0  0  0  0
  140.9570   71.0020  227.8950 C   0  0  0  0  0  0  0  0  0  0  0  0
  141.0830   71.8130  226.7630 C   0  0  0  0  0  0  0  0  0  0  0  0
  140.5170   71.4410  225.5470 C   0  0  0  0  0  0  0  0  0  0  0  0
  140.6690   72.2620  224.4860 N   0  0  0  0  0  0  0  0  0  0  0  0
  139.4790   74.5500  223.0870 H   0  0  0  0  0  0  0  0  0  0  0  0
  139.6375   74.3990  220.1602 H   0  0  0  0  0  0  0  0  0  0  0  0
  139.4792   75.8902  221.1836 H   0  0  0  0  0  0  0  0  0  0  0  0
  143.7671   76.7246  219.3765 H   0  0  0  0  0  0  0  0  0  0  0  0
  142.9372   75.4601  218.4979 H   0  0  0  0  0  0  0  0  0  0  0  0
  141.6114   77.0586  217.2509 H   0  0  0  0  0  0  0  0  0  0  0  0
  143.2800   79.0150  217.1590 H   0  0  0  0  0  0  0  0  0  0  0  0
  142.2798   79.2992  219.1344 H   0  0  0  0  0  0  0  0  0  0  0  0
  140.7438   78.9448  218.3234 H   0  0  0  0  0  0  0  0  0  0  0  0
  140.0356   77.6682  220.1244 H   0  0  0  0  0  0  0  0  0  0  0  0
  140.6593   76.9872  222.6505 H   0  0  0  0  0  0  0  0  0  0  0  0
  141.2394   78.1361  224.7413 H   0  0  0  0  0  0  0  0  0  0  0  0
  142.4361   80.3379  224.6439 H   0  0  0  0  0  0  0  0  0  0  0  0
  143.0097   81.3127  222.4325 H   0  0  0  0  0  0  0  0  0  0  0  0
  142.4097   80.1197  220.3481 H   0  0  0  0  0  0  0  0  0  0  0  0
  138.9792   70.4623  222.1720 H   0  0  0  0  0  0  0  0  0  0  0  0
  138.6877   68.9415  224.1205 H   0  0  0  0  0  0  0  0  0  0  0  0
  139.1331   68.4962  226.4895 H   0  0  0  0  0  0  0  0  0  0  0  0
  140.1367   69.1681  228.6223 H   0  0  0  0  0  0  0  0  0  0  0  0
  141.4010   71.2892  228.8595 H   0  0  0  0  0  0  0  0  0  0  0  0
  141.6382   72.7599  226.8346 H   0  0  0  0  0  0  0  0  0  0  0  0
  1  2  2  0
  2  3  1  0
  3  4  1  0
  4  5  1  0
  5  6  2  0
  5  7  1  0
  7  8  1  0
  8  9  1  0
  9 10  1  0
  9 11  1  0
 11 12  1  0
 12 13  1  0
 13 14  2  0
 14 15  1  0
 15 16  2  0
 16 17  1  0
 17 18  2  0
  2 19  1  0
 19 20  2  0
 20 21  1  0
 21 22  2  0
 22 23  1  0
 23 24  2  0
 24 25  1  0
 25 26  2  0
 26 27  1  0
 27 28  2  0
 12  7  1  0
 18 13  1  0
 28 19  1  0
 27 22  1  0
  3 29  1  0
  4 30  1  0
  4 31  1  0
  8 32  1  0
  8 33  1  0
  9 34  1  6
 10 35  1  0
 11 36  1  0
 11 37  1  0
 12 38  1  6
 14 39  1  0
 15 40  1  0
 16 41  1  0
 17 42  1  0
 18 43  1  0
 20 44  1  0
 21 45  1  0
 23 46  1  0
 24 47  1  0
 25 48  1  0
 26 49  1  0
M  END
>  <smiles>  (5) 
O=C(NCC(=O)N1C[C@H](O)C[C@@H]1c1ccccc1)c1ccc2ccccc2n1

>  <score_type>  (5) 
oracle

>  <origin>  (5) 
autodockgpu

>  <m_score__min__energy>  (5) 
-9.3699999999999992

>  <m_primary>  (5) 
energy

>  <rmsd>  (5) 
2.114986998935516

>  <m_score__min__rmsd>  (5) 
2.114986998935516

>  <meeko>  (5) 
{"free_energy": -8.73, "intermolecular_energy": -10.52, "internal_energy": -1.28, "cluster_size": 28, "cluster_id": 1, "rank_in_cluster": 21}

>  <energy>  (5) 
-9.26

>  <cluster_rmsd>  (5) 
0.6

>  <cluster>  (5) 
1

$$$$

     RDKit          3D

 49 52  0  0  0  0  0  0  0  0999 V2000
  140.5020   73.9130  220.1860 O   0  0  0  0  0  0  0  0  0  0  0  0
  140.2860   74.6240  221.1840 C   0  0  0  0  0  0  0  0  0  0  0  0
  139.5200   74.0630  222.2580 N   0  0  0  0  0  0  0  0  0  0  0  0
  139.0540   72.7210  222.1100 C   0  0  0  0  0  0  0  0  0  0  0  0
  139.8190   71.7620  222.9710 C   0  0  0  0  0  0  0  0  0  0  0  0
  141.0730   71.7790  223.0530 O   0  0  0  0  0  0  0  0  0  0  0  0
  139.0940   70.7960  223.7270 N   0  0  0  0  0  0  0  0  0  0  0  0
  137.6550   70.6500  223.6260 C   0  0  0  0  0  0  0  0  0  0  0  0
  137.4450   69.2050  223.9570 C   0  0  2  0  0  0  0  0  0  0  0  0
  136.1630   68.9440  224.4280 O   0  0  0  0  0  0  0  0  0  0  0  0
  138.5170   68.8790  224.9430 C   0  0  0  0  0  0  0  0  0  0  0  0
  139.6420   69.8440  224.6740 C   0  0  2  0  0  0  0  0  0  0  0  0
  140.1410   70.5090  225.9250 C   0  0  0  0  0  0  0  0  0  0  0  0
  140.9740   71.6080  225.8890 C   0  0  0  0  0  0  0  0  0  0  0  0
  141.4420   72.2340  227.0180 C   0  0  0  0  0  0  0  0  0  0  0  0
  141.0630   71.7440  228.2640 C   0  0  0  0  0  0  0  0  0  0  0  0
  140.2310   70.6450  228.3310 C   0  0  0  0  0  0  0  0  0  0  0  0
  139.7760   70.0370  227.1680 C   0  0  0  0  0  0  0  0  0  0  0  0
  140.7870   76.0000  221.2910 C   0  0  0  0  0  0  0  0  0  0  0  0
  141.4350   76.5410  220.2030 C   0  0  0  0  0  0  0  0  0  0  0  0
  141.9220   77.8280  220.2560 C   0  0  0  0  0  0  0  0  0  0  0  0
  141.7410   78.5500  221.4180 C   0  0  0  0  0  0  0  0  0  0  0  0
  142.2020   79.8470  221.5430 C   0  0  0  0  0  0  0  0  0  0  0  0
  142.0090   80.5480  222.7120 C   0  0  0  0  0  0  0  0  0  0  0  0
  141.3600   80.0100  223.8020 C   0  0  0  0  0  0  0  0  0  0  0  0
  140.8920   78.6990  223.6800 C   0  0  0  0  0  0  0  0  0  0  0  0
  141.0790   77.9760  222.5050 C   0  0  0  0  0  0  0  0  0  0  0  0
  140.6060   76.7130  222.4410 N   0  0  0  0  0  0  0  0  0  0  0  0
  139.3090   74.6210  223.1270 H   0  0  0  0  0  0  0  0  0  0  0  0
  137.9914   72.6811  222.3917 H   0  0  0  0  0  0  0  0  0  0  0  0
  139.1992   72.4251  221.0606 H   0  0  0  0  0  0  0  0  0  0  0  0
  137.1390   71.3009  224.3472 H   0  0  0  0  0  0  0  0  0  0  0  0
  137.2562   70.9339  222.6409 H   0  0  0  0  0  0  0  0  0  0  0  0
  137.5177   68.5647  223.0655 H   0  0  0  0  0  0  0  0  0  0  0  0
  135.4870   68.8330  223.7140 H   0  0  0  0  0  0  0  0  0  0  0  0
  138.1426   69.0061  225.9695 H   0  0  0  0  0  0  0  0  0  0  0  0
  138.8507   67.8357  224.8424 H   0  0  0  0  0  0  0  0  0  0  0  0
  140.5286   69.3310  224.2730 H   0  0  0  0  0  0  0  0  0  0  0  0
  141.2781   72.0021  224.9081 H   0  0  0  0  0  0  0  0  0  0  0  0
  142.1052   73.1080  226.9388 H   0  0  0  0  0  0  0  0  0  0  0  0
  141.4223   72.2269  229.1847 H   0  0  0  0  0  0  0  0  0  0  0  0
  139.9265   70.2483  229.3108 H   0  0  0  0  0  0  0  0  0  0  0  0
  139.1122   69.1628  227.2400 H   0  0  0  0  0  0  0  0  0  0  0  0
  141.5640   75.9432  219.2887 H   0  0  0  0  0  0  0  0  0  0  0  0
  142.4424   78.2696  219.3934 H   0  0  0  0  0  0  0  0  0  0  0  0
  142.7272   80.3229  220.7018 H   0  0  0  0  0  0  0  0  0  0  0  0
  142.3879   81.5785  222.7786 H   0  0  0  0  0  0  0  0  0  0  0  0
  141.2166   80.5871  224.7274 H   0  0  0  0  0  0  0  0  0  0  0  0
  140.3674   78.2307  224.5259 H   0  0  0  0  0  0  0  0  0  0  0  0
  1  2  2  0
  2  3  1  0
  3  4  1  0
  4  5  1  0
  5  6  2  0
  5  7  1  0
  7  8  1  0
  8  9  1  0
  9 10  1  0
  9 11  1  0
 11 12  1  0
 12 13  1  0
 13 14  2  0
 14 15  1  0
 15 16  2  0
 16 17  1  0
 17 18  2  0
  2 19  1  0
 19 20  2  0
 20 21  1  0
 21 22  2  0
 22 23  1  0
 23 24  2  0
 24 25  1  0
 25 26  2  0
 26 27  1  0
 27 28  2  0
 12  7  1  0
 18 13  1  0
 28 19  1  0
 27 22  1  0
  3 29  1  0
  4 30  1  0
  4 31  1  0
  8 32  1  0
  8 33  1  0
  9 34  1  6
 10 35  1  0
 11 36  1  0
 11 37  1  0
 12 38  1  6
 14 39  1  0
 15 40  1  0
 16 41  1  0
 17 42  1  0
 18 43  1  0
 20 44  1  0
 21 45  1  0
 23 46  1  0
 24 47  1  0
 25 48  1  0
 26 49  1  0
M  END
>  <smiles>  (6) 
O=C(NCC(=O)N1C[C@H](O)C[C@@H]1c1ccccc1)c1ccc2ccccc2n1

>  <score_type>  (6) 
oracle

>  <origin>  (6) 
autodockgpu

>  <m_score__min__energy>  (6) 
-9.3699999999999992

>  <m_primary>  (6) 
energy

>  <rmsd>  (6) 
8.39410275430332

>  <m_score__min__rmsd>  (6) 
8.39410275430332

>  <meeko>  (6) 
{"free_energy": -8.9, "intermolecular_energy": -10.69, "internal_energy": -1.34, "cluster_size": 18, "cluster_id": 2, "rank_in_cluster": 13}

>  <energy>  (6) 
-9.21

>  <cluster_rmsd>  (6) 
0.84

>  <cluster>  (6) 
1

$$$$

     RDKit          3D

 49 52  0  0  0  0  0  0  0  0999 V2000
  141.0430   72.4420  221.6500 O   0  0  0  0  0  0  0  0  0  0  0  0
  140.1330   72.4560  222.4990 C   0  0  0  0  0  0  0  0  0  0  0  0
  139.0850   73.4210  222.3470 N   0  0  0  0  0  0  0  0  0  0  0  0
  139.1550   74.3050  221.2260 C   0  0  0  0  0  0  0  0  0  0  0  0
  139.7640   75.6250  221.5880 C   0  0  0  0  0  0  0  0  0  0  0  0
  139.2250   76.4170  222.4030 O   0  0  0  0  0  0  0  0  0  0  0  0
  141.0000   75.9950  220.9850 N   0  0  0  0  0  0  0  0  0  0  0  0
  142.0930   75.0570  220.8120 C   0  0  0  0  0  0  0  0  0  0  0  0
  142.7990   75.5900  219.6040 C   0  0  2  0  0  0  0  0  0  0  0  0
  144.1300   75.1950  219.5440 O   0  0  0  0  0  0  0  0  0  0  0  0
  142.6220   77.0710  219.6810 C   0  0  0  0  0  0  0  0  0  0  0  0
  141.3590   77.3020  220.4680 C   0  0  2  0  0  0  0  0  0  0  0  0
  141.5410   78.3150  221.5620 C   0  0  0  0  0  0  0  0  0  0  0  0
  141.8080   79.6420  221.2960 C   0  0  0  0  0  0  0  0  0  0  0  0
  141.9760   80.5870  222.2770 C   0  0  0  0  0  0  0  0  0  0  0  0
  141.8760   80.1980  223.6090 C   0  0  0  0  0  0  0  0  0  0  0  0
  141.6100   78.8760  223.9060 C   0  0  0  0  0  0  0  0  0  0  0  0
  141.4450   77.9480  222.8870 C   0  0  0  0  0  0  0  0  0  0  0  0
  140.1050   71.5260  223.6360 C   0  0  0  0  0  0  0  0  0  0  0  0
  139.5670   70.2740  223.4360 C   0  0  0  0  0  0  0  0  0  0  0  0
  139.5190   69.3680  224.4720 C   0  0  0  0  0  0  0  0  0  0  0  0
  140.0210   69.7480  225.6990 C   0  0  0  0  0  0  0  0  0  0  0  0
  140.0070   68.8920  226.7840 C   0  0  0  0  0  0  0  0  0  0  0  0
  140.5140   69.2930  228.0000 C   0  0  0  0  0  0  0  0  0  0  0  0
  141.0540   70.5450  228.2020 C   0  0  0  0  0  0  0  0  0  0  0  0
  141.0710   71.4150  227.1080 C   0  0  0  0  0  0  0  0  0  0  0  0
  140.5620   71.0240  225.8720 C   0  0  0  0  0  0  0  0  0  0  0  0
  140.6030   71.9040  224.8480 N   0  0  0  0  0  0  0  0  0  0  0  0
  138.2900   73.4770  223.0360 H   0  0  0  0  0  0  0  0  0  0  0  0
  139.7663   73.8354  220.4413 H   0  0  0  0  0  0  0  0  0  0  0  0
  138.1290   74.4896  220.8749 H   0  0  0  0  0  0  0  0  0  0  0  0
  142.7560   75.0548  221.6897 H   0  0  0  0  0  0  0  0  0  0  0  0
  141.7590   74.0153  220.6971 H   0  0  0  0  0  0  0  0  0  0  0  0
  142.3780   75.1877  218.6708 H   0  0  0  0  0  0  0  0  0  0  0  0
  144.5570   75.3480  218.6650 H   0  0  0  0  0  0  0  0  0  0  0  0
  143.4799   77.5316  220.1927 H   0  0  0  0  0  0  0  0  0  0  0  0
  142.5580   77.5200  218.6789 H   0  0  0  0  0  0  0  0  0  0  0  0
  140.5625   77.7268  219.8395 H   0  0  0  0  0  0  0  0  0  0  0  0
  141.8903   79.9584  220.2457 H   0  0  0  0  0  0  0  0  0  0  0  0
  142.1862   81.6343  222.0145 H   0  0  0  0  0  0  0  0  0  0  0  0
  142.0072   80.9344  224.4155 H   0  0  0  0  0  0  0  0  0  0  0  0
  141.5284   78.5566  224.9555 H   0  0  0  0  0  0  0  0  0  0  0  0
  141.2335   76.8991  223.1420 H   0  0  0  0  0  0  0  0  0  0  0  0
  139.1747   69.9971  222.4463 H   0  0  0  0  0  0  0  0  0  0  0  0
  139.0907   68.3656  224.3244 H   0  0  0  0  0  0  0  0  0  0  0  0
  139.5871   67.8811  226.6753 H   0  0  0  0  0  0  0  0  0  0  0  0
  140.4870   68.5867  228.8429 H   0  0  0  0  0  0  0  0  0  0  0  0
  141.4541   70.8464  229.1813 H   0  0  0  0  0  0  0  0  0  0  0  0
  141.4929   72.4241  227.2252 H   0  0  0  0  0  0  0  0  0  0  0  0
  1  2  2  0
  2  3  1  0
  3  4  1  0
  4  5  1  0
  5  6  2  0
  5  7  1  0
  7  8  1  0
  8  9  1  0
  9 10  1  0
  9 11  1  0
 11 12  1  0
 12 13  1  0
 13 14  2  0
 14 15  1  0
 15 16  2  0
 16 17  1  0
 17 18  2  0
  2 19  1  0
 19 20  2  0
 20 21  1  0
 21 22  2  0
 22 23  1  0
 23 24  2  0
 24 25  1  0
 25 26  2  0
 26 27  1  0
 27 28  2  0
 12  7  1  0
 18 13  1  0
 28 19  1  0
 27 22  1  0
  3 29  1  0
  4 30  1  0
  4 31  1  0
  8 32  1  0
  8 33  1  0
  9 34  1  6
 10 35  1  0
 11 36  1  0
 11 37  1  0
 12 38  1  6
 14 39  1  0
 15 40  1  0
 16 41  1  0
 17 42  1  0
 18 43  1  0
 20 44  1  0
 21 45  1  0
 23 46  1  0
 24 47  1  0
 25 48  1  0
 26 49  1  0
M  END
>  <smiles>  (7) 
O=C(NCC(=O)N1C[C@H](O)C[C@@H]1c1ccccc1)c1ccc2ccccc2n1

>  <score_type>  (7) 
oracle

>  <origin>  (7) 
autodockgpu

>  <m_score__min__energy>  (7) 
-9.3699999999999992

>  <m_primary>  (7) 
energy

>  <rmsd>  (7) 
1.9589273625661852

>  <m_score__min__rmsd>  (7) 
1.9589273625661852

>  <meeko>  (7) 
{"free_energy": -9.34, "intermolecular_energy": -11.13, "internal_energy": -1.17, "cluster_size": 28, "cluster_id": 1, "rank_in_cluster": 2}

>  <energy>  (7) 
-9.19

>  <cluster_rmsd>  (7) 
0.85

>  <cluster>  (7) 
1

$$$$

     RDKit          3D

 49 52  0  0  0  0  0  0  0  0999 V2000
  140.8880   74.3910  221.4270 O   0  0  0  0  0  0  0  0  0  0  0  0
  139.9110   74.9230  221.9860 C   0  0  0  0  0  0  0  0  0  0  0  0
  138.7770   74.1000  222.2870 N   0  0  0  0  0  0  0  0  0  0  0  0
  138.8460   72.7190  221.9260 C   0  0  0  0  0  0  0  0  0  0  0  0
  139.6260   71.9160  222.9210 C   0  0  0  0  0  0  0  0  0  0  0  0
  140.8400   72.1370  223.1650 O   0  0  0  0  0  0  0  0  0  0  0  0
  138.9660   70.8620  223.6160 N   0  0  0  0  0  0  0  0  0  0  0  0
  137.5350   70.6470  223.5250 C   0  0  0  0  0  0  0  0  0  0  0  0
  137.4060   69.1740  223.7570 C   0  0  2  0  0  0  0  0  0  0  0  0
  136.1470   68.8140  224.2250 O   0  0  0  0  0  0  0  0  0  0  0  0
  138.5100   68.8380  224.7030 C   0  0  0  0  0  0  0  0  0  0  0  0
  139.5790   69.8780  224.4870 C   0  0  2  0  0  0  0  0  0  0  0  0
  140.0640   70.4800  225.7740 C   0  0  0  0  0  0  0  0  0  0  0  0
  141.0040   71.4890  225.8050 C   0  0  0  0  0  0  0  0  0  0  0  0
  141.4620   72.0560  226.9680 C   0  0  0  0  0  0  0  0  0  0  0  0
  140.9590   71.5990  228.1820 C   0  0  0  0  0  0  0  0  0  0  0  0
  140.0170   70.5900  228.1830 C   0  0  0  0  0  0  0  0  0  0  0  0
  139.5770   70.0390  226.9870 C   0  0  0  0  0  0  0  0  0  0  0  0
  139.8880   76.3490  222.3390 C   0  0  0  0  0  0  0  0  0  0  0  0
  138.6670   76.9840  222.3900 C   0  0  0  0  0  0  0  0  0  0  0  0
  138.5960   78.3200  222.7170 C   0  0  0  0  0  0  0  0  0  0  0  0
  139.7690   78.9930  222.9880 C   0  0  0  0  0  0  0  0  0  0  0  0
  139.7740   80.3340  223.3230 C   0  0  0  0  0  0  0  0  0  0  0  0
  140.9590   80.9840  223.5900 C   0  0  0  0  0  0  0  0  0  0  0  0
  142.1810   80.3500  223.5400 C   0  0  0  0  0  0  0  0  0  0  0  0
  142.1810   78.9940  223.2010 C   0  0  0  0  0  0  0  0  0  0  0  0
  140.9930   78.3220  222.9290 C   0  0  0  0  0  0  0  0  0  0  0  0
  141.0500   77.0120  222.6070 N   0  0  0  0  0  0  0  0  0  0  0  0
  137.9240   74.4980  222.7600 H   0  0  0  0  0  0  0  0  0  0  0  0
  137.8242   72.3160  221.8676 H   0  0  0  0  0  0  0  0  0  0  0  0
  139.3588   72.6473  220.9555 H   0  0  0  0  0  0  0  0  0  0  0  0
  136.9986   71.2182  224.2969 H   0  0  0  0  0  0  0  0  0  0  0  0
  137.1050   70.9766  222.5677 H   0  0  0  0  0  0  0  0  0  0  0  0
  137.4969   68.6009  222.8225 H   0  0  0  0  0  0  0  0  0  0  0  0
  135.6390   69.5600  224.6300 H   0  0  0  0  0  0  0  0  0  0  0  0
  138.1472   68.8738  225.7408 H   0  0  0  0  0  0  0  0  0  0  0  0
  138.8957   67.8233  224.5251 H   0  0  0  0  0  0  0  0  0  0  0  0
  140.4844   69.4422  224.0395 H   0  0  0  0  0  0  0  0  0  0  0  0
  141.4066   71.8576  224.8500 H   0  0  0  0  0  0  0  0  0  0  0  0
  142.2141   72.8582  226.9407 H   0  0  0  0  0  0  0  0  0  0  0  0
  141.3076   72.0363  229.1292 H   0  0  0  0  0  0  0  0  0  0  0  0
  139.6126   70.2204  229.1369 H   0  0  0  0  0  0  0  0  0  0  0  0
  138.8259   69.2356  227.0070 H   0  0  0  0  0  0  0  0  0  0  0  0
  137.7468   76.4232  222.1692 H   0  0  0  0  0  0  0  0  0  0  0  0
  137.6266   78.8381  222.7610 H   0  0  0  0  0  0  0  0  0  0  0  0
  138.8244   80.8865  223.3768 H   0  0  0  0  0  0  0  0  0  0  0  0
  140.9282   82.0515  223.8535 H   0  0  0  0  0  0  0  0  0  0  0  0
  143.1159   80.8874  223.7573 H   0  0  0  0  0  0  0  0  0  0  0  0
  143.1352   78.4493  223.1484 H   0  0  0  0  0  0  0  0  0  0  0  0
  1  2  2  0
  2  3  1  0
  3  4  1  0
  4  5  1  0
  5  6  2  0
  5  7  1  0
  7  8  1  0
  8  9  1  0
  9 10  1  0
  9 11  1  0
 11 12  1  0
 12 13  1  0
 13 14  2  0
 14 15  1  0
 15 16  2  0
 16 17  1  0
 17 18  2  0
  2 19  1  0
 19 20  2  0
 20 21  1  0
 21 22  2  0
 22 23  1  0
 23 24  2  0
 24 25  1  0
 25 26  2  0
 26 27  1  0
 27 28  2  0
 12  7  1  0
 18 13  1  0
 28 19  1  0
 27 22  1  0
  3 29  1  0
  4 30  1  0
  4 31  1  0
  8 32  1  0
  8 33  1  0
  9 34  1  6
 10 35  1  0
 11 36  1  0
 11 37  1  0
 12 38  1  6
 14 39  1  0
 15 40  1  0
 16 41  1  0
 17 42  1  0
 18 43  1  0
 20 44  1  0
 21 45  1  0
 23 46  1  0
 24 47  1  0
 25 48  1  0
 26 49  1  0
M  END
>  <smiles>  (8) 
O=C(NCC(=O)N1C[C@H](O)C[C@@H]1c1ccccc1)c1ccc2ccccc2n1

>  <score_type>  (8) 
oracle

>  <origin>  (8) 
autodockgpu

>  <m_score__min__energy>  (8) 
-9.3699999999999992

>  <m_primary>  (8) 
energy

>  <rmsd>  (8) 
8.308111883761883

>  <m_score__min__rmsd>  (8) 
8.308111883761883

>  <meeko>  (8) 
{"free_energy": -9.21, "intermolecular_energy": -11.0, "internal_energy": -1.05, "cluster_size": 18, "cluster_id": 2, "rank_in_cluster": 4}

>  <energy>  (8) 
-9.18

>  <cluster_rmsd>  (8) 
0.65

>  <cluster>  (8) 
1

$$$$

     RDKit          3D

 49 52  0  0  0  0  0  0  0  0999 V2000
  140.8930   74.4450  221.4090 O   0  0  0  0  0  0  0  0  0  0  0  0
  139.9320   74.9960  221.9770 C   0  0  0  0  0  0  0  0  0  0  0  0
  138.7830   74.1960  222.2850 N   0  0  0  0  0  0  0  0  0  0  0  0
  138.8190   72.8150  221.9190 C   0  0  0  0  0  0  0  0  0  0  0  0
  139.6070   71.9950  222.8950 C   0  0  0  0  0  0  0  0  0  0  0  0
  140.8230   72.2120  223.1320 O   0  0  0  0  0  0  0  0  0  0  0  0
  138.9530   70.9320  223.5790 N   0  0  0  0  0  0  0  0  0  0  0  0
  137.5190   70.7250  223.5050 C   0  0  0  0  0  0  0  0  0  0  0  0
  137.3860   69.2470  223.7100 C   0  0  2  0  0  0  0  0  0  0  0  0
  136.1330   68.8840  224.1890 O   0  0  0  0  0  0  0  0  0  0  0  0
  138.5030   68.8890  224.6330 C   0  0  0  0  0  0  0  0  0  0  0  0
  139.5730   69.9280  224.4220 C   0  0  2  0  0  0  0  0  0  0  0  0
  140.0780   70.5030  225.7140 C   0  0  0  0  0  0  0  0  0  0  0  0
  139.6680   70.0240  226.9410 C   0  0  0  0  0  0  0  0  0  0  0  0
  140.1170   70.5320  228.1350 C   0  0  0  0  0  0  0  0  0  0  0  0
  141.0310   71.5820  228.1180 C   0  0  0  0  0  0  0  0  0  0  0  0
  141.4590   72.0820  226.9050 C   0  0  0  0  0  0  0  0  0  0  0  0
  140.9840   71.5430  225.7160 C   0  0  0  0  0  0  0  0  0  0  0  0
  139.9420   76.4200  222.3340 C   0  0  0  0  0  0  0  0  0  0  0  0
  138.7340   77.0760  222.4200 C   0  0  0  0  0  0  0  0  0  0  0  0
  138.6940   78.4120  222.7520 C   0  0  0  0  0  0  0  0  0  0  0  0
  139.8850   79.0640  222.9930 C   0  0  0  0  0  0  0  0  0  0  0  0
  139.9220   80.4030  223.3320 C   0  0  0  0  0  0  0  0  0  0  0  0
  141.1240   81.0330  223.5680 C   0  0  0  0  0  0  0  0  0  0  0  0
  142.3340   80.3790  223.4840 C   0  0  0  0  0  0  0  0  0  0  0  0
  142.3020   79.0240  223.1420 C   0  0  0  0  0  0  0  0  0  0  0  0
  141.0950   78.3730  222.8990 C   0  0  0  0  0  0  0  0  0  0  0  0
  141.1220   77.0630  222.5730 N   0  0  0  0  0  0  0  0  0  0  0  0
  137.9430   74.6110  222.7660 H   0  0  0  0  0  0  0  0  0  0  0  0
  137.7890   72.4305  221.8825 H   0  0  0  0  0  0  0  0  0  0  0  0
  139.3085   72.7368  220.9370 H   0  0  0  0  0  0  0  0  0  0  0  0
  136.9968   71.2833  224.2959 H   0  0  0  0  0  0  0  0  0  0  0  0
  137.0766   71.0752  222.5608 H   0  0  0  0  0  0  0  0  0  0  0  0
  137.4599   68.6909  222.7638 H   0  0  0  0  0  0  0  0  0  0  0  0
  135.4970   68.6090  223.4830 H   0  0  0  0  0  0  0  0  0  0  0  0
  138.1555   68.9061  225.6765 H   0  0  0  0  0  0  0  0  0  0  0  0
  138.8820   67.8767  224.4293 H   0  0  0  0  0  0  0  0  0  0  0  0
  140.4697   69.4968  223.9531 H   0  0  0  0  0  0  0  0  0  0  0  0
  138.9460   69.1944  226.9640 H   0  0  0  0  0  0  0  0  0  0  0  0
  139.7605   70.1163  229.0890 H   0  0  0  0  0  0  0  0  0  0  0  0
  141.4074   72.0078  229.0598 H   0  0  0  0  0  0  0  0  0  0  0  0
  142.1804   72.9121  226.8795 H   0  0  0  0  0  0  0  0  0  0  0  0
  141.3370   71.9532  224.7583 H   0  0  0  0  0  0  0  0  0  0  0  0
  137.7988   76.5314  222.2230 H   0  0  0  0  0  0  0  0  0  0  0  0
  137.7350   78.9462  222.8232 H   0  0  0  0  0  0  0  0  0  0  0  0
  138.9834   80.9708  223.4141 H   0  0  0  0  0  0  0  0  0  0  0  0
  141.1177   82.1003  223.8340 H   0  0  0  0  0  0  0  0  0  0  0  0
  143.2832   80.9002  223.6775 H   0  0  0  0  0  0  0  0  0  0  0  0
  143.2450   78.4631  223.0636 H   0  0  0  0  0  0  0  0  0  0  0  0
  1  2  2  0
  2  3  1  0
  3  4  1  0
  4  5  1  0
  5  6  2  0
  5  7  1  0
  7  8  1  0
  8  9  1  0
  9 10  1  0
  9 11  1  0
 11 12  1  0
 12 13  1  0
 13 14  2  0
 14 15  1  0
 15 16  2  0
 16 17  1  0
 17 18  2  0
  2 19  1  0
 19 20  2  0
 20 21  1  0
 21 22  2  0
 22 23  1  0
 23 24  2  0
 24 25  1  0
 25 26  2  0
 26 27  1  0
 27 28  2  0
 12  7  1  0
 18 13  1  0
 28 19  1  0
 27 22  1  0
  3 29  1  0
  4 30  1  0
  4 31  1  0
  8 32  1  0
  8 33  1  0
  9 34  1  6
 10 35  1  0
 11 36  1  0
 11 37  1  0
 12 38  1  6
 14 39  1  0
 15 40  1  0
 16 41  1  0
 17 42  1  0
 18 43  1  0
 20 44  1  0
 21 45  1  0
 23 46  1  0
 24 47  1  0
 25 48  1  0
 26 49  1  0
M  END
>  <smiles>  (9) 
O=C(NCC(=O)N1C[C@H](O)C[C@@H]1c1ccccc1)c1ccc2ccccc2n1

>  <score_type>  (9) 
oracle

>  <origin>  (9) 
autodockgpu

>  <m_score__min__energy>  (9) 
-9.3699999999999992

>  <m_primary>  (9) 
energy

>  <rmsd>  (9) 
8.318118817058044

>  <m_score__min__rmsd>  (9) 
8.318118817058044

>  <meeko>  (9) 
{"free_energy": -9.27, "intermolecular_energy": -11.06, "internal_energy": -0.99, "cluster_size": 18, "cluster_id": 2, "rank_in_cluster": 1}

>  <energy>  (9) 
-9.17

>  <cluster_rmsd>  (9) 
0.88

>  <cluster>  (9) 
1

$$$$

     RDKit          3D

 49 52  0  0  0  0  0  0  0  0999 V2000
  140.8470   74.3520  221.4640 O   0  0  0  0  0  0  0  0  0  0  0  0
  139.8630   74.9020  221.9930 C   0  0  0  0  0  0  0  0  0  0  0  0
  138.7150   74.0950  222.2840 N   0  0  0  0  0  0  0  0  0  0  0  0
  138.7780   72.7080  221.9470 C   0  0  0  0  0  0  0  0  0  0  0  0
  139.5530   71.9190  222.9580 C   0  0  0  0  0  0  0  0  0  0  0  0
  140.7670   72.1390  223.2010 O   0  0  0  0  0  0  0  0  0  0  0  0
  138.8870   70.8810  223.6710 N   0  0  0  0  0  0  0  0  0  0  0  0
  137.4500   70.6940  223.6120 C   0  0  0  0  0  0  0  0  0  0  0  0
  137.2960   69.2240  223.8510 C   0  0  2  0  0  0  0  0  0  0  0  0
  136.0410   68.8910  224.3470 O   0  0  0  0  0  0  0  0  0  0  0  0
  138.4140   68.8690  224.7740 C   0  0  0  0  0  0  0  0  0  0  0  0
  139.4990   69.8860  224.5320 C   0  0  2  0  0  0  0  0  0  0  0  0
  140.0230   70.4820  225.8060 C   0  0  0  0  0  0  0  0  0  0  0  0
  140.9050   71.5430  225.8120 C   0  0  0  0  0  0  0  0  0  0  0  0
  141.3970   72.1060  226.9630 C   0  0  0  0  0  0  0  0  0  0  0  0
  140.9930   71.5880  228.1910 C   0  0  0  0  0  0  0  0  0  0  0  0
  140.1130   70.5260  228.2160 C   0  0  0  0  0  0  0  0  0  0  0  0
  139.6350   69.9820  227.0310 C   0  0  0  0  0  0  0  0  0  0  0  0
  139.8470   76.3340  222.3200 C   0  0  0  0  0  0  0  0  0  0  0  0
  141.0500   77.0020  222.3670 C   0  0  0  0  0  0  0  0  0  0  0  0
  141.0840   78.3450  222.6700 C   0  0  0  0  0  0  0  0  0  0  0  0
  139.8910   78.9920  222.9210 C   0  0  0  0  0  0  0  0  0  0  0  0
  139.8490   80.3380  223.2310 C   0  0  0  0  0  0  0  0  0  0  0  0
  138.6460   80.9620  223.4770 C   0  0  0  0  0  0  0  0  0  0  0  0
  137.4400   80.2950  223.4300 C   0  0  0  0  0  0  0  0  0  0  0  0
  137.4780   78.9330  223.1160 C   0  0  0  0  0  0  0  0  0  0  0  0
  138.6860   78.2880  222.8650 C   0  0  0  0  0  0  0  0  0  0  0  0
  138.6660   76.9710  222.5670 N   0  0  0  0  0  0  0  0  0  0  0  0
  137.8570   74.5090  222.7310 H   0  0  0  0  0  0  0  0  0  0  0  0
  137.7544   72.3087  221.8938 H   0  0  0  0  0  0  0  0  0  0  0  0
  139.2918   72.6168  220.9786 H   0  0  0  0  0  0  0  0  0  0  0  0
  136.9422   71.2778  224.3939 H   0  0  0  0  0  0  0  0  0  0  0  0
  137.0060   71.0295  222.6631 H   0  0  0  0  0  0  0  0  0  0  0  0
  137.3545   68.6462  222.9168 H   0  0  0  0  0  0  0  0  0  0  0  0
  135.6390   69.5870  224.9240 H   0  0  0  0  0  0  0  0  0  0  0  0
  138.0746   68.9152  225.8193 H   0  0  0  0  0  0  0  0  0  0  0  0
  138.7754   67.8464  224.5906 H   0  0  0  0  0  0  0  0  0  0  0  0
  140.3854   69.4301  224.0667 H   0  0  0  0  0  0  0  0  0  0  0  0
  141.2299   71.9582  224.8466 H   0  0  0  0  0  0  0  0  0  0  0  0
  142.0985   72.9520  226.9163 H   0  0  0  0  0  0  0  0  0  0  0  0
  141.3709   72.0203  229.1292 H   0  0  0  0  0  0  0  0  0  0  0  0
  139.7880   70.1076  229.1800 H   0  0  0  0  0  0  0  0  0  0  0  0
  138.9332   69.1358  227.0704 H   0  0  0  0  0  0  0  0  0  0  0  0
  141.9860   76.4618  222.1621 H   0  0  0  0  0  0  0  0  0  0  0  0
  142.0392   78.8890  222.7110 H   0  0  0  0  0  0  0  0  0  0  0  0
  140.7837   80.9157  223.2817 H   0  0  0  0  0  0  0  0  0  0  0  0
  138.6473   82.0347  223.7206 H   0  0  0  0  0  0  0  0  0  0  0  0
  136.4899   80.8117  223.6307 H   0  0  0  0  0  0  0  0  0  0  0  0
  136.5389   78.3623  223.0665 H   0  0  0  0  0  0  0  0  0  0  0  0
  1  2  2  0
  2  3  1  0
  3  4  1  0
  4  5  1  0
  5  6  2  0
  5  7  1  0
  7  8  1  0
  8  9  1  0
  9 10  1  0
  9 11  1  0
 11 12  1  0
 12 13  1  0
 13 14  2  0
 14 15  1  0
 15 16  2  0
 16 17  1  0
 17 18  2  0
  2 19  1  0
 19 20  2  0
 20 21  1  0
 21 22  2  0
 22 23  1  0
 23 24  2  0
 24 25  1  0
 25 26  2  0
 26 27  1  0
 27 28  2  0
 12  7  1  0
 18 13  1  0
 28 19  1  0
 27 22  1  0
  3 29  1  0
  4 30  1  0
  4 31  1  0
  8 32  1  0
  8 33  1  0
  9 34  1  6
 10 35  1  0
 11 36  1  0
 11 37  1  0
 12 38  1  6
 14 39  1  0
 15 40  1  0
 16 41  1  0
 17 42  1  0
 18 43  1  0
 20 44  1  0
 21 45  1  0
 23 46  1  0
 24 47  1  0
 25 48  1  0
 26 49  1  0
M  END
>  <smiles>  (10) 
O=C(NCC(=O)N1C[C@H](O)C[C@@H]1c1ccccc1)c1ccc2ccccc2n1

>  <score_type>  (10) 
oracle

>  <origin>  (10) 
autodockgpu

>  <m_score__min__energy>  (10) 
-9.3699999999999992

>  <m_primary>  (10) 
energy

>  <rmsd>  (10) 
8.467212961666412

>  <m_score__min__rmsd>  (10) 
8.467212961666412

>  <meeko>  (10) 
{"free_energy": -8.46, "intermolecular_energy": -10.25, "internal_energy": -1.25, "cluster_size": 18, "cluster_id": 2, "rank_in_cluster": 17}

>  <energy>  (10) 
-9.13

>  <cluster_rmsd>  (10) 
0.9

>  <cluster>  (10) 
1

$$$$

     RDKit          3D

 49 52  0  0  0  0  0  0  0  0999 V2000
  139.7880   72.5420  220.8200 O   0  0  0  0  0  0  0  0  0  0  0  0
  139.6700   72.8460  222.0210 C   0  0  0  0  0  0  0  0  0  0  0  0
  139.3790   74.2120  222.3440 N   0  0  0  0  0  0  0  0  0  0  0  0
  139.2430   75.1350  221.2620 C   0  0  0  0  0  0  0  0  0  0  0  0
  139.7540   76.4980  221.6170 C   0  0  0  0  0  0  0  0  0  0  0  0
  139.2510   77.1880  222.5410 O   0  0  0  0  0  0  0  0  0  0  0  0
  140.8500   77.0300  220.8800 N   0  0  0  0  0  0  0  0  0  0  0  0
  141.9470   76.2050  220.4130 C   0  0  0  0  0  0  0  0  0  0  0  0
  142.4120   76.9330  219.1900 C   0  0  2  0  0  0  0  0  0  0  0  0
  143.7340   76.6480  218.8670 O   0  0  0  0  0  0  0  0  0  0  0  0
  142.1710   78.3750  219.4900 C   0  0  0  0  0  0  0  0  0  0  0  0
  141.0470   78.4140  220.4920 C   0  0  2  0  0  0  0  0  0  0  0  0
  141.3550   79.2960  221.6670 C   0  0  0  0  0  0  0  0  0  0  0  0
  141.8330   78.7910  222.8590 C   0  0  0  0  0  0  0  0  0  0  0  0
  142.1230   79.5770  223.9460 C   0  0  0  0  0  0  0  0  0  0  0  0
  141.9280   80.9520  223.8530 C   0  0  0  0  0  0  0  0  0  0  0  0
  141.4500   81.4860  222.6740 C   0  0  0  0  0  0  0  0  0  0  0  0
  141.1680   80.6600  221.5930 C   0  0  0  0  0  0  0  0  0  0  0  0
  139.8190   71.8610  223.0990 C   0  0  0  0  0  0  0  0  0  0  0  0
  139.4410   70.5610  222.8460 C   0  0  0  0  0  0  0  0  0  0  0  0
  139.5620   69.6010  223.8270 C   0  0  0  0  0  0  0  0  0  0  0  0
  140.0680   69.9780  225.0540 C   0  0  0  0  0  0  0  0  0  0  0  0
  140.2190   69.0700  226.0840 C   0  0  0  0  0  0  0  0  0  0  0  0
  140.7270   69.4690  227.3010 C   0  0  0  0  0  0  0  0  0  0  0  0
  141.1070   70.7690  227.5560 C   0  0  0  0  0  0  0  0  0  0  0  0
  140.9570   71.6910  226.5160 C   0  0  0  0  0  0  0  0  0  0  0  0
  140.4450   71.3040  225.2810 C   0  0  0  0  0  0  0  0  0  0  0  0
  140.3200   72.2350  224.3120 N   0  0  0  0  0  0  0  0  0  0  0  0
  139.2690   74.5240  223.3440 H   0  0  0  0  0  0  0  0  0  0  0  0
  139.8111   74.7567  220.3994 H   0  0  0  0  0  0  0  0  0  0  0  0
  138.1724   75.2252  221.0259 H   0  0  0  0  0  0  0  0  0  0  0  0
  142.7463   76.1450  221.1663 H   0  0  0  0  0  0  0  0  0  0  0  0
  141.6549   75.1631  220.2150 H   0  0  0  0  0  0  0  0  0  0  0  0
  141.8635   76.6179  218.2901 H   0  0  0  0  0  0  0  0  0  0  0  0
  144.3960   77.1690  219.3860 H   0  0  0  0  0  0  0  0  0  0  0  0
  143.0766   78.8325  219.9149 H   0  0  0  0  0  0  0  0  0  0  0  0
  141.9156   78.9365  218.5793 H   0  0  0  0  0  0  0  0  0  0  0  0
  140.1348   78.8528  220.0614 H   0  0  0  0  0  0  0  0  0  0  0  0
  141.9892   77.7053  222.9420 H   0  0  0  0  0  0  0  0  0  0  0  0
  142.5032   79.1278  224.8753 H   0  0  0  0  0  0  0  0  0  0  0  0
  142.1523   81.6051  224.7092 H   0  0  0  0  0  0  0  0  0  0  0  0
  141.2914   82.5712  222.5895 H   0  0  0  0  0  0  0  0  0  0  0  0
  140.7883   81.1027  220.6603 H   0  0  0  0  0  0  0  0  0  0  0  0
  139.0414   70.2884  221.8581 H   0  0  0  0  0  0  0  0  0  0  0  0
  139.2626   68.5598  223.6366 H   0  0  0  0  0  0  0  0  0  0  0  0
  139.9312   68.0194  225.9313 H   0  0  0  0  0  0  0  0  0  0  0  0
  140.8335   68.7208  228.1003 H   0  0  0  0  0  0  0  0  0  0  0  0
  141.5105   71.0679  228.5347 H   0  0  0  0  0  0  0  0  0  0  0  0
  141.2484   72.7395  226.6763 H   0  0  0  0  0  0  0  0  0  0  0  0
  1  2  2  0
  2  3  1  0
  3  4  1  0
  4  5  1  0
  5  6  2  0
  5  7  1  0
  7  8  1  0
  8  9  1  0
  9 10  1  0
  9 11  1  0
 11 12  1  0
 12 13  1  0
 13 14  2  0
 14 15  1  0
 15 16  2  0
 16 17  1  0
 17 18  2  0
  2 19  1  0
 19 20  2  0
 20 21  1  0
 21 22  2  0
 22 23  1  0
 23 24  2  0
 24 25  1  0
 25 26  2  0
 26 27  1  0
 27 28  2  0
 12  7  1  0
 18 13  1  0
 28 19  1  0
 27 22  1  0
  3 29  1  0
  4 30  1  0
  4 31  1  0
  8 32  1  0
  8 33  1  0
  9 34  1  6
 10 35  1  0
 11 36  1  0
 11 37  1  0
 12 38  1  6
 14 39  1  0
 15 40  1  0
 16 41  1  0
 17 42  1  0
 18 43  1  0
 20 44  1  0
 21 45  1  0
 23 46  1  0
 24 47  1  0
 25 48  1  0
 26 49  1  0
M  END
>  <smiles>  (11) 
O=C(NCC(=O)N1C[C@H](O)C[C@@H]1c1ccccc1)c1ccc2ccccc2n1

>  <score_type>  (11) 
oracle

>  <origin>  (11) 
autodockgpu

>  <m_score__min__energy>  (11) 
-9.3699999999999992

>  <m_primary>  (11) 
energy

>  <rmsd>  (11) 
2.0707275857126195

>  <m_score__min__rmsd>  (11) 
2.0707275857126195

>  <meeko>  (11) 
{"free_energy": -8.54, "intermolecular_energy": -10.33, "internal_energy": -1.43, "cluster_size": 28, "cluster_id": 1, "rank_in_cluster": 25}

>  <energy>  (11) 
-9.1

>  <cluster_rmsd>  (11) 
0.82

>  <cluster>  (11) 
1

$$$$

     RDKit          3D

 49 52  0  0  0  0  0  0  0  0999 V2000
  140.4770   74.0680  220.4050 O   0  0  0  0  0  0  0  0  0  0  0  0
  140.1700   74.8360  221.3350 C   0  0  0  0  0  0  0  0  0  0  0  0
  139.2550   74.3570  222.3300 N   0  0  0  0  0  0  0  0  0  0  0  0
  138.7580   73.0260  222.1860 C   0  0  0  0  0  0  0  0  0  0  0  0
  139.6160   72.0250  222.8990 C   0  0  0  0  0  0  0  0  0  0  0  0
  140.8710   72.0970  222.9080 O   0  0  0  0  0  0  0  0  0  0  0  0
  138.9830   70.9530  223.5920 N   0  0  0  0  0  0  0  0  0  0  0  0
  137.5540   70.7160  223.5210 C   0  0  0  0  0  0  0  0  0  0  0  0
  137.4520   69.2380  223.7370 C   0  0  2  0  0  0  0  0  0  0  0  0
  136.2070   68.8530  224.2200 O   0  0  0  0  0  0  0  0  0  0  0  0
  138.5770   68.9100  224.6620 C   0  0  0  0  0  0  0  0  0  0  0  0
  139.6250   69.9690  224.4420 C   0  0  2  0  0  0  0  0  0  0  0  0
  140.1200   70.5640  225.7280 C   0  0  0  0  0  0  0  0  0  0  0  0
  140.9760   71.6460  225.7550 C   0  0  0  0  0  0  0  0  0  0  0  0
  141.4410   72.2090  226.9180 C   0  0  0  0  0  0  0  0  0  0  0  0
  141.0350   71.6690  228.1350 C   0  0  0  0  0  0  0  0  0  0  0  0
  140.1800   70.5860  228.1400 C   0  0  0  0  0  0  0  0  0  0  0  0
  139.7300   70.0420  226.9440 C   0  0  0  0  0  0  0  0  0  0  0  0
  140.7090   76.1980  221.4400 C   0  0  0  0  0  0  0  0  0  0  0  0
  141.4900   76.6670  220.4080 C   0  0  0  0  0  0  0  0  0  0  0  0
  142.0180   77.9380  220.4610 C   0  0  0  0  0  0  0  0  0  0  0  0
  141.7420   78.7170  221.5660 C   0  0  0  0  0  0  0  0  0  0  0  0
  142.2360   80.0020  221.6880 C   0  0  0  0  0  0  0  0  0  0  0  0
  141.9470   80.7600  222.8010 C   0  0  0  0  0  0  0  0  0  0  0  0
  141.1640   80.2930  223.8350 C   0  0  0  0  0  0  0  0  0  0  0  0
  140.6620   78.9940  223.7160 C   0  0  0  0  0  0  0  0  0  0  0  0
  140.9450   78.2150  222.5970 C   0  0  0  0  0  0  0  0  0  0  0  0
  140.4340   76.9660  222.5330 N   0  0  0  0  0  0  0  0  0  0  0  0
  138.9620   74.9650  223.1380 H   0  0  0  0  0  0  0  0  0  0  0  0
  137.7402   72.9804  222.6006 H   0  0  0  0  0  0  0  0  0  0  0  0
  138.7634   72.7758  221.1149 H   0  0  0  0  0  0  0  0  0  0  0  0
  137.0210   71.2692  224.3083 H   0  0  0  0  0  0  0  0  0  0  0  0
  137.1036   71.0500  222.5747 H   0  0  0  0  0  0  0  0  0  0  0  0
  137.5369   68.6765  222.7949 H   0  0  0  0  0  0  0  0  0  0  0  0
  136.1060   68.9540  225.1990 H   0  0  0  0  0  0  0  0  0  0  0  0
  138.2300   68.9281  225.7057 H   0  0  0  0  0  0  0  0  0  0  0  0
  138.9766   67.9041  224.4659 H   0  0  0  0  0  0  0  0  0  0  0  0
  140.5302   69.5529  223.9756 H   0  0  0  0  0  0  0  0  0  0  0  0
  141.3020   72.0789  224.7977 H   0  0  0  0  0  0  0  0  0  0  0  0
  142.1226   73.0719  226.8884 H   0  0  0  0  0  0  0  0  0  0  0  0
  141.3917   72.1006  229.0818 H   0  0  0  0  0  0  0  0  0  0  0  0
  139.8531   70.1513  229.0961 H   0  0  0  0  0  0  0  0  0  0  0  0
  139.0494   69.1781  226.9667 H   0  0  0  0  0  0  0  0  0  0  0  0
  141.6930   76.0247  219.5384 H   0  0  0  0  0  0  0  0  0  0  0  0
  142.6443   78.3226  219.6426 H   0  0  0  0  0  0  0  0  0  0  0  0
  142.8651   80.4227  220.8897 H   0  0  0  0  0  0  0  0  0  0  0  0
  142.3573   81.7785  222.8675 H   0  0  0  0  0  0  0  0  0  0  0  0
  140.9440   80.9153  224.7150 H   0  0  0  0  0  0  0  0  0  0  0  0
  140.0337   78.5807  224.5187 H   0  0  0  0  0  0  0  0  0  0  0  0
  1  2  2  0
  2  3  1  0
  3  4  1  0
  4  5  1  0
  5  6  2  0
  5  7  1  0
  7  8  1  0
  8  9  1  0
  9 10  1  0
  9 11  1  0
 11 12  1  0
 12 13  1  0
 13 14  2  0
 14 15  1  0
 15 16  2  0
 16 17  1  0
 17 18  2  0
  2 19  1  0
 19 20  2  0
 20 21  1  0
 21 22  2  0
 22 23  1  0
 23 24  2  0
 24 25  1  0
 25 26  2  0
 26 27  1  0
 27 28  2  0
 12  7  1  0
 18 13  1  0
 28 19  1  0
 27 22  1  0
  3 29  1  0
  4 30  1  0
  4 31  1  0
  8 32  1  0
  8 33  1  0
  9 34  1  6
 10 35  1  0
 11 36  1  0
 11 37  1  0
 12 38  1  6
 14 39  1  0
 15 40  1  0
 16 41  1  0
 17 42  1  0
 18 43  1  0
 20 44  1  0
 21 45  1  0
 23 46  1  0
 24 47  1  0
 25 48  1  0
 26 49  1  0
M  END
>  <smiles>  (12) 
O=C(NCC(=O)N1C[C@H](O)C[C@@H]1c1ccccc1)c1ccc2ccccc2n1

>  <score_type>  (12) 
oracle

>  <origin>  (12) 
autodockgpu

>  <m_score__min__energy>  (12) 
-9.3699999999999992

>  <m_primary>  (12) 
energy

>  <rmsd>  (12) 
8.388867252988803

>  <m_score__min__rmsd>  (12) 
8.388867252988803

>  <meeko>  (12) 
{"free_energy": -8.8, "intermolecular_energy": -10.59, "internal_energy": -1.39, "cluster_size": 18, "cluster_id": 2, "rank_in_cluster": 14}

>  <energy>  (12) 
-9.02

>  <cluster_rmsd>  (12) 
0.51

>  <cluster>  (12) 
1

$$$$

     RDKit          3D

 49 52  0  0  0  0  0  0  0  0999 V2000
  141.0880   72.4520  221.7960 O   0  0  0  0  0  0  0  0  0  0  0  0
  140.1230   72.4510  222.5820 C   0  0  0  0  0  0  0  0  0  0  0  0
  139.0560   73.3780  222.3400 N   0  0  0  0  0  0  0  0  0  0  0  0
  139.1740   74.2420  221.2080 C   0  0  0  0  0  0  0  0  0  0  0  0
  139.7470   75.5770  221.5770 C   0  0  0  0  0  0  0  0  0  0  0  0
  139.1870   76.3480  222.3980 O   0  0  0  0  0  0  0  0  0  0  0  0
  140.9710   75.9850  220.9740 N   0  0  0  0  0  0  0  0  0  0  0  0
  142.0770   75.0720  220.7640 C   0  0  0  0  0  0  0  0  0  0  0  0
  142.7630   75.6520  219.5660 C   0  0  2  0  0  0  0  0  0  0  0  0
  144.1000   75.2800  219.4830 O   0  0  0  0  0  0  0  0  0  0  0  0
  142.5620   77.1260  219.6880 C   0  0  0  0  0  0  0  0  0  0  0  0
  141.3030   77.3130  220.4930 C   0  0  2  0  0  0  0  0  0  0  0  0
  141.4780   78.2970  221.6140 C   0  0  0  0  0  0  0  0  0  0  0  0
  141.4290   77.9160  222.9390 C   0  0  0  0  0  0  0  0  0  0  0  0
  141.5880   78.7960  223.9810 C   0  0  0  0  0  0  0  0  0  0  0  0
  141.8090   80.1400  223.6970 C   0  0  0  0  0  0  0  0  0  0  0  0
  141.8630   80.5510  222.3810 C   0  0  0  0  0  0  0  0  0  0  0  0
  141.6980   79.6320  221.3520 C   0  0  0  0  0  0  0  0  0  0  0  0
  140.0480   71.5420  223.7330 C   0  0  0  0  0  0  0  0  0  0  0  0
  139.4160   70.3300  223.5610 C   0  0  0  0  0  0  0  0  0  0  0  0
  139.3210   69.4450  224.6120 C   0  0  0  0  0  0  0  0  0  0  0  0
  139.8710   69.8040  225.8240 C   0  0  0  0  0  0  0  0  0  0  0  0
  139.8150   68.9660  226.9220 C   0  0  0  0  0  0  0  0  0  0  0  0
  140.3720   69.3470  228.1230 C   0  0  0  0  0  0  0  0  0  0  0  0
  141.0050   70.5590  228.2960 C   0  0  0  0  0  0  0  0  0  0  0  0
  141.0650   71.4090  227.1890 C   0  0  0  0  0  0  0  0  0  0  0  0
  140.5070   71.0390  225.9680 C   0  0  0  0  0  0  0  0  0  0  0  0
  140.5930   71.9000  224.9310 N   0  0  0  0  0  0  0  0  0  0  0  0
  138.2160   73.4190  222.9720 H   0  0  0  0  0  0  0  0  0  0  0  0
  139.8316   73.7664  220.4654 H   0  0  0  0  0  0  0  0  0  0  0  0
  138.1658   74.4064  220.7999 H   0  0  0  0  0  0  0  0  0  0  0  0
  142.7480   75.0554  221.6355 H   0  0  0  0  0  0  0  0  0  0  0  0
  141.7593   74.0286  220.6213 H   0  0  0  0  0  0  0  0  0  0  0  0
  142.3405   75.2711  218.6245 H   0  0  0  0  0  0  0  0  0  0  0  0
  144.5000   75.4130  218.5880 H   0  0  0  0  0  0  0  0  0  0  0  0
  143.4171   77.5860  220.2050 H   0  0  0  0  0  0  0  0  0  0  0  0
  142.4806   77.6027  218.7000 H   0  0  0  0  0  0  0  0  0  0  0  0
  140.4933   77.7429  219.8850 H   0  0  0  0  0  0  0  0  0  0  0  0
  141.2540   76.8553  223.1722 H   0  0  0  0  0  0  0  0  0  0  0  0
  141.5414   78.4445  225.0223 H   0  0  0  0  0  0  0  0  0  0  0  0
  141.9392   80.8667  224.5125 H   0  0  0  0  0  0  0  0  0  0  0  0
  142.0375   81.6112  222.1453 H   0  0  0  0  0  0  0  0  0  0  0  0
  141.7438   79.9766  220.3084 H   0  0  0  0  0  0  0  0  0  0  0  0
  138.9865   70.0687  222.5826 H   0  0  0  0  0  0  0  0  0  0  0  0
  138.8181   68.4747  224.4872 H   0  0  0  0  0  0  0  0  0  0  0  0
  139.3215   67.9867  226.8360 H   0  0  0  0  0  0  0  0  0  0  0  0
  140.3091   68.6569  228.9773 H   0  0  0  0  0  0  0  0  0  0  0  0
  141.4438   70.8445  229.2634 H   0  0  0  0  0  0  0  0  0  0  0  0
  141.5610   72.3863  227.2834 H   0  0  0  0  0  0  0  0  0  0  0  0
  1  2  2  0
  2  3  1  0
  3  4  1  0
  4  5  1  0
  5  6  2  0
  5  7  1  0
  7  8  1  0
  8  9  1  0
  9 10  1  0
  9 11  1  0
 11 12  1  0
 12 13  1  0
 13 14  2  0
 14 15  1  0
 15 16  2  0
 16 17  1  0
 17 18  2  0
  2 19  1  0
 19 20  2  0
 20 21  1  0
 21 22  2  0
 22 23  1  0
 23 24  2  0
 24 25  1  0
 25 26  2  0
 26 27  1  0
 27 28  2  0
 12  7  1  0
 18 13  1  0
 28 19  1  0
 27 22  1  0
  3 29  1  0
  4 30  1  0
  4 31  1  0
  8 32  1  0
  8 33  1  0
  9 34  1  6
 10 35  1  0
 11 36  1  0
 11 37  1  0
 12 38  1  6
 14 39  1  0
 15 40  1  0
 16 41  1  0
 17 42  1  0
 18 43  1  0
 20 44  1  0
 21 45  1  0
 23 46  1  0
 24 47  1  0
 25 48  1  0
 26 49  1  0
M  END
>  <smiles>  (13) 
O=C(NCC(=O)N1C[C@H](O)C[C@@H]1c1ccccc1)c1ccc2ccccc2n1

>  <score_type>  (13) 
oracle

>  <origin>  (13) 
autodockgpu

>  <m_score__min__energy>  (13) 
-9.3699999999999992

>  <m_primary>  (13) 
energy

>  <rmsd>  (13) 
1.952909072273193

>  <m_score__min__rmsd>  (13) 
1.952909072273193

>  <meeko>  (13) 
{"free_energy": -9.37, "intermolecular_energy": -11.16, "internal_energy": -1.21, "cluster_size": 28, "cluster_id": 1, "rank_in_cluster": 1}

>  <energy>  (13) 
-9.0

>  <cluster_rmsd>  (13) 
0.64

>  <cluster>  (13) 
1

$$$$

     RDKit          3D

 49 52  0  0  0  0  0  0  0  0999 V2000
  141.3960   72.1640  221.7350 O   0  0  0  0  0  0  0  0  0  0  0  0
  140.4590   72.3180  222.5400 C   0  0  0  0  0  0  0  0  0  0  0  0
  139.5760   73.4300  222.3420 N   0  0  0  0  0  0  0  0  0  0  0  0
  139.8330   74.2890  221.2300 C   0  0  0  0  0  0  0  0  0  0  0  0
  140.1190   75.6960  221.6600 C   0  0  0  0  0  0  0  0  0  0  0  0
  139.6260   76.1970  222.7030 O   0  0  0  0  0  0  0  0  0  0  0  0
  140.9840   76.4930  220.8570 N   0  0  0  0  0  0  0  0  0  0  0  0
  142.2130   75.9750  220.2860 C   0  0  0  0  0  0  0  0  0  0  0  0
  142.3800   76.8060  219.0520 C   0  0  2  0  0  0  0  0  0  0  0  0
  143.7010   76.8660  218.6230 O   0  0  0  0  0  0  0  0  0  0  0  0
  141.8090   78.1380  219.4080 C   0  0  0  0  0  0  0  0  0  0  0  0
  140.7950   77.8840  220.4920 C   0  0  2  0  0  0  0  0  0  0  0  0
  140.9630   78.8080  221.6640 C   0  0  0  0  0  0  0  0  0  0  0  0
  142.2010   79.2590  222.0710 C   0  0  0  0  0  0  0  0  0  0  0  0
  142.3810   80.1050  223.1370 C   0  0  0  0  0  0  0  0  0  0  0  0
  141.2650   80.5330  223.8500 C   0  0  0  0  0  0  0  0  0  0  0  0
  140.0130   80.0970  223.4670 C   0  0  0  0  0  0  0  0  0  0  0  0
  139.8690   79.2420  222.3830 C   0  0  0  0  0  0  0  0  0  0  0  0
  140.2360   71.4060  223.6700 C   0  0  0  0  0  0  0  0  0  0  0  0
  139.5330   70.2450  223.4360 C   0  0  0  0  0  0  0  0  0  0  0  0
  139.3000   69.3590  224.4650 C   0  0  0  0  0  0  0  0  0  0  0  0
  139.7860   69.6660  225.7180 C   0  0  0  0  0  0  0  0  0  0  0  0
  139.5900   68.8250  226.7970 C   0  0  0  0  0  0  0  0  0  0  0  0
  140.0850   69.1530  228.0400 C   0  0  0  0  0  0  0  0  0  0  0  0
  140.7890   70.3140  228.2750 C   0  0  0  0  0  0  0  0  0  0  0  0
  140.9900   71.1680  227.1870 C   0  0  0  0  0  0  0  0  0  0  0  0
  140.4960   70.8510  225.9250 C   0  0  0  0  0  0  0  0  0  0  0  0
  140.7180   71.7120  224.9080 N   0  0  0  0  0  0  0  0  0  0  0  0
  138.7670   73.6070  222.9930 H   0  0  0  0  0  0  0  0  0  0  0  0
  140.7022   73.9033  220.6770 H   0  0  0  0  0  0  0  0  0  0  0  0
  138.9329   74.3039  220.5978 H   0  0  0  0  0  0  0  0  0  0  0  0
  143.0594   76.1136  220.9748 H   0  0  0  0  0  0  0  0  0  0  0  0
  142.1777   74.8946  220.0825 H   0  0  0  0  0  0  0  0  0  0  0  0
  141.8575   76.3699  218.1878 H   0  0  0  0  0  0  0  0  0  0  0  0
  144.3350   77.1770  219.3160 H   0  0  0  0  0  0  0  0  0  0  0  0
  142.6013   78.8065  219.7760 H   0  0  0  0  0  0  0  0  0  0  0  0
  141.3492   78.6235  218.5346 H   0  0  0  0  0  0  0  0  0  0  0  0
  139.7705   78.0800  220.1427 H   0  0  0  0  0  0  0  0  0  0  0  0
  143.0884   78.9242  221.5138 H   0  0  0  0  0  0  0  0  0  0  0  0
  143.3895   80.4388  223.4226 H   0  0  0  0  0  0  0  0  0  0  0  0
  141.3796   81.2108  224.7087 H   0  0  0  0  0  0  0  0  0  0  0  0
  139.1242   80.4288  224.0238 H   0  0  0  0  0  0  0  0  0  0  0  0
  138.8634   78.9042  222.0920 H   0  0  0  0  0  0  0  0  0  0  0  0
  139.1570   70.0248  222.4260 H   0  0  0  0  0  0  0  0  0  0  0  0
  138.7395   68.4287  224.2909 H   0  0  0  0  0  0  0  0  0  0  0  0
  139.0339   67.8856  226.6621 H   0  0  0  0  0  0  0  0  0  0  0  0
  139.9116   68.4612  228.8775 H   0  0  0  0  0  0  0  0  0  0  0  0
  141.1760   70.5581  229.2753 H   0  0  0  0  0  0  0  0  0  0  0  0
  141.5474   72.1054  227.3304 H   0  0  0  0  0  0  0  0  0  0  0  0
  1  2  2  0
  2  3  1  0
  3  4  1  0
  4  5  1  0
  5  6  2  0
  5  7  1  0
  7  8  1  0
  8  9  1  0
  9 10  1  0
  9 11  1  0
 11 12  1  0
 12 13  1  0
 13 14  2  0
 14 15  1  0
 15 16  2  0
 16 17  1  0
 17 18  2  0
  2 19  1  0
 19 20  2  0
 20 21  1  0
 21 22  2  0
 22 23  1  0
 23 24  2  0
 24 25  1  0
 25 26  2  0
 26 27  1  0
 27 28  2  0
 12  7  1  0
 18 13  1  0
 28 19  1  0
 27 22  1  0
  3 29  1  0
  4 30  1  0
  4 31  1  0
  8 32  1  0
  8 33  1  0
  9 34  1  6
 10 35  1  0
 11 36  1  0
 11 37  1  0
 12 38  1  6
 14 39  1  0
 15 40  1  0
 16 41  1  0
 17 42  1  0
 18 43  1  0
 20 44  1  0
 21 45  1  0
 23 46  1  0
 24 47  1  0
 25 48  1  0
 26 49  1  0
M  END
>  <smiles>  (14) 
O=C(NCC(=O)N1C[C@H](O)C[C@@H]1c1ccccc1)c1ccc2ccccc2n1

>  <score_type>  (14) 
oracle

>  <origin>  (14) 
autodockgpu

>  <m_score__min__energy>  (14) 
-9.3699999999999992

>  <m_primary>  (14) 
energy

>  <rmsd>  (14) 
1.9656410533173014

>  <m_score__min__rmsd>  (14) 
1.9656410533173014

>  <meeko>  (14) 
{"free_energy": -9.17, "intermolecular_energy": -10.96, "internal_energy": -1.32, "cluster_size": 28, "cluster_id": 1, "rank_in_cluster": 9}

>  <energy>  (14) 
-8.98

>  <cluster_rmsd>  (14) 
1.08

>  <cluster>  (14) 
1

$$$$

     RDKit          3D

 49 52  0  0  0  0  0  0  0  0999 V2000
  141.4110   71.8390  221.5880 O   0  0  0  0  0  0  0  0  0  0  0  0
  140.6160   72.1460  222.4960 C   0  0  0  0  0  0  0  0  0  0  0  0
  139.9360   73.4040  222.3980 N   0  0  0  0  0  0  0  0  0  0  0  0
  140.2180   74.2230  221.2610 C   0  0  0  0  0  0  0  0  0  0  0  0
  140.3010   75.6750  221.6200 C   0  0  0  0  0  0  0  0  0  0  0  0
  139.7620   76.1470  222.6540 O   0  0  0  0  0  0  0  0  0  0  0  0
  141.0180   76.5530  220.7570 N   0  0  0  0  0  0  0  0  0  0  0  0
  142.2070   76.1360  220.0380 C   0  0  0  0  0  0  0  0  0  0  0  0
  142.1830   77.0110  218.8240 C   0  0  2  0  0  0  0  0  0  0  0  0
  143.4420   77.1740  218.2570 O   0  0  0  0  0  0  0  0  0  0  0  0
  141.5700   78.2910  219.2880 C   0  0  0  0  0  0  0  0  0  0  0  0
  140.7010   77.9370  220.4660 C   0  0  2  0  0  0  0  0  0  0  0  0
  140.9380   78.8360  221.6450 C   0  0  0  0  0  0  0  0  0  0  0  0
  142.2020   79.2490  222.0110 C   0  0  0  0  0  0  0  0  0  0  0  0
  142.4450   80.0700  223.0840 C   0  0  0  0  0  0  0  0  0  0  0  0
  141.3680   80.5150  223.8460 C   0  0  0  0  0  0  0  0  0  0  0  0
  140.0920   80.1180  223.5050 C   0  0  0  0  0  0  0  0  0  0  0  0
  139.8840   79.2850  222.4130 C   0  0  0  0  0  0  0  0  0  0  0  0
  140.3600   71.2700  223.6460 C   0  0  0  0  0  0  0  0  0  0  0  0
  139.6860   70.0890  223.4240 C   0  0  0  0  0  0  0  0  0  0  0  0
  139.4230   69.2350  224.4720 C   0  0  0  0  0  0  0  0  0  0  0  0
  139.8500   69.5940  225.7340 C   0  0  0  0  0  0  0  0  0  0  0  0
  139.6220   68.7870  226.8320 C   0  0  0  0  0  0  0  0  0  0  0  0
  140.0590   69.1660  228.0820 C   0  0  0  0  0  0  0  0  0  0  0  0
  140.7340   70.3460  228.3060 C   0  0  0  0  0  0  0  0  0  0  0  0
  140.9670   71.1660  227.1990 C   0  0  0  0  0  0  0  0  0  0  0  0
  140.5320   70.7970  225.9280 C   0  0  0  0  0  0  0  0  0  0  0  0
  140.7840   71.6270  224.8930 N   0  0  0  0  0  0  0  0  0  0  0  0
  139.2530   73.7140  223.1370 H   0  0  0  0  0  0  0  0  0  0  0  0
  141.1790   73.9092  220.8273 H   0  0  0  0  0  0  0  0  0  0  0  0
  139.3958   74.0982  220.5410 H   0  0  0  0  0  0  0  0  0  0  0  0
  143.1137   76.3119  220.6355 H   0  0  0  0  0  0  0  0  0  0  0  0
  142.2189   75.0619  219.8010 H   0  0  0  0  0  0  0  0  0  0  0  0
  141.5979   76.5646  218.0064 H   0  0  0  0  0  0  0  0  0  0  0  0
  144.1110   77.5690  218.8690 H   0  0  0  0  0  0  0  0  0  0  0  0
  142.3534   79.0011  219.5916 H   0  0  0  0  0  0  0  0  0  0  0  0
  140.9859   78.7693  218.4879 H   0  0  0  0  0  0  0  0  0  0  0  0
  139.6335   78.0726  220.2378 H   0  0  0  0  0  0  0  0  0  0  0  0
  143.0582   78.9032  221.4132 H   0  0  0  0  0  0  0  0  0  0  0  0
  143.4723   80.3709  223.3373 H   0  0  0  0  0  0  0  0  0  0  0  0
  141.5329   81.1756  224.7100 H   0  0  0  0  0  0  0  0  0  0  0  0
  139.2342   80.4629  224.1011 H   0  0  0  0  0  0  0  0  0  0  0  0
  138.8595   78.9777  222.1560 H   0  0  0  0  0  0  0  0  0  0  0  0
  139.3572   69.8276  222.4074 H   0  0  0  0  0  0  0  0  0  0  0  0
  138.8855   68.2896  224.3069 H   0  0  0  0  0  0  0  0  0  0  0  0
  139.0871   67.8340  226.7069 H   0  0  0  0  0  0  0  0  0  0  0  0
  139.8613   68.5003  228.9351 H   0  0  0  0  0  0  0  0  0  0  0  0
  141.0746   70.6302  229.3126 H   0  0  0  0  0  0  0  0  0  0  0  0
  141.5022   72.1176  227.3331 H   0  0  0  0  0  0  0  0  0  0  0  0
  1  2  2  0
  2  3  1  0
  3  4  1  0
  4  5  1  0
  5  6  2  0
  5  7  1  0
  7  8  1  0
  8  9  1  0
  9 10  1  0
  9 11  1  0
 11 12  1  0
 12 13  1  0
 13 14  2  0
 14 15  1  0
 15 16  2  0
 16 17  1  0
 17 18  2  0
  2 19  1  0
 19 20  2  0
 20 21  1  0
 21 22  2  0
 22 23  1  0
 23 24  2  0
 24 25  1  0
 25 26  2  0
 26 27  1  0
 27 28  2  0
 12  7  1  0
 18 13  1  0
 28 19  1  0
 27 22  1  0
  3 29  1  0
  4 30  1  0
  4 31  1  0
  8 32  1  0
  8 33  1  0
  9 34  1  6
 10 35  1  0
 11 36  1  0
 11 37  1  0
 12 38  1  6
 14 39  1  0
 15 40  1  0
 16 41  1  0
 17 42  1  0
 18 43  1  0
 20 44  1  0
 21 45  1  0
 23 46  1  0
 24 47  1  0
 25 48  1  0
 26 49  1  0
M  END
>  <smiles>  (15) 
O=C(NCC(=O)N1C[C@H](O)C[C@@H]1c1ccccc1)c1ccc2ccccc2n1

>  <score_type>  (15) 
oracle

>  <origin>  (15) 
autodockgpu

>  <m_score__min__energy>  (15) 
-9.3699999999999992

>  <m_primary>  (15) 
energy

>  <rmsd>  (15) 
1.9747868994597433

>  <m_score__min__rmsd>  (15) 
1.9747868994597433

>  <meeko>  (15) 
{"free_energy": -8.92, "intermolecular_energy": -10.71, "internal_energy": -1.43, "cluster_size": 28, "cluster_id": 1, "rank_in_cluster": 16}

>  <energy>  (15) 
-8.93

>  <cluster_rmsd>  (15) 
0.7

>  <cluster>  (15) 
1

$$$$

     RDKit          3D

 49 52  0  0  0  0  0  0  0  0999 V2000
  138.0000   71.6880  222.0960 O   0  0  0  0  0  0  0  0  0  0  0  0
  139.0070   71.9110  222.7930 C   0  0  0  0  0  0  0  0  0  0  0  0
  139.8220   73.0420  222.4580 N   0  0  0  0  0  0  0  0  0  0  0  0
  139.4210   73.8390  221.3420 C   0  0  0  0  0  0  0  0  0  0  0  0
  139.8390   75.2700  221.4940 C   0  0  0  0  0  0  0  0  0  0  0  0
  139.1230   76.1240  222.0780 O   0  0  0  0  0  0  0  0  0  0  0  0
  141.0940   75.6760  220.9580 N   0  0  0  0  0  0  0  0  0  0  0  0
  142.2330   74.7810  220.8820 C   0  0  0  0  0  0  0  0  0  0  0  0
  142.9920   75.3110  219.7040 C   0  0  2  0  0  0  0  0  0  0  0  0
  144.3390   74.9710  219.7390 O   0  0  0  0  0  0  0  0  0  0  0  0
  142.7490   76.7840  219.7250 C   0  0  0  0  0  0  0  0  0  0  0  0
  141.4310   76.9830  220.4260 C   0  0  2  0  0  0  0  0  0  0  0  0
  141.5020   78.0320  221.4980 C   0  0  0  0  0  0  0  0  0  0  0  0
  141.6970   79.3660  221.2060 C   0  0  0  0  0  0  0  0  0  0  0  0
  141.7640   80.3440  222.1670 C   0  0  0  0  0  0  0  0  0  0  0  0
  141.6290   79.9830  223.5050 C   0  0  0  0  0  0  0  0  0  0  0  0
  141.4340   78.6550  223.8270 C   0  0  0  0  0  0  0  0  0  0  0  0
  141.3710   77.6930  222.8280 C   0  0  0  0  0  0  0  0  0  0  0  0
  139.3780   71.0610  223.9320 C   0  0  0  0  0  0  0  0  0  0  0  0
  139.1760   69.7030  223.8210 C   0  0  0  0  0  0  0  0  0  0  0  0
  139.5090   68.8660  224.8630 C   0  0  0  0  0  0  0  0  0  0  0  0
  140.0450   69.4230  226.0060 C   0  0  0  0  0  0  0  0  0  0  0  0
  140.4030   68.6450  227.0900 C   0  0  0  0  0  0  0  0  0  0  0  0
  140.9360   69.2240  228.2210 C   0  0  0  0  0  0  0  0  0  0  0  0
  141.1400   70.5820  228.3340 C   0  0  0  0  0  0  0  0  0  0  0  0
  140.7790   71.3730  227.2390 C   0  0  0  0  0  0  0  0  0  0  0  0
  140.2390   70.8040  226.0890 C   0  0  0  0  0  0  0  0  0  0  0  0
  139.9080   71.6140  225.0610 N   0  0  0  0  0  0  0  0  0  0  0  0
  140.6840   73.2770  223.0140 H   0  0  0  0  0  0  0  0  0  0  0  0
  139.8806   73.4299  220.4302 H   0  0  0  0  0  0  0  0  0  0  0  0
  138.3230   73.8107  221.2818 H   0  0  0  0  0  0  0  0  0  0  0  0
  142.8385   74.8313  221.7990 H   0  0  0  0  0  0  0  0  0  0  0  0
  141.9500   73.7231  220.7782 H   0  0  0  0  0  0  0  0  0  0  0  0
  142.6484   74.8664  218.7583 H   0  0  0  0  0  0  0  0  0  0  0  0
  144.7920   75.0320  218.8620 H   0  0  0  0  0  0  0  0  0  0  0  0
  143.5536   77.2953  220.2737 H   0  0  0  0  0  0  0  0  0  0  0  0
  142.7285   77.2012  218.7074 H   0  0  0  0  0  0  0  0  0  0  0  0
  140.6588   77.3572  219.7377 H   0  0  0  0  0  0  0  0  0  0  0  0
  141.8041   79.6605  220.1516 H   0  0  0  0  0  0  0  0  0  0  0  0
  141.9217   81.3954  221.8847 H   0  0  0  0  0  0  0  0  0  0  0  0
  141.6771   80.7465  224.2954 H   0  0  0  0  0  0  0  0  0  0  0  0
  141.3280   78.3574  224.8806 H   0  0  0  0  0  0  0  0  0  0  0  0
  141.2135   76.6396  223.1030 H   0  0  0  0  0  0  0  0  0  0  0  0
  138.7476   69.2858  222.8977 H   0  0  0  0  0  0  0  0  0  0  0  0
  139.3515   67.7801  224.7859 H   0  0  0  0  0  0  0  0  0  0  0  0
  140.2614   67.5549  227.0499 H   0  0  0  0  0  0  0  0  0  0  0  0
  141.2095   68.5765  229.0671 H   0  0  0  0  0  0  0  0  0  0  0  0
  141.5680   71.0244  229.2456 H   0  0  0  0  0  0  0  0  0  0  0  0
  140.9240   72.4623  227.2870 H   0  0  0  0  0  0  0  0  0  0  0  0
  1  2  2  0
  2  3  1  0
  3  4  1  0
  4  5  1  0
  5  6  2  0
  5  7  1  0
  7  8  1  0
  8  9  1  0
  9 10  1  0
  9 11  1  0
 11 12  1  0
 12 13  1  0
 13 14  2  0
 14 15  1  0
 15 16  2  0
 16 17  1  0
 17 18  2  0
  2 19  1  0
 19 20  2  0
 20 21  1  0
 21 22  2  0
 22 23  1  0
 23 24  2  0
 24 25  1  0
 25 26  2  0
 26 27  1  0
 27 28  2  0
 12  7  1  0
 18 13  1  0
 28 19  1  0
 27 22  1  0
  3 29  1  0
  4 30  1  0
  4 31  1  0
  8 32  1  0
  8 33  1  0
  9 34  1  6
 10 35  1  0
 11 36  1  0
 11 37  1  0
 12 38  1  6
 14 39  1  0
 15 40  1  0
 16 41  1  0
 17 42  1  0
 18 43  1  0
 20 44  1  0
 21 45  1  0
 23 46  1  0
 24 47  1  0
 25 48  1  0
 26 49  1  0
M  END
>  <smiles>  (16) 
O=C(NCC(=O)N1C[C@H](O)C[C@@H]1c1ccccc1)c1ccc2ccccc2n1

>  <score_type>  (16) 
oracle

>  <origin>  (16) 
autodockgpu

>  <m_score__min__energy>  (16) 
-9.3699999999999992

>  <m_primary>  (16) 
energy

>  <rmsd>  (16) 
1.9819167027294629

>  <m_score__min__rmsd>  (16) 
1.9819167027294629

>  <meeko>  (16) 
{"free_energy": -8.31, "intermolecular_energy": -10.1, "internal_energy": -1.19, "cluster_size": 28, "cluster_id": 1, "rank_in_cluster": 27}

>  <energy>  (16) 
-8.92

>  <cluster_rmsd>  (16) 
1.02

>  <cluster>  (16) 
1

$$$$

     RDKit          3D

 49 52  0  0  0  0  0  0  0  0999 V2000
  140.6530   73.9900  220.3340 O   0  0  0  0  0  0  0  0  0  0  0  0
  140.3330   74.7510  221.2660 C   0  0  0  0  0  0  0  0  0  0  0  0
  139.4560   74.2420  222.2790 N   0  0  0  0  0  0  0  0  0  0  0  0
  139.0080   72.8910  222.1500 C   0  0  0  0  0  0  0  0  0  0  0  0
  139.7980   71.9520  223.0110 C   0  0  0  0  0  0  0  0  0  0  0  0
  141.0460   72.0390  223.1360 O   0  0  0  0  0  0  0  0  0  0  0  0
  139.1070   70.9230  223.7120 N   0  0  0  0  0  0  0  0  0  0  0  0
  137.6740   70.7280  223.5940 C   0  0  0  0  0  0  0  0  0  0  0  0
  137.5180   69.2610  223.8520 C   0  0  2  0  0  0  0  0  0  0  0  0
  136.2440   68.9300  224.3000 O   0  0  0  0  0  0  0  0  0  0  0  0
  138.5960   68.9280  224.8290 C   0  0  0  0  0  0  0  0  0  0  0  0
  139.6850   69.9470  224.6160 C   0  0  2  0  0  0  0  0  0  0  0  0
  140.1510   70.5680  225.9010 C   0  0  0  0  0  0  0  0  0  0  0  0
  139.7560   70.0890  227.1330 C   0  0  0  0  0  0  0  0  0  0  0  0
  140.1700   70.6380  228.3220 C   0  0  0  0  0  0  0  0  0  0  0  0
  141.0290   71.7330  228.2930 C   0  0  0  0  0  0  0  0  0  0  0  0
  141.4400   72.2350  227.0750 C   0  0  0  0  0  0  0  0  0  0  0  0
  141.0010   71.6540  225.8930 C   0  0  0  0  0  0  0  0  0  0  0  0
  140.8210   76.1330  221.3550 C   0  0  0  0  0  0  0  0  0  0  0  0
  141.1860   76.7680  220.1900 C   0  0  0  0  0  0  0  0  0  0  0  0
  141.6500   78.0650  220.2240 C   0  0  0  0  0  0  0  0  0  0  0  0
  141.7340   78.6990  221.4450 C   0  0  0  0  0  0  0  0  0  0  0  0
  142.1880   80.0000  221.5560 C   0  0  0  0  0  0  0  0  0  0  0  0
  142.2630   80.6130  222.7870 C   0  0  0  0  0  0  0  0  0  0  0  0
  141.8970   79.9790  223.9550 C   0  0  0  0  0  0  0  0  0  0  0  0
  141.4360   78.6640  223.8480 C   0  0  0  0  0  0  0  0  0  0  0  0
  141.3550   78.0300  222.6110 C   0  0  0  0  0  0  0  0  0  0  0  0
  140.9020   76.7590  222.5650 N   0  0  0  0  0  0  0  0  0  0  0  0
  139.1540   74.8410  223.0910 H   0  0  0  0  0  0  0  0  0  0  0  0
  137.9497   72.8382  222.4453 H   0  0  0  0  0  0  0  0  0  0  0  0
  139.1446   72.5867  221.1018 H   0  0  0  0  0  0  0  0  0  0  0  0
  137.1300   71.3223  224.3429 H   0  0  0  0  0  0  0  0  0  0  0  0
  137.2693   71.0452  222.6216 H   0  0  0  0  0  0  0  0  0  0  0  0
  137.6208   68.6678  222.9314 H   0  0  0  0  0  0  0  0  0  0  0  0
  135.5140   69.2840  223.7340 H   0  0  0  0  0  0  0  0  0  0  0  0
  138.2111   68.9904  225.8576 H   0  0  0  0  0  0  0  0  0  0  0  0
  138.9700   67.9043  224.6801 H   0  0  0  0  0  0  0  0  0  0  0  0
  140.5927   69.4879  224.1973 H   0  0  0  0  0  0  0  0  0  0  0  0
  139.0760   69.2249  227.1646 H   0  0  0  0  0  0  0  0  0  0  0  0
  139.8287   70.2197  229.2804 H   0  0  0  0  0  0  0  0  0  0  0  0
  141.3762   72.1928  229.2300 H   0  0  0  0  0  0  0  0  0  0  0  0
  142.1189   73.0998  227.0405 H   0  0  0  0  0  0  0  0  0  0  0  0
  141.3378   72.0680  224.9311 H   0  0  0  0  0  0  0  0  0  0  0  0
  141.1072   76.2387  219.2289 H   0  0  0  0  0  0  0  0  0  0  0  0
  141.9461   78.5819  219.2992 H   0  0  0  0  0  0  0  0  0  0  0  0
  142.4920   80.5503  220.6534 H   0  0  0  0  0  0  0  0  0  0  0  0
  142.6292   81.6489  222.8402 H   0  0  0  0  0  0  0  0  0  0  0  0
  141.9648   80.4860  224.9288 H   0  0  0  0  0  0  0  0  0  0  0  0
  141.1324   78.1213  224.7554 H   0  0  0  0  0  0  0  0  0  0  0  0
  1  2  2  0
  2  3  1  0
  3  4  1  0
  4  5  1  0
  5  6  2  0
  5  7  1  0
  7  8  1  0
  8  9  1  0
  9 10  1  0
  9 11  1  0
 11 12  1  0
 12 13  1  0
 13 14  2  0
 14 15  1  0
 15 16  2  0
 16 17  1  0
 17 18  2  0
  2 19  1  0
 19 20  2  0
 20 21  1  0
 21 22  2  0
 22 23  1  0
 23 24  2  0
 24 25  1  0
 25 26  2  0
 26 27  1  0
 27 28  2  0
 12  7  1  0
 18 13  1  0
 28 19  1  0
 27 22  1  0
  3 29  1  0
  4 30  1  0
  4 31  1  0
  8 32  1  0
  8 33  1  0
  9 34  1  6
 10 35  1  0
 11 36  1  0
 11 37  1  0
 12 38  1  6
 14 39  1  0
 15 40  1  0
 16 41  1  0
 17 42  1  0
 18 43  1  0
 20 44  1  0
 21 45  1  0
 23 46  1  0
 24 47  1  0
 25 48  1  0
 26 49  1  0
M  END
>  <smiles>  (17) 
O=C(NCC(=O)N1C[C@H](O)C[C@@H]1c1ccccc1)c1ccc2ccccc2n1

>  <score_type>  (17) 
oracle

>  <origin>  (17) 
autodockgpu

>  <m_score__min__energy>  (17) 
-9.3699999999999992

>  <m_primary>  (17) 
energy

>  <rmsd>  (17) 
8.386838304064659

>  <m_score__min__rmsd>  (17) 
8.386838304064659

>  <meeko>  (17) 
{"free_energy": -9.05, "intermolecular_energy": -10.84, "internal_energy": -1.26, "cluster_size": 18, "cluster_id": 2, "rank_in_cluster": 9}

>  <energy>  (17) 
-8.78

>  <cluster_rmsd>  (17) 
1.2

>  <cluster>  (17) 
1

$$$$

     RDKit          3D

 49 52  0  0  0  0  0  0  0  0999 V2000
  140.6940   74.0400  220.4150 O   0  0  0  0  0  0  0  0  0  0  0  0
  140.3490   74.8190  221.3230 C   0  0  0  0  0  0  0  0  0  0  0  0
  139.4470   74.3300  222.3230 N   0  0  0  0  0  0  0  0  0  0  0  0
  139.0020   72.9760  222.2100 C   0  0  0  0  0  0  0  0  0  0  0  0
  139.8160   72.0450  223.0560 C   0  0  0  0  0  0  0  0  0  0  0  0
  141.0580   72.1770  223.2030 O   0  0  0  0  0  0  0  0  0  0  0  0
  139.1560   70.9720  223.7200 N   0  0  0  0  0  0  0  0  0  0  0  0
  137.7310   70.7350  223.5900 C   0  0  0  0  0  0  0  0  0  0  0  0
  137.6200   69.2570  223.7970 C   0  0  2  0  0  0  0  0  0  0  0  0
  136.3560   68.8700  224.2280 O   0  0  0  0  0  0  0  0  0  0  0  0
  138.7060   68.9250  224.7660 C   0  0  0  0  0  0  0  0  0  0  0  0
  139.7620   69.9840  224.5920 C   0  0  2  0  0  0  0  0  0  0  0  0
  140.2050   70.5750  225.9000 C   0  0  0  0  0  0  0  0  0  0  0  0
  139.7920   70.0650  227.1130 C   0  0  0  0  0  0  0  0  0  0  0  0
  140.1840   70.5860  228.3210 C   0  0  0  0  0  0  0  0  0  0  0  0
  141.0390   71.6840  228.3330 C   0  0  0  0  0  0  0  0  0  0  0  0
  141.4680   72.2170  227.1350 C   0  0  0  0  0  0  0  0  0  0  0  0
  141.0510   71.6630  225.9310 C   0  0  0  0  0  0  0  0  0  0  0  0
  140.8340   76.2030  221.3960 C   0  0  0  0  0  0  0  0  0  0  0  0
  141.2120   76.8210  220.2250 C   0  0  0  0  0  0  0  0  0  0  0  0
  141.6730   78.1190  220.2440 C   0  0  0  0  0  0  0  0  0  0  0  0
  141.7430   78.7720  221.4570 C   0  0  0  0  0  0  0  0  0  0  0  0
  142.1940   80.0740  221.5530 C   0  0  0  0  0  0  0  0  0  0  0  0
  142.2540   80.7060  222.7750 C   0  0  0  0  0  0  0  0  0  0  0  0
  141.8760   80.0900  223.9490 C   0  0  0  0  0  0  0  0  0  0  0  0
  141.4190   78.7730  223.8570 C   0  0  0  0  0  0  0  0  0  0  0  0
  141.3510   78.1200  222.6290 C   0  0  0  0  0  0  0  0  0  0  0  0
  140.9020   76.8470  222.5970 N   0  0  0  0  0  0  0  0  0  0  0  0
  139.1230   74.9460  223.1140 H   0  0  0  0  0  0  0  0  0  0  0  0
  137.9511   72.9197  222.5302 H   0  0  0  0  0  0  0  0  0  0  0  0
  139.1152   72.6677  221.1602 H   0  0  0  0  0  0  0  0  0  0  0  0
  137.1662   71.2859  224.3565 H   0  0  0  0  0  0  0  0  0  0  0  0
  137.3198   71.0718  222.6269 H   0  0  0  0  0  0  0  0  0  0  0  0
  137.7431   68.6993  222.8569 H   0  0  0  0  0  0  0  0  0  0  0  0
  135.7850   69.6210  224.5250 H   0  0  0  0  0  0  0  0  0  0  0  0
  138.3169   68.9399  225.7948 H   0  0  0  0  0  0  0  0  0  0  0  0
  139.1127   67.9194  224.5834 H   0  0  0  0  0  0  0  0  0  0  0  0
  140.6847   69.5684  224.1609 H   0  0  0  0  0  0  0  0  0  0  0  0
  139.1151   69.1980  227.1125 H   0  0  0  0  0  0  0  0  0  0  0  0
  139.8285   70.1433  229.2631 H   0  0  0  0  0  0  0  0  0  0  0  0
  141.3689   72.1218  229.2866 H   0  0  0  0  0  0  0  0  0  0  0  0
  142.1437   73.0850  227.1330 H   0  0  0  0  0  0  0  0  0  0  0  0
  141.4024   72.1007  224.9850 H   0  0  0  0  0  0  0  0  0  0  0  0
  141.1457   76.2766  219.2715 H   0  0  0  0  0  0  0  0  0  0  0  0
  141.9778   78.6224  219.3146 H   0  0  0  0  0  0  0  0  0  0  0  0
  142.5079   80.6106  220.6455 H   0  0  0  0  0  0  0  0  0  0  0  0
  142.6179   81.7433  222.8160 H   0  0  0  0  0  0  0  0  0  0  0  0
  141.9318   80.6124  224.9155 H   0  0  0  0  0  0  0  0  0  0  0  0
  141.1078   78.2433  224.7694 H   0  0  0  0  0  0  0  0  0  0  0  0
  1  2  2  0
  2  3  1  0
  3  4  1  0
  4  5  1  0
  5  6  2  0
  5  7  1  0
  7  8  1  0
  8  9  1  0
  9 10  1  0
  9 11  1  0
 11 12  1  0
 12 13  1  0
 13 14  2  0
 14 15  1  0
 15 16  2  0
 16 17  1  0
 17 18  2  0
  2 19  1  0
 19 20  2  0
 20 21  1  0
 21 22  2  0
 22 23  1  0
 23 24  2  0
 24 25  1  0
 25 26  2  0
 26 27  1  0
 27 28  2  0
 12  7  1  0
 18 13  1  0
 28 19  1  0
 27 22  1  0
  3 29  1  0
  4 30  1  0
  4 31  1  0
  8 32  1  0
  8 33  1  0
  9 34  1  6
 10 35  1  0
 11 36  1  0
 11 37  1  0
 12 38  1  6
 14 39  1  0
 15 40  1  0
 16 41  1  0
 17 42  1  0
 18 43  1  0
 20 44  1  0
 21 45  1  0
 23 46  1  0
 24 47  1  0
 25 48  1  0
 26 49  1  0
M  END
>  <smiles>  (18) 
O=C(NCC(=O)N1C[C@H](O)C[C@@H]1c1ccccc1)c1ccc2ccccc2n1

>  <score_type>  (18) 
oracle

>  <origin>  (18) 
autodockgpu

>  <m_score__min__energy>  (18) 
-9.3699999999999992

>  <m_primary>  (18) 
energy

>  <rmsd>  (18) 
8.404382344990008

>  <m_score__min__rmsd>  (18) 
8.404382344990008

>  <meeko>  (18) 
{"free_energy": -9.01, "intermolecular_energy": -10.8, "internal_energy": -1.26, "cluster_size": 18, "cluster_id": 2, "rank_in_cluster": 10}

>  <energy>  (18) 
-8.76

>  <cluster_rmsd>  (18) 
1.2

>  <cluster>  (18) 
1

$$$$

     RDKit          3D

 49 52  0  0  0  0  0  0  0  0999 V2000
  140.8710   74.4540  221.3740 O   0  0  0  0  0  0  0  0  0  0  0  0
  139.9250   74.9910  221.9800 C   0  0  0  0  0  0  0  0  0  0  0  0
  138.7920   74.1780  222.3140 N   0  0  0  0  0  0  0  0  0  0  0  0
  138.8260   72.8030  221.9290 C   0  0  0  0  0  0  0  0  0  0  0  0
  139.6190   71.9690  222.8880 C   0  0  0  0  0  0  0  0  0  0  0  0
  140.8420   72.1670  223.1050 O   0  0  0  0  0  0  0  0  0  0  0  0
  138.9610   70.9130  223.5820 N   0  0  0  0  0  0  0  0  0  0  0  0
  137.5250   70.7150  223.5150 C   0  0  0  0  0  0  0  0  0  0  0  0
  137.3850   69.2400  223.7290 C   0  0  2  0  0  0  0  0  0  0  0  0
  136.1310   68.8870  224.2160 O   0  0  0  0  0  0  0  0  0  0  0  0
  138.5030   68.8800  224.6500 C   0  0  0  0  0  0  0  0  0  0  0  0
  139.5790   69.9110  224.4280 C   0  0  2  0  0  0  0  0  0  0  0  0
  140.0940   70.4900  225.7140 C   0  0  0  0  0  0  0  0  0  0  0  0
  140.9760   71.5500  225.7400 C   0  0  0  0  0  0  0  0  0  0  0  0
  141.4600   72.0980  226.9020 C   0  0  0  0  0  0  0  0  0  0  0  0
  141.0460   71.5650  228.1190 C   0  0  0  0  0  0  0  0  0  0  0  0
  140.1640   70.5040  228.1250 C   0  0  0  0  0  0  0  0  0  0  0  0
  139.6950   69.9750  226.9290 C   0  0  0  0  0  0  0  0  0  0  0  0
  139.9370   76.4100  222.3560 C   0  0  0  0  0  0  0  0  0  0  0  0
  138.7270   77.0520  222.5040 C   0  0  0  0  0  0  0  0  0  0  0  0
  138.6890   78.3830  222.8560 C   0  0  0  0  0  0  0  0  0  0  0  0
  139.8830   79.0440  223.0540 C   0  0  0  0  0  0  0  0  0  0  0  0
  139.9210   80.3790  223.4090 C   0  0  0  0  0  0  0  0  0  0  0  0
  141.1260   81.0180  223.6010 C   0  0  0  0  0  0  0  0  0  0  0  0
  142.3370   80.3780  223.4550 C   0  0  0  0  0  0  0  0  0  0  0  0
  142.3040   79.0270  223.0960 C   0  0  0  0  0  0  0  0  0  0  0  0
  141.0940   78.3670  222.8980 C   0  0  0  0  0  0  0  0  0  0  0  0
  141.1190   77.0620  222.5520 N   0  0  0  0  0  0  0  0  0  0  0  0
  137.9650   74.5800  222.8270 H   0  0  0  0  0  0  0  0  0  0  0  0
  137.7958   72.4191  221.8929 H   0  0  0  0  0  0  0  0  0  0  0  0
  139.3104   72.7389  220.9435 H   0  0  0  0  0  0  0  0  0  0  0  0
  137.0094   71.2810  224.3048 H   0  0  0  0  0  0  0  0  0  0  0  0
  137.0803   71.0629  222.5710 H   0  0  0  0  0  0  0  0  0  0  0  0
  137.4526   68.6787  222.7854 H   0  0  0  0  0  0  0  0  0  0  0  0
  135.4240   68.8600  223.5250 H   0  0  0  0  0  0  0  0  0  0  0  0
  138.1598   68.9059  225.6948 H   0  0  0  0  0  0  0  0  0  0  0  0
  138.8745   67.8638  224.4515 H   0  0  0  0  0  0  0  0  0  0  0  0
  140.4712   69.4719  223.9577 H   0  0  0  0  0  0  0  0  0  0  0  0
  141.3080   71.9775  224.7824 H   0  0  0  0  0  0  0  0  0  0  0  0
  142.1628   72.9437  226.8716 H   0  0  0  0  0  0  0  0  0  0  0  0
  141.4177   71.9848  229.0654 H   0  0  0  0  0  0  0  0  0  0  0  0
  139.8305   70.0749  229.0814 H   0  0  0  0  0  0  0  0  0  0  0  0
  138.9920   69.1292  226.9519 H   0  0  0  0  0  0  0  0  0  0  0  0
  137.7894   76.5004  222.3407 H   0  0  0  0  0  0  0  0  0  0  0  0
  137.7290   78.9064  222.9764 H   0  0  0  0  0  0  0  0  0  0  0  0
  138.9813   80.9358  223.5393 H   0  0  0  0  0  0  0  0  0  0  0  0
  141.1211   82.0815  223.8820 H   0  0  0  0  0  0  0  0  0  0  0  0
  143.2885   80.9066  223.6139 H   0  0  0  0  0  0  0  0  0  0  0  0
  143.2482   78.4773  222.9680 H   0  0  0  0  0  0  0  0  0  0  0  0
  1  2  2  0
  2  3  1  0
  3  4  1  0
  4  5  1  0
  5  6  2  0
  5  7  1  0
  7  8  1  0
  8  9  1  0
  9 10  1  0
  9 11  1  0
 11 12  1  0
 12 13  1  0
 13 14  2  0
 14 15  1  0
 15 16  2  0
 16 17  1  0
 17 18  2  0
  2 19  1  0
 19 20  2  0
 20 21  1  0
 21 22  2  0
 22 23  1  0
 23 24  2  0
 24 25  1  0
 25 26  2  0
 26 27  1  0
 27 28  2  0
 12  7  1  0
 18 13  1  0
 28 19  1  0
 27 22  1  0
  3 29  1  0
  4 30  1  0
  4 31  1  0
  8 32  1  0
  8 33  1  0
  9 34  1  6
 10 35  1  0
 11 36  1  0
 11 37  1  0
 12 38  1  6
 14 39  1  0
 15 40  1  0
 16 41  1  0
 17 42  1  0
 18 43  1  0
 20 44  1  0
 21 45  1  0
 23 46  1  0
 24 47  1  0
 25 48  1  0
 26 49  1  0
M  END
>  <smiles>  (19) 
O=C(NCC(=O)N1C[C@H](O)C[C@@H]1c1ccccc1)c1ccc2ccccc2n1

>  <score_type>  (19) 
oracle

>  <origin>  (19) 
autodockgpu

>  <m_score__min__energy>  (19) 
-9.3699999999999992

>  <m_primary>  (19) 
energy

>  <rmsd>  (19) 
8.31484668041946

>  <m_score__min__rmsd>  (19) 
8.31484668041946

>  <meeko>  (19) 
{"free_energy": -9.27, "intermolecular_energy": -11.06, "internal_energy": -1.04, "cluster_size": 18, "cluster_id": 2, "rank_in_cluster": 2}

>  <energy>  (19) 
-8.74

>  <cluster_rmsd>  (19) 
1.31

>  <cluster>  (19) 
1

$$$$

     RDKit          3D

 49 52  0  0  0  0  0  0  0  0999 V2000
  141.2560   72.4450  221.7010 O   0  0  0  0  0  0  0  0  0  0  0  0
  140.3190   72.5020  222.5180 C   0  0  0  0  0  0  0  0  0  0  0  0
  139.3340   73.5290  222.3440 N   0  0  0  0  0  0  0  0  0  0  0  0
  139.4960   74.4210  221.2390 C   0  0  0  0  0  0  0  0  0  0  0  0
  139.9230   75.7890  221.6790 C   0  0  0  0  0  0  0  0  0  0  0  0
  139.4420   76.3520  222.6960 O   0  0  0  0  0  0  0  0  0  0  0  0
  140.9100   76.4750  220.9160 N   0  0  0  0  0  0  0  0  0  0  0  0
  142.1130   75.8220  220.4340 C   0  0  0  0  0  0  0  0  0  0  0  0
  142.4370   76.5990  219.1960 C   0  0  2  0  0  0  0  0  0  0  0  0
  143.7810   76.5170  218.8500 O   0  0  0  0  0  0  0  0  0  0  0  0
  141.9820   77.9900  219.4880 C   0  0  0  0  0  0  0  0  0  0  0  0
  140.8840   77.8670  220.5110 C   0  0  2  0  0  0  0  0  0  0  0  0
  141.0730   78.8000  221.6720 C   0  0  0  0  0  0  0  0  0  0  0  0
  141.4610   78.3530  222.9180 C   0  0  0  0  0  0  0  0  0  0  0  0
  141.6420   79.1860  223.9940 C   0  0  0  0  0  0  0  0  0  0  0  0
  141.4260   80.5510  223.8310 C   0  0  0  0  0  0  0  0  0  0  0  0
  141.0370   81.0280  222.5960 C   0  0  0  0  0  0  0  0  0  0  0  0
  140.8640   80.1560  221.5290 C   0  0  0  0  0  0  0  0  0  0  0  0
  140.1950   71.5600  223.6380 C   0  0  0  0  0  0  0  0  0  0  0  0
  139.6090   70.3380  223.3960 C   0  0  0  0  0  0  0  0  0  0  0  0
  139.4710   69.4220  224.4160 C   0  0  0  0  0  0  0  0  0  0  0  0
  139.9340   69.7630  225.6700 C   0  0  0  0  0  0  0  0  0  0  0  0
  139.8300   68.8940  226.7400 C   0  0  0  0  0  0  0  0  0  0  0  0
  140.3000   69.2570  227.9830 C   0  0  0  0  0  0  0  0  0  0  0  0
  140.8880   70.4790  228.2280 C   0  0  0  0  0  0  0  0  0  0  0  0
  140.9950   71.3610  227.1480 C   0  0  0  0  0  0  0  0  0  0  0  0
  140.5250   71.0100  225.8850 C   0  0  0  0  0  0  0  0  0  0  0  0
  140.6540   71.8990  224.8780 N   0  0  0  0  0  0  0  0  0  0  0  0
  138.5200   73.6220  223.0050 H   0  0  0  0  0  0  0  0  0  0  0  0
  140.2595   74.0116  220.5612 H   0  0  0  0  0  0  0  0  0  0  0  0
  138.5238   74.5150  220.7331 H   0  0  0  0  0  0  0  0  0  0  0  0
  142.9259   75.8942  221.1715 H   0  0  0  0  0  0  0  0  0  0  0  0
  141.9814   74.7453  220.2512 H   0  0  0  0  0  0  0  0  0  0  0  0
  141.9268   76.1935  218.3098 H   0  0  0  0  0  0  0  0  0  0  0  0
  144.3620   77.1490  219.3400 H   0  0  0  0  0  0  0  0  0  0  0  0
  142.8137   78.5865  219.8912 H   0  0  0  0  0  0  0  0  0  0  0  0
  141.6268   78.4949  218.5776 H   0  0  0  0  0  0  0  0  0  0  0  0
  139.9077   78.1543  220.0936 H   0  0  0  0  0  0  0  0  0  0  0  0
  141.6340   77.2755  223.0562 H   0  0  0  0  0  0  0  0  0  0  0  0
  141.9525   78.7813  224.9686 H   0  0  0  0  0  0  0  0  0  0  0  0
  141.5637   81.2413  224.6763 H   0  0  0  0  0  0  0  0  0  0  0  0
  140.8629   82.1051  222.4558 H   0  0  0  0  0  0  0  0  0  0  0  0
  140.5545   80.5542  220.5514 H   0  0  0  0  0  0  0  0  0  0  0  0
  139.2500   70.0922  222.3857 H   0  0  0  0  0  0  0  0  0  0  0  0
  139.0032   68.4430  224.2349 H   0  0  0  0  0  0  0  0  0  0  0  0
  139.3687   67.9056  226.5979 H   0  0  0  0  0  0  0  0  0  0  0  0
  140.2020   68.5425  228.8136 H   0  0  0  0  0  0  0  0  0  0  0  0
  141.2568   70.7487  229.2286 H   0  0  0  0  0  0  0  0  0  0  0  0
  141.4577   72.3475  227.2985 H   0  0  0  0  0  0  0  0  0  0  0  0
  1  2  2  0
  2  3  1  0
  3  4  1  0
  4  5  1  0
  5  6  2  0
  5  7  1  0
  7  8  1  0
  8  9  1  0
  9 10  1  0
  9 11  1  0
 11 12  1  0
 12 13  1  0
 13 14  2  0
 14 15  1  0
 15 16  2  0
 16 17  1  0
 17 18  2  0
  2 19  1  0
 19 20  2  0
 20 21  1  0
 21 22  2  0
 22 23  1  0
 23 24  2  0
 24 25  1  0
 25 26  2  0
 26 27  1  0
 27 28  2  0
 12  7  1  0
 18 13  1  0
 28 19  1  0
 27 22  1  0
  3 29  1  0
  4 30  1  0
  4 31  1  0
  8 32  1  0
  8 33  1  0
  9 34  1  6
 10 35  1  0
 11 36  1  0
 11 37  1  0
 12 38  1  6
 14 39  1  0
 15 40  1  0
 16 41  1  0
 17 42  1  0
 18 43  1  0
 20 44  1  0
 21 45  1  0
 23 46  1  0
 24 47  1  0
 25 48  1  0
 26 49  1  0
M  END
>  <smiles>  (20) 
O=C(NCC(=O)N1C[C@H](O)C[C@@H]1c1ccccc1)c1ccc2ccccc2n1

>  <score_type>  (20) 
oracle

>  <origin>  (20) 
autodockgpu

>  <m_score__min__energy>  (20) 
-9.3699999999999992

>  <m_primary>  (20) 
energy

>  <rmsd>  (20) 
1.9445548309447915

>  <m_score__min__rmsd>  (20) 
1.9445548309447915

>  <meeko>  (20) 
{"free_energy": -9.18, "intermolecular_energy": -10.97, "internal_energy": -1.23, "cluster_size": 28, "cluster_id": 1, "rank_in_cluster": 8}

>  <energy>  (20) 
-8.73

>  <cluster_rmsd>  (20) 
1.44

>  <cluster>  (20) 
1

$$$$

     RDKit          3D

 49 52  0  0  0  0  0  0  0  0999 V2000
  141.3440   72.1620  221.3140 O   0  0  0  0  0  0  0  0  0  0  0  0
  140.6440   72.5310  222.2750 C   0  0  0  0  0  0  0  0  0  0  0  0
  140.1680   73.8830  222.2820 N   0  0  0  0  0  0  0  0  0  0  0  0
  140.5320   74.7190  221.1820 C   0  0  0  0  0  0  0  0  0  0  0  0
  140.7090   76.1480  221.5960 C   0  0  0  0  0  0  0  0  0  0  0  0
  140.3690   76.5700  222.7300 O   0  0  0  0  0  0  0  0  0  0  0  0
  141.2870   77.0620  220.6670 N   0  0  0  0  0  0  0  0  0  0  0  0
  142.3670   76.6860  219.7760 C   0  0  0  0  0  0  0  0  0  0  0  0
  142.1610   77.5940  218.6040 C   0  0  2  0  0  0  0  0  0  0  0  0
  143.3250   77.7950  217.8710 O   0  0  0  0  0  0  0  0  0  0  0  0
  141.6020   78.8500  219.1880 C   0  0  0  0  0  0  0  0  0  0  0  0
  140.9130   78.4480  220.4650 C   0  0  2  0  0  0  0  0  0  0  0  0
  141.3020   79.3170  221.6260 C   0  0  0  0  0  0  0  0  0  0  0  0
  140.5430   80.4000  222.0190 C   0  0  0  0  0  0  0  0  0  0  0  0
  140.8760   81.2080  223.0780 C   0  0  0  0  0  0  0  0  0  0  0  0
  142.0360   80.9300  223.7960 C   0  0  0  0  0  0  0  0  0  0  0  0
  142.8160   79.8540  223.4250 C   0  0  0  0  0  0  0  0  0  0  0  0
  142.4470   79.0580  222.3490 C   0  0  0  0  0  0  0  0  0  0  0  0
  140.2960   71.6330  223.3840 C   0  0  0  0  0  0  0  0  0  0  0  0
  139.5360   70.5190  223.1040 C   0  0  0  0  0  0  0  0  0  0  0  0
  139.1860   69.6490  224.1110 C   0  0  0  0  0  0  0  0  0  0  0  0
  139.6140   69.9230  225.3930 C   0  0  0  0  0  0  0  0  0  0  0  0
  139.3020   69.0940  226.4540 C   0  0  0  0  0  0  0  0  0  0  0  0
  139.7420   69.3870  227.7260 C   0  0  0  0  0  0  0  0  0  0  0  0
  140.5030   70.5010  228.0090 C   0  0  0  0  0  0  0  0  0  0  0  0
  140.8220   71.3420  226.9390 C   0  0  0  0  0  0  0  0  0  0  0  0
  140.3850   71.0590  225.6480 C   0  0  0  0  0  0  0  0  0  0  0  0
  140.7220   71.9060  224.6510 N   0  0  0  0  0  0  0  0  0  0  0  0
  139.5720   74.2470  223.0700 H   0  0  0  0  0  0  0  0  0  0  0  0
  141.4779   74.3532  220.7560 H   0  0  0  0  0  0  0  0  0  0  0  0
  139.7194   74.6785  220.4417 H   0  0  0  0  0  0  0  0  0  0  0  0
  143.3466   76.8604  220.2450 H   0  0  0  0  0  0  0  0  0  0  0  0
  142.3587   75.6193  219.5074 H   0  0  0  0  0  0  0  0  0  0  0  0
  141.4731   77.1601  217.8634 H   0  0  0  0  0  0  0  0  0  0  0  0
  143.3240   78.6250  217.3330 H   0  0  0  0  0  0  0  0  0  0  0  0
  142.4106   79.5652  219.3996 H   0  0  0  0  0  0  0  0  0  0  0  0
  140.9044   79.3400  218.4928 H   0  0  0  0  0  0  0  0  0  0  0  0
  139.8223   78.5714  220.3929 H   0  0  0  0  0  0  0  0  0  0  0  0
  139.6257   80.6274  221.4561 H   0  0  0  0  0  0  0  0  0  0  0  0
  140.2375   82.0600  223.3543 H   0  0  0  0  0  0  0  0  0  0  0  0
  142.3272   81.5607  224.6489 H   0  0  0  0  0  0  0  0  0  0  0  0
  143.7350   79.6256  223.9847 H   0  0  0  0  0  0  0  0  0  0  0  0
  143.0806   78.2039  222.0678 H   0  0  0  0  0  0  0  0  0  0  0  0
  139.2078   70.3242  222.0723 H   0  0  0  0  0  0  0  0  0  0  0  0
  138.5794   68.7563  223.8985 H   0  0  0  0  0  0  0  0  0  0  0  0
  138.6967   68.1919  226.2810 H   0  0  0  0  0  0  0  0  0  0  0  0
  139.4758   68.7058  228.5476 H   0  0  0  0  0  0  0  0  0  0  0  0
  140.8442   70.7186  229.0319 H   0  0  0  0  0  0  0  0  0  0  0  0
  141.4281   72.2419  227.1201 H   0  0  0  0  0  0  0  0  0  0  0  0
  1  2  2  0
  2  3  1  0
  3  4  1  0
  4  5  1  0
  5  6  2  0
  5  7  1  0
  7  8  1  0
  8  9  1  0
  9 10  1  0
  9 11  1  0
 11 12  1  0
 12 13  1  0
 13 14  2  0
 14 15  1  0
 15 16  2  0
 16 17  1  0
 17 18  2  0
  2 19  1  0
 19 20  2  0
 20 21  1  0
 21 22  2  0
 22 23  1  0
 23 24  2  0
 24 25  1  0
 25 26  2  0
 26 27  1  0
 27 28  2  0
 12  7  1  0
 18 13  1  0
 28 19  1  0
 27 22  1  0
  3 29  1  0
  4 30  1  0
  4 31  1  0
  8 32  1  0
  8 33  1  0
  9 34  1  6
 10 35  1  0
 11 36  1  0
 11 37  1  0
 12 38  1  6
 14 39  1  0
 15 40  1  0
 16 41  1  0
 17 42  1  0
 18 43  1  0
 20 44  1  0
 21 45  1  0
 23 46  1  0
 24 47  1  0
 25 48  1  0
 26 49  1  0
M  END
>  <smiles>  (21) 
O=C(NCC(=O)N1C[C@H](O)C[C@@H]1c1ccccc1)c1ccc2ccccc2n1

>  <score_type>  (21) 
oracle

>  <origin>  (21) 
autodockgpu

>  <m_score__min__energy>  (21) 
-9.3699999999999992

>  <m_primary>  (21) 
energy

>  <rmsd>  (21) 
2.2209770349286653

>  <m_score__min__rmsd>  (21) 
2.2209770349286653

>  <meeko>  (21) 
{"free_energy": -8.74, "intermolecular_energy": -10.53, "internal_energy": -1.46, "cluster_size": 28, "cluster_id": 1, "rank_in_cluster": 19}

>  <energy>  (21) 
-8.73

>  <cluster_rmsd>  (21) 
1.38

>  <cluster>  (21) 
1

$$$$

     RDKit          3D

 49 52  0  0  0  0  0  0  0  0999 V2000
  141.1700   72.1020  221.2960 O   0  0  0  0  0  0  0  0  0  0  0  0
  140.4990   72.4460  222.2870 C   0  0  0  0  0  0  0  0  0  0  0  0
  139.9560   73.7720  222.3050 N   0  0  0  0  0  0  0  0  0  0  0  0
  140.2220   74.6120  221.1800 C   0  0  0  0  0  0  0  0  0  0  0  0
  140.4110   76.0440  221.5800 C   0  0  0  0  0  0  0  0  0  0  0  0
  139.9960   76.4990  222.6760 O   0  0  0  0  0  0  0  0  0  0  0  0
  141.0870   76.9200  220.6830 N   0  0  0  0  0  0  0  0  0  0  0  0
  142.1870   76.4800  219.8460 C   0  0  0  0  0  0  0  0  0  0  0  0
  142.0930   77.3980  218.6670 C   0  0  2  0  0  0  0  0  0  0  0  0
  143.3020   77.5280  217.9930 O   0  0  0  0  0  0  0  0  0  0  0  0
  141.5820   78.6850  219.2250 C   0  0  0  0  0  0  0  0  0  0  0  0
  140.8070   78.3270  220.4650 C   0  0  2  0  0  0  0  0  0  0  0  0
  141.1890   79.1720  221.6460 C   0  0  0  0  0  0  0  0  0  0  0  0
  142.5030   79.3610  222.0190 C   0  0  0  0  0  0  0  0  0  0  0  0
  142.8780   80.1300  223.0930 C   0  0  0  0  0  0  0  0  0  0  0  0
  141.8900   80.7550  223.8490 C   0  0  0  0  0  0  0  0  0  0  0  0
  140.5660   80.5840  223.5000 C   0  0  0  0  0  0  0  0  0  0  0  0
  140.2240   79.7980  222.4070 C   0  0  0  0  0  0  0  0  0  0  0  0
  140.2530   71.5450  223.4200 C   0  0  0  0  0  0  0  0  0  0  0  0
  139.5760   70.3700  223.1790 C   0  0  0  0  0  0  0  0  0  0  0  0
  139.3220   69.4930  224.2100 C   0  0  0  0  0  0  0  0  0  0  0  0
  139.7610   69.8240  225.4750 C   0  0  0  0  0  0  0  0  0  0  0  0
  139.5430   68.9930  226.5580 C   0  0  0  0  0  0  0  0  0  0  0  0
  139.9920   69.3440  227.8120 C   0  0  0  0  0  0  0  0  0  0  0  0
  140.6700   70.5190  228.0550 C   0  0  0  0  0  0  0  0  0  0  0  0
  140.8940   71.3630  226.9630 C   0  0  0  0  0  0  0  0  0  0  0  0
  140.4460   71.0220  225.6890 C   0  0  0  0  0  0  0  0  0  0  0  0
  140.6890   71.8730  224.6700 N   0  0  0  0  0  0  0  0  0  0  0  0
  139.3810   74.1150  223.1170 H   0  0  0  0  0  0  0  0  0  0  0  0
  141.1369   74.2589  220.6817 H   0  0  0  0  0  0  0  0  0  0  0  0
  139.3552   74.5597  220.5047 H   0  0  0  0  0  0  0  0  0  0  0  0
  143.1505   76.5970  220.3637 H   0  0  0  0  0  0  0  0  0  0  0  0
  142.1300   75.4154  219.5752 H   0  0  0  0  0  0  0  0  0  0  0  0
  141.4174   77.0060  217.8925 H   0  0  0  0  0  0  0  0  0  0  0  0
  143.4210   78.4010  217.5450 H   0  0  0  0  0  0  0  0  0  0  0  0
  142.4205   79.3504  219.4783 H   0  0  0  0  0  0  0  0  0  0  0  0
  140.9505   79.2149  218.4967 H   0  0  0  0  0  0  0  0  0  0  0  0
  139.7308   78.5161  220.3385 H   0  0  0  0  0  0  0  0  0  0  0  0
  143.2900   78.8713  221.4267 H   0  0  0  0  0  0  0  0  0  0  0  0
  143.9404   80.2501  223.3515 H   0  0  0  0  0  0  0  0  0  0  0  0
  142.1616   81.3777  224.7142 H   0  0  0  0  0  0  0  0  0  0  0  0
  139.7771   81.0728  224.0905 H   0  0  0  0  0  0  0  0  0  0  0  0
  139.1635   79.6724  222.1434 H   0  0  0  0  0  0  0  0  0  0  0  0
  139.2372   70.1314  222.1600 H   0  0  0  0  0  0  0  0  0  0  0  0
  138.7823   68.5517  224.0291 H   0  0  0  0  0  0  0  0  0  0  0  0
  139.0063   68.0432  226.4171 H   0  0  0  0  0  0  0  0  0  0  0  0
  139.8020   68.6599  228.6522 H   0  0  0  0  0  0  0  0  0  0  0  0
  141.0198   70.7815  229.0643 H   0  0  0  0  0  0  0  0  0  0  0  0
  141.4322   72.3107  227.1123 H   0  0  0  0  0  0  0  0  0  0  0  0
  1  2  2  0
  2  3  1  0
  3  4  1  0
  4  5  1  0
  5  6  2  0
  5  7  1  0
  7  8  1  0
  8  9  1  0
  9 10  1  0
  9 11  1  0
 11 12  1  0
 12 13  1  0
 13 14  2  0
 14 15  1  0
 15 16  2  0
 16 17  1  0
 17 18  2  0
  2 19  1  0
 19 20  2  0
 20 21  1  0
 21 22  2  0
 22 23  1  0
 23 24  2  0
 24 25  1  0
 25 26  2  0
 26 27  1  0
 27 28  2  0
 12  7  1  0
 18 13  1  0
 28 19  1  0
 27 22  1  0
  3 29  1  0
  4 30  1  0
  4 31  1  0
  8 32  1  0
  8 33  1  0
  9 34  1  6
 10 35  1  0
 11 36  1  0
 11 37  1  0
 12 38  1  6
 14 39  1  0
 15 40  1  0
 16 41  1  0
 17 42  1  0
 18 43  1  0
 20 44  1  0
 21 45  1  0
 23 46  1  0
 24 47  1  0
 25 48  1  0
 26 49  1  0
M  END
>  <smiles>  (22) 
O=C(NCC(=O)N1C[C@H](O)C[C@@H]1c1ccccc1)c1ccc2ccccc2n1

>  <score_type>  (22) 
oracle

>  <origin>  (22) 
autodockgpu

>  <m_score__min__energy>  (22) 
-9.3699999999999992

>  <m_primary>  (22) 
energy

>  <rmsd>  (22) 
2.064020245811255

>  <m_score__min__rmsd>  (22) 
2.064020245811255

>  <meeko>  (22) 
{"free_energy": -8.78, "intermolecular_energy": -10.57, "internal_energy": -1.46, "cluster_size": 28, "cluster_id": 1, "rank_in_cluster": 17}

>  <energy>  (22) 
-8.72

>  <cluster_rmsd>  (22) 
1.37

>  <cluster>  (22) 
1

$$$$

     RDKit          3D

 49 52  0  0  0  0  0  0  0  0999 V2000
  141.4130   72.4180  221.8950 O   0  0  0  0  0  0  0  0  0  0  0  0
  140.4050   72.4340  222.6260 C   0  0  0  0  0  0  0  0  0  0  0  0
  139.3830   73.3980  222.3410 N   0  0  0  0  0  0  0  0  0  0  0  0
  139.5890   74.2760  221.2330 C   0  0  0  0  0  0  0  0  0  0  0  0
  140.0150   75.6440  221.6720 C   0  0  0  0  0  0  0  0  0  0  0  0
  139.5620   76.1920  222.7100 O   0  0  0  0  0  0  0  0  0  0  0  0
  140.9700   76.3480  220.8840 N   0  0  0  0  0  0  0  0  0  0  0  0
  142.1620   75.7130  220.3550 C   0  0  0  0  0  0  0  0  0  0  0  0
  142.4370   76.5060  219.1160 C   0  0  2  0  0  0  0  0  0  0  0  0
  143.7700   76.4410  218.7240 O   0  0  0  0  0  0  0  0  0  0  0  0
  141.9790   77.8900  219.4380 C   0  0  0  0  0  0  0  0  0  0  0  0
  140.9180   77.7450  220.4970 C   0  0  2  0  0  0  0  0  0  0  0  0
  141.1370   78.6670  221.6610 C   0  0  0  0  0  0  0  0  0  0  0  0
  142.3960   79.0780  222.0450 C   0  0  0  0  0  0  0  0  0  0  0  0
  142.6220   79.9220  223.1040 C   0  0  0  0  0  0  0  0  0  0  0  0
  141.5340   80.3900  223.8340 C   0  0  0  0  0  0  0  0  0  0  0  0
  140.2620   79.9950  223.4740 C   0  0  0  0  0  0  0  0  0  0  0  0
  140.0710   79.1410  222.3960 C   0  0  0  0  0  0  0  0  0  0  0  0
  140.2380   71.5090  223.7540 C   0  0  0  0  0  0  0  0  0  0  0  0
  139.5920   70.3150  223.5230 C   0  0  0  0  0  0  0  0  0  0  0  0
  139.4120   69.4160  224.5510 C   0  0  0  0  0  0  0  0  0  0  0  0
  139.8930   69.7440  225.8010 C   0  0  0  0  0  0  0  0  0  0  0  0
  139.7500   68.8910  226.8790 C   0  0  0  0  0  0  0  0  0  0  0  0
  140.2390   69.2400  228.1180 C   0  0  0  0  0  0  0  0  0  0  0  0
  140.8860   70.4340  228.3510 C   0  0  0  0  0  0  0  0  0  0  0  0
  141.0340   71.3000  227.2640 C   0  0  0  0  0  0  0  0  0  0  0  0
  140.5450   70.9620  226.0050 C   0  0  0  0  0  0  0  0  0  0  0  0
  140.7160   71.8360  224.9900 N   0  0  0  0  0  0  0  0  0  0  0  0
  138.5090   73.4550  222.9270 H   0  0  0  0  0  0  0  0  0  0  0  0
  140.3698   73.8521  220.5844 H   0  0  0  0  0  0  0  0  0  0  0  0
  138.6345   74.3738  220.6951 H   0  0  0  0  0  0  0  0  0  0  0  0
  142.9984   75.7855  221.0658 H   0  0  0  0  0  0  0  0  0  0  0  0
  142.0347   74.6371  220.1646 H   0  0  0  0  0  0  0  0  0  0  0  0
  141.9011   76.1046  218.2433 H   0  0  0  0  0  0  0  0  0  0  0  0
  144.2170   75.5910  218.9590 H   0  0  0  0  0  0  0  0  0  0  0  0
  142.8183   78.4906  219.8186 H   0  0  0  0  0  0  0  0  0  0  0  0
  141.5880   78.4009  218.5458 H   0  0  0  0  0  0  0  0  0  0  0  0
  139.9252   78.0279  220.1171 H   0  0  0  0  0  0  0  0  0  0  0  0
  143.2622   78.7115  221.4746 H   0  0  0  0  0  0  0  0  0  0  0  0
  143.6458   80.2231  223.3708 H   0  0  0  0  0  0  0  0  0  0  0  0
  141.6861   81.0667  224.6878 H   0  0  0  0  0  0  0  0  0  0  0  0
  139.3944   80.3587  224.0441 H   0  0  0  0  0  0  0  0  0  0  0  0
  139.0497   78.8368  222.1231 H   0  0  0  0  0  0  0  0  0  0  0  0
  139.2190   70.0787  222.5155 H   0  0  0  0  0  0  0  0  0  0  0  0
  138.8969   68.4594  224.3789 H   0  0  0  0  0  0  0  0  0  0  0  0
  139.2411   67.9249  226.7460 H   0  0  0  0  0  0  0  0  0  0  0  0
  140.1080   68.5380  228.9547 H   0  0  0  0  0  0  0  0  0  0  0  0
  141.2692   70.6942  229.3487 H   0  0  0  0  0  0  0  0  0  0  0  0
  141.5449   72.2638  227.4054 H   0  0  0  0  0  0  0  0  0  0  0  0
  1  2  2  0
  2  3  1  0
  3  4  1  0
  4  5  1  0
  5  6  2  0
  5  7  1  0
  7  8  1  0
  8  9  1  0
  9 10  1  0
  9 11  1  0
 11 12  1  0
 12 13  1  0
 13 14  2  0
 14 15  1  0
 15 16  2  0
 16 17  1  0
 17 18  2  0
  2 19  1  0
 19 20  2  0
 20 21  1  0
 21 22  2  0
 22 23  1  0
 23 24  2  0
 24 25  1  0
 25 26  2  0
 26 27  1  0
 27 28  2  0
 12  7  1  0
 18 13  1  0
 28 19  1  0
 27 22  1  0
  3 29  1  0
  4 30  1  0
  4 31  1  0
  8 32  1  0
  8 33  1  0
  9 34  1  6
 10 35  1  0
 11 36  1  0
 11 37  1  0
 12 38  1  6
 14 39  1  0
 15 40  1  0
 16 41  1  0
 17 42  1  0
 18 43  1  0
 20 44  1  0
 21 45  1  0
 23 46  1  0
 24 47  1  0
 25 48  1  0
 26 49  1  0
M  END
>  <smiles>  (23) 
O=C(NCC(=O)N1C[C@H](O)C[C@@H]1c1ccccc1)c1ccc2ccccc2n1

>  <score_type>  (23) 
oracle

>  <origin>  (23) 
autodockgpu

>  <m_score__min__energy>  (23) 
-9.3699999999999992

>  <m_primary>  (23) 
energy

>  <rmsd>  (23) 
1.9338747111869574

>  <m_score__min__rmsd>  (23) 
1.9338747111869574

>  <meeko>  (23) 
{"free_energy": -8.93, "intermolecular_energy": -10.72, "internal_energy": -1.29, "cluster_size": 28, "cluster_id": 1, "rank_in_cluster": 15}

>  <energy>  (23) 
-8.71

>  <cluster_rmsd>  (23) 
0.85

>  <cluster>  (23) 
1

$$$$

     RDKit          3D

 49 52  0  0  0  0  0  0  0  0999 V2000
  140.6610   73.1580  222.1430 O   0  0  0  0  0  0  0  0  0  0  0  0
  140.5750   71.9250  222.2900 C   0  0  0  0  0  0  0  0  0  0  0  0
  140.7670   71.0940  221.1380 N   0  0  0  0  0  0  0  0  0  0  0  0
  141.0460   71.7410  219.8940 C   0  0  0  0  0  0  0  0  0  0  0  0
  141.9800   70.9390  219.0400 C   0  0  0  0  0  0  0  0  0  0  0  0
  141.5880   69.9830  218.3230 O   0  0  0  0  0  0  0  0  0  0  0  0
  143.3650   71.2730  219.0430 N   0  0  0  0  0  0  0  0  0  0  0  0
  143.9120   72.3240  218.2060 C   0  0  0  0  0  0  0  0  0  0  0  0
  145.0970   72.7900  218.9940 C   0  0  2  0  0  0  0  0  0  0  0  0
  146.0590   73.4050  218.2000 O   0  0  0  0  0  0  0  0  0  0  0  0
  145.5950   71.5690  219.6930 C   0  0  0  0  0  0  0  0  0  0  0  0
  144.4080   70.6540  219.8380 C   0  0  2  0  0  0  0  0  0  0  0  0
  144.7050   69.2510  219.3940 C   0  0  0  0  0  0  0  0  0  0  0  0
  143.8890   68.1880  219.7240 C   0  0  0  0  0  0  0  0  0  0  0  0
  144.1380   66.8980  219.3290 C   0  0  0  0  0  0  0  0  0  0  0  0
  145.2670   66.6370  218.5580 C   0  0  0  0  0  0  0  0  0  0  0  0
  146.1020   67.6800  218.2130 C   0  0  0  0  0  0  0  0  0  0  0  0
  145.8190   68.9740  218.6310 C   0  0  0  0  0  0  0  0  0  0  0  0
  140.2870   71.3070  223.5910 C   0  0  0  0  0  0  0  0  0  0  0  0
  139.5410   70.1490  223.6070 C   0  0  0  0  0  0  0  0  0  0  0  0
  139.2460   69.5330  224.8040 C   0  0  0  0  0  0  0  0  0  0  0  0
  139.7140   70.1040  225.9680 C   0  0  0  0  0  0  0  0  0  0  0  0
  139.4580   69.5420  227.2040 C   0  0  0  0  0  0  0  0  0  0  0  0
  139.9370   70.1290  228.3540 C   0  0  0  0  0  0  0  0  0  0  0  0
  140.6840   71.2880  228.3400 C   0  0  0  0  0  0  0  0  0  0  0  0
  140.9460   71.8600  227.0920 C   0  0  0  0  0  0  0  0  0  0  0  0
  140.4690   71.2780  225.9200 C   0  0  0  0  0  0  0  0  0  0  0  0
  140.7520   71.8730  224.7420 N   0  0  0  0  0  0  0  0  0  0  0  0
  140.7060   70.0450  221.2050 H   0  0  0  0  0  0  0  0  0  0  0  0
  140.1014   71.8845  219.3489 H   0  0  0  0  0  0  0  0  0  0  0  0
  141.5297   72.7043  220.1136 H   0  0  0  0  0  0  0  0  0  0  0  0
  144.2177   71.9311  217.2251 H   0  0  0  0  0  0  0  0  0  0  0  0
  143.1918   73.1258  217.9859 H   0  0  0  0  0  0  0  0  0  0  0  0
  144.8289   73.5770  219.7142 H   0  0  0  0  0  0  0  0  0  0  0  0
  145.8460   74.3410  217.9620 H   0  0  0  0  0  0  0  0  0  0  0  0
  146.3810   71.0823  219.0969 H   0  0  0  0  0  0  0  0  0  0  0  0
  146.0313   71.8175  220.6717 H   0  0  0  0  0  0  0  0  0  0  0  0
  144.1092   70.5421  220.8907 H   0  0  0  0  0  0  0  0  0  0  0  0
  142.9949   68.3848  220.3338 H   0  0  0  0  0  0  0  0  0  0  0  0
  143.4568   66.0836  219.6168 H   0  0  0  0  0  0  0  0  0  0  0  0
  145.4909   65.6119  218.2277 H   0  0  0  0  0  0  0  0  0  0  0  0
  146.9968   67.4856  217.6035 H   0  0  0  0  0  0  0  0  0  0  0  0
  146.4965   69.7930  218.3478 H   0  0  0  0  0  0  0  0  0  0  0  0
  139.1802   69.7153  222.6627 H   0  0  0  0  0  0  0  0  0  0  0  0
  138.6514   68.6079  224.8299 H   0  0  0  0  0  0  0  0  0  0  0  0
  138.8661   68.6172  227.2700 H   0  0  0  0  0  0  0  0  0  0  0  0
  139.7151   69.6548  229.3214 H   0  0  0  0  0  0  0  0  0  0  0  0
  141.0571   71.7422  229.2698 H   0  0  0  0  0  0  0  0  0  0  0  0
  141.5386   72.7849  227.0344 H   0  0  0  0  0  0  0  0  0  0  0  0
  1  2  2  0
  2  3  1  0
  3  4  1  0
  4  5  1  0
  5  6  2  0
  5  7  1  0
  7  8  1  0
  8  9  1  0
  9 10  1  0
  9 11  1  0
 11 12  1  0
 12 13  1  0
 13 14  2  0
 14 15  1  0
 15 16  2  0
 16 17  1  0
 17 18  2  0
  2 19  1  0
 19 20  2  0
 20 21  1  0
 21 22  2  0
 22 23  1  0
 23 24  2  0
 24 25  1  0
 25 26  2  0
 26 27  1  0
 27 28  2  0
 12  7  1  0
 18 13  1  0
 28 19  1  0
 27 22  1  0
  3 29  1  0
  4 30  1  0
  4 31  1  0
  8 32  1  0
  8 33  1  0
  9 34  1  1
 10 35  1  0
 11 36  1  0
 11 37  1  0
 12 38  1  1
 14 39  1  0
 15 40  1  0
 16 41  1  0
 17 42  1  0
 18 43  1  0
 20 44  1  0
 21 45  1  0
 23 46  1  0
 24 47  1  0
 25 48  1  0
 26 49  1  0
M  END
>  <smiles>  (24) 
O=C(NCC(=O)N1C[C@H](O)C[C@@H]1c1ccccc1)c1ccc2ccccc2n1

>  <score_type>  (24) 
oracle

>  <origin>  (24) 
autodockgpu

>  <m_score__min__energy>  (24) 
-9.3699999999999992

>  <m_primary>  (24) 
energy

>  <rmsd>  (24) 
4.467654406557574

>  <m_score__min__rmsd>  (24) 
4.467654406557574

>  <meeko>  (24) 
{"free_energy": -8.22, "intermolecular_energy": -10.01, "internal_energy": -1.3, "cluster_size": 1, "cluster_id": 5, "rank_in_cluster": 1}

>  <energy>  (24) 
-8.71

>  <cluster_rmsd>  (24) 
1.37

>  <cluster>  (24) 
1

$$$$

     RDKit          3D

 49 52  0  0  0  0  0  0  0  0999 V2000
  140.7170   72.2920  221.0350 O   0  0  0  0  0  0  0  0  0  0  0  0
  140.2830   72.7260  222.1180 C   0  0  0  0  0  0  0  0  0  0  0  0
  139.9180   74.1100  222.1910 N   0  0  0  0  0  0  0  0  0  0  0  0
  140.0760   74.9000  221.0100 C   0  0  0  0  0  0  0  0  0  0  0  0
  141.5080   75.2700  220.7690 C   0  0  0  0  0  0  0  0  0  0  0  0
  142.4660   74.5970  221.2280 O   0  0  0  0  0  0  0  0  0  0  0  0
  141.7920   76.4280  219.9890 N   0  0  0  0  0  0  0  0  0  0  0  0
  142.8080   76.4370  218.9540 C   0  0  0  0  0  0  0  0  0  0  0  0
  142.3000   77.4740  218.0000 C   0  0  2  0  0  0  0  0  0  0  0  0
  143.3110   78.0280  217.2240 O   0  0  0  0  0  0  0  0  0  0  0  0
  141.5960   78.4700  218.8600 C   0  0  0  0  0  0  0  0  0  0  0  0
  141.1500   77.7240  220.0900 C   0  0  2  0  0  0  0  0  0  0  0  0
  141.5110   78.4400  221.3600 C   0  0  0  0  0  0  0  0  0  0  0  0
  142.1750   79.6490  221.3570 C   0  0  0  0  0  0  0  0  0  0  0  0
  142.5140   80.3230  222.5040 C   0  0  0  0  0  0  0  0  0  0  0  0
  142.1760   79.7680  223.7350 C   0  0  0  0  0  0  0  0  0  0  0  0
  141.5120   78.5590  223.7690 C   0  0  0  0  0  0  0  0  0  0  0  0
  141.1850   77.9050  222.5880 C   0  0  0  0  0  0  0  0  0  0  0  0
  140.1380   71.8730  223.3050 C   0  0  0  0  0  0  0  0  0  0  0  0
  139.4570   70.6850  223.1700 C   0  0  0  0  0  0  0  0  0  0  0  0
  139.2950   69.8520  224.2550 C   0  0  0  0  0  0  0  0  0  0  0  0
  139.8320   70.2400  225.4650 C   0  0  0  0  0  0  0  0  0  0  0  0
  139.7100   69.4560  226.5960 C   0  0  0  0  0  0  0  0  0  0  0  0
  140.2550   69.8640  227.7930 C   0  0  0  0  0  0  0  0  0  0  0  0
  140.9380   71.0530  227.9310 C   0  0  0  0  0  0  0  0  0  0  0  0
  141.0640   71.8500  226.7890 C   0  0  0  0  0  0  0  0  0  0  0  0
  140.5190   71.4510  225.5710 C   0  0  0  0  0  0  0  0  0  0  0  0
  140.6700   72.2600  224.5000 N   0  0  0  0  0  0  0  0  0  0  0  0
  139.5450   74.5300  223.0820 H   0  0  0  0  0  0  0  0  0  0  0  0
  139.7075   74.3261  220.1470 H   0  0  0  0  0  0  0  0  0  0  0  0
  139.5031   75.8294  221.1440 H   0  0  0  0  0  0  0  0  0  0  0  0
  143.7884   76.7216  219.3635 H   0  0  0  0  0  0  0  0  0  0  0  0
  142.9624   75.4533  218.4865 H   0  0  0  0  0  0  0  0  0  0  0  0
  141.6186   77.0460  217.2500 H   0  0  0  0  0  0  0  0  0  0  0  0
  143.3310   79.0170  217.2360 H   0  0  0  0  0  0  0  0  0  0  0  0
  142.2800   79.2860  219.1363 H   0  0  0  0  0  0  0  0  0  0  0  0
  140.7419   78.9208  218.3335 H   0  0  0  0  0  0  0  0  0  0  0  0
  140.0544   77.6366  220.1356 H   0  0  0  0  0  0  0  0  0  0  0  0
  142.4461   80.0948  220.3886 H   0  0  0  0  0  0  0  0  0  0  0  0
  143.0439   81.2855  222.4511 H   0  0  0  0  0  0  0  0  0  0  0  0
  142.4352   80.2871  224.6695 H   0  0  0  0  0  0  0  0  0  0  0  0
  141.2402   78.1108  224.7361 H   0  0  0  0  0  0  0  0  0  0  0  0
  140.6558   76.9417  222.6335 H   0  0  0  0  0  0  0  0  0  0  0  0
  139.0407   70.3996  222.1926 H   0  0  0  0  0  0  0  0  0  0  0  0
  138.7508   68.9009  224.1590 H   0  0  0  0  0  0  0  0  0  0  0  0
  139.1729   68.4977  226.5398 H   0  0  0  0  0  0  0  0  0  0  0  0
  140.1407   69.2152  228.6739 H   0  0  0  0  0  0  0  0  0  0  0  0
  141.3651   71.3614  228.8967 H   0  0  0  0  0  0  0  0  0  0  0  0
  141.6021   72.8072  226.8536 H   0  0  0  0  0  0  0  0  0  0  0  0
  1  2  2  0
  2  3  1  0
  3  4  1  0
  4  5  1  0
  5  6  2  0
  5  7  1  0
  7  8  1  0
  8  9  1  0
  9 10  1  0
  9 11  1  0
 11 12  1  0
 12 13  1  0
 13 14  2  0
 14 15  1  0
 15 16  2  0
 16 17  1  0
 17 18  2  0
  2 19  1  0
 19 20  2  0
 20 21  1  0
 21 22  2  0
 22 23  1  0
 23 24  2  0
 24 25  1  0
 25 26  2  0
 26 27  1  0
 27 28  2  0
 12  7  1  0
 18 13  1  0
 28 19  1  0
 27 22  1  0
  3 29  1  0
  4 30  1  0
  4 31  1  0
  8 32  1  0
  8 33  1  0
  9 34  1  6
 10 35  1  0
 11 36  1  0
 11 37  1  0
 12 38  1  6
 14 39  1  0
 15 40  1  0
 16 41  1  0
 17 42  1  0
 18 43  1  0
 20 44  1  0
 21 45  1  0
 23 46  1  0
 24 47  1  0
 25 48  1  0
 26 49  1  0
M  END
>  <smiles>  (25) 
O=C(NCC(=O)N1C[C@H](O)C[C@@H]1c1ccccc1)c1ccc2ccccc2n1

>  <score_type>  (25) 
oracle

>  <origin>  (25) 
autodockgpu

>  <m_score__min__energy>  (25) 
-9.3699999999999992

>  <m_primary>  (25) 
energy

>  <rmsd>  (25) 
2.115034386446753

>  <m_score__min__rmsd>  (25) 
2.115034386446753

>  <meeko>  (25) 
{"free_energy": -8.72, "intermolecular_energy": -10.51, "internal_energy": -1.29, "cluster_size": 28, "cluster_id": 1, "rank_in_cluster": 22}

>  <energy>  (25) 
-8.54

>  <cluster_rmsd>  (25) 
1.03

>  <cluster>  (25) 
1

$$$$

     RDKit          3D

 49 52  0  0  0  0  0  0  0  0999 V2000
  141.1740   72.0980  221.2980 O   0  0  0  0  0  0  0  0  0  0  0  0
  140.5170   72.4510  222.2950 C   0  0  0  0  0  0  0  0  0  0  0  0
  139.9970   73.7860  222.3200 N   0  0  0  0  0  0  0  0  0  0  0  0
  140.2660   74.6240  221.1940 C   0  0  0  0  0  0  0  0  0  0  0  0
  140.4580   76.0560  221.5920 C   0  0  0  0  0  0  0  0  0  0  0  0
  140.0450   76.5140  222.6880 O   0  0  0  0  0  0  0  0  0  0  0  0
  141.1350   76.9300  220.6930 N   0  0  0  0  0  0  0  0  0  0  0  0
  142.2290   76.4850  219.8520 C   0  0  0  0  0  0  0  0  0  0  0  0
  142.1350   77.4040  218.6740 C   0  0  2  0  0  0  0  0  0  0  0  0
  143.3420   77.5290  217.9950 O   0  0  0  0  0  0  0  0  0  0  0  0
  141.6330   78.6930  219.2340 C   0  0  0  0  0  0  0  0  0  0  0  0
  140.8610   78.3380  220.4780 C   0  0  2  0  0  0  0  0  0  0  0  0
  141.2520   79.1800  221.6570 C   0  0  0  0  0  0  0  0  0  0  0  0
  140.3180   79.8410  222.4290 C   0  0  0  0  0  0  0  0  0  0  0  0
  140.6500   80.6160  223.5130 C   0  0  0  0  0  0  0  0  0  0  0  0
  141.9920   80.7480  223.8580 C   0  0  0  0  0  0  0  0  0  0  0  0
  142.9480   80.0990  223.1050 C   0  0  0  0  0  0  0  0  0  0  0  0
  142.5760   79.3230  222.0150 C   0  0  0  0  0  0  0  0  0  0  0  0
  140.2660   71.5520  223.4290 C   0  0  0  0  0  0  0  0  0  0  0  0
  139.5820   70.3820  223.1890 C   0  0  0  0  0  0  0  0  0  0  0  0
  139.3230   69.5080  224.2220 C   0  0  0  0  0  0  0  0  0  0  0  0
  139.7650   69.8360  225.4860 C   0  0  0  0  0  0  0  0  0  0  0  0
  139.5430   69.0070  226.5690 C   0  0  0  0  0  0  0  0  0  0  0  0
  139.9950   69.3560  227.8220 C   0  0  0  0  0  0  0  0  0  0  0  0
  140.6810   70.5270  228.0640 C   0  0  0  0  0  0  0  0  0  0  0  0
  140.9090   71.3680  226.9720 C   0  0  0  0  0  0  0  0  0  0  0  0
  140.4590   71.0300  225.6990 C   0  0  0  0  0  0  0  0  0  0  0  0
  140.7060   71.8790  224.6780 N   0  0  0  0  0  0  0  0  0  0  0  0
  139.4340   74.1370  223.1380 H   0  0  0  0  0  0  0  0  0  0  0  0
  141.1805   74.2680  220.6970 H   0  0  0  0  0  0  0  0  0  0  0  0
  139.3996   74.5728  220.5181 H   0  0  0  0  0  0  0  0  0  0  0  0
  143.1951   76.5969  220.3660 H   0  0  0  0  0  0  0  0  0  0  0  0
  142.1656   75.4208  219.5810 H   0  0  0  0  0  0  0  0  0  0  0  0
  141.4543   77.0150  217.9024 H   0  0  0  0  0  0  0  0  0  0  0  0
  143.4650   78.4030  217.5490 H   0  0  0  0  0  0  0  0  0  0  0  0
  142.4758   79.3542  219.4838 H   0  0  0  0  0  0  0  0  0  0  0  0
  141.0012   79.2264  218.5085 H   0  0  0  0  0  0  0  0  0  0  0  0
  139.7851   78.5326  220.3570 H   0  0  0  0  0  0  0  0  0  0  0  0
  139.2553   79.7421  222.1628 H   0  0  0  0  0  0  0  0  0  0  0  0
  139.8691   81.1235  224.0983 H   0  0  0  0  0  0  0  0  0  0  0  0
  142.2867   81.3628  224.7212 H   0  0  0  0  0  0  0  0  0  0  0  0
  144.0113   80.1966  223.3693 H   0  0  0  0  0  0  0  0  0  0  0  0
  143.3523   78.8127  221.4260 H   0  0  0  0  0  0  0  0  0  0  0  0
  139.2415   70.1443  222.1704 H   0  0  0  0  0  0  0  0  0  0  0  0
  138.7764   68.5705  224.0425 H   0  0  0  0  0  0  0  0  0  0  0  0
  139.0006   68.0603  226.4290 H   0  0  0  0  0  0  0  0  0  0  0  0
  139.8011   68.6737  228.6628 H   0  0  0  0  0  0  0  0  0  0  0  0
  141.0335   70.7878  229.0728 H   0  0  0  0  0  0  0  0  0  0  0  0
  141.4529   72.3125  227.1206 H   0  0  0  0  0  0  0  0  0  0  0  0
  1  2  2  0
  2  3  1  0
  3  4  1  0
  4  5  1  0
  5  6  2  0
  5  7  1  0
  7  8  1  0
  8  9  1  0
  9 10  1  0
  9 11  1  0
 11 12  1  0
 12 13  1  0
 13 14  2  0
 14 15  1  0
 15 16  2  0
 16 17  1  0
 17 18  2  0
  2 19  1  0
 19 20  2  0
 20 21  1  0
 21 22  2  0
 22 23  1  0
 23 24  2  0
 24 25  1  0
 25 26  2  0
 26 27  1  0
 27 28  2  0
 12  7  1  0
 18 13  1  0
 28 19  1  0
 27 22  1  0
  3 29  1  0
  4 30  1  0
  4 31  1  0
  8 32  1  0
  8 33  1  0
  9 34  1  6
 10 35  1  0
 11 36  1  0
 11 37  1  0
 12 38  1  6
 14 39  1  0
 15 40  1  0
 16 41  1  0
 17 42  1  0
 18 43  1  0
 20 44  1  0
 21 45  1  0
 23 46  1  0
 24 47  1  0
 25 48  1  0
 26 49  1  0
M  END
>  <smiles>  (26) 
O=C(NCC(=O)N1C[C@H](O)C[C@@H]1c1ccccc1)c1ccc2ccccc2n1

>  <score_type>  (26) 
oracle

>  <origin>  (26) 
autodockgpu

>  <m_score__min__energy>  (26) 
-9.3699999999999992

>  <m_primary>  (26) 
energy

>  <rmsd>  (26) 
2.086481183911312

>  <m_score__min__rmsd>  (26) 
2.086481183911312

>  <meeko>  (26) 
{"free_energy": -8.76, "intermolecular_energy": -10.55, "internal_energy": -1.47, "cluster_size": 28, "cluster_id": 1, "rank_in_cluster": 18}

>  <energy>  (26) 
-8.32

>  <cluster_rmsd>  (26) 
1.32

>  <cluster>  (26) 
1

$$$$

     RDKit          3D

 49 52  0  0  0  0  0  0  0  0999 V2000
  141.2680   72.1790  221.6040 O   0  0  0  0  0  0  0  0  0  0  0  0
  140.4230   72.4030  222.4900 C   0  0  0  0  0  0  0  0  0  0  0  0
  139.6030   73.5720  222.3600 N   0  0  0  0  0  0  0  0  0  0  0  0
  139.8130   74.4040  221.2180 C   0  0  0  0  0  0  0  0  0  0  0  0
  140.0510   75.8330  221.5990 C   0  0  0  0  0  0  0  0  0  0  0  0
  139.4930   76.3700  222.5910 O   0  0  0  0  0  0  0  0  0  0  0  0
  140.9450   76.6120  220.8090 N   0  0  0  0  0  0  0  0  0  0  0  0
  142.1650   76.0650  220.2470 C   0  0  0  0  0  0  0  0  0  0  0  0
  142.3660   76.8970  219.0190 C   0  0  2  0  0  0  0  0  0  0  0  0
  143.6920   76.9250  218.6040 O   0  0  0  0  0  0  0  0  0  0  0  0
  141.8270   78.2420  219.3770 C   0  0  0  0  0  0  0  0  0  0  0  0
  140.7960   78.0090  220.4510 C   0  0  2  0  0  0  0  0  0  0  0  0
  140.9780   78.9220  221.6300 C   0  0  0  0  0  0  0  0  0  0  0  0
  139.9080   79.4140  222.3480 C   0  0  0  0  0  0  0  0  0  0  0  0
  140.0480   80.2470  223.4300 C   0  0  0  0  0  0  0  0  0  0  0  0
  141.3280   80.6210  223.8290 C   0  0  0  0  0  0  0  0  0  0  0  0
  142.4170   80.1450  223.1290 C   0  0  0  0  0  0  0  0  0  0  0  0
  142.2380   79.3030  222.0390 C   0  0  0  0  0  0  0  0  0  0  0  0
  140.2440   71.5160  223.6460 C   0  0  0  0  0  0  0  0  0  0  0  0
  139.6100   70.3100  223.4470 C   0  0  0  0  0  0  0  0  0  0  0  0
  139.4200   69.4450  224.5020 C   0  0  0  0  0  0  0  0  0  0  0  0
  139.8790   69.8190  225.7480 C   0  0  0  0  0  0  0  0  0  0  0  0
  139.7250   69.0020  226.8520 C   0  0  0  0  0  0  0  0  0  0  0  0
  140.1930   69.3970  228.0850 C   0  0  0  0  0  0  0  0  0  0  0  0
  140.8290   70.6030  228.2870 C   0  0  0  0  0  0  0  0  0  0  0  0
  140.9880   71.4320  227.1730 C   0  0  0  0  0  0  0  0  0  0  0  0
  140.5200   71.0480  225.9190 C   0  0  0  0  0  0  0  0  0  0  0  0
  140.7000   71.8870  224.8770 N   0  0  0  0  0  0  0  0  0  0  0  0
  138.8720   73.8080  223.0800 H   0  0  0  0  0  0  0  0  0  0  0  0
  140.6890   74.0335  220.6653 H   0  0  0  0  0  0  0  0  0  0  0  0
  138.9049   74.3650  220.5985 H   0  0  0  0  0  0  0  0  0  0  0  0
  143.0080   76.1779  220.9445 H   0  0  0  0  0  0  0  0  0  0  0  0
  142.1030   74.9869  220.0375 H   0  0  0  0  0  0  0  0  0  0  0  0
  141.8411   76.4788  218.1475 H   0  0  0  0  0  0  0  0  0  0  0  0
  144.3320   77.1750  219.3150 H   0  0  0  0  0  0  0  0  0  0  0  0
  142.6331   78.8875  219.7558 H   0  0  0  0  0  0  0  0  0  0  0  0
  141.3883   78.7441  218.5021 H   0  0  0  0  0  0  0  0  0  0  0  0
  139.7801   78.2341  220.0941 H   0  0  0  0  0  0  0  0  0  0  0  0
  138.8929   79.1247  222.0384 H   0  0  0  0  0  0  0  0  0  0  0  0
  139.1637   80.6127  223.9725 H   0  0  0  0  0  0  0  0  0  0  0  0
  141.4694   81.2881  224.6921 H   0  0  0  0  0  0  0  0  0  0  0  0
  143.4331   80.4339  223.4358 H   0  0  0  0  0  0  0  0  0  0  0  0
  143.1179   78.9334  221.4921 H   0  0  0  0  0  0  0  0  0  0  0  0
  139.2542   70.0366  222.4427 H   0  0  0  0  0  0  0  0  0  0  0  0
  138.9144   68.4793  224.3545 H   0  0  0  0  0  0  0  0  0  0  0  0
  139.2245   68.0283  226.7447 H   0  0  0  0  0  0  0  0  0  0  0  0
  140.0538   68.7232  228.9433 H   0  0  0  0  0  0  0  0  0  0  0  0
  141.1952   70.8999  229.2809 H   0  0  0  0  0  0  0  0  0  0  0  0
  141.4909   72.4034  227.2887 H   0  0  0  0  0  0  0  0  0  0  0  0
  1  2  2  0
  2  3  1  0
  3  4  1  0
  4  5  1  0
  5  6  2  0
  5  7  1  0
  7  8  1  0
  8  9  1  0
  9 10  1  0
  9 11  1  0
 11 12  1  0
 12 13  1  0
 13 14  2  0
 14 15  1  0
 15 16  2  0
 16 17  1  0
 17 18  2  0
  2 19  1  0
 19 20  2  0
 20 21  1  0
 21 22  2  0
 22 23  1  0
 23 24  2  0
 24 25  1  0
 25 26  2  0
 26 27  1  0
 27 28  2  0
 12  7  1  0
 18 13  1  0
 28 19  1  0
 27 22  1  0
  3 29  1  0
  4 30  1  0
  4 31  1  0
  8 32  1  0
  8 33  1  0
  9 34  1  6
 10 35  1  0
 11 36  1  0
 11 37  1  0
 12 38  1  6
 14 39  1  0
 15 40  1  0
 16 41  1  0
 17 42  1  0
 18 43  1  0
 20 44  1  0
 21 45  1  0
 23 46  1  0
 24 47  1  0
 25 48  1  0
 26 49  1  0
M  END
>  <smiles>  (27) 
O=C(NCC(=O)N1C[C@H](O)C[C@@H]1c1ccccc1)c1ccc2ccccc2n1

>  <score_type>  (27) 
oracle

>  <origin>  (27) 
autodockgpu

>  <m_score__min__energy>  (27) 
-9.3699999999999992

>  <m_primary>  (27) 
energy

>  <rmsd>  (27) 
1.9833918547745581

>  <m_score__min__rmsd>  (27) 
1.9833918547745581

>  <meeko>  (27) 
{"free_energy": -9.13, "intermolecular_energy": -10.92, "internal_energy": -1.35, "cluster_size": 28, "cluster_id": 1, "rank_in_cluster": 10}

>  <energy>  (27) 
-8.31

>  <cluster_rmsd>  (27) 
0.9

>  <cluster>  (27) 
1

$$$$

     RDKit          3D

 49 52  0  0  0  0  0  0  0  0999 V2000
  141.0770   73.7740  220.6830 O   0  0  0  0  0  0  0  0  0  0  0  0
  140.5100   74.6290  221.3890 C   0  0  0  0  0  0  0  0  0  0  0  0
  139.3860   74.2150  222.1750 N   0  0  0  0  0  0  0  0  0  0  0  0
  138.9910   72.8440  222.0970 C   0  0  0  0  0  0  0  0  0  0  0  0
  139.7640   71.9810  223.0470 C   0  0  0  0  0  0  0  0  0  0  0  0
  140.9880   72.1550  223.2750 O   0  0  0  0  0  0  0  0  0  0  0  0
  139.0830   70.9240  223.7180 N   0  0  0  0  0  0  0  0  0  0  0  0
  137.6520   70.7210  223.5980 C   0  0  0  0  0  0  0  0  0  0  0  0
  137.5080   69.2460  223.8090 C   0  0  2  0  0  0  0  0  0  0  0  0
  136.2390   68.8900  224.2500 O   0  0  0  0  0  0  0  0  0  0  0  0
  138.5930   68.8900  224.7710 C   0  0  0  0  0  0  0  0  0  0  0  0
  139.6730   69.9240  224.5870 C   0  0  2  0  0  0  0  0  0  0  0  0
  140.1390   70.5070  225.8900 C   0  0  0  0  0  0  0  0  0  0  0  0
  139.7030   70.0260  227.1070 C   0  0  0  0  0  0  0  0  0  0  0  0
  140.1150   70.5400  228.3110 C   0  0  0  0  0  0  0  0  0  0  0  0
  141.0170   71.6000  228.3160 C   0  0  0  0  0  0  0  0  0  0  0  0
  141.4700   72.1030  227.1140 C   0  0  0  0  0  0  0  0  0  0  0  0
  141.0320   71.5570  225.9140 C   0  0  0  0  0  0  0  0  0  0  0  0
  140.9540   76.0280  221.4360 C   0  0  0  0  0  0  0  0  0  0  0  0
  141.3080   76.6370  220.2530 C   0  0  0  0  0  0  0  0  0  0  0  0
  141.7310   77.9480  220.2480 C   0  0  0  0  0  0  0  0  0  0  0  0
  141.7870   78.6230  221.4500 C   0  0  0  0  0  0  0  0  0  0  0  0
  142.2000   79.9400  221.5210 C   0  0  0  0  0  0  0  0  0  0  0  0
  142.2470   80.5940  222.7320 C   0  0  0  0  0  0  0  0  0  0  0  0
  141.8930   79.9870  223.9180 C   0  0  0  0  0  0  0  0  0  0  0  0
  141.4740   78.6550  223.8510 C   0  0  0  0  0  0  0  0  0  0  0  0
  141.4200   77.9800  222.6340 C   0  0  0  0  0  0  0  0  0  0  0  0
  141.0080   76.6940  222.6260 N   0  0  0  0  0  0  0  0  0  0  0  0
  138.8700   74.8960  222.7900 H   0  0  0  0  0  0  0  0  0  0  0  0
  137.9207   72.7687  222.3397 H   0  0  0  0  0  0  0  0  0  0  0  0
  139.1939   72.4901  221.0754 H   0  0  0  0  0  0  0  0  0  0  0  0
  137.1056   71.2866  224.3671 H   0  0  0  0  0  0  0  0  0  0  0  0
  137.2421   71.0658  222.6372 H   0  0  0  0  0  0  0  0  0  0  0  0
  137.6113   68.6839  222.8691 H   0  0  0  0  0  0  0  0  0  0  0  0
  135.6520   69.6600  224.4510 H   0  0  0  0  0  0  0  0  0  0  0  0
  138.2118   68.9160  225.8025 H   0  0  0  0  0  0  0  0  0  0  0  0
  138.9744   67.8747  224.5876 H   0  0  0  0  0  0  0  0  0  0  0  0
  140.5827   69.4863  224.1501 H   0  0  0  0  0  0  0  0  0  0  0  0
  138.9896   69.1888  227.1128 H   0  0  0  0  0  0  0  0  0  0  0  0
  139.7387   70.1213  229.2561 H   0  0  0  0  0  0  0  0  0  0  0  0
  141.3643   72.0312  229.2665 H   0  0  0  0  0  0  0  0  0  0  0  0
  142.1822   72.9413  227.1057 H   0  0  0  0  0  0  0  0  0  0  0  0
  141.4047   71.9703  224.9652 H   0  0  0  0  0  0  0  0  0  0  0  0
  141.2529   76.0750  219.3090 H   0  0  0  0  0  0  0  0  0  0  0  0
  142.0170   78.4444  219.3090 H   0  0  0  0  0  0  0  0  0  0  0  0
  142.4935   80.4700  220.6029 H   0  0  0  0  0  0  0  0  0  0  0  0
  142.5801   81.6421  222.7538 H   0  0  0  0  0  0  0  0  0  0  0  0
  141.9383   80.5271  224.8752 H   0  0  0  0  0  0  0  0  0  0  0  0
  141.1825   78.1320  224.7737 H   0  0  0  0  0  0  0  0  0  0  0  0
  1  2  2  0
  2  3  1  0
  3  4  1  0
  4  5  1  0
  5  6  2  0
  5  7  1  0
  7  8  1  0
  8  9  1  0
  9 10  1  0
  9 11  1  0
 11 12  1  0
 12 13  1  0
 13 14  2  0
 14 15  1  0
 15 16  2  0
 16 17  1  0
 17 18  2  0
  2 19  1  0
 19 20  2  0
 20 21  1  0
 21 22  2  0
 22 23  1  0
 23 24  2  0
 24 25  1  0
 25 26  2  0
 26 27  1  0
 27 28  2  0
 12  7  1  0
 18 13  1  0
 28 19  1  0
 27 22  1  0
  3 29  1  0
  4 30  1  0
  4 31  1  0
  8 32  1  0
  8 33  1  0
  9 34  1  6
 10 35  1  0
 11 36  1  0
 11 37  1  0
 12 38  1  6
 14 39  1  0
 15 40  1  0
 16 41  1  0
 17 42  1  0
 18 43  1  0
 20 44  1  0
 21 45  1  0
 23 46  1  0
 24 47  1  0
 25 48  1  0
 26 49  1  0
M  END
>  <smiles>  (28) 
O=C(NCC(=O)N1C[C@H](O)C[C@@H]1c1ccccc1)c1ccc2ccccc2n1

>  <score_type>  (28) 
oracle

>  <origin>  (28) 
autodockgpu

>  <m_score__min__energy>  (28) 
-9.3699999999999992

>  <m_primary>  (28) 
energy

>  <rmsd>  (28) 
8.362993322854171

>  <m_score__min__rmsd>  (28) 
8.362993322854171

>  <meeko>  (28) 
{"free_energy": -9.05, "intermolecular_energy": -10.84, "internal_energy": -1.15, "cluster_size": 18, "cluster_id": 2, "rank_in_cluster": 8}

>  <energy>  (28) 
-7.93

>  <cluster_rmsd>  (28) 
1.45

>  <cluster>  (28) 
1

$$$$

     RDKit          3D

 49 52  0  0  0  0  0  0  0  0999 V2000
  141.0590   74.2630  221.3620 O   0  0  0  0  0  0  0  0  0  0  0  0
  140.0730   74.7210  221.9680 C   0  0  0  0  0  0  0  0  0  0  0  0
  139.0210   73.8160  222.3260 N   0  0  0  0  0  0  0  0  0  0  0  0
  139.1760   72.4430  221.9630 C   0  0  0  0  0  0  0  0  0  0  0  0
  139.8470   71.6480  223.0410 C   0  0  0  0  0  0  0  0  0  0  0  0
  141.0770   71.7450  223.2860 O   0  0  0  0  0  0  0  0  0  0  0  0
  139.0610   70.7490  223.8180 N   0  0  0  0  0  0  0  0  0  0  0  0
  137.6120   70.7290  223.7540 C   0  0  0  0  0  0  0  0  0  0  0  0
  137.2850   69.3090  224.0950 C   0  0  2  0  0  0  0  0  0  0  0  0
  135.9980   69.1620  224.5980 O   0  0  0  0  0  0  0  0  0  0  0  0
  138.3490   68.8920  225.0540 C   0  0  0  0  0  0  0  0  0  0  0  0
  139.5470   69.7540  224.7540 C   0  0  2  0  0  0  0  0  0  0  0  0
  140.1330   70.3740  225.9890 C   0  0  0  0  0  0  0  0  0  0  0  0
  140.6200   71.6650  226.0030 C   0  0  0  0  0  0  0  0  0  0  0  0
  141.1590   72.2540  227.1190 C   0  0  0  0  0  0  0  0  0  0  0  0
  141.2230   71.5220  228.3010 C   0  0  0  0  0  0  0  0  0  0  0  0
  140.7440   70.2280  228.3180 C   0  0  0  0  0  0  0  0  0  0  0  0
  140.2050   69.6640  227.1690 C   0  0  0  0  0  0  0  0  0  0  0  0
  139.9590   76.1430  222.3210 C   0  0  0  0  0  0  0  0  0  0  0  0
  138.6980   76.6910  222.4020 C   0  0  0  0  0  0  0  0  0  0  0  0
  138.5420   78.0200  222.7300 C   0  0  0  0  0  0  0  0  0  0  0  0
  139.6720   78.7730  222.9710 C   0  0  0  0  0  0  0  0  0  0  0  0
  139.5910   80.1120  223.3060 C   0  0  0  0  0  0  0  0  0  0  0  0
  140.7330   80.8440  223.5430 C   0  0  0  0  0  0  0  0  0  0  0  0
  141.9960   80.2970  223.4630 C   0  0  0  0  0  0  0  0  0  0  0  0
  142.0820   78.9430  223.1250 C   0  0  0  0  0  0  0  0  0  0  0  0
  140.9370   78.1890  222.8820 C   0  0  0  0  0  0  0  0  0  0  0  0
  141.0780   76.8850  222.5600 N   0  0  0  0  0  0  0  0  0  0  0  0
  138.1650   74.1500  222.8400 H   0  0  0  0  0  0  0  0  0  0  0  0
  138.1822   72.0124  221.7710 H   0  0  0  0  0  0  0  0  0  0  0  0
  139.8099   72.3992  221.0651 H   0  0  0  0  0  0  0  0  0  0  0  0
  137.1734   71.4234  224.4858 H   0  0  0  0  0  0  0  0  0  0  0  0
  137.2146   71.0453  222.7783 H   0  0  0  0  0  0  0  0  0  0  0  0
  137.2787   68.6631  223.2046 H   0  0  0  0  0  0  0  0  0  0  0  0
  135.3830   69.8970  224.3520 H   0  0  0  0  0  0  0  0  0  0  0  0
  138.0134   69.0525  226.0892 H   0  0  0  0  0  0  0  0  0  0  0  0
  138.5876   67.8234  224.9479 H   0  0  0  0  0  0  0  0  0  0  0  0
  140.3749   69.1646  224.3330 H   0  0  0  0  0  0  0  0  0  0  0  0
  140.5738   72.2511  225.0733 H   0  0  0  0  0  0  0  0  0  0  0  0
  141.5342   73.2873  227.0801 H   0  0  0  0  0  0  0  0  0  0  0  0
  141.6502   71.9695  229.2105 H   0  0  0  0  0  0  0  0  0  0  0  0
  140.7893   69.6400  229.2466 H   0  0  0  0  0  0  0  0  0  0  0  0
  139.8283   68.6310  227.2008 H   0  0  0  0  0  0  0  0  0  0  0  0
  137.8141   76.0667  222.2045 H   0  0  0  0  0  0  0  0  0  0  0  0
  137.5404   78.4696  222.7980 H   0  0  0  0  0  0  0  0  0  0  0  0
  138.6065   80.5964  223.3838 H   0  0  0  0  0  0  0  0  0  0  0  0
  140.6336   81.9073  223.8066 H   0  0  0  0  0  0  0  0  0  0  0  0
  142.8961   80.8990  223.6565 H   0  0  0  0  0  0  0  0  0  0  0  0
  143.0702   78.4657  223.0499 H   0  0  0  0  0  0  0  0  0  0  0  0
  1  2  2  0
  2  3  1  0
  3  4  1  0
  4  5  1  0
  5  6  2  0
  5  7  1  0
  7  8  1  0
  8  9  1  0
  9 10  1  0
  9 11  1  0
 11 12  1  0
 12 13  1  0
 13 14  2  0
 14 15  1  0
 15 16  2  0
 16 17  1  0
 17 18  2  0
  2 19  1  0
 19 20  2  0
 20 21  1  0
 21 22  2  0
 22 23  1  0
 23 24  2  0
 24 25  1  0
 25 26  2  0
 26 27  1  0
 27 28  2  0
 12  7  1  0
 18 13  1  0
 28 19  1  0
 27 22  1  0
  3 29  1  0
  4 30  1  0
  4 31  1  0
  8 32  1  0
  8 33  1  0
  9 34  1  6
 10 35  1  0
 11 36  1  0
 11 37  1  0
 12 38  1  6
 14 39  1  0
 15 40  1  0
 16 41  1  0
 17 42  1  0
 18 43  1  0
 20 44  1  0
 21 45  1  0
 23 46  1  0
 24 47  1  0
 25 48  1  0
 26 49  1  0
M  END
>  <smiles>  (29) 
O=C(NCC(=O)N1C[C@H](O)C[C@@H]1c1ccccc1)c1ccc2ccccc2n1

>  <score_type>  (29) 
oracle

>  <origin>  (29) 
autodockgpu

>  <m_score__min__energy>  (29) 
-9.3699999999999992

>  <m_primary>  (29) 
energy

>  <rmsd>  (29) 
8.305539542631605

>  <m_score__min__rmsd>  (29) 
8.305539542631605

>  <meeko>  (29) 
{"free_energy": -9.06, "intermolecular_energy": -10.85, "internal_energy": -1.04, "cluster_size": 18, "cluster_id": 2, "rank_in_cluster": 7}

>  <energy>  (29) 
-9.27

>  <cluster_rmsd>  (29) 
0.0

>  <cluster>  (29) 
2

$$$$

     RDKit          3D

 49 52  0  0  0  0  0  0  0  0999 V2000
  141.0270   72.2550  221.7370 O   0  0  0  0  0  0  0  0  0  0  0  0
  140.1040   72.3410  222.5680 C   0  0  0  0  0  0  0  0  0  0  0  0
  139.0870   73.3270  222.3460 N   0  0  0  0  0  0  0  0  0  0  0  0
  139.2030   74.1470  221.1810 C   0  0  0  0  0  0  0  0  0  0  0  0
  139.7510   75.5040  221.5010 C   0  0  0  0  0  0  0  0  0  0  0  0
  139.1380   76.3260  222.2280 O   0  0  0  0  0  0  0  0  0  0  0  0
  141.0160   75.8740  220.9610 N   0  0  0  0  0  0  0  0  0  0  0  0
  142.1160   74.9350  220.8410 C   0  0  0  0  0  0  0  0  0  0  0  0
  142.8810   75.4700  219.6700 C   0  0  2  0  0  0  0  0  0  0  0  0
  144.2140   75.0730  219.6760 O   0  0  0  0  0  0  0  0  0  0  0  0
  142.7010   76.9500  219.7400 C   0  0  0  0  0  0  0  0  0  0  0  0
  141.4010   77.1810  220.4650 C   0  0  2  0  0  0  0  0  0  0  0  0
  141.5290   78.1930  221.5670 C   0  0  0  0  0  0  0  0  0  0  0  0
  141.4380   77.8430  222.8980 C   0  0  0  0  0  0  0  0  0  0  0  0
  141.5530   78.7480  223.9240 C   0  0  0  0  0  0  0  0  0  0  0  0
  141.7720   80.0880  223.6160 C   0  0  0  0  0  0  0  0  0  0  0  0
  141.8670   80.4680  222.2920 C   0  0  0  0  0  0  0  0  0  0  0  0
  141.7460   79.5240  221.2810 C   0  0  0  0  0  0  0  0  0  0  0  0
  140.0290   71.4740  223.7510 C   0  0  0  0  0  0  0  0  0  0  0  0
  139.3660   70.2730  223.6330 C   0  0  0  0  0  0  0  0  0  0  0  0
  139.2690   69.4270  224.7160 C   0  0  0  0  0  0  0  0  0  0  0  0
  139.8510   69.8140  225.9050 C   0  0  0  0  0  0  0  0  0  0  0  0
  139.7950   69.0170  227.0320 C   0  0  0  0  0  0  0  0  0  0  0  0
  140.3840   69.4250  228.2080 C   0  0  0  0  0  0  0  0  0  0  0  0
  141.0480   70.6260  228.3280 C   0  0  0  0  0  0  0  0  0  0  0  0
  141.1080   71.4360  227.1910 C   0  0  0  0  0  0  0  0  0  0  0  0
  140.5180   71.0380  225.9940 C   0  0  0  0  0  0  0  0  0  0  0  0
  140.6050   71.8590  224.9260 N   0  0  0  0  0  0  0  0  0  0  0  0
  138.2830   73.4420  223.0160 H   0  0  0  0  0  0  0  0  0  0  0  0
  139.8754   73.6526  220.4644 H   0  0  0  0  0  0  0  0  0  0  0  0
  138.1965   74.2788  220.7572 H   0  0  0  0  0  0  0  0  0  0  0  0
  142.7348   74.9310  221.7504 H   0  0  0  0  0  0  0  0  0  0  0  0
  141.7877   73.8935  220.7083 H   0  0  0  0  0  0  0  0  0  0  0  0
  142.5066   75.0705  218.7160 H   0  0  0  0  0  0  0  0  0  0  0  0
  144.6820   75.2240  218.8180 H   0  0  0  0  0  0  0  0  0  0  0  0
  143.5332   77.4097  220.2933 H   0  0  0  0  0  0  0  0  0  0  0  0
  142.6859   77.4000  218.7364 H   0  0  0  0  0  0  0  0  0  0  0  0
  140.6364   77.6075  219.7991 H   0  0  0  0  0  0  0  0  0  0  0  0
  141.2647   76.7864  223.1500 H   0  0  0  0  0  0  0  0  0  0  0  0
  141.4735   78.4202  224.9710 H   0  0  0  0  0  0  0  0  0  0  0  0
  141.8682   80.8349  224.4178 H   0  0  0  0  0  0  0  0  0  0  0  0
  142.0394   81.5240  222.0368 H   0  0  0  0  0  0  0  0  0  0  0  0
  141.8248   79.8444  220.2316 H   0  0  0  0  0  0  0  0  0  0  0  0
  138.9128   69.9884  222.6719 H   0  0  0  0  0  0  0  0  0  0  0  0
  138.7401   68.4660  224.6344 H   0  0  0  0  0  0  0  0  0  0  0  0
  139.2755   68.0483  226.9896 H   0  0  0  0  0  0  0  0  0  0  0  0
  140.3218   68.7658  229.0864 H   0  0  0  0  0  0  0  0  0  0  0  0
  141.5107   70.9339  229.2773 H   0  0  0  0  0  0  0  0  0  0  0  0
  141.6294   72.4032  227.2422 H   0  0  0  0  0  0  0  0  0  0  0  0
  1  2  2  0
  2  3  1  0
  3  4  1  0
  4  5  1  0
  5  6  2  0
  5  7  1  0
  7  8  1  0
  8  9  1  0
  9 10  1  0
  9 11  1  0
 11 12  1  0
 12 13  1  0
 13 14  2  0
 14 15  1  0
 15 16  2  0
 16 17  1  0
 17 18  2  0
  2 19  1  0
 19 20  2  0
 20 21  1  0
 21 22  2  0
 22 23  1  0
 23 24  2  0
 24 25  1  0
 25 26  2  0
 26 27  1  0
 27 28  2  0
 12  7  1  0
 18 13  1  0
 28 19  1  0
 27 22  1  0
  3 29  1  0
  4 30  1  0
  4 31  1  0
  8 32  1  0
  8 33  1  0
  9 34  1  6
 10 35  1  0
 11 36  1  0
 11 37  1  0
 12 38  1  6
 14 39  1  0
 15 40  1  0
 16 41  1  0
 17 42  1  0
 18 43  1  0
 20 44  1  0
 21 45  1  0
 23 46  1  0
 24 47  1  0
 25 48  1  0
 26 49  1  0
M  END
>  <smiles>  (30) 
O=C(NCC(=O)N1C[C@H](O)C[C@@H]1c1ccccc1)c1ccc2ccccc2n1

>  <score_type>  (30) 
oracle

>  <origin>  (30) 
autodockgpu

>  <m_score__min__energy>  (30) 
-9.3699999999999992

>  <m_primary>  (30) 
energy

>  <rmsd>  (30) 
1.9852607188518363

>  <m_score__min__rmsd>  (30) 
1.9852607188518363

>  <meeko>  (30) 
{"free_energy": -9.28, "intermolecular_energy": -11.07, "internal_energy": -1.24, "cluster_size": 28, "cluster_id": 1, "rank_in_cluster": 4}

>  <energy>  (30) 
-9.27

>  <cluster_rmsd>  (30) 
0.07

>  <cluster>  (30) 
2

$$$$

     RDKit          3D

 49 52  0  0  0  0  0  0  0  0999 V2000
  141.3980   72.5010  221.8970 O   0  0  0  0  0  0  0  0  0  0  0  0
  140.3750   72.5000  222.6060 C   0  0  0  0  0  0  0  0  0  0  0  0
  139.3480   73.4550  222.3090 N   0  0  0  0  0  0  0  0  0  0  0  0
  139.5690   74.3470  221.2150 C   0  0  0  0  0  0  0  0  0  0  0  0
  139.9550   75.7190  221.6770 C   0  0  0  0  0  0  0  0  0  0  0  0
  139.4910   76.2330  222.7270 O   0  0  0  0  0  0  0  0  0  0  0  0
  140.8820   76.4670  220.8960 N   0  0  0  0  0  0  0  0  0  0  0  0
  142.1080   75.8890  220.3790 C   0  0  0  0  0  0  0  0  0  0  0  0
  142.3560   76.6940  219.1400 C   0  0  2  0  0  0  0  0  0  0  0  0
  143.6930   76.6920  218.7600 O   0  0  0  0  0  0  0  0  0  0  0  0
  141.8290   78.0540  219.4570 C   0  0  0  0  0  0  0  0  0  0  0  0
  140.7660   77.8590  220.5060 C   0  0  2  0  0  0  0  0  0  0  0  0
  140.9310   78.7920  221.6710 C   0  0  0  0  0  0  0  0  0  0  0  0
  139.8530   79.2600  222.3940 C   0  0  0  0  0  0  0  0  0  0  0  0
  139.9780   80.1120  223.4640 C   0  0  0  0  0  0  0  0  0  0  0  0
  141.2490   80.5300  223.8460 C   0  0  0  0  0  0  0  0  0  0  0  0
  142.3460   80.0790  223.1410 C   0  0  0  0  0  0  0  0  0  0  0  0
  142.1820   79.2170  222.0640 C   0  0  0  0  0  0  0  0  0  0  0  0
  140.1940   71.5620  223.7210 C   0  0  0  0  0  0  0  0  0  0  0  0
  139.5030   70.3950  223.4810 C   0  0  0  0  0  0  0  0  0  0  0  0
  139.3080   69.4840  224.4960 C   0  0  0  0  0  0  0  0  0  0  0  0
  139.8200   69.7740  225.7440 C   0  0  0  0  0  0  0  0  0  0  0  0
  139.6640   68.9070  226.8090 C   0  0  0  0  0  0  0  0  0  0  0  0
  140.1850   69.2180  228.0460 C   0  0  0  0  0  0  0  0  0  0  0  0
  140.8770   70.3840  228.2880 C   0  0  0  0  0  0  0  0  0  0  0  0
  141.0380   71.2640  227.2140 C   0  0  0  0  0  0  0  0  0  0  0  0
  140.5170   70.9650  225.9570 C   0  0  0  0  0  0  0  0  0  0  0  0
  140.7020   71.8500  224.9540 N   0  0  0  0  0  0  0  0  0  0  0  0
  138.4620   73.4970  222.8760 H   0  0  0  0  0  0  0  0  0  0  0  0
  140.3765   73.9440  220.5861 H   0  0  0  0  0  0  0  0  0  0  0  0
  138.6286   74.4312  220.6506 H   0  0  0  0  0  0  0  0  0  0  0  0
  142.9334   76.0023  221.0972 H   0  0  0  0  0  0  0  0  0  0  0  0
  142.0343   74.8080  220.1892 H   0  0  0  0  0  0  0  0  0  0  0  0
  141.8482   76.2673  218.2625 H   0  0  0  0  0  0  0  0  0  0  0  0
  144.2820   77.2160  219.3580 H   0  0  0  0  0  0  0  0  0  0  0  0
  142.6348   78.6942  219.8452 H   0  0  0  0  0  0  0  0  0  0  0  0
  141.4222   78.5451  218.5607 H   0  0  0  0  0  0  0  0  0  0  0  0
  139.7642   78.0928  220.1165 H   0  0  0  0  0  0  0  0  0  0  0  0
  138.8444   78.9349  222.0991 H   0  0  0  0  0  0  0  0  0  0  0  0
  139.0880   80.4582  224.0100 H   0  0  0  0  0  0  0  0  0  0  0  0
  141.3777   81.2117  224.6996 H   0  0  0  0  0  0  0  0  0  0  0  0
  143.3555   80.4037  223.4333 H   0  0  0  0  0  0  0  0  0  0  0  0
  143.0679   78.8667  221.5140 H   0  0  0  0  0  0  0  0  0  0  0  0
  139.1057   70.1897  222.4760 H   0  0  0  0  0  0  0  0  0  0  0  0
  138.7578   68.5487  224.3159 H   0  0  0  0  0  0  0  0  0  0  0  0
  139.1198   67.9615  226.6680 H   0  0  0  0  0  0  0  0  0  0  0  0
  140.0426   68.5069  228.8731 H   0  0  0  0  0  0  0  0  0  0  0  0
  141.2853   70.6128  229.2834 H   0  0  0  0  0  0  0  0  0  0  0  0
  141.5844   72.2069  227.3636 H   0  0  0  0  0  0  0  0  0  0  0  0
  1  2  2  0
  2  3  1  0
  3  4  1  0
  4  5  1  0
  5  6  2  0
  5  7  1  0
  7  8  1  0
  8  9  1  0
  9 10  1  0
  9 11  1  0
 11 12  1  0
 12 13  1  0
 13 14  2  0
 14 15  1  0
 15 16  2  0
 16 17  1  0
 17 18  2  0
  2 19  1  0
 19 20  2  0
 20 21  1  0
 21 22  2  0
 22 23  1  0
 23 24  2  0
 24 25  1  0
 25 26  2  0
 26 27  1  0
 27 28  2  0
 12  7  1  0
 18 13  1  0
 28 19  1  0
 27 22  1  0
  3 29  1  0
  4 30  1  0
  4 31  1  0
  8 32  1  0
  8 33  1  0
  9 34  1  6
 10 35  1  0
 11 36  1  0
 11 37  1  0
 12 38  1  6
 14 39  1  0
 15 40  1  0
 16 41  1  0
 17 42  1  0
 18 43  1  0
 20 44  1  0
 21 45  1  0
 23 46  1  0
 24 47  1  0
 25 48  1  0
 26 49  1  0
M  END
>  <smiles>  (31) 
O=C(NCC(=O)N1C[C@H](O)C[C@@H]1c1ccccc1)c1ccc2ccccc2n1

>  <score_type>  (31) 
oracle

>  <origin>  (31) 
autodockgpu

>  <m_score__min__energy>  (31) 
-9.3699999999999992

>  <m_primary>  (31) 
energy

>  <rmsd>  (31) 
1.9536034580251198

>  <m_score__min__rmsd>  (31) 
1.9536034580251198

>  <meeko>  (31) 
{"free_energy": -9.21, "intermolecular_energy": -11.0, "internal_energy": -1.3, "cluster_size": 28, "cluster_id": 1, "rank_in_cluster": 6}

>  <energy>  (31) 
-9.25

>  <cluster_rmsd>  (31) 
0.12

>  <cluster>  (31) 
2

$$$$

     RDKit          3D

 49 52  0  0  0  0  0  0  0  0999 V2000
  140.9200   74.3580  221.4060 O   0  0  0  0  0  0  0  0  0  0  0  0
  139.9490   74.9030  221.9620 C   0  0  0  0  0  0  0  0  0  0  0  0
  138.8040   74.0950  222.2620 N   0  0  0  0  0  0  0  0  0  0  0  0
  138.8570   72.7120  221.9030 C   0  0  0  0  0  0  0  0  0  0  0  0
  139.6490   71.9050  222.8860 C   0  0  0  0  0  0  0  0  0  0  0  0
  140.8750   72.0990  223.0860 O   0  0  0  0  0  0  0  0  0  0  0  0
  138.9860   70.8810  223.6210 N   0  0  0  0  0  0  0  0  0  0  0  0
  137.5490   70.6870  223.5620 C   0  0  0  0  0  0  0  0  0  0  0  0
  137.4020   69.2220  223.8350 C   0  0  2  0  0  0  0  0  0  0  0  0
  136.1470   68.8950  224.3360 O   0  0  0  0  0  0  0  0  0  0  0  0
  138.5190   68.8940  224.7690 C   0  0  0  0  0  0  0  0  0  0  0  0
  139.5990   69.9100  224.5060 C   0  0  2  0  0  0  0  0  0  0  0  0
  140.1170   70.5380  225.7680 C   0  0  0  0  0  0  0  0  0  0  0  0
  139.7340   70.0980  227.0180 C   0  0  0  0  0  0  0  0  0  0  0  0
  140.1950   70.6540  228.1850 C   0  0  0  0  0  0  0  0  0  0  0  0
  141.0930   71.7150  228.1160 C   0  0  0  0  0  0  0  0  0  0  0  0
  141.4930   72.1780  226.8790 C   0  0  0  0  0  0  0  0  0  0  0  0
  141.0070   71.5910  225.7180 C   0  0  0  0  0  0  0  0  0  0  0  0
  139.9430   76.3290  222.3130 C   0  0  0  0  0  0  0  0  0  0  0  0
  138.7270   76.9700  222.4030 C   0  0  0  0  0  0  0  0  0  0  0  0
  138.6720   78.3070  222.7290 C   0  0  0  0  0  0  0  0  0  0  0  0
  139.8560   78.9750  222.9600 C   0  0  0  0  0  0  0  0  0  0  0  0
  139.8770   80.3160  223.2930 C   0  0  0  0  0  0  0  0  0  0  0  0
  141.0720   80.9620  223.5200 C   0  0  0  0  0  0  0  0  0  0  0  0
  142.2900   80.3230  223.4310 C   0  0  0  0  0  0  0  0  0  0  0  0
  142.2740   78.9660  223.0960 C   0  0  0  0  0  0  0  0  0  0  0  0
  141.0740   78.2990  222.8630 C   0  0  0  0  0  0  0  0  0  0  0  0
  141.1160   76.9880  222.5420 N   0  0  0  0  0  0  0  0  0  0  0  0
  137.9560   74.5040  222.7330 H   0  0  0  0  0  0  0  0  0  0  0  0
  137.8314   72.3161  221.8636 H   0  0  0  0  0  0  0  0  0  0  0  0
  139.3523   72.6347  220.9239 H   0  0  0  0  0  0  0  0  0  0  0  0
  137.0362   71.2865  224.3285 H   0  0  0  0  0  0  0  0  0  0  0  0
  137.1058   70.9988  222.6047 H   0  0  0  0  0  0  0  0  0  0  0  0
  137.4662   68.6228  222.9148 H   0  0  0  0  0  0  0  0  0  0  0  0
  135.4250   68.9230  223.6610 H   0  0  0  0  0  0  0  0  0  0  0  0
  138.1765   68.9629  225.8121 H   0  0  0  0  0  0  0  0  0  0  0  0
  138.8858   67.8691  224.6107 H   0  0  0  0  0  0  0  0  0  0  0  0
  140.4886   69.4476  224.0534 H   0  0  0  0  0  0  0  0  0  0  0  0
  139.0241   69.2602  227.0826 H   0  0  0  0  0  0  0  0  0  0  0  0
  139.8602   70.2674  229.1589 H   0  0  0  0  0  0  0  0  0  0  0  0
  141.4790   72.1787  229.0358 H   0  0  0  0  0  0  0  0  0  0  0  0
  142.2011   73.0171  226.8122 H   0  0  0  0  0  0  0  0  0  0  0  0
  141.3377   71.9726  224.7407 H   0  0  0  0  0  0  0  0  0  0  0  0
  137.7977   76.4127  222.2140 H   0  0  0  0  0  0  0  0  0  0  0  0
  137.7068   78.8294  222.8033 H   0  0  0  0  0  0  0  0  0  0  0  0
  138.9316   80.8720  223.3774 H   0  0  0  0  0  0  0  0  0  0  0  0
  141.0537   82.0300  223.7827 H   0  0  0  0  0  0  0  0  0  0  0  0
  143.2335   80.8576  223.6155 H   0  0  0  0  0  0  0  0  0  0  0  0
  143.2236   78.4167  223.0152 H   0  0  0  0  0  0  0  0  0  0  0  0
  1  2  2  0
  2  3  1  0
  3  4  1  0
  4  5  1  0
  5  6  2  0
  5  7  1  0
  7  8  1  0
  8  9  1  0
  9 10  1  0
  9 11  1  0
 11 12  1  0
 12 13  1  0
 13 14  2  0
 14 15  1  0
 15 16  2  0
 16 17  1  0
 17 18  2  0
  2 19  1  0
 19 20  2  0
 20 21  1  0
 21 22  2  0
 22 23  1  0
 23 24  2  0
 24 25  1  0
 25 26  2  0
 26 27  1  0
 27 28  2  0
 12  7  1  0
 18 13  1  0
 28 19  1  0
 27 22  1  0
  3 29  1  0
  4 30  1  0
  4 31  1  0
  8 32  1  0
  8 33  1  0
  9 34  1  6
 10 35  1  0
 11 36  1  0
 11 37  1  0
 12 38  1  6
 14 39  1  0
 15 40  1  0
 16 41  1  0
 17 42  1  0
 18 43  1  0
 20 44  1  0
 21 45  1  0
 23 46  1  0
 24 47  1  0
 25 48  1  0
 26 49  1  0
M  END
>  <smiles>  (32) 
O=C(NCC(=O)N1C[C@H](O)C[C@@H]1c1ccccc1)c1ccc2ccccc2n1

>  <score_type>  (32) 
oracle

>  <origin>  (32) 
autodockgpu

>  <m_score__min__energy>  (32) 
-9.3699999999999992

>  <m_primary>  (32) 
energy

>  <rmsd>  (32) 
8.308803509422816

>  <m_score__min__rmsd>  (32) 
8.308803509422816

>  <meeko>  (32) 
{"free_energy": -9.25, "intermolecular_energy": -11.04, "internal_energy": -1.01, "cluster_size": 18, "cluster_id": 2, "rank_in_cluster": 3}

>  <energy>  (32) 
-9.21

>  <cluster_rmsd>  (32) 
0.29

>  <cluster>  (32) 
2

$$$$

     RDKit          3D

 49 52  0  0  0  0  0  0  0  0999 V2000
  141.2400   72.4730  221.4970 O   0  0  0  0  0  0  0  0  0  0  0  0
  140.2880   72.6110  222.2870 C   0  0  0  0  0  0  0  0  0  0  0  0
  139.3960   73.7140  222.0810 N   0  0  0  0  0  0  0  0  0  0  0  0
  139.6620   74.5840  220.9780 C   0  0  0  0  0  0  0  0  0  0  0  0
  140.7150   75.5990  221.3040 C   0  0  0  0  0  0  0  0  0  0  0  0
  141.4230   75.5290  222.3410 O   0  0  0  0  0  0  0  0  0  0  0  0
  140.9190   76.6840  220.4040 N   0  0  0  0  0  0  0  0  0  0  0  0
  141.6690   76.5410  219.1710 C   0  0  0  0  0  0  0  0  0  0  0  0
  141.0540   77.5810  218.2870 C   0  0  2  0  0  0  0  0  0  0  0  0
  141.9080   77.9910  217.2690 O   0  0  0  0  0  0  0  0  0  0  0  0
  140.6600   78.6840  219.2120 C   0  0  0  0  0  0  0  0  0  0  0  0
  140.4400   78.0440  220.5580 C   0  0  2  0  0  0  0  0  0  0  0  0
  141.1450   78.7740  221.6640 C   0  0  0  0  0  0  0  0  0  0  0  0
  141.9570   79.8630  221.4240 C   0  0  0  0  0  0  0  0  0  0  0  0
  142.6110   80.5480  222.4180 C   0  0  0  0  0  0  0  0  0  0  0  0
  142.4540   80.1310  223.7360 C   0  0  0  0  0  0  0  0  0  0  0  0
  141.6480   79.0450  224.0070 C   0  0  0  0  0  0  0  0  0  0  0  0
  141.0010   78.3760  222.9760 C   0  0  0  0  0  0  0  0  0  0  0  0
  140.0560   71.6890  223.4060 C   0  0  0  0  0  0  0  0  0  0  0  0
  139.2120   70.6200  223.2020 C   0  0  0  0  0  0  0  0  0  0  0  0
  138.9650   69.7290  224.2230 C   0  0  0  0  0  0  0  0  0  0  0  0
  139.5810   69.9380  225.4390 C   0  0  0  0  0  0  0  0  0  0  0  0
  139.3800   69.0840  226.5080 C   0  0  0  0  0  0  0  0  0  0  0  0
  140.0070   69.3130  227.7130 C   0  0  0  0  0  0  0  0  0  0  0  0
  140.8520   70.3810  227.9190 C   0  0  0  0  0  0  0  0  0  0  0  0
  141.0590   71.2460  226.8410 C   0  0  0  0  0  0  0  0  0  0  0  0
  140.4330   71.0300  225.6160 C   0  0  0  0  0  0  0  0  0  0  0  0
  140.6670   71.8970  224.6080 N   0  0  0  0  0  0  0  0  0  0  0  0
  138.5740   73.8780  222.7180 H   0  0  0  0  0  0  0  0  0  0  0  0
  140.0030   73.9804  220.1240 H   0  0  0  0  0  0  0  0  0  0  0  0
  138.7333   75.1230  220.7392 H   0  0  0  0  0  0  0  0  0  0  0  0
  142.7387   76.7402  219.3324 H   0  0  0  0  0  0  0  0  0  0  0  0
  141.6227   75.5267  218.7479 H   0  0  0  0  0  0  0  0  0  0  0  0
  140.1826   77.1926  217.7394 H   0  0  0  0  0  0  0  0  0  0  0  0
  142.8470   78.1140  217.5560 H   0  0  0  0  0  0  0  0  0  0  0  0
  141.4613   79.4352  219.2731 H   0  0  0  0  0  0  0  0  0  0  0  0
  139.7540   79.1988  218.8596 H   0  0  0  0  0  0  0  0  0  0  0  0
  139.3805   78.0739  220.8523 H   0  0  0  0  0  0  0  0  0  0  0  0
  142.0870   80.1992  220.3847 H   0  0  0  0  0  0  0  0  0  0  0  0
  143.2481   81.4116  222.1765 H   0  0  0  0  0  0  0  0  0  0  0  0
  142.9666   80.6611  224.5522 H   0  0  0  0  0  0  0  0  0  0  0  0
  141.5169   78.7068  225.0455 H   0  0  0  0  0  0  0  0  0  0  0  0
  140.3616   77.5123  223.2108 H   0  0  0  0  0  0  0  0  0  0  0  0
  138.7341   70.4774  222.2215 H   0  0  0  0  0  0  0  0  0  0  0  0
  138.2927   68.8715  224.0721 H   0  0  0  0  0  0  0  0  0  0  0  0
  138.7145   68.2154  226.3952 H   0  0  0  0  0  0  0  0  0  0  0  0
  139.8256   68.6152  228.5437 H   0  0  0  0  0  0  0  0  0  0  0  0
  141.3425   70.5459  228.8897 H   0  0  0  0  0  0  0  0  0  0  0  0
  141.7272   72.1114  226.9621 H   0  0  0  0  0  0  0  0  0  0  0  0
  1  2  2  0
  2  3  1  0
  3  4  1  0
  4  5  1  0
  5  6  2  0
  5  7  1  0
  7  8  1  0
  8  9  1  0
  9 10  1  0
  9 11  1  0
 11 12  1  0
 12 13  1  0
 13 14  2  0
 14 15  1  0
 15 16  2  0
 16 17  1  0
 17 18  2  0
  2 19  1  0
 19 20  2  0
 20 21  1  0
 21 22  2  0
 22 23  1  0
 23 24  2  0
 24 25  1  0
 25 26  2  0
 26 27  1  0
 27 28  2  0
 12  7  1  0
 18 13  1  0
 28 19  1  0
 27 22  1  0
  3 29  1  0
  4 30  1  0
  4 31  1  0
  8 32  1  0
  8 33  1  0
  9 34  1  6
 10 35  1  0
 11 36  1  0
 11 37  1  0
 12 38  1  1
 14 39  1  0
 15 40  1  0
 16 41  1  0
 17 42  1  0
 18 43  1  0
 20 44  1  0
 21 45  1  0
 23 46  1  0
 24 47  1  0
 25 48  1  0
 26 49  1  0
M  END
>  <smiles>  (33) 
O=C(NCC(=O)N1C[C@H](O)C[C@@H]1c1ccccc1)c1ccc2ccccc2n1

>  <score_type>  (33) 
oracle

>  <origin>  (33) 
autodockgpu

>  <m_score__min__energy>  (33) 
-9.3699999999999992

>  <m_primary>  (33) 
energy

>  <rmsd>  (33) 
1.844044340447134

>  <m_score__min__rmsd>  (33) 
1.844044340447134

>  <meeko>  (33) 
{"free_energy": -8.32, "intermolecular_energy": -10.11, "internal_energy": -1.19, "cluster_size": 28, "cluster_id": 1, "rank_in_cluster": 26}

>  <energy>  (33) 
-9.21

>  <cluster_rmsd>  (33) 
0.29

>  <cluster>  (33) 
2

$$$$

     RDKit          3D

 49 52  0  0  0  0  0  0  0  0999 V2000
  140.4400   74.1250  220.3970 O   0  0  0  0  0  0  0  0  0  0  0  0
  140.1480   74.8980  221.3280 C   0  0  0  0  0  0  0  0  0  0  0  0
  139.2540   74.4230  222.3430 N   0  0  0  0  0  0  0  0  0  0  0  0
  138.7560   73.0890  222.2170 C   0  0  0  0  0  0  0  0  0  0  0  0
  139.6830   72.0840  222.8300 C   0  0  0  0  0  0  0  0  0  0  0  0
  140.9330   72.2230  222.8210 O   0  0  0  0  0  0  0  0  0  0  0  0
  139.1240   70.9290  223.4490 N   0  0  0  0  0  0  0  0  0  0  0  0
  137.7270   70.5680  223.3040 C   0  0  0  0  0  0  0  0  0  0  0  0
  137.7530   69.0780  223.4520 C   0  0  2  0  0  0  0  0  0  0  0  0
  136.5300   68.5600  223.8630 O   0  0  0  0  0  0  0  0  0  0  0  0
  138.8640   68.8090  224.4110 C   0  0  0  0  0  0  0  0  0  0  0  0
  139.8190   69.9670  224.2830 C   0  0  2  0  0  0  0  0  0  0  0  0
  140.2050   70.5440  225.6140 C   0  0  0  0  0  0  0  0  0  0  0  0
  141.0470   71.6310  225.7270 C   0  0  0  0  0  0  0  0  0  0  0  0
  141.4140   72.1770  226.9320 C   0  0  0  0  0  0  0  0  0  0  0  0
  140.9170   71.6140  228.1040 C   0  0  0  0  0  0  0  0  0  0  0  0
  140.0730   70.5250  228.0230 C   0  0  0  0  0  0  0  0  0  0  0  0
  139.7230   69.9990  226.7860 C   0  0  0  0  0  0  0  0  0  0  0  0
  140.6860   76.2620  221.4150 C   0  0  0  0  0  0  0  0  0  0  0  0
  141.3690   76.7590  220.3270 C   0  0  0  0  0  0  0  0  0  0  0  0
  141.8920   78.0330  220.3620 C   0  0  0  0  0  0  0  0  0  0  0  0
  141.7100   78.7860  221.5040 C   0  0  0  0  0  0  0  0  0  0  0  0
  142.2050   80.0720  221.6100 C   0  0  0  0  0  0  0  0  0  0  0  0
  142.0110   80.8040  222.7600 C   0  0  0  0  0  0  0  0  0  0  0  0
  141.3270   80.3090  223.8490 C   0  0  0  0  0  0  0  0  0  0  0  0
  140.8240   79.0080  223.7460 C   0  0  0  0  0  0  0  0  0  0  0  0
  141.0120   78.2550  222.5900 C   0  0  0  0  0  0  0  0  0  0  0  0
  140.5050   77.0040  222.5450 N   0  0  0  0  0  0  0  0  0  0  0  0
  138.9740   75.0350  223.1530 H   0  0  0  0  0  0  0  0  0  0  0  0
  137.7799   73.0252  222.7202 H   0  0  0  0  0  0  0  0  0  0  0  0
  138.6665   72.8594  221.1450 H   0  0  0  0  0  0  0  0  0  0  0  0
  137.1137   71.0337  224.0895 H   0  0  0  0  0  0  0  0  0  0  0  0
  137.2865   70.9039  222.3537 H   0  0  0  0  0  0  0  0  0  0  0  0
  137.9275   68.5720  222.4910 H   0  0  0  0  0  0  0  0  0  0  0  0
  136.1810   68.9630  224.6960 H   0  0  0  0  0  0  0  0  0  0  0  0
  138.4748   68.7474  225.4380 H   0  0  0  0  0  0  0  0  0  0  0  0
  139.3613   67.8529  224.1905 H   0  0  0  0  0  0  0  0  0  0  0  0
  140.7761   69.6552  223.8395 H   0  0  0  0  0  0  0  0  0  0  0  0
  141.4440   72.0826  224.8059 H   0  0  0  0  0  0  0  0  0  0  0  0
  142.0892   73.0445  226.9706 H   0  0  0  0  0  0  0  0  0  0  0  0
  141.1937   72.0321  229.0831 H   0  0  0  0  0  0  0  0  0  0  0  0
  139.6754   70.0713  228.9428 H   0  0  0  0  0  0  0  0  0  0  0  0
  139.0486   69.1312  226.7401 H   0  0  0  0  0  0  0  0  0  0  0  0
  141.4971   76.1375  219.4285 H   0  0  0  0  0  0  0  0  0  0  0  0
  142.4414   78.4402  219.5004 H   0  0  0  0  0  0  0  0  0  0  0  0
  142.7586   80.5144  220.7687 H   0  0  0  0  0  0  0  0  0  0  0  0
  142.4182   81.8245  222.8114 H   0  0  0  0  0  0  0  0  0  0  0  0
  141.1830   80.9103  224.7588 H   0  0  0  0  0  0  0  0  0  0  0  0
  140.2712   78.5728  224.5916 H   0  0  0  0  0  0  0  0  0  0  0  0
  1  2  2  0
  2  3  1  0
  3  4  1  0
  4  5  1  0
  5  6  2  0
  5  7  1  0
  7  8  1  0
  8  9  1  0
  9 10  1  0
  9 11  1  0
 11 12  1  0
 12 13  1  0
 13 14  2  0
 14 15  1  0
 15 16  2  0
 16 17  1  0
 17 18  2  0
  2 19  1  0
 19 20  2  0
 20 21  1  0
 21 22  2  0
 22 23  1  0
 23 24  2  0
 24 25  1  0
 25 26  2  0
 26 27  1  0
 27 28  2  0
 12  7  1  0
 18 13  1  0
 28 19  1  0
 27 22  1  0
  3 29  1  0
  4 30  1  0
  4 31  1  0
  8 32  1  0
  8 33  1  0
  9 34  1  6
 10 35  1  0
 11 36  1  0
 11 37  1  0
 12 38  1  6
 14 39  1  0
 15 40  1  0
 16 41  1  0
 17 42  1  0
 18 43  1  0
 20 44  1  0
 21 45  1  0
 23 46  1  0
 24 47  1  0
 25 48  1  0
 26 49  1  0
M  END
>  <smiles>  (34) 
O=C(NCC(=O)N1C[C@H](O)C[C@@H]1c1ccccc1)c1ccc2ccccc2n1

>  <score_type>  (34) 
oracle

>  <origin>  (34) 
autodockgpu

>  <m_score__min__energy>  (34) 
-9.3699999999999992

>  <m_primary>  (34) 
energy

>  <rmsd>  (34) 
8.373631082507567

>  <m_score__min__rmsd>  (34) 
8.373631082507567

>  <meeko>  (34) 
{"free_energy": -8.65, "intermolecular_energy": -10.44, "internal_energy": -1.42, "cluster_size": 18, "cluster_id": 2, "rank_in_cluster": 15}

>  <energy>  (34) 
-9.15

>  <cluster_rmsd>  (34) 
0.28

>  <cluster>  (34) 
2

$$$$

     RDKit          3D

 49 52  0  0  0  0  0  0  0  0999 V2000
  140.9180   74.4220  221.1830 O   0  0  0  0  0  0  0  0  0  0  0  0
  140.0130   74.8760  221.9070 C   0  0  0  0  0  0  0  0  0  0  0  0
  138.9880   73.9760  222.3480 N   0  0  0  0  0  0  0  0  0  0  0  0
  139.0750   72.6140  221.9240 C   0  0  0  0  0  0  0  0  0  0  0  0
  139.8150   71.7640  222.9120 C   0  0  0  0  0  0  0  0  0  0  0  0
  141.0500   71.8870  223.1170 O   0  0  0  0  0  0  0  0  0  0  0  0
  139.0910   70.7810  223.6450 N   0  0  0  0  0  0  0  0  0  0  0  0
  137.6550   70.6200  223.5210 C   0  0  0  0  0  0  0  0  0  0  0  0
  137.4570   69.1690  223.8330 C   0  0  2  0  0  0  0  0  0  0  0  0
  136.1710   68.8880  224.2810 O   0  0  0  0  0  0  0  0  0  0  0  0
  138.5180   68.8450  224.8320 C   0  0  0  0  0  0  0  0  0  0  0  0
  139.6350   69.8260  224.5910 C   0  0  2  0  0  0  0  0  0  0  0  0
  140.1070   70.4830  225.8560 C   0  0  0  0  0  0  0  0  0  0  0  0
  139.7150   70.0400  227.1030 C   0  0  0  0  0  0  0  0  0  0  0  0
  140.1340   70.6230  228.2730 C   0  0  0  0  0  0  0  0  0  0  0  0
  140.9950   71.7140  228.2100 C   0  0  0  0  0  0  0  0  0  0  0  0
  141.4030   72.1800  226.9770 C   0  0  0  0  0  0  0  0  0  0  0  0
  140.9600   71.5650  225.8130 C   0  0  0  0  0  0  0  0  0  0  0  0
  139.9680   76.2850  222.3170 C   0  0  0  0  0  0  0  0  0  0  0  0
  138.7340   76.8840  222.4450 C   0  0  0  0  0  0  0  0  0  0  0  0
  138.6410   78.2040  222.8270 C   0  0  0  0  0  0  0  0  0  0  0  0
  139.8070   78.8980  223.0750 C   0  0  0  0  0  0  0  0  0  0  0  0
  139.7900   80.2250  223.4630 C   0  0  0  0  0  0  0  0  0  0  0  0
  140.9670   80.8970  223.7050 C   0  0  0  0  0  0  0  0  0  0  0  0
  142.2030   80.3010  223.5790 C   0  0  0  0  0  0  0  0  0  0  0  0
  142.2250   78.9590  223.1870 C   0  0  0  0  0  0  0  0  0  0  0  0
  141.0440   78.2650  222.9380 C   0  0  0  0  0  0  0  0  0  0  0  0
  141.1220   76.9700  222.5630 N   0  0  0  0  0  0  0  0  0  0  0  0
  138.2000   74.3060  222.9630 H   0  0  0  0  0  0  0  0  0  0  0  0
  138.0574   72.2140  221.8035 H   0  0  0  0  0  0  0  0  0  0  0  0
  139.6279   72.5890  220.9734 H   0  0  0  0  0  0  0  0  0  0  0  0
  137.1210   71.2569  224.2415 H   0  0  0  0  0  0  0  0  0  0  0  0
  137.2674   70.9105  222.5334 H   0  0  0  0  0  0  0  0  0  0  0  0
  137.5508   68.5391  222.9361 H   0  0  0  0  0  0  0  0  0  0  0  0
  135.4710   69.4590  223.8770 H   0  0  0  0  0  0  0  0  0  0  0  0
  138.1265   68.9563  225.8539 H   0  0  0  0  0  0  0  0  0  0  0  0
  138.8659   67.8070  224.7251 H   0  0  0  0  0  0  0  0  0  0  0  0
  140.5339   69.3278  224.1988 H   0  0  0  0  0  0  0  0  0  0  0  0
  139.0340   69.1782  227.1621 H   0  0  0  0  0  0  0  0  0  0  0  0
  139.7946   70.2340  229.2443 H   0  0  0  0  0  0  0  0  0  0  0  0
  141.3464   72.1995  229.1324 H   0  0  0  0  0  0  0  0  0  0  0  0
  142.0825   73.0429  226.9156 H   0  0  0  0  0  0  0  0  0  0  0  0
  141.2962   71.9486  224.8384 H   0  0  0  0  0  0  0  0  0  0  0  0
  137.8203   76.3063  222.2415 H   0  0  0  0  0  0  0  0  0  0  0  0
  137.6611   78.6927  222.9317 H   0  0  0  0  0  0  0  0  0  0  0  0
  138.8291   80.7476  223.5792 H   0  0  0  0  0  0  0  0  0  0  0  0
  140.9188   81.9524  224.0113 H   0  0  0  0  0  0  0  0  0  0  0  0
  143.1314   80.8565  223.7780 H   0  0  0  0  0  0  0  0  0  0  0  0
  143.1902   78.4437  223.0736 H   0  0  0  0  0  0  0  0  0  0  0  0
  1  2  2  0
  2  3  1  0
  3  4  1  0
  4  5  1  0
  5  6  2  0
  5  7  1  0
  7  8  1  0
  8  9  1  0
  9 10  1  0
  9 11  1  0
 11 12  1  0
 12 13  1  0
 13 14  2  0
 14 15  1  0
 15 16  2  0
 16 17  1  0
 17 18  2  0
  2 19  1  0
 19 20  2  0
 20 21  1  0
 21 22  2  0
 22 23  1  0
 23 24  2  0
 24 25  1  0
 25 26  2  0
 26 27  1  0
 27 28  2  0
 12  7  1  0
 18 13  1  0
 28 19  1  0
 27 22  1  0
  3 29  1  0
  4 30  1  0
  4 31  1  0
  8 32  1  0
  8 33  1  0
  9 34  1  6
 10 35  1  0
 11 36  1  0
 11 37  1  0
 12 38  1  6
 14 39  1  0
 15 40  1  0
 16 41  1  0
 17 42  1  0
 18 43  1  0
 20 44  1  0
 21 45  1  0
 23 46  1  0
 24 47  1  0
 25 48  1  0
 26 49  1  0
M  END
>  <smiles>  (35) 
O=C(NCC(=O)N1C[C@H](O)C[C@@H]1c1ccccc1)c1ccc2ccccc2n1

>  <score_type>  (35) 
oracle

>  <origin>  (35) 
autodockgpu

>  <m_score__min__energy>  (35) 
-9.3699999999999992

>  <m_primary>  (35) 
energy

>  <rmsd>  (35) 
8.286812834397914

>  <m_score__min__rmsd>  (35) 
8.286812834397914

>  <meeko>  (35) 
{"free_energy": -9.15, "intermolecular_energy": -10.94, "internal_energy": -1.04, "cluster_size": 18, "cluster_id": 2, "rank_in_cluster": 6}

>  <energy>  (35) 
-9.06

>  <cluster_rmsd>  (35) 
0.5

>  <cluster>  (35) 
2

$$$$

     RDKit          3D

 49 52  0  0  0  0  0  0  0  0999 V2000
  141.0220   72.2980  221.6790 O   0  0  0  0  0  0  0  0  0  0  0  0
  140.1170   72.3590  222.5320 C   0  0  0  0  0  0  0  0  0  0  0  0
  139.0850   73.3380  222.3510 N   0  0  0  0  0  0  0  0  0  0  0  0
  139.1660   74.1810  221.2000 C   0  0  0  0  0  0  0  0  0  0  0  0
  139.7290   75.5300  221.5300 C   0  0  0  0  0  0  0  0  0  0  0  0
  139.1380   76.3420  222.2860 O   0  0  0  0  0  0  0  0  0  0  0  0
  140.9830   75.9040  220.9660 N   0  0  0  0  0  0  0  0  0  0  0  0
  142.0770   74.9650  220.8110 C   0  0  0  0  0  0  0  0  0  0  0  0
  142.8170   75.5100  219.6300 C   0  0  2  0  0  0  0  0  0  0  0  0
  144.1490   75.1120  219.6010 O   0  0  0  0  0  0  0  0  0  0  0  0
  142.6420   76.9900  219.7190 C   0  0  0  0  0  0  0  0  0  0  0  0
  141.3580   77.2160  220.4750 C   0  0  2  0  0  0  0  0  0  0  0  0
  141.5130   78.2150  221.5850 C   0  0  0  0  0  0  0  0  0  0  0  0
  141.7360   79.5550  221.3400 C   0  0  0  0  0  0  0  0  0  0  0  0
  141.8790   80.4880  222.3370 C   0  0  0  0  0  0  0  0  0  0  0  0
  141.7970   80.0720  223.6630 C   0  0  0  0  0  0  0  0  0  0  0  0
  141.5750   78.7380  223.9380 C   0  0  0  0  0  0  0  0  0  0  0  0
  141.4350   77.8220  222.9040 C   0  0  0  0  0  0  0  0  0  0  0  0
  140.0760   71.4680  223.6990 C   0  0  0  0  0  0  0  0  0  0  0  0
  139.4980   70.2280  223.5490 C   0  0  0  0  0  0  0  0  0  0  0  0
  139.4380   69.3590  224.6160 C   0  0  0  0  0  0  0  0  0  0  0  0
  139.9680   69.7640  225.8230 C   0  0  0  0  0  0  0  0  0  0  0  0
  139.9440   68.9450  226.9360 C   0  0  0  0  0  0  0  0  0  0  0  0
  140.4810   69.3710  228.1300 C   0  0  0  0  0  0  0  0  0  0  0  0
  141.0610   70.6120  228.2830 C   0  0  0  0  0  0  0  0  0  0  0  0
  141.0880   71.4440  227.1600 C   0  0  0  0  0  0  0  0  0  0  0  0
  140.5500   71.0280  225.9450 C   0  0  0  0  0  0  0  0  0  0  0  0
  140.6030   71.8710  224.8920 N   0  0  0  0  0  0  0  0  0  0  0  0
  138.2950   73.4320  223.0410 H   0  0  0  0  0  0  0  0  0  0  0  0
  139.8131   73.6995  220.4521 H   0  0  0  0  0  0  0  0  0  0  0  0
  138.1469   74.3242  220.8116 H   0  0  0  0  0  0  0  0  0  0  0  0
  142.7159   74.9497  221.7063 H   0  0  0  0  0  0  0  0  0  0  0  0
  141.7429   73.9260  220.6740 H   0  0  0  0  0  0  0  0  0  0  0  0
  142.4203   75.1194  218.6813 H   0  0  0  0  0  0  0  0  0  0  0  0
  144.6030   75.2880  218.7410 H   0  0  0  0  0  0  0  0  0  0  0  0
  143.4871   77.4423  220.2587 H   0  0  0  0  0  0  0  0  0  0  0  0
  142.6061   77.4505  218.7207 H   0  0  0  0  0  0  0  0  0  0  0  0
  140.5795   77.6510  219.8310 H   0  0  0  0  0  0  0  0  0  0  0  0
  141.8024   79.8918  220.2949 H   0  0  0  0  0  0  0  0  0  0  0  0
  142.0553   81.5458  222.0923 H   0  0  0  0  0  0  0  0  0  0  0  0
  141.9079   80.7980  224.4819 H   0  0  0  0  0  0  0  0  0  0  0  0
  141.5086   78.3985  224.9822 H   0  0  0  0  0  0  0  0  0  0  0  0
  141.2585   76.7626  223.1418 H   0  0  0  0  0  0  0  0  0  0  0  0
  139.0830   69.9302  222.5748 H   0  0  0  0  0  0  0  0  0  0  0  0
  138.9782   68.3656  224.5079 H   0  0  0  0  0  0  0  0  0  0  0  0
  139.4921   67.9445  226.8673 H   0  0  0  0  0  0  0  0  0  0  0  0
  140.4458   68.6941  228.9963 H   0  0  0  0  0  0  0  0  0  0  0  0
  141.4839   70.9335  229.2462 H   0  0  0  0  0  0  0  0  0  0  0  0
  141.5415   72.4432  227.2374 H   0  0  0  0  0  0  0  0  0  0  0  0
  1  2  2  0
  2  3  1  0
  3  4  1  0
  4  5  1  0
  5  6  2  0
  5  7  1  0
  7  8  1  0
  8  9  1  0
  9 10  1  0
  9 11  1  0
 11 12  1  0
 12 13  1  0
 13 14  2  0
 14 15  1  0
 15 16  2  0
 16 17  1  0
 17 18  2  0
  2 19  1  0
 19 20  2  0
 20 21  1  0
 21 22  2  0
 22 23  1  0
 23 24  2  0
 24 25  1  0
 25 26  2  0
 26 27  1  0
 27 28  2  0
 12  7  1  0
 18 13  1  0
 28 19  1  0
 27 22  1  0
  3 29  1  0
  4 30  1  0
  4 31  1  0
  8 32  1  0
  8 33  1  0
  9 34  1  6
 10 35  1  0
 11 36  1  0
 11 37  1  0
 12 38  1  6
 14 39  1  0
 15 40  1  0
 16 41  1  0
 17 42  1  0
 18 43  1  0
 20 44  1  0
 21 45  1  0
 23 46  1  0
 24 47  1  0
 25 48  1  0
 26 49  1  0
M  END
>  <smiles>  (36) 
O=C(NCC(=O)N1C[C@H](O)C[C@@H]1c1ccccc1)c1ccc2ccccc2n1

>  <score_type>  (36) 
oracle

>  <origin>  (36) 
autodockgpu

>  <m_score__min__energy>  (36) 
-9.3699999999999992

>  <m_primary>  (36) 
energy

>  <rmsd>  (36) 
1.952437604917422

>  <m_score__min__rmsd>  (36) 
1.952437604917422

>  <meeko>  (36) 
{"free_energy": -9.29, "intermolecular_energy": -11.08, "internal_energy": -1.22, "cluster_size": 28, "cluster_id": 1, "rank_in_cluster": 3}

>  <energy>  (36) 
-9.05

>  <cluster_rmsd>  (36) 
1.01

>  <cluster>  (36) 
2

$$$$

     RDKit          3D

 49 52  0  0  0  0  0  0  0  0999 V2000
  141.3300   72.2090  221.6550 O   0  0  0  0  0  0  0  0  0  0  0  0
  140.4400   72.3970  222.5050 C   0  0  0  0  0  0  0  0  0  0  0  0
  139.5820   73.5330  222.3420 N   0  0  0  0  0  0  0  0  0  0  0  0
  139.8060   74.3760  221.2100 C   0  0  0  0  0  0  0  0  0  0  0  0
  140.1810   75.7700  221.6130 C   0  0  0  0  0  0  0  0  0  0  0  0
  139.7380   76.3130  222.6570 O   0  0  0  0  0  0  0  0  0  0  0  0
  141.0730   76.5050  220.7810 N   0  0  0  0  0  0  0  0  0  0  0  0
  142.2150   75.8900  220.1300 C   0  0  0  0  0  0  0  0  0  0  0  0
  142.3940   76.7350  218.9080 C   0  0  2  0  0  0  0  0  0  0  0  0
  143.6890   76.6840  218.4070 O   0  0  0  0  0  0  0  0  0  0  0  0
  141.9720   78.1050  219.3250 C   0  0  0  0  0  0  0  0  0  0  0  0
  140.9980   77.9170  220.4590 C   0  0  2  0  0  0  0  0  0  0  0  0
  141.3160   78.7880  221.6400 C   0  0  0  0  0  0  0  0  0  0  0  0
  141.5330   78.2670  222.8990 C   0  0  0  0  0  0  0  0  0  0  0  0
  141.8270   79.0410  223.9930 C   0  0  0  0  0  0  0  0  0  0  0  0
  141.9120   80.4220  223.8360 C   0  0  0  0  0  0  0  0  0  0  0  0
  141.6980   80.9720  222.5890 C   0  0  0  0  0  0  0  0  0  0  0  0
  141.4040   80.1570  221.5040 C   0  0  0  0  0  0  0  0  0  0  0  0
  140.2490   71.5000  223.6520 C   0  0  0  0  0  0  0  0  0  0  0  0
  139.5820   70.3140  223.4440 C   0  0  0  0  0  0  0  0  0  0  0  0
  139.3780   69.4410  224.4900 C   0  0  0  0  0  0  0  0  0  0  0  0
  139.8580   69.7880  225.7360 C   0  0  0  0  0  0  0  0  0  0  0  0
  139.6920   68.9620  226.8310 C   0  0  0  0  0  0  0  0  0  0  0  0
  140.1800   69.3290  228.0650 C   0  0  0  0  0  0  0  0  0  0  0  0
  140.8480   70.5150  228.2760 C   0  0  0  0  0  0  0  0  0  0  0  0
  141.0200   71.3540  227.1710 C   0  0  0  0  0  0  0  0  0  0  0  0
  140.5320   70.9970  225.9170 C   0  0  0  0  0  0  0  0  0  0  0  0
  140.7250   71.8450  224.8830 N   0  0  0  0  0  0  0  0  0  0  0  0
  138.8130   73.7390  223.0310 H   0  0  0  0  0  0  0  0  0  0  0  0
  140.6203   73.9499  220.6056 H   0  0  0  0  0  0  0  0  0  0  0  0
  138.8695   74.4289  220.6354 H   0  0  0  0  0  0  0  0  0  0  0  0
  143.1065   75.9294  220.7732 H   0  0  0  0  0  0  0  0  0  0  0  0
  142.0659   74.8237  219.9045 H   0  0  0  0  0  0  0  0  0  0  0  0
  141.7869   76.3726  218.0653 H   0  0  0  0  0  0  0  0  0  0  0  0
  144.1980   75.8840  218.6880 H   0  0  0  0  0  0  0  0  0  0  0  0
  142.8428   78.6862  219.6625 H   0  0  0  0  0  0  0  0  0  0  0  0
  141.5140   78.6553  218.4899 H   0  0  0  0  0  0  0  0  0  0  0  0
  139.9795   78.2179  220.1725 H   0  0  0  0  0  0  0  0  0  0  0  0
  141.4670   77.1771  223.0322 H   0  0  0  0  0  0  0  0  0  0  0  0
  141.9927   78.5786  224.9772 H   0  0  0  0  0  0  0  0  0  0  0  0
  142.1469   81.0666  224.6958 H   0  0  0  0  0  0  0  0  0  0  0  0
  141.7606   82.0618  222.4536 H   0  0  0  0  0  0  0  0  0  0  0  0
  141.2381   80.6126  220.5166 H   0  0  0  0  0  0  0  0  0  0  0  0
  139.2107   70.0625  222.4395 H   0  0  0  0  0  0  0  0  0  0  0  0
  138.8456   68.4909  224.3356 H   0  0  0  0  0  0  0  0  0  0  0  0
  139.1655   68.0031  226.7159 H   0  0  0  0  0  0  0  0  0  0  0  0
  140.0305   68.6482  228.9160 H   0  0  0  0  0  0  0  0  0  0  0  0
  141.2295   70.7900  229.2704 H   0  0  0  0  0  0  0  0  0  0  0  0
  141.5489   72.3106  227.2943 H   0  0  0  0  0  0  0  0  0  0  0  0
  1  2  2  0
  2  3  1  0
  3  4  1  0
  4  5  1  0
  5  6  2  0
  5  7  1  0
  7  8  1  0
  8  9  1  0
  9 10  1  0
  9 11  1  0
 11 12  1  0
 12 13  1  0
 13 14  2  0
 14 15  1  0
 15 16  2  0
 16 17  1  0
 17 18  2  0
  2 19  1  0
 19 20  2  0
 20 21  1  0
 21 22  2  0
 22 23  1  0
 23 24  2  0
 24 25  1  0
 25 26  2  0
 26 27  1  0
 27 28  2  0
 12  7  1  0
 18 13  1  0
 28 19  1  0
 27 22  1  0
  3 29  1  0
  4 30  1  0
  4 31  1  0
  8 32  1  0
  8 33  1  0
  9 34  1  6
 10 35  1  0
 11 36  1  0
 11 37  1  0
 12 38  1  6
 14 39  1  0
 15 40  1  0
 16 41  1  0
 17 42  1  0
 18 43  1  0
 20 44  1  0
 21 45  1  0
 23 46  1  0
 24 47  1  0
 25 48  1  0
 26 49  1  0
M  END
>  <smiles>  (37) 
O=C(NCC(=O)N1C[C@H](O)C[C@@H]1c1ccccc1)c1ccc2ccccc2n1

>  <score_type>  (37) 
oracle

>  <origin>  (37) 
autodockgpu

>  <m_score__min__energy>  (37) 
-9.3699999999999992

>  <m_primary>  (37) 
energy

>  <rmsd>  (37) 
1.947540644476232

>  <m_score__min__rmsd>  (37) 
1.947540644476232

>  <meeko>  (37) 
{"free_energy": -9.26, "intermolecular_energy": -11.05, "internal_energy": -1.08, "cluster_size": 28, "cluster_id": 1, "rank_in_cluster": 5}

>  <energy>  (37) 
-9.05

>  <cluster_rmsd>  (37) 
1.0

>  <cluster>  (37) 
2

$$$$

     RDKit          3D

 49 52  0  0  0  0  0  0  0  0999 V2000
  140.6740   74.0480  220.4000 O   0  0  0  0  0  0  0  0  0  0  0  0
  140.3450   74.8240  221.3160 C   0  0  0  0  0  0  0  0  0  0  0  0
  139.4490   74.3350  222.3230 N   0  0  0  0  0  0  0  0  0  0  0  0
  138.9920   72.9860  222.2050 C   0  0  0  0  0  0  0  0  0  0  0  0
  139.7970   72.0450  223.0490 C   0  0  0  0  0  0  0  0  0  0  0  0
  141.0400   72.1650  223.1960 O   0  0  0  0  0  0  0  0  0  0  0  0
  139.1270   70.9750  223.7080 N   0  0  0  0  0  0  0  0  0  0  0  0
  137.7000   70.7520  223.5760 C   0  0  0  0  0  0  0  0  0  0  0  0
  137.5750   69.2740  223.7790 C   0  0  2  0  0  0  0  0  0  0  0  0
  136.3080   68.8970  224.2070 O   0  0  0  0  0  0  0  0  0  0  0  0
  138.6570   68.9290  224.7480 C   0  0  0  0  0  0  0  0  0  0  0  0
  139.7240   69.9790  224.5780 C   0  0  2  0  0  0  0  0  0  0  0  0
  140.1700   70.5620  225.8880 C   0  0  0  0  0  0  0  0  0  0  0  0
  139.7530   70.0510  227.0990 C   0  0  0  0  0  0  0  0  0  0  0  0
  140.1490   70.5650  228.3090 C   0  0  0  0  0  0  0  0  0  0  0  0
  141.0120   71.6560  228.3260 C   0  0  0  0  0  0  0  0  0  0  0  0
  141.4450   72.1900  227.1290 C   0  0  0  0  0  0  0  0  0  0  0  0
  141.0250   71.6440  225.9240 C   0  0  0  0  0  0  0  0  0  0  0  0
  140.8420   76.2030  221.3940 C   0  0  0  0  0  0  0  0  0  0  0  0
  141.2160   76.8250  220.2240 C   0  0  0  0  0  0  0  0  0  0  0  0
  141.6880   78.1190  220.2470 C   0  0  0  0  0  0  0  0  0  0  0  0
  141.7720   78.7640  221.4630 C   0  0  0  0  0  0  0  0  0  0  0  0
  142.2350   80.0620  221.5630 C   0  0  0  0  0  0  0  0  0  0  0  0
  142.3090   80.6870  222.7890 C   0  0  0  0  0  0  0  0  0  0  0  0
  141.9340   80.0670  223.9610 C   0  0  0  0  0  0  0  0  0  0  0  0
  141.4650   78.7540  223.8650 C   0  0  0  0  0  0  0  0  0  0  0  0
  141.3840   78.1090  222.6340 C   0  0  0  0  0  0  0  0  0  0  0  0
  140.9230   76.8400  222.5980 N   0  0  0  0  0  0  0  0  0  0  0  0
  139.1390   74.9480  223.1210 H   0  0  0  0  0  0  0  0  0  0  0  0
  137.9403   72.9381  222.5239 H   0  0  0  0  0  0  0  0  0  0  0  0
  139.1033   72.6801  221.1543 H   0  0  0  0  0  0  0  0  0  0  0  0
  137.1397   71.3061  224.3435 H   0  0  0  0  0  0  0  0  0  0  0  0
  137.2928   71.0953  222.6136 H   0  0  0  0  0  0  0  0  0  0  0  0
  137.6938   68.7182  222.8372 H   0  0  0  0  0  0  0  0  0  0  0  0
  135.8840   68.2010  223.6480 H   0  0  0  0  0  0  0  0  0  0  0  0
  138.2671   68.9446  225.7764 H   0  0  0  0  0  0  0  0  0  0  0  0
  139.0543   67.9201  224.5627 H   0  0  0  0  0  0  0  0  0  0  0  0
  140.6437   69.5567  224.1469 H   0  0  0  0  0  0  0  0  0  0  0  0
  139.0695   69.1892  227.0954 H   0  0  0  0  0  0  0  0  0  0  0  0
  139.7898   70.1215  229.2494 H   0  0  0  0  0  0  0  0  0  0  0  0
  141.3451   72.0877  229.2813 H   0  0  0  0  0  0  0  0  0  0  0  0
  142.1268   73.0532  227.1301 H   0  0  0  0  0  0  0  0  0  0  0  0
  141.3806   72.0824  224.9799 H   0  0  0  0  0  0  0  0  0  0  0  0
  141.1377   76.2869  219.2678 H   0  0  0  0  0  0  0  0  0  0  0  0
  141.9904   78.6252  219.3184 H   0  0  0  0  0  0  0  0  0  0  0  0
  142.5472   80.6010  220.6564 H   0  0  0  0  0  0  0  0  0  0  0  0
  142.6819   81.7209  222.8337 H   0  0  0  0  0  0  0  0  0  0  0  0
  142.0009   80.5831  224.9301 H   0  0  0  0  0  0  0  0  0  0  0  0
  141.1550   78.2219  224.7764 H   0  0  0  0  0  0  0  0  0  0  0  0
  1  2  2  0
  2  3  1  0
  3  4  1  0
  4  5  1  0
  5  6  2  0
  5  7  1  0
  7  8  1  0
  8  9  1  0
  9 10  1  0
  9 11  1  0
 11 12  1  0
 12 13  1  0
 13 14  2  0
 14 15  1  0
 15 16  2  0
 16 17  1  0
 17 18  2  0
  2 19  1  0
 19 20  2  0
 20 21  1  0
 21 22  2  0
 22 23  1  0
 23 24  2  0
 24 25  1  0
 25 26  2  0
 26 27  1  0
 27 28  2  0
 12  7  1  0
 18 13  1  0
 28 19  1  0
 27 22  1  0
  3 29  1  0
  4 30  1  0
  4 31  1  0
  8 32  1  0
  8 33  1  0
  9 34  1  6
 10 35  1  0
 11 36  1  0
 11 37  1  0
 12 38  1  6
 14 39  1  0
 15 40  1  0
 16 41  1  0
 17 42  1  0
 18 43  1  0
 20 44  1  0
 21 45  1  0
 23 46  1  0
 24 47  1  0
 25 48  1  0
 26 49  1  0
M  END
>  <smiles>  (38) 
O=C(NCC(=O)N1C[C@H](O)C[C@@H]1c1ccccc1)c1ccc2ccccc2n1

>  <score_type>  (38) 
oracle

>  <origin>  (38) 
autodockgpu

>  <m_score__min__energy>  (38) 
-9.3699999999999992

>  <m_primary>  (38) 
energy

>  <rmsd>  (38) 
8.398887457034931

>  <m_score__min__rmsd>  (38) 
8.398887457034931

>  <meeko>  (38) 
{"free_energy": -8.99, "intermolecular_energy": -10.78, "internal_energy": -1.26, "cluster_size": 18, "cluster_id": 2, "rank_in_cluster": 11}

>  <energy>  (38) 
-9.01

>  <cluster_rmsd>  (38) 
1.02

>  <cluster>  (38) 
2

$$$$

     RDKit          3D

 49 52  0  0  0  0  0  0  0  0999 V2000
  141.4430   72.5080  221.8850 O   0  0  0  0  0  0  0  0  0  0  0  0
  140.4330   72.5310  222.6120 C   0  0  0  0  0  0  0  0  0  0  0  0
  139.4250   73.5110  222.3350 N   0  0  0  0  0  0  0  0  0  0  0  0
  139.6480   74.3990  221.2380 C   0  0  0  0  0  0  0  0  0  0  0  0
  140.0390   75.7710  221.6950 C   0  0  0  0  0  0  0  0  0  0  0  0
  139.5980   76.2800  222.7570 O   0  0  0  0  0  0  0  0  0  0  0  0
  140.9450   76.5250  220.8950 N   0  0  0  0  0  0  0  0  0  0  0  0
  142.1630   75.9550  220.3520 C   0  0  0  0  0  0  0  0  0  0  0  0
  142.3800   76.7610  219.1090 C   0  0  2  0  0  0  0  0  0  0  0  0
  143.7090   76.7680  218.7010 O   0  0  0  0  0  0  0  0  0  0  0  0
  141.8520   78.1180  219.4370 C   0  0  0  0  0  0  0  0  0  0  0  0
  140.8130   77.9170  220.5090 C   0  0  2  0  0  0  0  0  0  0  0  0
  140.9960   78.8500  221.6700 C   0  0  0  0  0  0  0  0  0  0  0  0
  139.9300   79.3200  222.4100 C   0  0  0  0  0  0  0  0  0  0  0  0
  140.0720   80.1720  223.4770 C   0  0  0  0  0  0  0  0  0  0  0  0
  141.3500   80.5890  223.8380 C   0  0  0  0  0  0  0  0  0  0  0  0
  142.4350   80.1360  223.1170 C   0  0  0  0  0  0  0  0  0  0  0  0
  142.2540   79.2740  222.0430 C   0  0  0  0  0  0  0  0  0  0  0  0
  140.2490   71.5960  223.7300 C   0  0  0  0  0  0  0  0  0  0  0  0
  139.5800   70.4170  223.4860 C   0  0  0  0  0  0  0  0  0  0  0  0
  139.3840   69.5090  224.5030 C   0  0  0  0  0  0  0  0  0  0  0  0
  139.8720   69.8130  225.7570 C   0  0  0  0  0  0  0  0  0  0  0  0
  139.7130   68.9510  226.8250 C   0  0  0  0  0  0  0  0  0  0  0  0
  140.2100   69.2750  228.0670 C   0  0  0  0  0  0  0  0  0  0  0  0
  140.8810   70.4540  228.3140 C   0  0  0  0  0  0  0  0  0  0  0  0
  141.0450   71.3300  227.2370 C   0  0  0  0  0  0  0  0  0  0  0  0
  140.5480   71.0160  225.9740 C   0  0  0  0  0  0  0  0  0  0  0  0
  140.7340   71.8980  224.9690 N   0  0  0  0  0  0  0  0  0  0  0  0
  138.5510   73.5750  222.9190 H   0  0  0  0  0  0  0  0  0  0  0  0
  140.4535   73.9913  220.6096 H   0  0  0  0  0  0  0  0  0  0  0  0
  138.7072   74.4846  220.6745 H   0  0  0  0  0  0  0  0  0  0  0  0
  143.0027   76.0732  221.0527 H   0  0  0  0  0  0  0  0  0  0  0  0
  142.0918   74.8736  220.1634 H   0  0  0  0  0  0  0  0  0  0  0  0
  141.8563   76.3305  218.2427 H   0  0  0  0  0  0  0  0  0  0  0  0
  144.3240   77.2050  219.3410 H   0  0  0  0  0  0  0  0  0  0  0  0
  142.6623   78.7631  219.8075 H   0  0  0  0  0  0  0  0  0  0  0  0
  141.4230   78.6064  218.5496 H   0  0  0  0  0  0  0  0  0  0  0  0
  139.8018   78.1460  220.1414 H   0  0  0  0  0  0  0  0  0  0  0  0
  138.9165   78.9959  222.1310 H   0  0  0  0  0  0  0  0  0  0  0  0
  139.1911   80.5191  224.0370 H   0  0  0  0  0  0  0  0  0  0  0  0
  141.4930   81.2719  224.6884 H   0  0  0  0  0  0  0  0  0  0  0  0
  143.4493   80.4592  223.3941 H   0  0  0  0  0  0  0  0  0  0  0  0
  143.1309   78.9229  221.4793 H   0  0  0  0  0  0  0  0  0  0  0  0
  139.2013   70.2000  222.4763 H   0  0  0  0  0  0  0  0  0  0  0  0
  138.8512   68.5643  224.3197 H   0  0  0  0  0  0  0  0  0  0  0  0
  139.1844   67.9971  226.6814 H   0  0  0  0  0  0  0  0  0  0  0  0
  140.0663   68.5654  228.8952 H   0  0  0  0  0  0  0  0  0  0  0  0
  141.2701   70.6946  229.3144 H   0  0  0  0  0  0  0  0  0  0  0  0
  141.5747   72.2820  227.3892 H   0  0  0  0  0  0  0  0  0  0  0  0
  1  2  2  0
  2  3  1  0
  3  4  1  0
  4  5  1  0
  5  6  2  0
  5  7  1  0
  7  8  1  0
  8  9  1  0
  9 10  1  0
  9 11  1  0
 11 12  1  0
 12 13  1  0
 13 14  2  0
 14 15  1  0
 15 16  2  0
 16 17  1  0
 17 18  2  0
  2 19  1  0
 19 20  2  0
 20 21  1  0
 21 22  2  0
 22 23  1  0
 23 24  2  0
 24 25  1  0
 25 26  2  0
 26 27  1  0
 27 28  2  0
 12  7  1  0
 18 13  1  0
 28 19  1  0
 27 22  1  0
  3 29  1  0
  4 30  1  0
  4 31  1  0
  8 32  1  0
  8 33  1  0
  9 34  1  6
 10 35  1  0
 11 36  1  0
 11 37  1  0
 12 38  1  6
 14 39  1  0
 15 40  1  0
 16 41  1  0
 17 42  1  0
 18 43  1  0
 20 44  1  0
 21 45  1  0
 23 46  1  0
 24 47  1  0
 25 48  1  0
 26 49  1  0
M  END
>  <smiles>  (39) 
O=C(NCC(=O)N1C[C@H](O)C[C@@H]1c1ccccc1)c1ccc2ccccc2n1

>  <score_type>  (39) 
oracle

>  <origin>  (39) 
autodockgpu

>  <m_score__min__energy>  (39) 
-9.3699999999999992

>  <m_primary>  (39) 
energy

>  <rmsd>  (39) 
1.9899309477017422

>  <m_score__min__rmsd>  (39) 
1.9899309477017422

>  <meeko>  (39) 
{"free_energy": -9.19, "intermolecular_energy": -10.98, "internal_energy": -1.3, "cluster_size": 28, "cluster_id": 1, "rank_in_cluster": 7}

>  <energy>  (39) 
-8.99

>  <cluster_rmsd>  (39) 
0.99

>  <cluster>  (39) 
2

$$$$

     RDKit          3D

 49 52  0  0  0  0  0  0  0  0999 V2000
  141.0800   74.3510  221.5330 O   0  0  0  0  0  0  0  0  0  0  0  0
  140.0640   74.8650  222.0360 C   0  0  0  0  0  0  0  0  0  0  0  0
  138.9380   74.0160  222.2940 N   0  0  0  0  0  0  0  0  0  0  0  0
  139.0590   72.6330  221.9550 C   0  0  0  0  0  0  0  0  0  0  0  0
  139.6050   71.8220  223.0910 C   0  0  0  0  0  0  0  0  0  0  0  0
  140.7990   71.9150  223.4740 O   0  0  0  0  0  0  0  0  0  0  0  0
  138.7370   70.9140  223.7620 N   0  0  0  0  0  0  0  0  0  0  0  0
  137.2960   71.0780  223.7700 C   0  0  0  0  0  0  0  0  0  0  0  0
  136.8030   69.6700  223.9070 C   0  0  2  0  0  0  0  0  0  0  0  0
  135.5240   69.6010  224.4480 O   0  0  0  0  0  0  0  0  0  0  0  0
  137.8370   68.9840  224.7370 C   0  0  0  0  0  0  0  0  0  0  0  0
  139.1240   69.7330  224.5100 C   0  0  2  0  0  0  0  0  0  0  0  0
  139.8230   70.0770  225.7930 C   0  0  0  0  0  0  0  0  0  0  0  0
  140.0980   71.3800  226.1530 C   0  0  0  0  0  0  0  0  0  0  0  0
  140.7340   71.7190  227.3210 C   0  0  0  0  0  0  0  0  0  0  0  0
  141.1250   70.7070  228.1920 C   0  0  0  0  0  0  0  0  0  0  0  0
  140.8640   69.3940  227.8590 C   0  0  0  0  0  0  0  0  0  0  0  0
  140.2180   69.0870  226.6680 C   0  0  0  0  0  0  0  0  0  0  0  0
  139.9870   76.2930  222.3670 C   0  0  0  0  0  0  0  0  0  0  0  0
  138.7480   76.8950  222.3620 C   0  0  0  0  0  0  0  0  0  0  0  0
  138.6270   78.2320  222.6660 C   0  0  0  0  0  0  0  0  0  0  0  0
  139.7700   78.9420  222.9720 C   0  0  0  0  0  0  0  0  0  0  0  0
  139.7250   80.2860  223.2880 C   0  0  0  0  0  0  0  0  0  0  0  0
  140.8790   80.9740  223.5900 C   0  0  0  0  0  0  0  0  0  0  0  0
  142.1200   80.3740  223.5960 C   0  0  0  0  0  0  0  0  0  0  0  0
  142.1710   79.0140  223.2780 C   0  0  0  0  0  0  0  0  0  0  0  0
  141.0130   78.3050  222.9700 C   0  0  0  0  0  0  0  0  0  0  0  0
  141.1190   76.9930  222.6700 N   0  0  0  0  0  0  0  0  0  0  0  0
  138.0530   74.3980  222.7190 H   0  0  0  0  0  0  0  0  0  0  0  0
  138.0653   72.2448  221.6870 H   0  0  0  0  0  0  0  0  0  0  0  0
  139.7596   72.5502  221.1110 H   0  0  0  0  0  0  0  0  0  0  0  0
  136.9722   71.6958  224.6206 H   0  0  0  0  0  0  0  0  0  0  0  0
  136.9107   71.5895  222.8756 H   0  0  0  0  0  0  0  0  0  0  0  0
  136.6865   69.1773  222.9305 H   0  0  0  0  0  0  0  0  0  0  0  0
  134.8230   69.3610  223.7930 H   0  0  0  0  0  0  0  0  0  0  0  0
  137.5576   69.0198  225.8003 H   0  0  0  0  0  0  0  0  0  0  0  0
  137.9358   67.9244  224.4586 H   0  0  0  0  0  0  0  0  0  0  0  0
  139.8569   69.1224  223.9623 H   0  0  0  0  0  0  0  0  0  0  0  0
  139.7926   72.1868  225.4705 H   0  0  0  0  0  0  0  0  0  0  0  0
  140.9313   72.7734  227.5645 H   0  0  0  0  0  0  0  0  0  0  0  0
  141.6362   70.9510  229.1350 H   0  0  0  0  0  0  0  0  0  0  0  0
  141.1690   68.5858  228.5401 H   0  0  0  0  0  0  0  0  0  0  0  0
  140.0178   68.0346  226.4183 H   0  0  0  0  0  0  0  0  0  0  0  0
  137.8528   76.3056  222.1144 H   0  0  0  0  0  0  0  0  0  0  0  0
  137.6426   78.7228  222.6650 H   0  0  0  0  0  0  0  0  0  0  0  0
  138.7586   80.8114  223.2985 H   0  0  0  0  0  0  0  0  0  0  0  0
  140.8077   82.0438  223.8360 H   0  0  0  0  0  0  0  0  0  0  0  0
  143.0304   80.9409  223.8404 H   0  0  0  0  0  0  0  0  0  0  0  0
  143.1412   78.4957  223.2709 H   0  0  0  0  0  0  0  0  0  0  0  0
  1  2  2  0
  2  3  1  0
  3  4  1  0
  4  5  1  0
  5  6  2  0
  5  7  1  0
  7  8  1  0
  8  9  1  0
  9 10  1  0
  9 11  1  0
 11 12  1  0
 12 13  1  0
 13 14  2  0
 14 15  1  0
 15 16  2  0
 16 17  1  0
 17 18  2  0
  2 19  1  0
 19 20  2  0
 20 21  1  0
 21 22  2  0
 22 23  1  0
 23 24  2  0
 24 25  1  0
 25 26  2  0
 26 27  1  0
 27 28  2  0
 12  7  1  0
 18 13  1  0
 28 19  1  0
 27 22  1  0
  3 29  1  0
  4 30  1  0
  4 31  1  0
  8 32  1  0
  8 33  1  0
  9 34  1  6
 10 35  1  0
 11 36  1  0
 11 37  1  0
 12 38  1  6
 14 39  1  0
 15 40  1  0
 16 41  1  0
 17 42  1  0
 18 43  1  0
 20 44  1  0
 21 45  1  0
 23 46  1  0
 24 47  1  0
 25 48  1  0
 26 49  1  0
M  END
>  <smiles>  (40) 
O=C(NCC(=O)N1C[C@H](O)C[C@@H]1c1ccccc1)c1ccc2ccccc2n1

>  <score_type>  (40) 
oracle

>  <origin>  (40) 
autodockgpu

>  <m_score__min__energy>  (40) 
-9.3699999999999992

>  <m_primary>  (40) 
energy

>  <rmsd>  (40) 
8.327481971552203

>  <m_score__min__rmsd>  (40) 
8.327481971552203

>  <meeko>  (40) 
{"free_energy": -8.57, "intermolecular_energy": -10.36, "internal_energy": -1.07, "cluster_size": 18, "cluster_id": 2, "rank_in_cluster": 16}

>  <energy>  (40) 
-8.99

>  <cluster_rmsd>  (40) 
1.07

>  <cluster>  (40) 
2

$$$$

     RDKit          3D

 49 52  0  0  0  0  0  0  0  0999 V2000
  141.2410   72.1270  221.8020 O   0  0  0  0  0  0  0  0  0  0  0  0
  140.3020   72.1870  222.6170 C   0  0  0  0  0  0  0  0  0  0  0  0
  139.3060   73.1990  222.4230 N   0  0  0  0  0  0  0  0  0  0  0  0
  139.4580   74.0730  221.3030 C   0  0  0  0  0  0  0  0  0  0  0  0
  139.8680   75.4530  221.7190 C   0  0  0  0  0  0  0  0  0  0  0  0
  139.2800   76.0850  222.6340 O   0  0  0  0  0  0  0  0  0  0  0  0
  140.9650   76.0710  221.0530 N   0  0  0  0  0  0  0  0  0  0  0  0
  142.1960   75.3610  220.7600 C   0  0  0  0  0  0  0  0  0  0  0  0
  142.6980   76.0600  219.5350 C   0  0  2  0  0  0  0  0  0  0  0  0
  144.0710   75.9240  219.3660 O   0  0  0  0  0  0  0  0  0  0  0  0
  142.2560   77.4770  219.6960 C   0  0  0  0  0  0  0  0  0  0  0  0
  141.0360   77.4390  220.5780 C   0  0  2  0  0  0  0  0  0  0  0  0
  141.1100   78.4290  221.7050 C   0  0  0  0  0  0  0  0  0  0  0  0
  139.9940   78.8110  222.4210 C   0  0  0  0  0  0  0  0  0  0  0  0
  140.0360   79.7120  223.4560 C   0  0  0  0  0  0  0  0  0  0  0  0
  141.2590   80.2740  223.8080 C   0  0  0  0  0  0  0  0  0  0  0  0
  142.3930   79.9120  223.1090 C   0  0  0  0  0  0  0  0  0  0  0  0
  142.3130   78.9970  222.0680 C   0  0  0  0  0  0  0  0  0  0  0  0
  140.1880   71.2640  223.7540 C   0  0  0  0  0  0  0  0  0  0  0  0
  139.5810   70.0470  223.5420 C   0  0  0  0  0  0  0  0  0  0  0  0
  139.4510   69.1480  224.5780 C   0  0  0  0  0  0  0  0  0  0  0  0
  139.9440   69.5010  225.8170 C   0  0  0  0  0  0  0  0  0  0  0  0
  139.8500   68.6500  226.9020 C   0  0  0  0  0  0  0  0  0  0  0  0
  140.3500   69.0240  228.1300 C   0  0  0  0  0  0  0  0  0  0  0  0
  140.9590   70.2420  228.3440 C   0  0  0  0  0  0  0  0  0  0  0  0
  141.0560   71.1050  227.2490 C   0  0  0  0  0  0  0  0  0  0  0  0
  140.5560   70.7420  226.0020 C   0  0  0  0  0  0  0  0  0  0  0  0
  140.6770   71.6150  224.9780 N   0  0  0  0  0  0  0  0  0  0  0  0
  138.4890   73.2940  223.0820 H   0  0  0  0  0  0  0  0  0  0  0  0
  140.2269   73.6610  220.6329 H   0  0  0  0  0  0  0  0  0  0  0  0
  138.4851   74.1464  220.7950 H   0  0  0  0  0  0  0  0  0  0  0  0
  142.9127   75.4514  221.5896 H   0  0  0  0  0  0  0  0  0  0  0  0
  142.0519   74.2800  220.6165 H   0  0  0  0  0  0  0  0  0  0  0  0
  142.2897   75.6197  218.6133 H   0  0  0  0  0  0  0  0  0  0  0  0
  144.3650   75.9590  218.4220 H   0  0  0  0  0  0  0  0  0  0  0  0
  143.0503   78.0728  220.1694 H   0  0  0  0  0  0  0  0  0  0  0  0
  142.0332   77.9403  218.7235 H   0  0  0  0  0  0  0  0  0  0  0  0
  140.1291   77.7290  220.0271 H   0  0  0  0  0  0  0  0  0  0  0  0
  139.0228   78.3719  222.1491 H   0  0  0  0  0  0  0  0  0  0  0  0
  139.1183   79.9849  223.9977 H   0  0  0  0  0  0  0  0  0  0  0  0
  141.3216   80.9983  224.6336 H   0  0  0  0  0  0  0  0  0  0  0  0
  143.3651   80.3508  223.3782 H   0  0  0  0  0  0  0  0  0  0  0  0
  143.2269   78.7197  221.5222 H   0  0  0  0  0  0  0  0  0  0  0  0
  139.1986   69.7914  222.5428 H   0  0  0  0  0  0  0  0  0  0  0  0
  138.9662   68.1732  224.4210 H   0  0  0  0  0  0  0  0  0  0  0  0
  139.3722   67.6663  226.7841 H   0  0  0  0  0  0  0  0  0  0  0  0
  140.2597   68.3231  228.9730 H   0  0  0  0  0  0  0  0  0  0  0  0
  141.3512   70.5223  229.3327 H   0  0  0  0  0  0  0  0  0  0  0  0
  141.5353   72.0871  227.3748 H   0  0  0  0  0  0  0  0  0  0  0  0
  1  2  2  0
  2  3  1  0
  3  4  1  0
  4  5  1  0
  5  6  2  0
  5  7  1  0
  7  8  1  0
  8  9  1  0
  9 10  1  0
  9 11  1  0
 11 12  1  0
 12 13  1  0
 13 14  2  0
 14 15  1  0
 15 16  2  0
 16 17  1  0
 17 18  2  0
  2 19  1  0
 19 20  2  0
 20 21  1  0
 21 22  2  0
 22 23  1  0
 23 24  2  0
 24 25  1  0
 25 26  2  0
 26 27  1  0
 27 28  2  0
 12  7  1  0
 18 13  1  0
 28 19  1  0
 27 22  1  0
  3 29  1  0
  4 30  1  0
  4 31  1  0
  8 32  1  0
  8 33  1  0
  9 34  1  6
 10 35  1  0
 11 36  1  0
 11 37  1  0
 12 38  1  6
 14 39  1  0
 15 40  1  0
 16 41  1  0
 17 42  1  0
 18 43  1  0
 20 44  1  0
 21 45  1  0
 23 46  1  0
 24 47  1  0
 25 48  1  0
 26 49  1  0
M  END
>  <smiles>  (41) 
O=C(NCC(=O)N1C[C@H](O)C[C@@H]1c1ccccc1)c1ccc2ccccc2n1

>  <score_type>  (41) 
oracle

>  <origin>  (41) 
autodockgpu

>  <m_score__min__energy>  (41) 
-9.3699999999999992

>  <m_primary>  (41) 
energy

>  <rmsd>  (41) 
1.9490930120798464

>  <m_score__min__rmsd>  (41) 
1.9490930120798464

>  <meeko>  (41) 
{"free_energy": -9.0, "intermolecular_energy": -10.79, "internal_energy": -1.25, "cluster_size": 28, "cluster_id": 1, "rank_in_cluster": 13}

>  <energy>  (41) 
-8.9

>  <cluster_rmsd>  (41) 
1.04

>  <cluster>  (41) 
2

$$$$

     RDKit          3D

 49 52  0  0  0  0  0  0  0  0999 V2000
  136.4950   77.3440  222.7520 O   0  0  0  0  0  0  0  0  0  0  0  0
  136.7730   76.1930  223.1340 C   0  0  0  0  0  0  0  0  0  0  0  0
  138.0350   75.6390  222.7430 N   0  0  0  0  0  0  0  0  0  0  0  0
  138.8930   76.4500  221.9370 C   0  0  0  0  0  0  0  0  0  0  0  0
  140.1710   75.7470  221.5930 C   0  0  0  0  0  0  0  0  0  0  0  0
  140.4390   74.5910  222.0090 O   0  0  0  0  0  0  0  0  0  0  0  0
  141.1160   76.4150  220.7620 N   0  0  0  0  0  0  0  0  0  0  0  0
  142.2060   75.7180  220.1080 C   0  0  0  0  0  0  0  0  0  0  0  0
  142.4470   76.5510  218.8870 C   0  0  2  0  0  0  0  0  0  0  0  0
  143.7350   76.4030  218.3840 O   0  0  0  0  0  0  0  0  0  0  0  0
  142.1310   77.9470  219.3100 C   0  0  0  0  0  0  0  0  0  0  0  0
  141.1480   77.8300  220.4450 C   0  0  2  0  0  0  0  0  0  0  0  0
  141.5330   78.6700  221.6290 C   0  0  0  0  0  0  0  0  0  0  0  0
  141.9870   79.9650  221.4940 C   0  0  0  0  0  0  0  0  0  0  0  0
  142.3440   80.7530  222.5600 C   0  0  0  0  0  0  0  0  0  0  0  0
  142.2460   80.2280  223.8450 C   0  0  0  0  0  0  0  0  0  0  0  0
  141.7950   78.9350  224.0120 C   0  0  0  0  0  0  0  0  0  0  0  0
  141.4430   78.1670  222.9100 C   0  0  0  0  0  0  0  0  0  0  0  0
  135.8570   75.3980  223.9620 C   0  0  0  0  0  0  0  0  0  0  0  0
  135.7940   74.0400  223.7400 C   0  0  0  0  0  0  0  0  0  0  0  0
  134.9500   73.2540  224.4920 C   0  0  0  0  0  0  0  0  0  0  0  0
  134.1800   73.8600  225.4620 C   0  0  0  0  0  0  0  0  0  0  0  0
  133.3110   73.1340  226.2550 C   0  0  0  0  0  0  0  0  0  0  0  0
  132.5530   73.7610  227.2190 C   0  0  0  0  0  0  0  0  0  0  0  0
  132.6150   75.1200  227.4440 C   0  0  0  0  0  0  0  0  0  0  0  0
  133.4920   75.8580  226.6450 C   0  0  0  0  0  0  0  0  0  0  0  0
  134.2650   75.2390  225.6670 C   0  0  0  0  0  0  0  0  0  0  0  0
  135.0970   76.0000  224.9230 N   0  0  0  0  0  0  0  0  0  0  0  0
  138.3220   74.6700  223.0390 H   0  0  0  0  0  0  0  0  0  0  0  0
  138.3671   76.7064  221.0055 H   0  0  0  0  0  0  0  0  0  0  0  0
  139.1464   77.3524  222.5127 H   0  0  0  0  0  0  0  0  0  0  0  0
  143.0989   75.6880  220.7498 H   0  0  0  0  0  0  0  0  0  0  0  0
  141.9762   74.6668  219.8797 H   0  0  0  0  0  0  0  0  0  0  0  0
  141.8136   76.2390  218.0436 H   0  0  0  0  0  0  0  0  0  0  0  0
  144.2380   75.6500  218.7820 H   0  0  0  0  0  0  0  0  0  0  0  0
  143.0441   78.4590  219.6477 H   0  0  0  0  0  0  0  0  0  0  0  0
  141.7143   78.5333  218.4778 H   0  0  0  0  0  0  0  0  0  0  0  0
  140.1550   78.2091  220.1615 H   0  0  0  0  0  0  0  0  0  0  0  0
  142.0671   80.3878  220.4817 H   0  0  0  0  0  0  0  0  0  0  0  0
  142.7012   81.7812  222.4012 H   0  0  0  0  0  0  0  0  0  0  0  0
  142.5249   80.8370  224.7176 H   0  0  0  0  0  0  0  0  0  0  0  0
  141.7138   78.5102  225.0234 H   0  0  0  0  0  0  0  0  0  0  0  0
  141.0855   77.1378  223.0616 H   0  0  0  0  0  0  0  0  0  0  0  0
  136.4198   73.5822  222.9597 H   0  0  0  0  0  0  0  0  0  0  0  0
  134.8914   72.1686  224.3230 H   0  0  0  0  0  0  0  0  0  0  0  0
  133.2242   72.0464  226.1149 H   0  0  0  0  0  0  0  0  0  0  0  0
  131.8716   73.1540  227.8333 H   0  0  0  0  0  0  0  0  0  0  0  0
  132.0008   75.6021  228.2188 H   0  0  0  0  0  0  0  0  0  0  0  0
  133.5728   76.9452  226.7912 H   0  0  0  0  0  0  0  0  0  0  0  0
  1  2  2  0
  2  3  1  0
  3  4  1  0
  4  5  1  0
  5  6  2  0
  5  7  1  0
  7  8  1  0
  8  9  1  0
  9 10  1  0
  9 11  1  0
 11 12  1  0
 12 13  1  0
 13 14  2  0
 14 15  1  0
 15 16  2  0
 16 17  1  0
 17 18  2  0
  2 19  1  0
 19 20  2  0
 20 21  1  0
 21 22  2  0
 22 23  1  0
 23 24  2  0
 24 25  1  0
 25 26  2  0
 26 27  1  0
 27 28  2  0
 12  7  1  0
 18 13  1  0
 28 19  1  0
 27 22  1  0
  3 29  1  0
  4 30  1  0
  4 31  1  0
  8 32  1  0
  8 33  1  0
  9 34  1  6
 10 35  1  0
 11 36  1  0
 11 37  1  0
 12 38  1  6
 14 39  1  0
 15 40  1  0
 16 41  1  0
 17 42  1  0
 18 43  1  0
 20 44  1  0
 21 45  1  0
 23 46  1  0
 24 47  1  0
 25 48  1  0
 26 49  1  0
M  END
>  <smiles>  (42) 
O=C(NCC(=O)N1C[C@H](O)C[C@@H]1c1ccccc1)c1ccc2ccccc2n1

>  <score_type>  (42) 
oracle

>  <origin>  (42) 
autodockgpu

>  <m_score__min__energy>  (42) 
-9.3699999999999992

>  <m_primary>  (42) 
energy

>  <rmsd>  (42) 
5.555853441164051

>  <m_score__min__rmsd>  (42) 
5.555853441164051

>  <meeko>  (42) 
{"free_energy": -8.06, "intermolecular_energy": -9.85, "internal_energy": -1.45, "cluster_size": 1, "cluster_id": 6, "rank_in_cluster": 1}

>  <energy>  (42) 
-8.8

>  <cluster_rmsd>  (42) 
1.0

>  <cluster>  (42) 
2

$$$$

     RDKit          3D

 49 52  0  0  0  0  0  0  0  0999 V2000
  141.4020   72.0280  221.6240 O   0  0  0  0  0  0  0  0  0  0  0  0
  140.4780   72.2710  222.4230 C   0  0  0  0  0  0  0  0  0  0  0  0
  139.6130   73.3770  222.1360 N   0  0  0  0  0  0  0  0  0  0  0  0
  139.8690   74.1280  220.9470 C   0  0  0  0  0  0  0  0  0  0  0  0
  140.8880   75.2040  221.1710 C   0  0  0  0  0  0  0  0  0  0  0  0
  141.0990   75.7100  222.3020 O   0  0  0  0  0  0  0  0  0  0  0  0
  141.6470   75.6680  220.0580 N   0  0  0  0  0  0  0  0  0  0  0  0
  141.0360   75.9990  218.7840 C   0  0  0  0  0  0  0  0  0  0  0  0
  141.9630   77.0380  218.2330 C   0  0  2  0  0  0  0  0  0  0  0  0
  141.8970   77.1330  216.8480 O   0  0  0  0  0  0  0  0  0  0  0  0
  143.3140   76.6510  218.7380 C   0  0  0  0  0  0  0  0  0  0  0  0
  143.0810   75.8770  220.0090 C   0  0  2  0  0  0  0  0  0  0  0  0
  143.8460   74.5860  220.0450 C   0  0  0  0  0  0  0  0  0  0  0  0
  143.3160   73.4050  219.5680 C   0  0  0  0  0  0  0  0  0  0  0  0
  143.9960   72.2130  219.5880 C   0  0  0  0  0  0  0  0  0  0  0  0
  145.2840   72.1830  220.1140 C   0  0  0  0  0  0  0  0  0  0  0  0
  145.8400   73.3480  220.6000 C   0  0  0  0  0  0  0  0  0  0  0  0
  145.1230   74.5370  220.5630 C   0  0  0  0  0  0  0  0  0  0  0  0
  140.2550   71.4690  223.6330 C   0  0  0  0  0  0  0  0  0  0  0  0
  139.5580   70.2880  223.5080 C   0  0  0  0  0  0  0  0  0  0  0  0
  139.3240   69.5020  224.6150 C   0  0  0  0  0  0  0  0  0  0  0  0
  139.8040   69.9290  225.8350 C   0  0  0  0  0  0  0  0  0  0  0  0
  139.6080   69.1930  226.9880 C   0  0  0  0  0  0  0  0  0  0  0  0
  140.0970   69.6390  228.1960 C   0  0  0  0  0  0  0  0  0  0  0  0
  140.7950   70.8200  228.3230 C   0  0  0  0  0  0  0  0  0  0  0  0
  140.9970   71.5690  227.1600 C   0  0  0  0  0  0  0  0  0  0  0  0
  140.5080   71.1310  225.9310 C   0  0  0  0  0  0  0  0  0  0  0  0
  140.7310   71.8930  224.8390 N   0  0  0  0  0  0  0  0  0  0  0  0
  138.8160   73.6270  222.7770 H   0  0  0  0  0  0  0  0  0  0  0  0
  140.2392   73.4449  220.1683 H   0  0  0  0  0  0  0  0  0  0  0  0
  138.9287   74.6092  220.6400 H   0  0  0  0  0  0  0  0  0  0  0  0
  140.9905   75.1190  218.1256 H   0  0  0  0  0  0  0  0  0  0  0  0
  139.9965   76.3469  218.8762 H   0  0  0  0  0  0  0  0  0  0  0  0
  141.6904   78.0505  218.5654 H   0  0  0  0  0  0  0  0  0  0  0  0
  142.5280   77.7870  216.4590 H   0  0  0  0  0  0  0  0  0  0  0  0
  143.8321   76.0228  217.9984 H   0  0  0  0  0  0  0  0  0  0  0  0
  143.9439   77.5350  218.9165 H   0  0  0  0  0  0  0  0  0  0  0  0
  143.4448   76.4264  220.8898 H   0  0  0  0  0  0  0  0  0  0  0  0
  142.2982   73.4194  219.1510 H   0  0  0  0  0  0  0  0  0  0  0  0
  143.5308   71.2970  219.1949 H   0  0  0  0  0  0  0  0  0  0  0  0
  145.8520   71.2414  220.1419 H   0  0  0  0  0  0  0  0  0  0  0  0
  146.8569   73.3354  221.0192 H   0  0  0  0  0  0  0  0  0  0  0  0
  145.5824   75.4567  220.9542 H   0  0  0  0  0  0  0  0  0  0  0  0
  139.1872   69.9714  222.5220 H   0  0  0  0  0  0  0  0  0  0  0  0
  138.7679   68.5570  224.5277 H   0  0  0  0  0  0  0  0  0  0  0  0
  139.0565   68.2424  226.9407 H   0  0  0  0  0  0  0  0  0  0  0  0
  139.9234   69.0284  229.0944 H   0  0  0  0  0  0  0  0  0  0  0  0
  141.1768   71.1589  229.2973 H   0  0  0  0  0  0  0  0  0  0  0  0
  141.5501   72.5182  227.2160 H   0  0  0  0  0  0  0  0  0  0  0  0
  1  2  2  0
  2  3  1  0
  3  4  1  0
  4  5  1  0
  5  6  2  0
  5  7  1  0
  7  8  1  0
  8  9  1  0
  9 10  1  0
  9 11  1  0
 11 12  1  0
 12 13  1  0
 13 14  2  0
 14 15  1  0
 15 16  2  0
 16 17  1  0
 17 18  2  0
  2 19  1  0
 19 20  2  0
 20 21  1  0
 21 22  2  0
 22 23  1  0
 23 24  2  0
 24 25  1  0
 25 26  2  0
 26 27  1  0
 27 28  2  0
 12  7  1  0
 18 13  1  0
 28 19  1  0
 27 22  1  0
  3 29  1  0
  4 30  1  0
  4 31  1  0
  8 32  1  0
  8 33  1  0
  9 34  1  1
 10 35  1  0
 11 36  1  0
 11 37  1  0
 12 38  1  1
 14 39  1  0
 15 40  1  0
 16 41  1  0
 17 42  1  0
 18 43  1  0
 20 44  1  0
 21 45  1  0
 23 46  1  0
 24 47  1  0
 25 48  1  0
 26 49  1  0
M  END
>  <smiles>  (43) 
O=C(NCC(=O)N1C[C@H](O)C[C@@H]1c1ccccc1)c1ccc2ccccc2n1

>  <score_type>  (43) 
oracle

>  <origin>  (43) 
autodockgpu

>  <m_score__min__energy>  (43) 
-9.3699999999999992

>  <m_primary>  (43) 
energy

>  <rmsd>  (43) 
1.9089170754340297

>  <m_score__min__rmsd>  (43) 
1.9089170754340297

>  <meeko>  (43) 
{"free_energy": -8.27, "intermolecular_energy": -10.06, "internal_energy": -1.57, "cluster_size": 1, "cluster_id": 4, "rank_in_cluster": 1}

>  <energy>  (43) 
-8.65

>  <cluster_rmsd>  (43) 
1.01

>  <cluster>  (43) 
2

$$$$

     RDKit          3D

 49 52  0  0  0  0  0  0  0  0999 V2000
  139.8480   71.4740  221.3600 O   0  0  0  0  0  0  0  0  0  0  0  0
  139.7410   72.0220  222.4720 C   0  0  0  0  0  0  0  0  0  0  0  0
  139.4850   73.4320  222.5060 N   0  0  0  0  0  0  0  0  0  0  0  0
  139.3680   74.1150  221.2560 C   0  0  0  0  0  0  0  0  0  0  0  0
  139.7590   75.5570  221.3650 C   0  0  0  0  0  0  0  0  0  0  0  0
  139.0550   76.4040  221.9730 O   0  0  0  0  0  0  0  0  0  0  0  0
  140.9740   75.9840  220.7570 N   0  0  0  0  0  0  0  0  0  0  0  0
  142.0750   75.0760  220.4980 C   0  0  0  0  0  0  0  0  0  0  0  0
  142.7430   75.6950  219.3100 C   0  0  2  0  0  0  0  0  0  0  0  0
  144.0770   75.3250  219.1930 O   0  0  0  0  0  0  0  0  0  0  0  0
  142.5460   77.1650  219.4840 C   0  0  0  0  0  0  0  0  0  0  0  0
  141.3010   77.3270  220.3150 C   0  0  2  0  0  0  0  0  0  0  0  0
  141.4960   78.2720  221.4660 C   0  0  0  0  0  0  0  0  0  0  0  0
  141.3890   77.8630  222.7790 C   0  0  0  0  0  0  0  0  0  0  0  0
  141.5640   78.7070  223.8470 C   0  0  0  0  0  0  0  0  0  0  0  0
  141.8650   80.0440  223.6040 C   0  0  0  0  0  0  0  0  0  0  0  0
  141.9770   80.4830  222.3010 C   0  0  0  0  0  0  0  0  0  0  0  0
  141.7940   79.6000  221.2440 C   0  0  0  0  0  0  0  0  0  0  0  0
  139.8680   71.2770  223.7310 C   0  0  0  0  0  0  0  0  0  0  0  0
  139.4960   69.9510  223.7400 C   0  0  0  0  0  0  0  0  0  0  0  0
  139.5980   69.2110  224.8970 C   0  0  0  0  0  0  0  0  0  0  0  0
  140.0790   69.8310  226.0320 C   0  0  0  0  0  0  0  0  0  0  0  0
  140.2090   69.1510  227.2280 C   0  0  0  0  0  0  0  0  0  0  0  0
  140.6920   69.7920  228.3480 C   0  0  0  0  0  0  0  0  0  0  0  0
  141.0660   71.1180  228.3410 C   0  0  0  0  0  0  0  0  0  0  0  0
  140.9360   71.8100  227.1330 C   0  0  0  0  0  0  0  0  0  0  0  0
  140.4500   71.1770  225.9920 C   0  0  0  0  0  0  0  0  0  0  0  0
  140.3450   71.8920  224.8520 N   0  0  0  0  0  0  0  0  0  0  0  0
  139.3840   73.9460  223.4200 H   0  0  0  0  0  0  0  0  0  0  0  0
  140.0226   73.6243  220.5207 H   0  0  0  0  0  0  0  0  0  0  0  0
  138.3144   74.0716  220.9427 H   0  0  0  0  0  0  0  0  0  0  0  0
  142.7598   75.0283  221.3575 H   0  0  0  0  0  0  0  0  0  0  0  0
  141.7525   74.0387  220.3249 H   0  0  0  0  0  0  0  0  0  0  0  0
  142.3051   75.3459  218.3632 H   0  0  0  0  0  0  0  0  0  0  0  0
  144.4790   75.5390  218.3140 H   0  0  0  0  0  0  0  0  0  0  0  0
  143.4101   77.6068  220.0018 H   0  0  0  0  0  0  0  0  0  0  0  0
  142.4490   77.6739  218.5136 H   0  0  0  0  0  0  0  0  0  0  0  0
  140.4830   77.7787  219.7346 H   0  0  0  0  0  0  0  0  0  0  0  0
  141.1516   76.8079  222.9801 H   0  0  0  0  0  0  0  0  0  0  0  0
  141.4680   78.3333  224.8771 H   0  0  0  0  0  0  0  0  0  0  0  0
  142.0119   80.7424  224.4411 H   0  0  0  0  0  0  0  0  0  0  0  0
  142.2125   81.5381  222.0977 H   0  0  0  0  0  0  0  0  0  0  0  0
  141.8886   79.9669  220.2113 H   0  0  0  0  0  0  0  0  0  0  0  0
  139.1163   69.4816  222.8205 H   0  0  0  0  0  0  0  0  0  0  0  0
  139.3032   68.1514  224.9159 H   0  0  0  0  0  0  0  0  0  0  0  0
  139.9247   68.0900  227.2863 H   0  0  0  0  0  0  0  0  0  0  0  0
  140.7826   69.2225  229.2848 H   0  0  0  0  0  0  0  0  0  0  0  0
  141.4501   71.6108  229.2463 H   0  0  0  0  0  0  0  0  0  0  0  0
  141.2221   72.8710  227.0833 H   0  0  0  0  0  0  0  0  0  0  0  0
  1  2  2  0
  2  3  1  0
  3  4  1  0
  4  5  1  0
  5  6  2  0
  5  7  1  0
  7  8  1  0
  8  9  1  0
  9 10  1  0
  9 11  1  0
 11 12  1  0
 12 13  1  0
 13 14  2  0
 14 15  1  0
 15 16  2  0
 16 17  1  0
 17 18  2  0
  2 19  1  0
 19 20  2  0
 20 21  1  0
 21 22  2  0
 22 23  1  0
 23 24  2  0
 24 25  1  0
 25 26  2  0
 26 27  1  0
 27 28  2  0
 12  7  1  0
 18 13  1  0
 28 19  1  0
 27 22  1  0
  3 29  1  0
  4 30  1  0
  4 31  1  0
  8 32  1  0
  8 33  1  0
  9 34  1  6
 10 35  1  0
 11 36  1  0
 11 37  1  0
 12 38  1  6
 14 39  1  0
 15 40  1  0
 16 41  1  0
 17 42  1  0
 18 43  1  0
 20 44  1  0
 21 45  1  0
 23 46  1  0
 24 47  1  0
 25 48  1  0
 26 49  1  0
M  END
>  <smiles>  (44) 
O=C(NCC(=O)N1C[C@H](O)C[C@@H]1c1ccccc1)c1ccc2ccccc2n1

>  <score_type>  (44) 
oracle

>  <origin>  (44) 
autodockgpu

>  <m_score__min__energy>  (44) 
-9.3699999999999992

>  <m_primary>  (44) 
energy

>  <rmsd>  (44) 
1.8572119257563438

>  <m_score__min__rmsd>  (44) 
1.8572119257563438

>  <meeko>  (44) 
{"free_energy": -9.02, "intermolecular_energy": -10.81, "internal_energy": -1.34, "cluster_size": 28, "cluster_id": 1, "rank_in_cluster": 12}

>  <energy>  (44) 
-8.57

>  <cluster_rmsd>  (44) 
0.59

>  <cluster>  (44) 
2

$$$$

     RDKit          3D

 49 52  0  0  0  0  0  0  0  0999 V2000
  139.9450   73.5080  222.4570 O   0  0  0  0  0  0  0  0  0  0  0  0
  140.1750   72.2870  222.3970 C   0  0  0  0  0  0  0  0  0  0  0  0
  140.4700   71.7190  221.1140 N   0  0  0  0  0  0  0  0  0  0  0  0
  140.4800   72.5970  219.9870 C   0  0  0  0  0  0  0  0  0  0  0  0
  141.7830   72.5500  219.2490 C   0  0  0  0  0  0  0  0  0  0  0  0
  141.8960   72.0290  218.1100 O   0  0  0  0  0  0  0  0  0  0  0  0
  142.9370   73.1170  219.8630 N   0  0  0  0  0  0  0  0  0  0  0  0
  143.7280   72.4000  220.8440 C   0  0  0  0  0  0  0  0  0  0  0  0
  145.0930   72.9890  220.6650 C   0  0  2  0  0  0  0  0  0  0  0  0
  145.8870   72.8560  221.7980 O   0  0  0  0  0  0  0  0  0  0  0  0
  144.8470   74.4090  220.2750 C   0  0  0  0  0  0  0  0  0  0  0  0
  143.4890   74.4370  219.6240 C   0  0  2  0  0  0  0  0  0  0  0  0
  142.6120   75.5270  220.1680 C   0  0  0  0  0  0  0  0  0  0  0  0
  141.7520   75.3170  221.2260 C   0  0  0  0  0  0  0  0  0  0  0  0
  140.9420   76.2980  221.7430 C   0  0  0  0  0  0  0  0  0  0  0  0
  140.9820   77.5690  221.1790 C   0  0  0  0  0  0  0  0  0  0  0  0
  141.8320   77.8090  220.1190 C   0  0  0  0  0  0  0  0  0  0  0  0
  142.6380   76.7930  219.6220 C   0  0  0  0  0  0  0  0  0  0  0  0
  140.1530   71.4240  223.5850 C   0  0  0  0  0  0  0  0  0  0  0  0
  139.6260   70.1580  223.4580 C   0  0  0  0  0  0  0  0  0  0  0  0
  139.5840   69.3130  224.5450 C   0  0  0  0  0  0  0  0  0  0  0  0
  140.0800   69.7680  225.7480 C   0  0  0  0  0  0  0  0  0  0  0  0
  140.0720   68.9750  226.8810 C   0  0  0  0  0  0  0  0  0  0  0  0
  140.5740   69.4510  228.0720 C   0  0  0  0  0  0  0  0  0  0  0  0
  141.1030   70.7170  228.2010 C   0  0  0  0  0  0  0  0  0  0  0  0
  141.1140   71.5220  227.0590 C   0  0  0  0  0  0  0  0  0  0  0  0
  140.6100   71.0560  225.8470 C   0  0  0  0  0  0  0  0  0  0  0  0
  140.6450   71.8760  224.7740 N   0  0  0  0  0  0  0  0  0  0  0  0
  140.6730   70.6910  221.0060 H   0  0  0  0  0  0  0  0  0  0  0  0
  139.6725   72.3026  219.3005 H   0  0  0  0  0  0  0  0  0  0  0  0
  140.3355   73.6234  220.3553 H   0  0  0  0  0  0  0  0  0  0  0  0
  143.3510   72.5762  221.8622 H   0  0  0  0  0  0  0  0  0  0  0  0
  143.7038   71.3086  220.7091 H   0  0  0  0  0  0  0  0  0  0  0  0
  145.6716   72.4597  219.8935 H   0  0  0  0  0  0  0  0  0  0  0  0
  146.2570   71.9480  221.9260 H   0  0  0  0  0  0  0  0  0  0  0  0
  144.8568   75.0559  221.1646 H   0  0  0  0  0  0  0  0  0  0  0  0
  145.6265   74.7778  219.5921 H   0  0  0  0  0  0  0  0  0  0  0  0
  143.5598   74.6636  218.5499 H   0  0  0  0  0  0  0  0  0  0  0  0
  141.7132   74.3147  221.6776 H   0  0  0  0  0  0  0  0  0  0  0  0
  140.2728   76.0824  222.5889 H   0  0  0  0  0  0  0  0  0  0  0  0
  140.3435   78.3732  221.5734 H   0  0  0  0  0  0  0  0  0  0  0  0
  141.8715   78.8102  219.6652 H   0  0  0  0  0  0  0  0  0  0  0  0
  143.3100   77.0022  218.7766 H   0  0  0  0  0  0  0  0  0  0  0  0
  139.2375   69.8206  222.4857 H   0  0  0  0  0  0  0  0  0  0  0  0
  139.1649   68.2999  224.4553 H   0  0  0  0  0  0  0  0  0  0  0  0
  139.6614   67.9558  226.8306 H   0  0  0  0  0  0  0  0  0  0  0  0
  140.5518   68.7950  228.9547 H   0  0  0  0  0  0  0  0  0  0  0  0
  141.4994   71.0781  229.1614 H   0  0  0  0  0  0  0  0  0  0  0  0
  141.5272   72.5397  227.1180 H   0  0  0  0  0  0  0  0  0  0  0  0
  1  2  2  0
  2  3  1  0
  3  4  1  0
  4  5  1  0
  5  6  2  0
  5  7  1  0
  7  8  1  0
  8  9  1  0
  9 10  1  0
  9 11  1  0
 11 12  1  0
 12 13  1  0
 13 14  2  0
 14 15  1  0
 15 16  2  0
 16 17  1  0
 17 18  2  0
  2 19  1  0
 19 20  2  0
 20 21  1  0
 21 22  2  0
 22 23  1  0
 23 24  2  0
 24 25  1  0
 25 26  2  0
 26 27  1  0
 27 28  2  0
 12  7  1  0
 18 13  1  0
 28 19  1  0
 27 22  1  0
  3 29  1  0
  4 30  1  0
  4 31  1  0
  8 32  1  0
  8 33  1  0
  9 34  1  6
 10 35  1  0
 11 36  1  0
 11 37  1  0
 12 38  1  6
 14 39  1  0
 15 40  1  0
 16 41  1  0
 17 42  1  0
 18 43  1  0
 20 44  1  0
 21 45  1  0
 23 46  1  0
 24 47  1  0
 25 48  1  0
 26 49  1  0
M  END
>  <smiles>  (45) 
O=C(NCC(=O)N1C[C@H](O)C[C@@H]1c1ccccc1)c1ccc2ccccc2n1

>  <score_type>  (45) 
oracle

>  <origin>  (45) 
autodockgpu

>  <m_score__min__energy>  (45) 
-9.3699999999999992

>  <m_primary>  (45) 
energy

>  <rmsd>  (45) 
3.5051754779275948

>  <m_score__min__rmsd>  (45) 
3.5051754779275948

>  <meeko>  (45) 
{"free_energy": -8.3, "intermolecular_energy": -10.09, "internal_energy": -1.51, "cluster_size": 1, "cluster_id": 3, "rank_in_cluster": 1}

>  <energy>  (45) 
-8.46

>  <cluster_rmsd>  (45) 
0.83

>  <cluster>  (45) 
2

$$$$

     RDKit          3D

 49 52  0  0  0  0  0  0  0  0999 V2000
  140.9580   74.4240  221.3490 O   0  0  0  0  0  0  0  0  0  0  0  0
  139.9950   74.9170  221.9650 C   0  0  0  0  0  0  0  0  0  0  0  0
  138.8990   74.0560  222.3020 N   0  0  0  0  0  0  0  0  0  0  0  0
  138.9880   72.6850  221.9060 C   0  0  0  0  0  0  0  0  0  0  0  0
  139.7360   71.8590  222.9070 C   0  0  0  0  0  0  0  0  0  0  0  0
  140.9660   72.0090  223.1230 O   0  0  0  0  0  0  0  0  0  0  0  0
  139.0260   70.8660  223.6420 N   0  0  0  0  0  0  0  0  0  0  0  0
  137.5890   70.6980  223.5340 C   0  0  0  0  0  0  0  0  0  0  0  0
  137.4020   69.2440  223.8360 C   0  0  2  0  0  0  0  0  0  0  0  0
  136.1230   68.9540  224.2980 O   0  0  0  0  0  0  0  0  0  0  0  0
  138.4770   68.9170  224.8190 C   0  0  0  0  0  0  0  0  0  0  0  0
  139.5860   69.9060  224.5720 C   0  0  2  0  0  0  0  0  0  0  0  0
  140.0700   70.5550  225.8370 C   0  0  0  0  0  0  0  0  0  0  0  0
  139.6490   70.1390  227.0830 C   0  0  0  0  0  0  0  0  0  0  0  0
  140.0780   70.7150  228.2530 C   0  0  0  0  0  0  0  0  0  0  0  0
  140.9820   71.7710  228.1900 C   0  0  0  0  0  0  0  0  0  0  0  0
  141.4200   72.2100  226.9570 C   0  0  0  0  0  0  0  0  0  0  0  0
  140.9650   71.6030  225.7940 C   0  0  0  0  0  0  0  0  0  0  0  0
  139.9500   76.3330  222.3510 C   0  0  0  0  0  0  0  0  0  0  0  0
  138.7200   76.9490  222.4140 C   0  0  0  0  0  0  0  0  0  0  0  0
  138.6280   78.2760  222.7710 C   0  0  0  0  0  0  0  0  0  0  0  0
  139.7910   78.9590  223.0600 C   0  0  0  0  0  0  0  0  0  0  0  0
  139.7760   80.2920  223.4260 C   0  0  0  0  0  0  0  0  0  0  0  0
  140.9500   80.9530  223.7110 C   0  0  0  0  0  0  0  0  0  0  0  0
  142.1820   80.3380  223.6490 C   0  0  0  0  0  0  0  0  0  0  0  0
  142.2030   78.9900  223.2800 C   0  0  0  0  0  0  0  0  0  0  0  0
  141.0240   78.3080  222.9890 C   0  0  0  0  0  0  0  0  0  0  0  0
  141.1010   77.0060  222.6370 N   0  0  0  0  0  0  0  0  0  0  0  0
  138.0590   74.4190  222.8230 H   0  0  0  0  0  0  0  0  0  0  0  0
  137.9711   72.2793  221.7998 H   0  0  0  0  0  0  0  0  0  0  0  0
  139.5354   72.6416  220.9529 H   0  0  0  0  0  0  0  0  0  0  0  0
  137.0604   71.3260  224.2662 H   0  0  0  0  0  0  0  0  0  0  0  0
  137.1882   70.9944  222.5534 H   0  0  0  0  0  0  0  0  0  0  0  0
  137.4876   68.6216  222.9331 H   0  0  0  0  0  0  0  0  0  0  0  0
  135.4910   69.7120  224.2360 H   0  0  0  0  0  0  0  0  0  0  0  0
  138.0978   69.0178  225.8466 H   0  0  0  0  0  0  0  0  0  0  0  0
  138.8287   67.8816  224.6993 H   0  0  0  0  0  0  0  0  0  0  0  0
  140.4821   69.4156  224.1639 H   0  0  0  0  0  0  0  0  0  0  0  0
  138.9344   69.3048  227.1420 H   0  0  0  0  0  0  0  0  0  0  0  0
  139.7133   70.3480  229.2237 H   0  0  0  0  0  0  0  0  0  0  0  0
  141.3432   72.2502  229.1119 H   0  0  0  0  0  0  0  0  0  0  0  0
  142.1333   73.0451  226.8953 H   0  0  0  0  0  0  0  0  0  0  0  0
  141.3254   71.9651  224.8198 H   0  0  0  0  0  0  0  0  0  0  0  0
  137.8087   76.3798  222.1786 H   0  0  0  0  0  0  0  0  0  0  0  0
  137.6511   78.7788  222.8243 H   0  0  0  0  0  0  0  0  0  0  0  0
  138.8182   80.8292  223.4901 H   0  0  0  0  0  0  0  0  0  0  0  0
  140.9027   82.0135  223.9995 H   0  0  0  0  0  0  0  0  0  0  0  0
  143.1084   80.8843  223.8799 H   0  0  0  0  0  0  0  0  0  0  0  0
  143.1649   78.4599  223.2185 H   0  0  0  0  0  0  0  0  0  0  0  0
  1  2  2  0
  2  3  1  0
  3  4  1  0
  4  5  1  0
  5  6  2  0
  5  7  1  0
  7  8  1  0
  8  9  1  0
  9 10  1  0
  9 11  1  0
 11 12  1  0
 12 13  1  0
 13 14  2  0
 14 15  1  0
 15 16  2  0
 16 17  1  0
 17 18  2  0
  2 19  1  0
 19 20  2  0
 20 21  1  0
 21 22  2  0
 22 23  1  0
 23 24  2  0
 24 25  1  0
 25 26  2  0
 26 27  1  0
 27 28  2  0
 12  7  1  0
 18 13  1  0
 28 19  1  0
 27 22  1  0
  3 29  1  0
  4 30  1  0
  4 31  1  0
  8 32  1  0
  8 33  1  0
  9 34  1  6
 10 35  1  0
 11 36  1  0
 11 37  1  0
 12 38  1  6
 14 39  1  0
 15 40  1  0
 16 41  1  0
 17 42  1  0
 18 43  1  0
 20 44  1  0
 21 45  1  0
 23 46  1  0
 24 47  1  0
 25 48  1  0
 26 49  1  0
M  END
>  <smiles>  (46) 
O=C(NCC(=O)N1C[C@H](O)C[C@@H]1c1ccccc1)c1ccc2ccccc2n1

>  <score_type>  (46) 
oracle

>  <origin>  (46) 
autodockgpu

>  <m_score__min__energy>  (46) 
-9.3699999999999992

>  <m_primary>  (46) 
energy

>  <rmsd>  (46) 
8.289010737708274

>  <m_score__min__rmsd>  (46) 
8.289010737708274

>  <meeko>  (46) 
{"free_energy": -9.21, "intermolecular_energy": -11.0, "internal_energy": -1.03, "cluster_size": 18, "cluster_id": 2, "rank_in_cluster": 5}

>  <energy>  (46) 
-8.33

>  <cluster_rmsd>  (46) 
1.2

>  <cluster>  (46) 
2

$$$$

     RDKit          3D

 49 52  0  0  0  0  0  0  0  0999 V2000
  140.6720   73.9040  220.2800 O   0  0  0  0  0  0  0  0  0  0  0  0
  140.3610   74.6620  221.2170 C   0  0  0  0  0  0  0  0  0  0  0  0
  139.4940   74.1510  222.2370 N   0  0  0  0  0  0  0  0  0  0  0  0
  139.0440   72.8000  222.1090 C   0  0  0  0  0  0  0  0  0  0  0  0
  139.8230   71.8640  222.9820 C   0  0  0  0  0  0  0  0  0  0  0  0
  141.0730   71.9310  223.1000 O   0  0  0  0  0  0  0  0  0  0  0  0
  139.1180   70.8600  223.7060 N   0  0  0  0  0  0  0  0  0  0  0  0
  137.6820   70.6850  223.5970 C   0  0  0  0  0  0  0  0  0  0  0  0
  137.5030   69.2270  223.8840 C   0  0  2  0  0  0  0  0  0  0  0  0
  136.2260   68.9240  224.3420 O   0  0  0  0  0  0  0  0  0  0  0  0
  138.5800   68.8950  224.8630 C   0  0  0  0  0  0  0  0  0  0  0  0
  139.6840   69.8920  224.6270 C   0  0  2  0  0  0  0  0  0  0  0  0
  140.1640   70.5300  225.8980 C   0  0  0  0  0  0  0  0  0  0  0  0
  140.9980   71.6300  225.8980 C   0  0  0  0  0  0  0  0  0  0  0  0
  141.4490   72.2320  227.0460 C   0  0  0  0  0  0  0  0  0  0  0  0
  141.0530   71.7150  228.2760 C   0  0  0  0  0  0  0  0  0  0  0  0
  140.2200   70.6150  228.3080 C   0  0  0  0  0  0  0  0  0  0  0  0
  139.7830   70.0320  227.1260 C   0  0  0  0  0  0  0  0  0  0  0  0
  140.8500   76.0440  221.3050 C   0  0  0  0  0  0  0  0  0  0  0  0
  141.3270   76.6380  220.1580 C   0  0  0  0  0  0  0  0  0  0  0  0
  141.7960   77.9320  220.1910 C   0  0  0  0  0  0  0  0  0  0  0  0
  141.7710   78.6070  221.3940 C   0  0  0  0  0  0  0  0  0  0  0  0
  142.2240   79.9090  221.5030 C   0  0  0  0  0  0  0  0  0  0  0  0
  142.1900   80.5630  222.7150 C   0  0  0  0  0  0  0  0  0  0  0  0
  141.7120   79.9710  223.8640 C   0  0  0  0  0  0  0  0  0  0  0  0
  141.2520   78.6550  223.7590 C   0  0  0  0  0  0  0  0  0  0  0  0
  141.2800   77.9800  222.5410 C   0  0  0  0  0  0  0  0  0  0  0  0
  140.8240   76.7100  222.4960 N   0  0  0  0  0  0  0  0  0  0  0  0
  139.2000   74.7480  223.0530 H   0  0  0  0  0  0  0  0  0  0  0  0
  137.9826   72.7507  222.3936 H   0  0  0  0  0  0  0  0  0  0  0  0
  139.1903   72.4907  221.0636 H   0  0  0  0  0  0  0  0  0  0  0  0
  137.1504   71.3025  224.3360 H   0  0  0  0  0  0  0  0  0  0  0  0
  137.2791   70.9892  222.6197 H   0  0  0  0  0  0  0  0  0  0  0  0
  137.5920   68.6151  222.9743 H   0  0  0  0  0  0  0  0  0  0  0  0
  135.8450   69.6040  224.9520 H   0  0  0  0  0  0  0  0  0  0  0  0
  138.2005   68.9826  225.8917 H   0  0  0  0  0  0  0  0  0  0  0  0
  138.9370   67.8629  224.7316 H   0  0  0  0  0  0  0  0  0  0  0  0
  140.5829   69.4106  224.2143 H   0  0  0  0  0  0  0  0  0  0  0  0
  141.3168   72.0445  224.9302 H   0  0  0  0  0  0  0  0  0  0  0  0
  142.1121   73.1081  226.9948 H   0  0  0  0  0  0  0  0  0  0  0  0
  141.3999   72.1777  229.2117 H   0  0  0  0  0  0  0  0  0  0  0  0
  139.9008   70.1981  229.2746 H   0  0  0  0  0  0  0  0  0  0  0  0
  139.1198   69.1555  227.1702 H   0  0  0  0  0  0  0  0  0  0  0  0
  141.3333   76.0767  219.2120 H   0  0  0  0  0  0  0  0  0  0  0  0
  142.1810   78.4155  219.2811 H   0  0  0  0  0  0  0  0  0  0  0  0
  142.6147   80.4268  220.6146 H   0  0  0  0  0  0  0  0  0  0  0  0
  142.5587   81.5980  222.7677 H   0  0  0  0  0  0  0  0  0  0  0  0
  141.6932   80.5106  224.8224 H   0  0  0  0  0  0  0  0  0  0  0  0
  140.8619   78.1448  224.6521 H   0  0  0  0  0  0  0  0  0  0  0  0
  1  2  2  0
  2  3  1  0
  3  4  1  0
  4  5  1  0
  5  6  2  0
  5  7  1  0
  7  8  1  0
  8  9  1  0
  9 10  1  0
  9 11  1  0
 11 12  1  0
 12 13  1  0
 13 14  2  0
 14 15  1  0
 15 16  2  0
 16 17  1  0
 17 18  2  0
  2 19  1  0
 19 20  2  0
 20 21  1  0
 21 22  2  0
 22 23  1  0
 23 24  2  0
 24 25  1  0
 25 26  2  0
 26 27  1  0
 27 28  2  0
 12  7  1  0
 18 13  1  0
 28 19  1  0
 27 22  1  0
  3 29  1  0
  4 30  1  0
  4 31  1  0
  8 32  1  0
  8 33  1  0
  9 34  1  6
 10 35  1  0
 11 36  1  0
 11 37  1  0
 12 38  1  6
 14 39  1  0
 15 40  1  0
 16 41  1  0
 17 42  1  0
 18 43  1  0
 20 44  1  0
 21 45  1  0
 23 46  1  0
 24 47  1  0
 25 48  1  0
 26 49  1  0
M  END
>  <smiles>  (47) 
O=C(NCC(=O)N1C[C@H](O)C[C@@H]1c1ccccc1)c1ccc2ccccc2n1

>  <score_type>  (47) 
oracle

>  <origin>  (47) 
autodockgpu

>  <m_score__min__energy>  (47) 
-9.3699999999999992

>  <m_primary>  (47) 
energy

>  <rmsd>  (47) 
8.384752733934489

>  <m_score__min__rmsd>  (47) 
8.384752733934489

>  <meeko>  (47) 
{"free_energy": -8.99, "intermolecular_energy": -10.78, "internal_energy": -1.31, "cluster_size": 18, "cluster_id": 2, "rank_in_cluster": 12}

>  <energy>  (47) 
-8.3

>  <cluster_rmsd>  (47) 
0.0

>  <cluster>  (47) 
3

$$$$

     RDKit          3D

 49 52  0  0  0  0  0  0  0  0999 V2000
  138.0230   75.2460  221.9390 O   0  0  0  0  0  0  0  0  0  0  0  0
  139.2670   75.2560  221.9070 C   0  0  0  0  0  0  0  0  0  0  0  0
  139.9540   74.0020  222.0110 N   0  0  0  0  0  0  0  0  0  0  0  0
  139.1600   72.8210  222.1460 C   0  0  0  0  0  0  0  0  0  0  0  0
  139.8960   71.7280  222.8590 C   0  0  0  0  0  0  0  0  0  0  0  0
  141.1490   71.6260  222.8300 O   0  0  0  0  0  0  0  0  0  0  0  0
  139.1450   70.7680  223.5970 N   0  0  0  0  0  0  0  0  0  0  0  0
  137.7080   70.6310  223.4580 C   0  0  0  0  0  0  0  0  0  0  0  0
  137.4800   69.1880  223.7880 C   0  0  2  0  0  0  0  0  0  0  0  0
  136.1850   68.9370  224.2240 O   0  0  0  0  0  0  0  0  0  0  0  0
  138.5240   68.8590  224.8040 C   0  0  0  0  0  0  0  0  0  0  0  0
  139.6610   69.8160  224.5620 C   0  0  2  0  0  0  0  0  0  0  0  0
  140.1300   70.4830  225.8230 C   0  0  0  0  0  0  0  0  0  0  0  0
  140.9750   71.5730  225.8080 C   0  0  0  0  0  0  0  0  0  0  0  0
  141.4150   72.2000  226.9460 C   0  0  0  0  0  0  0  0  0  0  0  0
  140.9960   71.7200  228.1830 C   0  0  0  0  0  0  0  0  0  0  0  0
  140.1510   70.6300  228.2310 C   0  0  0  0  0  0  0  0  0  0  0  0
  139.7250   70.0210  227.0580 C   0  0  0  0  0  0  0  0  0  0  0  0
  140.0390   76.4970  221.7670 C   0  0  0  0  0  0  0  0  0  0  0  0
  140.2090   77.0170  220.5030 C   0  0  0  0  0  0  0  0  0  0  0  0
  140.9250   78.1790  220.3220 C   0  0  0  0  0  0  0  0  0  0  0  0
  141.4600   78.7990  221.4320 C   0  0  0  0  0  0  0  0  0  0  0  0
  142.1890   79.9680  221.3270 C   0  0  0  0  0  0  0  0  0  0  0  0
  142.7130   80.5690  222.4500 C   0  0  0  0  0  0  0  0  0  0  0  0
  142.5450   80.0520  223.7170 C   0  0  0  0  0  0  0  0  0  0  0  0
  141.8070   78.8690  223.8280 C   0  0  0  0  0  0  0  0  0  0  0  0
  141.2710   78.2490  222.7020 C   0  0  0  0  0  0  0  0  0  0  0  0
  140.5670   77.1090  222.8660 N   0  0  0  0  0  0  0  0  0  0  0  0
  141.0050   73.9530  221.9890 H   0  0  0  0  0  0  0  0  0  0  0  0
  138.2514   73.0671  222.7151 H   0  0  0  0  0  0  0  0  0  0  0  0
  138.9122   72.4611  221.1365 H   0  0  0  0  0  0  0  0  0  0  0  0
  137.1771   71.2876  224.1630 H   0  0  0  0  0  0  0  0  0  0  0  0
  137.3374   70.9142  222.4618 H   0  0  0  0  0  0  0  0  0  0  0  0
  137.5726   68.5435  222.9014 H   0  0  0  0  0  0  0  0  0  0  0  0
  135.4930   69.0720  223.5300 H   0  0  0  0  0  0  0  0  0  0  0  0
  138.1231   68.9920  225.8197 H   0  0  0  0  0  0  0  0  0  0  0  0
  138.8541   67.8134  224.7159 H   0  0  0  0  0  0  0  0  0  0  0  0
  140.5546   69.2957  224.1869 H   0  0  0  0  0  0  0  0  0  0  0  0
  141.3130   71.9588  224.8349 H   0  0  0  0  0  0  0  0  0  0  0  0
  142.0879   73.0678  226.8817 H   0  0  0  0  0  0  0  0  0  0  0  0
  141.3342   72.2035  229.1114 H   0  0  0  0  0  0  0  0  0  0  0  0
  139.8133   70.2417  229.2032 H   0  0  0  0  0  0  0  0  0  0  0  0
  139.0514   69.1532  227.1148 H   0  0  0  0  0  0  0  0  0  0  0  0
  139.7712   76.5021  219.6351 H   0  0  0  0  0  0  0  0  0  0  0  0
  141.0669   78.6026  219.3168 H   0  0  0  0  0  0  0  0  0  0  0  0
  142.3522   80.4223  220.3386 H   0  0  0  0  0  0  0  0  0  0  0  0
  143.2886   81.4988  222.3313 H   0  0  0  0  0  0  0  0  0  0  0  0
  142.9723   80.5477  224.6011 H   0  0  0  0  0  0  0  0  0  0  0  0
  141.6475   78.4214  224.8201 H   0  0  0  0  0  0  0  0  0  0  0  0
  1  2  2  0
  2  3  1  0
  3  4  1  0
  4  5  1  0
  5  6  2  0
  5  7  1  0
  7  8  1  0
  8  9  1  0
  9 10  1  0
  9 11  1  0
 11 12  1  0
 12 13  1  0
 13 14  2  0
 14 15  1  0
 15 16  2  0
 16 17  1  0
 17 18  2  0
  2 19  1  0
 19 20  2  0
 20 21  1  0
 21 22  2  0
 22 23  1  0
 23 24  2  0
 24 25  1  0
 25 26  2  0
 26 27  1  0
 27 28  2  0
 12  7  1  0
 18 13  1  0
 28 19  1  0
 27 22  1  0
  3 29  1  0
  4 30  1  0
  4 31  1  0
  8 32  1  0
  8 33  1  0
  9 34  1  6
 10 35  1  0
 11 36  1  0
 11 37  1  0
 12 38  1  6
 14 39  1  0
 15 40  1  0
 16 41  1  0
 17 42  1  0
 18 43  1  0
 20 44  1  0
 21 45  1  0
 23 46  1  0
 24 47  1  0
 25 48  1  0
 26 49  1  0
M  END
>  <smiles>  (48) 
O=C(NCC(=O)N1C[C@H](O)C[C@@H]1c1ccccc1)c1ccc2ccccc2n1

>  <score_type>  (48) 
oracle

>  <origin>  (48) 
autodockgpu

>  <m_score__min__energy>  (48) 
-9.3699999999999992

>  <m_primary>  (48) 
energy

>  <rmsd>  (48) 
8.464563676391194

>  <m_score__min__rmsd>  (48) 
8.464563676391194

>  <meeko>  (48) 
{"free_energy": -8.33, "intermolecular_energy": -10.12, "internal_energy": -1.4, "cluster_size": 18, "cluster_id": 2, "rank_in_cluster": 18}

>  <energy>  (48) 
-8.27

>  <cluster_rmsd>  (48) 
0.0

>  <cluster>  (48) 
4

$$$$

     RDKit          3D

 49 52  0  0  0  0  0  0  0  0999 V2000
  141.4470   72.1980  221.6090 O   0  0  0  0  0  0  0  0  0  0  0  0
  140.5780   72.4530  222.4620 C   0  0  0  0  0  0  0  0  0  0  0  0
  139.8340   73.6710  222.3250 N   0  0  0  0  0  0  0  0  0  0  0  0
  140.1430   74.5130  221.2130 C   0  0  0  0  0  0  0  0  0  0  0  0
  140.3290   75.9420  221.6240 C   0  0  0  0  0  0  0  0  0  0  0  0
  139.8930   76.3930  222.7140 O   0  0  0  0  0  0  0  0  0  0  0  0
  141.0270   76.8200  220.7470 N   0  0  0  0  0  0  0  0  0  0  0  0
  142.1880   76.3980  219.9850 C   0  0  0  0  0  0  0  0  0  0  0  0
  142.1330   77.2850  218.7800 C   0  0  2  0  0  0  0  0  0  0  0  0
  143.3750   77.4400  218.1740 O   0  0  0  0  0  0  0  0  0  0  0  0
  141.5500   78.5660  219.2760 C   0  0  0  0  0  0  0  0  0  0  0  0
  140.7160   78.2110  220.4780 C   0  0  2  0  0  0  0  0  0  0  0  0
  141.0010   79.0950  221.6580 C   0  0  0  0  0  0  0  0  0  0  0  0
  142.2870   79.3770  222.0710 C   0  0  0  0  0  0  0  0  0  0  0  0
  142.5730   80.1830  223.1440 C   0  0  0  0  0  0  0  0  0  0  0  0
  141.5210   80.7490  223.8580 C   0  0  0  0  0  0  0  0  0  0  0  0
  140.2240   80.4850  223.4690 C   0  0  0  0  0  0  0  0  0  0  0  0
  139.9720   79.6640  222.3780 C   0  0  0  0  0  0  0  0  0  0  0  0
  140.2970   71.5540  223.5890 C   0  0  0  0  0  0  0  0  0  0  0  0
  139.6320   70.3760  223.3300 C   0  0  0  0  0  0  0  0  0  0  0  0
  139.3460   69.5020  224.3550 C   0  0  0  0  0  0  0  0  0  0  0  0
  139.7430   69.8370  225.6320 C   0  0  0  0  0  0  0  0  0  0  0  0
  139.4920   69.0080  226.7090 C   0  0  0  0  0  0  0  0  0  0  0  0
  139.8980   69.3640  227.9760 C   0  0  0  0  0  0  0  0  0  0  0  0
  140.5650   70.5420  228.2390 C   0  0  0  0  0  0  0  0  0  0  0  0
  140.8210   71.3830  227.1520 C   0  0  0  0  0  0  0  0  0  0  0  0
  140.4170   71.0380  225.8660 C   0  0  0  0  0  0  0  0  0  0  0  0
  140.6910   71.8870  224.8520 N   0  0  0  0  0  0  0  0  0  0  0  0
  139.0870   73.9350  223.0180 H   0  0  0  0  0  0  0  0  0  0  0  0
  141.0713   74.1549  220.7439 H   0  0  0  0  0  0  0  0  0  0  0  0
  139.2985   74.4695  220.5095 H   0  0  0  0  0  0  0  0  0  0  0  0
  143.1155   76.5593  220.5539 H   0  0  0  0  0  0  0  0  0  0  0  0
  142.1812   75.3261  219.7379 H   0  0  0  0  0  0  0  0  0  0  0  0
  141.5164   76.8533  217.9779 H   0  0  0  0  0  0  0  0  0  0  0  0
  144.0650   77.8330  218.7640 H   0  0  0  0  0  0  0  0  0  0  0  0
  142.3508   79.2644  219.5605 H   0  0  0  0  0  0  0  0  0  0  0  0
  140.9452   79.0579  218.4999 H   0  0  0  0  0  0  0  0  0  0  0  0
  139.6437   78.3615  220.2846 H   0  0  0  0  0  0  0  0  0  0  0  0
  143.1245   78.9337  221.5123 H   0  0  0  0  0  0  0  0  0  0  0  0
  143.6157   80.3784  223.4348 H   0  0  0  0  0  0  0  0  0  0  0  0
  141.7213   81.3992  224.7224 H   0  0  0  0  0  0  0  0  0  0  0  0
  139.3850   80.9273  224.0261 H   0  0  0  0  0  0  0  0  0  0  0  0
  138.9316   79.4637  222.0825 H   0  0  0  0  0  0  0  0  0  0  0  0
  139.3284   70.1326  222.3011 H   0  0  0  0  0  0  0  0  0  0  0  0
  138.8137   68.5594  224.1596 H   0  0  0  0  0  0  0  0  0  0  0  0
  138.9636   68.0559  226.5529 H   0  0  0  0  0  0  0  0  0  0  0  0
  139.6816   68.6817  228.8112 H   0  0  0  0  0  0  0  0  0  0  0  0
  140.8814   70.8080  229.2584 H   0  0  0  0  0  0  0  0  0  0  0  0
  141.3505   72.3331  227.3161 H   0  0  0  0  0  0  0  0  0  0  0  0
  1  2  2  0
  2  3  1  0
  3  4  1  0
  4  5  1  0
  5  6  2  0
  5  7  1  0
  7  8  1  0
  8  9  1  0
  9 10  1  0
  9 11  1  0
 11 12  1  0
 12 13  1  0
 13 14  2  0
 14 15  1  0
 15 16  2  0
 16 17  1  0
 17 18  2  0
  2 19  1  0
 19 20  2  0
 20 21  1  0
 21 22  2  0
 22 23  1  0
 23 24  2  0
 24 25  1  0
 25 26  2  0
 26 27  1  0
 27 28  2  0
 12  7  1  0
 18 13  1  0
 28 19  1  0
 27 22  1  0
  3 29  1  0
  4 30  1  0
  4 31  1  0
  8 32  1  0
  8 33  1  0
  9 34  1  6
 10 35  1  0
 11 36  1  0
 11 37  1  0
 12 38  1  6
 14 39  1  0
 15 40  1  0
 16 41  1  0
 17 42  1  0
 18 43  1  0
 20 44  1  0
 21 45  1  0
 23 46  1  0
 24 47  1  0
 25 48  1  0
 26 49  1  0
M  END
>  <smiles>  (49) 
O=C(NCC(=O)N1C[C@H](O)C[C@@H]1c1ccccc1)c1ccc2ccccc2n1

>  <score_type>  (49) 
oracle

>  <origin>  (49) 
autodockgpu

>  <m_score__min__energy>  (49) 
-9.3699999999999992

>  <m_primary>  (49) 
energy

>  <rmsd>  (49) 
2.062799443761829

>  <m_score__min__rmsd>  (49) 
2.062799443761829

>  <meeko>  (49) 
{"free_energy": -8.98, "intermolecular_energy": -10.77, "internal_energy": -1.38, "cluster_size": 28, "cluster_id": 1, "rank_in_cluster": 14}

>  <energy>  (49) 
-8.22

>  <cluster_rmsd>  (49) 
0.0

>  <cluster>  (49) 
5

$$$$

     RDKit          3D

 49 52  0  0  0  0  0  0  0  0999 V2000
  140.9530   71.9540  221.3330 O   0  0  0  0  0  0  0  0  0  0  0  0
  140.3530   72.3420  222.3520 C   0  0  0  0  0  0  0  0  0  0  0  0
  139.8150   73.6700  222.3530 N   0  0  0  0  0  0  0  0  0  0  0  0
  140.0050   74.4620  221.1790 C   0  0  0  0  0  0  0  0  0  0  0  0
  140.2910   75.8960  221.5070 C   0  0  0  0  0  0  0  0  0  0  0  0
  139.7960   76.4700  222.5110 O   0  0  0  0  0  0  0  0  0  0  0  0
  141.1570   76.6340  220.6500 N   0  0  0  0  0  0  0  0  0  0  0  0
  142.2800   76.0220  219.9660 C   0  0  0  0  0  0  0  0  0  0  0  0
  142.4210   76.8690  218.7390 C   0  0  2  0  0  0  0  0  0  0  0  0
  143.7010   76.8210  218.2000 O   0  0  0  0  0  0  0  0  0  0  0  0
  142.0080   78.2370  219.1700 C   0  0  0  0  0  0  0  0  0  0  0  0
  141.0690   78.0460  220.3320 C   0  0  2  0  0  0  0  0  0  0  0  0
  141.4200   78.9160  221.5040 C   0  0  0  0  0  0  0  0  0  0  0  0
  141.8230   78.3900  222.7140 C   0  0  0  0  0  0  0  0  0  0  0  0
  142.1500   79.1640  223.8000 C   0  0  0  0  0  0  0  0  0  0  0  0
  142.0750   80.5490  223.6850 C   0  0  0  0  0  0  0  0  0  0  0  0
  141.6740   81.1040  222.4870 C   0  0  0  0  0  0  0  0  0  0  0  0
  141.3510   80.2900  221.4090 C   0  0  0  0  0  0  0  0  0  0  0  0
  140.1830   71.4890  223.5360 C   0  0  0  0  0  0  0  0  0  0  0  0
  139.5540   70.2750  223.3760 C   0  0  0  0  0  0  0  0  0  0  0  0
  139.3720   69.4410  224.4580 C   0  0  0  0  0  0  0  0  0  0  0  0
  139.8350   69.8550  225.6890 C   0  0  0  0  0  0  0  0  0  0  0  0
  139.6890   69.0710  226.8180 C   0  0  0  0  0  0  0  0  0  0  0  0
  140.1600   69.5050  228.0370 C   0  0  0  0  0  0  0  0  0  0  0  0
  140.7900   70.7200  228.2000 C   0  0  0  0  0  0  0  0  0  0  0  0
  140.9410   71.5160  227.0610 C   0  0  0  0  0  0  0  0  0  0  0  0
  140.4710   71.0920  225.8210 C   0  0  0  0  0  0  0  0  0  0  0  0
  140.6430   71.9000  224.7530 N   0  0  0  0  0  0  0  0  0  0  0  0
  139.2970   74.0490  223.1880 H   0  0  0  0  0  0  0  0  0  0  0  0
  140.8517   74.0529  220.6083 H   0  0  0  0  0  0  0  0  0  0  0  0
  139.0749   74.4275  220.5927 H   0  0  0  0  0  0  0  0  0  0  0  0
  143.1899   76.0629  220.5827 H   0  0  0  0  0  0  0  0  0  0  0  0
  142.1269   74.9555  219.7444 H   0  0  0  0  0  0  0  0  0  0  0  0
  141.7905   76.5064  217.9137 H   0  0  0  0  0  0  0  0  0  0  0  0
  143.8190   77.3780  217.3910 H   0  0  0  0  0  0  0  0  0  0  0  0
  142.8870   78.8201  219.4819 H   0  0  0  0  0  0  0  0  0  0  0  0
  141.5236   78.7866  218.3494 H   0  0  0  0  0  0  0  0  0  0  0  0
  140.0418   78.3452  220.0763 H   0  0  0  0  0  0  0  0  0  0  0  0
  141.8855   77.2963  222.8137 H   0  0  0  0  0  0  0  0  0  0  0  0
  142.4658   78.6974  224.7447 H   0  0  0  0  0  0  0  0  0  0  0  0
  142.3322   81.1933  224.5386 H   0  0  0  0  0  0  0  0  0  0  0  0
  141.6098   82.1974  222.3852 H   0  0  0  0  0  0  0  0  0  0  0  0
  141.0341   80.7501  220.4614 H   0  0  0  0  0  0  0  0  0  0  0  0
  139.1957   69.9697  222.3818 H   0  0  0  0  0  0  0  0  0  0  0  0
  138.8698   68.4692  224.3424 H   0  0  0  0  0  0  0  0  0  0  0  0
  139.1925   68.0924  226.7421 H   0  0  0  0  0  0  0  0  0  0  0  0
  140.0282   68.8563  228.9155 H   0  0  0  0  0  0  0  0  0  0  0  0
  141.1578   71.0488  229.1832 H   0  0  0  0  0  0  0  0  0  0  0  0
  141.4391   72.4931  227.1457 H   0  0  0  0  0  0  0  0  0  0  0  0
  1  2  2  0
  2  3  1  0
  3  4  1  0
  4  5  1  0
  5  6  2  0
  5  7  1  0
  7  8  1  0
  8  9  1  0
  9 10  1  0
  9 11  1  0
 11 12  1  0
 12 13  1  0
 13 14  2  0
 14 15  1  0
 15 16  2  0
 16 17  1  0
 17 18  2  0
  2 19  1  0
 19 20  2  0
 20 21  1  0
 21 22  2  0
 22 23  1  0
 23 24  2  0
 24 25  1  0
 25 26  2  0
 26 27  1  0
 27 28  2  0
 12  7  1  0
 18 13  1  0
 28 19  1  0
 27 22  1  0
  3 29  1  0
  4 30  1  0
  4 31  1  0
  8 32  1  0
  8 33  1  0
  9 34  1  6
 10 35  1  0
 11 36  1  0
 11 37  1  0
 12 38  1  6
 14 39  1  0
 15 40  1  0
 16 41  1  0
 17 42  1  0
 18 43  1  0
 20 44  1  0
 21 45  1  0
 23 46  1  0
 24 47  1  0
 25 48  1  0
 26 49  1  0
M  END
>  <smiles>  (50) 
O=C(NCC(=O)N1C[C@H](O)C[C@@H]1c1ccccc1)c1ccc2ccccc2n1

>  <score_type>  (50) 
oracle

>  <origin>  (50) 
autodockgpu

>  <m_score__min__energy>  (50) 
-9.3699999999999992

>  <m_primary>  (50) 
energy

>  <rmsd>  (50) 
1.964870673509339

>  <m_score__min__rmsd>  (50) 
1.964870673509339

>  <meeko>  (50) 
{"free_energy": -8.71, "intermolecular_energy": -10.5, "internal_energy": -1.31, "cluster_size": 28, "cluster_id": 1, "rank_in_cluster": 23}

>  <energy>  (50) 
-8.06

>  <cluster_rmsd>  (50) 
0.0

>  <cluster>  (50) 
6

$$$$
