
     RDKit          3D

 55 58  0  0  0  0  0  0  0  0999 V2000
  141.2400   71.5970  221.5060 O   0  0  0  0  0  0  0  0  0  0  0  0
  140.3880   71.9490  222.3770 C   0  0  0  0  0  0  0  0  0  0  0  0
  139.5800   73.0900  222.1000 N   0  0  0  0  0  0  0  0  0  0  0  0
  139.7810   73.7690  220.8570 C   0  0  0  0  0  0  0  0  0  0  0  0
  140.7590   74.8870  220.9710 C   0  0  0  0  0  0  0  0  0  0  0  0
  140.7630   75.6530  221.9700 O   0  0  0  0  0  0  0  0  0  0  0  0
  141.6910   75.0610  219.9110 N   0  0  0  0  0  0  0  0  0  0  0  0
  141.2900   75.0480  218.5100 C   0  0  0  0  0  0  0  0  0  0  0  0
  141.7980   76.2410  217.7590 C   0  0  0  0  0  0  0  0  0  0  0  0
  142.6300   77.1590  218.6270 C   0  0  0  0  0  0  0  0  0  0  0  0
  143.6780   76.4030  219.4090 C   0  0  0  0  0  0  0  0  0  0  0  0
  143.0810   75.2600  220.2000 C   0  0  2  0  0  0  0  0  0  0  0  0
  143.8490   74.0120  219.8520 C   0  0  0  0  0  0  0  0  0  0  0  0
  145.1710   73.9160  220.5690 C   0  0  0  0  0  0  0  0  0  0  0  0
  145.7440   72.5500  220.2240 C   0  0  0  0  0  0  0  0  0  0  0  0
  145.9360   72.3520  218.8800 O   0  0  0  0  0  0  0  0  0  0  0  0
  145.4890   73.3540  218.0540 C   0  0  0  0  0  0  0  0  0  0  0  0
  144.1270   73.8890  218.3850 C   0  0  0  0  0  0  0  0  0  0  0  0
  140.2280   71.2130  223.6350 C   0  0  0  0  0  0  0  0  0  0  0  0
  139.5680   69.9950  223.5920 C   0  0  0  0  0  0  0  0  0  0  0  0
  139.4140   69.2940  224.7800 C   0  0  0  0  0  0  0  0  0  0  0  0
  139.9180   69.8370  225.9280 C   0  0  0  0  0  0  0  0  0  0  0  0
  139.7690   69.1460  227.1160 C   0  0  0  0  0  0  0  0  0  0  0  0
  140.2590   69.6380  228.3250 C   0  0  0  0  0  0  0  0  0  0  0  0
  140.9150   70.8670  228.3130 C   0  0  0  0  0  0  0  0  0  0  0  0
  141.0790   71.5850  227.1330 C   0  0  0  0  0  0  0  0  0  0  0  0
  140.5820   71.0660  225.9550 C   0  0  0  0  0  0  0  0  0  0  0  0
  140.7140   71.7250  224.7710 N   0  0  0  0  0  0  0  0  0  0  0  0
  138.8640   73.3930  222.8200 H   0  0  0  0  0  0  0  0  0  0  0  0
  140.1553   73.0467  220.1166 H   0  0  0  0  0  0  0  0  0  0  0  0
  138.8159   74.1983  220.5500 H   0  0  0  0  0  0  0  0  0  0  0  0
  141.6873   74.1376  218.0373 H   0  0  0  0  0  0  0  0  0  0  0  0
  140.1908   75.0734  218.4756 H   0  0  0  0  0  0  0  0  0  0  0  0
  142.4170   75.8922  216.9193 H   0  0  0  0  0  0  0  0  0  0  0  0
  140.9258   76.8119  217.4077 H   0  0  0  0  0  0  0  0  0  0  0  0
  143.1309   77.8978  217.9842 H   0  0  0  0  0  0  0  0  0  0  0  0
  141.9569   77.6484  219.3463 H   0  0  0  0  0  0  0  0  0  0  0  0
  144.4218   75.9984  218.7068 H   0  0  0  0  0  0  0  0  0  0  0  0
  144.1412   77.1026  220.1203 H   0  0  0  0  0  0  0  0  0  0  0  0
  143.1539   75.4976  221.2716 H   0  0  0  0  0  0  0  0  0  0  0  0
  143.1878   73.1955  220.1777 H   0  0  0  0  0  0  0  0  0  0  0  0
  145.8491   74.7114  220.2262 H   0  0  0  0  0  0  0  0  0  0  0  0
  145.0468   74.0353  221.6554 H   0  0  0  0  0  0  0  0  0  0  0  0
  146.7137   72.4426  220.7321 H   0  0  0  0  0  0  0  0  0  0  0  0
  145.0089   71.8019  220.5556 H   0  0  0  0  0  0  0  0  0  0  0  0
  146.2054   74.1869  218.1095 H   0  0  0  0  0  0  0  0  0  0  0  0
  145.4097   72.9119  217.0499 H   0  0  0  0  0  0  0  0  0  0  0  0
  144.0300   74.8866  217.9318 H   0  0  0  0  0  0  0  0  0  0  0  0
  143.4007   73.1646  217.9880 H   0  0  0  0  0  0  0  0  0  0  0  0
  139.1777   69.5957  222.6443 H   0  0  0  0  0  0  0  0  0  0  0  0
  138.8977   68.3229  224.7969 H   0  0  0  0  0  0  0  0  0  0  0  0
  139.2474   68.1776  227.1072 H   0  0  0  0  0  0  0  0  0  0  0  0
  140.1315   69.0729  229.2601 H   0  0  0  0  0  0  0  0  0  0  0  0
  141.3105   71.2771  229.2540 H   0  0  0  0  0  0  0  0  0  0  0  0
  141.5985   72.5546  227.1388 H   0  0  0  0  0  0  0  0  0  0  0  0
  1  2  2  0
  2  3  1  0
  3  4  1  0
  4  5  1  0
  5  6  2  0
  5  7  1  0
  7  8  1  0
  8  9  1  0
  9 10  1  0
 10 11  1  0
 11 12  1  0
 12 13  1  0
 13 14  1  0
 14 15  1  0
 15 16  1  0
 16 17  1  0
 17 18  1  0
  2 19  1  0
 19 20  2  0
 20 21  1  0
 21 22  2  0
 22 23  1  0
 23 24  2  0
 24 25  1  0
 25 26  2  0
 26 27  1  0
 27 28  2  0
 12  7  1  0
 18 13  1  0
 28 19  1  0
 27 22  1  0
  3 29  1  0
  4 30  1  0
  4 31  1  0
  8 32  1  0
  8 33  1  0
  9 34  1  0
  9 35  1  0
 10 36  1  0
 10 37  1  0
 11 38  1  0
 11 39  1  0
 12 40  1  1
 13 41  1  0
 14 42  1  0
 14 43  1  0
 15 44  1  0
 15 45  1  0
 17 46  1  0
 17 47  1  0
 18 48  1  0
 18 49  1  0
 20 50  1  0
 21 51  1  0
 23 52  1  0
 24 53  1  0
 25 54  1  0
 26 55  1  0
M  END
>  <smiles>  (1) 
O=C(NCC(=O)N1CCCCC1C1CCOCC1)c1ccc2ccccc2n1

>  <score_type>  (1) 
oracle

>  <origin>  (1) 
autodockgpu

>  <m_score__min__energy>  (1) 
-8.9900000000000002

>  <m_primary>  (1) 
energy

>  <rmsd>  (1) 
1.975287980673948

>  <m_score__min__rmsd>  (1) 
1.975287980673948

>  <meeko>  (1) 
{"free_energy": -8.92, "intermolecular_energy": -10.42, "internal_energy": -1.41, "cluster_size": 17, "cluster_id": 1, "rank_in_cluster": 5}

>  <energy>  (1) 
-8.99

>  <cluster_rmsd>  (1) 
0.0

>  <cluster>  (1) 
1

$$$$

     RDKit          3D

 55 58  0  0  0  0  0  0  0  0999 V2000
  140.7720   71.9130  221.1780 O   0  0  0  0  0  0  0  0  0  0  0  0
  140.3080   72.3780  222.2640 C   0  0  0  0  0  0  0  0  0  0  0  0
  139.9530   73.7590  222.3030 N   0  0  0  0  0  0  0  0  0  0  0  0
  140.1460   74.5350  221.1160 C   0  0  0  0  0  0  0  0  0  0  0  0
  141.5760   74.8850  220.8920 C   0  0  0  0  0  0  0  0  0  0  0  0
  142.4980   74.0690  221.1520 O   0  0  0  0  0  0  0  0  0  0  0  0
  141.8660   76.1780  220.3740 N   0  0  0  0  0  0  0  0  0  0  0  0
  143.0280   76.4390  219.5340 C   0  0  0  0  0  0  0  0  0  0  0  0
  142.6680   77.1540  218.2680 C   0  0  0  0  0  0  0  0  0  0  0  0
  141.1890   77.4600  218.1760 C   0  0  0  0  0  0  0  0  0  0  0  0
  140.6640   78.0980  219.4410 C   0  0  0  0  0  0  0  0  0  0  0  0
  141.0000   77.2820  220.6700 C   0  0  2  0  0  0  0  0  0  0  0  0
  141.6760   78.1980  221.6560 C   0  0  0  0  0  0  0  0  0  0  0  0
  140.9570   78.2720  222.9790 C   0  0  0  0  0  0  0  0  0  0  0  0
  141.8350   79.1100  223.8940 C   0  0  0  0  0  0  0  0  0  0  0  0
  142.0690   80.3790  223.4290 O   0  0  0  0  0  0  0  0  0  0  0  0
  141.5780   80.6630  222.1790 C   0  0  0  0  0  0  0  0  0  0  0  0
  141.8180   79.6000  221.1470 C   0  0  0  0  0  0  0  0  0  0  0  0
  140.1330   71.5320  223.4480 C   0  0  0  0  0  0  0  0  0  0  0  0
  139.4050   70.3620  223.3060 C   0  0  0  0  0  0  0  0  0  0  0  0
  139.2370   69.5580  224.4240 C   0  0  0  0  0  0  0  0  0  0  0  0
  139.7950   69.9580  225.6060 C   0  0  0  0  0  0  0  0  0  0  0  0
  139.6330   69.1630  226.7250 C   0  0  0  0  0  0  0  0  0  0  0  0
  140.1750   69.5080  227.9630 C   0  0  0  0  0  0  0  0  0  0  0  0
  140.8980   70.6960  228.0520 C   0  0  0  0  0  0  0  0  0  0  0  0
  141.0780   71.5160  226.9420 C   0  0  0  0  0  0  0  0  0  0  0  0
  140.5270   71.1420  225.7330 C   0  0  0  0  0  0  0  0  0  0  0  0
  140.6700   71.9050  224.6160 N   0  0  0  0  0  0  0  0  0  0  0  0
  139.5630   74.1580  223.2040 H   0  0  0  0  0  0  0  0  0  0  0  0
  139.7848   73.9563  220.2531 H   0  0  0  0  0  0  0  0  0  0  0  0
  139.5858   75.4742  221.2349 H   0  0  0  0  0  0  0  0  0  0  0  0
  143.7405   77.0580  220.0990 H   0  0  0  0  0  0  0  0  0  0  0  0
  143.4673   75.4690  219.2582 H   0  0  0  0  0  0  0  0  0  0  0  0
  143.2273   78.1003  218.2260 H   0  0  0  0  0  0  0  0  0  0  0  0
  142.9258   76.4942  217.4265 H   0  0  0  0  0  0  0  0  0  0  0  0
  141.0202   78.1481  217.3346 H   0  0  0  0  0  0  0  0  0  0  0  0
  140.6539   76.5106  218.0265 H   0  0  0  0  0  0  0  0  0  0  0  0
  141.1103   79.0979  219.5459 H   0  0  0  0  0  0  0  0  0  0  0  0
  139.5684   78.1571  219.3619 H   0  0  0  0  0  0  0  0  0  0  0  0
  140.0699   76.8591  221.0776 H   0  0  0  0  0  0  0  0  0  0  0  0
  142.6698   77.7476  221.7957 H   0  0  0  0  0  0  0  0  0  0  0  0
  139.9740   78.7491  222.8523 H   0  0  0  0  0  0  0  0  0  0  0  0
  140.7847   77.2695  223.3976 H   0  0  0  0  0  0  0  0  0  0  0  0
  141.3414   79.1856  224.8741 H   0  0  0  0  0  0  0  0  0  0  0  0
  142.8108   78.6054  223.9510 H   0  0  0  0  0  0  0  0  0  0  0  0
  140.4921   80.8158  222.2655 H   0  0  0  0  0  0  0  0  0  0  0  0
  142.1183   81.5561  221.8320 H   0  0  0  0  0  0  0  0  0  0  0  0
  141.0951   79.7441  220.3305 H   0  0  0  0  0  0  0  0  0  0  0  0
  142.8626   79.7105  220.8205 H   0  0  0  0  0  0  0  0  0  0  0  0
  138.9727   70.0787  222.3350 H   0  0  0  0  0  0  0  0  0  0  0  0
  138.6672   68.6192  224.3607 H   0  0  0  0  0  0  0  0  0  0  0  0
  139.0587   68.2290  226.6364 H   0  0  0  0  0  0  0  0  0  0  0  0
  140.0360   68.8620  228.8424 H   0  0  0  0  0  0  0  0  0  0  0  0
  141.3345   70.9911  229.0176 H   0  0  0  0  0  0  0  0  0  0  0  0
  141.6522   72.4504  227.0271 H   0  0  0  0  0  0  0  0  0  0  0  0
  1  2  2  0
  2  3  1  0
  3  4  1  0
  4  5  1  0
  5  6  2  0
  5  7  1  0
  7  8  1  0
  8  9  1  0
  9 10  1  0
 10 11  1  0
 11 12  1  0
 12 13  1  0
 13 14  1  0
 14 15  1  0
 15 16  1  0
 16 17  1  0
 17 18  1  0
  2 19  1  0
 19 20  2  0
 20 21  1  0
 21 22  2  0
 22 23  1  0
 23 24  2  0
 24 25  1  0
 25 26  2  0
 26 27  1  0
 27 28  2  0
 12  7  1  0
 18 13  1  0
 28 19  1  0
 27 22  1  0
  3 29  1  0
  4 30  1  0
  4 31  1  0
  8 32  1  0
  8 33  1  0
  9 34  1  0
  9 35  1  0
 10 36  1  0
 10 37  1  0
 11 38  1  0
 11 39  1  0
 12 40  1  1
 13 41  1  0
 14 42  1  0
 14 43  1  0
 15 44  1  0
 15 45  1  0
 17 46  1  0
 17 47  1  0
 18 48  1  0
 18 49  1  0
 20 50  1  0
 21 51  1  0
 23 52  1  0
 24 53  1  0
 25 54  1  0
 26 55  1  0
M  END
>  <smiles>  (2) 
O=C(NCC(=O)N1CCCCC1C1CCOCC1)c1ccc2ccccc2n1

>  <score_type>  (2) 
oracle

>  <origin>  (2) 
autodockgpu

>  <m_score__min__energy>  (2) 
-8.9900000000000002

>  <m_primary>  (2) 
energy

>  <rmsd>  (2) 
2.2166390058993253

>  <m_score__min__rmsd>  (2) 
2.2166390058993253

>  <meeko>  (2) 
{"free_energy": -8.35, "intermolecular_energy": -9.84, "internal_energy": -1.32, "cluster_size": 18, "cluster_id": 3, "rank_in_cluster": 17}

>  <energy>  (2) 
-8.98

>  <cluster_rmsd>  (2) 
0.09

>  <cluster>  (2) 
1

$$$$

     RDKit          3D

 55 58  0  0  0  0  0  0  0  0999 V2000
  140.4880   71.3090  221.2760 O   0  0  0  0  0  0  0  0  0  0  0  0
  140.0950   71.8680  222.3450 C   0  0  0  0  0  0  0  0  0  0  0  0
  139.6600   73.2240  222.2690 N   0  0  0  0  0  0  0  0  0  0  0  0
  139.6960   73.8700  220.9920 C   0  0  0  0  0  0  0  0  0  0  0  0
  140.5540   75.0880  220.9950 C   0  0  0  0  0  0  0  0  0  0  0  0
  140.4780   75.9390  221.9180 O   0  0  0  0  0  0  0  0  0  0  0  0
  141.4650   75.2560  219.9150 N   0  0  0  0  0  0  0  0  0  0  0  0
  141.0590   75.1170  218.5230 C   0  0  0  0  0  0  0  0  0  0  0  0
  141.4740   76.2900  217.6880 C   0  0  0  0  0  0  0  0  0  0  0  0
  142.2410   77.3240  218.4820 C   0  0  0  0  0  0  0  0  0  0  0  0
  143.3460   76.7010  219.3040 C   0  0  0  0  0  0  0  0  0  0  0  0
  142.8390   75.5750  220.1770 C   0  0  2  0  0  0  0  0  0  0  0  0
  143.6950   74.3660  219.9070 C   0  0  0  0  0  0  0  0  0  0  0  0
  143.1050   73.0930  220.4570 C   0  0  0  0  0  0  0  0  0  0  0  0
  144.0070   71.9650  219.9790 C   0  0  0  0  0  0  0  0  0  0  0  0
  145.3090   72.0830  220.3920 O   0  0  0  0  0  0  0  0  0  0  0  0
  145.6250   73.2340  221.0700 C   0  0  0  0  0  0  0  0  0  0  0  0
  145.0790   74.4950  220.4670 C   0  0  0  0  0  0  0  0  0  0  0  0
  140.0810   71.1540  223.6250 C   0  0  0  0  0  0  0  0  0  0  0  0
  139.5640   69.8690  223.6440 C   0  0  0  0  0  0  0  0  0  0  0  0
  139.5490   69.1890  224.8530 C   0  0  0  0  0  0  0  0  0  0  0  0
  140.0430   69.8170  225.9620 C   0  0  0  0  0  0  0  0  0  0  0  0
  140.0310   69.1480  227.1700 C   0  0  0  0  0  0  0  0  0  0  0  0
  140.5190   69.7260  228.3420 C   0  0  0  0  0  0  0  0  0  0  0  0
  141.0280   71.0210  228.2690 C   0  0  0  0  0  0  0  0  0  0  0  0
  141.0520   71.7200  227.0660 C   0  0  0  0  0  0  0  0  0  0  0  0
  140.5610   71.1150  225.9270 C   0  0  0  0  0  0  0  0  0  0  0  0
  140.5590   71.7510  224.7230 N   0  0  0  0  0  0  0  0  0  0  0  0
  139.3280   73.7020  223.1540 H   0  0  0  0  0  0  0  0  0  0  0  0
  140.0910   73.1616  220.2489 H   0  0  0  0  0  0  0  0  0  0  0  0
  138.6706   74.1830  220.7458 H   0  0  0  0  0  0  0  0  0  0  0  0
  141.5201   74.2080  218.1094 H   0  0  0  0  0  0  0  0  0  0  0  0
  139.9608   75.0586  218.4977 H   0  0  0  0  0  0  0  0  0  0  0  0
  142.1123   75.9306  216.8674 H   0  0  0  0  0  0  0  0  0  0  0  0
  140.5599   76.7704  217.3089 H   0  0  0  0  0  0  0  0  0  0  0  0
  142.6835   78.0507  217.7848 H   0  0  0  0  0  0  0  0  0  0  0  0
  141.5378   77.8126  219.1725 H   0  0  0  0  0  0  0  0  0  0  0  0
  144.1139   76.3043  218.6236 H   0  0  0  0  0  0  0  0  0  0  0  0
  143.7597   77.4798  219.9615 H   0  0  0  0  0  0  0  0  0  0  0  0
  142.8995   75.8895  221.2293 H   0  0  0  0  0  0  0  0  0  0  0  0
  143.7386   74.3130  218.8091 H   0  0  0  0  0  0  0  0  0  0  0  0
  143.0856   73.1257  221.5563 H   0  0  0  0  0  0  0  0  0  0  0  0
  142.0696   72.9506  220.1140 H   0  0  0  0  0  0  0  0  0  0  0  0
  143.6066   71.0149  220.3625 H   0  0  0  0  0  0  0  0  0  0  0  0
  144.0153   72.0062  218.8798 H   0  0  0  0  0  0  0  0  0  0  0  0
  145.2309   73.1465  222.0932 H   0  0  0  0  0  0  0  0  0  0  0  0
  146.7206   73.3234  221.0304 H   0  0  0  0  0  0  0  0  0  0  0  0
  145.0634   75.2704  221.2471 H   0  0  0  0  0  0  0  0  0  0  0  0
  145.7364   74.7487  219.6224 H   0  0  0  0  0  0  0  0  0  0  0  0
  139.1765   69.4013  222.7269 H   0  0  0  0  0  0  0  0  0  0  0  0
  139.1483   68.1666  224.9178 H   0  0  0  0  0  0  0  0  0  0  0  0
  139.6237   68.1269  227.2093 H   0  0  0  0  0  0  0  0  0  0  0  0
  140.5025   69.1763  229.2946 H   0  0  0  0  0  0  0  0  0  0  0  0
  141.4181   71.4997  229.1793 H   0  0  0  0  0  0  0  0  0  0  0  0
  141.4572   72.7418  227.0235 H   0  0  0  0  0  0  0  0  0  0  0  0
  1  2  2  0
  2  3  1  0
  3  4  1  0
  4  5  1  0
  5  6  2  0
  5  7  1  0
  7  8  1  0
  8  9  1  0
  9 10  1  0
 10 11  1  0
 11 12  1  0
 12 13  1  0
 13 14  1  0
 14 15  1  0
 15 16  1  0
 16 17  1  0
 17 18  1  0
  2 19  1  0
 19 20  2  0
 20 21  1  0
 21 22  2  0
 22 23  1  0
 23 24  2  0
 24 25  1  0
 25 26  2  0
 26 27  1  0
 27 28  2  0
 12  7  1  0
 18 13  1  0
 28 19  1  0
 27 22  1  0
  3 29  1  0
  4 30  1  0
  4 31  1  0
  8 32  1  0
  8 33  1  0
  9 34  1  0
  9 35  1  0
 10 36  1  0
 10 37  1  0
 11 38  1  0
 11 39  1  0
 12 40  1  1
 13 41  1  0
 14 42  1  0
 14 43  1  0
 15 44  1  0
 15 45  1  0
 17 46  1  0
 17 47  1  0
 18 48  1  0
 18 49  1  0
 20 50  1  0
 21 51  1  0
 23 52  1  0
 24 53  1  0
 25 54  1  0
 26 55  1  0
M  END
>  <smiles>  (3) 
O=C(NCC(=O)N1CCCCC1C1CCOCC1)c1ccc2ccccc2n1

>  <score_type>  (3) 
oracle

>  <origin>  (3) 
autodockgpu

>  <m_score__min__energy>  (3) 
-8.9900000000000002

>  <m_primary>  (3) 
energy

>  <rmsd>  (3) 
1.7892935669423307

>  <m_score__min__rmsd>  (3) 
1.7892935669423307

>  <meeko>  (3) 
{"free_energy": -8.2, "intermolecular_energy": -9.69, "internal_energy": -1.73, "cluster_size": 17, "cluster_id": 1, "rank_in_cluster": 14}

>  <energy>  (3) 
-8.98

>  <cluster_rmsd>  (3) 
0.1

>  <cluster>  (3) 
1

$$$$

     RDKit          3D

 55 58  0  0  0  0  0  0  0  0999 V2000
  140.9590   74.4580  221.3490 O   0  0  0  0  0  0  0  0  0  0  0  0
  139.9610   74.9530  221.9560 C   0  0  0  0  0  0  0  0  0  0  0  0
  138.8640   74.0920  222.2520 N   0  0  0  0  0  0  0  0  0  0  0  0
  138.9560   72.7230  221.8450 C   0  0  0  0  0  0  0  0  0  0  0  0
  139.8000   71.9110  222.7660 C   0  0  0  0  0  0  0  0  0  0  0  0
  141.0560   71.9500  222.7070 O   0  0  0  0  0  0  0  0  0  0  0  0
  139.1360   71.0890  223.7180 N   0  0  0  0  0  0  0  0  0  0  0  0
  137.6980   71.1590  223.9400 C   0  0  0  0  0  0  0  0  0  0  0  0
  137.0430   69.8130  223.8720 C   0  0  0  0  0  0  0  0  0  0  0  0
  138.0350   68.6990  223.6170 C   0  0  0  0  0  0  0  0  0  0  0  0
  139.2290   68.7820  224.5380 C   0  0  0  0  0  0  0  0  0  0  0  0
  139.8830   70.1460  224.4980 C   0  0  2  0  0  0  0  0  0  0  0  0
  139.9910   70.6430  225.9160 C   0  0  0  0  0  0  0  0  0  0  0  0
  141.1910   71.5270  226.1400 C   0  0  0  0  0  0  0  0  0  0  0  0
  141.0730   72.0530  227.5610 C   0  0  0  0  0  0  0  0  0  0  0  0
  141.0440   71.0700  228.5170 O   0  0  0  0  0  0  0  0  0  0  0  0
  141.0160   69.7780  228.0510 C   0  0  0  0  0  0  0  0  0  0  0  0
  140.0620   69.5320  226.9190 C   0  0  0  0  0  0  0  0  0  0  0  0
  139.9240   76.3650  222.3480 C   0  0  0  0  0  0  0  0  0  0  0  0
  138.6830   76.9650  222.4900 C   0  0  0  0  0  0  0  0  0  0  0  0
  138.6430   78.3010  222.8610 C   0  0  0  0  0  0  0  0  0  0  0  0
  139.8240   78.9570  223.0680 C   0  0  0  0  0  0  0  0  0  0  0  0
  139.7940   80.2880  223.4380 C   0  0  0  0  0  0  0  0  0  0  0  0
  140.9590   81.0200  223.6650 C   0  0  0  0  0  0  0  0  0  0  0  0
  142.1810   80.3700  223.5080 C   0  0  0  0  0  0  0  0  0  0  0  0
  142.2430   79.0300  223.1370 C   0  0  0  0  0  0  0  0  0  0  0  0
  141.0680   78.3380  222.9200 C   0  0  0  0  0  0  0  0  0  0  0  0
  141.0690   77.0270  222.5550 N   0  0  0  0  0  0  0  0  0  0  0  0
  138.0250   74.4930  222.7600 H   0  0  0  0  0  0  0  0  0  0  0  0
  137.9439   72.2927  221.8220 H   0  0  0  0  0  0  0  0  0  0  0  0
  139.4271   72.7000  220.8512 H   0  0  0  0  0  0  0  0  0  0  0  0
  137.5148   71.5911  224.9349 H   0  0  0  0  0  0  0  0  0  0  0  0
  137.2658   71.7828  223.1437 H   0  0  0  0  0  0  0  0  0  0  0  0
  136.5333   69.6199  224.8275 H   0  0  0  0  0  0  0  0  0  0  0  0
  136.3335   69.8282  223.0315 H   0  0  0  0  0  0  0  0  0  0  0  0
  137.5323   67.7332  223.7737 H   0  0  0  0  0  0  0  0  0  0  0  0
  138.3966   68.7966  222.5827 H   0  0  0  0  0  0  0  0  0  0  0  0
  138.8986   68.5768  225.5669 H   0  0  0  0  0  0  0  0  0  0  0  0
  139.9690   68.0408  224.2020 H   0  0  0  0  0  0  0  0  0  0  0  0
  140.8706   70.0494  224.0233 H   0  0  0  0  0  0  0  0  0  0  0  0
  139.0679   71.2228  226.0635 H   0  0  0  0  0  0  0  0  0  0  0  0
  142.1184   70.9470  226.0242 H   0  0  0  0  0  0  0  0  0  0  0  0
  141.2239   72.3495  225.4103 H   0  0  0  0  0  0  0  0  0  0  0  0
  141.9355   72.7057  227.7614 H   0  0  0  0  0  0  0  0  0  0  0  0
  140.1143   72.5885  227.6246 H   0  0  0  0  0  0  0  0  0  0  0  0
  142.0278   69.5174  227.7071 H   0  0  0  0  0  0  0  0  0  0  0  0
  140.6655   69.1569  228.8885 H   0  0  0  0  0  0  0  0  0  0  0  0
  140.3769   68.6166  226.3966 H   0  0  0  0  0  0  0  0  0  0  0  0
  139.0603   69.4482  227.3656 H   0  0  0  0  0  0  0  0  0  0  0  0
  137.7568   76.3984  222.3137 H   0  0  0  0  0  0  0  0  0  0  0  0
  137.6818   78.8211  222.9859 H   0  0  0  0  0  0  0  0  0  0  0  0
  138.8204   80.7859  223.5573 H   0  0  0  0  0  0  0  0  0  0  0  0
  140.9143   82.0790  223.9592 H   0  0  0  0  0  0  0  0  0  0  0  0
  143.1143   80.9261  223.6804 H   0  0  0  0  0  0  0  0  0  0  0  0
  143.2150   78.5289  223.0182 H   0  0  0  0  0  0  0  0  0  0  0  0
  1  2  2  0
  2  3  1  0
  3  4  1  0
  4  5  1  0
  5  6  2  0
  5  7  1  0
  7  8  1  0
  8  9  1  0
  9 10  1  0
 10 11  1  0
 11 12  1  0
 12 13  1  0
 13 14  1  0
 14 15  1  0
 15 16  1  0
 16 17  1  0
 17 18  1  0
  2 19  1  0
 19 20  2  0
 20 21  1  0
 21 22  2  0
 22 23  1  0
 23 24  2  0
 24 25  1  0
 25 26  2  0
 26 27  1  0
 27 28  2  0
 12  7  1  0
 18 13  1  0
 28 19  1  0
 27 22  1  0
  3 29  1  0
  4 30  1  0
  4 31  1  0
  8 32  1  0
  8 33  1  0
  9 34  1  0
  9 35  1  0
 10 36  1  0
 10 37  1  0
 11 38  1  0
 11 39  1  0
 12 40  1  6
 13 41  1  0
 14 42  1  0
 14 43  1  0
 15 44  1  0
 15 45  1  0
 17 46  1  0
 17 47  1  0
 18 48  1  0
 18 49  1  0
 20 50  1  0
 21 51  1  0
 23 52  1  0
 24 53  1  0
 25 54  1  0
 26 55  1  0
M  END
>  <smiles>  (4) 
O=C(NCC(=O)N1CCCCC1C1CCOCC1)c1ccc2ccccc2n1

>  <score_type>  (4) 
oracle

>  <origin>  (4) 
autodockgpu

>  <m_score__min__energy>  (4) 
-8.9900000000000002

>  <m_primary>  (4) 
energy

>  <rmsd>  (4) 
8.322739160970436

>  <m_score__min__rmsd>  (4) 
8.322739160970436

>  <meeko>  (4) 
{"free_energy": -8.94, "intermolecular_energy": -10.43, "internal_energy": -1.28, "cluster_size": 8, "cluster_id": 2, "rank_in_cluster": 2}

>  <energy>  (4) 
-8.98

>  <cluster_rmsd>  (4) 
0.06

>  <cluster>  (4) 
1

$$$$

     RDKit          3D

 55 58  0  0  0  0  0  0  0  0999 V2000
  140.5670   74.1260  220.1930 O   0  0  0  0  0  0  0  0  0  0  0  0
  140.2870   74.8540  221.1930 C   0  0  0  0  0  0  0  0  0  0  0  0
  139.4690   74.2960  222.2190 N   0  0  0  0  0  0  0  0  0  0  0  0
  139.0140   72.9490  222.0560 C   0  0  0  0  0  0  0  0  0  0  0  0
  139.8660   71.9690  222.7850 C   0  0  0  0  0  0  0  0  0  0  0  0
  141.0990   71.8740  222.5530 O   0  0  0  0  0  0  0  0  0  0  0  0
  139.2380   71.1410  223.7570 N   0  0  0  0  0  0  0  0  0  0  0  0
  137.7970   71.1440  223.9690 C   0  0  0  0  0  0  0  0  0  0  0  0
  137.2120   69.7650  223.9370 C   0  0  0  0  0  0  0  0  0  0  0  0
  138.2600   68.6970  223.7210 C   0  0  0  0  0  0  0  0  0  0  0  0
  139.4420   68.8680  224.6470 C   0  0  0  0  0  0  0  0  0  0  0  0
  140.0260   70.2610  224.5700 C   0  0  2  0  0  0  0  0  0  0  0  0
  140.0980   70.8050  225.9730 C   0  0  0  0  0  0  0  0  0  0  0  0
  141.2950   71.6910  226.2000 C   0  0  0  0  0  0  0  0  0  0  0  0
  141.1410   72.2640  227.6000 C   0  0  0  0  0  0  0  0  0  0  0  0
  141.0820   71.3130  228.5860 O   0  0  0  0  0  0  0  0  0  0  0  0
  141.0600   70.0070  228.1630 C   0  0  0  0  0  0  0  0  0  0  0  0
  140.1350   69.7280  227.0140 C   0  0  0  0  0  0  0  0  0  0  0  0
  140.7830   76.2290  221.3050 C   0  0  0  0  0  0  0  0  0  0  0  0
  141.1470   76.8820  220.1380 C   0  0  0  0  0  0  0  0  0  0  0  0
  141.6170   78.1830  220.2380 C   0  0  0  0  0  0  0  0  0  0  0  0
  141.6980   78.7550  221.4770 C   0  0  0  0  0  0  0  0  0  0  0  0
  142.1650   80.0510  221.5860 C   0  0  0  0  0  0  0  0  0  0  0  0
  142.2750   80.6980  222.8170 C   0  0  0  0  0  0  0  0  0  0  0  0
  141.8960   79.9960  223.9600 C   0  0  0  0  0  0  0  0  0  0  0  0
  141.4220   78.6900  223.8810 C   0  0  0  0  0  0  0  0  0  0  0  0
  141.3270   78.0830  222.6450 C   0  0  0  0  0  0  0  0  0  0  0  0
  140.8710   76.8080  222.5080 N   0  0  0  0  0  0  0  0  0  0  0  0
  139.2280   74.8940  223.0600 H   0  0  0  0  0  0  0  0  0  0  0  0
  137.9851   72.8752  222.4380 H   0  0  0  0  0  0  0  0  0  0  0  0
  139.0651   72.7055  220.9845 H   0  0  0  0  0  0  0  0  0  0  0  0
  137.5852   71.5949  224.9497 H   0  0  0  0  0  0  0  0  0  0  0  0
  137.3391   71.7215  223.1524 H   0  0  0  0  0  0  0  0  0  0  0  0
  136.7058   69.5741  224.8948 H   0  0  0  0  0  0  0  0  0  0  0  0
  136.5090   69.7194  223.0922 H   0  0  0  0  0  0  0  0  0  0  0  0
  137.8058   67.7118  223.9031 H   0  0  0  0  0  0  0  0  0  0  0  0
  138.6238   68.7824  222.6864 H   0  0  0  0  0  0  0  0  0  0  0  0
  139.1146   68.6769  225.6796 H   0  0  0  0  0  0  0  0  0  0  0  0
  140.2212   68.1557  224.3380 H   0  0  0  0  0  0  0  0  0  0  0  0
  141.0209   70.2008  224.1047 H   0  0  0  0  0  0  0  0  0  0  0  0
  139.1745   71.3937  226.0758 H   0  0  0  0  0  0  0  0  0  0  0  0
  142.2226   71.1041  226.1283 H   0  0  0  0  0  0  0  0  0  0  0  0
  141.3513   72.4889  225.4449 H   0  0  0  0  0  0  0  0  0  0  0  0
  142.0006   72.9198  227.8023 H   0  0  0  0  0  0  0  0  0  0  0  0
  140.1833   72.8048  227.6202 H   0  0  0  0  0  0  0  0  0  0  0  0
  142.0793   69.7307  227.8554 H   0  0  0  0  0  0  0  0  0  0  0  0
  140.6843   69.4154  229.0109 H   0  0  0  0  0  0  0  0  0  0  0  0
  140.4582   68.7939  226.5312 H   0  0  0  0  0  0  0  0  0  0  0  0
  139.1211   69.6644  227.4358 H   0  0  0  0  0  0  0  0  0  0  0  0
  141.0655   76.3830  219.1611 H   0  0  0  0  0  0  0  0  0  0  0  0
  141.9180   78.7424  219.3400 H   0  0  0  0  0  0  0  0  0  0  0  0
  142.4593   80.5896  220.6731 H   0  0  0  0  0  0  0  0  0  0  0  0
  142.6492   81.7302  222.8836 H   0  0  0  0  0  0  0  0  0  0  0  0
  141.9730   80.4836  224.9430 H   0  0  0  0  0  0  0  0  0  0  0  0
  141.1268   78.1484  224.7918 H   0  0  0  0  0  0  0  0  0  0  0  0
  1  2  2  0
  2  3  1  0
  3  4  1  0
  4  5  1  0
  5  6  2  0
  5  7  1  0
  7  8  1  0
  8  9  1  0
  9 10  1  0
 10 11  1  0
 11 12  1  0
 12 13  1  0
 13 14  1  0
 14 15  1  0
 15 16  1  0
 16 17  1  0
 17 18  1  0
  2 19  1  0
 19 20  2  0
 20 21  1  0
 21 22  2  0
 22 23  1  0
 23 24  2  0
 24 25  1  0
 25 26  2  0
 26 27  1  0
 27 28  2  0
 12  7  1  0
 18 13  1  0
 28 19  1  0
 27 22  1  0
  3 29  1  0
  4 30  1  0
  4 31  1  0
  8 32  1  0
  8 33  1  0
  9 34  1  0
  9 35  1  0
 10 36  1  0
 10 37  1  0
 11 38  1  0
 11 39  1  0
 12 40  1  6
 13 41  1  0
 14 42  1  0
 14 43  1  0
 15 44  1  0
 15 45  1  0
 17 46  1  0
 17 47  1  0
 18 48  1  0
 18 49  1  0
 20 50  1  0
 21 51  1  0
 23 52  1  0
 24 53  1  0
 25 54  1  0
 26 55  1  0
M  END
>  <smiles>  (5) 
O=C(NCC(=O)N1CCCCC1C1CCOCC1)c1ccc2ccccc2n1

>  <score_type>  (5) 
oracle

>  <origin>  (5) 
autodockgpu

>  <m_score__min__energy>  (5) 
-8.9900000000000002

>  <m_primary>  (5) 
energy

>  <rmsd>  (5) 
8.423905165552329

>  <m_score__min__rmsd>  (5) 
8.423905165552329

>  <meeko>  (5) 
{"free_energy": -8.66, "intermolecular_energy": -10.15, "internal_energy": -1.5, "cluster_size": 8, "cluster_id": 2, "rank_in_cluster": 5}

>  <energy>  (5) 
-8.92

>  <cluster_rmsd>  (5) 
0.32

>  <cluster>  (5) 
1

$$$$

     RDKit          3D

 55 58  0  0  0  0  0  0  0  0999 V2000
  140.8520   71.4210  221.3760 O   0  0  0  0  0  0  0  0  0  0  0  0
  140.2440   71.8960  222.3830 C   0  0  0  0  0  0  0  0  0  0  0  0
  139.6320   73.1770  222.2520 N   0  0  0  0  0  0  0  0  0  0  0  0
  139.7450   73.8490  220.9940 C   0  0  0  0  0  0  0  0  0  0  0  0
  140.7240   74.9720  221.0350 C   0  0  0  0  0  0  0  0  0  0  0  0
  140.8070   75.7310  222.0350 O   0  0  0  0  0  0  0  0  0  0  0  0
  141.5630   75.1590  219.9010 N   0  0  0  0  0  0  0  0  0  0  0  0
  141.0880   74.9600  218.5380 C   0  0  0  0  0  0  0  0  0  0  0  0
  141.3920   76.1300  217.6520 C   0  0  0  0  0  0  0  0  0  0  0  0
  142.1440   77.2240  218.3760 C   0  0  0  0  0  0  0  0  0  0  0  0
  143.3250   76.6840  219.1480 C   0  0  0  0  0  0  0  0  0  0  0  0
  142.9290   75.5580  220.0760 C   0  0  2  0  0  0  0  0  0  0  0  0
  143.8340   74.3880  219.7880 C   0  0  0  0  0  0  0  0  0  0  0  0
  143.2360   73.0670  220.1970 C   0  0  0  0  0  0  0  0  0  0  0  0
  144.2000   71.9960  219.7110 C   0  0  0  0  0  0  0  0  0  0  0  0
  145.4630   72.1070  220.2330 O   0  0  0  0  0  0  0  0  0  0  0  0
  145.6970   73.2120  221.0140 C   0  0  0  0  0  0  0  0  0  0  0  0
  145.1670   74.5030  220.4620 C   0  0  0  0  0  0  0  0  0  0  0  0
  140.1620   71.1590  223.6480 C   0  0  0  0  0  0  0  0  0  0  0  0
  139.5810   69.9010  223.6280 C   0  0  0  0  0  0  0  0  0  0  0  0
  139.5010   69.2000  224.8220 C   0  0  0  0  0  0  0  0  0  0  0  0
  139.9970   69.7820  225.9550 C   0  0  0  0  0  0  0  0  0  0  0  0
  139.9220   69.0910  227.1500 C   0  0  0  0  0  0  0  0  0  0  0  0
  140.4070   69.6220  228.3440 C   0  0  0  0  0  0  0  0  0  0  0  0
  140.9810   70.8910  228.3100 C   0  0  0  0  0  0  0  0  0  0  0  0
  141.0700   71.6110  227.1220 C   0  0  0  0  0  0  0  0  0  0  0  0
  140.5790   71.0520  225.9590 C   0  0  0  0  0  0  0  0  0  0  0  0
  140.6400   71.7100  224.7690 N   0  0  0  0  0  0  0  0  0  0  0  0
  139.1210   73.5840  223.0860 H   0  0  0  0  0  0  0  0  0  0  0  0
  140.0713   73.1236  220.2342 H   0  0  0  0  0  0  0  0  0  0  0  0
  138.7594   74.2724  220.7505 H   0  0  0  0  0  0  0  0  0  0  0  0
  141.5739   74.0654  218.1214 H   0  0  0  0  0  0  0  0  0  0  0  0
  139.9949   74.8430  218.5768 H   0  0  0  0  0  0  0  0  0  0  0  0
  142.0028   75.7825  216.8057 H   0  0  0  0  0  0  0  0  0  0  0  0
  140.4338   76.5507  217.3130 H   0  0  0  0  0  0  0  0  0  0  0  0
  142.5064   77.9543  217.6376 H   0  0  0  0  0  0  0  0  0  0  0  0
  141.4545   77.6923  219.0938 H   0  0  0  0  0  0  0  0  0  0  0  0
  144.0740   76.3094  218.4348 H   0  0  0  0  0  0  0  0  0  0  0  0
  143.7324   77.5016  219.7608 H   0  0  0  0  0  0  0  0  0  0  0  0
  143.0301   75.9053  221.1148 H   0  0  0  0  0  0  0  0  0  0  0  0
  143.9629   74.4163  218.6959 H   0  0  0  0  0  0  0  0  0  0  0  0
  143.1317   73.0181  221.2910 H   0  0  0  0  0  0  0  0  0  0  0  0
  142.2337   72.9299  219.7650 H   0  0  0  0  0  0  0  0  0  0  0  0
  143.7947   71.0124  219.9910 H   0  0  0  0  0  0  0  0  0  0  0  0
  144.2926   72.1202  218.6220 H   0  0  0  0  0  0  0  0  0  0  0  0
  145.2283   73.0422  221.9945 H   0  0  0  0  0  0  0  0  0  0  0  0
  146.7899   73.3257  221.0660 H   0  0  0  0  0  0  0  0  0  0  0  0
  145.0721   75.2186  221.2920 H   0  0  0  0  0  0  0  0  0  0  0  0
  145.8805   74.8311  219.6918 H   0  0  0  0  0  0  0  0  0  0  0  0
  139.1945   69.4709  222.6923 H   0  0  0  0  0  0  0  0  0  0  0  0
  139.0485   68.1980  224.8565 H   0  0  0  0  0  0  0  0  0  0  0  0
  139.4651   68.0904  227.1589 H   0  0  0  0  0  0  0  0  0  0  0  0
  140.3386   69.0561  229.2848 H   0  0  0  0  0  0  0  0  0  0  0  0
  141.3711   71.3321  229.2391 H   0  0  0  0  0  0  0  0  0  0  0  0
  141.5256   72.6122  227.1100 H   0  0  0  0  0  0  0  0  0  0  0  0
  1  2  2  0
  2  3  1  0
  3  4  1  0
  4  5  1  0
  5  6  2  0
  5  7  1  0
  7  8  1  0
  8  9  1  0
  9 10  1  0
 10 11  1  0
 11 12  1  0
 12 13  1  0
 13 14  1  0
 14 15  1  0
 15 16  1  0
 16 17  1  0
 17 18  1  0
  2 19  1  0
 19 20  2  0
 20 21  1  0
 21 22  2  0
 22 23  1  0
 23 24  2  0
 24 25  1  0
 25 26  2  0
 26 27  1  0
 27 28  2  0
 12  7  1  0
 18 13  1  0
 28 19  1  0
 27 22  1  0
  3 29  1  0
  4 30  1  0
  4 31  1  0
  8 32  1  0
  8 33  1  0
  9 34  1  0
  9 35  1  0
 10 36  1  0
 10 37  1  0
 11 38  1  0
 11 39  1  0
 12 40  1  1
 13 41  1  0
 14 42  1  0
 14 43  1  0
 15 44  1  0
 15 45  1  0
 17 46  1  0
 17 47  1  0
 18 48  1  0
 18 49  1  0
 20 50  1  0
 21 51  1  0
 23 52  1  0
 24 53  1  0
 25 54  1  0
 26 55  1  0
M  END
>  <smiles>  (6) 
O=C(NCC(=O)N1CCCCC1C1CCOCC1)c1ccc2ccccc2n1

>  <score_type>  (6) 
oracle

>  <origin>  (6) 
autodockgpu

>  <m_score__min__energy>  (6) 
-8.9900000000000002

>  <m_primary>  (6) 
energy

>  <rmsd>  (6) 
1.792842396239166

>  <m_score__min__rmsd>  (6) 
1.792842396239166

>  <meeko>  (6) 
{"free_energy": -8.4, "intermolecular_energy": -9.89, "internal_energy": -1.64, "cluster_size": 17, "cluster_id": 1, "rank_in_cluster": 13}

>  <energy>  (6) 
-8.91

>  <cluster_rmsd>  (6) 
0.29

>  <cluster>  (6) 
1

$$$$

     RDKit          3D

 55 58  0  0  0  0  0  0  0  0999 V2000
  141.5710   72.0410  221.7150 O   0  0  0  0  0  0  0  0  0  0  0  0
  140.6460   72.3720  222.5180 C   0  0  0  0  0  0  0  0  0  0  0  0
  139.9480   73.5900  222.2690 N   0  0  0  0  0  0  0  0  0  0  0  0
  140.3350   74.3650  221.1300 C   0  0  0  0  0  0  0  0  0  0  0  0
  140.1300   75.8260  221.3390 C   0  0  0  0  0  0  0  0  0  0  0  0
  139.1900   76.2570  222.0560 O   0  0  0  0  0  0  0  0  0  0  0  0
  141.0330   76.7180  220.6990 N   0  0  0  0  0  0  0  0  0  0  0  0
  142.2810   76.2660  220.0970 C   0  0  0  0  0  0  0  0  0  0  0  0
  142.4410   76.7470  218.6870 C   0  0  0  0  0  0  0  0  0  0  0  0
  141.2850   77.6110  218.2350 C   0  0  0  0  0  0  0  0  0  0  0  0
  140.9530   78.6870  219.2430 C   0  0  0  0  0  0  0  0  0  0  0  0
  140.7310   78.1180  220.6270 C   0  0  2  0  0  0  0  0  0  0  0  0
  141.6210   78.8730  221.5800 C   0  0  0  0  0  0  0  0  0  0  0  0
  141.1110   78.8590  222.9980 C   0  0  0  0  0  0  0  0  0  0  0  0
  142.1830   79.5290  223.8420 C   0  0  0  0  0  0  0  0  0  0  0  0
  142.4590   80.8190  223.4670 O   0  0  0  0  0  0  0  0  0  0  0  0
  141.8200   81.2690  222.3390 C   0  0  0  0  0  0  0  0  0  0  0  0
  141.8120   80.3060  221.1880 C   0  0  0  0  0  0  0  0  0  0  0  0
  140.2940   71.5360  223.6700 C   0  0  0  0  0  0  0  0  0  0  0  0
  139.5320   70.4020  223.4370 C   0  0  0  0  0  0  0  0  0  0  0  0
  139.1960   69.6070  224.5240 C   0  0  0  0  0  0  0  0  0  0  0  0
  139.6310   69.9800  225.7650 C   0  0  0  0  0  0  0  0  0  0  0  0
  139.3010   69.1950  226.8530 C   0  0  0  0  0  0  0  0  0  0  0  0
  139.7100   69.5140  228.1470 C   0  0  0  0  0  0  0  0  0  0  0  0
  140.4740   70.6650  228.3270 C   0  0  0  0  0  0  0  0  0  0  0  0
  140.8210   71.4750  227.2500 C   0  0  0  0  0  0  0  0  0  0  0  0
  140.3980   71.1280  225.9830 C   0  0  0  0  0  0  0  0  0  0  0  0
  140.7080   71.8830  224.8940 N   0  0  0  0  0  0  0  0  0  0  0  0
  139.1720   73.8770  222.9320 H   0  0  0  0  0  0  0  0  0  0  0  0
  141.4005   74.1838  220.9253 H   0  0  0  0  0  0  0  0  0  0  0  0
  139.7030   74.0559  220.2844 H   0  0  0  0  0  0  0  0  0  0  0  0
  143.1209   76.6456  220.6974 H   0  0  0  0  0  0  0  0  0  0  0  0
  142.2652   75.1663  220.0769 H   0  0  0  0  0  0  0  0  0  0  0  0
  143.3685   77.3343  218.6178 H   0  0  0  0  0  0  0  0  0  0  0  0
  142.4725   75.8625  218.0337 H   0  0  0  0  0  0  0  0  0  0  0  0
  141.5509   78.0887  217.2805 H   0  0  0  0  0  0  0  0  0  0  0  0
  140.4015   76.9651  218.1248 H   0  0  0  0  0  0  0  0  0  0  0  0
  141.7856   79.4048  219.2835 H   0  0  0  0  0  0  0  0  0  0  0  0
  140.0211   79.1762  218.9233 H   0  0  0  0  0  0  0  0  0  0  0  0
  139.6680   78.2291  220.8873 H   0  0  0  0  0  0  0  0  0  0  0  0
  142.5808   78.3386  221.5240 H   0  0  0  0  0  0  0  0  0  0  0  0
  140.1659   79.4174  223.0687 H   0  0  0  0  0  0  0  0  0  0  0  0
  140.9133   77.8331  223.3423 H   0  0  0  0  0  0  0  0  0  0  0  0
  141.8450   79.5372  224.8888 H   0  0  0  0  0  0  0  0  0  0  0  0
  143.1081   78.9505  223.7018 H   0  0  0  0  0  0  0  0  0  0  0  0
  140.7761   81.4924  222.6043 H   0  0  0  0  0  0  0  0  0  0  0  0
  142.3823   82.1509  221.9982 H   0  0  0  0  0  0  0  0  0  0  0  0
  140.9941   80.5886  220.5089 H   0  0  0  0  0  0  0  0  0  0  0  0
  142.8037   80.3725  220.7168 H   0  0  0  0  0  0  0  0  0  0  0  0
  139.2032   70.1398  222.4206 H   0  0  0  0  0  0  0  0  0  0  0  0
  138.5930   68.6969  224.3898 H   0  0  0  0  0  0  0  0  0  0  0  0
  138.6966   68.2899  226.6932 H   0  0  0  0  0  0  0  0  0  0  0  0
  139.4376   68.8759  229.0006 H   0  0  0  0  0  0  0  0  0  0  0  0
  140.8089   70.9384  229.3385 H   0  0  0  0  0  0  0  0  0  0  0  0
  141.4251   72.3808  227.4066 H   0  0  0  0  0  0  0  0  0  0  0  0
  1  2  2  0
  2  3  1  0
  3  4  1  0
  4  5  1  0
  5  6  2  0
  5  7  1  0
  7  8  1  0
  8  9  1  0
  9 10  1  0
 10 11  1  0
 11 12  1  0
 12 13  1  0
 13 14  1  0
 14 15  1  0
 15 16  1  0
 16 17  1  0
 17 18  1  0
  2 19  1  0
 19 20  2  0
 20 21  1  0
 21 22  2  0
 22 23  1  0
 23 24  2  0
 24 25  1  0
 25 26  2  0
 26 27  1  0
 27 28  2  0
 12  7  1  0
 18 13  1  0
 28 19  1  0
 27 22  1  0
  3 29  1  0
  4 30  1  0
  4 31  1  0
  8 32  1  0
  8 33  1  0
  9 34  1  0
  9 35  1  0
 10 36  1  0
 10 37  1  0
 11 38  1  0
 11 39  1  0
 12 40  1  1
 13 41  1  0
 14 42  1  0
 14 43  1  0
 15 44  1  0
 15 45  1  0
 17 46  1  0
 17 47  1  0
 18 48  1  0
 18 49  1  0
 20 50  1  0
 21 51  1  0
 23 52  1  0
 24 53  1  0
 25 54  1  0
 26 55  1  0
M  END
>  <smiles>  (7) 
O=C(NCC(=O)N1CCCCC1C1CCOCC1)c1ccc2ccccc2n1

>  <score_type>  (7) 
oracle

>  <origin>  (7) 
autodockgpu

>  <m_score__min__energy>  (7) 
-8.9900000000000002

>  <m_primary>  (7) 
energy

>  <rmsd>  (7) 
2.2409908965770806

>  <m_score__min__rmsd>  (7) 
2.2409908965770806

>  <meeko>  (7) 
{"free_energy": -8.64, "intermolecular_energy": -10.14, "internal_energy": -1.48, "cluster_size": 18, "cluster_id": 3, "rank_in_cluster": 11}

>  <energy>  (7) 
-8.86

>  <cluster_rmsd>  (7) 
0.28

>  <cluster>  (7) 
1

$$$$

     RDKit          3D

 55 58  0  0  0  0  0  0  0  0999 V2000
  140.3350   74.6170  222.2620 O   0  0  0  0  0  0  0  0  0  0  0  0
  140.0580   75.6560  221.5900 C   0  0  0  0  0  0  0  0  0  0  0  0
  139.5910   75.4840  220.2540 N   0  0  0  0  0  0  0  0  0  0  0  0
  139.4640   74.1490  219.7540 C   0  0  0  0  0  0  0  0  0  0  0  0
  140.7830   73.4720  219.6040 C   0  0  0  0  0  0  0  0  0  0  0  0
  140.9420   72.2700  219.9400 O   0  0  0  0  0  0  0  0  0  0  0  0
  141.8590   74.2310  219.0670 N   0  0  0  0  0  0  0  0  0  0  0  0
  141.9150   74.6190  217.6640 C   0  0  0  0  0  0  0  0  0  0  0  0
  142.1640   76.0860  217.4860 C   0  0  0  0  0  0  0  0  0  0  0  0
  142.3250   76.8090  218.8050 C   0  0  0  0  0  0  0  0  0  0  0  0
  143.2960   76.1030  219.7220 C   0  0  0  0  0  0  0  0  0  0  0  0
  142.9390   74.6460  219.9130 C   0  0  2  0  0  0  0  0  0  0  0  0
  144.1650   73.8300  219.5980 C   0  0  0  0  0  0  0  0  0  0  0  0
  143.9270   72.3450  219.7040 C   0  0  0  0  0  0  0  0  0  0  0  0
  145.2020   71.6740  219.2200 C   0  0  0  0  0  0  0  0  0  0  0  0
  146.3170   72.0110  219.9440 O   0  0  0  0  0  0  0  0  0  0  0  0
  146.1400   72.9710  220.9100 C   0  0  0  0  0  0  0  0  0  0  0  0
  145.3280   74.1590  220.4830 C   0  0  0  0  0  0  0  0  0  0  0  0
  140.2080   77.0000  222.1570 C   0  0  0  0  0  0  0  0  0  0  0  0
  139.0660   77.6450  222.6040 C   0  0  0  0  0  0  0  0  0  0  0  0
  139.2030   78.9160  223.1420 C   0  0  0  0  0  0  0  0  0  0  0  0
  140.4520   79.4680  223.2040 C   0  0  0  0  0  0  0  0  0  0  0  0
  140.5980   80.7340  223.7390 C   0  0  0  0  0  0  0  0  0  0  0  0
  141.8400   81.3590  223.8350 C   0  0  0  0  0  0  0  0  0  0  0  0
  142.9580   80.6670  223.3710 C   0  0  0  0  0  0  0  0  0  0  0  0
  142.8420   79.3910  222.8280 C   0  0  0  0  0  0  0  0  0  0  0  0
  141.5940   78.8040  222.7490 C   0  0  0  0  0  0  0  0  0  0  0  0
  141.4220   77.5590  222.2280 N   0  0  0  0  0  0  0  0  0  0  0  0
  139.3550   76.3450  219.6830 H   0  0  0  0  0  0  0  0  0  0  0  0
  138.8454   73.5671  220.4531 H   0  0  0  0  0  0  0  0  0  0  0  0
  139.0005   74.2060  218.7581 H   0  0  0  0  0  0  0  0  0  0  0  0
  142.7274   74.0611  217.1754 H   0  0  0  0  0  0  0  0  0  0  0  0
  140.9387   74.3876  217.2130 H   0  0  0  0  0  0  0  0  0  0  0  0
  143.0828   76.2191  216.8960 H   0  0  0  0  0  0  0  0  0  0  0  0
  141.2898   76.5143  216.9738 H   0  0  0  0  0  0  0  0  0  0  0  0
  142.6962   77.8259  218.6097 H   0  0  0  0  0  0  0  0  0  0  0  0
  141.3439   76.8324  219.3018 H   0  0  0  0  0  0  0  0  0  0  0  0
  144.3048   76.1674  219.2882 H   0  0  0  0  0  0  0  0  0  0  0  0
  143.2531   76.5946  220.7051 H   0  0  0  0  0  0  0  0  0  0  0  0
  142.6064   74.4979  220.9510 H   0  0  0  0  0  0  0  0  0  0  0  0
  144.3989   74.0974  218.5570 H   0  0  0  0  0  0  0  0  0  0  0  0
  143.7220   72.0655  220.7479 H   0  0  0  0  0  0  0  0  0  0  0  0
  143.0589   72.0350  219.1037 H   0  0  0  0  0  0  0  0  0  0  0  0
  145.0650   70.5843  219.2823 H   0  0  0  0  0  0  0  0  0  0  0  0
  145.3736   72.0201  218.1901 H   0  0  0  0  0  0  0  0  0  0  0  0
  145.6347   72.5029  221.7677 H   0  0  0  0  0  0  0  0  0  0  0  0
  147.1428   73.3544  221.1496 H   0  0  0  0  0  0  0  0  0  0  0  0
  144.9431   74.6548  221.3863 H   0  0  0  0  0  0  0  0  0  0  0  0
  145.9987   74.8010  219.8931 H   0  0  0  0  0  0  0  0  0  0  0  0
  138.0796   77.1631  222.5342 H   0  0  0  0  0  0  0  0  0  0  0  0
  138.3257   79.4678  223.5107 H   0  0  0  0  0  0  0  0  0  0  0  0
  139.7053   81.2653  224.1006 H   0  0  0  0  0  0  0  0  0  0  0  0
  141.9353   82.3675  224.2638 H   0  0  0  0  0  0  0  0  0  0  0  0
  143.9498   81.1383  223.4353 H   0  0  0  0  0  0  0  0  0  0  0  0
  143.7328   78.8565  222.4663 H   0  0  0  0  0  0  0  0  0  0  0  0
  1  2  2  0
  2  3  1  0
  3  4  1  0
  4  5  1  0
  5  6  2  0
  5  7  1  0
  7  8  1  0
  8  9  1  0
  9 10  1  0
 10 11  1  0
 11 12  1  0
 12 13  1  0
 13 14  1  0
 14 15  1  0
 15 16  1  0
 16 17  1  0
 17 18  1  0
  2 19  1  0
 19 20  2  0
 20 21  1  0
 21 22  2  0
 22 23  1  0
 23 24  2  0
 24 25  1  0
 25 26  2  0
 26 27  1  0
 27 28  2  0
 12  7  1  0
 18 13  1  0
 28 19  1  0
 27 22  1  0
  3 29  1  0
  4 30  1  0
  4 31  1  0
  8 32  1  0
  8 33  1  0
  9 34  1  0
  9 35  1  0
 10 36  1  0
 10 37  1  0
 11 38  1  0
 11 39  1  0
 12 40  1  1
 13 41  1  0
 14 42  1  0
 14 43  1  0
 15 44  1  0
 15 45  1  0
 17 46  1  0
 17 47  1  0
 18 48  1  0
 18 49  1  0
 20 50  1  0
 21 51  1  0
 23 52  1  0
 24 53  1  0
 25 54  1  0
 26 55  1  0
M  END
>  <smiles>  (8) 
O=C(NCC(=O)N1CCCCC1C1CCOCC1)c1ccc2ccccc2n1

>  <score_type>  (8) 
oracle

>  <origin>  (8) 
autodockgpu

>  <m_score__min__energy>  (8) 
-8.9900000000000002

>  <m_primary>  (8) 
energy

>  <rmsd>  (8) 
7.079473821157229

>  <m_score__min__rmsd>  (8) 
7.079473821157229

>  <meeko>  (8) 
{"free_energy": -7.55, "intermolecular_energy": -9.05, "internal_energy": -2.07, "cluster_size": 7, "cluster_id": 4, "rank_in_cluster": 5}

>  <energy>  (8) 
-8.73

>  <cluster_rmsd>  (8) 
0.82

>  <cluster>  (8) 
1

$$$$

     RDKit          3D

 55 58  0  0  0  0  0  0  0  0999 V2000
  141.4210   72.0410  221.6650 O   0  0  0  0  0  0  0  0  0  0  0  0
  140.5490   72.3580  222.5300 C   0  0  0  0  0  0  0  0  0  0  0  0
  139.8350   73.5780  222.3450 N   0  0  0  0  0  0  0  0  0  0  0  0
  140.1490   74.3710  221.1950 C   0  0  0  0  0  0  0  0  0  0  0  0
  140.0670   75.8330  221.4740 C   0  0  0  0  0  0  0  0  0  0  0  0
  139.2020   76.3010  222.2580 O   0  0  0  0  0  0  0  0  0  0  0  0
  141.0020   76.6830  220.8210 N   0  0  0  0  0  0  0  0  0  0  0  0
  142.2470   76.1830  220.2550 C   0  0  0  0  0  0  0  0  0  0  0  0
  142.4430   76.6150  218.8330 C   0  0  0  0  0  0  0  0  0  0  0  0
  141.3140   77.4890  218.3340 C   0  0  0  0  0  0  0  0  0  0  0  0
  140.9920   78.6050  219.3010 C   0  0  0  0  0  0  0  0  0  0  0  0
  140.7340   78.0870  220.6980 C   0  0  2  0  0  0  0  0  0  0  0  0
  141.6250   78.8510  221.6410 C   0  0  0  0  0  0  0  0  0  0  0  0
  141.0990   78.8840  223.0530 C   0  0  0  0  0  0  0  0  0  0  0  0
  142.1730   79.5580  223.8920 C   0  0  0  0  0  0  0  0  0  0  0  0
  142.4750   80.8330  223.4870 O   0  0  0  0  0  0  0  0  0  0  0  0
  141.8560   81.2630  222.3400 C   0  0  0  0  0  0  0  0  0  0  0  0
  141.8450   80.2710  221.2140 C   0  0  0  0  0  0  0  0  0  0  0  0
  140.2710   71.5030  223.6880 C   0  0  0  0  0  0  0  0  0  0  0  0
  139.5690   70.3280  223.4710 C   0  0  0  0  0  0  0  0  0  0  0  0
  139.3030   69.5160  224.5640 C   0  0  0  0  0  0  0  0  0  0  0  0
  139.7450   69.9130  225.7960 C   0  0  0  0  0  0  0  0  0  0  0  0
  139.4860   69.1100  226.8900 C   0  0  0  0  0  0  0  0  0  0  0  0
  139.9060   69.4510  228.1750 C   0  0  0  0  0  0  0  0  0  0  0  0
  140.6080   70.6430  228.3380 C   0  0  0  0  0  0  0  0  0  0  0  0
  140.8840   71.4720  227.2550 C   0  0  0  0  0  0  0  0  0  0  0  0
  140.4520   71.1010  225.9970 C   0  0  0  0  0  0  0  0  0  0  0  0
  140.6930   71.8730  224.9020 N   0  0  0  0  0  0  0  0  0  0  0  0
  139.1030   73.8530  223.0600 H   0  0  0  0  0  0  0  0  0  0  0  0
  141.1714   74.1304  220.8683 H   0  0  0  0  0  0  0  0  0  0  0  0
  139.4109   74.1365  220.4139 H   0  0  0  0  0  0  0  0  0  0  0  0
  143.0859   76.5610  220.8578 H   0  0  0  0  0  0  0  0  0  0  0  0
  142.2037   75.0839  220.2685 H   0  0  0  0  0  0  0  0  0  0  0  0
  143.3844   77.1796  218.7621 H   0  0  0  0  0  0  0  0  0  0  0  0
  142.4671   75.7099  218.2083 H   0  0  0  0  0  0  0  0  0  0  0  0
  141.6052   77.9286  217.3686 H   0  0  0  0  0  0  0  0  0  0  0  0
  140.4176   76.8599  218.2305 H   0  0  0  0  0  0  0  0  0  0  0  0
  141.8410   79.3037  219.3324 H   0  0  0  0  0  0  0  0  0  0  0  0
  140.0776   79.1056  218.9499 H   0  0  0  0  0  0  0  0  0  0  0  0
  139.6697   78.2312  220.9355 H   0  0  0  0  0  0  0  0  0  0  0  0
  142.5755   78.2983  221.6103 H   0  0  0  0  0  0  0  0  0  0  0  0
  140.1631   79.4603  223.0976 H   0  0  0  0  0  0  0  0  0  0  0  0
  140.8798   77.8712  223.4221 H   0  0  0  0  0  0  0  0  0  0  0  0
  141.8235   79.5991  224.9342 H   0  0  0  0  0  0  0  0  0  0  0  0
  143.0896   78.9608  223.7776 H   0  0  0  0  0  0  0  0  0  0  0  0
  140.8130   81.5098  222.5873 H   0  0  0  0  0  0  0  0  0  0  0  0
  142.4367   82.1263  221.9829 H   0  0  0  0  0  0  0  0  0  0  0  0
  141.0399   80.5495  220.5181 H   0  0  0  0  0  0  0  0  0  0  0  0
  142.8430   80.3088  220.7529 H   0  0  0  0  0  0  0  0  0  0  0  0
  139.2326   70.0475  222.4620 H   0  0  0  0  0  0  0  0  0  0  0  0
  138.7488   68.5736  224.4425 H   0  0  0  0  0  0  0  0  0  0  0  0
  138.9308   68.1719  226.7426 H   0  0  0  0  0  0  0  0  0  0  0  0
  139.6896   68.7986  229.0338 H   0  0  0  0  0  0  0  0  0  0  0  0
  140.9507   70.9345  229.3418 H   0  0  0  0  0  0  0  0  0  0  0  0
  141.4391   72.4107  227.3991 H   0  0  0  0  0  0  0  0  0  0  0  0
  1  2  2  0
  2  3  1  0
  3  4  1  0
  4  5  1  0
  5  6  2  0
  5  7  1  0
  7  8  1  0
  8  9  1  0
  9 10  1  0
 10 11  1  0
 11 12  1  0
 12 13  1  0
 13 14  1  0
 14 15  1  0
 15 16  1  0
 16 17  1  0
 17 18  1  0
  2 19  1  0
 19 20  2  0
 20 21  1  0
 21 22  2  0
 22 23  1  0
 23 24  2  0
 24 25  1  0
 25 26  2  0
 26 27  1  0
 27 28  2  0
 12  7  1  0
 18 13  1  0
 28 19  1  0
 27 22  1  0
  3 29  1  0
  4 30  1  0
  4 31  1  0
  8 32  1  0
  8 33  1  0
  9 34  1  0
  9 35  1  0
 10 36  1  0
 10 37  1  0
 11 38  1  0
 11 39  1  0
 12 40  1  1
 13 41  1  0
 14 42  1  0
 14 43  1  0
 15 44  1  0
 15 45  1  0
 17 46  1  0
 17 47  1  0
 18 48  1  0
 18 49  1  0
 20 50  1  0
 21 51  1  0
 23 52  1  0
 24 53  1  0
 25 54  1  0
 26 55  1  0
M  END
>  <smiles>  (9) 
O=C(NCC(=O)N1CCCCC1C1CCOCC1)c1ccc2ccccc2n1

>  <score_type>  (9) 
oracle

>  <origin>  (9) 
autodockgpu

>  <m_score__min__energy>  (9) 
-8.9900000000000002

>  <m_primary>  (9) 
energy

>  <rmsd>  (9) 
2.196315597515573

>  <m_score__min__rmsd>  (9) 
2.196315597515573

>  <meeko>  (9) 
{"free_energy": -8.72, "intermolecular_energy": -10.21, "internal_energy": -1.47, "cluster_size": 18, "cluster_id": 3, "rank_in_cluster": 5}

>  <energy>  (9) 
-8.68

>  <cluster_rmsd>  (9) 
0.63

>  <cluster>  (9) 
1

$$$$

     RDKit          3D

 55 58  0  0  0  0  0  0  0  0999 V2000
  141.1570   72.1690  221.6750 O   0  0  0  0  0  0  0  0  0  0  0  0
  140.2430   72.3210  222.5420 C   0  0  0  0  0  0  0  0  0  0  0  0
  139.2820   73.3520  222.3270 N   0  0  0  0  0  0  0  0  0  0  0  0
  139.4100   74.1530  221.1480 C   0  0  0  0  0  0  0  0  0  0  0  0
  139.6730   75.5860  221.4590 C   0  0  0  0  0  0  0  0  0  0  0  0
  138.8630   76.2660  222.1390 O   0  0  0  0  0  0  0  0  0  0  0  0
  140.8750   76.1600  220.9600 N   0  0  0  0  0  0  0  0  0  0  0  0
  142.1110   75.3990  220.8390 C   0  0  0  0  0  0  0  0  0  0  0  0
  142.7200   75.5120  219.4740 C   0  0  0  0  0  0  0  0  0  0  0  0
  141.9220   76.4120  218.5570 C   0  0  0  0  0  0  0  0  0  0  0  0
  141.5780   77.7290  219.2140 C   0  0  0  0  0  0  0  0  0  0  0  0
  140.9000   77.5350  220.5520 C   0  0  2  0  0  0  0  0  0  0  0  0
  141.6570   78.3460  221.5710 C   0  0  0  0  0  0  0  0  0  0  0  0
  140.9860   78.3720  222.9200 C   0  0  0  0  0  0  0  0  0  0  0  0
  141.9390   79.1000  223.8550 C   0  0  0  0  0  0  0  0  0  0  0  0
  142.2290   80.3820  223.4650 O   0  0  0  0  0  0  0  0  0  0  0  0
  141.7150   80.7730  222.2530 C   0  0  0  0  0  0  0  0  0  0  0  0
  141.8610   79.7690  221.1470 C   0  0  0  0  0  0  0  0  0  0  0  0
  140.1650   71.4690  223.7320 C   0  0  0  0  0  0  0  0  0  0  0  0
  139.5820   70.2190  223.5950 C   0  0  0  0  0  0  0  0  0  0  0  0
  139.5050   69.4080  224.7180 C   0  0  0  0  0  0  0  0  0  0  0  0
  140.0050   69.8800  225.9000 C   0  0  0  0  0  0  0  0  0  0  0  0
  139.9320   69.0790  227.0240 C   0  0  0  0  0  0  0  0  0  0  0  0
  140.4220   69.4940  228.2610 C   0  0  0  0  0  0  0  0  0  0  0  0
  140.9980   70.7610  228.3450 C   0  0  0  0  0  0  0  0  0  0  0  0
  141.0850   71.5890  227.2300 C   0  0  0  0  0  0  0  0  0  0  0  0
  140.5890   71.1430  226.0220 C   0  0  0  0  0  0  0  0  0  0  0  0
  140.6470   71.9110  224.8990 N   0  0  0  0  0  0  0  0  0  0  0  0
  138.5130   73.4880  223.0430 H   0  0  0  0  0  0  0  0  0  0  0  0
  140.2440   73.7637  220.5456 H   0  0  0  0  0  0  0  0  0  0  0  0
  138.4571   74.0986  220.6012 H   0  0  0  0  0  0  0  0  0  0  0  0
  142.8317   75.7756  221.5797 H   0  0  0  0  0  0  0  0  0  0  0  0
  141.8711   74.3396  221.0127 H   0  0  0  0  0  0  0  0  0  0  0  0
  143.7361   75.9215  219.5737 H   0  0  0  0  0  0  0  0  0  0  0  0
  142.7315   74.5063  219.0286 H   0  0  0  0  0  0  0  0  0  0  0  0
  142.5140   76.6109  217.6515 H   0  0  0  0  0  0  0  0  0  0  0  0
  140.9805   75.8985  218.3124 H   0  0  0  0  0  0  0  0  0  0  0  0
  142.5041   78.3030  219.3651 H   0  0  0  0  0  0  0  0  0  0  0  0
  140.8803   78.2656  218.5543 H   0  0  0  0  0  0  0  0  0  0  0  0
  139.8533   77.8623  220.4665 H   0  0  0  0  0  0  0  0  0  0  0  0
  142.6275   77.8339  221.6477 H   0  0  0  0  0  0  0  0  0  0  0  0
  140.0278   78.9088  222.8588 H   0  0  0  0  0  0  0  0  0  0  0  0
  140.7708   77.3551  223.2799 H   0  0  0  0  0  0  0  0  0  0  0  0
  141.4821   79.1372  224.8549 H   0  0  0  0  0  0  0  0  0  0  0  0
  142.8863   78.5410  223.8439 H   0  0  0  0  0  0  0  0  0  0  0  0
  140.6428   80.9785  222.3877 H   0  0  0  0  0  0  0  0  0  0  0  0
  142.2942   81.6558  221.9445 H   0  0  0  0  0  0  0  0  0  0  0  0
  141.1210   80.0053  220.3681 H   0  0  0  0  0  0  0  0  0  0  0  0
  142.8987   79.8443  220.7900 H   0  0  0  0  0  0  0  0  0  0  0  0
  139.1917   69.8799  222.6241 H   0  0  0  0  0  0  0  0  0  0  0  0
  139.0518   68.4074  224.6589 H   0  0  0  0  0  0  0  0  0  0  0  0
  139.4729   68.0830  226.9396 H   0  0  0  0  0  0  0  0  0  0  0  0
  140.3563   68.8417  229.1443 H   0  0  0  0  0  0  0  0  0  0  0  0
  141.3909   71.1125  229.3105 H   0  0  0  0  0  0  0  0  0  0  0  0
  141.5431   72.5858  227.3105 H   0  0  0  0  0  0  0  0  0  0  0  0
  1  2  2  0
  2  3  1  0
  3  4  1  0
  4  5  1  0
  5  6  2  0
  5  7  1  0
  7  8  1  0
  8  9  1  0
  9 10  1  0
 10 11  1  0
 11 12  1  0
 12 13  1  0
 13 14  1  0
 14 15  1  0
 15 16  1  0
 16 17  1  0
 17 18  1  0
  2 19  1  0
 19 20  2  0
 20 21  1  0
 21 22  2  0
 22 23  1  0
 23 24  2  0
 24 25  1  0
 25 26  2  0
 26 27  1  0
 27 28  2  0
 12  7  1  0
 18 13  1  0
 28 19  1  0
 27 22  1  0
  3 29  1  0
  4 30  1  0
  4 31  1  0
  8 32  1  0
  8 33  1  0
  9 34  1  0
  9 35  1  0
 10 36  1  0
 10 37  1  0
 11 38  1  0
 11 39  1  0
 12 40  1  6
 13 41  1  0
 14 42  1  0
 14 43  1  0
 15 44  1  0
 15 45  1  0
 17 46  1  0
 17 47  1  0
 18 48  1  0
 18 49  1  0
 20 50  1  0
 21 51  1  0
 23 52  1  0
 24 53  1  0
 25 54  1  0
 26 55  1  0
M  END
>  <smiles>  (10) 
O=C(NCC(=O)N1CCCCC1C1CCOCC1)c1ccc2ccccc2n1

>  <score_type>  (10) 
oracle

>  <origin>  (10) 
autodockgpu

>  <m_score__min__energy>  (10) 
-8.9900000000000002

>  <m_primary>  (10) 
energy

>  <rmsd>  (10) 
2.053733802633213

>  <m_score__min__rmsd>  (10) 
2.053733802633213

>  <meeko>  (10) 
{"free_energy": -8.66, "intermolecular_energy": -10.15, "internal_energy": -1.43, "cluster_size": 18, "cluster_id": 3, "rank_in_cluster": 10}

>  <energy>  (10) 
-8.66

>  <cluster_rmsd>  (10) 
0.68

>  <cluster>  (10) 
1

$$$$

     RDKit          3D

 55 58  0  0  0  0  0  0  0  0999 V2000
  141.2860   72.5200  221.9300 O   0  0  0  0  0  0  0  0  0  0  0  0
  140.2480   72.5040  222.6590 C   0  0  0  0  0  0  0  0  0  0  0  0
  139.2060   73.4300  222.3600 N   0  0  0  0  0  0  0  0  0  0  0  0
  139.3970   74.3220  221.2570 C   0  0  0  0  0  0  0  0  0  0  0  0
  140.2770   75.4730  221.6040 C   0  0  0  0  0  0  0  0  0  0  0  0
  141.4770   75.3010  221.9420 O   0  0  0  0  0  0  0  0  0  0  0  0
  139.7140   76.7780  221.5390 N   0  0  0  0  0  0  0  0  0  0  0  0
  139.0860   77.2970  220.3310 C   0  0  0  0  0  0  0  0  0  0  0  0
  137.7180   77.8520  220.5920 C   0  0  0  0  0  0  0  0  0  0  0  0
  137.3280   77.7670  222.0510 C   0  0  0  0  0  0  0  0  0  0  0  0
  138.4150   78.2940  222.9590 C   0  0  0  0  0  0  0  0  0  0  0  0
  139.7490   77.6350  222.6880 C   0  0  2  0  0  0  0  0  0  0  0  0
  140.7630   78.7270  222.4690 C   0  0  0  0  0  0  0  0  0  0  0  0
  141.8260   78.7670  223.5360 C   0  0  0  0  0  0  0  0  0  0  0  0
  142.8350   79.8140  223.0930 C   0  0  0  0  0  0  0  0  0  0  0  0
  142.3010   81.0670  222.9310 O   0  0  0  0  0  0  0  0  0  0  0  0
  140.9400   81.1660  223.0840 C   0  0  0  0  0  0  0  0  0  0  0  0
  140.1450   80.0900  222.4020 C   0  0  0  0  0  0  0  0  0  0  0  0
  140.1090   71.5650  223.7760 C   0  0  0  0  0  0  0  0  0  0  0  0
  139.4200   70.3850  223.5480 C   0  0  0  0  0  0  0  0  0  0  0  0
  139.2860   69.4940  224.6030 C   0  0  0  0  0  0  0  0  0  0  0  0
  139.8380   69.8210  225.8100 C   0  0  0  0  0  0  0  0  0  0  0  0
  139.7090   68.9390  226.8650 C   0  0  0  0  0  0  0  0  0  0  0  0
  140.2470   69.2070  228.1240 C   0  0  0  0  0  0  0  0  0  0  0  0
  140.9310   70.4090  228.3000 C   0  0  0  0  0  0  0  0  0  0  0  0
  141.0760   71.3160  227.2550 C   0  0  0  0  0  0  0  0  0  0  0  0
  140.5300   71.0160  226.0230 C   0  0  0  0  0  0  0  0  0  0  0  0
  140.6410   71.8660  224.9660 N   0  0  0  0  0  0  0  0  0  0  0  0
  138.3330   73.4260  222.9610 H   0  0  0  0  0  0  0  0  0  0  0  0
  139.8553   73.7644  220.4269 H   0  0  0  0  0  0  0  0  0  0  0  0
  138.4125   74.7247  220.9766 H   0  0  0  0  0  0  0  0  0  0  0  0
  139.7191   78.0967  219.9192 H   0  0  0  0  0  0  0  0  0  0  0  0
  138.9800   76.4622  219.6226 H   0  0  0  0  0  0  0  0  0  0  0  0
  137.7005   78.9075  220.2829 H   0  0  0  0  0  0  0  0  0  0  0  0
  136.9978   77.2508  220.0176 H   0  0  0  0  0  0  0  0  0  0  0  0
  136.4147   78.3592  222.2096 H   0  0  0  0  0  0  0  0  0  0  0  0
  137.1631   76.7077  222.2975 H   0  0  0  0  0  0  0  0  0  0  0  0
  138.5156   79.3778  222.8004 H   0  0  0  0  0  0  0  0  0  0  0  0
  138.1294   78.0684  223.9970 H   0  0  0  0  0  0  0  0  0  0  0  0
  140.0108   77.0031  223.5495 H   0  0  0  0  0  0  0  0  0  0  0  0
  141.2184   78.4738  221.5002 H   0  0  0  0  0  0  0  0  0  0  0  0
  141.3845   79.0487  224.5033 H   0  0  0  0  0  0  0  0  0  0  0  0
  142.3008   77.7831  223.6648 H   0  0  0  0  0  0  0  0  0  0  0  0
  143.6298   79.8716  223.8512 H   0  0  0  0  0  0  0  0  0  0  0  0
  143.2120   79.4980  222.1091 H   0  0  0  0  0  0  0  0  0  0  0  0
  140.7138   81.1275  224.1598 H   0  0  0  0  0  0  0  0  0  0  0  0
  140.6453   82.1136  222.6095 H   0  0  0  0  0  0  0  0  0  0  0  0
  139.1536   80.0419  222.8761 H   0  0  0  0  0  0  0  0  0  0  0  0
  140.0984   80.3615  221.3370 H   0  0  0  0  0  0  0  0  0  0  0  0
  138.9918   70.1611  222.5598 H   0  0  0  0  0  0  0  0  0  0  0  0
  138.7468   68.5443  224.4709 H   0  0  0  0  0  0  0  0  0  0  0  0
  139.1651   67.9959  226.7077 H   0  0  0  0  0  0  0  0  0  0  0  0
  140.1349   68.4919  228.9523 H   0  0  0  0  0  0  0  0  0  0  0  0
  141.3641   70.6447  229.2833 H   0  0  0  0  0  0  0  0  0  0  0  0
  141.6189   72.2603  227.4085 H   0  0  0  0  0  0  0  0  0  0  0  0
  1  2  2  0
  2  3  1  0
  3  4  1  0
  4  5  1  0
  5  6  2  0
  5  7  1  0
  7  8  1  0
  8  9  1  0
  9 10  1  0
 10 11  1  0
 11 12  1  0
 12 13  1  0
 13 14  1  0
 14 15  1  0
 15 16  1  0
 16 17  1  0
 17 18  1  0
  2 19  1  0
 19 20  2  0
 20 21  1  0
 21 22  2  0
 22 23  1  0
 23 24  2  0
 24 25  1  0
 25 26  2  0
 26 27  1  0
 27 28  2  0
 12  7  1  0
 18 13  1  0
 28 19  1  0
 27 22  1  0
  3 29  1  0
  4 30  1  0
  4 31  1  0
  8 32  1  0
  8 33  1  0
  9 34  1  0
  9 35  1  0
 10 36  1  0
 10 37  1  0
 11 38  1  0
 11 39  1  0
 12 40  1  1
 13 41  1  0
 14 42  1  0
 14 43  1  0
 15 44  1  0
 15 45  1  0
 17 46  1  0
 17 47  1  0
 18 48  1  0
 18 49  1  0
 20 50  1  0
 21 51  1  0
 23 52  1  0
 24 53  1  0
 25 54  1  0
 26 55  1  0
M  END
>  <smiles>  (11) 
O=C(NCC(=O)N1CCCCC1C1CCOCC1)c1ccc2ccccc2n1

>  <score_type>  (11) 
oracle

>  <origin>  (11) 
autodockgpu

>  <m_score__min__energy>  (11) 
-8.9900000000000002

>  <m_primary>  (11) 
energy

>  <rmsd>  (11) 
2.8382380533344786

>  <m_score__min__rmsd>  (11) 
2.8382380533344786

>  <meeko>  (11) 
{"free_energy": -8.61, "intermolecular_energy": -10.1, "internal_energy": -1.27, "cluster_size": 18, "cluster_id": 3, "rank_in_cluster": 15}

>  <energy>  (11) 
-8.62

>  <cluster_rmsd>  (11) 
0.68

>  <cluster>  (11) 
1

$$$$

     RDKit          3D

 55 58  0  0  0  0  0  0  0  0999 V2000
  141.1310   71.7870  221.4590 O   0  0  0  0  0  0  0  0  0  0  0  0
  140.4620   72.2250  222.4440 C   0  0  0  0  0  0  0  0  0  0  0  0
  139.9040   73.5330  222.3450 N   0  0  0  0  0  0  0  0  0  0  0  0
  140.1350   74.2720  221.1410 C   0  0  0  0  0  0  0  0  0  0  0  0
  140.0600   75.7450  221.3550 C   0  0  0  0  0  0  0  0  0  0  0  0
  139.1440   76.2590  222.0480 O   0  0  0  0  0  0  0  0  0  0  0  0
  141.0610   76.5520  220.7470 N   0  0  0  0  0  0  0  0  0  0  0  0
  142.3240   76.0030  220.2730 C   0  0  0  0  0  0  0  0  0  0  0  0
  142.6230   76.3980  218.8580 C   0  0  0  0  0  0  0  0  0  0  0  0
  141.5570   77.2960  218.2710 C   0  0  0  0  0  0  0  0  0  0  0  0
  141.2100   78.4400  219.1940 C   0  0  0  0  0  0  0  0  0  0  0  0
  140.8470   77.9600  220.5810 C   0  0  2  0  0  0  0  0  0  0  0  0
  141.7000   78.7170  221.5650 C   0  0  0  0  0  0  0  0  0  0  0  0
  141.1650   78.6620  222.9730 C   0  0  0  0  0  0  0  0  0  0  0  0
  142.2050   79.3410  223.8500 C   0  0  0  0  0  0  0  0  0  0  0  0
  142.4560   80.6450  223.5060 O   0  0  0  0  0  0  0  0  0  0  0  0
  141.8260   81.1010  222.3750 C   0  0  0  0  0  0  0  0  0  0  0  0
  141.8630   80.1620  221.2050 C   0  0  0  0  0  0  0  0  0  0  0  0
  140.2590   71.4200  223.6520 C   0  0  0  0  0  0  0  0  0  0  0  0
  139.6040   70.2060  223.5190 C   0  0  0  0  0  0  0  0  0  0  0  0
  139.4100   69.4410  224.6600 C   0  0  0  0  0  0  0  0  0  0  0  0
  139.8710   69.9190  225.8540 C   0  0  0  0  0  0  0  0  0  0  0  0
  139.6820   69.1640  226.9950 C   0  0  0  0  0  0  0  0  0  0  0  0
  140.1250   69.5890  228.2470 C   0  0  0  0  0  0  0  0  0  0  0  0
  140.7780   70.8180  228.3270 C   0  0  0  0  0  0  0  0  0  0  0  0
  140.9830   71.6000  227.1940 C   0  0  0  0  0  0  0  0  0  0  0  0
  140.5290   71.1470  225.9720 C   0  0  0  0  0  0  0  0  0  0  0  0
  140.7020   71.8700  224.8320 N   0  0  0  0  0  0  0  0  0  0  0  0
  139.3420   73.9100  223.1610 H   0  0  0  0  0  0  0  0  0  0  0  0
  141.1355   74.0211  220.7590 H   0  0  0  0  0  0  0  0  0  0  0  0
  139.3485   73.9971  220.4227 H   0  0  0  0  0  0  0  0  0  0  0  0
  143.1339   76.3695  220.9208 H   0  0  0  0  0  0  0  0  0  0  0  0
  142.2468   74.9062  220.3061 H   0  0  0  0  0  0  0  0  0  0  0  0
  143.5849   76.9311  218.8361 H   0  0  0  0  0  0  0  0  0  0  0  0
  142.6566   75.4793  218.2540 H   0  0  0  0  0  0  0  0  0  0  0  0
  141.9235   77.7067  217.3186 H   0  0  0  0  0  0  0  0  0  0  0  0
  140.6493   76.6929  218.1211 H   0  0  0  0  0  0  0  0  0  0  0  0
  142.0772   79.1128  219.2669 H   0  0  0  0  0  0  0  0  0  0  0  0
  140.3360   78.9605  218.7755 H   0  0  0  0  0  0  0  0  0  0  0  0
  139.7749   78.1417  220.7474 H   0  0  0  0  0  0  0  0  0  0  0  0
  142.6735   78.2071  221.5164 H   0  0  0  0  0  0  0  0  0  0  0  0
  140.2053   79.1957  223.0372 H   0  0  0  0  0  0  0  0  0  0  0  0
  140.9867   77.6249  223.2933 H   0  0  0  0  0  0  0  0  0  0  0  0
  141.8481   79.3197  224.8903 H   0  0  0  0  0  0  0  0  0  0  0  0
  143.1464   78.7882  223.7153 H   0  0  0  0  0  0  0  0  0  0  0  0
  140.7721   81.2926  222.6254 H   0  0  0  0  0  0  0  0  0  0  0  0
  142.3721   82.0031  222.0620 H   0  0  0  0  0  0  0  0  0  0  0  0
  141.0511   80.4385  220.5163 H   0  0  0  0  0  0  0  0  0  0  0  0
  142.8612   80.2622  220.7539 H   0  0  0  0  0  0  0  0  0  0  0  0
  139.2484   69.8591  222.5376 H   0  0  0  0  0  0  0  0  0  0  0  0
  138.8959   68.4701  224.6045 H   0  0  0  0  0  0  0  0  0  0  0  0
  139.1654   68.1963  226.9134 H   0  0  0  0  0  0  0  0  0  0  0  0
  139.9641   68.9732  229.1442 H   0  0  0  0  0  0  0  0  0  0  0  0
  141.1377   71.1761  229.3029 H   0  0  0  0  0  0  0  0  0  0  0  0
  141.5007   72.5675  227.2716 H   0  0  0  0  0  0  0  0  0  0  0  0
  1  2  2  0
  2  3  1  0
  3  4  1  0
  4  5  1  0
  5  6  2  0
  5  7  1  0
  7  8  1  0
  8  9  1  0
  9 10  1  0
 10 11  1  0
 11 12  1  0
 12 13  1  0
 13 14  1  0
 14 15  1  0
 15 16  1  0
 16 17  1  0
 17 18  1  0
  2 19  1  0
 19 20  2  0
 20 21  1  0
 21 22  2  0
 22 23  1  0
 23 24  2  0
 24 25  1  0
 25 26  2  0
 26 27  1  0
 27 28  2  0
 12  7  1  0
 18 13  1  0
 28 19  1  0
 27 22  1  0
  3 29  1  0
  4 30  1  0
  4 31  1  0
  8 32  1  0
  8 33  1  0
  9 34  1  0
  9 35  1  0
 10 36  1  0
 10 37  1  0
 11 38  1  0
 11 39  1  0
 12 40  1  1
 13 41  1  0
 14 42  1  0
 14 43  1  0
 15 44  1  0
 15 45  1  0
 17 46  1  0
 17 47  1  0
 18 48  1  0
 18 49  1  0
 20 50  1  0
 21 51  1  0
 23 52  1  0
 24 53  1  0
 25 54  1  0
 26 55  1  0
M  END
>  <smiles>  (12) 
O=C(NCC(=O)N1CCCCC1C1CCOCC1)c1ccc2ccccc2n1

>  <score_type>  (12) 
oracle

>  <origin>  (12) 
autodockgpu

>  <m_score__min__energy>  (12) 
-8.9900000000000002

>  <m_primary>  (12) 
energy

>  <rmsd>  (12) 
2.148483516676412

>  <m_score__min__rmsd>  (12) 
2.148483516676412

>  <meeko>  (12) 
{"free_energy": -8.68, "intermolecular_energy": -10.17, "internal_energy": -1.48, "cluster_size": 18, "cluster_id": 3, "rank_in_cluster": 6}

>  <energy>  (12) 
-8.45

>  <cluster_rmsd>  (12) 
0.52

>  <cluster>  (12) 
1

$$$$

     RDKit          3D

 55 58  0  0  0  0  0  0  0  0999 V2000
  139.5540   70.9150  221.3770 O   0  0  0  0  0  0  0  0  0  0  0  0
  139.6920   71.4780  222.5050 C   0  0  0  0  0  0  0  0  0  0  0  0
  139.7930   72.9000  222.5360 N   0  0  0  0  0  0  0  0  0  0  0  0
  139.7340   73.6040  221.2910 C   0  0  0  0  0  0  0  0  0  0  0  0
  140.7030   74.7340  221.2300 C   0  0  0  0  0  0  0  0  0  0  0  0
  140.8000   75.5630  222.1710 O   0  0  0  0  0  0  0  0  0  0  0  0
  141.5180   74.8440  220.0690 N   0  0  0  0  0  0  0  0  0  0  0  0
  141.0010   74.6000  218.7290 C   0  0  0  0  0  0  0  0  0  0  0  0
  141.3170   75.7190  217.7840 C   0  0  0  0  0  0  0  0  0  0  0  0
  142.1210   76.8210  218.4390 C   0  0  0  0  0  0  0  0  0  0  0  0
  143.3050   76.2790  219.2050 C   0  0  0  0  0  0  0  0  0  0  0  0
  142.8990   75.2070  220.1920 C   0  0  2  0  0  0  0  0  0  0  0  0
  143.7600   73.9980  219.9340 C   0  0  0  0  0  0  0  0  0  0  0  0
  145.1070   74.0810  220.6050 C   0  0  0  0  0  0  0  0  0  0  0  0
  145.7840   72.7400  220.3680 C   0  0  0  0  0  0  0  0  0  0  0  0
  145.9500   72.4280  219.0430 O   0  0  0  0  0  0  0  0  0  0  0  0
  145.3940   73.3040  218.1440 C   0  0  0  0  0  0  0  0  0  0  0  0
  144.0020   73.7550  218.4750 C   0  0  0  0  0  0  0  0  0  0  0  0
  139.7470   70.7030  223.7480 C   0  0  0  0  0  0  0  0  0  0  0  0
  139.2190   69.4210  223.7340 C   0  0  0  0  0  0  0  0  0  0  0  0
  139.2680   68.6830  224.9080 C   0  0  0  0  0  0  0  0  0  0  0  0
  139.8310   69.2530  226.0150 C   0  0  0  0  0  0  0  0  0  0  0  0
  139.8840   68.5250  227.1890 C   0  0  0  0  0  0  0  0  0  0  0  0
  140.4450   69.0420  228.3560 C   0  0  0  0  0  0  0  0  0  0  0  0
  140.9610   70.3360  228.3160 C   0  0  0  0  0  0  0  0  0  0  0  0
  140.9210   71.0930  227.1490 C   0  0  0  0  0  0  0  0  0  0  0  0
  140.3590   70.5470  226.0130 C   0  0  0  0  0  0  0  0  0  0  0  0
  140.2930   71.2410  224.8440 N   0  0  0  0  0  0  0  0  0  0  0  0
  139.9080   73.3820  223.4730 H   0  0  0  0  0  0  0  0  0  0  0  0
  139.9604   72.9003  220.4764 H   0  0  0  0  0  0  0  0  0  0  0  0
  138.7224   74.0244  221.1915 H   0  0  0  0  0  0  0  0  0  0  0  0
  141.4479   73.6728  218.3410 H   0  0  0  0  0  0  0  0  0  0  0  0
  139.9063   74.5196  218.8006 H   0  0  0  0  0  0  0  0  0  0  0  0
  141.8947   75.3151  216.9395 H   0  0  0  0  0  0  0  0  0  0  0  0
  140.3634   76.1541  217.4504 H   0  0  0  0  0  0  0  0  0  0  0  0
  142.4858   77.5059  217.6594 H   0  0  0  0  0  0  0  0  0  0  0  0
  141.4651   77.3425  219.1516 H   0  0  0  0  0  0  0  0  0  0  0  0
  144.0238   75.8505  218.4911 H   0  0  0  0  0  0  0  0  0  0  0  0
  143.7527   77.1095  219.7706 H   0  0  0  0  0  0  0  0  0  0  0  0
  143.0376   75.5961  221.2115 H   0  0  0  0  0  0  0  0  0  0  0  0
  143.1812   73.1658  220.3612 H   0  0  0  0  0  0  0  0  0  0  0  0
  145.7036   74.8925  220.1629 H   0  0  0  0  0  0  0  0  0  0  0  0
  145.0065   74.2943  221.6794 H   0  0  0  0  0  0  0  0  0  0  0  0
  146.7748   72.7631  220.8452 H   0  0  0  0  0  0  0  0  0  0  0  0
  145.1263   71.9699  220.7975 H   0  0  0  0  0  0  0  0  0  0  0  0
  146.0378   74.1944  218.0926 H   0  0  0  0  0  0  0  0  0  0  0  0
  145.3221   72.7608  217.1902 H   0  0  0  0  0  0  0  0  0  0  0  0
  143.8060   74.6920  217.9331 H   0  0  0  0  0  0  0  0  0  0  0  0
  143.3283   72.9381  218.1770 H   0  0  0  0  0  0  0  0  0  0  0  0
  138.7745   69.0015  222.8194 H   0  0  0  0  0  0  0  0  0  0  0  0
  138.8624   67.6612  224.9468 H   0  0  0  0  0  0  0  0  0  0  0  0
  139.4706   67.5058  227.2029 H   0  0  0  0  0  0  0  0  0  0  0  0
  140.4793   68.4466  229.2803 H   0  0  0  0  0  0  0  0  0  0  0  0
  141.4082   70.7670  229.2239 H   0  0  0  0  0  0  0  0  0  0  0  0
  141.3320   72.1132  227.1322 H   0  0  0  0  0  0  0  0  0  0  0  0
  1  2  2  0
  2  3  1  0
  3  4  1  0
  4  5  1  0
  5  6  2  0
  5  7  1  0
  7  8  1  0
  8  9  1  0
  9 10  1  0
 10 11  1  0
 11 12  1  0
 12 13  1  0
 13 14  1  0
 14 15  1  0
 15 16  1  0
 16 17  1  0
 17 18  1  0
  2 19  1  0
 19 20  2  0
 20 21  1  0
 21 22  2  0
 22 23  1  0
 23 24  2  0
 24 25  1  0
 25 26  2  0
 26 27  1  0
 27 28  2  0
 12  7  1  0
 18 13  1  0
 28 19  1  0
 27 22  1  0
  3 29  1  0
  4 30  1  0
  4 31  1  0
  8 32  1  0
  8 33  1  0
  9 34  1  0
  9 35  1  0
 10 36  1  0
 10 37  1  0
 11 38  1  0
 11 39  1  0
 12 40  1  1
 13 41  1  0
 14 42  1  0
 14 43  1  0
 15 44  1  0
 15 45  1  0
 17 46  1  0
 17 47  1  0
 18 48  1  0
 18 49  1  0
 20 50  1  0
 21 51  1  0
 23 52  1  0
 24 53  1  0
 25 54  1  0
 26 55  1  0
M  END
>  <smiles>  (13) 
O=C(NCC(=O)N1CCCCC1C1CCOCC1)c1ccc2ccccc2n1

>  <score_type>  (13) 
oracle

>  <origin>  (13) 
autodockgpu

>  <m_score__min__energy>  (13) 
-8.9900000000000002

>  <m_primary>  (13) 
energy

>  <rmsd>  (13) 
1.7434275261486207

>  <m_score__min__rmsd>  (13) 
1.7434275261486207

>  <meeko>  (13) 
{"free_energy": -8.66, "intermolecular_energy": -10.15, "internal_energy": -1.57, "cluster_size": 17, "cluster_id": 1, "rank_in_cluster": 10}

>  <energy>  (13) 
-8.4

>  <cluster_rmsd>  (13) 
0.6

>  <cluster>  (13) 
1

$$$$

     RDKit          3D

 55 58  0  0  0  0  0  0  0  0999 V2000
  141.2150   72.3290  221.7680 O   0  0  0  0  0  0  0  0  0  0  0  0
  140.2530   72.3900  222.5940 C   0  0  0  0  0  0  0  0  0  0  0  0
  139.2280   73.3520  222.3570 N   0  0  0  0  0  0  0  0  0  0  0  0
  139.3490   74.1920  221.2050 C   0  0  0  0  0  0  0  0  0  0  0  0
  139.6050   75.6150  221.5630 C   0  0  0  0  0  0  0  0  0  0  0  0
  138.8110   76.2570  222.2990 O   0  0  0  0  0  0  0  0  0  0  0  0
  140.7790   76.2270  221.0430 N   0  0  0  0  0  0  0  0  0  0  0  0
  142.0200   75.4900  220.8470 C   0  0  0  0  0  0  0  0  0  0  0  0
  142.5760   75.6650  219.4660 C   0  0  0  0  0  0  0  0  0  0  0  0
  141.7320   76.5880  218.6150 C   0  0  0  0  0  0  0  0  0  0  0  0
  141.3950   77.8720  219.3360 C   0  0  0  0  0  0  0  0  0  0  0  0
  140.7700   77.6170  220.6890 C   0  0  2  0  0  0  0  0  0  0  0  0
  141.5540   78.3990  221.7100 C   0  0  0  0  0  0  0  0  0  0  0  0
  140.8720   78.4630  223.0530 C   0  0  0  0  0  0  0  0  0  0  0  0
  141.8480   79.1520  223.9930 C   0  0  0  0  0  0  0  0  0  0  0  0
  142.2000   80.4170  223.5980 O   0  0  0  0  0  0  0  0  0  0  0  0
  141.7160   80.8240  222.3790 C   0  0  0  0  0  0  0  0  0  0  0  0
  141.8270   79.8080  221.2810 C   0  0  0  0  0  0  0  0  0  0  0  0
  140.1850   71.5020  223.7580 C   0  0  0  0  0  0  0  0  0  0  0  0
  139.6130   70.2520  223.5850 C   0  0  0  0  0  0  0  0  0  0  0  0
  139.5450   69.4070  224.6840 C   0  0  0  0  0  0  0  0  0  0  0  0
  140.0430   69.8480  225.8780 C   0  0  0  0  0  0  0  0  0  0  0  0
  139.9800   69.0140  226.9780 C   0  0  0  0  0  0  0  0  0  0  0  0
  140.4690   69.3970  228.2260 C   0  0  0  0  0  0  0  0  0  0  0  0
  141.0340   70.6650  228.3470 C   0  0  0  0  0  0  0  0  0  0  0  0
  141.1110   71.5270  227.2570 C   0  0  0  0  0  0  0  0  0  0  0  0
  140.6170   71.1130  226.0360 C   0  0  0  0  0  0  0  0  0  0  0  0
  140.6660   71.9140  224.9370 N   0  0  0  0  0  0  0  0  0  0  0  0
  138.4190   73.4120  223.0390 H   0  0  0  0  0  0  0  0  0  0  0  0
  140.1837   73.8274  220.5883 H   0  0  0  0  0  0  0  0  0  0  0  0
  138.3953   74.1505  220.6585 H   0  0  0  0  0  0  0  0  0  0  0  0
  142.7626   75.8486  221.5750 H   0  0  0  0  0  0  0  0  0  0  0  0
  141.8014   74.4212  220.9878 H   0  0  0  0  0  0  0  0  0  0  0  0
  143.5894   76.0855  219.5443 H   0  0  0  0  0  0  0  0  0  0  0  0
  142.5845   74.6776  218.9812 H   0  0  0  0  0  0  0  0  0  0  0  0
  142.2871   76.8313  217.6970 H   0  0  0  0  0  0  0  0  0  0  0  0
  140.7892   76.0703  218.3844 H   0  0  0  0  0  0  0  0  0  0  0  0
  142.3184   78.4533  219.4756 H   0  0  0  0  0  0  0  0  0  0  0  0
  140.6655   78.4228  218.7241 H   0  0  0  0  0  0  0  0  0  0  0  0
  139.7166   77.9321  220.6556 H   0  0  0  0  0  0  0  0  0  0  0  0
  142.4997   77.8441  221.7979 H   0  0  0  0  0  0  0  0  0  0  0  0
  139.9398   79.0424  222.9799 H   0  0  0  0  0  0  0  0  0  0  0  0
  140.6075   77.4589  223.4160 H   0  0  0  0  0  0  0  0  0  0  0  0
  141.3837   79.2164  224.9881 H   0  0  0  0  0  0  0  0  0  0  0  0
  142.7687   78.5501  223.9950 H   0  0  0  0  0  0  0  0  0  0  0  0
  140.6530   81.0788  222.5018 H   0  0  0  0  0  0  0  0  0  0  0  0
  142.3374   81.6779  222.0713 H   0  0  0  0  0  0  0  0  0  0  0  0
  141.1066   80.0732  220.4931 H   0  0  0  0  0  0  0  0  0  0  0  0
  142.8708   79.8335  220.9349 H   0  0  0  0  0  0  0  0  0  0  0  0
  139.2240   69.9383  222.6050 H   0  0  0  0  0  0  0  0  0  0  0  0
  139.1002   68.4048  224.5960 H   0  0  0  0  0  0  0  0  0  0  0  0
  139.5299   68.0166  226.8653 H   0  0  0  0  0  0  0  0  0  0  0  0
  140.4106   68.7183  229.0897 H   0  0  0  0  0  0  0  0  0  0  0  0
  141.4263   70.9906  229.3217 H   0  0  0  0  0  0  0  0  0  0  0  0
  141.5597   72.5253  227.3669 H   0  0  0  0  0  0  0  0  0  0  0  0
  1  2  2  0
  2  3  1  0
  3  4  1  0
  4  5  1  0
  5  6  2  0
  5  7  1  0
  7  8  1  0
  8  9  1  0
  9 10  1  0
 10 11  1  0
 11 12  1  0
 12 13  1  0
 13 14  1  0
 14 15  1  0
 15 16  1  0
 16 17  1  0
 17 18  1  0
  2 19  1  0
 19 20  2  0
 20 21  1  0
 21 22  2  0
 22 23  1  0
 23 24  2  0
 24 25  1  0
 25 26  2  0
 26 27  1  0
 27 28  2  0
 12  7  1  0
 18 13  1  0
 28 19  1  0
 27 22  1  0
  3 29  1  0
  4 30  1  0
  4 31  1  0
  8 32  1  0
  8 33  1  0
  9 34  1  0
  9 35  1  0
 10 36  1  0
 10 37  1  0
 11 38  1  0
 11 39  1  0
 12 40  1  6
 13 41  1  0
 14 42  1  0
 14 43  1  0
 15 44  1  0
 15 45  1  0
 17 46  1  0
 17 47  1  0
 18 48  1  0
 18 49  1  0
 20 50  1  0
 21 51  1  0
 23 52  1  0
 24 53  1  0
 25 54  1  0
 26 55  1  0
M  END
>  <smiles>  (14) 
O=C(NCC(=O)N1CCCCC1C1CCOCC1)c1ccc2ccccc2n1

>  <score_type>  (14) 
oracle

>  <origin>  (14) 
autodockgpu

>  <m_score__min__energy>  (14) 
-8.9900000000000002

>  <m_primary>  (14) 
energy

>  <rmsd>  (14) 
2.0558865591972744

>  <m_score__min__rmsd>  (14) 
2.0558865591972744

>  <meeko>  (14) 
{"free_energy": -8.67, "intermolecular_energy": -10.16, "internal_energy": -1.43, "cluster_size": 18, "cluster_id": 3, "rank_in_cluster": 9}

>  <energy>  (14) 
-8.2

>  <cluster_rmsd>  (14) 
0.7

>  <cluster>  (14) 
1

$$$$

     RDKit          3D

 55 58  0  0  0  0  0  0  0  0999 V2000
  141.4190   72.2750  221.7590 O   0  0  0  0  0  0  0  0  0  0  0  0
  140.4600   72.4460  222.5730 C   0  0  0  0  0  0  0  0  0  0  0  0
  139.5730   73.5380  222.3420 N   0  0  0  0  0  0  0  0  0  0  0  0
  139.8200   74.3740  221.2080 C   0  0  0  0  0  0  0  0  0  0  0  0
  139.9700   75.8090  221.5810 C   0  0  0  0  0  0  0  0  0  0  0  0
  139.2400   76.3350  222.4610 O   0  0  0  0  0  0  0  0  0  0  0  0
  140.9690   76.5660  220.9080 N   0  0  0  0  0  0  0  0  0  0  0  0
  142.2110   75.9710  220.4350 C   0  0  0  0  0  0  0  0  0  0  0  0
  142.4820   76.2850  218.9950 C   0  0  0  0  0  0  0  0  0  0  0  0
  141.4160   77.1680  218.3850 C   0  0  0  0  0  0  0  0  0  0  0  0
  141.1080   78.3660  219.2530 C   0  0  0  0  0  0  0  0  0  0  0  0
  140.7720   77.9670  220.6720 C   0  0  2  0  0  0  0  0  0  0  0  0
  141.6600   78.7600  221.5940 C   0  0  0  0  0  0  0  0  0  0  0  0
  141.1410   78.8160  223.0080 C   0  0  0  0  0  0  0  0  0  0  0  0
  142.2120   79.5190  223.8260 C   0  0  0  0  0  0  0  0  0  0  0  0
  142.4980   80.7890  223.3940 O   0  0  0  0  0  0  0  0  0  0  0  0
  141.8660   81.1890  222.2410 C   0  0  0  0  0  0  0  0  0  0  0  0
  141.8600   80.1730  221.1360 C   0  0  0  0  0  0  0  0  0  0  0  0
  140.2590   71.5540  223.7190 C   0  0  0  0  0  0  0  0  0  0  0  0
  139.5830   70.3640  223.5010 C   0  0  0  0  0  0  0  0  0  0  0  0
  139.3890   69.5160  224.5820 C   0  0  0  0  0  0  0  0  0  0  0  0
  139.8720   69.8950  225.8040 C   0  0  0  0  0  0  0  0  0  0  0  0
  139.6830   69.0570  226.8860 C   0  0  0  0  0  0  0  0  0  0  0  0
  140.1480   69.3780  228.1610 C   0  0  0  0  0  0  0  0  0  0  0  0
  140.8210   70.5870  228.3260 C   0  0  0  0  0  0  0  0  0  0  0  0
  141.0250   71.4510  227.2550 C   0  0  0  0  0  0  0  0  0  0  0  0
  140.5510   71.0990  226.0070 C   0  0  0  0  0  0  0  0  0  0  0  0
  140.7220   71.9050  224.9240 N   0  0  0  0  0  0  0  0  0  0  0  0
  138.7680   73.6900  223.0140 H   0  0  0  0  0  0  0  0  0  0  0  0
  140.7452   74.0383  220.7167 H   0  0  0  0  0  0  0  0  0  0  0  0
  138.9533   74.2914  220.5357 H   0  0  0  0  0  0  0  0  0  0  0  0
  143.0421   76.3573  221.0434 H   0  0  0  0  0  0  0  0  0  0  0  0
  142.1170   74.8790  220.5285 H   0  0  0  0  0  0  0  0  0  0  0  0
  143.4511   76.8003  218.9225 H   0  0  0  0  0  0  0  0  0  0  0  0
  142.4871   75.3350  218.4406 H   0  0  0  0  0  0  0  0  0  0  0  0
  141.7661   77.5210  217.4038 H   0  0  0  0  0  0  0  0  0  0  0  0
  140.4960   76.5727  218.2888 H   0  0  0  0  0  0  0  0  0  0  0  0
  141.9863   79.0280  219.2689 H   0  0  0  0  0  0  0  0  0  0  0  0
  140.2317   78.8770  218.8276 H   0  0  0  0  0  0  0  0  0  0  0  0
  139.7074   78.1759  220.8534 H   0  0  0  0  0  0  0  0  0  0  0  0
  142.6170   78.2182  221.5698 H   0  0  0  0  0  0  0  0  0  0  0  0
  140.1989   79.3826  223.0461 H   0  0  0  0  0  0  0  0  0  0  0  0
  140.9348   77.8088  223.3992 H   0  0  0  0  0  0  0  0  0  0  0  0
  141.8682   79.5774  224.8693 H   0  0  0  0  0  0  0  0  0  0  0  0
  143.1345   78.9298  223.7173 H   0  0  0  0  0  0  0  0  0  0  0  0
  140.8217   81.4288  222.4898 H   0  0  0  0  0  0  0  0  0  0  0  0
  142.4338   82.0517  221.8625 H   0  0  0  0  0  0  0  0  0  0  0  0
  141.0472   80.4271  220.4397 H   0  0  0  0  0  0  0  0  0  0  0  0
  142.8546   80.2130  220.6679 H   0  0  0  0  0  0  0  0  0  0  0  0
  139.2110   70.0994  222.5002 H   0  0  0  0  0  0  0  0  0  0  0  0
  138.8586   68.5602  224.4588 H   0  0  0  0  0  0  0  0  0  0  0  0
  139.1490   68.1069  226.7372 H   0  0  0  0  0  0  0  0  0  0  0  0
  139.9884   68.6976  229.0105 H   0  0  0  0  0  0  0  0  0  0  0  0
  141.1980   70.8633  229.3218 H   0  0  0  0  0  0  0  0  0  0  0  0
  141.5572   72.4026  227.4006 H   0  0  0  0  0  0  0  0  0  0  0  0
  1  2  2  0
  2  3  1  0
  3  4  1  0
  4  5  1  0
  5  6  2  0
  5  7  1  0
  7  8  1  0
  8  9  1  0
  9 10  1  0
 10 11  1  0
 11 12  1  0
 12 13  1  0
 13 14  1  0
 14 15  1  0
 15 16  1  0
 16 17  1  0
 17 18  1  0
  2 19  1  0
 19 20  2  0
 20 21  1  0
 21 22  2  0
 22 23  1  0
 23 24  2  0
 24 25  1  0
 25 26  2  0
 26 27  1  0
 27 28  2  0
 12  7  1  0
 18 13  1  0
 28 19  1  0
 27 22  1  0
  3 29  1  0
  4 30  1  0
  4 31  1  0
  8 32  1  0
  8 33  1  0
  9 34  1  0
  9 35  1  0
 10 36  1  0
 10 37  1  0
 11 38  1  0
 11 39  1  0
 12 40  1  1
 13 41  1  0
 14 42  1  0
 14 43  1  0
 15 44  1  0
 15 45  1  0
 17 46  1  0
 17 47  1  0
 18 48  1  0
 18 49  1  0
 20 50  1  0
 21 51  1  0
 23 52  1  0
 24 53  1  0
 25 54  1  0
 26 55  1  0
M  END
>  <smiles>  (15) 
O=C(NCC(=O)N1CCCCC1C1CCOCC1)c1ccc2ccccc2n1

>  <score_type>  (15) 
oracle

>  <origin>  (15) 
autodockgpu

>  <m_score__min__energy>  (15) 
-8.9900000000000002

>  <m_primary>  (15) 
energy

>  <rmsd>  (15) 
2.1311285615092674

>  <m_score__min__rmsd>  (15) 
2.1311285615092674

>  <meeko>  (15) 
{"free_energy": -8.78, "intermolecular_energy": -10.27, "internal_energy": -1.42, "cluster_size": 18, "cluster_id": 3, "rank_in_cluster": 2}

>  <energy>  (15) 
-8.18

>  <cluster_rmsd>  (15) 
0.7

>  <cluster>  (15) 
1

$$$$

     RDKit          3D

 55 58  0  0  0  0  0  0  0  0999 V2000
  141.3030   72.2100  221.7460 O   0  0  0  0  0  0  0  0  0  0  0  0
  140.3280   72.3270  222.5480 C   0  0  0  0  0  0  0  0  0  0  0  0
  139.3450   73.3200  222.2660 N   0  0  0  0  0  0  0  0  0  0  0  0
  139.5200   74.1240  221.0950 C   0  0  0  0  0  0  0  0  0  0  0  0
  140.7550   74.9560  221.1570 C   0  0  0  0  0  0  0  0  0  0  0  0
  141.0670   75.5870  222.2000 O   0  0  0  0  0  0  0  0  0  0  0  0
  141.5720   75.0130  219.9940 N   0  0  0  0  0  0  0  0  0  0  0  0
  141.0490   74.7500  218.6600 C   0  0  0  0  0  0  0  0  0  0  0  0
  141.3960   75.8350  217.6860 C   0  0  0  0  0  0  0  0  0  0  0  0
  142.2310   76.9290  218.3130 C   0  0  0  0  0  0  0  0  0  0  0  0
  143.3990   76.3730  219.0940 C   0  0  0  0  0  0  0  0  0  0  0  0
  142.9640   75.3390  220.1080 C   0  0  2  0  0  0  0  0  0  0  0  0
  143.7890   74.1000  219.8810 C   0  0  0  0  0  0  0  0  0  0  0  0
  145.1190   74.1420  220.5890 C   0  0  0  0  0  0  0  0  0  0  0  0
  145.7550   72.7770  220.3800 C   0  0  0  0  0  0  0  0  0  0  0  0
  145.9490   72.4500  219.0620 O   0  0  0  0  0  0  0  0  0  0  0  0
  145.4480   73.3380  218.1420 C   0  0  0  0  0  0  0  0  0  0  0  0
  144.0640   73.8400  218.4310 C   0  0  0  0  0  0  0  0  0  0  0  0
  140.2030   71.4730  223.7330 C   0  0  0  0  0  0  0  0  0  0  0  0
  139.5640   70.2520  223.5860 C   0  0  0  0  0  0  0  0  0  0  0  0
  139.4420   69.4400  224.7040 C   0  0  0  0  0  0  0  0  0  0  0  0
  139.9560   69.8820  225.8910 C   0  0  0  0  0  0  0  0  0  0  0  0
  139.8400   69.0800  227.0100 C   0  0  0  0  0  0  0  0  0  0  0  0
  140.3400   69.4660  228.2530 C   0  0  0  0  0  0  0  0  0  0  0  0
  140.9730   70.7040  228.3480 C   0  0  0  0  0  0  0  0  0  0  0  0
  141.1050   71.5330  227.2380 C   0  0  0  0  0  0  0  0  0  0  0  0
  140.5970   71.1170  226.0240 C   0  0  0  0  0  0  0  0  0  0  0  0
  140.6970   71.8870  224.9060 N   0  0  0  0  0  0  0  0  0  0  0  0
  138.5250   73.4270  222.9290 H   0  0  0  0  0  0  0  0  0  0  0  0
  139.5832   73.4625  220.2184 H   0  0  0  0  0  0  0  0  0  0  0  0
  138.6595   74.8055  221.0241 H   0  0  0  0  0  0  0  0  0  0  0  0
  141.4699   73.8010  218.2963 H   0  0  0  0  0  0  0  0  0  0  0  0
  139.9524   74.7030  218.7330 H   0  0  0  0  0  0  0  0  0  0  0  0
  141.9614   75.3933  216.8522 H   0  0  0  0  0  0  0  0  0  0  0  0
  140.4551   76.2883  217.3405 H   0  0  0  0  0  0  0  0  0  0  0  0
  142.6156   77.5829  217.5164 H   0  0  0  0  0  0  0  0  0  0  0  0
  141.5903   77.4871  219.0115 H   0  0  0  0  0  0  0  0  0  0  0  0
  144.1053   75.9061  218.3918 H   0  0  0  0  0  0  0  0  0  0  0  0
  143.8694   77.2049  219.6386 H   0  0  0  0  0  0  0  0  0  0  0  0
  143.1153   75.7495  221.1173 H   0  0  0  0  0  0  0  0  0  0  0  0
  143.1700   73.2908  220.2958 H   0  0  0  0  0  0  0  0  0  0  0  0
  145.7554   74.9290  220.1583 H   0  0  0  0  0  0  0  0  0  0  0  0
  144.9963   74.3671  221.6587 H   0  0  0  0  0  0  0  0  0  0  0  0
  146.7316   72.7688  220.8862 H   0  0  0  0  0  0  0  0  0  0  0  0
  145.0583   72.0334  220.7942 H   0  0  0  0  0  0  0  0  0  0  0  0
  146.1237   74.2051  218.1021 H   0  0  0  0  0  0  0  0  0  0  0  0
  145.3828   72.7897  217.1906 H   0  0  0  0  0  0  0  0  0  0  0  0
  143.9170   74.7801  217.8792 H   0  0  0  0  0  0  0  0  0  0  0  0
  143.3706   73.0455  218.1179 H   0  0  0  0  0  0  0  0  0  0  0  0
  139.1651   69.9359  222.6108 H   0  0  0  0  0  0  0  0  0  0  0  0
  138.9427   68.4621  224.6369 H   0  0  0  0  0  0  0  0  0  0  0  0
  139.3372   68.1060  226.9173 H   0  0  0  0  0  0  0  0  0  0  0  0
  140.2379   68.8130  229.1323 H   0  0  0  0  0  0  0  0  0  0  0  0
  141.3755   71.0318  229.3178 H   0  0  0  0  0  0  0  0  0  0  0  0
  141.6078   72.5073  227.3271 H   0  0  0  0  0  0  0  0  0  0  0  0
  1  2  2  0
  2  3  1  0
  3  4  1  0
  4  5  1  0
  5  6  2  0
  5  7  1  0
  7  8  1  0
  8  9  1  0
  9 10  1  0
 10 11  1  0
 11 12  1  0
 12 13  1  0
 13 14  1  0
 14 15  1  0
 15 16  1  0
 16 17  1  0
 17 18  1  0
  2 19  1  0
 19 20  2  0
 20 21  1  0
 21 22  2  0
 22 23  1  0
 23 24  2  0
 24 25  1  0
 25 26  2  0
 26 27  1  0
 27 28  2  0
 12  7  1  0
 18 13  1  0
 28 19  1  0
 27 22  1  0
  3 29  1  0
  4 30  1  0
  4 31  1  0
  8 32  1  0
  8 33  1  0
  9 34  1  0
  9 35  1  0
 10 36  1  0
 10 37  1  0
 11 38  1  0
 11 39  1  0
 12 40  1  1
 13 41  1  0
 14 42  1  0
 14 43  1  0
 15 44  1  0
 15 45  1  0
 17 46  1  0
 17 47  1  0
 18 48  1  0
 18 49  1  0
 20 50  1  0
 21 51  1  0
 23 52  1  0
 24 53  1  0
 25 54  1  0
 26 55  1  0
M  END
>  <smiles>  (16) 
O=C(NCC(=O)N1CCCCC1C1CCOCC1)c1ccc2ccccc2n1

>  <score_type>  (16) 
oracle

>  <origin>  (16) 
autodockgpu

>  <m_score__min__energy>  (16) 
-8.9900000000000002

>  <m_primary>  (16) 
energy

>  <rmsd>  (16) 
1.8598984606555826

>  <m_score__min__rmsd>  (16) 
1.8598984606555826

>  <meeko>  (16) 
{"free_energy": -8.99, "intermolecular_energy": -10.48, "internal_energy": -1.44, "cluster_size": 17, "cluster_id": 1, "rank_in_cluster": 1}

>  <energy>  (16) 
-8.08

>  <cluster_rmsd>  (16) 
1.23

>  <cluster>  (16) 
1

$$$$

     RDKit          3D

 55 58  0  0  0  0  0  0  0  0999 V2000
  140.8840   71.6270  221.3680 O   0  0  0  0  0  0  0  0  0  0  0  0
  140.3650   72.1400  222.4060 C   0  0  0  0  0  0  0  0  0  0  0  0
  139.9080   73.4880  222.3290 N   0  0  0  0  0  0  0  0  0  0  0  0
  140.0650   74.1800  221.0860 C   0  0  0  0  0  0  0  0  0  0  0  0
  139.9280   75.6560  221.2360 C   0  0  0  0  0  0  0  0  0  0  0  0
  138.8980   76.1690  221.7460 O   0  0  0  0  0  0  0  0  0  0  0  0
  141.0030   76.4690  220.7800 N   0  0  0  0  0  0  0  0  0  0  0  0
  142.2970   75.9140  220.4100 C   0  0  0  0  0  0  0  0  0  0  0  0
  142.7510   76.3750  219.0580 C   0  0  0  0  0  0  0  0  0  0  0  0
  141.7700   77.3290  218.4130 C   0  0  0  0  0  0  0  0  0  0  0  0
  141.3500   78.4320  219.3570 C   0  0  0  0  0  0  0  0  0  0  0  0
  140.8340   77.8890  220.6700 C   0  0  2  0  0  0  0  0  0  0  0  0
  141.5940   78.5710  221.7770 C   0  0  0  0  0  0  0  0  0  0  0  0
  140.8620   78.5510  223.0940 C   0  0  0  0  0  0  0  0  0  0  0  0
  141.8150   79.1420  224.1210 C   0  0  0  0  0  0  0  0  0  0  0  0
  142.2120   80.4240  223.8370 O   0  0  0  0  0  0  0  0  0  0  0  0
  141.7850   80.9340  222.6360 C   0  0  0  0  0  0  0  0  0  0  0  0
  141.9160   80.0010  221.4680 C   0  0  0  0  0  0  0  0  0  0  0  0
  140.2320   71.3800  223.6520 C   0  0  0  0  0  0  0  0  0  0  0  0
  139.6120   70.1420  223.5920 C   0  0  0  0  0  0  0  0  0  0  0  0
  139.4830   69.4190  224.7690 C   0  0  0  0  0  0  0  0  0  0  0  0
  139.9720   69.9610  225.9250 C   0  0  0  0  0  0  0  0  0  0  0  0
  139.8480   69.2480  227.1020 C   0  0  0  0  0  0  0  0  0  0  0  0
  140.3230   69.7380  228.3180 C   0  0  0  0  0  0  0  0  0  0  0  0
  140.9380   70.9880  228.3240 C   0  0  0  0  0  0  0  0  0  0  0  0
  141.0760   71.7290  227.1550 C   0  0  0  0  0  0  0  0  0  0  0  0
  140.5940   71.2110  225.9690 C   0  0  0  0  0  0  0  0  0  0  0  0
  140.7020   71.8920  224.7960 N   0  0  0  0  0  0  0  0  0  0  0  0
  139.4720   73.9270  223.1890 H   0  0  0  0  0  0  0  0  0  0  0  0
  141.0634   73.9573  220.6814 H   0  0  0  0  0  0  0  0  0  0  0  0
  139.2695   73.8366  220.4084 H   0  0  0  0  0  0  0  0  0  0  0  0
  143.0415   76.2249  221.1577 H   0  0  0  0  0  0  0  0  0  0  0  0
  142.1946   74.8194  220.3742 H   0  0  0  0  0  0  0  0  0  0  0  0
  143.7199   76.8845  219.1658 H   0  0  0  0  0  0  0  0  0  0  0  0
  142.8305   75.4887  218.4114 H   0  0  0  0  0  0  0  0  0  0  0  0
  142.2425   77.7797  217.5278 H   0  0  0  0  0  0  0  0  0  0  0  0
  140.8717   76.7576  218.1365 H   0  0  0  0  0  0  0  0  0  0  0  0
  142.2177   79.0780  219.5565 H   0  0  0  0  0  0  0  0  0  0  0  0
  140.5352   78.9957  218.8792 H   0  0  0  0  0  0  0  0  0  0  0  0
  139.7541   78.0885  220.7337 H   0  0  0  0  0  0  0  0  0  0  0  0
  142.5222   77.9863  221.8576 H   0  0  0  0  0  0  0  0  0  0  0  0
  139.9467   79.1578  223.0303 H   0  0  0  0  0  0  0  0  0  0  0  0
  140.5615   77.5292  223.3689 H   0  0  0  0  0  0  0  0  0  0  0  0
  141.3124   79.1437  225.0994 H   0  0  0  0  0  0  0  0  0  0  0  0
  142.7207   78.5178  224.1129 H   0  0  0  0  0  0  0  0  0  0  0  0
  140.7240   81.2055  222.7385 H   0  0  0  0  0  0  0  0  0  0  0  0
  142.4366   81.7929  222.4178 H   0  0  0  0  0  0  0  0  0  0  0  0
  141.2336   80.3436  220.6762 H   0  0  0  0  0  0  0  0  0  0  0  0
  142.9731   80.0255  221.1646 H   0  0  0  0  0  0  0  0  0  0  0  0
  139.2332   69.7442  222.6389 H   0  0  0  0  0  0  0  0  0  0  0  0
  138.9981   68.4317  224.7721 H   0  0  0  0  0  0  0  0  0  0  0  0
  139.3592   68.2628  227.0791 H   0  0  0  0  0  0  0  0  0  0  0  0
  140.2153   69.1551  229.2446 H   0  0  0  0  0  0  0  0  0  0  0  0
  141.3215   71.3965  229.2706 H   0  0  0  0  0  0  0  0  0  0  0  0
  141.5629   72.7152  227.1749 H   0  0  0  0  0  0  0  0  0  0  0  0
  1  2  2  0
  2  3  1  0
  3  4  1  0
  4  5  1  0
  5  6  2  0
  5  7  1  0
  7  8  1  0
  8  9  1  0
  9 10  1  0
 10 11  1  0
 11 12  1  0
 12 13  1  0
 13 14  1  0
 14 15  1  0
 15 16  1  0
 16 17  1  0
 17 18  1  0
  2 19  1  0
 19 20  2  0
 20 21  1  0
 21 22  2  0
 22 23  1  0
 23 24  2  0
 24 25  1  0
 25 26  2  0
 26 27  1  0
 27 28  2  0
 12  7  1  0
 18 13  1  0
 28 19  1  0
 27 22  1  0
  3 29  1  0
  4 30  1  0
  4 31  1  0
  8 32  1  0
  8 33  1  0
  9 34  1  0
  9 35  1  0
 10 36  1  0
 10 37  1  0
 11 38  1  0
 11 39  1  0
 12 40  1  1
 13 41  1  0
 14 42  1  0
 14 43  1  0
 15 44  1  0
 15 45  1  0
 17 46  1  0
 17 47  1  0
 18 48  1  0
 18 49  1  0
 20 50  1  0
 21 51  1  0
 23 52  1  0
 24 53  1  0
 25 54  1  0
 26 55  1  0
M  END
>  <smiles>  (17) 
O=C(NCC(=O)N1CCCCC1C1CCOCC1)c1ccc2ccccc2n1

>  <score_type>  (17) 
oracle

>  <origin>  (17) 
autodockgpu

>  <m_score__min__energy>  (17) 
-8.9900000000000002

>  <m_primary>  (17) 
energy

>  <rmsd>  (17) 
2.1666933416449705

>  <m_score__min__rmsd>  (17) 
2.1666933416449705

>  <meeko>  (17) 
{"free_energy": -8.67, "intermolecular_energy": -10.16, "internal_energy": -1.44, "cluster_size": 18, "cluster_id": 3, "rank_in_cluster": 8}

>  <energy>  (17) 
-8.07

>  <cluster_rmsd>  (17) 
0.94

>  <cluster>  (17) 
1

$$$$

     RDKit          3D

 55 58  0  0  0  0  0  0  0  0999 V2000
  137.5140   75.7700  222.5520 O   0  0  0  0  0  0  0  0  0  0  0  0
  138.7550   76.0190  222.4710 C   0  0  0  0  0  0  0  0  0  0  0  0
  139.6350   74.9400  222.1620 N   0  0  0  0  0  0  0  0  0  0  0  0
  139.0630   73.6440  221.9650 C   0  0  0  0  0  0  0  0  0  0  0  0
  139.9000   72.5580  222.5510 C   0  0  0  0  0  0  0  0  0  0  0  0
  141.1360   72.4920  222.3260 O   0  0  0  0  0  0  0  0  0  0  0  0
  139.2520   71.5970  223.3750 N   0  0  0  0  0  0  0  0  0  0  0  0
  137.8020   71.5170  223.4880 C   0  0  0  0  0  0  0  0  0  0  0  0
  137.2860   70.1290  223.2560 C   0  0  0  0  0  0  0  0  0  0  0  0
  138.3960   69.1370  222.9890 C   0  0  0  0  0  0  0  0  0  0  0  0
  139.5080   69.2440  224.0070 C   0  0  0  0  0  0  0  0  0  0  0  0
  140.0280   70.6590  224.1320 C   0  0  2  0  0  0  0  0  0  0  0  0
  139.9870   71.0340  225.5900 C   0  0  0  0  0  0  0  0  0  0  0  0
  141.3020   71.5640  226.0990 C   0  0  0  0  0  0  0  0  0  0  0  0
  141.0510   72.0260  227.5260 C   0  0  0  0  0  0  0  0  0  0  0  0
  140.6040   71.0330  228.3600 O   0  0  0  0  0  0  0  0  0  0  0  0
  140.3480   69.8200  227.7700 C   0  0  0  0  0  0  0  0  0  0  0  0
  139.5930   69.8910  226.4750 C   0  0  0  0  0  0  0  0  0  0  0  0
  139.2830   77.3700  222.6830 C   0  0  0  0  0  0  0  0  0  0  0  0
  138.3730   78.4090  222.7980 C   0  0  0  0  0  0  0  0  0  0  0  0
  138.8670   79.6900  222.9990 C   0  0  0  0  0  0  0  0  0  0  0  0
  140.2210   79.8640  223.0740 C   0  0  0  0  0  0  0  0  0  0  0  0
  140.7210   81.1360  223.2750 C   0  0  0  0  0  0  0  0  0  0  0  0
  142.0900   81.3870  223.3620 C   0  0  0  0  0  0  0  0  0  0  0  0
  142.9620   80.3080  223.2400 C   0  0  0  0  0  0  0  0  0  0  0  0
  142.4870   79.0160  223.0380 C   0  0  0  0  0  0  0  0  0  0  0  0
  141.1250   78.8050  222.9560 C   0  0  0  0  0  0  0  0  0  0  0  0
  140.6040   77.5630  222.7590 N   0  0  0  0  0  0  0  0  0  0  0  0
  140.6740   75.1360  222.0900 H   0  0  0  0  0  0  0  0  0  0  0  0
  138.0707   73.6201  222.4391 H   0  0  0  0  0  0  0  0  0  0  0  0
  138.9963   73.4682  220.8812 H   0  0  0  0  0  0  0  0  0  0  0  0
  137.5082   71.8388  224.4980 H   0  0  0  0  0  0  0  0  0  0  0  0
  137.3691   72.1691  222.7151 H   0  0  0  0  0  0  0  0  0  0  0  0
  136.7303   69.8052  224.1484 H   0  0  0  0  0  0  0  0  0  0  0  0
  136.6401   70.1563  222.3660 H   0  0  0  0  0  0  0  0  0  0  0  0
  137.9791   68.1197  223.0241 H   0  0  0  0  0  0  0  0  0  0  0  0
  138.8196   69.3596  221.9985 H   0  0  0  0  0  0  0  0  0  0  0  0
  139.1259   68.9184  224.9858 H   0  0  0  0  0  0  0  0  0  0  0  0
  140.3384   68.6054  223.6713 H   0  0  0  0  0  0  0  0  0  0  0  0
  141.0517   70.6950  223.7310 H   0  0  0  0  0  0  0  0  0  0  0  0
  139.2237   71.8246  225.6374 H   0  0  0  0  0  0  0  0  0  0  0  0
  142.0641   70.7709  226.0837 H   0  0  0  0  0  0  0  0  0  0  0  0
  141.6717   72.3878  225.4707 H   0  0  0  0  0  0  0  0  0  0  0  0
  141.9931   72.4223  227.9328 H   0  0  0  0  0  0  0  0  0  0  0  0
  140.2580   72.7870  227.4810 H   0  0  0  0  0  0  0  0  0  0  0  0
  141.3109   69.3246  227.5768 H   0  0  0  0  0  0  0  0  0  0  0  0
  139.7050   69.2671  228.4706 H   0  0  0  0  0  0  0  0  0  0  0  0
  139.7656   68.9544  225.9245 H   0  0  0  0  0  0  0  0  0  0  0  0
  138.5359   70.0466  226.7364 H   0  0  0  0  0  0  0  0  0  0  0  0
  137.2908   78.2235  222.7319 H   0  0  0  0  0  0  0  0  0  0  0  0
  138.1841   80.5469  223.0959 H   0  0  0  0  0  0  0  0  0  0  0  0
  140.0178   81.9766  223.3693 H   0  0  0  0  0  0  0  0  0  0  0  0
  142.4698   82.4069  223.5222 H   0  0  0  0  0  0  0  0  0  0  0  0
  144.0465   80.4804  223.3046 H   0  0  0  0  0  0  0  0  0  0  0  0
  143.1877   78.1732  222.9448 H   0  0  0  0  0  0  0  0  0  0  0  0
  1  2  2  0
  2  3  1  0
  3  4  1  0
  4  5  1  0
  5  6  2  0
  5  7  1  0
  7  8  1  0
  8  9  1  0
  9 10  1  0
 10 11  1  0
 11 12  1  0
 12 13  1  0
 13 14  1  0
 14 15  1  0
 15 16  1  0
 16 17  1  0
 17 18  1  0
  2 19  1  0
 19 20  2  0
 20 21  1  0
 21 22  2  0
 22 23  1  0
 23 24  2  0
 24 25  1  0
 25 26  2  0
 26 27  1  0
 27 28  2  0
 12  7  1  0
 18 13  1  0
 28 19  1  0
 27 22  1  0
  3 29  1  0
  4 30  1  0
  4 31  1  0
  8 32  1  0
  8 33  1  0
  9 34  1  0
  9 35  1  0
 10 36  1  0
 10 37  1  0
 11 38  1  0
 11 39  1  0
 12 40  1  6
 13 41  1  0
 14 42  1  0
 14 43  1  0
 15 44  1  0
 15 45  1  0
 17 46  1  0
 17 47  1  0
 18 48  1  0
 18 49  1  0
 20 50  1  0
 21 51  1  0
 23 52  1  0
 24 53  1  0
 25 54  1  0
 26 55  1  0
M  END
>  <smiles>  (18) 
O=C(NCC(=O)N1CCCCC1C1CCOCC1)c1ccc2ccccc2n1

>  <score_type>  (18) 
oracle

>  <origin>  (18) 
autodockgpu

>  <m_score__min__energy>  (18) 
-8.9900000000000002

>  <m_primary>  (18) 
energy

>  <rmsd>  (18) 
8.511682881038103

>  <m_score__min__rmsd>  (18) 
8.511682881038103

>  <meeko>  (18) 
{"free_energy": -8.16, "intermolecular_energy": -9.66, "internal_energy": -1.67, "cluster_size": 8, "cluster_id": 2, "rank_in_cluster": 8}

>  <energy>  (18) 
-8.95

>  <cluster_rmsd>  (18) 
0.0

>  <cluster>  (18) 
2

$$$$

     RDKit          3D

 55 58  0  0  0  0  0  0  0  0999 V2000
  140.0700   74.6620  222.3270 O   0  0  0  0  0  0  0  0  0  0  0  0
  140.0150   75.7090  221.6110 C   0  0  0  0  0  0  0  0  0  0  0  0
  139.7640   75.5530  220.2160 N   0  0  0  0  0  0  0  0  0  0  0  0
  139.5910   74.2260  219.7100 C   0  0  0  0  0  0  0  0  0  0  0  0
  140.7740   73.7540  218.9360 C   0  0  0  0  0  0  0  0  0  0  0  0
  140.8660   72.5620  218.5460 O   0  0  0  0  0  0  0  0  0  0  0  0
  141.7980   74.7000  218.6530 N   0  0  0  0  0  0  0  0  0  0  0  0
  141.9130   75.3600  217.3590 C   0  0  0  0  0  0  0  0  0  0  0  0
  142.0150   76.8490  217.4840 C   0  0  0  0  0  0  0  0  0  0  0  0
  142.0020   77.3110  218.9250 C   0  0  0  0  0  0  0  0  0  0  0  0
  142.9740   76.5300  219.7780 C   0  0  0  0  0  0  0  0  0  0  0  0
  142.7630   75.0380  219.6580 C   0  0  2  0  0  0  0  0  0  0  0  0
  144.0890   74.4150  219.3080 C   0  0  0  0  0  0  0  0  0  0  0  0
  143.9570   73.0180  218.7590 C   0  0  0  0  0  0  0  0  0  0  0  0
  145.3530   72.5960  218.3280 C   0  0  0  0  0  0  0  0  0  0  0  0
  146.2740   72.6030  219.3430 O   0  0  0  0  0  0  0  0  0  0  0  0
  145.8350   73.0860  220.5510 C   0  0  0  0  0  0  0  0  0  0  0  0
  145.0280   74.3490  220.4750 C   0  0  0  0  0  0  0  0  0  0  0  0
  140.2010   77.0430  222.1880 C   0  0  0  0  0  0  0  0  0  0  0  0
  139.0820   77.7000  222.6730 C   0  0  0  0  0  0  0  0  0  0  0  0
  139.2520   78.9640  223.2200 C   0  0  0  0  0  0  0  0  0  0  0  0
  140.5100   79.4970  223.2530 C   0  0  0  0  0  0  0  0  0  0  0  0
  140.6890   80.7550  223.7960 C   0  0  0  0  0  0  0  0  0  0  0  0
  141.9430   81.3600  223.8640 C   0  0  0  0  0  0  0  0  0  0  0  0
  143.0370   80.6570  223.3620 C   0  0  0  0  0  0  0  0  0  0  0  0
  142.8870   79.3890  222.8090 C   0  0  0  0  0  0  0  0  0  0  0  0
  141.6300   78.8210  222.7600 C   0  0  0  0  0  0  0  0  0  0  0  0
  141.4240   77.5840  222.2300 N   0  0  0  0  0  0  0  0  0  0  0  0
  139.7150   76.4190  219.6080 H   0  0  0  0  0  0  0  0  0  0  0  0
  139.4279   73.5435  220.5571 H   0  0  0  0  0  0  0  0  0  0  0  0
  138.7273   74.2369  219.0289 H   0  0  0  0  0  0  0  0  0  0  0  0
  142.8137   74.9858  216.8505 H   0  0  0  0  0  0  0  0  0  0  0  0
  141.0023   75.1335  216.7851 H   0  0  0  0  0  0  0  0  0  0  0  0
  142.9543   77.1789  217.0161 H   0  0  0  0  0  0  0  0  0  0  0  0
  141.1388   77.2875  216.9841 H   0  0  0  0  0  0  0  0  0  0  0  0
  142.2756   78.3759  218.9591 H   0  0  0  0  0  0  0  0  0  0  0  0
  140.9906   77.1473  219.3254 H   0  0  0  0  0  0  0  0  0  0  0  0
  143.9988   76.7703  219.4586 H   0  0  0  0  0  0  0  0  0  0  0  0
  142.8069   76.8127  220.8278 H   0  0  0  0  0  0  0  0  0  0  0  0
  142.3744   74.6596  220.6150 H   0  0  0  0  0  0  0  0  0  0  0  0
  144.4977   75.0820  218.5347 H   0  0  0  0  0  0  0  0  0  0  0  0
  143.5760   72.3380  219.5352 H   0  0  0  0  0  0  0  0  0  0  0  0
  143.2507   72.9843  217.9163 H   0  0  0  0  0  0  0  0  0  0  0  0
  145.2958   71.5763  217.9194 H   0  0  0  0  0  0  0  0  0  0  0  0
  145.6930   73.3311  217.5836 H   0  0  0  0  0  0  0  0  0  0  0  0
  145.2122   72.3112  221.0220 H   0  0  0  0  0  0  0  0  0  0  0  0
  146.7377   73.3329  221.1291 H   0  0  0  0  0  0  0  0  0  0  0  0
  144.4360   74.4350  221.3981 H   0  0  0  0  0  0  0  0  0  0  0  0
  145.7457   75.1728  220.3473 H   0  0  0  0  0  0  0  0  0  0  0  0
  138.0871   77.2331  222.6259 H   0  0  0  0  0  0  0  0  0  0  0  0
  138.3933   79.5244  223.6182 H   0  0  0  0  0  0  0  0  0  0  0  0
  139.8146   81.2959  224.1868 H   0  0  0  0  0  0  0  0  0  0  0  0
  142.0655   82.3621  224.3007 H   0  0  0  0  0  0  0  0  0  0  0  0
  144.0372   81.1130  223.4038 H   0  0  0  0  0  0  0  0  0  0  0  0
  143.7592   78.8461  222.4159 H   0  0  0  0  0  0  0  0  0  0  0  0
  1  2  2  0
  2  3  1  0
  3  4  1  0
  4  5  1  0
  5  6  2  0
  5  7  1  0
  7  8  1  0
  8  9  1  0
  9 10  1  0
 10 11  1  0
 11 12  1  0
 12 13  1  0
 13 14  1  0
 14 15  1  0
 15 16  1  0
 16 17  1  0
 17 18  1  0
  2 19  1  0
 19 20  2  0
 20 21  1  0
 21 22  2  0
 22 23  1  0
 23 24  2  0
 24 25  1  0
 25 26  2  0
 26 27  1  0
 27 28  2  0
 12  7  1  0
 18 13  1  0
 28 19  1  0
 27 22  1  0
  3 29  1  0
  4 30  1  0
  4 31  1  0
  8 32  1  0
  8 33  1  0
  9 34  1  0
  9 35  1  0
 10 36  1  0
 10 37  1  0
 11 38  1  0
 11 39  1  0
 12 40  1  1
 13 41  1  0
 14 42  1  0
 14 43  1  0
 15 44  1  0
 15 45  1  0
 17 46  1  0
 17 47  1  0
 18 48  1  0
 18 49  1  0
 20 50  1  0
 21 51  1  0
 23 52  1  0
 24 53  1  0
 25 54  1  0
 26 55  1  0
M  END
>  <smiles>  (19) 
O=C(NCC(=O)N1CCCCC1C1CCOCC1)c1ccc2ccccc2n1

>  <score_type>  (19) 
oracle

>  <origin>  (19) 
autodockgpu

>  <m_score__min__energy>  (19) 
-8.9900000000000002

>  <m_primary>  (19) 
energy

>  <rmsd>  (19) 
7.100798645958852

>  <m_score__min__rmsd>  (19) 
7.100798645958852

>  <meeko>  (19) 
{"free_energy": -7.53, "intermolecular_energy": -9.02, "internal_energy": -2.09, "cluster_size": 7, "cluster_id": 4, "rank_in_cluster": 6}

>  <energy>  (19) 
-8.94

>  <cluster_rmsd>  (19) 
0.06

>  <cluster>  (19) 
2

$$$$

     RDKit          3D

 55 58  0  0  0  0  0  0  0  0999 V2000
  141.1440   71.9990  221.6020 O   0  0  0  0  0  0  0  0  0  0  0  0
  140.2890   72.2410  222.5070 C   0  0  0  0  0  0  0  0  0  0  0  0
  139.4160   73.3540  222.3240 N   0  0  0  0  0  0  0  0  0  0  0  0
  139.5610   74.1300  221.1310 C   0  0  0  0  0  0  0  0  0  0  0  0
  140.7740   74.9940  221.1590 C   0  0  0  0  0  0  0  0  0  0  0  0
  141.0770   75.6630  222.1800 O   0  0  0  0  0  0  0  0  0  0  0  0
  141.5820   75.0380  219.9880 N   0  0  0  0  0  0  0  0  0  0  0  0
  141.0460   74.7660  218.6610 C   0  0  0  0  0  0  0  0  0  0  0  0
  141.3890   75.8410  217.6750 C   0  0  0  0  0  0  0  0  0  0  0  0
  142.2340   76.9380  218.2860 C   0  0  0  0  0  0  0  0  0  0  0  0
  143.4060   76.3840  219.0610 C   0  0  0  0  0  0  0  0  0  0  0  0
  142.9750   75.3600  220.0870 C   0  0  2  0  0  0  0  0  0  0  0  0
  143.7940   74.1160  219.8640 C   0  0  0  0  0  0  0  0  0  0  0  0
  145.1150   74.1420  220.5900 C   0  0  0  0  0  0  0  0  0  0  0  0
  145.7430   72.7730  220.3800 C   0  0  0  0  0  0  0  0  0  0  0  0
  145.9510   72.4530  219.0630 O   0  0  0  0  0  0  0  0  0  0  0  0
  145.4700   73.3510  218.1420 C   0  0  0  0  0  0  0  0  0  0  0  0
  144.0850   73.8610  218.4170 C   0  0  0  0  0  0  0  0  0  0  0  0
  140.1880   71.4080  223.7100 C   0  0  0  0  0  0  0  0  0  0  0  0
  139.5900   70.1650  223.5880 C   0  0  0  0  0  0  0  0  0  0  0  0
  139.4920   69.3730  224.7230 C   0  0  0  0  0  0  0  0  0  0  0  0
  139.9880   69.8560  225.9010 C   0  0  0  0  0  0  0  0  0  0  0  0
  139.8960   69.0750  227.0370 C   0  0  0  0  0  0  0  0  0  0  0  0
  140.3800   69.5030  228.2720 C   0  0  0  0  0  0  0  0  0  0  0  0
  140.9730   70.7620  228.3410 C   0  0  0  0  0  0  0  0  0  0  0  0
  141.0800   71.5710  227.2140 C   0  0  0  0  0  0  0  0  0  0  0  0
  140.5890   71.1140  226.0080 C   0  0  0  0  0  0  0  0  0  0  0  0
  140.6670   71.8620  224.8740 N   0  0  0  0  0  0  0  0  0  0  0  0
  138.6970   73.5650  223.0730 H   0  0  0  0  0  0  0  0  0  0  0  0
  139.6338   73.4468  220.2720 H   0  0  0  0  0  0  0  0  0  0  0  0
  138.6829   74.7876  221.0501 H   0  0  0  0  0  0  0  0  0  0  0  0
  141.4595   73.8121  218.3017 H   0  0  0  0  0  0  0  0  0  0  0  0
  139.9499   74.7244  218.7441 H   0  0  0  0  0  0  0  0  0  0  0  0
  141.9458   75.3899  216.8404 H   0  0  0  0  0  0  0  0  0  0  0  0
  140.4470   76.2949  217.3334 H   0  0  0  0  0  0  0  0  0  0  0  0
  142.6141   77.5838  217.4807 H   0  0  0  0  0  0  0  0  0  0  0  0
  141.6015   77.5046  218.9852 H   0  0  0  0  0  0  0  0  0  0  0  0
  144.1044   75.9085  218.3566 H   0  0  0  0  0  0  0  0  0  0  0  0
  143.8847   77.2183  219.5947 H   0  0  0  0  0  0  0  0  0  0  0  0
  143.1355   75.7790  221.0913 H   0  0  0  0  0  0  0  0  0  0  0  0
  143.1632   73.3099  220.2669 H   0  0  0  0  0  0  0  0  0  0  0  0
  145.7635   74.9267  220.1733 H   0  0  0  0  0  0  0  0  0  0  0  0
  144.9798   74.3606  221.6595 H   0  0  0  0  0  0  0  0  0  0  0  0
  146.7130   72.7538  220.8984 H   0  0  0  0  0  0  0  0  0  0  0  0
  145.0352   72.0323  220.7805 H   0  0  0  0  0  0  0  0  0  0  0  0
  146.1526   74.2133  218.1173 H   0  0  0  0  0  0  0  0  0  0  0  0
  145.4145   72.8106  217.1855 H   0  0  0  0  0  0  0  0  0  0  0  0
  143.9508   74.8046  217.8679 H   0  0  0  0  0  0  0  0  0  0  0  0
  143.3905   73.0723  218.0920 H   0  0  0  0  0  0  0  0  0  0  0  0
  139.2038   69.8156  222.6191 H   0  0  0  0  0  0  0  0  0  0  0  0
  139.0252   68.3781  224.6755 H   0  0  0  0  0  0  0  0  0  0  0  0
  139.4255   68.0833  226.9644 H   0  0  0  0  0  0  0  0  0  0  0  0
  140.2964   68.8662  229.1650 H   0  0  0  0  0  0  0  0  0  0  0  0
  141.3636   71.1229  229.3039 H   0  0  0  0  0  0  0  0  0  0  0  0
  141.5503   72.5629  227.2835 H   0  0  0  0  0  0  0  0  0  0  0  0
  1  2  2  0
  2  3  1  0
  3  4  1  0
  4  5  1  0
  5  6  2  0
  5  7  1  0
  7  8  1  0
  8  9  1  0
  9 10  1  0
 10 11  1  0
 11 12  1  0
 12 13  1  0
 13 14  1  0
 14 15  1  0
 15 16  1  0
 16 17  1  0
 17 18  1  0
  2 19  1  0
 19 20  2  0
 20 21  1  0
 21 22  2  0
 22 23  1  0
 23 24  2  0
 24 25  1  0
 25 26  2  0
 26 27  1  0
 27 28  2  0
 12  7  1  0
 18 13  1  0
 28 19  1  0
 27 22  1  0
  3 29  1  0
  4 30  1  0
  4 31  1  0
  8 32  1  0
  8 33  1  0
  9 34  1  0
  9 35  1  0
 10 36  1  0
 10 37  1  0
 11 38  1  0
 11 39  1  0
 12 40  1  1
 13 41  1  0
 14 42  1  0
 14 43  1  0
 15 44  1  0
 15 45  1  0
 17 46  1  0
 17 47  1  0
 18 48  1  0
 18 49  1  0
 20 50  1  0
 21 51  1  0
 23 52  1  0
 24 53  1  0
 25 54  1  0
 26 55  1  0
M  END
>  <smiles>  (20) 
O=C(NCC(=O)N1CCCCC1C1CCOCC1)c1ccc2ccccc2n1

>  <score_type>  (20) 
oracle

>  <origin>  (20) 
autodockgpu

>  <m_score__min__energy>  (20) 
-8.9900000000000002

>  <m_primary>  (20) 
energy

>  <rmsd>  (20) 
1.8423516036956955

>  <m_score__min__rmsd>  (20) 
1.8423516036956955

>  <meeko>  (20) 
{"free_energy": -8.98, "intermolecular_energy": -10.48, "internal_energy": -1.48, "cluster_size": 17, "cluster_id": 1, "rank_in_cluster": 2}

>  <energy>  (20) 
-8.94

>  <cluster_rmsd>  (20) 
0.07

>  <cluster>  (20) 
2

$$$$

     RDKit          3D

 55 58  0  0  0  0  0  0  0  0999 V2000
  141.3040   72.0070  221.7110 O   0  0  0  0  0  0  0  0  0  0  0  0
  140.3140   72.2140  222.4770 C   0  0  0  0  0  0  0  0  0  0  0  0
  139.3780   73.2220  222.1020 N   0  0  0  0  0  0  0  0  0  0  0  0
  139.6140   73.9390  220.8870 C   0  0  0  0  0  0  0  0  0  0  0  0
  140.6790   74.9710  221.0330 C   0  0  0  0  0  0  0  0  0  0  0  0
  140.7550   75.6900  222.0630 O   0  0  0  0  0  0  0  0  0  0  0  0
  141.6090   75.1170  219.9670 N   0  0  0  0  0  0  0  0  0  0  0  0
  141.1980   75.1210  218.5690 C   0  0  0  0  0  0  0  0  0  0  0  0
  141.7410   76.2980  217.8180 C   0  0  0  0  0  0  0  0  0  0  0  0
  142.6090   77.1860  218.6820 C   0  0  0  0  0  0  0  0  0  0  0  0
  143.6360   76.3930  219.4560 C   0  0  0  0  0  0  0  0  0  0  0  0
  143.0070   75.2690  220.2480 C   0  0  2  0  0  0  0  0  0  0  0  0
  143.7310   73.9970  219.8920 C   0  0  0  0  0  0  0  0  0  0  0  0
  145.0240   73.8250  220.6460 C   0  0  0  0  0  0  0  0  0  0  0  0
  145.5470   72.4440  220.2840 C   0  0  0  0  0  0  0  0  0  0  0  0
  145.7740   72.2700  218.9420 O   0  0  0  0  0  0  0  0  0  0  0  0
  145.3970   73.3100  218.1280 C   0  0  0  0  0  0  0  0  0  0  0  0
  144.0500   73.8970  218.4310 C   0  0  0  0  0  0  0  0  0  0  0  0
  140.1250   71.4470  223.7120 C   0  0  0  0  0  0  0  0  0  0  0  0
  139.3860   70.2770  223.6400 C   0  0  0  0  0  0  0  0  0  0  0  0
  139.2040   69.5470  224.8050 C   0  0  0  0  0  0  0  0  0  0  0  0
  139.7600   70.0150  225.9630 C   0  0  0  0  0  0  0  0  0  0  0  0
  139.5850   69.2940  227.1280 C   0  0  0  0  0  0  0  0  0  0  0  0
  140.1230   69.7110  228.3450 C   0  0  0  0  0  0  0  0  0  0  0  0
  140.8590   70.8950  228.3630 C   0  0  0  0  0  0  0  0  0  0  0  0
  141.0520   71.6410  227.2050 C   0  0  0  0  0  0  0  0  0  0  0  0
  140.5030   71.1970  226.0190 C   0  0  0  0  0  0  0  0  0  0  0  0
  140.6610   71.8870  224.8560 N   0  0  0  0  0  0  0  0  0  0  0  0
  138.5460   73.4030  222.7330 H   0  0  0  0  0  0  0  0  0  0  0  0
  139.9194   73.2241  220.1088 H   0  0  0  0  0  0  0  0  0  0  0  0
  138.6815   74.4559  220.6166 H   0  0  0  0  0  0  0  0  0  0  0  0
  141.5610   74.1990  218.0913 H   0  0  0  0  0  0  0  0  0  0  0  0
  140.1001   75.1832  218.5421 H   0  0  0  0  0  0  0  0  0  0  0  0
  142.3426   75.9306  216.9735 H   0  0  0  0  0  0  0  0  0  0  0  0
  140.8860   76.8987  217.4743 H   0  0  0  0  0  0  0  0  0  0  0  0
  143.1305   77.9087  218.0372 H   0  0  0  0  0  0  0  0  0  0  0  0
  141.9576   77.6968  219.4064 H   0  0  0  0  0  0  0  0  0  0  0  0
  144.3614   75.9656  218.7481 H   0  0  0  0  0  0  0  0  0  0  0  0
  144.1262   77.0751  220.1662 H   0  0  0  0  0  0  0  0  0  0  0  0
  143.0947   75.5011  221.3197 H   0  0  0  0  0  0  0  0  0  0  0  0
  143.0247   73.2032  220.1767 H   0  0  0  0  0  0  0  0  0  0  0  0
  145.7468   74.5974  220.3443 H   0  0  0  0  0  0  0  0  0  0  0  0
  144.8710   73.9235  221.7308 H   0  0  0  0  0  0  0  0  0  0  0  0
  146.4939   72.2808  220.8195 H   0  0  0  0  0  0  0  0  0  0  0  0
  144.7689   71.7220  220.5726 H   0  0  0  0  0  0  0  0  0  0  0  0
  146.1470   74.1088  218.2256 H   0  0  0  0  0  0  0  0  0  0  0  0
  145.3297   72.8955  217.1113 H   0  0  0  0  0  0  0  0  0  0  0  0
  144.0112   74.9086  218.0007 H   0  0  0  0  0  0  0  0  0  0  0  0
  143.3057   73.2152  217.9938 H   0  0  0  0  0  0  0  0  0  0  0  0
  138.9561   69.9371  222.6862 H   0  0  0  0  0  0  0  0  0  0  0  0
  138.6249   68.6118  224.7975 H   0  0  0  0  0  0  0  0  0  0  0  0
  139.0028   68.3613  227.0947 H   0  0  0  0  0  0  0  0  0  0  0  0
  139.9714   69.1238  229.2627 H   0  0  0  0  0  0  0  0  0  0  0  0
  141.2949   71.2455  229.3102 H   0  0  0  0  0  0  0  0  0  0  0  0
  141.6350   72.5733  227.2340 H   0  0  0  0  0  0  0  0  0  0  0  0
  1  2  2  0
  2  3  1  0
  3  4  1  0
  4  5  1  0
  5  6  2  0
  5  7  1  0
  7  8  1  0
  8  9  1  0
  9 10  1  0
 10 11  1  0
 11 12  1  0
 12 13  1  0
 13 14  1  0
 14 15  1  0
 15 16  1  0
 16 17  1  0
 17 18  1  0
  2 19  1  0
 19 20  2  0
 20 21  1  0
 21 22  2  0
 22 23  1  0
 23 24  2  0
 24 25  1  0
 25 26  2  0
 26 27  1  0
 27 28  2  0
 12  7  1  0
 18 13  1  0
 28 19  1  0
 27 22  1  0
  3 29  1  0
  4 30  1  0
  4 31  1  0
  8 32  1  0
  8 33  1  0
  9 34  1  0
  9 35  1  0
 10 36  1  0
 10 37  1  0
 11 38  1  0
 11 39  1  0
 12 40  1  1
 13 41  1  0
 14 42  1  0
 14 43  1  0
 15 44  1  0
 15 45  1  0
 17 46  1  0
 17 47  1  0
 18 48  1  0
 18 49  1  0
 20 50  1  0
 21 51  1  0
 23 52  1  0
 24 53  1  0
 25 54  1  0
 26 55  1  0
M  END
>  <smiles>  (21) 
O=C(NCC(=O)N1CCCCC1C1CCOCC1)c1ccc2ccccc2n1

>  <score_type>  (21) 
oracle

>  <origin>  (21) 
autodockgpu

>  <m_score__min__energy>  (21) 
-8.9900000000000002

>  <m_primary>  (21) 
energy

>  <rmsd>  (21) 
1.9800321024584262

>  <m_score__min__rmsd>  (21) 
1.9800321024584262

>  <meeko>  (21) 
{"free_energy": -8.86, "intermolecular_energy": -10.35, "internal_energy": -1.46, "cluster_size": 17, "cluster_id": 1, "rank_in_cluster": 7}

>  <energy>  (21) 
-8.93

>  <cluster_rmsd>  (21) 
0.04

>  <cluster>  (21) 
2

$$$$

     RDKit          3D

 55 58  0  0  0  0  0  0  0  0999 V2000
  139.9460   74.6850  222.3250 O   0  0  0  0  0  0  0  0  0  0  0  0
  139.9380   75.7270  221.6010 C   0  0  0  0  0  0  0  0  0  0  0  0
  139.7380   75.5670  220.1990 N   0  0  0  0  0  0  0  0  0  0  0  0
  139.5600   74.2390  219.6940 C   0  0  0  0  0  0  0  0  0  0  0  0
  140.7200   73.7810  218.8780 C   0  0  0  0  0  0  0  0  0  0  0  0
  140.7470   72.6310  218.3690 O   0  0  0  0  0  0  0  0  0  0  0  0
  141.7970   74.6910  218.6920 N   0  0  0  0  0  0  0  0  0  0  0  0
  142.0000   75.4160  217.4440 C   0  0  0  0  0  0  0  0  0  0  0  0
  142.1630   76.8900  217.6600 C   0  0  0  0  0  0  0  0  0  0  0  0
  142.1080   77.2700  219.1230 C   0  0  0  0  0  0  0  0  0  0  0  0
  143.0060   76.3970  219.9690 C   0  0  0  0  0  0  0  0  0  0  0  0
  142.7320   74.9250  219.7540 C   0  0  2  0  0  0  0  0  0  0  0  0
  144.0420   74.2590  219.4230 C   0  0  0  0  0  0  0  0  0  0  0  0
  143.9130   72.7710  219.2230 C   0  0  0  0  0  0  0  0  0  0  0  0
  145.2770   72.2840  218.7600 C   0  0  0  0  0  0  0  0  0  0  0  0
  146.2890   72.5390  219.6500 O   0  0  0  0  0  0  0  0  0  0  0  0
  145.9470   73.2810  220.7540 C   0  0  0  0  0  0  0  0  0  0  0  0
  145.0880   74.4790  220.4740 C   0  0  0  0  0  0  0  0  0  0  0  0
  140.1270   77.0620  222.1770 C   0  0  0  0  0  0  0  0  0  0  0  0
  139.0080   77.7230  222.6560 C   0  0  0  0  0  0  0  0  0  0  0  0
  139.1810   78.9870  223.2020 C   0  0  0  0  0  0  0  0  0  0  0  0
  140.4410   79.5160  223.2400 C   0  0  0  0  0  0  0  0  0  0  0  0
  140.6220   80.7740  223.7820 C   0  0  0  0  0  0  0  0  0  0  0  0
  141.8790   81.3750  223.8530 C   0  0  0  0  0  0  0  0  0  0  0  0
  142.9710   80.6670  223.3560 C   0  0  0  0  0  0  0  0  0  0  0  0
  142.8190   79.3990  222.8050 C   0  0  0  0  0  0  0  0  0  0  0  0
  141.5600   78.8360  222.7510 C   0  0  0  0  0  0  0  0  0  0  0  0
  141.3520   77.5990  222.2230 N   0  0  0  0  0  0  0  0  0  0  0  0
  139.7290   76.4300  219.5840 H   0  0  0  0  0  0  0  0  0  0  0  0
  139.4327   73.5521  220.5437 H   0  0  0  0  0  0  0  0  0  0  0  0
  138.6733   74.2439  219.0431 H   0  0  0  0  0  0  0  0  0  0  0  0
  142.9052   75.0286  216.9535 H   0  0  0  0  0  0  0  0  0  0  0  0
  141.1073   75.2651  216.8193 H   0  0  0  0  0  0  0  0  0  0  0  0
  143.1355   77.2012  217.2509 H   0  0  0  0  0  0  0  0  0  0  0  0
  141.3297   77.3968  217.1512 H   0  0  0  0  0  0  0  0  0  0  0  0
  142.4274   78.3171  219.2302 H   0  0  0  0  0  0  0  0  0  0  0  0
  141.0738   77.1317  219.4712 H   0  0  0  0  0  0  0  0  0  0  0  0
  144.0536   76.6052  219.7061 H   0  0  0  0  0  0  0  0  0  0  0  0
  142.8071   76.6286  221.0258 H   0  0  0  0  0  0  0  0  0  0  0  0
  142.2851   74.5128  220.6707 H   0  0  0  0  0  0  0  0  0  0  0  0
  144.3499   74.7356  218.4806 H   0  0  0  0  0  0  0  0  0  0  0  0
  143.6345   72.2822  220.1683 H   0  0  0  0  0  0  0  0  0  0  0  0
  143.1316   72.5324  218.4865 H   0  0  0  0  0  0  0  0  0  0  0  0
  145.2211   71.1970  218.6010 H   0  0  0  0  0  0  0  0  0  0  0  0
  145.5164   72.8336  217.8377 H   0  0  0  0  0  0  0  0  0  0  0  0
  145.4020   72.6259  221.4495 H   0  0  0  0  0  0  0  0  0  0  0  0
  146.8899   73.6695  221.1663 H   0  0  0  0  0  0  0  0  0  0  0  0
  144.5824   74.7656  221.4079 H   0  0  0  0  0  0  0  0  0  0  0  0
  145.7578   75.2629  220.0910 H   0  0  0  0  0  0  0  0  0  0  0  0
  138.0116   77.2597  222.6051 H   0  0  0  0  0  0  0  0  0  0  0  0
  138.3227   79.5512  223.5958 H   0  0  0  0  0  0  0  0  0  0  0  0
  139.7482   81.3184  224.1694 H   0  0  0  0  0  0  0  0  0  0  0  0
  142.0041   82.3775  224.2882 H   0  0  0  0  0  0  0  0  0  0  0  0
  143.9727   81.1195  223.4002 H   0  0  0  0  0  0  0  0  0  0  0  0
  143.6910   78.8519  222.4172 H   0  0  0  0  0  0  0  0  0  0  0  0
  1  2  2  0
  2  3  1  0
  3  4  1  0
  4  5  1  0
  5  6  2  0
  5  7  1  0
  7  8  1  0
  8  9  1  0
  9 10  1  0
 10 11  1  0
 11 12  1  0
 12 13  1  0
 13 14  1  0
 14 15  1  0
 15 16  1  0
 16 17  1  0
 17 18  1  0
  2 19  1  0
 19 20  2  0
 20 21  1  0
 21 22  2  0
 22 23  1  0
 23 24  2  0
 24 25  1  0
 25 26  2  0
 26 27  1  0
 27 28  2  0
 12  7  1  0
 18 13  1  0
 28 19  1  0
 27 22  1  0
  3 29  1  0
  4 30  1  0
  4 31  1  0
  8 32  1  0
  8 33  1  0
  9 34  1  0
  9 35  1  0
 10 36  1  0
 10 37  1  0
 11 38  1  0
 11 39  1  0
 12 40  1  1
 13 41  1  0
 14 42  1  0
 14 43  1  0
 15 44  1  0
 15 45  1  0
 17 46  1  0
 17 47  1  0
 18 48  1  0
 18 49  1  0
 20 50  1  0
 21 51  1  0
 23 52  1  0
 24 53  1  0
 25 54  1  0
 26 55  1  0
M  END
>  <smiles>  (22) 
O=C(NCC(=O)N1CCCCC1C1CCOCC1)c1ccc2ccccc2n1

>  <score_type>  (22) 
oracle

>  <origin>  (22) 
autodockgpu

>  <m_score__min__energy>  (22) 
-8.9900000000000002

>  <m_primary>  (22) 
energy

>  <rmsd>  (22) 
7.125536139202623

>  <m_score__min__rmsd>  (22) 
7.125536139202623

>  <meeko>  (22) 
{"free_energy": -7.49, "intermolecular_energy": -8.98, "internal_energy": -2.1, "cluster_size": 7, "cluster_id": 4, "rank_in_cluster": 7}

>  <energy>  (22) 
-8.66

>  <cluster_rmsd>  (22) 
1.01

>  <cluster>  (22) 
2

$$$$

     RDKit          3D

 55 58  0  0  0  0  0  0  0  0999 V2000
  141.4110   71.7660  221.5510 O   0  0  0  0  0  0  0  0  0  0  0  0
  140.6660   72.2240  222.4700 C   0  0  0  0  0  0  0  0  0  0  0  0
  140.1670   73.5520  222.3270 N   0  0  0  0  0  0  0  0  0  0  0  0
  140.5380   74.2850  221.1560 C   0  0  0  0  0  0  0  0  0  0  0  0
  140.2140   75.7360  221.2670 C   0  0  0  0  0  0  0  0  0  0  0  0
  139.1760   76.1300  221.8590 O   0  0  0  0  0  0  0  0  0  0  0  0
  141.1210   76.6620  220.6800 N   0  0  0  0  0  0  0  0  0  0  0  0
  142.3900   76.2480  220.0970 C   0  0  0  0  0  0  0  0  0  0  0  0
  142.5790   76.7770  218.7080 C   0  0  0  0  0  0  0  0  0  0  0  0
  141.4220   77.6380  218.2540 C   0  0  0  0  0  0  0  0  0  0  0  0
  141.0480   78.6760  219.2870 C   0  0  0  0  0  0  0  0  0  0  0  0
  140.7990   78.0590  220.6460 C   0  0  2  0  0  0  0  0  0  0  0  0
  141.6530   78.7940  221.6460 C   0  0  0  0  0  0  0  0  0  0  0  0
  141.0980   78.7390  223.0460 C   0  0  0  0  0  0  0  0  0  0  0  0
  142.1380   79.3940  223.9410 C   0  0  0  0  0  0  0  0  0  0  0  0
  142.4160   80.6960  223.6100 O   0  0  0  0  0  0  0  0  0  0  0  0
  141.8080   81.1710  222.4740 C   0  0  0  0  0  0  0  0  0  0  0  0
  141.8430   80.2390  221.2980 C   0  0  0  0  0  0  0  0  0  0  0  0
  140.3210   71.4230  223.6490 C   0  0  0  0  0  0  0  0  0  0  0  0
  139.5860   70.2650  223.4510 C   0  0  0  0  0  0  0  0  0  0  0  0
  139.2560   69.5040  224.5630 C   0  0  0  0  0  0  0  0  0  0  0  0
  139.6700   69.9310  225.7930 C   0  0  0  0  0  0  0  0  0  0  0  0
  139.3460   69.1790  226.9060 C   0  0  0  0  0  0  0  0  0  0  0  0
  139.7340   69.5540  228.1920 C   0  0  0  0  0  0  0  0  0  0  0  0
  140.4720   70.7280  228.3360 C   0  0  0  0  0  0  0  0  0  0  0  0
  140.8120   71.5060  227.2340 C   0  0  0  0  0  0  0  0  0  0  0  0
  140.4100   71.1030  225.9760 C   0  0  0  0  0  0  0  0  0  0  0  0
  140.7150   71.8240  224.8630 N   0  0  0  0  0  0  0  0  0  0  0  0
  139.5430   73.9450  223.0880 H   0  0  0  0  0  0  0  0  0  0  0  0
  141.6213   74.1760  220.9995 H   0  0  0  0  0  0  0  0  0  0  0  0
  139.9653   73.8774  220.3099 H   0  0  0  0  0  0  0  0  0  0  0  0
  143.2083   76.6198  220.7312 H   0  0  0  0  0  0  0  0  0  0  0  0
  142.3913   75.1494  220.0410 H   0  0  0  0  0  0  0  0  0  0  0  0
  143.4987   77.3798  218.6822 H   0  0  0  0  0  0  0  0  0  0  0  0
  142.6413   75.9149  218.0276 H   0  0  0  0  0  0  0  0  0  0  0  0
  141.7047   78.1501  217.3224 H   0  0  0  0  0  0  0  0  0  0  0  0
  140.5516   76.9832  218.1003 H   0  0  0  0  0  0  0  0  0  0  0  0
  141.8684   79.4038  219.3723 H   0  0  0  0  0  0  0  0  0  0  0  0
  140.1174   79.1621  218.9588 H   0  0  0  0  0  0  0  0  0  0  0  0
  139.7282   78.1470  220.8819 H   0  0  0  0  0  0  0  0  0  0  0  0
  142.6185   78.2685  221.6066 H   0  0  0  0  0  0  0  0  0  0  0  0
  140.1469   79.2890  223.1010 H   0  0  0  0  0  0  0  0  0  0  0  0
  140.8970   77.7032  223.3569 H   0  0  0  0  0  0  0  0  0  0  0  0
  141.7673   79.3715  224.9764 H   0  0  0  0  0  0  0  0  0  0  0  0
  143.0715   78.8261  223.8140 H   0  0  0  0  0  0  0  0  0  0  0  0
  140.7547   81.3796  222.7127 H   0  0  0  0  0  0  0  0  0  0  0  0
  142.3737   82.0654  222.1740 H   0  0  0  0  0  0  0  0  0  0  0  0
  141.0433   80.5331  220.6023 H   0  0  0  0  0  0  0  0  0  0  0  0
  142.8478   80.3261  220.8589 H   0  0  0  0  0  0  0  0  0  0  0  0
  139.2735   69.9583  222.4419 H   0  0  0  0  0  0  0  0  0  0  0  0
  138.6736   68.5769  224.4567 H   0  0  0  0  0  0  0  0  0  0  0  0
  138.7636   68.2553  226.7735 H   0  0  0  0  0  0  0  0  0  0  0  0
  139.4659   68.9422  229.0660 H   0  0  0  0  0  0  0  0  0  0  0  0
  140.7914   71.0450  229.3397 H   0  0  0  0  0  0  0  0  0  0  0  0
  141.3938   72.4306  227.3632 H   0  0  0  0  0  0  0  0  0  0  0  0
  1  2  2  0
  2  3  1  0
  3  4  1  0
  4  5  1  0
  5  6  2  0
  5  7  1  0
  7  8  1  0
  8  9  1  0
  9 10  1  0
 10 11  1  0
 11 12  1  0
 12 13  1  0
 13 14  1  0
 14 15  1  0
 15 16  1  0
 16 17  1  0
 17 18  1  0
  2 19  1  0
 19 20  2  0
 20 21  1  0
 21 22  2  0
 22 23  1  0
 23 24  2  0
 24 25  1  0
 25 26  2  0
 26 27  1  0
 27 28  2  0
 12  7  1  0
 18 13  1  0
 28 19  1  0
 27 22  1  0
  3 29  1  0
  4 30  1  0
  4 31  1  0
  8 32  1  0
  8 33  1  0
  9 34  1  0
  9 35  1  0
 10 36  1  0
 10 37  1  0
 11 38  1  0
 11 39  1  0
 12 40  1  1
 13 41  1  0
 14 42  1  0
 14 43  1  0
 15 44  1  0
 15 45  1  0
 17 46  1  0
 17 47  1  0
 18 48  1  0
 18 49  1  0
 20 50  1  0
 21 51  1  0
 23 52  1  0
 24 53  1  0
 25 54  1  0
 26 55  1  0
M  END
>  <smiles>  (23) 
O=C(NCC(=O)N1CCCCC1C1CCOCC1)c1ccc2ccccc2n1

>  <score_type>  (23) 
oracle

>  <origin>  (23) 
autodockgpu

>  <m_score__min__energy>  (23) 
-8.9900000000000002

>  <m_primary>  (23) 
energy

>  <rmsd>  (23) 
2.2688470773618885

>  <m_score__min__rmsd>  (23) 
2.2688470773618885

>  <meeko>  (23) 
{"free_energy": -8.58, "intermolecular_energy": -10.08, "internal_energy": -1.5, "cluster_size": 18, "cluster_id": 3, "rank_in_cluster": 16}

>  <energy>  (23) 
-8.65

>  <cluster_rmsd>  (23) 
1.0

>  <cluster>  (23) 
2

$$$$

     RDKit          3D

 55 58  0  0  0  0  0  0  0  0999 V2000
  140.1970   74.6720  222.2710 O   0  0  0  0  0  0  0  0  0  0  0  0
  140.0270   75.7260  221.5870 C   0  0  0  0  0  0  0  0  0  0  0  0
  139.6380   75.5830  220.2220 N   0  0  0  0  0  0  0  0  0  0  0  0
  139.4660   74.2580  219.7100 C   0  0  0  0  0  0  0  0  0  0  0  0
  140.7600   73.6160  219.3460 C   0  0  0  0  0  0  0  0  0  0  0  0
  140.9210   72.3710  219.4360 O   0  0  0  0  0  0  0  0  0  0  0  0
  141.8110   74.4600  218.8910 N   0  0  0  0  0  0  0  0  0  0  0  0
  141.8740   74.9600  217.5250 C   0  0  0  0  0  0  0  0  0  0  0  0
  142.0620   76.4460  217.4680 C   0  0  0  0  0  0  0  0  0  0  0  0
  142.1710   77.0680  218.8420 C   0  0  0  0  0  0  0  0  0  0  0  0
  143.1560   76.3320  219.7210 C   0  0  0  0  0  0  0  0  0  0  0  0
  142.8590   74.8510  219.7890 C   0  0  2  0  0  0  0  0  0  0  0  0
  144.1230   74.1140  219.4350 C   0  0  0  0  0  0  0  0  0  0  0  0
  143.9050   72.6370  219.2280 C   0  0  0  0  0  0  0  0  0  0  0  0
  145.2320   72.0750  218.7420 C   0  0  0  0  0  0  0  0  0  0  0  0
  146.2700   72.2660  219.6180 O   0  0  0  0  0  0  0  0  0  0  0  0
  145.9880   73.0180  220.7310 C   0  0  0  0  0  0  0  0  0  0  0  0
  145.1950   74.2650  220.4710 C   0  0  0  0  0  0  0  0  0  0  0  0
  140.2200   77.0580  222.1680 C   0  0  0  0  0  0  0  0  0  0  0  0
  139.1040   77.7190  222.6550 C   0  0  0  0  0  0  0  0  0  0  0  0
  139.2810   78.9800  223.2070 C   0  0  0  0  0  0  0  0  0  0  0  0
  140.5420   79.5060  223.2420 C   0  0  0  0  0  0  0  0  0  0  0  0
  140.7280   80.7610  223.7890 C   0  0  0  0  0  0  0  0  0  0  0  0
  141.9850   81.3600  223.8580 C   0  0  0  0  0  0  0  0  0  0  0  0
  143.0750   80.6540  223.3530 C   0  0  0  0  0  0  0  0  0  0  0  0
  142.9180   79.3880  222.7960 C   0  0  0  0  0  0  0  0  0  0  0  0
  141.6580   78.8270  222.7450 C   0  0  0  0  0  0  0  0  0  0  0  0
  141.4460   77.5930  222.2110 N   0  0  0  0  0  0  0  0  0  0  0  0
  139.4930   76.4560  219.6400 H   0  0  0  0  0  0  0  0  0  0  0  0
  138.9711   73.6445  220.4773 H   0  0  0  0  0  0  0  0  0  0  0  0
  138.8584   74.3286  218.7957 H   0  0  0  0  0  0  0  0  0  0  0  0
  142.7181   74.4772  217.0108 H   0  0  0  0  0  0  0  0  0  0  0  0
  140.9166   74.7243  217.0373 H   0  0  0  0  0  0  0  0  0  0  0  0
  142.9832   76.6640  216.9078 H   0  0  0  0  0  0  0  0  0  0  0  0
  141.1780   76.8765  216.9749 H   0  0  0  0  0  0  0  0  0  0  0  0
  142.5022   78.1114  218.7341 H   0  0  0  0  0  0  0  0  0  0  0  0
  141.1817   77.0115  219.3196 H   0  0  0  0  0  0  0  0  0  0  0  0
  144.1685   76.4727  219.3147 H   0  0  0  0  0  0  0  0  0  0  0  0
  143.0748   76.7416  220.7387 H   0  0  0  0  0  0  0  0  0  0  0  0
  142.5163   74.6072  220.8054 H   0  0  0  0  0  0  0  0  0  0  0  0
  144.4444   74.5796  218.4917 H   0  0  0  0  0  0  0  0  0  0  0  0
  143.6122   72.1587  220.1743 H   0  0  0  0  0  0  0  0  0  0  0  0
  143.1006   72.4490  218.5017 H   0  0  0  0  0  0  0  0  0  0  0  0
  145.1113   70.9940  218.5783 H   0  0  0  0  0  0  0  0  0  0  0  0
  145.4891   72.6155  217.8191 H   0  0  0  0  0  0  0  0  0  0  0  0
  145.4168   72.3904  221.4309 H   0  0  0  0  0  0  0  0  0  0  0  0
  146.9576   73.3488  221.1316 H   0  0  0  0  0  0  0  0  0  0  0  0
  144.7205   74.5735  221.4142 H   0  0  0  0  0  0  0  0  0  0  0  0
  145.9034   75.0113  220.0822 H   0  0  0  0  0  0  0  0  0  0  0  0
  138.1066   77.2577  222.6056 H   0  0  0  0  0  0  0  0  0  0  0  0
  138.4254   79.5436  223.6074 H   0  0  0  0  0  0  0  0  0  0  0  0
  139.8566   81.3049  224.1826 H   0  0  0  0  0  0  0  0  0  0  0  0
  142.1125   82.3601  224.2980 H   0  0  0  0  0  0  0  0  0  0  0  0
  144.0774   81.1051  223.3952 H   0  0  0  0  0  0  0  0  0  0  0  0
  143.7873   78.8415  222.4014 H   0  0  0  0  0  0  0  0  0  0  0  0
  1  2  2  0
  2  3  1  0
  3  4  1  0
  4  5  1  0
  5  6  2  0
  5  7  1  0
  7  8  1  0
  8  9  1  0
  9 10  1  0
 10 11  1  0
 11 12  1  0
 12 13  1  0
 13 14  1  0
 14 15  1  0
 15 16  1  0
 16 17  1  0
 17 18  1  0
  2 19  1  0
 19 20  2  0
 20 21  1  0
 21 22  2  0
 22 23  1  0
 23 24  2  0
 24 25  1  0
 25 26  2  0
 26 27  1  0
 27 28  2  0
 12  7  1  0
 18 13  1  0
 28 19  1  0
 27 22  1  0
  3 29  1  0
  4 30  1  0
  4 31  1  0
  8 32  1  0
  8 33  1  0
  9 34  1  0
  9 35  1  0
 10 36  1  0
 10 37  1  0
 11 38  1  0
 11 39  1  0
 12 40  1  1
 13 41  1  0
 14 42  1  0
 14 43  1  0
 15 44  1  0
 15 45  1  0
 17 46  1  0
 17 47  1  0
 18 48  1  0
 18 49  1  0
 20 50  1  0
 21 51  1  0
 23 52  1  0
 24 53  1  0
 25 54  1  0
 26 55  1  0
M  END
>  <smiles>  (24) 
O=C(NCC(=O)N1CCCCC1C1CCOCC1)c1ccc2ccccc2n1

>  <score_type>  (24) 
oracle

>  <origin>  (24) 
autodockgpu

>  <m_score__min__energy>  (24) 
-8.9900000000000002

>  <m_primary>  (24) 
energy

>  <rmsd>  (24) 
7.0984161608533105

>  <m_score__min__rmsd>  (24) 
7.0984161608533105

>  <meeko>  (24) 
{"free_energy": -7.59, "intermolecular_energy": -9.08, "internal_energy": -2.12, "cluster_size": 7, "cluster_id": 4, "rank_in_cluster": 4}

>  <energy>  (24) 
-8.61

>  <cluster_rmsd>  (24) 
1.04

>  <cluster>  (24) 
2

$$$$

     RDKit          3D

 55 58  0  0  0  0  0  0  0  0999 V2000
  141.4350   72.2190  221.5640 O   0  0  0  0  0  0  0  0  0  0  0  0
  140.5640   72.4970  222.4450 C   0  0  0  0  0  0  0  0  0  0  0  0
  139.8660   73.7350  222.3270 N   0  0  0  0  0  0  0  0  0  0  0  0
  140.1920   74.5870  221.2250 C   0  0  0  0  0  0  0  0  0  0  0  0
  139.7100   75.9830  221.4240 C   0  0  0  0  0  0  0  0  0  0  0  0
  138.6400   76.2230  222.0410 O   0  0  0  0  0  0  0  0  0  0  0  0
  140.5020   77.0380  220.8900 N   0  0  0  0  0  0  0  0  0  0  0  0
  141.8830   76.8400  220.4710 C   0  0  0  0  0  0  0  0  0  0  0  0
  142.1360   77.3500  219.0840 C   0  0  0  0  0  0  0  0  0  0  0  0
  140.9060   77.9730  218.4630 C   0  0  0  0  0  0  0  0  0  0  0  0
  140.2390   78.9590  219.3940 C   0  0  0  0  0  0  0  0  0  0  0  0
  139.9470   78.3520  220.7480 C   0  0  2  0  0  0  0  0  0  0  0  0
  140.5360   79.2610  221.7940 C   0  0  0  0  0  0  0  0  0  0  0  0
  141.7910   79.9560  221.3300 C   0  0  0  0  0  0  0  0  0  0  0  0
  142.1690   80.9310  222.4340 C   0  0  0  0  0  0  0  0  0  0  0  0
  142.3980   80.3350  223.6480 O   0  0  0  0  0  0  0  0  0  0  0  0
  142.1480   78.9860  223.7130 C   0  0  0  0  0  0  0  0  0  0  0  0
  140.8670   78.5460  223.0680 C   0  0  0  0  0  0  0  0  0  0  0  0
  140.2740   71.5820  223.5520 C   0  0  0  0  0  0  0  0  0  0  0  0
  139.5710   70.4230  223.2670 C   0  0  0  0  0  0  0  0  0  0  0  0
  139.2930   69.5540  224.3120 C   0  0  0  0  0  0  0  0  0  0  0  0
  139.7250   69.8820  225.5670 C   0  0  0  0  0  0  0  0  0  0  0  0
  139.4530   69.0220  226.6140 C   0  0  0  0  0  0  0  0  0  0  0  0
  139.8620   69.2920  227.9190 C   0  0  0  0  0  0  0  0  0  0  0  0
  140.5660   70.4720  228.1530 C   0  0  0  0  0  0  0  0  0  0  0  0
  140.8540   71.3570  227.1180 C   0  0  0  0  0  0  0  0  0  0  0  0
  140.4320   71.0560  225.8390 C   0  0  0  0  0  0  0  0  0  0  0  0
  140.6860   71.8850  224.7890 N   0  0  0  0  0  0  0  0  0  0  0  0
  139.1360   73.9780  223.0560 H   0  0  0  0  0  0  0  0  0  0  0  0
  141.2851   74.6047  221.1035 H   0  0  0  0  0  0  0  0  0  0  0  0
  139.6934   74.1844  220.3310 H   0  0  0  0  0  0  0  0  0  0  0  0
  142.5445   77.3729  221.1699 H   0  0  0  0  0  0  0  0  0  0  0  0
  142.0834   75.7584  220.4734 H   0  0  0  0  0  0  0  0  0  0  0  0
  142.9321   78.1079  219.1265 H   0  0  0  0  0  0  0  0  0  0  0  0
  142.4274   76.4921  218.4603 H   0  0  0  0  0  0  0  0  0  0  0  0
  141.2002   78.4975  217.5419 H   0  0  0  0  0  0  0  0  0  0  0  0
  140.1878   77.1674  218.2503 H   0  0  0  0  0  0  0  0  0  0  0  0
  140.9035   79.8252  219.5290 H   0  0  0  0  0  0  0  0  0  0  0  0
  139.2816   79.2582  218.9424 H   0  0  0  0  0  0  0  0  0  0  0  0
  138.8574   78.2529  220.8620 H   0  0  0  0  0  0  0  0  0  0  0  0
  139.7441   80.0025  221.9757 H   0  0  0  0  0  0  0  0  0  0  0  0
  142.5973   79.2239  221.1753 H   0  0  0  0  0  0  0  0  0  0  0  0
  141.6312   80.4756  220.3737 H   0  0  0  0  0  0  0  0  0  0  0  0
  143.0841   81.4604  222.1301 H   0  0  0  0  0  0  0  0  0  0  0  0
  141.3132   81.6090  222.5678 H   0  0  0  0  0  0  0  0  0  0  0  0
  142.9776   78.4611  223.2168 H   0  0  0  0  0  0  0  0  0  0  0  0
  142.0533   78.7424  224.7815 H   0  0  0  0  0  0  0  0  0  0  0  0
  140.9443   77.4709  222.8486 H   0  0  0  0  0  0  0  0  0  0  0  0
  140.0613   78.7829  223.7784 H   0  0  0  0  0  0  0  0  0  0  0  0
  139.2426   70.1981  222.2415 H   0  0  0  0  0  0  0  0  0  0  0  0
  138.7372   68.6215  224.1348 H   0  0  0  0  0  0  0  0  0  0  0  0
  138.8962   68.0952  226.4112 H   0  0  0  0  0  0  0  0  0  0  0  0
  139.6360   68.5949  228.7393 H   0  0  0  0  0  0  0  0  0  0  0  0
  140.9000   70.7081  229.1741 H   0  0  0  0  0  0  0  0  0  0  0  0
  141.4109   72.2845  227.3170 H   0  0  0  0  0  0  0  0  0  0  0  0
  1  2  2  0
  2  3  1  0
  3  4  1  0
  4  5  1  0
  5  6  2  0
  5  7  1  0
  7  8  1  0
  8  9  1  0
  9 10  1  0
 10 11  1  0
 11 12  1  0
 12 13  1  0
 13 14  1  0
 14 15  1  0
 15 16  1  0
 16 17  1  0
 17 18  1  0
  2 19  1  0
 19 20  2  0
 20 21  1  0
 21 22  2  0
 22 23  1  0
 23 24  2  0
 24 25  1  0
 25 26  2  0
 26 27  1  0
 27 28  2  0
 12  7  1  0
 18 13  1  0
 28 19  1  0
 27 22  1  0
  3 29  1  0
  4 30  1  0
  4 31  1  0
  8 32  1  0
  8 33  1  0
  9 34  1  0
  9 35  1  0
 10 36  1  0
 10 37  1  0
 11 38  1  0
 11 39  1  0
 12 40  1  1
 13 41  1  0
 14 42  1  0
 14 43  1  0
 15 44  1  0
 15 45  1  0
 17 46  1  0
 17 47  1  0
 18 48  1  0
 18 49  1  0
 20 50  1  0
 21 51  1  0
 23 52  1  0
 24 53  1  0
 25 54  1  0
 26 55  1  0
M  END
>  <smiles>  (25) 
O=C(NCC(=O)N1CCCCC1C1CCOCC1)c1ccc2ccccc2n1

>  <score_type>  (25) 
oracle

>  <origin>  (25) 
autodockgpu

>  <m_score__min__energy>  (25) 
-8.9900000000000002

>  <m_primary>  (25) 
energy

>  <rmsd>  (25) 
2.3580599557902735

>  <m_score__min__rmsd>  (25) 
2.3580599557902735

>  <meeko>  (25) 
{"free_energy": -8.22, "intermolecular_energy": -9.71, "internal_energy": -1.51, "cluster_size": 18, "cluster_id": 3, "rank_in_cluster": 18}

>  <energy>  (25) 
-8.16

>  <cluster_rmsd>  (25) 
1.14

>  <cluster>  (25) 
2

$$$$

     RDKit          3D

 55 58  0  0  0  0  0  0  0  0999 V2000
  140.9730   74.4650  221.3230 O   0  0  0  0  0  0  0  0  0  0  0  0
  139.9730   74.9540  221.9310 C   0  0  0  0  0  0  0  0  0  0  0  0
  138.8790   74.0870  222.2230 N   0  0  0  0  0  0  0  0  0  0  0  0
  138.9770   72.7210  221.8110 C   0  0  0  0  0  0  0  0  0  0  0  0
  139.8240   71.9090  222.7300 C   0  0  0  0  0  0  0  0  0  0  0  0
  141.0790   71.9320  222.6540 O   0  0  0  0  0  0  0  0  0  0  0  0
  139.1620   71.1050  223.7000 N   0  0  0  0  0  0  0  0  0  0  0  0
  137.7230   71.1680  223.9140 C   0  0  0  0  0  0  0  0  0  0  0  0
  137.0810   69.8140  223.8770 C   0  0  0  0  0  0  0  0  0  0  0  0
  138.0840   68.7040  223.6560 C   0  0  0  0  0  0  0  0  0  0  0  0
  139.2730   68.8220  224.5810 C   0  0  0  0  0  0  0  0  0  0  0  0
  139.9140   70.1900  224.5090 C   0  0  2  0  0  0  0  0  0  0  0  0
  140.0100   70.7250  225.9130 C   0  0  0  0  0  0  0  0  0  0  0  0
  141.2180   71.6010  226.1280 C   0  0  0  0  0  0  0  0  0  0  0  0
  141.0880   72.1680  227.5330 C   0  0  0  0  0  0  0  0  0  0  0  0
  141.0360   71.2120  228.5150 O   0  0  0  0  0  0  0  0  0  0  0  0
  140.9970   69.9080  228.0850 C   0  0  0  0  0  0  0  0  0  0  0  0
  140.0550   69.6420  226.9480 C   0  0  0  0  0  0  0  0  0  0  0  0
  139.9300   76.3640  222.3280 C   0  0  0  0  0  0  0  0  0  0  0  0
  138.6870   76.9610  222.4650 C   0  0  0  0  0  0  0  0  0  0  0  0
  138.6410   78.2950  222.8410 C   0  0  0  0  0  0  0  0  0  0  0  0
  139.8190   78.9540  223.0560 C   0  0  0  0  0  0  0  0  0  0  0  0
  139.7830   80.2840  223.4310 C   0  0  0  0  0  0  0  0  0  0  0  0
  140.9440   81.0180  223.6670 C   0  0  0  0  0  0  0  0  0  0  0  0
  142.1690   80.3720  223.5150 C   0  0  0  0  0  0  0  0  0  0  0  0
  142.2360   79.0340  223.1380 C   0  0  0  0  0  0  0  0  0  0  0  0
  141.0650   78.3390  222.9130 C   0  0  0  0  0  0  0  0  0  0  0  0
  141.0710   77.0290  222.5430 N   0  0  0  0  0  0  0  0  0  0  0  0
  138.0380   74.4840  222.7310 H   0  0  0  0  0  0  0  0  0  0  0  0
  137.9668   72.2865  221.7855 H   0  0  0  0  0  0  0  0  0  0  0  0
  139.4488   72.7037  220.8175 H   0  0  0  0  0  0  0  0  0  0  0  0
  137.5314   71.6233  224.8969 H   0  0  0  0  0  0  0  0  0  0  0  0
  137.2885   71.7680  223.1009 H   0  0  0  0  0  0  0  0  0  0  0  0
  136.5679   69.6405  224.8344 H   0  0  0  0  0  0  0  0  0  0  0  0
  136.3762   69.8010  223.0326 H   0  0  0  0  0  0  0  0  0  0  0  0
  137.5895   67.7379  223.8350 H   0  0  0  0  0  0  0  0  0  0  0  0
  138.4501   68.7784  222.6214 H   0  0  0  0  0  0  0  0  0  0  0  0
  138.9392   68.6402  225.6132 H   0  0  0  0  0  0  0  0  0  0  0  0
  140.0217   68.0794  224.2680 H   0  0  0  0  0  0  0  0  0  0  0  0
  140.9052   70.0905  224.0426 H   0  0  0  0  0  0  0  0  0  0  0  0
  139.0920   71.3193  226.0318 H   0  0  0  0  0  0  0  0  0  0  0  0
  142.1398   71.0072  226.0405 H   0  0  0  0  0  0  0  0  0  0  0  0
  141.2703   72.4023  225.3762 H   0  0  0  0  0  0  0  0  0  0  0  0
  141.9552   72.8165  227.7265 H   0  0  0  0  0  0  0  0  0  0  0  0
  140.1348   72.7158  227.5696 H   0  0  0  0  0  0  0  0  0  0  0  0
  142.0097   69.6250  227.7621 H   0  0  0  0  0  0  0  0  0  0  0  0
  140.6273   69.3155  228.9349 H   0  0  0  0  0  0  0  0  0  0  0  0
  140.3654   68.7086  226.4556 H   0  0  0  0  0  0  0  0  0  0  0  0
  139.0467   69.5831  227.3838 H   0  0  0  0  0  0  0  0  0  0  0  0
  137.7632   76.3930  222.2808 H   0  0  0  0  0  0  0  0  0  0  0  0
  137.6776   78.8115  222.9636 H   0  0  0  0  0  0  0  0  0  0  0  0
  138.8073   80.7786  223.5468 H   0  0  0  0  0  0  0  0  0  0  0  0
  140.8946   82.0759  223.9644 H   0  0  0  0  0  0  0  0  0  0  0  0
  143.0998   80.9294  223.6962 H   0  0  0  0  0  0  0  0  0  0  0  0
  143.2101   78.5366  223.0208 H   0  0  0  0  0  0  0  0  0  0  0  0
  1  2  2  0
  2  3  1  0
  3  4  1  0
  4  5  1  0
  5  6  2  0
  5  7  1  0
  7  8  1  0
  8  9  1  0
  9 10  1  0
 10 11  1  0
 11 12  1  0
 12 13  1  0
 13 14  1  0
 14 15  1  0
 15 16  1  0
 16 17  1  0
 17 18  1  0
  2 19  1  0
 19 20  2  0
 20 21  1  0
 21 22  2  0
 22 23  1  0
 23 24  2  0
 24 25  1  0
 25 26  2  0
 26 27  1  0
 27 28  2  0
 12  7  1  0
 18 13  1  0
 28 19  1  0
 27 22  1  0
  3 29  1  0
  4 30  1  0
  4 31  1  0
  8 32  1  0
  8 33  1  0
  9 34  1  0
  9 35  1  0
 10 36  1  0
 10 37  1  0
 11 38  1  0
 11 39  1  0
 12 40  1  6
 13 41  1  0
 14 42  1  0
 14 43  1  0
 15 44  1  0
 15 45  1  0
 17 46  1  0
 17 47  1  0
 18 48  1  0
 18 49  1  0
 20 50  1  0
 21 51  1  0
 23 52  1  0
 24 53  1  0
 25 54  1  0
 26 55  1  0
M  END
>  <smiles>  (26) 
O=C(NCC(=O)N1CCCCC1C1CCOCC1)c1ccc2ccccc2n1

>  <score_type>  (26) 
oracle

>  <origin>  (26) 
autodockgpu

>  <m_score__min__energy>  (26) 
-8.9900000000000002

>  <m_primary>  (26) 
energy

>  <rmsd>  (26) 
8.31331410754034

>  <m_score__min__rmsd>  (26) 
8.31331410754034

>  <meeko>  (26) 
{"free_energy": -8.94, "intermolecular_energy": -10.43, "internal_energy": -1.29, "cluster_size": 8, "cluster_id": 2, "rank_in_cluster": 3}

>  <energy>  (26) 
-8.8

>  <cluster_rmsd>  (26) 
0.0

>  <cluster>  (26) 
3

$$$$

     RDKit          3D

 55 58  0  0  0  0  0  0  0  0999 V2000
  140.9870   74.5200  221.3300 O   0  0  0  0  0  0  0  0  0  0  0  0
  139.9890   75.0070  221.9430 C   0  0  0  0  0  0  0  0  0  0  0  0
  138.8960   74.1390  222.2370 N   0  0  0  0  0  0  0  0  0  0  0  0
  138.9930   72.7730  221.8200 C   0  0  0  0  0  0  0  0  0  0  0  0
  139.8240   71.9540  222.7470 C   0  0  0  0  0  0  0  0  0  0  0  0
  141.0810   71.9840  222.7000 O   0  0  0  0  0  0  0  0  0  0  0  0
  139.1450   71.1330  223.6910 N   0  0  0  0  0  0  0  0  0  0  0  0
  137.7070   71.2140  223.9030 C   0  0  0  0  0  0  0  0  0  0  0  0
  137.0410   69.8740  223.8250 C   0  0  0  0  0  0  0  0  0  0  0  0
  138.0250   68.7530  223.5730 C   0  0  0  0  0  0  0  0  0  0  0  0
  139.2130   68.8230  224.5040 C   0  0  0  0  0  0  0  0  0  0  0  0
  139.8780   70.1810  224.4740 C   0  0  2  0  0  0  0  0  0  0  0  0
  139.9800   70.6720  225.8940 C   0  0  0  0  0  0  0  0  0  0  0  0
  141.1680   71.5710  226.1230 C   0  0  0  0  0  0  0  0  0  0  0  0
  141.0430   72.0880  227.5470 C   0  0  0  0  0  0  0  0  0  0  0  0
  141.0270   71.0990  228.4980 O   0  0  0  0  0  0  0  0  0  0  0  0
  141.0160   69.8100  228.0250 C   0  0  0  0  0  0  0  0  0  0  0  0
  140.0650   69.5570  226.8920 C   0  0  0  0  0  0  0  0  0  0  0  0
  139.9470   76.4160  222.3450 C   0  0  0  0  0  0  0  0  0  0  0  0
  138.7050   77.0140  222.4810 C   0  0  0  0  0  0  0  0  0  0  0  0
  138.6600   78.3470  222.8600 C   0  0  0  0  0  0  0  0  0  0  0  0
  139.8380   79.0030  223.0810 C   0  0  0  0  0  0  0  0  0  0  0  0
  139.8030   80.3320  223.4600 C   0  0  0  0  0  0  0  0  0  0  0  0
  140.9650   81.0630  223.7030 C   0  0  0  0  0  0  0  0  0  0  0  0
  142.1890   80.4150  223.5520 C   0  0  0  0  0  0  0  0  0  0  0  0
  142.2560   79.0780  223.1710 C   0  0  0  0  0  0  0  0  0  0  0  0
  141.0840   78.3860  222.9400 C   0  0  0  0  0  0  0  0  0  0  0  0
  141.0890   77.0780  222.5660 N   0  0  0  0  0  0  0  0  0  0  0  0
  138.0570   74.5330  222.7500 H   0  0  0  0  0  0  0  0  0  0  0  0
  137.9812   72.3433  221.7794 H   0  0  0  0  0  0  0  0  0  0  0  0
  139.4774   72.7572  220.8325 H   0  0  0  0  0  0  0  0  0  0  0  0
  137.5205   71.6436  224.8983 H   0  0  0  0  0  0  0  0  0  0  0  0
  137.2858   71.8444  223.1060 H   0  0  0  0  0  0  0  0  0  0  0  0
  136.5227   69.6816  224.7760 H   0  0  0  0  0  0  0  0  0  0  0  0
  136.3378   69.8985  222.9795 H   0  0  0  0  0  0  0  0  0  0  0  0
  137.5131   67.7909  223.7221 H   0  0  0  0  0  0  0  0  0  0  0  0
  138.3951   68.8510  222.5418 H   0  0  0  0  0  0  0  0  0  0  0  0
  138.8729   68.6168  225.5296 H   0  0  0  0  0  0  0  0  0  0  0  0
  139.9496   68.0769  224.1711 H   0  0  0  0  0  0  0  0  0  0  0  0
  140.8684   70.0779  224.0066 H   0  0  0  0  0  0  0  0  0  0  0  0
  139.0494   71.2390  226.0438 H   0  0  0  0  0  0  0  0  0  0  0  0
  142.1032   71.0042  226.0042 H   0  0  0  0  0  0  0  0  0  0  0  0
  141.1897   72.3978  225.3978 H   0  0  0  0  0  0  0  0  0  0  0  0
  141.8968   72.7509  227.7510 H   0  0  0  0  0  0  0  0  0  0  0  0
  140.0773   72.6106  227.6134 H   0  0  0  0  0  0  0  0  0  0  0  0
  142.0311   69.5649  227.6793 H   0  0  0  0  0  0  0  0  0  0  0  0
  140.6740   69.1799  228.8592 H   0  0  0  0  0  0  0  0  0  0  0  0
  140.3914   68.6481  226.3654 H   0  0  0  0  0  0  0  0  0  0  0  0
  139.0644   69.4583  227.3382 H   0  0  0  0  0  0  0  0  0  0  0  0
  137.7808   76.4476  222.2937 H   0  0  0  0  0  0  0  0  0  0  0  0
  137.6971   78.8650  222.9801 H   0  0  0  0  0  0  0  0  0  0  0  0
  138.8278   80.8282  223.5734 H   0  0  0  0  0  0  0  0  0  0  0  0
  140.9168   82.1197  224.0049 H   0  0  0  0  0  0  0  0  0  0  0  0
  143.1201   80.9705  223.7374 H   0  0  0  0  0  0  0  0  0  0  0  0
  143.2297   78.5794  223.0555 H   0  0  0  0  0  0  0  0  0  0  0  0
  1  2  2  0
  2  3  1  0
  3  4  1  0
  4  5  1  0
  5  6  2  0
  5  7  1  0
  7  8  1  0
  8  9  1  0
  9 10  1  0
 10 11  1  0
 11 12  1  0
 12 13  1  0
 13 14  1  0
 14 15  1  0
 15 16  1  0
 16 17  1  0
 17 18  1  0
  2 19  1  0
 19 20  2  0
 20 21  1  0
 21 22  2  0
 22 23  1  0
 23 24  2  0
 24 25  1  0
 25 26  2  0
 26 27  1  0
 27 28  2  0
 12  7  1  0
 18 13  1  0
 28 19  1  0
 27 22  1  0
  3 29  1  0
  4 30  1  0
  4 31  1  0
  8 32  1  0
  8 33  1  0
  9 34  1  0
  9 35  1  0
 10 36  1  0
 10 37  1  0
 11 38  1  0
 11 39  1  0
 12 40  1  6
 13 41  1  0
 14 42  1  0
 14 43  1  0
 15 44  1  0
 15 45  1  0
 17 46  1  0
 17 47  1  0
 18 48  1  0
 18 49  1  0
 20 50  1  0
 21 51  1  0
 23 52  1  0
 24 53  1  0
 25 54  1  0
 26 55  1  0
M  END
>  <smiles>  (27) 
O=C(NCC(=O)N1CCCCC1C1CCOCC1)c1ccc2ccccc2n1

>  <score_type>  (27) 
oracle

>  <origin>  (27) 
autodockgpu

>  <m_score__min__energy>  (27) 
-8.9900000000000002

>  <m_primary>  (27) 
energy

>  <rmsd>  (27) 
8.321212982502454

>  <m_score__min__rmsd>  (27) 
8.321212982502454

>  <meeko>  (27) 
{"free_energy": -8.93, "intermolecular_energy": -10.42, "internal_energy": -1.29, "cluster_size": 8, "cluster_id": 2, "rank_in_cluster": 4}

>  <energy>  (27) 
-8.78

>  <cluster_rmsd>  (27) 
0.08

>  <cluster>  (27) 
3

$$$$

     RDKit          3D

 55 58  0  0  0  0  0  0  0  0999 V2000
  138.8360   75.4870  221.5800 O   0  0  0  0  0  0  0  0  0  0  0  0
  139.9730   75.9020  221.9620 C   0  0  0  0  0  0  0  0  0  0  0  0
  141.0660   74.9870  221.9220 N   0  0  0  0  0  0  0  0  0  0  0  0
  140.8130   73.6580  221.4560 C   0  0  0  0  0  0  0  0  0  0  0  0
  140.8610   73.5590  219.9700 C   0  0  0  0  0  0  0  0  0  0  0  0
  140.0570   72.8270  219.3370 O   0  0  0  0  0  0  0  0  0  0  0  0
  141.8510   74.3210  219.2880 N   0  0  0  0  0  0  0  0  0  0  0  0
  141.7440   74.6490  217.8730 C   0  0  0  0  0  0  0  0  0  0  0  0
  141.9300   76.1130  217.6110 C   0  0  0  0  0  0  0  0  0  0  0  0
  142.2120   76.8950  218.8750 C   0  0  0  0  0  0  0  0  0  0  0  0
  143.2970   76.2530  219.7080 C   0  0  0  0  0  0  0  0  0  0  0  0
  143.0040   74.7970  219.9950 C   0  0  2  0  0  0  0  0  0  0  0  0
  144.2110   73.9980  219.5810 C   0  0  0  0  0  0  0  0  0  0  0  0
  143.9280   72.5220  219.4630 C   0  0  0  0  0  0  0  0  0  0  0  0
  145.1930   71.8900  218.9040 C   0  0  0  0  0  0  0  0  0  0  0  0
  146.3030   72.0810  219.6870 O   0  0  0  0  0  0  0  0  0  0  0  0
  146.1350   72.8930  220.7810 C   0  0  0  0  0  0  0  0  0  0  0  0
  145.3660   74.1560  220.5220 C   0  0  0  0  0  0  0  0  0  0  0  0
  140.1710   77.2770  222.4300 C   0  0  0  0  0  0  0  0  0  0  0  0
  139.0440   78.0450  222.6780 C   0  0  0  0  0  0  0  0  0  0  0  0
  139.2260   79.3470  223.1210 C   0  0  0  0  0  0  0  0  0  0  0  0
  140.5020   79.8060  223.2910 C   0  0  0  0  0  0  0  0  0  0  0  0
  140.6930   81.1020  223.7320 C   0  0  0  0  0  0  0  0  0  0  0  0
  141.9660   81.6370  223.9280 C   0  0  0  0  0  0  0  0  0  0  0  0
  143.0650   80.8230  223.6640 C   0  0  0  0  0  0  0  0  0  0  0  0
  142.9040   79.5150  223.2190 C   0  0  0  0  0  0  0  0  0  0  0  0
  141.6290   79.0190  223.0360 C   0  0  0  0  0  0  0  0  0  0  0  0
  141.4120   77.7470  222.6020 N   0  0  0  0  0  0  0  0  0  0  0  0
  142.0210   75.3220  222.2370 H   0  0  0  0  0  0  0  0  0  0  0  0
  141.5724   72.9844  221.8797 H   0  0  0  0  0  0  0  0  0  0  0  0
  139.7998   73.3764  221.7786 H   0  0  0  0  0  0  0  0  0  0  0  0
  142.5147   74.0906  217.3215 H   0  0  0  0  0  0  0  0  0  0  0  0
  140.7322   74.3743  217.5403 H   0  0  0  0  0  0  0  0  0  0  0  0
  142.7753   76.2433  216.9193 H   0  0  0  0  0  0  0  0  0  0  0  0
  140.9935   76.4979  217.1810 H   0  0  0  0  0  0  0  0  0  0  0  0
  142.5300   77.9115  218.6001 H   0  0  0  0  0  0  0  0  0  0  0  0
  141.2902   76.9148  219.4749 H   0  0  0  0  0  0  0  0  0  0  0  0
  144.2506   76.3229  219.1641 H   0  0  0  0  0  0  0  0  0  0  0  0
  143.3474   76.7854  220.6692 H   0  0  0  0  0  0  0  0  0  0  0  0
  142.7897   74.6851  221.0681 H   0  0  0  0  0  0  0  0  0  0  0  0
  144.4724   74.4082  218.5944 H   0  0  0  0  0  0  0  0  0  0  0  0
  143.6948   72.0984  220.4510 H   0  0  0  0  0  0  0  0  0  0  0  0
  143.0630   72.3309  218.8109 H   0  0  0  0  0  0  0  0  0  0  0  0
  145.0234   70.8080  218.8017 H   0  0  0  0  0  0  0  0  0  0  0  0
  145.3948   72.3791  217.9396 H   0  0  0  0  0  0  0  0  0  0  0  0
  145.5998   72.3198  221.5523 H   0  0  0  0  0  0  0  0  0  0  0  0
  147.1436   73.2052  221.0897 H   0  0  0  0  0  0  0  0  0  0  0  0
  144.9783   74.5254  221.4829 H   0  0  0  0  0  0  0  0  0  0  0  0
  146.0663   74.8561  220.0431 H   0  0  0  0  0  0  0  0  0  0  0  0
  138.0348   77.6340  222.5279 H   0  0  0  0  0  0  0  0  0  0  0  0
  138.3626   79.9954  223.3308 H   0  0  0  0  0  0  0  0  0  0  0  0
  139.8136   81.7310  223.9347 H   0  0  0  0  0  0  0  0  0  0  0  0
  142.0981   82.6706  224.2804 H   0  0  0  0  0  0  0  0  0  0  0  0
  144.0796   81.2221  223.8102 H   0  0  0  0  0  0  0  0  0  0  0  0
  143.7817   78.8839  223.0155 H   0  0  0  0  0  0  0  0  0  0  0  0
  1  2  2  0
  2  3  1  0
  3  4  1  0
  4  5  1  0
  5  6  2  0
  5  7  1  0
  7  8  1  0
  8  9  1  0
  9 10  1  0
 10 11  1  0
 11 12  1  0
 12 13  1  0
 13 14  1  0
 14 15  1  0
 15 16  1  0
 16 17  1  0
 17 18  1  0
  2 19  1  0
 19 20  2  0
 20 21  1  0
 21 22  2  0
 22 23  1  0
 23 24  2  0
 24 25  1  0
 25 26  2  0
 26 27  1  0
 27 28  2  0
 12  7  1  0
 18 13  1  0
 28 19  1  0
 27 22  1  0
  3 29  1  0
  4 30  1  0
  4 31  1  0
  8 32  1  0
  8 33  1  0
  9 34  1  0
  9 35  1  0
 10 36  1  0
 10 37  1  0
 11 38  1  0
 11 39  1  0
 12 40  1  1
 13 41  1  0
 14 42  1  0
 14 43  1  0
 15 44  1  0
 15 45  1  0
 17 46  1  0
 17 47  1  0
 18 48  1  0
 18 49  1  0
 20 50  1  0
 21 51  1  0
 23 52  1  0
 24 53  1  0
 25 54  1  0
 26 55  1  0
M  END
>  <smiles>  (28) 
O=C(NCC(=O)N1CCCCC1C1CCOCC1)c1ccc2ccccc2n1

>  <score_type>  (28) 
oracle

>  <origin>  (28) 
autodockgpu

>  <m_score__min__energy>  (28) 
-8.9900000000000002

>  <m_primary>  (28) 
energy

>  <rmsd>  (28) 
7.229350215217766

>  <m_score__min__rmsd>  (28) 
7.229350215217766

>  <meeko>  (28) 
{"free_energy": -7.61, "intermolecular_energy": -9.1, "internal_energy": -2.05, "cluster_size": 7, "cluster_id": 4, "rank_in_cluster": 3}

>  <energy>  (28) 
-8.76

>  <cluster_rmsd>  (28) 
0.23

>  <cluster>  (28) 
3

$$$$

     RDKit          3D

 55 58  0  0  0  0  0  0  0  0999 V2000
  139.2130   70.3720  221.4410 O   0  0  0  0  0  0  0  0  0  0  0  0
  139.9200   70.7580  222.4210 C   0  0  0  0  0  0  0  0  0  0  0  0
  140.7790   71.8790  222.2260 N   0  0  0  0  0  0  0  0  0  0  0  0
  140.7920   72.4970  220.9350 C   0  0  0  0  0  0  0  0  0  0  0  0
  140.9320   73.9790  221.0160 C   0  0  0  0  0  0  0  0  0  0  0  0
  140.4360   74.6310  221.9710 O   0  0  0  0  0  0  0  0  0  0  0  0
  141.6480   74.6320  219.9750 N   0  0  0  0  0  0  0  0  0  0  0  0
  141.1420   74.7100  218.6110 C   0  0  0  0  0  0  0  0  0  0  0  0
  141.1520   76.1110  218.0770 C   0  0  0  0  0  0  0  0  0  0  0  0
  141.7110   77.1040  219.0710 C   0  0  0  0  0  0  0  0  0  0  0  0
  143.0210   76.6370  219.6630 C   0  0  0  0  0  0  0  0  0  0  0  0
  142.9140   75.2460  220.2480 C   0  0  2  0  0  0  0  0  0  0  0  0
  144.0160   74.4120  219.6490 C   0  0  0  0  0  0  0  0  0  0  0  0
  143.6080   72.9810  219.4110 C   0  0  0  0  0  0  0  0  0  0  0  0
  144.7670   72.3230  218.6800 C   0  0  0  0  0  0  0  0  0  0  0  0
  145.9500   72.3530  219.3730 O   0  0  0  0  0  0  0  0  0  0  0  0
  145.9390   73.0550  220.5530 C   0  0  0  0  0  0  0  0  0  0  0  0
  145.2540   74.3890  220.4920 C   0  0  0  0  0  0  0  0  0  0  0  0
  139.8630   70.0830  223.7210 C   0  0  0  0  0  0  0  0  0  0  0  0
  139.1710   68.8850  223.7990 C   0  0  0  0  0  0  0  0  0  0  0  0
  139.1140   68.2430  225.0270 C   0  0  0  0  0  0  0  0  0  0  0  0
  139.7410   68.8200  226.0960 C   0  0  0  0  0  0  0  0  0  0  0  0
  139.6900   68.1870  227.3230 C   0  0  0  0  0  0  0  0  0  0  0  0
  140.3060   68.7170  228.4560 C   0  0  0  0  0  0  0  0  0  0  0  0
  140.9890   69.9240  228.3240 C   0  0  0  0  0  0  0  0  0  0  0  0
  141.0570   70.5850  227.1010 C   0  0  0  0  0  0  0  0  0  0  0  0
  140.4350   70.0290  226.0010 C   0  0  0  0  0  0  0  0  0  0  0  0
  140.4690   70.6310  224.7810 N   0  0  0  0  0  0  0  0  0  0  0  0
  141.3730   72.2120  223.0380 H   0  0  0  0  0  0  0  0  0  0  0  0
  141.6374   72.0933  220.3585 H   0  0  0  0  0  0  0  0  0  0  0  0
  139.8305   72.2770  220.4480 H   0  0  0  0  0  0  0  0  0  0  0  0
  141.7713   74.0809  217.9642 H   0  0  0  0  0  0  0  0  0  0  0  0
  140.0986   74.3618  218.6199 H   0  0  0  0  0  0  0  0  0  0  0  0
  141.7688   76.1374  217.1666 H   0  0  0  0  0  0  0  0  0  0  0  0
  140.1107   76.3970  217.8675 H   0  0  0  0  0  0  0  0  0  0  0  0
  141.8746   78.0642  218.5599 H   0  0  0  0  0  0  0  0  0  0  0  0
  140.9856   77.2082  219.8914 H   0  0  0  0  0  0  0  0  0  0  0  0
  143.7862   76.6322  218.8728 H   0  0  0  0  0  0  0  0  0  0  0  0
  143.2924   77.3275  220.4751 H   0  0  0  0  0  0  0  0  0  0  0  0
  143.0048   75.3162  221.3420 H   0  0  0  0  0  0  0  0  0  0  0  0
  144.2266   74.9044  218.6882 H   0  0  0  0  0  0  0  0  0  0  0  0
  143.4243   72.4729  220.3692 H   0  0  0  0  0  0  0  0  0  0  0  0
  142.6798   72.9223  218.8237 H   0  0  0  0  0  0  0  0  0  0  0  0
  144.5041   71.2721  218.4889 H   0  0  0  0  0  0  0  0  0  0  0  0
  144.9253   72.8940  217.7532 H   0  0  0  0  0  0  0  0  0  0  0  0
  145.4263   72.4426  221.3094 H   0  0  0  0  0  0  0  0  0  0  0  0
  146.9915   73.2612  220.7974 H   0  0  0  0  0  0  0  0  0  0  0  0
  144.9782   74.6810  221.5160 H   0  0  0  0  0  0  0  0  0  0  0  0
  145.9651   75.0854  220.0237 H   0  0  0  0  0  0  0  0  0  0  0  0
  138.6811   68.4557  222.9126 H   0  0  0  0  0  0  0  0  0  0  0  0
  138.5759   67.2901  225.1384 H   0  0  0  0  0  0  0  0  0  0  0  0
  139.1462   67.2347  227.4088 H   0  0  0  0  0  0  0  0  0  0  0  0
  140.2543   68.1980  229.4245 H   0  0  0  0  0  0  0  0  0  0  0  0
  141.4839   70.3629  229.2029 H   0  0  0  0  0  0  0  0  0  0  0  0
  141.5993   71.5379  227.0120 H   0  0  0  0  0  0  0  0  0  0  0  0
  1  2  2  0
  2  3  1  0
  3  4  1  0
  4  5  1  0
  5  6  2  0
  5  7  1  0
  7  8  1  0
  8  9  1  0
  9 10  1  0
 10 11  1  0
 11 12  1  0
 12 13  1  0
 13 14  1  0
 14 15  1  0
 15 16  1  0
 16 17  1  0
 17 18  1  0
  2 19  1  0
 19 20  2  0
 20 21  1  0
 21 22  2  0
 22 23  1  0
 23 24  2  0
 24 25  1  0
 25 26  2  0
 26 27  1  0
 27 28  2  0
 12  7  1  0
 18 13  1  0
 28 19  1  0
 27 22  1  0
  3 29  1  0
  4 30  1  0
  4 31  1  0
  8 32  1  0
  8 33  1  0
  9 34  1  0
  9 35  1  0
 10 36  1  0
 10 37  1  0
 11 38  1  0
 11 39  1  0
 12 40  1  1
 13 41  1  0
 14 42  1  0
 14 43  1  0
 15 44  1  0
 15 45  1  0
 17 46  1  0
 17 47  1  0
 18 48  1  0
 18 49  1  0
 20 50  1  0
 21 51  1  0
 23 52  1  0
 24 53  1  0
 25 54  1  0
 26 55  1  0
M  END
>  <smiles>  (29) 
O=C(NCC(=O)N1CCCCC1C1CCOCC1)c1ccc2ccccc2n1

>  <score_type>  (29) 
oracle

>  <origin>  (29) 
autodockgpu

>  <m_score__min__energy>  (29) 
-8.9900000000000002

>  <m_primary>  (29) 
energy

>  <rmsd>  (29) 
2.0329712690699306

>  <m_score__min__rmsd>  (29) 
2.0329712690699306

>  <meeko>  (29) 
{"free_energy": -8.08, "intermolecular_energy": -9.57, "internal_energy": -1.53, "cluster_size": 17, "cluster_id": 1, "rank_in_cluster": 16}

>  <energy>  (29) 
-8.72

>  <cluster_rmsd>  (29) 
0.18

>  <cluster>  (29) 
3

$$$$

     RDKit          3D

 55 58  0  0  0  0  0  0  0  0999 V2000
  141.3990   72.0180  221.5950 O   0  0  0  0  0  0  0  0  0  0  0  0
  140.5520   72.3320  222.4860 C   0  0  0  0  0  0  0  0  0  0  0  0
  139.8430   73.5590  222.3320 N   0  0  0  0  0  0  0  0  0  0  0  0
  140.1310   74.3610  221.1820 C   0  0  0  0  0  0  0  0  0  0  0  0
  140.0960   75.8200  221.4830 C   0  0  0  0  0  0  0  0  0  0  0  0
  139.2640   76.3000  222.2960 O   0  0  0  0  0  0  0  0  0  0  0  0
  141.0360   76.6550  220.8180 N   0  0  0  0  0  0  0  0  0  0  0  0
  142.2880   76.1420  220.2760 C   0  0  0  0  0  0  0  0  0  0  0  0
  142.4950   76.5380  218.8460 C   0  0  0  0  0  0  0  0  0  0  0  0
  141.3710   77.4000  218.3150 C   0  0  0  0  0  0  0  0  0  0  0  0
  141.0400   78.5380  219.2520 C   0  0  0  0  0  0  0  0  0  0  0  0
  140.7690   78.0550  220.6590 C   0  0  2  0  0  0  0  0  0  0  0  0
  141.6520   78.8420  221.5910 C   0  0  0  0  0  0  0  0  0  0  0  0
  141.1430   78.8590  223.0090 C   0  0  0  0  0  0  0  0  0  0  0  0
  142.2090   79.5620  223.8350 C   0  0  0  0  0  0  0  0  0  0  0  0
  142.4710   80.8450  223.4280 O   0  0  0  0  0  0  0  0  0  0  0  0
  141.8250   81.2590  222.2890 C   0  0  0  0  0  0  0  0  0  0  0  0
  141.8270   80.2680  221.1630 C   0  0  0  0  0  0  0  0  0  0  0  0
  140.3000   71.4690  223.6430 C   0  0  0  0  0  0  0  0  0  0  0  0
  139.6460   70.2670  223.4230 C   0  0  0  0  0  0  0  0  0  0  0  0
  139.4050   69.4460  224.5150 C   0  0  0  0  0  0  0  0  0  0  0  0
  139.8210   69.8610  225.7490 C   0  0  0  0  0  0  0  0  0  0  0  0
  139.5850   69.0500  226.8430 C   0  0  0  0  0  0  0  0  0  0  0  0
  139.9810   69.4080  228.1300 C   0  0  0  0  0  0  0  0  0  0  0  0
  140.6340   70.6280  228.2970 C   0  0  0  0  0  0  0  0  0  0  0  0
  140.8860   71.4660  227.2150 C   0  0  0  0  0  0  0  0  0  0  0  0
  140.4780   71.0770  225.9550 C   0  0  0  0  0  0  0  0  0  0  0  0
  140.6980   71.8560  224.8610 N   0  0  0  0  0  0  0  0  0  0  0  0
  139.1320   73.8330  223.0690 H   0  0  0  0  0  0  0  0  0  0  0  0
  141.1337   74.1007  220.8120 H   0  0  0  0  0  0  0  0  0  0  0  0
  139.3569   74.1557  220.4279 H   0  0  0  0  0  0  0  0  0  0  0  0
  143.1210   76.5368  220.8762 H   0  0  0  0  0  0  0  0  0  0  0  0
  142.2469   75.0436  220.3177 H   0  0  0  0  0  0  0  0  0  0  0  0
  143.4374   77.1000  218.7685 H   0  0  0  0  0  0  0  0  0  0  0  0
  142.5226   75.6172  218.2449 H   0  0  0  0  0  0  0  0  0  0  0  0
  141.6719   77.8167  217.3425 H   0  0  0  0  0  0  0  0  0  0  0  0
  140.4755   76.7687  218.2172 H   0  0  0  0  0  0  0  0  0  0  0  0
  141.8886   79.2375  219.2743 H   0  0  0  0  0  0  0  0  0  0  0  0
  140.1283   79.0287  218.8805 H   0  0  0  0  0  0  0  0  0  0  0  0
  139.7028   78.2053  220.8839 H   0  0  0  0  0  0  0  0  0  0  0  0
  142.6172   78.3162  221.5471 H   0  0  0  0  0  0  0  0  0  0  0  0
  140.1922   79.4091  223.0661 H   0  0  0  0  0  0  0  0  0  0  0  0
  140.9562   77.8403  223.3797 H   0  0  0  0  0  0  0  0  0  0  0  0
  141.8719   79.5927  224.8816 H   0  0  0  0  0  0  0  0  0  0  0  0
  143.1401   78.9903  223.7078 H   0  0  0  0  0  0  0  0  0  0  0  0
  140.7788   81.4767  222.5501 H   0  0  0  0  0  0  0  0  0  0  0  0
  142.3766   82.1385  221.9253 H   0  0  0  0  0  0  0  0  0  0  0  0
  141.0056   80.5245  220.4778 H   0  0  0  0  0  0  0  0  0  0  0  0
  142.8177   80.3337  220.6895 H   0  0  0  0  0  0  0  0  0  0  0  0
  139.3274   69.9726  222.4122 H   0  0  0  0  0  0  0  0  0  0  0  0
  138.8902   68.4819  224.3904 H   0  0  0  0  0  0  0  0  0  0  0  0
  139.0678   68.0909  226.6928 H   0  0  0  0  0  0  0  0  0  0  0  0
  139.7843   68.7481  228.9878 H   0  0  0  0  0  0  0  0  0  0  0  0
  140.9563   70.9342  229.3032 H   0  0  0  0  0  0  0  0  0  0  0  0
  141.4034   72.4256  227.3618 H   0  0  0  0  0  0  0  0  0  0  0  0
  1  2  2  0
  2  3  1  0
  3  4  1  0
  4  5  1  0
  5  6  2  0
  5  7  1  0
  7  8  1  0
  8  9  1  0
  9 10  1  0
 10 11  1  0
 11 12  1  0
 12 13  1  0
 13 14  1  0
 14 15  1  0
 15 16  1  0
 16 17  1  0
 17 18  1  0
  2 19  1  0
 19 20  2  0
 20 21  1  0
 21 22  2  0
 22 23  1  0
 23 24  2  0
 24 25  1  0
 25 26  2  0
 26 27  1  0
 27 28  2  0
 12  7  1  0
 18 13  1  0
 28 19  1  0
 27 22  1  0
  3 29  1  0
  4 30  1  0
  4 31  1  0
  8 32  1  0
  8 33  1  0
  9 34  1  0
  9 35  1  0
 10 36  1  0
 10 37  1  0
 11 38  1  0
 11 39  1  0
 12 40  1  1
 13 41  1  0
 14 42  1  0
 14 43  1  0
 15 44  1  0
 15 45  1  0
 17 46  1  0
 17 47  1  0
 18 48  1  0
 18 49  1  0
 20 50  1  0
 21 51  1  0
 23 52  1  0
 24 53  1  0
 25 54  1  0
 26 55  1  0
M  END
>  <smiles>  (30) 
O=C(NCC(=O)N1CCCCC1C1CCOCC1)c1ccc2ccccc2n1

>  <score_type>  (30) 
oracle

>  <origin>  (30) 
autodockgpu

>  <m_score__min__energy>  (30) 
-8.9900000000000002

>  <m_primary>  (30) 
energy

>  <rmsd>  (30) 
2.175719543983357

>  <m_score__min__rmsd>  (30) 
2.175719543983357

>  <meeko>  (30) 
{"free_energy": -8.72, "intermolecular_energy": -10.21, "internal_energy": -1.47, "cluster_size": 18, "cluster_id": 3, "rank_in_cluster": 4}

>  <energy>  (30) 
-8.72

>  <cluster_rmsd>  (30) 
0.21

>  <cluster>  (30) 
3

$$$$

     RDKit          3D

 55 58  0  0  0  0  0  0  0  0999 V2000
  141.3710   72.0830  221.7020 O   0  0  0  0  0  0  0  0  0  0  0  0
  140.4440   72.3490  222.5270 C   0  0  0  0  0  0  0  0  0  0  0  0
  139.6210   73.4830  222.2660 N   0  0  0  0  0  0  0  0  0  0  0  0
  139.8930   74.2540  221.0920 C   0  0  0  0  0  0  0  0  0  0  0  0
  139.8440   75.7210  221.3500 C   0  0  0  0  0  0  0  0  0  0  0  0
  138.8890   76.2410  221.9810 O   0  0  0  0  0  0  0  0  0  0  0  0
  140.9170   76.5140  220.8570 N   0  0  0  0  0  0  0  0  0  0  0  0
  142.1940   75.9390  220.4590 C   0  0  0  0  0  0  0  0  0  0  0  0
  142.6180   76.3780  219.0910 C   0  0  0  0  0  0  0  0  0  0  0  0
  141.6320   77.3370  218.4600 C   0  0  0  0  0  0  0  0  0  0  0  0
  141.2500   78.4560  219.4010 C   0  0  0  0  0  0  0  0  0  0  0  0
  140.7630   77.9350  220.7340 C   0  0  2  0  0  0  0  0  0  0  0  0
  141.5600   78.6200  221.8130 C   0  0  0  0  0  0  0  0  0  0  0  0
  140.8450   78.6590  223.1390 C   0  0  0  0  0  0  0  0  0  0  0  0
  141.8310   79.2450  224.1370 C   0  0  0  0  0  0  0  0  0  0  0  0
  142.2660   80.5050  223.8140 O   0  0  0  0  0  0  0  0  0  0  0  0
  141.8400   80.9980  222.6050 C   0  0  0  0  0  0  0  0  0  0  0  0
  141.9240   80.0310  221.4610 C   0  0  0  0  0  0  0  0  0  0  0  0
  140.2140   71.5210  223.7140 C   0  0  0  0  0  0  0  0  0  0  0  0
  139.4560   70.3710  223.5640 C   0  0  0  0  0  0  0  0  0  0  0  0
  139.2350   69.5840  224.6850 C   0  0  0  0  0  0  0  0  0  0  0  0
  139.7730   69.9800  225.8780 C   0  0  0  0  0  0  0  0  0  0  0  0
  139.5580   69.2020  227.0000 C   0  0  0  0  0  0  0  0  0  0  0  0
  140.0770   69.5440  228.2480 C   0  0  0  0  0  0  0  0  0  0  0  0
  140.8320   70.7110  228.3450 C   0  0  0  0  0  0  0  0  0  0  0  0
  141.0650   71.5140  227.2330 C   0  0  0  0  0  0  0  0  0  0  0  0
  140.5350   71.1430  226.0130 C   0  0  0  0  0  0  0  0  0  0  0  0
  140.7310   71.8900  224.8920 N   0  0  0  0  0  0  0  0  0  0  0  0
  138.8430   73.7140  222.9470 H   0  0  0  0  0  0  0  0  0  0  0  0
  140.8962   73.9938  220.7234 H   0  0  0  0  0  0  0  0  0  0  0  0
  139.1163   74.0186  220.3495 H   0  0  0  0  0  0  0  0  0  0  0  0
  142.9618   76.2492  221.1830 H   0  0  0  0  0  0  0  0  0  0  0  0
  142.0768   74.8455  220.4383 H   0  0  0  0  0  0  0  0  0  0  0  0
  143.5956   76.8764  219.1674 H   0  0  0  0  0  0  0  0  0  0  0  0
  142.6697   75.4832  218.4533 H   0  0  0  0  0  0  0  0  0  0  0  0
  142.0869   77.7714  217.5576 H   0  0  0  0  0  0  0  0  0  0  0  0
  140.7199   76.7736  218.2138 H   0  0  0  0  0  0  0  0  0  0  0  0
  142.1300   79.0941  219.5694 H   0  0  0  0  0  0  0  0  0  0  0  0
  140.4291   79.0233  218.9380 H   0  0  0  0  0  0  0  0  0  0  0  0
  139.6878   78.1493  220.8233 H   0  0  0  0  0  0  0  0  0  0  0  0
  142.4697   78.0074  221.8982 H   0  0  0  0  0  0  0  0  0  0  0  0
  139.9494   79.2939  223.0705 H   0  0  0  0  0  0  0  0  0  0  0  0
  140.5143   77.6555  223.4451 H   0  0  0  0  0  0  0  0  0  0  0  0
  141.3424   79.2891  225.1215 H   0  0  0  0  0  0  0  0  0  0  0  0
  142.7156   78.5911  224.1334 H   0  0  0  0  0  0  0  0  0  0  0  0
  140.7901   81.3078  222.7136 H   0  0  0  0  0  0  0  0  0  0  0  0
  142.5168   81.8286  222.3559 H   0  0  0  0  0  0  0  0  0  0  0  0
  141.2418   80.3748  220.6695 H   0  0  0  0  0  0  0  0  0  0  0  0
  142.9768   80.0129  221.1428 H   0  0  0  0  0  0  0  0  0  0  0  0
  139.0414   70.0901  222.5846 H   0  0  0  0  0  0  0  0  0  0  0  0
  138.6399   68.6615  224.6155 H   0  0  0  0  0  0  0  0  0  0  0  0
  138.9588   68.2844  226.9054 H   0  0  0  0  0  0  0  0  0  0  0  0
  139.8959   68.9115  229.1296 H   0  0  0  0  0  0  0  0  0  0  0  0
  141.2517   71.0029  229.3190 H   0  0  0  0  0  0  0  0  0  0  0  0
  141.6635   72.4324  227.3244 H   0  0  0  0  0  0  0  0  0  0  0  0
  1  2  2  0
  2  3  1  0
  3  4  1  0
  4  5  1  0
  5  6  2  0
  5  7  1  0
  7  8  1  0
  8  9  1  0
  9 10  1  0
 10 11  1  0
 11 12  1  0
 12 13  1  0
 13 14  1  0
 14 15  1  0
 15 16  1  0
 16 17  1  0
 17 18  1  0
  2 19  1  0
 19 20  2  0
 20 21  1  0
 21 22  2  0
 22 23  1  0
 23 24  2  0
 24 25  1  0
 25 26  2  0
 26 27  1  0
 27 28  2  0
 12  7  1  0
 18 13  1  0
 28 19  1  0
 27 22  1  0
  3 29  1  0
  4 30  1  0
  4 31  1  0
  8 32  1  0
  8 33  1  0
  9 34  1  0
  9 35  1  0
 10 36  1  0
 10 37  1  0
 11 38  1  0
 11 39  1  0
 12 40  1  1
 13 41  1  0
 14 42  1  0
 14 43  1  0
 15 44  1  0
 15 45  1  0
 17 46  1  0
 17 47  1  0
 18 48  1  0
 18 49  1  0
 20 50  1  0
 21 51  1  0
 23 52  1  0
 24 53  1  0
 25 54  1  0
 26 55  1  0
M  END
>  <smiles>  (31) 
O=C(NCC(=O)N1CCCCC1C1CCOCC1)c1ccc2ccccc2n1

>  <score_type>  (31) 
oracle

>  <origin>  (31) 
autodockgpu

>  <m_score__min__energy>  (31) 
-8.9900000000000002

>  <m_primary>  (31) 
energy

>  <rmsd>  (31) 
2.1733194005712315

>  <m_score__min__rmsd>  (31) 
2.1733194005712315

>  <meeko>  (31) 
{"free_energy": -8.76, "intermolecular_energy": -10.25, "internal_energy": -1.41, "cluster_size": 18, "cluster_id": 3, "rank_in_cluster": 3}

>  <energy>  (31) 
-8.68

>  <cluster_rmsd>  (31) 
0.2

>  <cluster>  (31) 
3

$$$$

     RDKit          3D

 55 58  0  0  0  0  0  0  0  0999 V2000
  139.6330   70.9280  221.4130 O   0  0  0  0  0  0  0  0  0  0  0  0
  139.7540   71.4900  222.5440 C   0  0  0  0  0  0  0  0  0  0  0  0
  139.8340   72.9130  222.5800 N   0  0  0  0  0  0  0  0  0  0  0  0
  139.7740   73.6190  221.3360 C   0  0  0  0  0  0  0  0  0  0  0  0
  140.7790   74.7170  221.2570 C   0  0  0  0  0  0  0  0  0  0  0  0
  140.9090   75.5520  222.1890 O   0  0  0  0  0  0  0  0  0  0  0  0
  141.5880   74.7880  220.0890 N   0  0  0  0  0  0  0  0  0  0  0  0
  141.0820   74.4450  218.7670 C   0  0  0  0  0  0  0  0  0  0  0  0
  141.3540   75.5170  217.7560 C   0  0  0  0  0  0  0  0  0  0  0  0
  142.1140   76.6860  218.3420 C   0  0  0  0  0  0  0  0  0  0  0  0
  143.3190   76.2360  219.1360 C   0  0  0  0  0  0  0  0  0  0  0  0
  142.9550   75.2110  220.1870 C   0  0  2  0  0  0  0  0  0  0  0  0
  143.8620   74.0230  219.9990 C   0  0  0  0  0  0  0  0  0  0  0  0
  145.1880   74.1780  220.6990 C   0  0  0  0  0  0  0  0  0  0  0  0
  145.9140   72.8520  220.5340 C   0  0  0  0  0  0  0  0  0  0  0  0
  146.1250   72.4940  219.2270 O   0  0  0  0  0  0  0  0  0  0  0  0
  145.5640   73.3140  218.2790 C   0  0  0  0  0  0  0  0  0  0  0  0
  144.1490   73.7310  218.5580 C   0  0  0  0  0  0  0  0  0  0  0  0
  139.8100   70.7120  223.7850 C   0  0  0  0  0  0  0  0  0  0  0  0
  139.2730   69.4340  223.7730 C   0  0  0  0  0  0  0  0  0  0  0  0
  139.3240   68.6930  224.9450 C   0  0  0  0  0  0  0  0  0  0  0  0
  139.8970   69.2580  226.0500 C   0  0  0  0  0  0  0  0  0  0  0  0
  139.9520   68.5270  227.2210 C   0  0  0  0  0  0  0  0  0  0  0  0
  140.5220   69.0380  228.3870 C   0  0  0  0  0  0  0  0  0  0  0  0
  141.0470   70.3280  228.3460 C   0  0  0  0  0  0  0  0  0  0  0  0
  141.0060   71.0880  227.1810 C   0  0  0  0  0  0  0  0  0  0  0  0
  140.4340   70.5480  226.0460 C   0  0  0  0  0  0  0  0  0  0  0  0
  140.3660   71.2450  224.8790 N   0  0  0  0  0  0  0  0  0  0  0  0
  139.9340   73.3940  223.5190 H   0  0  0  0  0  0  0  0  0  0  0  0
  139.9616   72.9087  220.5173 H   0  0  0  0  0  0  0  0  0  0  0  0
  138.7749   74.0722  221.2553 H   0  0  0  0  0  0  0  0  0  0  0  0
  141.5652   73.5146  218.4342 H   0  0  0  0  0  0  0  0  0  0  0  0
  139.9912   74.3266  218.8454 H   0  0  0  0  0  0  0  0  0  0  0  0
  141.9470   75.0862  216.9358 H   0  0  0  0  0  0  0  0  0  0  0  0
  140.3842   75.8938  217.3991 H   0  0  0  0  0  0  0  0  0  0  0  0
  142.4516   77.3371  217.5222 H   0  0  0  0  0  0  0  0  0  0  0  0
  141.4386   77.2234  219.0239 H   0  0  0  0  0  0  0  0  0  0  0  0
  144.0529   75.7927  218.4469 H   0  0  0  0  0  0  0  0  0  0  0  0
  143.7353   77.1154  219.6491 H   0  0  0  0  0  0  0  0  0  0  0  0
  143.0785   75.6654  221.1811 H   0  0  0  0  0  0  0  0  0  0  0  0
  143.3003   73.1891  220.4453 H   0  0  0  0  0  0  0  0  0  0  0  0
  145.7693   74.9906  220.2387 H   0  0  0  0  0  0  0  0  0  0  0  0
  145.0529   74.4309  221.7610 H   0  0  0  0  0  0  0  0  0  0  0  0
  146.8905   72.9269  221.0348 H   0  0  0  0  0  0  0  0  0  0  0  0
  145.2708   72.0778  220.9778 H   0  0  0  0  0  0  0  0  0  0  0  0
  146.1796   74.2228  218.2065 H   0  0  0  0  0  0  0  0  0  0  0  0
  145.5345   72.7309  217.3467 H   0  0  0  0  0  0  0  0  0  0  0  0
  143.9365   74.6388  217.9742 H   0  0  0  0  0  0  0  0  0  0  0  0
  143.5102   72.8807  218.2770 H   0  0  0  0  0  0  0  0  0  0  0  0
  138.8195   69.0193  222.8606 H   0  0  0  0  0  0  0  0  0  0  0  0
  138.9125   67.6736  224.9841 H   0  0  0  0  0  0  0  0  0  0  0  0
  139.5331   67.5100  227.2342 H   0  0  0  0  0  0  0  0  0  0  0  0
  140.5560   68.4411  229.3103 H   0  0  0  0  0  0  0  0  0  0  0  0
  141.5027   70.7539  229.2521 H   0  0  0  0  0  0  0  0  0  0  0  0
  141.4237   72.1055  227.1644 H   0  0  0  0  0  0  0  0  0  0  0  0
  1  2  2  0
  2  3  1  0
  3  4  1  0
  4  5  1  0
  5  6  2  0
  5  7  1  0
  7  8  1  0
  8  9  1  0
  9 10  1  0
 10 11  1  0
 11 12  1  0
 12 13  1  0
 13 14  1  0
 14 15  1  0
 15 16  1  0
 16 17  1  0
 17 18  1  0
  2 19  1  0
 19 20  2  0
 20 21  1  0
 21 22  2  0
 22 23  1  0
 23 24  2  0
 24 25  1  0
 25 26  2  0
 26 27  1  0
 27 28  2  0
 12  7  1  0
 18 13  1  0
 28 19  1  0
 27 22  1  0
  3 29  1  0
  4 30  1  0
  4 31  1  0
  8 32  1  0
  8 33  1  0
  9 34  1  0
  9 35  1  0
 10 36  1  0
 10 37  1  0
 11 38  1  0
 11 39  1  0
 12 40  1  1
 13 41  1  0
 14 42  1  0
 14 43  1  0
 15 44  1  0
 15 45  1  0
 17 46  1  0
 17 47  1  0
 18 48  1  0
 18 49  1  0
 20 50  1  0
 21 51  1  0
 23 52  1  0
 24 53  1  0
 25 54  1  0
 26 55  1  0
M  END
>  <smiles>  (32) 
O=C(NCC(=O)N1CCCCC1C1CCOCC1)c1ccc2ccccc2n1

>  <score_type>  (32) 
oracle

>  <origin>  (32) 
autodockgpu

>  <m_score__min__energy>  (32) 
-8.9900000000000002

>  <m_primary>  (32) 
energy

>  <rmsd>  (32) 
1.7795323430072707

>  <m_score__min__rmsd>  (32) 
1.7795323430072707

>  <meeko>  (32) 
{"free_energy": -8.62, "intermolecular_energy": -10.11, "internal_energy": -1.57, "cluster_size": 17, "cluster_id": 1, "rank_in_cluster": 11}

>  <energy>  (32) 
-8.67

>  <cluster_rmsd>  (32) 
0.48

>  <cluster>  (32) 
3

$$$$

     RDKit          3D

 55 58  0  0  0  0  0  0  0  0999 V2000
  140.2940   74.3560  220.0100 O   0  0  0  0  0  0  0  0  0  0  0  0
  140.1990   74.9930  221.1040 C   0  0  0  0  0  0  0  0  0  0  0  0
  139.5440   74.3520  222.1960 N   0  0  0  0  0  0  0  0  0  0  0  0
  139.0320   73.0320  221.9900 C   0  0  0  0  0  0  0  0  0  0  0  0
  139.8530   71.9910  222.6710 C   0  0  0  0  0  0  0  0  0  0  0  0
  141.0700   71.8350  222.3950 O   0  0  0  0  0  0  0  0  0  0  0  0
  139.2120   71.1790  223.6470 N   0  0  0  0  0  0  0  0  0  0  0  0
  137.7700   71.1950  223.8500 C   0  0  0  0  0  0  0  0  0  0  0  0
  137.1740   69.8200  223.8280 C   0  0  0  0  0  0  0  0  0  0  0  0
  138.2160   68.7420  223.6290 C   0  0  0  0  0  0  0  0  0  0  0  0
  139.3930   68.9130  224.5610 C   0  0  0  0  0  0  0  0  0  0  0  0
  139.9880   70.3010  224.4740 C   0  0  2  0  0  0  0  0  0  0  0  0
  140.0560   70.8580  225.8720 C   0  0  0  0  0  0  0  0  0  0  0  0
  141.3040   71.6640  226.1240 C   0  0  0  0  0  0  0  0  0  0  0  0
  141.1480   72.2660  227.5120 C   0  0  0  0  0  0  0  0  0  0  0  0
  140.9950   71.3350  228.5070 O   0  0  0  0  0  0  0  0  0  0  0  0
  140.8960   70.0270  228.0990 C   0  0  0  0  0  0  0  0  0  0  0  0
  139.9890   69.7950  226.9260 C   0  0  0  0  0  0  0  0  0  0  0  0
  140.7440   76.3450  221.2540 C   0  0  0  0  0  0  0  0  0  0  0  0
  141.1360   77.0160  220.1060 C   0  0  0  0  0  0  0  0  0  0  0  0
  141.6530   78.2960  220.2430 C   0  0  0  0  0  0  0  0  0  0  0  0
  141.7490   78.8310  221.4970 C   0  0  0  0  0  0  0  0  0  0  0  0
  142.2630   80.1060  221.6430 C   0  0  0  0  0  0  0  0  0  0  0  0
  142.3900   80.7140  222.8910 C   0  0  0  0  0  0  0  0  0  0  0  0
  141.9820   79.9970  224.0130 C   0  0  0  0  0  0  0  0  0  0  0  0
  141.4610   78.7110  223.8970 C   0  0  0  0  0  0  0  0  0  0  0  0
  141.3500   78.1410  222.6450 C   0  0  0  0  0  0  0  0  0  0  0  0
  140.8490   76.8880  222.4720 N   0  0  0  0  0  0  0  0  0  0  0  0
  139.4590   74.8730  223.1150 H   0  0  0  0  0  0  0  0  0  0  0  0
  138.0058   72.9858  222.3835 H   0  0  0  0  0  0  0  0  0  0  0  0
  139.0592   72.8267  220.9097 H   0  0  0  0  0  0  0  0  0  0  0  0
  137.5557   71.6572  224.8249 H   0  0  0  0  0  0  0  0  0  0  0  0
  137.3218   71.7678  223.0248 H   0  0  0  0  0  0  0  0  0  0  0  0
  136.6605   69.6424  224.7844 H   0  0  0  0  0  0  0  0  0  0  0  0
  136.4754   69.7713  222.9797 H   0  0  0  0  0  0  0  0  0  0  0  0
  137.7534   67.7619  223.8173 H   0  0  0  0  0  0  0  0  0  0  0  0
  138.5873   68.8151  222.5961 H   0  0  0  0  0  0  0  0  0  0  0  0
  139.0574   68.7346  225.5933 H   0  0  0  0  0  0  0  0  0  0  0  0
  140.1687   68.1917  224.2644 H   0  0  0  0  0  0  0  0  0  0  0  0
  140.9853   70.2288  224.0154 H   0  0  0  0  0  0  0  0  0  0  0  0
  139.1723   71.5094  225.9407 H   0  0  0  0  0  0  0  0  0  0  0  0
  142.1911   71.0145  226.0876 H   0  0  0  0  0  0  0  0  0  0  0  0
  141.4372   72.4452  225.3612 H   0  0  0  0  0  0  0  0  0  0  0  0
  142.0440   72.8648  227.7326 H   0  0  0  0  0  0  0  0  0  0  0  0
  140.2294   72.8709  227.4965 H   0  0  0  0  0  0  0  0  0  0  0  0
  141.9027   69.6776  227.8262 H   0  0  0  0  0  0  0  0  0  0  0  0
  140.4553   69.4747  228.9421 H   0  0  0  0  0  0  0  0  0  0  0  0
  140.2626   68.8349  226.4642 H   0  0  0  0  0  0  0  0  0  0  0  0
  138.9610   69.8052  227.3172 H   0  0  0  0  0  0  0  0  0  0  0  0
  141.0399   76.5472  219.1155 H   0  0  0  0  0  0  0  0  0  0  0  0
  141.9786   78.8679  219.3616 H   0  0  0  0  0  0  0  0  0  0  0  0
  142.5817   80.6580  220.7465 H   0  0  0  0  0  0  0  0  0  0  0  0
  142.8004   81.7301  222.9867 H   0  0  0  0  0  0  0  0  0  0  0  0
  142.0730   80.4550  225.0090 H   0  0  0  0  0  0  0  0  0  0  0  0
  141.1419   78.1564  224.7918 H   0  0  0  0  0  0  0  0  0  0  0  0
  1  2  2  0
  2  3  1  0
  3  4  1  0
  4  5  1  0
  5  6  2  0
  5  7  1  0
  7  8  1  0
  8  9  1  0
  9 10  1  0
 10 11  1  0
 11 12  1  0
 12 13  1  0
 13 14  1  0
 14 15  1  0
 15 16  1  0
 16 17  1  0
 17 18  1  0
  2 19  1  0
 19 20  2  0
 20 21  1  0
 21 22  2  0
 22 23  1  0
 23 24  2  0
 24 25  1  0
 25 26  2  0
 26 27  1  0
 27 28  2  0
 12  7  1  0
 18 13  1  0
 28 19  1  0
 27 22  1  0
  3 29  1  0
  4 30  1  0
  4 31  1  0
  8 32  1  0
  8 33  1  0
  9 34  1  0
  9 35  1  0
 10 36  1  0
 10 37  1  0
 11 38  1  0
 11 39  1  0
 12 40  1  6
 13 41  1  0
 14 42  1  0
 14 43  1  0
 15 44  1  0
 15 45  1  0
 17 46  1  0
 17 47  1  0
 18 48  1  0
 18 49  1  0
 20 50  1  0
 21 51  1  0
 23 52  1  0
 24 53  1  0
 25 54  1  0
 26 55  1  0
M  END
>  <smiles>  (33) 
O=C(NCC(=O)N1CCCCC1C1CCOCC1)c1ccc2ccccc2n1

>  <score_type>  (33) 
oracle

>  <origin>  (33) 
autodockgpu

>  <m_score__min__energy>  (33) 
-8.9900000000000002

>  <m_primary>  (33) 
energy

>  <rmsd>  (33) 
8.419891169505709

>  <m_score__min__rmsd>  (33) 
8.419891169505709

>  <meeko>  (33) 
{"free_energy": -8.61, "intermolecular_energy": -10.1, "internal_energy": -1.53, "cluster_size": 8, "cluster_id": 2, "rank_in_cluster": 7}

>  <energy>  (33) 
-8.67

>  <cluster_rmsd>  (33) 
0.35

>  <cluster>  (33) 
3

$$$$

     RDKit          3D

 55 58  0  0  0  0  0  0  0  0999 V2000
  138.8200   75.5200  221.6260 O   0  0  0  0  0  0  0  0  0  0  0  0
  139.9770   75.9380  221.9350 C   0  0  0  0  0  0  0  0  0  0  0  0
  141.0740   75.0380  221.7920 N   0  0  0  0  0  0  0  0  0  0  0  0
  140.8010   73.7180  221.3110 C   0  0  0  0  0  0  0  0  0  0  0  0
  140.9160   73.6190  219.8290 C   0  0  0  0  0  0  0  0  0  0  0  0
  140.1260   72.9050  219.1580 O   0  0  0  0  0  0  0  0  0  0  0  0
  141.9530   74.3590  219.1960 N   0  0  0  0  0  0  0  0  0  0  0  0
  141.8990   74.7300  217.7880 C   0  0  0  0  0  0  0  0  0  0  0  0
  142.1490   76.1920  217.5730 C   0  0  0  0  0  0  0  0  0  0  0  0
  142.4270   76.9270  218.8660 C   0  0  0  0  0  0  0  0  0  0  0  0
  143.4620   76.2190  219.7090 C   0  0  0  0  0  0  0  0  0  0  0  0
  143.1050   74.7690  219.9460 C   0  0  2  0  0  0  0  0  0  0  0  0
  144.2910   73.9340  219.5410 C   0  0  0  0  0  0  0  0  0  0  0  0
  143.9790   72.4600  219.4800 C   0  0  0  0  0  0  0  0  0  0  0  0
  145.2230   71.7860  218.9230 C   0  0  0  0  0  0  0  0  0  0  0  0
  146.3490   71.9850  219.6810 O   0  0  0  0  0  0  0  0  0  0  0  0
  146.2140   72.8380  220.7480 C   0  0  0  0  0  0  0  0  0  0  0  0
  145.4640   74.1040  220.4570 C   0  0  0  0  0  0  0  0  0  0  0  0
  140.1950   77.3030  222.4230 C   0  0  0  0  0  0  0  0  0  0  0  0
  139.0800   78.0670  222.7280 C   0  0  0  0  0  0  0  0  0  0  0  0
  139.2810   79.3590  223.1900 C   0  0  0  0  0  0  0  0  0  0  0  0
  140.5630   79.8140  223.3220 C   0  0  0  0  0  0  0  0  0  0  0  0
  140.7720   81.1000  223.7820 C   0  0  0  0  0  0  0  0  0  0  0  0
  142.0520   81.6300  223.9410 C   0  0  0  0  0  0  0  0  0  0  0  0
  143.1400   80.8210  223.6200 C   0  0  0  0  0  0  0  0  0  0  0  0
  142.9600   79.5220  223.1550 C   0  0  0  0  0  0  0  0  0  0  0  0
  141.6780   79.0310  223.0100 C   0  0  0  0  0  0  0  0  0  0  0  0
  141.4420   77.7690  222.5590 N   0  0  0  0  0  0  0  0  0  0  0  0
  142.0460   75.3760  222.0460 H   0  0  0  0  0  0  0  0  0  0  0  0
  141.5176   73.0200  221.7684 H   0  0  0  0  0  0  0  0  0  0  0  0
  139.7652   73.4687  221.5846 H   0  0  0  0  0  0  0  0  0  0  0  0
  142.6628   74.1569  217.2420 H   0  0  0  0  0  0  0  0  0  0  0  0
  140.8871   74.5049  217.4201 H   0  0  0  0  0  0  0  0  0  0  0  0
  143.0172   76.3076  216.9075 H   0  0  0  0  0  0  0  0  0  0  0  0
  141.2403   76.6256  217.1300 H   0  0  0  0  0  0  0  0  0  0  0  0
  142.7928   77.9369  218.6287 H   0  0  0  0  0  0  0  0  0  0  0  0
  141.4905   76.9677  219.4415 H   0  0  0  0  0  0  0  0  0  0  0  0
  144.4325   76.2659  219.1933 H   0  0  0  0  0  0  0  0  0  0  0  0
  143.5056   76.7220  220.6863 H   0  0  0  0  0  0  0  0  0  0  0  0
  142.8577   74.6359  221.0095 H   0  0  0  0  0  0  0  0  0  0  0  0
  144.5438   74.3042  218.5365 H   0  0  0  0  0  0  0  0  0  0  0  0
  143.7551   72.0756  220.4860 H   0  0  0  0  0  0  0  0  0  0  0  0
  143.0995   72.2621  218.8497 H   0  0  0  0  0  0  0  0  0  0  0  0
  145.0331   70.7042  218.8621 H   0  0  0  0  0  0  0  0  0  0  0  0
  145.4169   72.2366  217.9384 H   0  0  0  0  0  0  0  0  0  0  0  0
  145.6817   72.3023  221.5478 H   0  0  0  0  0  0  0  0  0  0  0  0
  147.2331   73.1422  221.0290 H   0  0  0  0  0  0  0  0  0  0  0  0
  145.0991   74.5141  221.4102 H   0  0  0  0  0  0  0  0  0  0  0  0
  146.1685   74.7740  219.9424 H   0  0  0  0  0  0  0  0  0  0  0  0
  138.0650   77.6605  222.6072 H   0  0  0  0  0  0  0  0  0  0  0  0
  138.4270   80.0038  223.4448 H   0  0  0  0  0  0  0  0  0  0  0  0
  139.9017   81.7251  224.0305 H   0  0  0  0  0  0  0  0  0  0  0  0
  142.1984   82.6563  224.3089 H   0  0  0  0  0  0  0  0  0  0  0  0
  144.1599   81.2164  223.7363 H   0  0  0  0  0  0  0  0  0  0  0  0
  143.8283   78.8942  222.9061 H   0  0  0  0  0  0  0  0  0  0  0  0
  1  2  2  0
  2  3  1  0
  3  4  1  0
  4  5  1  0
  5  6  2  0
  5  7  1  0
  7  8  1  0
  8  9  1  0
  9 10  1  0
 10 11  1  0
 11 12  1  0
 12 13  1  0
 13 14  1  0
 14 15  1  0
 15 16  1  0
 16 17  1  0
 17 18  1  0
  2 19  1  0
 19 20  2  0
 20 21  1  0
 21 22  2  0
 22 23  1  0
 23 24  2  0
 24 25  1  0
 25 26  2  0
 26 27  1  0
 27 28  2  0
 12  7  1  0
 18 13  1  0
 28 19  1  0
 27 22  1  0
  3 29  1  0
  4 30  1  0
  4 31  1  0
  8 32  1  0
  8 33  1  0
  9 34  1  0
  9 35  1  0
 10 36  1  0
 10 37  1  0
 11 38  1  0
 11 39  1  0
 12 40  1  1
 13 41  1  0
 14 42  1  0
 14 43  1  0
 15 44  1  0
 15 45  1  0
 17 46  1  0
 17 47  1  0
 18 48  1  0
 18 49  1  0
 20 50  1  0
 21 51  1  0
 23 52  1  0
 24 53  1  0
 25 54  1  0
 26 55  1  0
M  END
>  <smiles>  (34) 
O=C(NCC(=O)N1CCCCC1C1CCOCC1)c1ccc2ccccc2n1

>  <score_type>  (34) 
oracle

>  <origin>  (34) 
autodockgpu

>  <m_score__min__energy>  (34) 
-8.9900000000000002

>  <m_primary>  (34) 
energy

>  <rmsd>  (34) 
7.262756358480105

>  <m_score__min__rmsd>  (34) 
7.262756358480105

>  <meeko>  (34) 
{"free_energy": -7.66, "intermolecular_energy": -9.15, "internal_energy": -2.03, "cluster_size": 7, "cluster_id": 4, "rank_in_cluster": 1}

>  <energy>  (34) 
-8.67

>  <cluster_rmsd>  (34) 
0.38

>  <cluster>  (34) 
3

$$$$

     RDKit          3D

 55 58  0  0  0  0  0  0  0  0999 V2000
  141.2020   72.4180  221.8280 O   0  0  0  0  0  0  0  0  0  0  0  0
  140.2060   72.4110  222.6130 C   0  0  0  0  0  0  0  0  0  0  0  0
  139.1350   73.3130  222.3430 N   0  0  0  0  0  0  0  0  0  0  0  0
  139.2520   74.1720  221.2040 C   0  0  0  0  0  0  0  0  0  0  0  0
  139.5870   75.5740  221.5810 C   0  0  0  0  0  0  0  0  0  0  0  0
  138.8490   76.2370  222.3550 O   0  0  0  0  0  0  0  0  0  0  0  0
  140.7730   76.1390  221.0360 N   0  0  0  0  0  0  0  0  0  0  0  0
  141.9990   75.3700  220.8710 C   0  0  0  0  0  0  0  0  0  0  0  0
  142.5570   75.4750  219.4840 C   0  0  0  0  0  0  0  0  0  0  0  0
  141.7300   76.3780  218.5950 C   0  0  0  0  0  0  0  0  0  0  0  0
  141.4190   77.6980  219.2600 C   0  0  0  0  0  0  0  0  0  0  0  0
  140.7910   77.5130  220.6230 C   0  0  2  0  0  0  0  0  0  0  0  0
  141.5910   78.3220  221.6100 C   0  0  0  0  0  0  0  0  0  0  0  0
  140.9430   78.4020  222.9680 C   0  0  0  0  0  0  0  0  0  0  0  0
  141.9340   79.1190  223.8710 C   0  0  0  0  0  0  0  0  0  0  0  0
  142.2610   80.3810  223.4450 O   0  0  0  0  0  0  0  0  0  0  0  0
  141.7410   80.7610  222.2320 C   0  0  0  0  0  0  0  0  0  0  0  0
  141.8360   79.7260  221.1490 C   0  0  0  0  0  0  0  0  0  0  0  0
  140.1430   71.5080  223.7660 C   0  0  0  0  0  0  0  0  0  0  0  0
  139.5720   70.2590  223.5780 C   0  0  0  0  0  0  0  0  0  0  0  0
  139.5100   69.3990  224.6650 C   0  0  0  0  0  0  0  0  0  0  0  0
  140.0120   69.8250  225.8640 C   0  0  0  0  0  0  0  0  0  0  0  0
  139.9550   68.9760  226.9520 C   0  0  0  0  0  0  0  0  0  0  0  0
  140.4470   69.3420  228.2040 C   0  0  0  0  0  0  0  0  0  0  0  0
  141.0110   70.6100  228.3390 C   0  0  0  0  0  0  0  0  0  0  0  0
  141.0820   71.4860  227.2610 C   0  0  0  0  0  0  0  0  0  0  0  0
  140.5840   71.0880  226.0370 C   0  0  0  0  0  0  0  0  0  0  0  0
  140.6270   71.9040  224.9480 N   0  0  0  0  0  0  0  0  0  0  0  0
  138.2960   73.3160  222.9910 H   0  0  0  0  0  0  0  0  0  0  0  0
  140.0454   73.7834  220.5487 H   0  0  0  0  0  0  0  0  0  0  0  0
  138.2778   74.1860  220.6934 H   0  0  0  0  0  0  0  0  0  0  0  0
  142.7493   75.7444  221.5829 H   0  0  0  0  0  0  0  0  0  0  0  0
  141.7593   74.3127  221.0569 H   0  0  0  0  0  0  0  0  0  0  0  0
  143.5787   75.8783  219.5441 H   0  0  0  0  0  0  0  0  0  0  0  0
  142.5458   74.4680  219.0415 H   0  0  0  0  0  0  0  0  0  0  0  0
  142.2886   76.5709  217.6672 H   0  0  0  0  0  0  0  0  0  0  0  0
  140.7768   75.8696  218.3879 H   0  0  0  0  0  0  0  0  0  0  0  0
  142.3536   78.2668  219.3741 H   0  0  0  0  0  0  0  0  0  0  0  0
  140.6997   78.2364  218.6254 H   0  0  0  0  0  0  0  0  0  0  0  0
  139.7440   77.8472  220.5762 H   0  0  0  0  0  0  0  0  0  0  0  0
  142.5452   77.7797  221.6839 H   0  0  0  0  0  0  0  0  0  0  0  0
  140.0023   78.9691  222.9085 H   0  0  0  0  0  0  0  0  0  0  0  0
  140.7001   77.4014  223.3551 H   0  0  0  0  0  0  0  0  0  0  0  0
  141.4940   79.1958  224.8762 H   0  0  0  0  0  0  0  0  0  0  0  0
  142.8616   78.5278  223.8604 H   0  0  0  0  0  0  0  0  0  0  0  0
  140.6786   81.0059  222.3778 H   0  0  0  0  0  0  0  0  0  0  0  0
  142.3438   81.6166  221.8934 H   0  0  0  0  0  0  0  0  0  0  0  0
  141.0925   79.9685  220.3755 H   0  0  0  0  0  0  0  0  0  0  0  0
  142.8702   79.7572  220.7755 H   0  0  0  0  0  0  0  0  0  0  0  0
  139.1794   69.9584  222.5954 H   0  0  0  0  0  0  0  0  0  0  0  0
  139.0671   68.3971  224.5648 H   0  0  0  0  0  0  0  0  0  0  0  0
  139.5071   67.9792  226.8266 H   0  0  0  0  0  0  0  0  0  0  0  0
  140.3920   68.6519  229.0588 H   0  0  0  0  0  0  0  0  0  0  0  0
  141.4071   70.9233  229.3162 H   0  0  0  0  0  0  0  0  0  0  0  0
  141.5295   72.4835  227.3825 H   0  0  0  0  0  0  0  0  0  0  0  0
  1  2  2  0
  2  3  1  0
  3  4  1  0
  4  5  1  0
  5  6  2  0
  5  7  1  0
  7  8  1  0
  8  9  1  0
  9 10  1  0
 10 11  1  0
 11 12  1  0
 12 13  1  0
 13 14  1  0
 14 15  1  0
 15 16  1  0
 16 17  1  0
 17 18  1  0
  2 19  1  0
 19 20  2  0
 20 21  1  0
 21 22  2  0
 22 23  1  0
 23 24  2  0
 24 25  1  0
 25 26  2  0
 26 27  1  0
 27 28  2  0
 12  7  1  0
 18 13  1  0
 28 19  1  0
 27 22  1  0
  3 29  1  0
  4 30  1  0
  4 31  1  0
  8 32  1  0
  8 33  1  0
  9 34  1  0
  9 35  1  0
 10 36  1  0
 10 37  1  0
 11 38  1  0
 11 39  1  0
 12 40  1  6
 13 41  1  0
 14 42  1  0
 14 43  1  0
 15 44  1  0
 15 45  1  0
 17 46  1  0
 17 47  1  0
 18 48  1  0
 18 49  1  0
 20 50  1  0
 21 51  1  0
 23 52  1  0
 24 53  1  0
 25 54  1  0
 26 55  1  0
M  END
>  <smiles>  (35) 
O=C(NCC(=O)N1CCCCC1C1CCOCC1)c1ccc2ccccc2n1

>  <score_type>  (35) 
oracle

>  <origin>  (35) 
autodockgpu

>  <m_score__min__energy>  (35) 
-8.9900000000000002

>  <m_primary>  (35) 
energy

>  <rmsd>  (35) 
2.022806463781914

>  <m_score__min__rmsd>  (35) 
2.022806463781914

>  <meeko>  (35) 
{"free_energy": -8.64, "intermolecular_energy": -10.13, "internal_energy": -1.43, "cluster_size": 18, "cluster_id": 3, "rank_in_cluster": 12}

>  <energy>  (35) 
-8.66

>  <cluster_rmsd>  (35) 
0.41

>  <cluster>  (35) 
3

$$$$

     RDKit          3D

 55 58  0  0  0  0  0  0  0  0999 V2000
  141.3700   72.6300  221.9910 O   0  0  0  0  0  0  0  0  0  0  0  0
  140.3080   72.5270  222.6770 C   0  0  0  0  0  0  0  0  0  0  0  0
  139.2090   73.3710  222.3420 N   0  0  0  0  0  0  0  0  0  0  0  0
  139.3740   74.2850  221.2530 C   0  0  0  0  0  0  0  0  0  0  0  0
  139.7490   75.6530  221.7100 C   0  0  0  0  0  0  0  0  0  0  0  0
  139.1060   76.2380  222.6180 O   0  0  0  0  0  0  0  0  0  0  0  0
  140.8640   76.2760  221.0830 N   0  0  0  0  0  0  0  0  0  0  0  0
  142.1080   75.5650  220.8180 C   0  0  0  0  0  0  0  0  0  0  0  0
  142.5550   75.7050  219.3950 C   0  0  0  0  0  0  0  0  0  0  0  0
  141.6230   76.5740  218.5790 C   0  0  0  0  0  0  0  0  0  0  0  0
  141.3040   77.8740  219.2800 C   0  0  0  0  0  0  0  0  0  0  0  0
  140.7890   77.6510  220.6840 C   0  0  2  0  0  0  0  0  0  0  0  0
  141.6230   78.4900  221.6160 C   0  0  0  0  0  0  0  0  0  0  0  0
  141.0630   78.5500  223.0140 C   0  0  0  0  0  0  0  0  0  0  0  0
  142.0860   79.3030  223.8500 C   0  0  0  0  0  0  0  0  0  0  0  0
  142.3400   80.5750  223.4040 O   0  0  0  0  0  0  0  0  0  0  0  0
  141.7290   80.9340  222.2280 C   0  0  0  0  0  0  0  0  0  0  0  0
  141.7880   79.9010  221.1400 C   0  0  0  0  0  0  0  0  0  0  0  0
  140.1990   71.5710  223.7830 C   0  0  0  0  0  0  0  0  0  0  0  0
  139.5860   70.3540  223.5290 C   0  0  0  0  0  0  0  0  0  0  0  0
  139.4800   69.4460  224.5720 C   0  0  0  0  0  0  0  0  0  0  0  0
  139.9830   69.7940  225.7940 C   0  0  0  0  0  0  0  0  0  0  0  0
  139.8830   68.8950  226.8390 C   0  0  0  0  0  0  0  0  0  0  0  0
  140.3730   69.1820  228.1130 C   0  0  0  0  0  0  0  0  0  0  0  0
  140.9810   70.4200  228.3160 C   0  0  0  0  0  0  0  0  0  0  0  0
  141.0960   71.3450  227.2820 C   0  0  0  0  0  0  0  0  0  0  0  0
  140.5980   71.0250  226.0350 C   0  0  0  0  0  0  0  0  0  0  0  0
  140.6840   71.8910  224.9880 N   0  0  0  0  0  0  0  0  0  0  0  0
  138.3160   73.2940  222.9070 H   0  0  0  0  0  0  0  0  0  0  0  0
  140.1652   73.9050  220.5899 H   0  0  0  0  0  0  0  0  0  0  0  0
  138.4096   74.3595  220.7292 H   0  0  0  0  0  0  0  0  0  0  0  0
  142.8921   75.9682  221.4757 H   0  0  0  0  0  0  0  0  0  0  0  0
  141.9305   74.4965  221.0097 H   0  0  0  0  0  0  0  0  0  0  0  0
  143.5585   76.1553  219.3829 H   0  0  0  0  0  0  0  0  0  0  0  0
  142.5572   74.7015  218.9445 H   0  0  0  0  0  0  0  0  0  0  0  0
  142.1006   76.7986  217.6139 H   0  0  0  0  0  0  0  0  0  0  0  0
  140.6811   76.0236  218.4377 H   0  0  0  0  0  0  0  0  0  0  0  0
  142.2182   78.4837  219.3301 H   0  0  0  0  0  0  0  0  0  0  0  0
  140.5156   78.3837  218.7067 H   0  0  0  0  0  0  0  0  0  0  0  0
  139.7273   77.9364  220.7192 H   0  0  0  0  0  0  0  0  0  0  0  0
  142.5986   77.9820  221.6268 H   0  0  0  0  0  0  0  0  0  0  0  0
  140.1012   79.0839  223.0167 H   0  0  0  0  0  0  0  0  0  0  0  0
  140.8810   77.5424  223.4160 H   0  0  0  0  0  0  0  0  0  0  0  0
  141.7109   79.3663  224.8821 H   0  0  0  0  0  0  0  0  0  0  0  0
  143.0309   78.7445  223.7777 H   0  0  0  0  0  0  0  0  0  0  0  0
  140.6706   81.1424  222.4433 H   0  0  0  0  0  0  0  0  0  0  0  0
  142.2791   81.8088  221.8509 H   0  0  0  0  0  0  0  0  0  0  0  0
  140.9868   80.1162  220.4176 H   0  0  0  0  0  0  0  0  0  0  0  0
  142.7932   79.9676  220.6984 H   0  0  0  0  0  0  0  0  0  0  0  0
  139.1949   70.1152  222.5290 H   0  0  0  0  0  0  0  0  0  0  0  0
  139.0016   68.4674  224.4190 H   0  0  0  0  0  0  0  0  0  0  0  0
  139.4016   67.9222  226.6603 H   0  0  0  0  0  0  0  0  0  0  0  0
  140.2825   68.4538  228.9325 H   0  0  0  0  0  0  0  0  0  0  0  0
  141.3770   70.6705  229.3112 H   0  0  0  0  0  0  0  0  0  0  0  0
  141.5775   72.3185  227.4565 H   0  0  0  0  0  0  0  0  0  0  0  0
  1  2  2  0
  2  3  1  0
  3  4  1  0
  4  5  1  0
  5  6  2  0
  5  7  1  0
  7  8  1  0
  8  9  1  0
  9 10  1  0
 10 11  1  0
 11 12  1  0
 12 13  1  0
 13 14  1  0
 14 15  1  0
 15 16  1  0
 16 17  1  0
 17 18  1  0
  2 19  1  0
 19 20  2  0
 20 21  1  0
 21 22  2  0
 22 23  1  0
 23 24  2  0
 24 25  1  0
 25 26  2  0
 26 27  1  0
 27 28  2  0
 12  7  1  0
 18 13  1  0
 28 19  1  0
 27 22  1  0
  3 29  1  0
  4 30  1  0
  4 31  1  0
  8 32  1  0
  8 33  1  0
  9 34  1  0
  9 35  1  0
 10 36  1  0
 10 37  1  0
 11 38  1  0
 11 39  1  0
 12 40  1  6
 13 41  1  0
 14 42  1  0
 14 43  1  0
 15 44  1  0
 15 45  1  0
 17 46  1  0
 17 47  1  0
 18 48  1  0
 18 49  1  0
 20 50  1  0
 21 51  1  0
 23 52  1  0
 24 53  1  0
 25 54  1  0
 26 55  1  0
M  END
>  <smiles>  (36) 
O=C(NCC(=O)N1CCCCC1C1CCOCC1)c1ccc2ccccc2n1

>  <score_type>  (36) 
oracle

>  <origin>  (36) 
autodockgpu

>  <m_score__min__energy>  (36) 
-8.9900000000000002

>  <m_primary>  (36) 
energy

>  <rmsd>  (36) 
2.075369372154725

>  <m_score__min__rmsd>  (36) 
2.075369372154725

>  <meeko>  (36) 
{"free_energy": -8.64, "intermolecular_energy": -10.13, "internal_energy": -1.42, "cluster_size": 18, "cluster_id": 3, "rank_in_cluster": 13}

>  <energy>  (36) 
-8.64

>  <cluster_rmsd>  (36) 
0.32

>  <cluster>  (36) 
3

$$$$

     RDKit          3D

 55 58  0  0  0  0  0  0  0  0999 V2000
  141.3370   72.1430  221.6580 O   0  0  0  0  0  0  0  0  0  0  0  0
  140.4470   72.3790  222.5310 C   0  0  0  0  0  0  0  0  0  0  0  0
  139.6170   73.5240  222.3470 N   0  0  0  0  0  0  0  0  0  0  0  0
  139.8420   74.3370  221.1910 C   0  0  0  0  0  0  0  0  0  0  0  0
  139.9510   75.7850  221.5260 C   0  0  0  0  0  0  0  0  0  0  0  0
  139.1680   76.3260  222.3490 O   0  0  0  0  0  0  0  0  0  0  0  0
  140.9730   76.5370  220.8830 N   0  0  0  0  0  0  0  0  0  0  0  0
  142.2270   75.9370  220.4490 C   0  0  0  0  0  0  0  0  0  0  0  0
  142.5440   76.2470  219.0180 C   0  0  0  0  0  0  0  0  0  0  0  0
  141.5000   77.1320  218.3730 C   0  0  0  0  0  0  0  0  0  0  0  0
  141.1700   78.3330  219.2290 C   0  0  0  0  0  0  0  0  0  0  0  0
  140.7880   77.9380  220.6380 C   0  0  2  0  0  0  0  0  0  0  0  0
  141.6500   78.7310  221.5850 C   0  0  0  0  0  0  0  0  0  0  0  0
  141.1290   78.7250  222.9990 C   0  0  0  0  0  0  0  0  0  0  0  0
  142.1770   79.4370  223.8410 C   0  0  0  0  0  0  0  0  0  0  0  0
  142.4210   80.7280  223.4480 O   0  0  0  0  0  0  0  0  0  0  0  0
  141.7780   81.1430  222.3080 C   0  0  0  0  0  0  0  0  0  0  0  0
  141.8050   80.1630  221.1720 C   0  0  0  0  0  0  0  0  0  0  0  0
  140.2640   71.5090  223.6960 C   0  0  0  0  0  0  0  0  0  0  0  0
  139.6050   70.3050  223.5070 C   0  0  0  0  0  0  0  0  0  0  0  0
  139.4290   69.4770  224.6060 C   0  0  0  0  0  0  0  0  0  0  0  0
  139.9120   69.8880  225.8170 C   0  0  0  0  0  0  0  0  0  0  0  0
  139.7410   69.0700  226.9180 C   0  0  0  0  0  0  0  0  0  0  0  0
  140.2080   69.4250  228.1830 C   0  0  0  0  0  0  0  0  0  0  0  0
  140.8640   70.6470  228.3190 C   0  0  0  0  0  0  0  0  0  0  0  0
  141.0500   71.4910  227.2290 C   0  0  0  0  0  0  0  0  0  0  0  0
  140.5740   71.1060  225.9910 C   0  0  0  0  0  0  0  0  0  0  0  0
  140.7280   71.8920  224.8910 N   0  0  0  0  0  0  0  0  0  0  0  0
  138.8690   73.7320  223.0680 H   0  0  0  0  0  0  0  0  0  0  0  0
  140.7769   74.0147  220.7092 H   0  0  0  0  0  0  0  0  0  0  0  0
  138.9787   74.2124  220.5207 H   0  0  0  0  0  0  0  0  0  0  0  0
  143.0402   76.3215  221.0821 H   0  0  0  0  0  0  0  0  0  0  0  0
  142.1258   74.8455  220.5410 H   0  0  0  0  0  0  0  0  0  0  0  0
  143.5165   76.7593  218.9749 H   0  0  0  0  0  0  0  0  0  0  0  0
  142.5638   75.2958  218.4659 H   0  0  0  0  0  0  0  0  0  0  0  0
  141.8812   77.4816  217.4022 H   0  0  0  0  0  0  0  0  0  0  0  0
  140.5814   76.5397  218.2493 H   0  0  0  0  0  0  0  0  0  0  0  0
  142.0502   78.9914  219.2712 H   0  0  0  0  0  0  0  0  0  0  0  0
  140.3095   78.8468  218.7755 H   0  0  0  0  0  0  0  0  0  0  0  0
  139.7188   78.1500  220.7861 H   0  0  0  0  0  0  0  0  0  0  0  0
  142.6245   78.2223  221.5444 H   0  0  0  0  0  0  0  0  0  0  0  0
  140.1688   79.2589  223.0538 H   0  0  0  0  0  0  0  0  0  0  0  0
  140.9558   77.6997  223.3578 H   0  0  0  0  0  0  0  0  0  0  0  0
  141.8309   79.4521  224.8850 H   0  0  0  0  0  0  0  0  0  0  0  0
  143.1183   78.8816  223.7167 H   0  0  0  0  0  0  0  0  0  0  0  0
  140.7264   81.3415  222.5625 H   0  0  0  0  0  0  0  0  0  0  0  0
  142.3185   82.0347  221.9576 H   0  0  0  0  0  0  0  0  0  0  0  0
  140.9849   80.4128  220.4828 H   0  0  0  0  0  0  0  0  0  0  0  0
  142.7980   80.2495  220.7068 H   0  0  0  0  0  0  0  0  0  0  0  0
  139.2320   70.0140  222.5139 H   0  0  0  0  0  0  0  0  0  0  0  0
  138.9123   68.5112  224.5052 H   0  0  0  0  0  0  0  0  0  0  0  0
  139.2204   68.1092  226.7924 H   0  0  0  0  0  0  0  0  0  0  0  0
  140.0630   68.7605  229.0475 H   0  0  0  0  0  0  0  0  0  0  0  0
  141.2418   70.9498  229.3067 H   0  0  0  0  0  0  0  0  0  0  0  0
  141.5696   72.4528  227.3515 H   0  0  0  0  0  0  0  0  0  0  0  0
  1  2  2  0
  2  3  1  0
  3  4  1  0
  4  5  1  0
  5  6  2  0
  5  7  1  0
  7  8  1  0
  8  9  1  0
  9 10  1  0
 10 11  1  0
 11 12  1  0
 12 13  1  0
 13 14  1  0
 14 15  1  0
 15 16  1  0
 16 17  1  0
 17 18  1  0
  2 19  1  0
 19 20  2  0
 20 21  1  0
 21 22  2  0
 22 23  1  0
 23 24  2  0
 24 25  1  0
 25 26  2  0
 26 27  1  0
 27 28  2  0
 12  7  1  0
 18 13  1  0
 28 19  1  0
 27 22  1  0
  3 29  1  0
  4 30  1  0
  4 31  1  0
  8 32  1  0
  8 33  1  0
  9 34  1  0
  9 35  1  0
 10 36  1  0
 10 37  1  0
 11 38  1  0
 11 39  1  0
 12 40  1  1
 13 41  1  0
 14 42  1  0
 14 43  1  0
 15 44  1  0
 15 45  1  0
 17 46  1  0
 17 47  1  0
 18 48  1  0
 18 49  1  0
 20 50  1  0
 21 51  1  0
 23 52  1  0
 24 53  1  0
 25 54  1  0
 26 55  1  0
M  END
>  <smiles>  (37) 
O=C(NCC(=O)N1CCCCC1C1CCOCC1)c1ccc2ccccc2n1

>  <score_type>  (37) 
oracle

>  <origin>  (37) 
autodockgpu

>  <m_score__min__energy>  (37) 
-8.9900000000000002

>  <m_primary>  (37) 
energy

>  <rmsd>  (37) 
2.1222492684591576

>  <m_score__min__rmsd>  (37) 
2.1222492684591576

>  <meeko>  (37) 
{"free_energy": -8.8, "intermolecular_energy": -10.29, "internal_energy": -1.43, "cluster_size": 18, "cluster_id": 3, "rank_in_cluster": 1}

>  <energy>  (37) 
-8.64

>  <cluster_rmsd>  (37) 
0.44

>  <cluster>  (37) 
3

$$$$

     RDKit          3D

 55 58  0  0  0  0  0  0  0  0999 V2000
  140.5580   74.2760  220.2350 O   0  0  0  0  0  0  0  0  0  0  0  0
  140.2880   74.9980  221.2430 C   0  0  0  0  0  0  0  0  0  0  0  0
  139.4440   74.4500  222.2520 N   0  0  0  0  0  0  0  0  0  0  0  0
  138.9510   73.1200  222.0650 C   0  0  0  0  0  0  0  0  0  0  0  0
  139.8230   72.0950  222.7050 C   0  0  0  0  0  0  0  0  0  0  0  0
  141.0420   71.9960  222.4080 O   0  0  0  0  0  0  0  0  0  0  0  0
  139.2300   71.2300  223.6650 N   0  0  0  0  0  0  0  0  0  0  0  0
  137.7890   71.1610  223.8680 C   0  0  0  0  0  0  0  0  0  0  0  0
  137.2720   69.7550  223.8210 C   0  0  0  0  0  0  0  0  0  0  0  0
  138.3730   68.7410  223.6030 C   0  0  0  0  0  0  0  0  0  0  0  0
  139.5390   68.9620  224.5370 C   0  0  0  0  0  0  0  0  0  0  0  0
  140.0550   70.3820  224.4760 C   0  0  2  0  0  0  0  0  0  0  0  0
  140.0920   70.9170  225.8840 C   0  0  0  0  0  0  0  0  0  0  0  0
  141.3540   71.6810  226.1900 C   0  0  0  0  0  0  0  0  0  0  0  0
  141.1690   72.2670  227.5810 C   0  0  0  0  0  0  0  0  0  0  0  0
  140.9560   71.3270  228.5560 O   0  0  0  0  0  0  0  0  0  0  0  0
  140.8330   70.0290  228.1250 C   0  0  0  0  0  0  0  0  0  0  0  0
  139.9590   69.8410  226.9190 C   0  0  0  0  0  0  0  0  0  0  0  0
  140.8240   76.3560  221.3790 C   0  0  0  0  0  0  0  0  0  0  0  0
  141.2430   77.0050  220.2290 C   0  0  0  0  0  0  0  0  0  0  0  0
  141.7510   78.2900  220.3520 C   0  0  0  0  0  0  0  0  0  0  0  0
  141.8130   78.8510  221.5970 C   0  0  0  0  0  0  0  0  0  0  0  0
  142.3170   80.1310  221.7290 C   0  0  0  0  0  0  0  0  0  0  0  0
  142.4100   80.7660  222.9670 C   0  0  0  0  0  0  0  0  0  0  0  0
  141.9750   80.0690  224.0940 C   0  0  0  0  0  0  0  0  0  0  0  0
  141.4630   78.7790  223.9910 C   0  0  0  0  0  0  0  0  0  0  0  0
  141.3860   78.1830  222.7480 C   0  0  0  0  0  0  0  0  0  0  0  0
  140.8940   76.9240  222.5880 N   0  0  0  0  0  0  0  0  0  0  0  0
  139.2120   75.0430  223.0990 H   0  0  0  0  0  0  0  0  0  0  0  0
  137.9447   73.0514  222.5040 H   0  0  0  0  0  0  0  0  0  0  0  0
  138.9342   72.9178  220.9839 H   0  0  0  0  0  0  0  0  0  0  0  0
  137.5497   71.5927  224.8510 H   0  0  0  0  0  0  0  0  0  0  0  0
  137.3083   71.7225  223.0533 H   0  0  0  0  0  0  0  0  0  0  0  0
  136.7700   69.5315  224.7739 H   0  0  0  0  0  0  0  0  0  0  0  0
  136.5770   69.6822  222.9715 H   0  0  0  0  0  0  0  0  0  0  0  0
  137.9667   67.7333  223.7745 H   0  0  0  0  0  0  0  0  0  0  0  0
  138.7382   68.8526  222.5714 H   0  0  0  0  0  0  0  0  0  0  0  0
  139.2153   68.7461  225.5659 H   0  0  0  0  0  0  0  0  0  0  0  0
  140.3539   68.2917  224.2262 H   0  0  0  0  0  0  0  0  0  0  0  0
  141.0546   70.3740  224.0171 H   0  0  0  0  0  0  0  0  0  0  0  0
  139.2260   71.5935  225.9329 H   0  0  0  0  0  0  0  0  0  0  0  0
  142.2221   71.0056  226.1732 H   0  0  0  0  0  0  0  0  0  0  0  0
  141.5362   72.4689  225.4443 H   0  0  0  0  0  0  0  0  0  0  0  0
  142.0740   72.8360  227.8403 H   0  0  0  0  0  0  0  0  0  0  0  0
  140.2691   72.8985  227.5443 H   0  0  0  0  0  0  0  0  0  0  0  0
  141.8377   69.6541  227.8800 H   0  0  0  0  0  0  0  0  0  0  0  0
  140.3488   69.4776  228.9445 H   0  0  0  0  0  0  0  0  0  0  0  0
  140.2197   68.8800  226.4516 H   0  0  0  0  0  0  0  0  0  0  0  0
  138.9193   69.8760  227.2764 H   0  0  0  0  0  0  0  0  0  0  0  0
  141.1748   76.5153  219.2464 H   0  0  0  0  0  0  0  0  0  0  0  0
  142.0963   78.8451  219.4674 H   0  0  0  0  0  0  0  0  0  0  0  0
  142.6554   80.6657  220.8293 H   0  0  0  0  0  0  0  0  0  0  0  0
  142.8141   81.7855  223.0521 H   0  0  0  0  0  0  0  0  0  0  0  0
  142.0378   80.5477  225.0824 H   0  0  0  0  0  0  0  0  0  0  0  0
  141.1239   78.2410  224.8886 H   0  0  0  0  0  0  0  0  0  0  0  0
  1  2  2  0
  2  3  1  0
  3  4  1  0
  4  5  1  0
  5  6  2  0
  5  7  1  0
  7  8  1  0
  8  9  1  0
  9 10  1  0
 10 11  1  0
 11 12  1  0
 12 13  1  0
 13 14  1  0
 14 15  1  0
 15 16  1  0
 16 17  1  0
 17 18  1  0
  2 19  1  0
 19 20  2  0
 20 21  1  0
 21 22  2  0
 22 23  1  0
 23 24  2  0
 24 25  1  0
 25 26  2  0
 26 27  1  0
 27 28  2  0
 12  7  1  0
 18 13  1  0
 28 19  1  0
 27 22  1  0
  3 29  1  0
  4 30  1  0
  4 31  1  0
  8 32  1  0
  8 33  1  0
  9 34  1  0
  9 35  1  0
 10 36  1  0
 10 37  1  0
 11 38  1  0
 11 39  1  0
 12 40  1  6
 13 41  1  0
 14 42  1  0
 14 43  1  0
 15 44  1  0
 15 45  1  0
 17 46  1  0
 17 47  1  0
 18 48  1  0
 18 49  1  0
 20 50  1  0
 21 51  1  0
 23 52  1  0
 24 53  1  0
 25 54  1  0
 26 55  1  0
M  END
>  <smiles>  (38) 
O=C(NCC(=O)N1CCCCC1C1CCOCC1)c1ccc2ccccc2n1

>  <score_type>  (38) 
oracle

>  <origin>  (38) 
autodockgpu

>  <m_score__min__energy>  (38) 
-8.9900000000000002

>  <m_primary>  (38) 
energy

>  <rmsd>  (38) 
8.406536492297858

>  <m_score__min__rmsd>  (38) 
8.406536492297858

>  <meeko>  (38) 
{"free_energy": -8.65, "intermolecular_energy": -10.14, "internal_energy": -1.5, "cluster_size": 8, "cluster_id": 2, "rank_in_cluster": 6}

>  <energy>  (38) 
-8.64

>  <cluster_rmsd>  (38) 
0.35

>  <cluster>  (38) 
3

$$$$

     RDKit          3D

 55 58  0  0  0  0  0  0  0  0999 V2000
  141.3000   71.8020  221.5960 O   0  0  0  0  0  0  0  0  0  0  0  0
  140.3940   72.0850  222.4370 C   0  0  0  0  0  0  0  0  0  0  0  0
  139.5340   73.1860  222.1490 N   0  0  0  0  0  0  0  0  0  0  0  0
  139.7480   73.9030  220.9290 C   0  0  0  0  0  0  0  0  0  0  0  0
  140.8640   74.8840  221.0350 C   0  0  0  0  0  0  0  0  0  0  0  0
  141.0910   75.5030  222.1070 O   0  0  0  0  0  0  0  0  0  0  0  0
  141.6680   75.0970  219.8810 N   0  0  0  0  0  0  0  0  0  0  0  0
  141.1690   74.8710  218.5310 C   0  0  0  0  0  0  0  0  0  0  0  0
  141.4030   76.0460  217.6310 C   0  0  0  0  0  0  0  0  0  0  0  0
  142.1270   77.1750  218.3310 C   0  0  0  0  0  0  0  0  0  0  0  0
  143.3480   76.6880  219.0770 C   0  0  0  0  0  0  0  0  0  0  0  0
  143.0200   75.5520  220.0200 C   0  0  2  0  0  0  0  0  0  0  0  0
  143.9650   74.4190  219.7170 C   0  0  0  0  0  0  0  0  0  0  0  0
  143.3600   73.0630  219.9760 C   0  0  0  0  0  0  0  0  0  0  0  0
  144.3770   72.0440  219.4880 C   0  0  0  0  0  0  0  0  0  0  0  0
  145.5940   72.1290  220.1140 O   0  0  0  0  0  0  0  0  0  0  0  0
  145.7470   73.1730  220.9930 C   0  0  0  0  0  0  0  0  0  0  0  0
  145.2390   74.4970  220.5010 C   0  0  0  0  0  0  0  0  0  0  0  0
  140.2240   71.3130  223.6710 C   0  0  0  0  0  0  0  0  0  0  0  0
  139.5590   70.1000  223.5890 C   0  0  0  0  0  0  0  0  0  0  0  0
  139.3960   69.3650  224.7540 C   0  0  0  0  0  0  0  0  0  0  0  0
  139.8960   69.8700  225.9210 C   0  0  0  0  0  0  0  0  0  0  0  0
  139.7370   69.1450  227.0860 C   0  0  0  0  0  0  0  0  0  0  0  0
  140.2220   69.5990  228.3130 C   0  0  0  0  0  0  0  0  0  0  0  0
  140.8820   70.8250  228.3410 C   0  0  0  0  0  0  0  0  0  0  0  0
  141.0570   71.5780  227.1840 C   0  0  0  0  0  0  0  0  0  0  0  0
  140.5640   71.0960  225.9880 C   0  0  0  0  0  0  0  0  0  0  0  0
  140.7050   71.7900  224.8250 N   0  0  0  0  0  0  0  0  0  0  0  0
  138.7720   73.4310  222.8440 H   0  0  0  0  0  0  0  0  0  0  0  0
  139.9857   73.1823  220.1327 H   0  0  0  0  0  0  0  0  0  0  0  0
  138.8288   74.4638  220.7040 H   0  0  0  0  0  0  0  0  0  0  0  0
  141.6808   73.9942  218.1075 H   0  0  0  0  0  0  0  0  0  0  0  0
  140.0828   74.7108  218.5975 H   0  0  0  0  0  0  0  0  0  0  0  0
  142.0070   75.7181  216.7721 H   0  0  0  0  0  0  0  0  0  0  0  0
  140.4206   76.4247  217.3125 H   0  0  0  0  0  0  0  0  0  0  0  0
  142.4412   77.9150  217.5802 H   0  0  0  0  0  0  0  0  0  0  0  0
  141.4365   77.6195  219.0628 H   0  0  0  0  0  0  0  0  0  0  0  0
  144.0944   76.3400  218.3477 H   0  0  0  0  0  0  0  0  0  0  0  0
  143.7368   77.5250  219.6756 H   0  0  0  0  0  0  0  0  0  0  0  0
  143.1311   75.9095  221.0543 H   0  0  0  0  0  0  0  0  0  0  0  0
  144.1784   74.5331  218.6440 H   0  0  0  0  0  0  0  0  0  0  0  0
  143.1716   72.9287  221.0514 H   0  0  0  0  0  0  0  0  0  0  0  0
  142.3970   72.9482  219.4568 H   0  0  0  0  0  0  0  0  0  0  0  0
  143.9685   71.0373  219.6605 H   0  0  0  0  0  0  0  0  0  0  0  0
  144.5513   72.2526  218.4221 H   0  0  0  0  0  0  0  0  0  0  0  0
  145.2064   72.9224  221.9176 H   0  0  0  0  0  0  0  0  0  0  0  0
  146.8304   73.2949  221.1395 H   0  0  0  0  0  0  0  0  0  0  0  0
  145.0670   75.1450  221.3731 H   0  0  0  0  0  0  0  0  0  0  0  0
  146.0045   74.8922  219.8171 H   0  0  0  0  0  0  0  0  0  0  0  0
  139.1717   69.7307  222.6280 H   0  0  0  0  0  0  0  0  0  0  0  0
  138.8753   68.3962  224.7387 H   0  0  0  0  0  0  0  0  0  0  0  0
  139.2116   68.1795  227.0451 H   0  0  0  0  0  0  0  0  0  0  0  0
  140.0872   69.0067  229.2301 H   0  0  0  0  0  0  0  0  0  0  0  0
  141.2726   71.2055  229.2963 H   0  0  0  0  0  0  0  0  0  0  0  0
  141.5812   72.5444  227.2219 H   0  0  0  0  0  0  0  0  0  0  0  0
  1  2  2  0
  2  3  1  0
  3  4  1  0
  4  5  1  0
  5  6  2  0
  5  7  1  0
  7  8  1  0
  8  9  1  0
  9 10  1  0
 10 11  1  0
 11 12  1  0
 12 13  1  0
 13 14  1  0
 14 15  1  0
 15 16  1  0
 16 17  1  0
 17 18  1  0
  2 19  1  0
 19 20  2  0
 20 21  1  0
 21 22  2  0
 22 23  1  0
 23 24  2  0
 24 25  1  0
 25 26  2  0
 26 27  1  0
 27 28  2  0
 12  7  1  0
 18 13  1  0
 28 19  1  0
 27 22  1  0
  3 29  1  0
  4 30  1  0
  4 31  1  0
  8 32  1  0
  8 33  1  0
  9 34  1  0
  9 35  1  0
 10 36  1  0
 10 37  1  0
 11 38  1  0
 11 39  1  0
 12 40  1  1
 13 41  1  0
 14 42  1  0
 14 43  1  0
 15 44  1  0
 15 45  1  0
 17 46  1  0
 17 47  1  0
 18 48  1  0
 18 49  1  0
 20 50  1  0
 21 51  1  0
 23 52  1  0
 24 53  1  0
 25 54  1  0
 26 55  1  0
M  END
>  <smiles>  (39) 
O=C(NCC(=O)N1CCCCC1C1CCOCC1)c1ccc2ccccc2n1

>  <score_type>  (39) 
oracle

>  <origin>  (39) 
autodockgpu

>  <m_score__min__energy>  (39) 
-8.9900000000000002

>  <m_primary>  (39) 
energy

>  <rmsd>  (39) 
1.849738604828768

>  <m_score__min__rmsd>  (39) 
1.849738604828768

>  <meeko>  (39) 
{"free_energy": -8.45, "intermolecular_energy": -9.94, "internal_energy": -1.55, "cluster_size": 17, "cluster_id": 1, "rank_in_cluster": 12}

>  <energy>  (39) 
-8.62

>  <cluster_rmsd>  (39) 
0.35

>  <cluster>  (39) 
3

$$$$

     RDKit          3D

 55 58  0  0  0  0  0  0  0  0999 V2000
  139.8580   70.8510  221.3650 O   0  0  0  0  0  0  0  0  0  0  0  0
  139.8690   71.4600  222.4780 C   0  0  0  0  0  0  0  0  0  0  0  0
  139.8640   72.8860  222.4610 N   0  0  0  0  0  0  0  0  0  0  0  0
  139.8500   73.5410  221.1890 C   0  0  0  0  0  0  0  0  0  0  0  0
  140.7340   74.7400  221.1580 C   0  0  0  0  0  0  0  0  0  0  0  0
  140.7410   75.5730  222.1010 O   0  0  0  0  0  0  0  0  0  0  0  0
  141.5730   74.9120  220.0220 N   0  0  0  0  0  0  0  0  0  0  0  0
  141.0720   74.8060  218.6580 C   0  0  0  0  0  0  0  0  0  0  0  0
  141.4510   75.9860  217.8170 C   0  0  0  0  0  0  0  0  0  0  0  0
  142.2880   76.9920  218.5750 C   0  0  0  0  0  0  0  0  0  0  0  0
  143.4340   76.3370  219.3090 C   0  0  0  0  0  0  0  0  0  0  0  0
  142.9670   75.2040  220.1950 C   0  0  2  0  0  0  0  0  0  0  0  0
  143.7810   73.9850  219.8470 C   0  0  0  0  0  0  0  0  0  0  0  0
  145.0970   73.9280  220.5790 C   0  0  0  0  0  0  0  0  0  0  0  0
  145.7190   72.5850  220.2310 C   0  0  0  0  0  0  0  0  0  0  0  0
  145.9340   72.4040  218.8880 O   0  0  0  0  0  0  0  0  0  0  0  0
  145.4630   73.3960  218.0640 C   0  0  0  0  0  0  0  0  0  0  0  0
  144.0800   73.8820  218.3820 C   0  0  0  0  0  0  0  0  0  0  0  0
  139.8830   70.7320  223.7510 C   0  0  0  0  0  0  0  0  0  0  0  0
  139.3060   69.4730  223.7830 C   0  0  0  0  0  0  0  0  0  0  0  0
  139.3170   68.7800  224.9850 C   0  0  0  0  0  0  0  0  0  0  0  0
  139.8940   69.3710  226.0740 C   0  0  0  0  0  0  0  0  0  0  0  0
  139.9090   68.6880  227.2750 C   0  0  0  0  0  0  0  0  0  0  0  0
  140.4800   69.2290  228.4270 C   0  0  0  0  0  0  0  0  0  0  0  0
  141.0470   70.4990  228.3410 C   0  0  0  0  0  0  0  0  0  0  0  0
  141.0460   71.2100  227.1450 C   0  0  0  0  0  0  0  0  0  0  0  0
  140.4710   70.6430  226.0250 C   0  0  0  0  0  0  0  0  0  0  0  0
  140.4420   71.2920  224.8300 N   0  0  0  0  0  0  0  0  0  0  0  0
  139.8720   73.4050  223.3840 H   0  0  0  0  0  0  0  0  0  0  0  0
  140.1915   72.8304  220.4219 H   0  0  0  0  0  0  0  0  0  0  0  0
  138.8207   73.8780  220.9965 H   0  0  0  0  0  0  0  0  0  0  0  0
  141.4875   73.8969  218.1988 H   0  0  0  0  0  0  0  0  0  0  0  0
  139.9737   74.7675  218.7062 H   0  0  0  0  0  0  0  0  0  0  0  0
  142.0263   75.6307  216.9494 H   0  0  0  0  0  0  0  0  0  0  0  0
  140.5225   76.4885  217.5081 H   0  0  0  0  0  0  0  0  0  0  0  0
  142.6952   77.7241  217.8621 H   0  0  0  0  0  0  0  0  0  0  0  0
  141.6416   77.4788  219.3201 H   0  0  0  0  0  0  0  0  0  0  0  0
  144.1472   75.9401  218.5716 H   0  0  0  0  0  0  0  0  0  0  0  0
  143.9050   77.0969  219.9499 H   0  0  0  0  0  0  0  0  0  0  0  0
  143.1043   75.4992  221.2457 H   0  0  0  0  0  0  0  0  0  0  0  0
  143.1439   73.1443  220.1590 H   0  0  0  0  0  0  0  0  0  0  0  0
  145.7520   74.7482  220.2500 H   0  0  0  0  0  0  0  0  0  0  0  0
  144.9564   74.0350  221.6647 H   0  0  0  0  0  0  0  0  0  0  0  0
  146.6854   72.5057  220.7504 H   0  0  0  0  0  0  0  0  0  0  0  0
  145.0050   71.8104  220.5477 H   0  0  0  0  0  0  0  0  0  0  0  0
  146.1499   74.2523  218.1340 H   0  0  0  0  0  0  0  0  0  0  0  0
  145.4106   72.9588  217.0560 H   0  0  0  0  0  0  0  0  0  0  0  0
  143.9544   74.8789  217.9344 H   0  0  0  0  0  0  0  0  0  0  0  0
  143.3833   73.1364  217.9713 H   0  0  0  0  0  0  0  0  0  0  0  0
  138.8522   69.0354  222.8816 H   0  0  0  0  0  0  0  0  0  0  0  0
  138.8712   67.7772  225.0598 H   0  0  0  0  0  0  0  0  0  0  0  0
  139.4566   67.6865  227.3242 H   0  0  0  0  0  0  0  0  0  0  0  0
  140.4826   68.6701  229.3744 H   0  0  0  0  0  0  0  0  0  0  0  0
  141.5039   70.9478  229.2353 H   0  0  0  0  0  0  0  0  0  0  0  0
  141.4978   72.2116  227.0924 H   0  0  0  0  0  0  0  0  0  0  0  0
  1  2  2  0
  2  3  1  0
  3  4  1  0
  4  5  1  0
  5  6  2  0
  5  7  1  0
  7  8  1  0
  8  9  1  0
  9 10  1  0
 10 11  1  0
 11 12  1  0
 12 13  1  0
 13 14  1  0
 14 15  1  0
 15 16  1  0
 16 17  1  0
 17 18  1  0
  2 19  1  0
 19 20  2  0
 20 21  1  0
 21 22  2  0
 22 23  1  0
 23 24  2  0
 24 25  1  0
 25 26  2  0
 26 27  1  0
 27 28  2  0
 12  7  1  0
 18 13  1  0
 28 19  1  0
 27 22  1  0
  3 29  1  0
  4 30  1  0
  4 31  1  0
  8 32  1  0
  8 33  1  0
  9 34  1  0
  9 35  1  0
 10 36  1  0
 10 37  1  0
 11 38  1  0
 11 39  1  0
 12 40  1  1
 13 41  1  0
 14 42  1  0
 14 43  1  0
 15 44  1  0
 15 45  1  0
 17 46  1  0
 17 47  1  0
 18 48  1  0
 18 49  1  0
 20 50  1  0
 21 51  1  0
 23 52  1  0
 24 53  1  0
 25 54  1  0
 26 55  1  0
M  END
>  <smiles>  (40) 
O=C(NCC(=O)N1CCCCC1C1CCOCC1)c1ccc2ccccc2n1

>  <score_type>  (40) 
oracle

>  <origin>  (40) 
autodockgpu

>  <m_score__min__energy>  (40) 
-8.9900000000000002

>  <m_primary>  (40) 
energy

>  <rmsd>  (40) 
1.8159129117079569

>  <m_score__min__rmsd>  (40) 
1.8159129117079569

>  <meeko>  (40) 
{"free_energy": -8.68, "intermolecular_energy": -10.17, "internal_energy": -1.57, "cluster_size": 17, "cluster_id": 1, "rank_in_cluster": 9}

>  <energy>  (40) 
-8.61

>  <cluster_rmsd>  (40) 
1.34

>  <cluster>  (40) 
3

$$$$

     RDKit          3D

 55 58  0  0  0  0  0  0  0  0999 V2000
  139.8120   70.8220  221.3950 O   0  0  0  0  0  0  0  0  0  0  0  0
  139.7890   71.4000  222.5240 C   0  0  0  0  0  0  0  0  0  0  0  0
  139.7180   72.8240  222.5450 N   0  0  0  0  0  0  0  0  0  0  0  0
  139.6800   73.5120  221.2910 C   0  0  0  0  0  0  0  0  0  0  0  0
  140.4720   74.7740  221.3100 C   0  0  0  0  0  0  0  0  0  0  0  0
  140.3680   75.5970  222.2560 O   0  0  0  0  0  0  0  0  0  0  0  0
  141.3530   75.0190  220.2200 N   0  0  0  0  0  0  0  0  0  0  0  0
  140.8870   75.0890  218.8420 C   0  0  0  0  0  0  0  0  0  0  0  0
  141.3560   76.3290  218.1430 C   0  0  0  0  0  0  0  0  0  0  0  0
  142.2250   77.1970  219.0270 C   0  0  0  0  0  0  0  0  0  0  0  0
  143.3110   76.4000  219.7110 C   0  0  0  0  0  0  0  0  0  0  0  0
  142.7550   75.2070  220.4570 C   0  0  2  0  0  0  0  0  0  0  0  0
  143.5090   73.9870  219.9970 C   0  0  0  0  0  0  0  0  0  0  0  0
  143.0760   72.7270  220.7010 C   0  0  0  0  0  0  0  0  0  0  0  0
  143.8210   71.5860  220.0270 C   0  0  0  0  0  0  0  0  0  0  0  0
  145.1860   71.6990  220.0910 O   0  0  0  0  0  0  0  0  0  0  0  0
  145.6690   72.8590  220.6460 C   0  0  0  0  0  0  0  0  0  0  0  0
  144.9910   74.1150  220.1820 C   0  0  0  0  0  0  0  0  0  0  0  0
  139.8300   70.6400  223.7770 C   0  0  0  0  0  0  0  0  0  0  0  0
  139.2760   69.3700  223.7820 C   0  0  0  0  0  0  0  0  0  0  0  0
  139.3130   68.6470  224.9650 C   0  0  0  0  0  0  0  0  0  0  0  0
  139.8910   69.2200  226.0630 C   0  0  0  0  0  0  0  0  0  0  0  0
  139.9320   68.5070  227.2460 C   0  0  0  0  0  0  0  0  0  0  0  0
  140.5060   69.0270  228.4050 C   0  0  0  0  0  0  0  0  0  0  0  0
  141.0490   70.3100  228.3470 C   0  0  0  0  0  0  0  0  0  0  0  0
  141.0220   71.0510  227.1700 C   0  0  0  0  0  0  0  0  0  0  0  0
  140.4450   70.5030  226.0420 C   0  0  0  0  0  0  0  0  0  0  0  0
  140.3910   71.1820  224.8640 N   0  0  0  0  0  0  0  0  0  0  0  0
  139.6970   73.3190  223.4820 H   0  0  0  0  0  0  0  0  0  0  0  0
  140.0885   72.8505  220.5128 H   0  0  0  0  0  0  0  0  0  0  0  0
  138.6323   73.7772  221.0861 H   0  0  0  0  0  0  0  0  0  0  0  0
  141.2644   74.2116  218.2964 H   0  0  0  0  0  0  0  0  0  0  0  0
  139.7873   75.1096  218.8603 H   0  0  0  0  0  0  0  0  0  0  0  0
  141.9364   76.0360  217.2557 H   0  0  0  0  0  0  0  0  0  0  0  0
  140.4668   76.9152  217.8681 H   0  0  0  0  0  0  0  0  0  0  0  0
  142.6930   77.9772  218.4087 H   0  0  0  0  0  0  0  0  0  0  0  0
  141.5848   77.6370  219.8058 H   0  0  0  0  0  0  0  0  0  0  0  0
  144.0220   76.0436  218.9511 H   0  0  0  0  0  0  0  0  0  0  0  0
  143.8052   77.0571  220.4417 H   0  0  0  0  0  0  0  0  0  0  0  0
  142.8776   75.3779  221.5367 H   0  0  0  0  0  0  0  0  0  0  0  0
  143.2691   73.9162  218.9258 H   0  0  0  0  0  0  0  0  0  0  0  0
  143.3395   72.7767  221.7678 H   0  0  0  0  0  0  0  0  0  0  0  0
  141.9868   72.5869  220.6375 H   0  0  0  0  0  0  0  0  0  0  0  0
  143.5281   70.6449  220.5154 H   0  0  0  0  0  0  0  0  0  0  0  0
  143.5482   71.6118  218.9617 H   0  0  0  0  0  0  0  0  0  0  0  0
  145.5500   72.7903  221.7374 H   0  0  0  0  0  0  0  0  0  0  0  0
  146.7180   72.9396  220.3249 H   0  0  0  0  0  0  0  0  0  0  0  0
  145.1779   74.9022  220.9273 H   0  0  0  0  0  0  0  0  0  0  0  0
  145.4113   74.3516  219.1934 H   0  0  0  0  0  0  0  0  0  0  0  0
  138.8202   68.9476  222.8744 H   0  0  0  0  0  0  0  0  0  0  0  0
  138.8865   67.6345  225.0184 H   0  0  0  0  0  0  0  0  0  0  0  0
  139.4978   67.4967  227.2740 H   0  0  0  0  0  0  0  0  0  0  0  0
  140.5299   68.4430  229.3369 H   0  0  0  0  0  0  0  0  0  0  0  0
  141.5069   70.7440  229.2481 H   0  0  0  0  0  0  0  0  0  0  0  0
  141.4553   72.0616  227.1385 H   0  0  0  0  0  0  0  0  0  0  0  0
  1  2  2  0
  2  3  1  0
  3  4  1  0
  4  5  1  0
  5  6  2  0
  5  7  1  0
  7  8  1  0
  8  9  1  0
  9 10  1  0
 10 11  1  0
 11 12  1  0
 12 13  1  0
 13 14  1  0
 14 15  1  0
 15 16  1  0
 16 17  1  0
 17 18  1  0
  2 19  1  0
 19 20  2  0
 20 21  1  0
 21 22  2  0
 22 23  1  0
 23 24  2  0
 24 25  1  0
 25 26  2  0
 26 27  1  0
 27 28  2  0
 12  7  1  0
 18 13  1  0
 28 19  1  0
 27 22  1  0
  3 29  1  0
  4 30  1  0
  4 31  1  0
  8 32  1  0
  8 33  1  0
  9 34  1  0
  9 35  1  0
 10 36  1  0
 10 37  1  0
 11 38  1  0
 11 39  1  0
 12 40  1  1
 13 41  1  0
 14 42  1  0
 14 43  1  0
 15 44  1  0
 15 45  1  0
 17 46  1  0
 17 47  1  0
 18 48  1  0
 18 49  1  0
 20 50  1  0
 21 51  1  0
 23 52  1  0
 24 53  1  0
 25 54  1  0
 26 55  1  0
M  END
>  <smiles>  (41) 
O=C(NCC(=O)N1CCCCC1C1CCOCC1)c1ccc2ccccc2n1

>  <score_type>  (41) 
oracle

>  <origin>  (41) 
autodockgpu

>  <m_score__min__energy>  (41) 
-8.9900000000000002

>  <m_primary>  (41) 
energy

>  <rmsd>  (41) 
1.7781900329621207

>  <m_score__min__rmsd>  (41) 
1.7781900329621207

>  <meeko>  (41) 
{"free_energy": -8.07, "intermolecular_energy": -9.56, "internal_energy": -1.79, "cluster_size": 17, "cluster_id": 1, "rank_in_cluster": 17}

>  <energy>  (41) 
-8.58

>  <cluster_rmsd>  (41) 
0.37

>  <cluster>  (41) 
3

$$$$

     RDKit          3D

 55 58  0  0  0  0  0  0  0  0999 V2000
  141.2450   72.1340  221.6720 O   0  0  0  0  0  0  0  0  0  0  0  0
  140.3300   72.3100  222.5320 C   0  0  0  0  0  0  0  0  0  0  0  0
  139.3950   73.3630  222.3090 N   0  0  0  0  0  0  0  0  0  0  0  0
  139.5490   74.1590  221.1300 C   0  0  0  0  0  0  0  0  0  0  0  0
  140.7810   74.9970  221.1670 C   0  0  0  0  0  0  0  0  0  0  0  0
  141.1000   75.6440  222.1970 O   0  0  0  0  0  0  0  0  0  0  0  0
  141.5860   75.0400  219.9940 N   0  0  0  0  0  0  0  0  0  0  0  0
  141.0470   74.7690  218.6680 C   0  0  0  0  0  0  0  0  0  0  0  0
  141.3880   75.8440  217.6820 C   0  0  0  0  0  0  0  0  0  0  0  0
  142.2340   76.9400  218.2910 C   0  0  0  0  0  0  0  0  0  0  0  0
  143.4090   76.3860  219.0640 C   0  0  0  0  0  0  0  0  0  0  0  0
  142.9800   75.3620  220.0910 C   0  0  2  0  0  0  0  0  0  0  0  0
  143.7980   74.1180  219.8660 C   0  0  0  0  0  0  0  0  0  0  0  0
  145.1260   74.1510  220.5770 C   0  0  0  0  0  0  0  0  0  0  0  0
  145.7540   72.7820  220.3690 C   0  0  0  0  0  0  0  0  0  0  0  0
  145.9490   72.4540  219.0510 O   0  0  0  0  0  0  0  0  0  0  0  0
  145.4560   73.3460  218.1300 C   0  0  0  0  0  0  0  0  0  0  0  0
  144.0740   73.8560  218.4170 C   0  0  0  0  0  0  0  0  0  0  0  0
  140.2230   71.4610  223.7230 C   0  0  0  0  0  0  0  0  0  0  0  0
  139.6210   70.2210  223.5820 C   0  0  0  0  0  0  0  0  0  0  0  0
  139.5170   69.4140  224.7050 C   0  0  0  0  0  0  0  0  0  0  0  0
  140.0110   69.8800  225.8920 C   0  0  0  0  0  0  0  0  0  0  0  0
  139.9120   69.0830  227.0160 C   0  0  0  0  0  0  0  0  0  0  0  0
  140.3940   69.4930  228.2590 C   0  0  0  0  0  0  0  0  0  0  0  0
  140.9900   70.7500  228.3470 C   0  0  0  0  0  0  0  0  0  0  0  0
  141.1030   71.5740  227.2320 C   0  0  0  0  0  0  0  0  0  0  0  0
  140.6150   71.1340  226.0180 C   0  0  0  0  0  0  0  0  0  0  0  0
  140.6980   71.8980  224.8950 N   0  0  0  0  0  0  0  0  0  0  0  0
  138.6250   73.5190  223.0200 H   0  0  0  0  0  0  0  0  0  0  0  0
  139.6020   73.4913  220.2574 H   0  0  0  0  0  0  0  0  0  0  0  0
  138.6845   74.8363  221.0674 H   0  0  0  0  0  0  0  0  0  0  0  0
  141.4594   73.8151  218.3073 H   0  0  0  0  0  0  0  0  0  0  0  0
  139.9511   74.7279  218.7535 H   0  0  0  0  0  0  0  0  0  0  0  0
  141.9429   75.3931  216.8461 H   0  0  0  0  0  0  0  0  0  0  0  0
  140.4453   76.2983  217.3428 H   0  0  0  0  0  0  0  0  0  0  0  0
  142.6121   77.5859  217.4849 H   0  0  0  0  0  0  0  0  0  0  0  0
  141.6030   77.5060  218.9920 H   0  0  0  0  0  0  0  0  0  0  0  0
  144.1059   75.9105  218.3582 H   0  0  0  0  0  0  0  0  0  0  0  0
  143.8890   77.2204  219.5964 H   0  0  0  0  0  0  0  0  0  0  0  0
  143.1427   75.7807  221.0951 H   0  0  0  0  0  0  0  0  0  0  0  0
  143.1732   73.3128  220.2797 H   0  0  0  0  0  0  0  0  0  0  0  0
  145.7685   74.9342  220.1482 H   0  0  0  0  0  0  0  0  0  0  0  0
  145.0020   74.3763  221.6465 H   0  0  0  0  0  0  0  0  0  0  0  0
  146.7293   72.7675  220.8774 H   0  0  0  0  0  0  0  0  0  0  0  0
  145.0516   72.0426  220.7814 H   0  0  0  0  0  0  0  0  0  0  0  0
  146.1371   74.2089  218.0924 H   0  0  0  0  0  0  0  0  0  0  0  0
  145.3901   72.7994  217.1777 H   0  0  0  0  0  0  0  0  0  0  0  0
  143.9332   74.7968  217.8647 H   0  0  0  0  0  0  0  0  0  0  0  0
  143.3768   73.0651  218.1033 H   0  0  0  0  0  0  0  0  0  0  0  0
  139.2366   69.8863  222.6072 H   0  0  0  0  0  0  0  0  0  0  0  0
  139.0476   68.4212  224.6424 H   0  0  0  0  0  0  0  0  0  0  0  0
  139.4383   68.0942  226.9280 H   0  0  0  0  0  0  0  0  0  0  0  0
  140.3065   68.8441  229.1429 H   0  0  0  0  0  0  0  0  0  0  0  0
  141.3782   71.0968  229.3161 H   0  0  0  0  0  0  0  0  0  0  0  0
  141.5753   72.5638  227.3166 H   0  0  0  0  0  0  0  0  0  0  0  0
  1  2  2  0
  2  3  1  0
  3  4  1  0
  4  5  1  0
  5  6  2  0
  5  7  1  0
  7  8  1  0
  8  9  1  0
  9 10  1  0
 10 11  1  0
 11 12  1  0
 12 13  1  0
 13 14  1  0
 14 15  1  0
 15 16  1  0
 16 17  1  0
 17 18  1  0
  2 19  1  0
 19 20  2  0
 20 21  1  0
 21 22  2  0
 22 23  1  0
 23 24  2  0
 24 25  1  0
 25 26  2  0
 26 27  1  0
 27 28  2  0
 12  7  1  0
 18 13  1  0
 28 19  1  0
 27 22  1  0
  3 29  1  0
  4 30  1  0
  4 31  1  0
  8 32  1  0
  8 33  1  0
  9 34  1  0
  9 35  1  0
 10 36  1  0
 10 37  1  0
 11 38  1  0
 11 39  1  0
 12 40  1  1
 13 41  1  0
 14 42  1  0
 14 43  1  0
 15 44  1  0
 15 45  1  0
 17 46  1  0
 17 47  1  0
 18 48  1  0
 18 49  1  0
 20 50  1  0
 21 51  1  0
 23 52  1  0
 24 53  1  0
 25 54  1  0
 26 55  1  0
M  END
>  <smiles>  (42) 
O=C(NCC(=O)N1CCCCC1C1CCOCC1)c1ccc2ccccc2n1

>  <score_type>  (42) 
oracle

>  <origin>  (42) 
autodockgpu

>  <m_score__min__energy>  (42) 
-8.9900000000000002

>  <m_primary>  (42) 
energy

>  <rmsd>  (42) 
1.858289633148781

>  <m_score__min__rmsd>  (42) 
1.858289633148781

>  <meeko>  (42) 
{"free_energy": -8.98, "intermolecular_energy": -10.47, "internal_energy": -1.47, "cluster_size": 17, "cluster_id": 1, "rank_in_cluster": 4}

>  <energy>  (42) 
-8.35

>  <cluster_rmsd>  (42) 
0.72

>  <cluster>  (42) 
3

$$$$

     RDKit          3D

 55 58  0  0  0  0  0  0  0  0999 V2000
  141.5110   71.5680  222.0350 O   0  0  0  0  0  0  0  0  0  0  0  0
  140.6110   71.8360  222.8880 C   0  0  0  0  0  0  0  0  0  0  0  0
  139.6280   72.8090  222.5400 N   0  0  0  0  0  0  0  0  0  0  0  0
  139.7190   73.4230  221.2510 C   0  0  0  0  0  0  0  0  0  0  0  0
  140.6500   74.5860  221.2400 C   0  0  0  0  0  0  0  0  0  0  0  0
  140.6890   75.4010  222.1970 O   0  0  0  0  0  0  0  0  0  0  0  0
  141.4960   74.7440  220.1070 N   0  0  0  0  0  0  0  0  0  0  0  0
  141.0200   74.5450  218.7450 C   0  0  0  0  0  0  0  0  0  0  0  0
  141.3520   75.7000  217.8490 C   0  0  0  0  0  0  0  0  0  0  0  0
  142.1270   76.7830  218.5660 C   0  0  0  0  0  0  0  0  0  0  0  0
  143.2940   76.2240  219.3460 C   0  0  0  0  0  0  0  0  0  0  0  0
  142.8710   75.1140  220.2820 C   0  0  2  0  0  0  0  0  0  0  0  0
  143.7490   73.9220  220.0060 C   0  0  0  0  0  0  0  0  0  0  0  0
  145.0910   74.0090  220.6870 C   0  0  0  0  0  0  0  0  0  0  0  0
  145.7860   72.6820  220.4280 C   0  0  0  0  0  0  0  0  0  0  0  0
  145.9660   72.4000  219.0990 O   0  0  0  0  0  0  0  0  0  0  0  0
  145.4040   73.2860  218.2130 C   0  0  0  0  0  0  0  0  0  0  0  0
  144.0040   73.7120  218.5440 C   0  0  0  0  0  0  0  0  0  0  0  0
  140.5700   71.1730  224.1950 C   0  0  0  0  0  0  0  0  0  0  0  0
  141.0240   71.8820  225.2950 C   0  0  0  0  0  0  0  0  0  0  0  0
  140.9880   71.2590  226.5340 C   0  0  0  0  0  0  0  0  0  0  0  0
  140.5080   69.9810  226.6080 C   0  0  0  0  0  0  0  0  0  0  0  0
  140.4670   69.3530  227.8380 C   0  0  0  0  0  0  0  0  0  0  0  0
  139.9900   68.0510  227.9890 C   0  0  0  0  0  0  0  0  0  0  0  0
  139.5460   67.3820  226.8510 C   0  0  0  0  0  0  0  0  0  0  0  0
  139.5740   67.9890  225.5990 C   0  0  0  0  0  0  0  0  0  0  0  0
  140.0530   69.2790  225.4890 C   0  0  0  0  0  0  0  0  0  0  0  0
  140.1050   69.9220  224.2900 N   0  0  0  0  0  0  0  0  0  0  0  0
  138.8700   73.0400  223.2430 H   0  0  0  0  0  0  0  0  0  0  0  0
  140.0788   72.6757  220.5284 H   0  0  0  0  0  0  0  0  0  0  0  0
  138.7178   73.7925  220.9843 H   0  0  0  0  0  0  0  0  0  0  0  0
  141.4864   73.6361  218.3371 H   0  0  0  0  0  0  0  0  0  0  0  0
  139.9244   74.4539  218.7826 H   0  0  0  0  0  0  0  0  0  0  0  0
  141.9567   75.3314  217.0073 H   0  0  0  0  0  0  0  0  0  0  0  0
  140.4045   76.1390  217.5034 H   0  0  0  0  0  0  0  0  0  0  0  0
  142.5074   77.4987  217.8223 H   0  0  0  0  0  0  0  0  0  0  0  0
  141.4463   77.2722  219.2782 H   0  0  0  0  0  0  0  0  0  0  0  0
  144.0369   75.8277  218.6382 H   0  0  0  0  0  0  0  0  0  0  0  0
  143.7172   77.0375  219.9535 H   0  0  0  0  0  0  0  0  0  0  0  0
  142.9783   75.4676  221.3181 H   0  0  0  0  0  0  0  0  0  0  0  0
  143.1783   73.0742  220.4129 H   0  0  0  0  0  0  0  0  0  0  0  0
  145.6799   74.8365  220.2645 H   0  0  0  0  0  0  0  0  0  0  0  0
  144.9815   74.2000  221.7647 H   0  0  0  0  0  0  0  0  0  0  0  0
  146.7727   72.7071  220.9135 H   0  0  0  0  0  0  0  0  0  0  0  0
  145.1346   71.8952  220.8362 H   0  0  0  0  0  0  0  0  0  0  0  0
  146.0363   74.1856  218.1827 H   0  0  0  0  0  0  0  0  0  0  0  0
  145.3454   72.7606  217.2484 H   0  0  0  0  0  0  0  0  0  0  0  0
  143.7992   74.6572  218.0200 H   0  0  0  0  0  0  0  0  0  0  0  0
  143.3433   72.8924  218.2251 H   0  0  0  0  0  0  0  0  0  0  0  0
  141.4022   72.9095  225.1891 H   0  0  0  0  0  0  0  0  0  0  0  0
  141.3378   71.7815  227.4366 H   0  0  0  0  0  0  0  0  0  0  0  0
  140.8216   69.8968  228.7260 H   0  0  0  0  0  0  0  0  0  0  0  0
  139.9653   67.5674  228.9767 H   0  0  0  0  0  0  0  0  0  0  0  0
  139.1658   66.3539  226.9436 H   0  0  0  0  0  0  0  0  0  0  0  0
  139.2193   67.4482  224.7092 H   0  0  0  0  0  0  0  0  0  0  0  0
  1  2  2  0
  2  3  1  0
  3  4  1  0
  4  5  1  0
  5  6  2  0
  5  7  1  0
  7  8  1  0
  8  9  1  0
  9 10  1  0
 10 11  1  0
 11 12  1  0
 12 13  1  0
 13 14  1  0
 14 15  1  0
 15 16  1  0
 16 17  1  0
 17 18  1  0
  2 19  1  0
 19 20  2  0
 20 21  1  0
 21 22  2  0
 22 23  1  0
 23 24  2  0
 24 25  1  0
 25 26  2  0
 26 27  1  0
 27 28  2  0
 12  7  1  0
 18 13  1  0
 28 19  1  0
 27 22  1  0
  3 29  1  0
  4 30  1  0
  4 31  1  0
  8 32  1  0
  8 33  1  0
  9 34  1  0
  9 35  1  0
 10 36  1  0
 10 37  1  0
 11 38  1  0
 11 39  1  0
 12 40  1  1
 13 41  1  0
 14 42  1  0
 14 43  1  0
 15 44  1  0
 15 45  1  0
 17 46  1  0
 17 47  1  0
 18 48  1  0
 18 49  1  0
 20 50  1  0
 21 51  1  0
 23 52  1  0
 24 53  1  0
 25 54  1  0
 26 55  1  0
M  END
>  <smiles>  (43) 
O=C(NCC(=O)N1CCCCC1C1CCOCC1)c1ccc2ccccc2n1

>  <score_type>  (43) 
oracle

>  <origin>  (43) 
autodockgpu

>  <m_score__min__energy>  (43) 
-8.9900000000000002

>  <m_primary>  (43) 
energy

>  <rmsd>  (43) 
2.947246812211807

>  <m_score__min__rmsd>  (43) 
2.947246812211807

>  <meeko>  (43) 
{"free_energy": -8.73, "intermolecular_energy": -10.22, "internal_energy": -1.43, "cluster_size": 17, "cluster_id": 1, "rank_in_cluster": 8}

>  <energy>  (43) 
-8.22

>  <cluster_rmsd>  (43) 
0.58

>  <cluster>  (43) 
3

$$$$

     RDKit          3D

 55 58  0  0  0  0  0  0  0  0999 V2000
  140.9960   71.8620  221.5260 O   0  0  0  0  0  0  0  0  0  0  0  0
  140.2170   72.1760  222.4760 C   0  0  0  0  0  0  0  0  0  0  0  0
  139.3900   73.3260  222.3110 N   0  0  0  0  0  0  0  0  0  0  0  0
  139.4910   74.0540  221.0830 C   0  0  0  0  0  0  0  0  0  0  0  0
  139.6730   75.5160  221.3030 C   0  0  0  0  0  0  0  0  0  0  0  0
  138.7730   76.2130  221.8400 O   0  0  0  0  0  0  0  0  0  0  0  0
  140.9010   76.1000  220.8850 N   0  0  0  0  0  0  0  0  0  0  0  0
  142.1450   75.3430  220.8300 C   0  0  0  0  0  0  0  0  0  0  0  0
  142.8350   75.4740  219.5060 C   0  0  0  0  0  0  0  0  0  0  0  0
  142.0910   76.3830  218.5530 C   0  0  0  0  0  0  0  0  0  0  0  0
  141.7030   77.6900  219.2040 C   0  0  0  0  0  0  0  0  0  0  0  0
  140.9460   77.4790  220.4960 C   0  0  2  0  0  0  0  0  0  0  0  0
  141.6370   78.2800  221.5670 C   0  0  0  0  0  0  0  0  0  0  0  0
  140.9170   78.2380  222.8900 C   0  0  0  0  0  0  0  0  0  0  0  0
  141.8090   78.9650  223.8840 C   0  0  0  0  0  0  0  0  0  0  0  0
  142.0700   80.2680  223.5460 O   0  0  0  0  0  0  0  0  0  0  0  0
  141.5880   80.6830  222.3290 C   0  0  0  0  0  0  0  0  0  0  0  0
  141.8080   79.7220  221.1980 C   0  0  0  0  0  0  0  0  0  0  0  0
  140.1580   71.3900  223.7120 C   0  0  0  0  0  0  0  0  0  0  0  0
  139.5820   70.1310  223.6510 C   0  0  0  0  0  0  0  0  0  0  0  0
  139.5240   69.3830  224.8180 C   0  0  0  0  0  0  0  0  0  0  0  0
  140.0350   69.9220  225.9660 C   0  0  0  0  0  0  0  0  0  0  0  0
  139.9810   69.1840  227.1330 C   0  0  0  0  0  0  0  0  0  0  0  0
  140.4830   69.6690  228.3400 C   0  0  0  0  0  0  0  0  0  0  0  0
  141.0510   70.9410  228.3470 C   0  0  0  0  0  0  0  0  0  0  0  0
  141.1190   71.7080  227.1870 C   0  0  0  0  0  0  0  0  0  0  0  0
  140.6120   71.1940  226.0110 C   0  0  0  0  0  0  0  0  0  0  0  0
  140.6520   71.8980  224.8470 N   0  0  0  0  0  0  0  0  0  0  0  0
  138.7340   73.5980  223.0980 H   0  0  0  0  0  0  0  0  0  0  0  0
  140.3526   73.6721  220.5158 H   0  0  0  0  0  0  0  0  0  0  0  0
  138.5502   73.9124  220.5308 H   0  0  0  0  0  0  0  0  0  0  0  0
  142.8184   75.7123  221.6175 H   0  0  0  0  0  0  0  0  0  0  0  0
  141.8983   74.2810  220.9762 H   0  0  0  0  0  0  0  0  0  0  0  0
  143.8418   75.8849  219.6719 H   0  0  0  0  0  0  0  0  0  0  0  0
  142.8767   74.4737  219.0502 H   0  0  0  0  0  0  0  0  0  0  0  0
  142.7363   76.5950  217.6878 H   0  0  0  0  0  0  0  0  0  0  0  0
  141.1681   75.8698  218.2448 H   0  0  0  0  0  0  0  0  0  0  0  0
  142.6162   78.2647  219.4177 H   0  0  0  0  0  0  0  0  0  0  0  0
  141.0439   78.2319  218.5097 H   0  0  0  0  0  0  0  0  0  0  0  0
  139.9052   77.8045  220.3520 H   0  0  0  0  0  0  0  0  0  0  0  0
  142.6214   77.7984  221.6624 H   0  0  0  0  0  0  0  0  0  0  0  0
  139.9437   78.7443  222.8103 H   0  0  0  0  0  0  0  0  0  0  0  0
  140.7245   77.2027  223.2080 H   0  0  0  0  0  0  0  0  0  0  0  0
  141.3138   78.9544  224.8662 H   0  0  0  0  0  0  0  0  0  0  0  0
  142.7743   78.4376  223.8924 H   0  0  0  0  0  0  0  0  0  0  0  0
  140.5053   80.8493  222.4296 H   0  0  0  0  0  0  0  0  0  0  0  0
  142.1480   81.5940  222.0713 H   0  0  0  0  0  0  0  0  0  0  0  0
  141.0895   79.9601  220.3999 H   0  0  0  0  0  0  0  0  0  0  0  0
  142.8551   79.8428  220.8835 H   0  0  0  0  0  0  0  0  0  0  0  0
  139.1825   69.7364  222.7051 H   0  0  0  0  0  0  0  0  0  0  0  0
  139.0766   68.3781  224.8197 H   0  0  0  0  0  0  0  0  0  0  0  0
  139.5276   68.1821  227.1090 H   0  0  0  0  0  0  0  0  0  0  0  0
  140.4321   69.0658  229.2584 H   0  0  0  0  0  0  0  0  0  0  0  0
  141.4534   71.3471  229.2868 H   0  0  0  0  0  0  0  0  0  0  0  0
  141.5710   72.7106  227.2077 H   0  0  0  0  0  0  0  0  0  0  0  0
  1  2  2  0
  2  3  1  0
  3  4  1  0
  4  5  1  0
  5  6  2  0
  5  7  1  0
  7  8  1  0
  8  9  1  0
  9 10  1  0
 10 11  1  0
 11 12  1  0
 12 13  1  0
 13 14  1  0
 14 15  1  0
 15 16  1  0
 16 17  1  0
 17 18  1  0
  2 19  1  0
 19 20  2  0
 20 21  1  0
 21 22  2  0
 22 23  1  0
 23 24  2  0
 24 25  1  0
 25 26  2  0
 26 27  1  0
 27 28  2  0
 12  7  1  0
 18 13  1  0
 28 19  1  0
 27 22  1  0
  3 29  1  0
  4 30  1  0
  4 31  1  0
  8 32  1  0
  8 33  1  0
  9 34  1  0
  9 35  1  0
 10 36  1  0
 10 37  1  0
 11 38  1  0
 11 39  1  0
 12 40  1  6
 13 41  1  0
 14 42  1  0
 14 43  1  0
 15 44  1  0
 15 45  1  0
 17 46  1  0
 17 47  1  0
 18 48  1  0
 18 49  1  0
 20 50  1  0
 21 51  1  0
 23 52  1  0
 24 53  1  0
 25 54  1  0
 26 55  1  0
M  END
>  <smiles>  (44) 
O=C(NCC(=O)N1CCCCC1C1CCOCC1)c1ccc2ccccc2n1

>  <score_type>  (44) 
oracle

>  <origin>  (44) 
autodockgpu

>  <m_score__min__energy>  (44) 
-8.9900000000000002

>  <m_primary>  (44) 
energy

>  <rmsd>  (44) 
2.0635082080627027

>  <m_score__min__rmsd>  (44) 
2.0635082080627027

>  <meeko>  (44) 
{"free_energy": -8.67, "intermolecular_energy": -10.16, "internal_energy": -1.44, "cluster_size": 18, "cluster_id": 3, "rank_in_cluster": 7}

>  <energy>  (44) 
-7.66

>  <cluster_rmsd>  (44) 
0.0

>  <cluster>  (44) 
4

$$$$

     RDKit          3D

 55 58  0  0  0  0  0  0  0  0999 V2000
  141.1440   71.9590  221.5920 O   0  0  0  0  0  0  0  0  0  0  0  0
  140.2970   72.2100  222.5020 C   0  0  0  0  0  0  0  0  0  0  0  0
  139.4310   73.3290  222.3200 N   0  0  0  0  0  0  0  0  0  0  0  0
  139.5730   74.0990  221.1230 C   0  0  0  0  0  0  0  0  0  0  0  0
  140.7720   74.9820  221.1540 C   0  0  0  0  0  0  0  0  0  0  0  0
  141.0570   75.6620  222.1740 O   0  0  0  0  0  0  0  0  0  0  0  0
  141.5870   75.0310  219.9890 N   0  0  0  0  0  0  0  0  0  0  0  0
  141.0590   74.7700  218.6570 C   0  0  0  0  0  0  0  0  0  0  0  0
  141.4120   75.8510  217.6810 C   0  0  0  0  0  0  0  0  0  0  0  0
  142.2560   76.9400  218.3040 C   0  0  0  0  0  0  0  0  0  0  0  0
  143.4220   76.3770  219.0830 C   0  0  0  0  0  0  0  0  0  0  0  0
  142.9810   75.3480  220.1000 C   0  0  2  0  0  0  0  0  0  0  0  0
  143.7980   74.1030  219.8740 C   0  0  0  0  0  0  0  0  0  0  0  0
  145.1260   74.1330  220.5870 C   0  0  0  0  0  0  0  0  0  0  0  0
  145.7520   72.7630  220.3770 C   0  0  0  0  0  0  0  0  0  0  0  0
  145.9470   72.4370  219.0590 O   0  0  0  0  0  0  0  0  0  0  0  0
  145.4560   73.3310  218.1390 C   0  0  0  0  0  0  0  0  0  0  0  0
  144.0750   73.8430  218.4250 C   0  0  0  0  0  0  0  0  0  0  0  0
  140.1990   71.3830  223.7080 C   0  0  0  0  0  0  0  0  0  0  0  0
  139.6000   70.1390  223.5930 C   0  0  0  0  0  0  0  0  0  0  0  0
  139.5050   69.3530  224.7320 C   0  0  0  0  0  0  0  0  0  0  0  0
  140.0040   69.8410  225.9070 C   0  0  0  0  0  0  0  0  0  0  0  0
  139.9140   69.0650  227.0460 C   0  0  0  0  0  0  0  0  0  0  0  0
  140.4010   69.4980  228.2780 C   0  0  0  0  0  0  0  0  0  0  0  0
  140.9940   70.7580  228.3400 C   0  0  0  0  0  0  0  0  0  0  0  0
  141.0990   71.5620  227.2100 C   0  0  0  0  0  0  0  0  0  0  0  0
  140.6050   71.0990  226.0070 C   0  0  0  0  0  0  0  0  0  0  0  0
  140.6800   71.8430  224.8690 N   0  0  0  0  0  0  0  0  0  0  0  0
  138.7180   73.5480  223.0730 H   0  0  0  0  0  0  0  0  0  0  0  0
  139.6629   73.4112  220.2693 H   0  0  0  0  0  0  0  0  0  0  0  0
  138.6854   74.7422  221.0311 H   0  0  0  0  0  0  0  0  0  0  0  0
  141.4719   73.8173  218.2937 H   0  0  0  0  0  0  0  0  0  0  0  0
  139.9623   74.7311  218.7325 H   0  0  0  0  0  0  0  0  0  0  0  0
  141.9725   75.4039  216.8468 H   0  0  0  0  0  0  0  0  0  0  0  0
  140.4736   76.3106  217.3372 H   0  0  0  0  0  0  0  0  0  0  0  0
  142.6432   77.5899  217.5054 H   0  0  0  0  0  0  0  0  0  0  0  0
  141.6209   77.5038  219.0032 H   0  0  0  0  0  0  0  0  0  0  0  0
  144.1231   75.9035  218.3800 H   0  0  0  0  0  0  0  0  0  0  0  0
  143.9004   77.2063  219.6247 H   0  0  0  0  0  0  0  0  0  0  0  0
  143.1358   75.7596  221.1083 H   0  0  0  0  0  0  0  0  0  0  0  0
  143.1718   73.2979  220.2859 H   0  0  0  0  0  0  0  0  0  0  0  0
  145.7702   74.9159  220.1603 H   0  0  0  0  0  0  0  0  0  0  0  0
  145.0014   74.3568  221.6568 H   0  0  0  0  0  0  0  0  0  0  0  0
  146.7271   72.7461  220.8859 H   0  0  0  0  0  0  0  0  0  0  0  0
  145.0483   72.0241  220.7878 H   0  0  0  0  0  0  0  0  0  0  0  0
  146.1386   74.1929  218.1031 H   0  0  0  0  0  0  0  0  0  0  0  0
  145.3898   72.7855  217.1861 H   0  0  0  0  0  0  0  0  0  0  0  0
  143.9366   74.7850  217.8741 H   0  0  0  0  0  0  0  0  0  0  0  0
  143.3766   73.0541  218.1090 H   0  0  0  0  0  0  0  0  0  0  0  0
  139.2112   69.7850  222.6268 H   0  0  0  0  0  0  0  0  0  0  0  0
  139.0379   68.3580  224.6904 H   0  0  0  0  0  0  0  0  0  0  0  0
  139.4428   68.0733  226.9786 H   0  0  0  0  0  0  0  0  0  0  0  0
  140.3199   68.8649  229.1739 H   0  0  0  0  0  0  0  0  0  0  0  0
  141.3862   71.1232  229.3006 H   0  0  0  0  0  0  0  0  0  0  0  0
  141.5697   72.5541  227.2741 H   0  0  0  0  0  0  0  0  0  0  0  0
  1  2  2  0
  2  3  1  0
  3  4  1  0
  4  5  1  0
  5  6  2  0
  5  7  1  0
  7  8  1  0
  8  9  1  0
  9 10  1  0
 10 11  1  0
 11 12  1  0
 12 13  1  0
 13 14  1  0
 14 15  1  0
 15 16  1  0
 16 17  1  0
 17 18  1  0
  2 19  1  0
 19 20  2  0
 20 21  1  0
 21 22  2  0
 22 23  1  0
 23 24  2  0
 24 25  1  0
 25 26  2  0
 26 27  1  0
 27 28  2  0
 12  7  1  0
 18 13  1  0
 28 19  1  0
 27 22  1  0
  3 29  1  0
  4 30  1  0
  4 31  1  0
  8 32  1  0
  8 33  1  0
  9 34  1  0
  9 35  1  0
 10 36  1  0
 10 37  1  0
 11 38  1  0
 11 39  1  0
 12 40  1  1
 13 41  1  0
 14 42  1  0
 14 43  1  0
 15 44  1  0
 15 45  1  0
 17 46  1  0
 17 47  1  0
 18 48  1  0
 18 49  1  0
 20 50  1  0
 21 51  1  0
 23 52  1  0
 24 53  1  0
 25 54  1  0
 26 55  1  0
M  END
>  <smiles>  (45) 
O=C(NCC(=O)N1CCCCC1C1CCOCC1)c1ccc2ccccc2n1

>  <score_type>  (45) 
oracle

>  <origin>  (45) 
autodockgpu

>  <m_score__min__energy>  (45) 
-8.9900000000000002

>  <m_primary>  (45) 
energy

>  <rmsd>  (45) 
1.8473406920615925

>  <m_score__min__rmsd>  (45) 
1.8473406920615925

>  <meeko>  (45) 
{"free_energy": -8.98, "intermolecular_energy": -10.47, "internal_energy": -1.47, "cluster_size": 17, "cluster_id": 1, "rank_in_cluster": 3}

>  <energy>  (45) 
-7.62

>  <cluster_rmsd>  (45) 
0.14

>  <cluster>  (45) 
4

$$$$

     RDKit          3D

 55 58  0  0  0  0  0  0  0  0999 V2000
  140.3090   71.3540  221.2820 O   0  0  0  0  0  0  0  0  0  0  0  0
  140.0160   71.9190  222.3790 C   0  0  0  0  0  0  0  0  0  0  0  0
  139.6700   73.3020  222.3490 N   0  0  0  0  0  0  0  0  0  0  0  0
  139.6760   73.9670  221.0820 C   0  0  0  0  0  0  0  0  0  0  0  0
  140.6240   75.1160  221.0480 C   0  0  0  0  0  0  0  0  0  0  0  0
  140.6580   75.9640  221.9770 O   0  0  0  0  0  0  0  0  0  0  0  0
  141.4920   75.2240  219.9260 N   0  0  0  0  0  0  0  0  0  0  0  0
  141.0290   75.0170  218.5600 C   0  0  0  0  0  0  0  0  0  0  0  0
  141.4150   76.1430  217.6500 C   0  0  0  0  0  0  0  0  0  0  0  0
  142.2180   77.2110  218.3590 C   0  0  0  0  0  0  0  0  0  0  0  0
  143.3520   76.6240  219.1660 C   0  0  0  0  0  0  0  0  0  0  0  0
  142.8760   75.5470  220.1150 C   0  0  2  0  0  0  0  0  0  0  0  0
  143.7150   74.3200  219.8740 C   0  0  0  0  0  0  0  0  0  0  0  0
  143.0880   73.0620  220.4160 C   0  0  0  0  0  0  0  0  0  0  0  0
  143.9790   71.9150  219.9670 C   0  0  0  0  0  0  0  0  0  0  0  0
  145.2730   72.0100  220.4120 O   0  0  0  0  0  0  0  0  0  0  0  0
  145.5940   73.1590  221.0900 C   0  0  0  0  0  0  0  0  0  0  0  0
  145.0870   74.4270  220.4670 C   0  0  0  0  0  0  0  0  0  0  0  0
  140.0280   71.1840  223.6480 C   0  0  0  0  0  0  0  0  0  0  0  0
  139.5320   69.8900  223.6500 C   0  0  0  0  0  0  0  0  0  0  0  0
  139.5400   69.1900  224.8480 C   0  0  0  0  0  0  0  0  0  0  0  0
  140.0360   69.8080  225.9620 C   0  0  0  0  0  0  0  0  0  0  0  0
  140.0480   69.1180  227.1590 C   0  0  0  0  0  0  0  0  0  0  0  0
  140.5390   69.6850  228.3350 C   0  0  0  0  0  0  0  0  0  0  0  0
  141.0260   70.9900  228.2790 C   0  0  0  0  0  0  0  0  0  0  0  0
  141.0260   71.7090  227.0870 C   0  0  0  0  0  0  0  0  0  0  0  0
  140.5320   71.1140  225.9430 C   0  0  0  0  0  0  0  0  0  0  0  0
  140.5070   71.7700  224.7510 N   0  0  0  0  0  0  0  0  0  0  0  0
  139.4230   73.7850  223.2590 H   0  0  0  0  0  0  0  0  0  0  0  0
  139.9682   73.2448  220.3054 H   0  0  0  0  0  0  0  0  0  0  0  0
  138.6644   74.3615  220.9055 H   0  0  0  0  0  0  0  0  0  0  0  0
  141.4688   74.0850  218.1752 H   0  0  0  0  0  0  0  0  0  0  0  0
  139.9305   74.9648  218.5822 H   0  0  0  0  0  0  0  0  0  0  0  0
  142.0181   75.7382  216.8239 H   0  0  0  0  0  0  0  0  0  0  0  0
  140.4886   76.6093  217.2834 H   0  0  0  0  0  0  0  0  0  0  0  0
  142.6350   77.8987  217.6085 H   0  0  0  0  0  0  0  0  0  0  0  0
  141.5454   77.7382  219.0516 H   0  0  0  0  0  0  0  0  0  0  0  0
  144.0900   76.1884  218.4763 H   0  0  0  0  0  0  0  0  0  0  0  0
  143.7954   77.4326  219.7657 H   0  0  0  0  0  0  0  0  0  0  0  0
  142.9808   75.9149  221.1463 H   0  0  0  0  0  0  0  0  0  0  0  0
  143.7842   74.2587  218.7779 H   0  0  0  0  0  0  0  0  0  0  0  0
  143.0423   73.1016  221.5143 H   0  0  0  0  0  0  0  0  0  0  0  0
  142.0589   72.9371  220.0482 H   0  0  0  0  0  0  0  0  0  0  0  0
  143.5507   70.9750  220.3452 H   0  0  0  0  0  0  0  0  0  0  0  0
  144.0156   71.9501  218.8682 H   0  0  0  0  0  0  0  0  0  0  0  0
  145.1737   73.0854  222.1039 H   0  0  0  0  0  0  0  0  0  0  0  0
  146.6918   73.2274  221.0755 H   0  0  0  0  0  0  0  0  0  0  0  0
  145.0668   75.2071  221.2423 H   0  0  0  0  0  0  0  0  0  0  0  0
  145.7697   74.6641  219.6377 H   0  0  0  0  0  0  0  0  0  0  0  0
  139.1433   69.4313  222.7289 H   0  0  0  0  0  0  0  0  0  0  0  0
  139.1557   68.1606  224.9002 H   0  0  0  0  0  0  0  0  0  0  0  0
  139.6583   68.0897  227.1853 H   0  0  0  0  0  0  0  0  0  0  0  0
  140.5418   69.1193  229.2784 H   0  0  0  0  0  0  0  0  0  0  0  0
  141.4174   71.4601  229.1933 H   0  0  0  0  0  0  0  0  0  0  0  0
  141.4144   72.7377  227.0568 H   0  0  0  0  0  0  0  0  0  0  0  0
  1  2  2  0
  2  3  1  0
  3  4  1  0
  4  5  1  0
  5  6  2  0
  5  7  1  0
  7  8  1  0
  8  9  1  0
  9 10  1  0
 10 11  1  0
 11 12  1  0
 12 13  1  0
 13 14  1  0
 14 15  1  0
 15 16  1  0
 16 17  1  0
 17 18  1  0
  2 19  1  0
 19 20  2  0
 20 21  1  0
 21 22  2  0
 22 23  1  0
 23 24  2  0
 24 25  1  0
 25 26  2  0
 26 27  1  0
 27 28  2  0
 12  7  1  0
 18 13  1  0
 28 19  1  0
 27 22  1  0
  3 29  1  0
  4 30  1  0
  4 31  1  0
  8 32  1  0
  8 33  1  0
  9 34  1  0
  9 35  1  0
 10 36  1  0
 10 37  1  0
 11 38  1  0
 11 39  1  0
 12 40  1  1
 13 41  1  0
 14 42  1  0
 14 43  1  0
 15 44  1  0
 15 45  1  0
 17 46  1  0
 17 47  1  0
 18 48  1  0
 18 49  1  0
 20 50  1  0
 21 51  1  0
 23 52  1  0
 24 53  1  0
 25 54  1  0
 26 55  1  0
M  END
>  <smiles>  (46) 
O=C(NCC(=O)N1CCCCC1C1CCOCC1)c1ccc2ccccc2n1

>  <score_type>  (46) 
oracle

>  <origin>  (46) 
autodockgpu

>  <m_score__min__energy>  (46) 
-8.9900000000000002

>  <m_primary>  (46) 
energy

>  <rmsd>  (46) 
1.7709878309672773

>  <m_score__min__rmsd>  (46) 
1.7709878309672773

>  <meeko>  (46) 
{"free_energy": -8.18, "intermolecular_energy": -9.67, "internal_energy": -1.75, "cluster_size": 17, "cluster_id": 1, "rank_in_cluster": 15}

>  <energy>  (46) 
-7.61

>  <cluster_rmsd>  (46) 
0.13

>  <cluster>  (46) 
4

$$$$

     RDKit          3D

 55 58  0  0  0  0  0  0  0  0999 V2000
  141.2710   71.6610  221.5530 O   0  0  0  0  0  0  0  0  0  0  0  0
  140.3930   71.9820  222.4110 C   0  0  0  0  0  0  0  0  0  0  0  0
  139.5450   73.0910  222.1170 N   0  0  0  0  0  0  0  0  0  0  0  0
  139.7390   73.7730  220.8750 C   0  0  0  0  0  0  0  0  0  0  0  0
  140.7460   74.8660  220.9780 C   0  0  0  0  0  0  0  0  0  0  0  0
  140.7790   75.6320  221.9750 O   0  0  0  0  0  0  0  0  0  0  0  0
  141.6710   75.0160  219.9070 N   0  0  0  0  0  0  0  0  0  0  0  0
  141.2590   74.9830  218.5100 C   0  0  0  0  0  0  0  0  0  0  0  0
  141.7700   76.1590  217.7360 C   0  0  0  0  0  0  0  0  0  0  0  0
  142.6160   77.0850  218.5820 C   0  0  0  0  0  0  0  0  0  0  0  0
  143.6640   76.3340  219.3690 C   0  0  0  0  0  0  0  0  0  0  0  0
  143.0650   75.2090  220.1830 C   0  0  2  0  0  0  0  0  0  0  0  0
  143.8210   73.9500  219.8500 C   0  0  0  0  0  0  0  0  0  0  0  0
  145.1390   73.8450  220.5730 C   0  0  0  0  0  0  0  0  0  0  0  0
  145.6980   72.4700  220.2430 C   0  0  0  0  0  0  0  0  0  0  0  0
  145.8940   72.2580  218.9020 O   0  0  0  0  0  0  0  0  0  0  0  0
  145.4610   73.2560  218.0650 C   0  0  0  0  0  0  0  0  0  0  0  0
  144.1040   73.8100  218.3850 C   0  0  0  0  0  0  0  0  0  0  0  0
  140.2420   71.2440  223.6680 C   0  0  0  0  0  0  0  0  0  0  0  0
  139.5950   70.0190  223.6260 C   0  0  0  0  0  0  0  0  0  0  0  0
  139.4500   69.3170  224.8130 C   0  0  0  0  0  0  0  0  0  0  0  0
  139.9500   69.8640  225.9610 C   0  0  0  0  0  0  0  0  0  0  0  0
  139.8100   69.1710  227.1480 C   0  0  0  0  0  0  0  0  0  0  0  0
  140.2950   69.6680  228.3580 C   0  0  0  0  0  0  0  0  0  0  0  0
  140.9380   70.9040  228.3450 C   0  0  0  0  0  0  0  0  0  0  0  0
  141.0930   71.6250  227.1650 C   0  0  0  0  0  0  0  0  0  0  0  0
  140.6000   71.1010  225.9870 C   0  0  0  0  0  0  0  0  0  0  0  0
  140.7230   71.7620  224.8040 N   0  0  0  0  0  0  0  0  0  0  0  0
  138.8070   73.3680  222.8250 H   0  0  0  0  0  0  0  0  0  0  0  0
  140.0816   73.0469  220.1231 H   0  0  0  0  0  0  0  0  0  0  0  0
  138.7791   74.2275  220.5887 H   0  0  0  0  0  0  0  0  0  0  0  0
  141.6456   74.0620  218.0494 H   0  0  0  0  0  0  0  0  0  0  0  0
  140.1598   75.0162  218.4837 H   0  0  0  0  0  0  0  0  0  0  0  0
  142.3797   75.7916  216.8974 H   0  0  0  0  0  0  0  0  0  0  0  0
  140.8993   76.7308  217.3824 H   0  0  0  0  0  0  0  0  0  0  0  0
  143.1178   77.8087  217.9229 H   0  0  0  0  0  0  0  0  0  0  0  0
  141.9523   77.5920  219.2979 H   0  0  0  0  0  0  0  0  0  0  0  0
  144.3996   75.9123  218.6682 H   0  0  0  0  0  0  0  0  0  0  0  0
  144.1372   77.0419  220.0654 H   0  0  0  0  0  0  0  0  0  0  0  0
  143.1478   75.4632  221.2500 H   0  0  0  0  0  0  0  0  0  0  0  0
  143.1490   73.1445  220.1811 H   0  0  0  0  0  0  0  0  0  0  0  0
  145.8275   74.6295  220.2258 H   0  0  0  0  0  0  0  0  0  0  0  0
  145.0116   73.9751  221.6578 H   0  0  0  0  0  0  0  0  0  0  0  0
  146.6640   72.3562  220.7567 H   0  0  0  0  0  0  0  0  0  0  0  0
  144.9530   71.7332  220.5777 H   0  0  0  0  0  0  0  0  0  0  0  0
  146.1865   74.0813  218.1147 H   0  0  0  0  0  0  0  0  0  0  0  0
  145.3798   72.8041  217.0654 H   0  0  0  0  0  0  0  0  0  0  0  0
  144.0207   74.8044  217.9222 H   0  0  0  0  0  0  0  0  0  0  0  0
  143.3709   73.0904  217.9915 H   0  0  0  0  0  0  0  0  0  0  0  0
  139.2079   69.6155  222.6788 H   0  0  0  0  0  0  0  0  0  0  0  0
  138.9434   68.3408  224.8301 H   0  0  0  0  0  0  0  0  0  0  0  0
  139.2999   68.1964  227.1387 H   0  0  0  0  0  0  0  0  0  0  0  0
  140.1735   69.1017  229.2932 H   0  0  0  0  0  0  0  0  0  0  0  0
  141.3306   71.3178  229.2856 H   0  0  0  0  0  0  0  0  0  0  0  0
  141.6019   72.6002  227.1709 H   0  0  0  0  0  0  0  0  0  0  0  0
  1  2  2  0
  2  3  1  0
  3  4  1  0
  4  5  1  0
  5  6  2  0
  5  7  1  0
  7  8  1  0
  8  9  1  0
  9 10  1  0
 10 11  1  0
 11 12  1  0
 12 13  1  0
 13 14  1  0
 14 15  1  0
 15 16  1  0
 16 17  1  0
 17 18  1  0
  2 19  1  0
 19 20  2  0
 20 21  1  0
 21 22  2  0
 22 23  1  0
 23 24  2  0
 24 25  1  0
 25 26  2  0
 26 27  1  0
 27 28  2  0
 12  7  1  0
 18 13  1  0
 28 19  1  0
 27 22  1  0
  3 29  1  0
  4 30  1  0
  4 31  1  0
  8 32  1  0
  8 33  1  0
  9 34  1  0
  9 35  1  0
 10 36  1  0
 10 37  1  0
 11 38  1  0
 11 39  1  0
 12 40  1  1
 13 41  1  0
 14 42  1  0
 14 43  1  0
 15 44  1  0
 15 45  1  0
 17 46  1  0
 17 47  1  0
 18 48  1  0
 18 49  1  0
 20 50  1  0
 21 51  1  0
 23 52  1  0
 24 53  1  0
 25 54  1  0
 26 55  1  0
M  END
>  <smiles>  (47) 
O=C(NCC(=O)N1CCCCC1C1CCOCC1)c1ccc2ccccc2n1

>  <score_type>  (47) 
oracle

>  <origin>  (47) 
autodockgpu

>  <m_score__min__energy>  (47) 
-8.9900000000000002

>  <m_primary>  (47) 
energy

>  <rmsd>  (47) 
1.9729104994230207

>  <m_score__min__rmsd>  (47) 
1.9729104994230207

>  <meeko>  (47) 
{"free_energy": -8.91, "intermolecular_energy": -10.4, "internal_energy": -1.43, "cluster_size": 17, "cluster_id": 1, "rank_in_cluster": 6}

>  <energy>  (47) 
-7.59

>  <cluster_rmsd>  (47) 
0.98

>  <cluster>  (47) 
4

$$$$

     RDKit          3D

 55 58  0  0  0  0  0  0  0  0999 V2000
  140.9710   74.5050  221.3780 O   0  0  0  0  0  0  0  0  0  0  0  0
  139.9630   75.0080  221.9620 C   0  0  0  0  0  0  0  0  0  0  0  0
  138.8540   74.1550  222.2360 N   0  0  0  0  0  0  0  0  0  0  0  0
  138.9460   72.7840  221.8330 C   0  0  0  0  0  0  0  0  0  0  0  0
  139.7940   71.9770  222.7550 C   0  0  0  0  0  0  0  0  0  0  0  0
  141.0500   72.0260  222.6990 O   0  0  0  0  0  0  0  0  0  0  0  0
  139.1340   71.1460  223.7020 N   0  0  0  0  0  0  0  0  0  0  0  0
  137.6970   71.2110  223.9280 C   0  0  0  0  0  0  0  0  0  0  0  0
  137.0450   69.8630  223.8520 C   0  0  0  0  0  0  0  0  0  0  0  0
  138.0400   68.7540  223.5880 C   0  0  0  0  0  0  0  0  0  0  0  0
  139.2360   68.8350  224.5080 C   0  0  0  0  0  0  0  0  0  0  0  0
  139.8850   70.2000  224.4760 C   0  0  2  0  0  0  0  0  0  0  0  0
  139.9950   70.6890  225.8960 C   0  0  0  0  0  0  0  0  0  0  0  0
  141.1920   71.5750  226.1230 C   0  0  0  0  0  0  0  0  0  0  0  0
  141.0750   72.0910  227.5490 C   0  0  0  0  0  0  0  0  0  0  0  0
  141.0510   71.1020  228.4980 O   0  0  0  0  0  0  0  0  0  0  0  0
  141.0260   69.8130  228.0240 C   0  0  0  0  0  0  0  0  0  0  0  0
  140.0700   69.5720  226.8920 C   0  0  0  0  0  0  0  0  0  0  0  0
  139.9270   76.4210  222.3510 C   0  0  0  0  0  0  0  0  0  0  0  0
  138.6860   77.0200  222.4970 C   0  0  0  0  0  0  0  0  0  0  0  0
  138.6470   78.3570  222.8650 C   0  0  0  0  0  0  0  0  0  0  0  0
  139.8280   79.0150  223.0640 C   0  0  0  0  0  0  0  0  0  0  0  0
  139.7990   80.3470  223.4300 C   0  0  0  0  0  0  0  0  0  0  0  0
  140.9640   81.0810  223.6500 C   0  0  0  0  0  0  0  0  0  0  0  0
  142.1860   80.4310  223.4880 C   0  0  0  0  0  0  0  0  0  0  0  0
  142.2470   79.0910  223.1200 C   0  0  0  0  0  0  0  0  0  0  0  0
  141.0720   78.3960  222.9110 C   0  0  0  0  0  0  0  0  0  0  0  0
  141.0720   77.0840  222.5490 N   0  0  0  0  0  0  0  0  0  0  0  0
  138.0070   74.5620  222.7250 H   0  0  0  0  0  0  0  0  0  0  0  0
  137.9344   72.3525  221.8147 H   0  0  0  0  0  0  0  0  0  0  0  0
  139.4134   72.7575  220.8376 H   0  0  0  0  0  0  0  0  0  0  0  0
  137.5153   71.6356  224.9263 H   0  0  0  0  0  0  0  0  0  0  0  0
  137.2612   71.8394  223.1373 H   0  0  0  0  0  0  0  0  0  0  0  0
  136.5374   69.6620  224.8069 H   0  0  0  0  0  0  0  0  0  0  0  0
  136.3338   69.8817  223.0130 H   0  0  0  0  0  0  0  0  0  0  0  0
  137.5407   67.7856  223.7392 H   0  0  0  0  0  0  0  0  0  0  0  0
  138.3994   68.8594  222.5537 H   0  0  0  0  0  0  0  0  0  0  0  0
  138.9080   68.6219  225.5361 H   0  0  0  0  0  0  0  0  0  0  0  0
  139.9779   68.0985  224.1657 H   0  0  0  0  0  0  0  0  0  0  0  0
  140.8722   70.1088  223.9995 H   0  0  0  0  0  0  0  0  0  0  0  0
  139.0711   71.2662  226.0488 H   0  0  0  0  0  0  0  0  0  0  0  0
  142.1211   70.9989  226.0012 H   0  0  0  0  0  0  0  0  0  0  0  0
  141.2208   72.4025  225.3988 H   0  0  0  0  0  0  0  0  0  0  0  0
  141.9358   72.7450  227.7522 H   0  0  0  0  0  0  0  0  0  0  0  0
  140.1145   72.6227  227.6180 H   0  0  0  0  0  0  0  0  0  0  0  0
  142.0379   69.5575  227.6764 H   0  0  0  0  0  0  0  0  0  0  0  0
  140.6794   69.1853  228.8582 H   0  0  0  0  0  0  0  0  0  0  0  0
  140.3857   68.6605  226.3634 H   0  0  0  0  0  0  0  0  0  0  0  0
  139.0693   69.4834  227.3400 H   0  0  0  0  0  0  0  0  0  0  0  0
  137.7594   76.4523  222.3262 H   0  0  0  0  0  0  0  0  0  0  0  0
  137.6859   78.8764  222.9939 H   0  0  0  0  0  0  0  0  0  0  0  0
  138.8255   80.8445  223.5518 H   0  0  0  0  0  0  0  0  0  0  0  0
  140.9198   82.1405  223.9424 H   0  0  0  0  0  0  0  0  0  0  0  0
  143.1198   80.9881  223.6543 H   0  0  0  0  0  0  0  0  0  0  0  0
  143.2191   78.5911  222.9970 H   0  0  0  0  0  0  0  0  0  0  0  0
  1  2  2  0
  2  3  1  0
  3  4  1  0
  4  5  1  0
  5  6  2  0
  5  7  1  0
  7  8  1  0
  8  9  1  0
  9 10  1  0
 10 11  1  0
 11 12  1  0
 12 13  1  0
 13 14  1  0
 14 15  1  0
 15 16  1  0
 16 17  1  0
 17 18  1  0
  2 19  1  0
 19 20  2  0
 20 21  1  0
 21 22  2  0
 22 23  1  0
 23 24  2  0
 24 25  1  0
 25 26  2  0
 26 27  1  0
 27 28  2  0
 12  7  1  0
 18 13  1  0
 28 19  1  0
 27 22  1  0
  3 29  1  0
  4 30  1  0
  4 31  1  0
  8 32  1  0
  8 33  1  0
  9 34  1  0
  9 35  1  0
 10 36  1  0
 10 37  1  0
 11 38  1  0
 11 39  1  0
 12 40  1  6
 13 41  1  0
 14 42  1  0
 14 43  1  0
 15 44  1  0
 15 45  1  0
 17 46  1  0
 17 47  1  0
 18 48  1  0
 18 49  1  0
 20 50  1  0
 21 51  1  0
 23 52  1  0
 24 53  1  0
 25 54  1  0
 26 55  1  0
M  END
>  <smiles>  (48) 
O=C(NCC(=O)N1CCCCC1C1CCOCC1)c1ccc2ccccc2n1

>  <score_type>  (48) 
oracle

>  <origin>  (48) 
autodockgpu

>  <m_score__min__energy>  (48) 
-8.9900000000000002

>  <m_primary>  (48) 
energy

>  <rmsd>  (48) 
8.331453731059273

>  <m_score__min__rmsd>  (48) 
8.331453731059273

>  <meeko>  (48) 
{"free_energy": -8.95, "intermolecular_energy": -10.44, "internal_energy": -1.28, "cluster_size": 8, "cluster_id": 2, "rank_in_cluster": 1}

>  <energy>  (48) 
-7.55

>  <cluster_rmsd>  (48) 
0.99

>  <cluster>  (48) 
4

$$$$

     RDKit          3D

 55 58  0  0  0  0  0  0  0  0999 V2000
  141.3680   71.7840  221.5260 O   0  0  0  0  0  0  0  0  0  0  0  0
  140.6340   72.2400  222.4550 C   0  0  0  0  0  0  0  0  0  0  0  0
  140.1290   73.5660  222.3190 N   0  0  0  0  0  0  0  0  0  0  0  0
  140.4850   74.3010  221.1430 C   0  0  0  0  0  0  0  0  0  0  0  0
  140.2120   75.7600  221.2810 C   0  0  0  0  0  0  0  0  0  0  0  0
  139.2160   76.1810  221.9230 O   0  0  0  0  0  0  0  0  0  0  0  0
  141.1200   76.6630  220.6600 N   0  0  0  0  0  0  0  0  0  0  0  0
  142.3820   76.2240  220.0800 C   0  0  0  0  0  0  0  0  0  0  0  0
  142.5640   76.7110  218.6750 C   0  0  0  0  0  0  0  0  0  0  0  0
  141.4080   77.5660  218.2040 C   0  0  0  0  0  0  0  0  0  0  0  0
  141.0490   78.6350  219.2090 C   0  0  0  0  0  0  0  0  0  0  0  0
  140.8070   78.0600  220.5870 C   0  0  2  0  0  0  0  0  0  0  0  0
  141.6720   78.8190  221.5580 C   0  0  0  0  0  0  0  0  0  0  0  0
  141.1440   78.7850  222.9690 C   0  0  0  0  0  0  0  0  0  0  0  0
  142.1940   79.4630  223.8340 C   0  0  0  0  0  0  0  0  0  0  0  0
  142.4550   80.7610  223.4750 O   0  0  0  0  0  0  0  0  0  0  0  0
  141.8230   81.2110  222.3420 C   0  0  0  0  0  0  0  0  0  0  0  0
  141.8450   80.2590  221.1820 C   0  0  0  0  0  0  0  0  0  0  0  0
  140.3050   71.4380  223.6370 C   0  0  0  0  0  0  0  0  0  0  0  0
  139.5890   70.2670  223.4460 C   0  0  0  0  0  0  0  0  0  0  0  0
  139.2750   69.5040  224.5610 C   0  0  0  0  0  0  0  0  0  0  0  0
  139.6850   69.9430  225.7890 C   0  0  0  0  0  0  0  0  0  0  0  0
  139.3760   69.1900  226.9060 C   0  0  0  0  0  0  0  0  0  0  0  0
  139.7620   69.5760  228.1890 C   0  0  0  0  0  0  0  0  0  0  0  0
  140.4790   70.7620  228.3270 C   0  0  0  0  0  0  0  0  0  0  0  0
  140.8040   71.5410  227.2200 C   0  0  0  0  0  0  0  0  0  0  0  0
  140.4060   71.1270  225.9660 C   0  0  0  0  0  0  0  0  0  0  0  0
  140.6950   71.8490  224.8490 N   0  0  0  0  0  0  0  0  0  0  0  0
  139.5140   73.9580  223.0870 H   0  0  0  0  0  0  0  0  0  0  0  0
  141.5584   74.1592  220.9491 H   0  0  0  0  0  0  0  0  0  0  0  0
  139.8720   73.9220  220.3120 H   0  0  0  0  0  0  0  0  0  0  0  0
  143.2073   76.6087  220.6971 H   0  0  0  0  0  0  0  0  0  0  0  0
  142.3759   75.1243  220.0560 H   0  0  0  0  0  0  0  0  0  0  0  0
  143.4871   77.3072  218.6251 H   0  0  0  0  0  0  0  0  0  0  0  0
  142.6163   75.8291  218.0196 H   0  0  0  0  0  0  0  0  0  0  0  0
  141.6867   78.0491  217.2559 H   0  0  0  0  0  0  0  0  0  0  0  0
  140.5324   76.9127  218.0752 H   0  0  0  0  0  0  0  0  0  0  0  0
  141.8746   79.3596  219.2667 H   0  0  0  0  0  0  0  0  0  0  0  0
  140.1186   79.1170  218.8741 H   0  0  0  0  0  0  0  0  0  0  0  0
  139.7386   78.1613  220.8283 H   0  0  0  0  0  0  0  0  0  0  0  0
  142.6403   78.2993  221.5095 H   0  0  0  0  0  0  0  0  0  0  0  0
  140.1898   79.3287  223.0318 H   0  0  0  0  0  0  0  0  0  0  0  0
  140.9578   77.7531  223.3014 H   0  0  0  0  0  0  0  0  0  0  0  0
  141.8418   79.4558  224.8761 H   0  0  0  0  0  0  0  0  0  0  0  0
  143.1297   78.9002  223.7011 H   0  0  0  0  0  0  0  0  0  0  0  0
  140.7723   81.4152  222.5958 H   0  0  0  0  0  0  0  0  0  0  0  0
  142.3757   82.1046  222.0164 H   0  0  0  0  0  0  0  0  0  0  0  0
  141.0313   80.5351  220.4952 H   0  0  0  0  0  0  0  0  0  0  0  0
  142.8415   80.3458  220.7243 H   0  0  0  0  0  0  0  0  0  0  0  0
  139.2786   69.9516  222.4390 H   0  0  0  0  0  0  0  0  0  0  0  0
  138.7086   68.5665  224.4594 H   0  0  0  0  0  0  0  0  0  0  0  0
  138.8077   68.2568  226.7788 H   0  0  0  0  0  0  0  0  0  0  0  0
  139.5079   68.9623  229.0658 H   0  0  0  0  0  0  0  0  0  0  0  0
  140.7942   71.0891  229.3288 H   0  0  0  0  0  0  0  0  0  0  0  0
  141.3713   72.4753  227.3439 H   0  0  0  0  0  0  0  0  0  0  0  0
  1  2  2  0
  2  3  1  0
  3  4  1  0
  4  5  1  0
  5  6  2  0
  5  7  1  0
  7  8  1  0
  8  9  1  0
  9 10  1  0
 10 11  1  0
 11 12  1  0
 12 13  1  0
 13 14  1  0
 14 15  1  0
 15 16  1  0
 16 17  1  0
 17 18  1  0
  2 19  1  0
 19 20  2  0
 20 21  1  0
 21 22  2  0
 22 23  1  0
 23 24  2  0
 24 25  1  0
 25 26  2  0
 26 27  1  0
 27 28  2  0
 12  7  1  0
 18 13  1  0
 28 19  1  0
 27 22  1  0
  3 29  1  0
  4 30  1  0
  4 31  1  0
  8 32  1  0
  8 33  1  0
  9 34  1  0
  9 35  1  0
 10 36  1  0
 10 37  1  0
 11 38  1  0
 11 39  1  0
 12 40  1  1
 13 41  1  0
 14 42  1  0
 14 43  1  0
 15 44  1  0
 15 45  1  0
 17 46  1  0
 17 47  1  0
 18 48  1  0
 18 49  1  0
 20 50  1  0
 21 51  1  0
 23 52  1  0
 24 53  1  0
 25 54  1  0
 26 55  1  0
M  END
>  <smiles>  (49) 
O=C(NCC(=O)N1CCCCC1C1CCOCC1)c1ccc2ccccc2n1

>  <score_type>  (49) 
oracle

>  <origin>  (49) 
autodockgpu

>  <m_score__min__energy>  (49) 
-8.9900000000000002

>  <m_primary>  (49) 
energy

>  <rmsd>  (49) 
2.2413452616903693

>  <m_score__min__rmsd>  (49) 
2.2413452616903693

>  <meeko>  (49) 
{"free_energy": -8.62, "intermolecular_energy": -10.11, "internal_energy": -1.5, "cluster_size": 18, "cluster_id": 3, "rank_in_cluster": 14}

>  <energy>  (49) 
-7.53

>  <cluster_rmsd>  (49) 
1.03

>  <cluster>  (49) 
4

$$$$

     RDKit          3D

 55 58  0  0  0  0  0  0  0  0999 V2000
  138.7480   75.6180  221.6250 O   0  0  0  0  0  0  0  0  0  0  0  0
  139.9190   76.0160  221.9080 C   0  0  0  0  0  0  0  0  0  0  0  0
  140.9980   75.1020  221.7270 N   0  0  0  0  0  0  0  0  0  0  0  0
  140.6920   73.7910  221.2400 C   0  0  0  0  0  0  0  0  0  0  0  0
  140.8850   73.6730  219.7670 C   0  0  0  0  0  0  0  0  0  0  0  0
  140.1090   72.9800  219.0590 O   0  0  0  0  0  0  0  0  0  0  0  0
  141.9790   74.3720  219.1850 N   0  0  0  0  0  0  0  0  0  0  0  0
  142.0060   74.7460  217.7780 C   0  0  0  0  0  0  0  0  0  0  0  0
  142.3230   76.1970  217.5790 C   0  0  0  0  0  0  0  0  0  0  0  0
  142.5690   76.9200  218.8840 C   0  0  0  0  0  0  0  0  0  0  0  0
  143.5340   76.1710  219.7740 C   0  0  0  0  0  0  0  0  0  0  0  0
  143.1090   74.7360  219.9900 C   0  0  2  0  0  0  0  0  0  0  0  0
  144.2790   73.8550  219.6390 C   0  0  0  0  0  0  0  0  0  0  0  0
  143.9760   72.3860  219.7920 C   0  0  0  0  0  0  0  0  0  0  0  0
  145.1950   71.6440  219.2670 C   0  0  0  0  0  0  0  0  0  0  0  0
  146.3570   71.9430  219.9310 O   0  0  0  0  0  0  0  0  0  0  0  0
  146.2700   72.9320  220.8810 C   0  0  0  0  0  0  0  0  0  0  0  0
  145.4960   74.1480  220.4620 C   0  0  0  0  0  0  0  0  0  0  0  0
  140.1700   77.3720  222.4040 C   0  0  0  0  0  0  0  0  0  0  0  0
  139.0750   78.1470  222.7510 C   0  0  0  0  0  0  0  0  0  0  0  0
  139.3070   79.4320  223.2210 C   0  0  0  0  0  0  0  0  0  0  0  0
  140.5990   79.8680  223.3180 C   0  0  0  0  0  0  0  0  0  0  0  0
  140.8400   81.1460  223.7850 C   0  0  0  0  0  0  0  0  0  0  0  0
  142.1310   81.6580  223.9100 C   0  0  0  0  0  0  0  0  0  0  0  0
  143.1970   80.8380  223.5470 C   0  0  0  0  0  0  0  0  0  0  0  0
  142.9850   79.5470  223.0730 C   0  0  0  0  0  0  0  0  0  0  0  0
  141.6930   79.0740  222.9630 C   0  0  0  0  0  0  0  0  0  0  0  0
  141.4270   77.8200  222.5060 N   0  0  0  0  0  0  0  0  0  0  0  0
  141.9810   75.4220  221.9580 H   0  0  0  0  0  0  0  0  0  0  0  0
  141.3492   73.0654  221.7417 H   0  0  0  0  0  0  0  0  0  0  0  0
  139.6321   73.5916  221.4565 H   0  0  0  0  0  0  0  0  0  0  0  0
  142.7716   74.1438  217.2669 H   0  0  0  0  0  0  0  0  0  0  0  0
  141.0044   74.5613  217.3624 H   0  0  0  0  0  0  0  0  0  0  0  0
  143.2251   76.2787  216.9549 H   0  0  0  0  0  0  0  0  0  0  0  0
  141.4532   76.6660  217.0957 H   0  0  0  0  0  0  0  0  0  0  0  0
  142.9859   77.9143  218.6659 H   0  0  0  0  0  0  0  0  0  0  0  0
  141.6087   76.9985  219.4148 H   0  0  0  0  0  0  0  0  0  0  0  0
  144.5291   76.1798  219.3054 H   0  0  0  0  0  0  0  0  0  0  0  0
  143.5507   76.6713  220.7535 H   0  0  0  0  0  0  0  0  0  0  0  0
  142.8063   74.6124  221.0403 H   0  0  0  0  0  0  0  0  0  0  0  0
  144.4769   74.0867  218.5821 H   0  0  0  0  0  0  0  0  0  0  0  0
  143.8066   72.1399  220.8507 H   0  0  0  0  0  0  0  0  0  0  0  0
  143.0672   72.1047  219.2398 H   0  0  0  0  0  0  0  0  0  0  0  0
  145.0102   70.5638  219.3619 H   0  0  0  0  0  0  0  0  0  0  0  0
  145.3346   71.9589  218.2223 H   0  0  0  0  0  0  0  0  0  0  0  0
  145.7832   72.5078  221.7716 H   0  0  0  0  0  0  0  0  0  0  0  0
  147.2997   73.2718  221.0661 H   0  0  0  0  0  0  0  0  0  0  0  0
  145.1771   74.6821  221.3692 H   0  0  0  0  0  0  0  0  0  0  0  0
  146.1680   74.7438  219.8268 H   0  0  0  0  0  0  0  0  0  0  0  0
  138.0515   77.7551  222.6567 H   0  0  0  0  0  0  0  0  0  0  0  0
  138.4700   80.0851  223.5090 H   0  0  0  0  0  0  0  0  0  0  0  0
  139.9862   81.7796  224.0671 H   0  0  0  0  0  0  0  0  0  0  0  0
  142.3024   82.6782  224.2838 H   0  0  0  0  0  0  0  0  0  0  0  0
  144.2254   81.2181  223.6367 H   0  0  0  0  0  0  0  0  0  0  0  0
  143.8367   78.9112  222.7894 H   0  0  0  0  0  0  0  0  0  0  0  0
  1  2  2  0
  2  3  1  0
  3  4  1  0
  4  5  1  0
  5  6  2  0
  5  7  1  0
  7  8  1  0
  8  9  1  0
  9 10  1  0
 10 11  1  0
 11 12  1  0
 12 13  1  0
 13 14  1  0
 14 15  1  0
 15 16  1  0
 16 17  1  0
 17 18  1  0
  2 19  1  0
 19 20  2  0
 20 21  1  0
 21 22  2  0
 22 23  1  0
 23 24  2  0
 24 25  1  0
 25 26  2  0
 26 27  1  0
 27 28  2  0
 12  7  1  0
 18 13  1  0
 28 19  1  0
 27 22  1  0
  3 29  1  0
  4 30  1  0
  4 31  1  0
  8 32  1  0
  8 33  1  0
  9 34  1  0
  9 35  1  0
 10 36  1  0
 10 37  1  0
 11 38  1  0
 11 39  1  0
 12 40  1  1
 13 41  1  0
 14 42  1  0
 14 43  1  0
 15 44  1  0
 15 45  1  0
 17 46  1  0
 17 47  1  0
 18 48  1  0
 18 49  1  0
 20 50  1  0
 21 51  1  0
 23 52  1  0
 24 53  1  0
 25 54  1  0
 26 55  1  0
M  END
>  <smiles>  (50) 
O=C(NCC(=O)N1CCCCC1C1CCOCC1)c1ccc2ccccc2n1

>  <score_type>  (50) 
oracle

>  <origin>  (50) 
autodockgpu

>  <m_score__min__energy>  (50) 
-8.9900000000000002

>  <m_primary>  (50) 
energy

>  <rmsd>  (50) 
7.310568424901647

>  <m_score__min__rmsd>  (50) 
7.310568424901647

>  <meeko>  (50) 
{"free_energy": -7.62, "intermolecular_energy": -9.12, "internal_energy": -2.01, "cluster_size": 7, "cluster_id": 4, "rank_in_cluster": 2}

>  <energy>  (50) 
-7.49

>  <cluster_rmsd>  (50) 
1.0

>  <cluster>  (50) 
4

$$$$

     RDKit          3D

 55 58  0  0  0  0  0  0  0  0999 V2000
  141.1810   71.9930  221.3790 O   0  0  0  0  0  0  0  0  0  0  0  0
  140.4770   72.4130  222.3320 C   0  0  0  0  0  0  0  0  0  0  0  0
  139.8660   73.6970  222.3540 N   0  0  0  0  0  0  0  0  0  0  0  0
  140.0740   74.5640  221.2020 C   0  0  0  0  0  0  0  0  0  0  0  0
  139.6880   75.9160  221.6100 C   0  0  0  0  0  0  0  0  0  0  0  0
  138.9260   76.1630  222.6070 O   0  0  0  0  0  0  0  0  0  0  0  0
  140.1360   77.1070  220.9170 N   0  0  0  0  0  0  0  0  0  0  0  0
  139.2350   77.6280  219.8920 C   0  0  0  0  0  0  0  0  0  0  0  0
  140.0090   78.1090  218.7160 C   0  0  0  0  0  0  0  0  0  0  0  0
  141.4480   77.7050  218.6980 C   0  0  0  0  0  0  0  0  0  0  0  0
  142.1750   77.8720  219.9810 C   0  0  0  0  0  0  0  0  0  0  0  0
  141.4040   77.7340  221.2310 C   0  0  1  0  0  0  0  0  0  0  0  0
  141.2890   78.9840  222.0460 C   0  0  0  0  0  0  0  0  0  0  0  0
  142.5920   79.4590  222.6100 C   0  0  0  0  0  0  0  0  0  0  0  0
  142.3690   80.4060  223.7890 C   0  0  0  0  0  0  0  0  0  0  0  0
  141.2360   81.1440  223.5760 O   0  0  0  0  0  0  0  0  0  0  0  0
  140.0570   80.4550  223.5070 C   0  0  0  0  0  0  0  0  0  0  0  0
  140.2350   78.9830  223.1040 C   0  0  0  0  0  0  0  0  0  0  0  0
  140.2600   71.5440  223.4990 C   0  0  0  0  0  0  0  0  0  0  0  0
  139.5900   70.3290  223.3420 C   0  0  0  0  0  0  0  0  0  0  0  0
  139.3700   69.4830  224.4280 C   0  0  0  0  0  0  0  0  0  0  0  0
  139.8410   69.8960  225.6660 C   0  0  0  0  0  0  0  0  0  0  0  0
  139.6470   69.0940  226.7690 C   0  0  0  0  0  0  0  0  0  0  0  0
  140.0920   69.4490  228.0280 C   0  0  0  0  0  0  0  0  0  0  0  0
  140.7500   70.6600  228.1330 C   0  0  0  0  0  0  0  0  0  0  0  0
  140.9650   71.4940  227.0490 C   0  0  0  0  0  0  0  0  0  0  0  0
  140.5020   71.0970  225.8140 C   0  0  0  0  0  0  0  0  0  0  0  0
  140.6880   71.8750  224.7320 N   0  0  0  0  0  0  0  0  0  0  0  0
  139.2770   74.0260  223.1680 H   0  0  0  0  0  0  0  0  0  0  0  0
  141.1323   74.5472  220.9025 H   0  0  0  0  0  0  0  0  0  0  0  0
  139.4753   74.2267  220.3430 H   0  0  0  0  0  0  0  0  0  0  0  0
  138.5493   76.8294  219.5724 H   0  0  0  0  0  0  0  0  0  0  0  0
  138.6654   78.4699  220.3125 H   0  0  0  0  0  0  0  0  0  0  0  0
  139.5318   77.7119  217.8079 H   0  0  0  0  0  0  0  0  0  0  0  0
  139.9991   79.2076  218.7702 H   0  0  0  0  0  0  0  0  0  0  0  0
  141.4982   76.6430  218.4158 H   0  0  0  0  0  0  0  0  0  0  0  0
  141.9415   78.3782  217.9816 H   0  0  0  0  0  0  0  0  0  0  0  0
  142.9761   77.1186  220.0047 H   0  0  0  0  0  0  0  0  0  0  0  0
  142.5093   78.9200  219.9758 H   0  0  0  0  0  0  0  0  0  0  0  0
  141.9683   77.0820  221.9139 H   0  0  0  0  0  0  0  0  0  0  0  0
  140.9516   79.7088  221.2905 H   0  0  0  0  0  0  0  0  0  0  0  0
  143.1734   78.5901  222.9521 H   0  0  0  0  0  0  0  0  0  0  0  0
  143.1357   80.0026  221.8233 H   0  0  0  0  0  0  0  0  0  0  0  0
  142.2562   79.8201  224.7131 H   0  0  0  0  0  0  0  0  0  0  0  0
  143.2325   81.0808  223.8845 H   0  0  0  0  0  0  0  0  0  0  0  0
  139.5738   80.4905  224.4945 H   0  0  0  0  0  0  0  0  0  0  0  0
  139.4453   80.9339  222.7283 H   0  0  0  0  0  0  0  0  0  0  0  0
  140.5583   78.3841  223.9682 H   0  0  0  0  0  0  0  0  0  0  0  0
  139.2943   78.5421  222.7426 H   0  0  0  0  0  0  0  0  0  0  0  0
  139.2299   70.0346  222.3452 H   0  0  0  0  0  0  0  0  0  0  0  0
  138.8432   68.5248  224.3080 H   0  0  0  0  0  0  0  0  0  0  0  0
  139.1192   68.1372  226.6431 H   0  0  0  0  0  0  0  0  0  0  0  0
  139.9308   68.8010  228.9021 H   0  0  0  0  0  0  0  0  0  0  0  0
  141.1187   70.9747  229.1204 H   0  0  0  0  0  0  0  0  0  0  0  0
  141.4931   72.4512  227.1712 H   0  0  0  0  0  0  0  0  0  0  0  0
  1  2  2  0
  2  3  1  0
  3  4  1  0
  4  5  1  0
  5  6  2  0
  5  7  1  0
  7  8  1  0
  8  9  1  0
  9 10  1  0
 10 11  1  0
 11 12  1  0
 12 13  1  0
 13 14  1  0
 14 15  1  0
 15 16  1  0
 16 17  1  0
 17 18  1  0
  2 19  1  0
 19 20  2  0
 20 21  1  0
 21 22  2  0
 22 23  1  0
 23 24  2  0
 24 25  1  0
 25 26  2  0
 26 27  1  0
 27 28  2  0
 12  7  1  0
 18 13  1  0
 28 19  1  0
 27 22  1  0
  3 29  1  0
  4 30  1  0
  4 31  1  0
  8 32  1  0
  8 33  1  0
  9 34  1  0
  9 35  1  0
 10 36  1  0
 10 37  1  0
 11 38  1  0
 11 39  1  0
 12 40  1  1
 13 41  1  0
 14 42  1  0
 14 43  1  0
 15 44  1  0
 15 45  1  0
 17 46  1  0
 17 47  1  0
 18 48  1  0
 18 49  1  0
 20 50  1  0
 21 51  1  0
 23 52  1  0
 24 53  1  0
 25 54  1  0
 26 55  1  0
M  END
>  <smiles>  (51) 
O=C(NCC(=O)N1CCCCC1C1CCOCC1)c1ccc2ccccc2n1

>  <score_type>  (51) 
oracle

>  <origin>  (51) 
autodockgpu

>  <m_score__min__energy>  (51) 
-8.7699999999999996

>  <m_primary>  (51) 
energy

>  <rmsd>  (51) 
1.9806403928419687

>  <m_score__min__rmsd>  (51) 
1.9806403928419687

>  <meeko>  (51) 
{"free_energy": -8.47, "intermolecular_energy": -9.96, "internal_energy": -1.83, "cluster_size": 27, "cluster_id": 2, "rank_in_cluster": 7}

>  <energy>  (51) 
-8.77

>  <cluster_rmsd>  (51) 
0.0

>  <cluster>  (51) 
1

$$$$

     RDKit          3D

 55 58  0  0  0  0  0  0  0  0999 V2000
  141.2550   71.5670  221.4010 O   0  0  0  0  0  0  0  0  0  0  0  0
  140.4940   72.0970  222.2510 C   0  0  0  0  0  0  0  0  0  0  0  0
  139.8350   73.3410  222.0490 N   0  0  0  0  0  0  0  0  0  0  0  0
  140.0600   74.0290  220.7850 C   0  0  0  0  0  0  0  0  0  0  0  0
  141.1240   75.0080  221.0150 C   0  0  0  0  0  0  0  0  0  0  0  0
  141.2830   75.6310  222.1200 O   0  0  0  0  0  0  0  0  0  0  0  0
  142.1000   75.3640  220.0060 N   0  0  0  0  0  0  0  0  0  0  0  0
  142.5730   76.7460  220.0320 C   0  0  0  0  0  0  0  0  0  0  0  0
  142.7270   77.2700  218.6480 C   0  0  0  0  0  0  0  0  0  0  0  0
  142.1110   76.4240  217.5800 C   0  0  0  0  0  0  0  0  0  0  0  0
  142.3780   74.9670  217.6850 C   0  0  0  0  0  0  0  0  0  0  0  0
  142.5700   74.3990  219.0330 C   0  0  1  0  0  0  0  0  0  0  0  0
  143.9420   73.8660  219.3050 C   0  0  0  0  0  0  0  0  0  0  0  0
  144.1680   72.4830  218.7760 C   0  0  0  0  0  0  0  0  0  0  0  0
  145.3520   71.8140  219.4750 C   0  0  0  0  0  0  0  0  0  0  0  0
  146.2980   72.7550  219.7770 O   0  0  0  0  0  0  0  0  0  0  0  0
  145.9330   73.7340  220.6600 C   0  0  0  0  0  0  0  0  0  0  0  0
  144.4150   73.9650  220.7190 C   0  0  0  0  0  0  0  0  0  0  0  0
  140.2590   71.4100  223.5300 C   0  0  0  0  0  0  0  0  0  0  0  0
  139.5580   70.2020  223.5480 C   0  0  0  0  0  0  0  0  0  0  0  0
  139.3200   69.5250  224.7420 C   0  0  0  0  0  0  0  0  0  0  0  0
  139.8050   70.0990  225.9100 C   0  0  0  0  0  0  0  0  0  0  0  0
  139.5940   69.4680  227.1160 C   0  0  0  0  0  0  0  0  0  0  0  0
  140.0520   69.9880  228.3110 C   0  0  0  0  0  0  0  0  0  0  0  0
  140.7400   71.1840  228.2430 C   0  0  0  0  0  0  0  0  0  0  0  0
  140.9720   71.8500  227.0510 C   0  0  0  0  0  0  0  0  0  0  0  0
  140.4960   71.2920  225.8850 C   0  0  0  0  0  0  0  0  0  0  0  0
  140.6980   71.9020  224.7030 N   0  0  0  0  0  0  0  0  0  0  0  0
  139.1980   73.7650  222.7790 H   0  0  0  0  0  0  0  0  0  0  0  0
  140.3692   73.3092  220.0128 H   0  0  0  0  0  0  0  0  0  0  0  0
  139.1405   74.5225  220.4371 H   0  0  0  0  0  0  0  0  0  0  0  0
  141.8460   77.3673  220.5755 H   0  0  0  0  0  0  0  0  0  0  0  0
  143.5505   76.7781  220.5355 H   0  0  0  0  0  0  0  0  0  0  0  0
  142.2608   78.2655  218.6061 H   0  0  0  0  0  0  0  0  0  0  0  0
  143.8077   77.2850  218.4433 H   0  0  0  0  0  0  0  0  0  0  0  0
  141.0217   76.5724  217.6163 H   0  0  0  0  0  0  0  0  0  0  0  0
  142.5714   76.7480  216.6350 H   0  0  0  0  0  0  0  0  0  0  0  0
  141.5263   74.4433  217.2264 H   0  0  0  0  0  0  0  0  0  0  0  0
  143.3470   74.8258  217.1839 H   0  0  0  0  0  0  0  0  0  0  0  0
  141.9626   73.4854  219.1124 H   0  0  0  0  0  0  0  0  0  0  0  0
  144.5685   74.5647  218.7312 H   0  0  0  0  0  0  0  0  0  0  0  0
  143.2633   71.8809  218.9459 H   0  0  0  0  0  0  0  0  0  0  0  0
  144.3898   72.5517  217.7008 H   0  0  0  0  0  0  0  0  0  0  0  0
  145.0058   71.3325  220.4014 H   0  0  0  0  0  0  0  0  0  0  0  0
  145.7898   71.0568  218.8079 H   0  0  0  0  0  0  0  0  0  0  0  0
  146.2816   73.4470  221.6630 H   0  0  0  0  0  0  0  0  0  0  0  0
  146.3918   74.6720  220.3140 H   0  0  0  0  0  0  0  0  0  0  0  0
  143.9328   73.1962  221.3406 H   0  0  0  0  0  0  0  0  0  0  0  0
  144.1670   74.9393  221.1655 H   0  0  0  0  0  0  0  0  0  0  0  0
  139.1875   69.7779  222.6031 H   0  0  0  0  0  0  0  0  0  0  0  0
  138.7694   68.5729  224.7591 H   0  0  0  0  0  0  0  0  0  0  0  0
  139.0415   68.5169  227.1280 H   0  0  0  0  0  0  0  0  0  0  0  0
  139.8776   69.4755  229.2686 H   0  0  0  0  0  0  0  0  0  0  0  0
  141.1199   71.6264  229.1757 H   0  0  0  0  0  0  0  0  0  0  0  0
  141.5232   72.8018  227.0358 H   0  0  0  0  0  0  0  0  0  0  0  0
  1  2  2  0
  2  3  1  0
  3  4  1  0
  4  5  1  0
  5  6  2  0
  5  7  1  0
  7  8  1  0
  8  9  1  0
  9 10  1  0
 10 11  1  0
 11 12  1  0
 12 13  1  0
 13 14  1  0
 14 15  1  0
 15 16  1  0
 16 17  1  0
 17 18  1  0
  2 19  1  0
 19 20  2  0
 20 21  1  0
 21 22  2  0
 22 23  1  0
 23 24  2  0
 24 25  1  0
 25 26  2  0
 26 27  1  0
 27 28  2  0
 12  7  1  0
 18 13  1  0
 28 19  1  0
 27 22  1  0
  3 29  1  0
  4 30  1  0
  4 31  1  0
  8 32  1  0
  8 33  1  0
  9 34  1  0
  9 35  1  0
 10 36  1  0
 10 37  1  0
 11 38  1  0
 11 39  1  0
 12 40  1  6
 13 41  1  0
 14 42  1  0
 14 43  1  0
 15 44  1  0
 15 45  1  0
 17 46  1  0
 17 47  1  0
 18 48  1  0
 18 49  1  0
 20 50  1  0
 21 51  1  0
 23 52  1  0
 24 53  1  0
 25 54  1  0
 26 55  1  0
M  END
>  <smiles>  (52) 
O=C(NCC(=O)N1CCCCC1C1CCOCC1)c1ccc2ccccc2n1

>  <score_type>  (52) 
oracle

>  <origin>  (52) 
autodockgpu

>  <m_score__min__energy>  (52) 
-8.7699999999999996

>  <m_primary>  (52) 
energy

>  <rmsd>  (52) 
2.4557388769120805

>  <m_score__min__rmsd>  (52) 
2.4557388769120805

>  <meeko>  (52) 
{"free_energy": -8.75, "intermolecular_energy": -10.24, "internal_energy": -1.67, "cluster_size": 21, "cluster_id": 1, "rank_in_cluster": 2}

>  <energy>  (52) 
-8.75

>  <cluster_rmsd>  (52) 
0.05

>  <cluster>  (52) 
1

$$$$

     RDKit          3D

 55 58  0  0  0  0  0  0  0  0999 V2000
  141.3150   71.5760  221.4360 O   0  0  0  0  0  0  0  0  0  0  0  0
  140.5350   72.0940  222.2770 C   0  0  0  0  0  0  0  0  0  0  0  0
  139.8560   73.3250  222.0660 N   0  0  0  0  0  0  0  0  0  0  0  0
  140.0830   74.0150  220.8030 C   0  0  0  0  0  0  0  0  0  0  0  0
  141.1310   75.0080  221.0400 C   0  0  0  0  0  0  0  0  0  0  0  0
  141.2800   75.6270  222.1490 O   0  0  0  0  0  0  0  0  0  0  0  0
  142.1030   75.3850  220.0340 N   0  0  0  0  0  0  0  0  0  0  0  0
  142.5690   76.7690  220.0810 C   0  0  0  0  0  0  0  0  0  0  0  0
  142.7170   77.3140  218.7040 C   0  0  0  0  0  0  0  0  0  0  0  0
  142.1030   76.4810  217.6250 C   0  0  0  0  0  0  0  0  0  0  0  0
  142.3780   75.0250  217.7070 C   0  0  0  0  0  0  0  0  0  0  0  0
  142.5760   74.4370  219.0450 C   0  0  1  0  0  0  0  0  0  0  0  0
  143.9510   73.9070  219.3060 C   0  0  0  0  0  0  0  0  0  0  0  0
  144.1930   72.5470  218.7280 C   0  0  0  0  0  0  0  0  0  0  0  0
  145.3790   71.8630  219.4090 C   0  0  0  0  0  0  0  0  0  0  0  0
  146.3150   72.8000  219.7520 O   0  0  0  0  0  0  0  0  0  0  0  0
  145.9350   73.7430  220.6680 C   0  0  0  0  0  0  0  0  0  0  0  0
  144.4140   73.9570  220.7250 C   0  0  0  0  0  0  0  0  0  0  0  0
  140.2990   71.4040  223.5550 C   0  0  0  0  0  0  0  0  0  0  0  0
  139.5800   70.2080  223.5730 C   0  0  0  0  0  0  0  0  0  0  0  0
  139.3400   69.5300  224.7670 C   0  0  0  0  0  0  0  0  0  0  0  0
  139.8430   70.0910  225.9320 C   0  0  0  0  0  0  0  0  0  0  0  0
  139.6320   69.4580  227.1370 C   0  0  0  0  0  0  0  0  0  0  0  0
  140.1070   69.9660  228.3310 C   0  0  0  0  0  0  0  0  0  0  0  0
  140.8140   71.1510  228.2630 C   0  0  0  0  0  0  0  0  0  0  0  0
  141.0480   71.8180  227.0710 C   0  0  0  0  0  0  0  0  0  0  0  0
  140.5540   71.2730  225.9070 C   0  0  0  0  0  0  0  0  0  0  0  0
  140.7560   71.8850  224.7260 N   0  0  0  0  0  0  0  0  0  0  0  0
  139.2050   73.7390  222.7880 H   0  0  0  0  0  0  0  0  0  0  0  0
  140.4084   73.2985  220.0343 H   0  0  0  0  0  0  0  0  0  0  0  0
  139.1599   74.4960  220.4472 H   0  0  0  0  0  0  0  0  0  0  0  0
  141.8400   77.3782  220.6354 H   0  0  0  0  0  0  0  0  0  0  0  0
  143.5470   76.7992  220.5835 H   0  0  0  0  0  0  0  0  0  0  0  0
  142.2457   78.3076  218.6779 H   0  0  0  0  0  0  0  0  0  0  0  0
  143.7971   77.3372  218.4972 H   0  0  0  0  0  0  0  0  0  0  0  0
  141.0130   76.6228  217.6663 H   0  0  0  0  0  0  0  0  0  0  0  0
  142.5593   76.8219  216.6839 H   0  0  0  0  0  0  0  0  0  0  0  0
  141.5281   74.5039  217.2421 H   0  0  0  0  0  0  0  0  0  0  0  0
  143.3469   74.8972  217.2020 H   0  0  0  0  0  0  0  0  0  0  0  0
  141.9739   73.5188  219.1113 H   0  0  0  0  0  0  0  0  0  0  0  0
  144.5742   74.6326  218.7628 H   0  0  0  0  0  0  0  0  0  0  0  0
  143.2929   71.9309  218.8699 H   0  0  0  0  0  0  0  0  0  0  0  0
  144.4207   72.6576  217.6575 H   0  0  0  0  0  0  0  0  0  0  0  0
  145.0316   71.3442  220.3146 H   0  0  0  0  0  0  0  0  0  0  0  0
  145.8276   71.1354  218.7166 H   0  0  0  0  0  0  0  0  0  0  0  0
  146.2800   73.4229  221.6622 H   0  0  0  0  0  0  0  0  0  0  0  0
  146.3869   74.6973  220.3598 H   0  0  0  0  0  0  0  0  0  0  0  0
  143.9355   73.1606  221.3139 H   0  0  0  0  0  0  0  0  0  0  0  0
  144.1537   74.9114  221.2060 H   0  0  0  0  0  0  0  0  0  0  0  0
  139.1963   69.7934  222.6291 H   0  0  0  0  0  0  0  0  0  0  0  0
  138.7739   68.5870  224.7849 H   0  0  0  0  0  0  0  0  0  0  0  0
  139.0656   68.5151  227.1492 H   0  0  0  0  0  0  0  0  0  0  0  0
  139.9310   69.4526  229.2878 H   0  0  0  0  0  0  0  0  0  0  0  0
  141.2079   71.5834  229.1946 H   0  0  0  0  0  0  0  0  0  0  0  0
  141.6150   72.7605  227.0551 H   0  0  0  0  0  0  0  0  0  0  0  0
  1  2  2  0
  2  3  1  0
  3  4  1  0
  4  5  1  0
  5  6  2  0
  5  7  1  0
  7  8  1  0
  8  9  1  0
  9 10  1  0
 10 11  1  0
 11 12  1  0
 12 13  1  0
 13 14  1  0
 14 15  1  0
 15 16  1  0
 16 17  1  0
 17 18  1  0
  2 19  1  0
 19 20  2  0
 20 21  1  0
 21 22  2  0
 22 23  1  0
 23 24  2  0
 24 25  1  0
 25 26  2  0
 26 27  1  0
 27 28  2  0
 12  7  1  0
 18 13  1  0
 28 19  1  0
 27 22  1  0
  3 29  1  0
  4 30  1  0
  4 31  1  0
  8 32  1  0
  8 33  1  0
  9 34  1  0
  9 35  1  0
 10 36  1  0
 10 37  1  0
 11 38  1  0
 11 39  1  0
 12 40  1  6
 13 41  1  0
 14 42  1  0
 14 43  1  0
 15 44  1  0
 15 45  1  0
 17 46  1  0
 17 47  1  0
 18 48  1  0
 18 49  1  0
 20 50  1  0
 21 51  1  0
 23 52  1  0
 24 53  1  0
 25 54  1  0
 26 55  1  0
M  END
>  <smiles>  (53) 
O=C(NCC(=O)N1CCCCC1C1CCOCC1)c1ccc2ccccc2n1

>  <score_type>  (53) 
oracle

>  <origin>  (53) 
autodockgpu

>  <m_score__min__energy>  (53) 
-8.7699999999999996

>  <m_primary>  (53) 
energy

>  <rmsd>  (53) 
2.461030127863744

>  <m_score__min__rmsd>  (53) 
2.461030127863744

>  <meeko>  (53) 
{"free_energy": -8.77, "intermolecular_energy": -10.27, "internal_energy": -1.66, "cluster_size": 21, "cluster_id": 1, "rank_in_cluster": 1}

>  <energy>  (53) 
-8.74

>  <cluster_rmsd>  (53) 
0.07

>  <cluster>  (53) 
1

$$$$

     RDKit          3D

 55 58  0  0  0  0  0  0  0  0999 V2000
  140.8530   71.3560  221.2710 O   0  0  0  0  0  0  0  0  0  0  0  0
  140.3790   71.9890  222.2490 C   0  0  0  0  0  0  0  0  0  0  0  0
  139.9720   73.3500  222.1830 N   0  0  0  0  0  0  0  0  0  0  0  0
  140.1160   74.0370  220.9070 C   0  0  0  0  0  0  0  0  0  0  0  0
  141.1350   75.0720  221.0910 C   0  0  0  0  0  0  0  0  0  0  0  0
  141.2760   75.7410  222.1720 O   0  0  0  0  0  0  0  0  0  0  0  0
  142.0840   75.4380  220.0590 N   0  0  0  0  0  0  0  0  0  0  0  0
  142.5430   76.8250  220.0740 C   0  0  0  0  0  0  0  0  0  0  0  0
  142.6590   77.3490  218.6870 C   0  0  0  0  0  0  0  0  0  0  0  0
  142.0280   76.4960  217.6340 C   0  0  0  0  0  0  0  0  0  0  0  0
  142.3130   75.0420  217.7330 C   0  0  0  0  0  0  0  0  0  0  0  0
  142.5420   74.4770  219.0760 C   0  0  1  0  0  0  0  0  0  0  0  0
  143.9250   73.9590  219.3180 C   0  0  0  0  0  0  0  0  0  0  0  0
  144.1900   72.6280  218.6830 C   0  0  0  0  0  0  0  0  0  0  0  0
  145.3860   71.9360  219.3380 C   0  0  0  0  0  0  0  0  0  0  0  0
  146.3060   72.8740  219.7210 O   0  0  0  0  0  0  0  0  0  0  0  0
  145.9100   73.7700  220.6750 C   0  0  0  0  0  0  0  0  0  0  0  0
  144.3860   73.9570  220.7390 C   0  0  0  0  0  0  0  0  0  0  0  0
  140.2280   71.3030  223.5420 C   0  0  0  0  0  0  0  0  0  0  0  0
  139.5900   70.0620  223.5970 C   0  0  0  0  0  0  0  0  0  0  0  0
  139.4320   69.3870  224.8050 C   0  0  0  0  0  0  0  0  0  0  0  0
  139.9330   69.9950  225.9480 C   0  0  0  0  0  0  0  0  0  0  0  0
  139.8010   69.3660  227.1660 C   0  0  0  0  0  0  0  0  0  0  0  0
  140.2780   69.9200  228.3390 C   0  0  0  0  0  0  0  0  0  0  0  0
  140.9020   71.1480  228.2340 C   0  0  0  0  0  0  0  0  0  0  0  0
  141.0550   71.8130  227.0280 C   0  0  0  0  0  0  0  0  0  0  0  0
  140.5620   71.2210  225.8870 C   0  0  0  0  0  0  0  0  0  0  0  0
  140.6880   71.8290  224.6930 N   0  0  0  0  0  0  0  0  0  0  0  0
  139.5760   73.8600  223.0200 H   0  0  0  0  0  0  0  0  0  0  0  0
  140.4346   73.3271  220.1295 H   0  0  0  0  0  0  0  0  0  0  0  0
  139.1603   74.4791  220.5890 H   0  0  0  0  0  0  0  0  0  0  0  0
  141.8224   77.4390  220.6341 H   0  0  0  0  0  0  0  0  0  0  0  0
  143.5314   76.8680  220.5550 H   0  0  0  0  0  0  0  0  0  0  0  0
  142.1812   78.3393  218.6554 H   0  0  0  0  0  0  0  0  0  0  0  0
  143.7345   77.3751  218.4574 H   0  0  0  0  0  0  0  0  0  0  0  0
  140.9382   76.6326  217.6954 H   0  0  0  0  0  0  0  0  0  0  0  0
  142.4632   76.8245  216.6786 H   0  0  0  0  0  0  0  0  0  0  0  0
  141.4566   74.5090  217.2943 H   0  0  0  0  0  0  0  0  0  0  0  0
  143.2716   74.9109  217.2097 H   0  0  0  0  0  0  0  0  0  0  0  0
  141.9468   73.5566  219.1686 H   0  0  0  0  0  0  0  0  0  0  0  0
  144.5371   74.7173  218.8078 H   0  0  0  0  0  0  0  0  0  0  0  0
  143.2999   71.9918  218.7966 H   0  0  0  0  0  0  0  0  0  0  0  0
  144.4172   72.7869  217.6185 H   0  0  0  0  0  0  0  0  0  0  0  0
  145.0459   71.3750  220.2209 H   0  0  0  0  0  0  0  0  0  0  0  0
  145.8475   71.2446  218.6176 H   0  0  0  0  0  0  0  0  0  0  0  0
  146.2593   73.4134  221.6552 H   0  0  0  0  0  0  0  0  0  0  0  0
  146.3465   74.7438  220.4082 H   0  0  0  0  0  0  0  0  0  0  0  0
  143.9199   73.1291  221.2934 H   0  0  0  0  0  0  0  0  0  0  0  0
  144.1100   74.8861  221.2593 H   0  0  0  0  0  0  0  0  0  0  0  0
  139.2058   69.6100  222.6707 H   0  0  0  0  0  0  0  0  0  0  0  0
  138.9295   68.4096  224.8516 H   0  0  0  0  0  0  0  0  0  0  0  0
  139.2983   68.3884  227.2068 H   0  0  0  0  0  0  0  0  0  0  0  0
  140.1665   69.4091  229.3068 H   0  0  0  0  0  0  0  0  0  0  0  0
  141.2945   71.6184  229.1476 H   0  0  0  0  0  0  0  0  0  0  0  0
  141.5581   72.7902  226.9834 H   0  0  0  0  0  0  0  0  0  0  0  0
  1  2  2  0
  2  3  1  0
  3  4  1  0
  4  5  1  0
  5  6  2  0
  5  7  1  0
  7  8  1  0
  8  9  1  0
  9 10  1  0
 10 11  1  0
 11 12  1  0
 12 13  1  0
 13 14  1  0
 14 15  1  0
 15 16  1  0
 16 17  1  0
 17 18  1  0
  2 19  1  0
 19 20  2  0
 20 21  1  0
 21 22  2  0
 22 23  1  0
 23 24  2  0
 24 25  1  0
 25 26  2  0
 26 27  1  0
 27 28  2  0
 12  7  1  0
 18 13  1  0
 28 19  1  0
 27 22  1  0
  3 29  1  0
  4 30  1  0
  4 31  1  0
  8 32  1  0
  8 33  1  0
  9 34  1  0
  9 35  1  0
 10 36  1  0
 10 37  1  0
 11 38  1  0
 11 39  1  0
 12 40  1  6
 13 41  1  0
 14 42  1  0
 14 43  1  0
 15 44  1  0
 15 45  1  0
 17 46  1  0
 17 47  1  0
 18 48  1  0
 18 49  1  0
 20 50  1  0
 21 51  1  0
 23 52  1  0
 24 53  1  0
 25 54  1  0
 26 55  1  0
M  END
>  <smiles>  (54) 
O=C(NCC(=O)N1CCCCC1C1CCOCC1)c1ccc2ccccc2n1

>  <score_type>  (54) 
oracle

>  <origin>  (54) 
autodockgpu

>  <m_score__min__energy>  (54) 
-8.7699999999999996

>  <m_primary>  (54) 
energy

>  <rmsd>  (54) 
2.422352392507688

>  <m_score__min__rmsd>  (54) 
2.422352392507688

>  <meeko>  (54) 
{"free_energy": -8.72, "intermolecular_energy": -10.21, "internal_energy": -1.72, "cluster_size": 21, "cluster_id": 1, "rank_in_cluster": 5}

>  <energy>  (54) 
-8.73

>  <cluster_rmsd>  (54) 
0.18

>  <cluster>  (54) 
1

$$$$

     RDKit          3D

 55 58  0  0  0  0  0  0  0  0999 V2000
  141.3800   72.0510  221.5300 O   0  0  0  0  0  0  0  0  0  0  0  0
  140.5670   72.4420  222.4060 C   0  0  0  0  0  0  0  0  0  0  0  0
  139.8830   73.6870  222.3460 N   0  0  0  0  0  0  0  0  0  0  0  0
  140.1460   74.5490  221.2020 C   0  0  0  0  0  0  0  0  0  0  0  0
  139.6830   75.8900  221.5610 C   0  0  0  0  0  0  0  0  0  0  0  0
  138.8380   76.1190  222.4930 O   0  0  0  0  0  0  0  0  0  0  0  0
  140.1390   77.0890  220.8880 N   0  0  0  0  0  0  0  0  0  0  0  0
  139.2500   77.6240  219.8600 C   0  0  0  0  0  0  0  0  0  0  0  0
  140.0370   78.1200  218.6990 C   0  0  0  0  0  0  0  0  0  0  0  0
  141.4760   77.7130  218.6910 C   0  0  0  0  0  0  0  0  0  0  0  0
  142.1890   77.8630  219.9840 C   0  0  0  0  0  0  0  0  0  0  0  0
  141.4050   77.7100  221.2240 C   0  0  1  0  0  0  0  0  0  0  0  0
  141.2830   78.9500  222.0530 C   0  0  0  0  0  0  0  0  0  0  0  0
  142.5840   79.4260  222.6220 C   0  0  0  0  0  0  0  0  0  0  0  0
  142.3550   80.3580  223.8120 C   0  0  0  0  0  0  0  0  0  0  0  0
  141.2180   81.0910  223.6090 O   0  0  0  0  0  0  0  0  0  0  0  0
  140.0430   80.3950  223.5330 C   0  0  0  0  0  0  0  0  0  0  0  0
  140.2300   78.9290  223.1120 C   0  0  0  0  0  0  0  0  0  0  0  0
  140.2930   71.5780  223.5650 C   0  0  0  0  0  0  0  0  0  0  0  0
  139.5970   70.3810  223.3870 C   0  0  0  0  0  0  0  0  0  0  0  0
  139.3230   69.5400  224.4640 C   0  0  0  0  0  0  0  0  0  0  0  0
  139.7680   69.9400  225.7170 C   0  0  0  0  0  0  0  0  0  0  0  0
  139.5220   69.1420  226.8120 C   0  0  0  0  0  0  0  0  0  0  0  0
  139.9380   69.4850  228.0840 C   0  0  0  0  0  0  0  0  0  0  0  0
  140.6240   70.6780  228.2100 C   0  0  0  0  0  0  0  0  0  0  0  0
  140.8920   71.5080  227.1340 C   0  0  0  0  0  0  0  0  0  0  0  0
  140.4560   71.1240  225.8850 C   0  0  0  0  0  0  0  0  0  0  0  0
  140.6930   71.8970  224.8100 N   0  0  0  0  0  0  0  0  0  0  0  0
  139.2020   73.9920  223.0960 H   0  0  0  0  0  0  0  0  0  0  0  0
  141.2238   74.5676  220.9829 H   0  0  0  0  0  0  0  0  0  0  0  0
  139.6255   74.1811  220.3055 H   0  0  0  0  0  0  0  0  0  0  0  0
  138.5675   76.8301  219.5224 H   0  0  0  0  0  0  0  0  0  0  0  0
  138.6764   78.4608  220.2853 H   0  0  0  0  0  0  0  0  0  0  0  0
  139.5688   77.7366  217.7805 H   0  0  0  0  0  0  0  0  0  0  0  0
  140.0283   79.2178  218.7680 H   0  0  0  0  0  0  0  0  0  0  0  0
  141.5273   76.6544  218.3964 H   0  0  0  0  0  0  0  0  0  0  0  0
  141.9787   78.3934  217.9879 H   0  0  0  0  0  0  0  0  0  0  0  0
  142.9892   77.1086  220.0067 H   0  0  0  0  0  0  0  0  0  0  0  0
  142.5236   78.9108  219.9956 H   0  0  0  0  0  0  0  0  0  0  0  0
  141.9608   77.0485  221.9048 H   0  0  0  0  0  0  0  0  0  0  0  0
  140.9410   79.6821  221.3066 H   0  0  0  0  0  0  0  0  0  0  0  0
  143.1706   78.5567  222.9539 H   0  0  0  0  0  0  0  0  0  0  0  0
  143.1247   79.9815  221.8416 H   0  0  0  0  0  0  0  0  0  0  0  0
  142.2465   79.7606  224.7292 H   0  0  0  0  0  0  0  0  0  0  0  0
  143.2140   81.0374  223.9144 H   0  0  0  0  0  0  0  0  0  0  0  0
  139.5608   80.4154  224.5215 H   0  0  0  0  0  0  0  0  0  0  0  0
  139.4273   80.8793  222.7608 H   0  0  0  0  0  0  0  0  0  0  0  0
  140.5580   78.3218  223.9685 H   0  0  0  0  0  0  0  0  0  0  0  0
  139.2918   78.4862  222.7463 H   0  0  0  0  0  0  0  0  0  0  0  0
  139.2591   70.0968  222.3795 H   0  0  0  0  0  0  0  0  0  0  0  0
  138.7754   68.5959  224.3268 H   0  0  0  0  0  0  0  0  0  0  0  0
  138.9751   68.1984  226.6689 H   0  0  0  0  0  0  0  0  0  0  0  0
  139.7336   68.8413  228.9522 H   0  0  0  0  0  0  0  0  0  0  0  0
  140.9723   70.9817  229.2082 H   0  0  0  0  0  0  0  0  0  0  0  0
  141.4400   72.4515  227.2736 H   0  0  0  0  0  0  0  0  0  0  0  0
  1  2  2  0
  2  3  1  0
  3  4  1  0
  4  5  1  0
  5  6  2  0
  5  7  1  0
  7  8  1  0
  8  9  1  0
  9 10  1  0
 10 11  1  0
 11 12  1  0
 12 13  1  0
 13 14  1  0
 14 15  1  0
 15 16  1  0
 16 17  1  0
 17 18  1  0
  2 19  1  0
 19 20  2  0
 20 21  1  0
 21 22  2  0
 22 23  1  0
 23 24  2  0
 24 25  1  0
 25 26  2  0
 26 27  1  0
 27 28  2  0
 12  7  1  0
 18 13  1  0
 28 19  1  0
 27 22  1  0
  3 29  1  0
  4 30  1  0
  4 31  1  0
  8 32  1  0
  8 33  1  0
  9 34  1  0
  9 35  1  0
 10 36  1  0
 10 37  1  0
 11 38  1  0
 11 39  1  0
 12 40  1  1
 13 41  1  0
 14 42  1  0
 14 43  1  0
 15 44  1  0
 15 45  1  0
 17 46  1  0
 17 47  1  0
 18 48  1  0
 18 49  1  0
 20 50  1  0
 21 51  1  0
 23 52  1  0
 24 53  1  0
 25 54  1  0
 26 55  1  0
M  END
>  <smiles>  (55) 
O=C(NCC(=O)N1CCCCC1C1CCOCC1)c1ccc2ccccc2n1

>  <score_type>  (55) 
oracle

>  <origin>  (55) 
autodockgpu

>  <m_score__min__energy>  (55) 
-8.7699999999999996

>  <m_primary>  (55) 
energy

>  <rmsd>  (55) 
2.0113005125655468

>  <m_score__min__rmsd>  (55) 
2.0113005125655468

>  <meeko>  (55) 
{"free_energy": -8.49, "intermolecular_energy": -9.98, "internal_energy": -1.81, "cluster_size": 27, "cluster_id": 2, "rank_in_cluster": 5}

>  <energy>  (55) 
-8.72

>  <cluster_rmsd>  (55) 
0.17

>  <cluster>  (55) 
1

$$$$

     RDKit          3D

 55 58  0  0  0  0  0  0  0  0999 V2000
  140.8160   71.2470  221.2540 O   0  0  0  0  0  0  0  0  0  0  0  0
  140.3840   71.9110  222.2320 C   0  0  0  0  0  0  0  0  0  0  0  0
  140.0200   73.2830  222.1520 N   0  0  0  0  0  0  0  0  0  0  0  0
  140.1600   73.9460  220.8630 C   0  0  0  0  0  0  0  0  0  0  0  0
  141.1070   75.0460  221.0480 C   0  0  0  0  0  0  0  0  0  0  0  0
  141.1660   75.7570  222.1100 O   0  0  0  0  0  0  0  0  0  0  0  0
  142.0690   75.4370  220.0380 N   0  0  0  0  0  0  0  0  0  0  0  0
  142.5200   76.8260  220.0860 C   0  0  0  0  0  0  0  0  0  0  0  0
  142.6550   77.3770  218.7110 C   0  0  0  0  0  0  0  0  0  0  0  0
  142.0460   76.5400  217.6320 C   0  0  0  0  0  0  0  0  0  0  0  0
  142.3380   75.0860  217.7090 C   0  0  0  0  0  0  0  0  0  0  0  0
  142.5490   74.4970  219.0450 C   0  0  1  0  0  0  0  0  0  0  0  0
  143.9310   73.9820  219.2990 C   0  0  0  0  0  0  0  0  0  0  0  0
  144.2150   72.6660  218.6430 C   0  0  0  0  0  0  0  0  0  0  0  0
  145.4040   71.9680  219.3030 C   0  0  0  0  0  0  0  0  0  0  0  0
  146.3110   72.9030  219.7190 O   0  0  0  0  0  0  0  0  0  0  0  0
  145.8940   73.7790  220.6840 C   0  0  0  0  0  0  0  0  0  0  0  0
  144.3690   73.9560  220.7270 C   0  0  0  0  0  0  0  0  0  0  0  0
  140.2380   71.2490  223.5380 C   0  0  0  0  0  0  0  0  0  0  0  0
  139.6110   70.0050  223.6170 C   0  0  0  0  0  0  0  0  0  0  0  0
  139.4580   69.3520  224.8390 C   0  0  0  0  0  0  0  0  0  0  0  0
  139.9540   69.9870  225.9700 C   0  0  0  0  0  0  0  0  0  0  0  0
  139.8270   69.3820  227.2000 C   0  0  0  0  0  0  0  0  0  0  0  0
  140.2990   69.9640  228.3610 C   0  0  0  0  0  0  0  0  0  0  0  0
  140.9140   71.1940  228.2320 C   0  0  0  0  0  0  0  0  0  0  0  0
  141.0610   71.8360  227.0130 C   0  0  0  0  0  0  0  0  0  0  0  0
  140.5730   71.2170  225.8840 C   0  0  0  0  0  0  0  0  0  0  0  0
  140.6940   71.8020  224.6780 N   0  0  0  0  0  0  0  0  0  0  0  0
  139.6590   73.8190  222.9890 H   0  0  0  0  0  0  0  0  0  0  0  0
  140.5448   73.2382  220.1140 H   0  0  0  0  0  0  0  0  0  0  0  0
  139.1889   74.3200  220.5065 H   0  0  0  0  0  0  0  0  0  0  0  0
  141.7872   77.4255  220.6460 H   0  0  0  0  0  0  0  0  0  0  0  0
  143.5005   76.8650  220.5830 H   0  0  0  0  0  0  0  0  0  0  0  0
  142.1716   78.3649  218.6903 H   0  0  0  0  0  0  0  0  0  0  0  0
  143.7338   77.4140  218.4993 H   0  0  0  0  0  0  0  0  0  0  0  0
  140.9546   76.6694  217.6781 H   0  0  0  0  0  0  0  0  0  0  0  0
  142.4946   76.8886  216.6900 H   0  0  0  0  0  0  0  0  0  0  0  0
  141.4919   74.5564  217.2468 H   0  0  0  0  0  0  0  0  0  0  0  0
  143.3057   74.9702  217.1990 H   0  0  0  0  0  0  0  0  0  0  0  0
  141.9583   73.5715  219.1116 H   0  0  0  0  0  0  0  0  0  0  0  0
  144.5465   74.7531  218.8127 H   0  0  0  0  0  0  0  0  0  0  0  0
  143.3272   72.0224  218.7295 H   0  0  0  0  0  0  0  0  0  0  0  0
  144.4590   72.8477  217.5859 H   0  0  0  0  0  0  0  0  0  0  0  0
  145.0533   71.3874  220.1689 H   0  0  0  0  0  0  0  0  0  0  0  0
  145.8812   71.2936  218.5767 H   0  0  0  0  0  0  0  0  0  0  0  0
  146.2297   73.4057  221.6628 H   0  0  0  0  0  0  0  0  0  0  0  0
  146.3288   74.7602  220.4427 H   0  0  0  0  0  0  0  0  0  0  0  0
  143.8990   73.1152  221.2582 H   0  0  0  0  0  0  0  0  0  0  0  0
  144.0790   74.8735  221.2601 H   0  0  0  0  0  0  0  0  0  0  0  0
  139.2311   69.5317  222.6996 H   0  0  0  0  0  0  0  0  0  0  0  0
  138.9635   68.3716  224.9049 H   0  0  0  0  0  0  0  0  0  0  0  0
  139.3326   68.4012  227.2607 H   0  0  0  0  0  0  0  0  0  0  0  0
  140.1904   69.4723  229.3390 H   0  0  0  0  0  0  0  0  0  0  0  0
  141.3038   71.6850  229.1359 H   0  0  0  0  0  0  0  0  0  0  0  0
  141.5556   72.8164  226.9487 H   0  0  0  0  0  0  0  0  0  0  0  0
  1  2  2  0
  2  3  1  0
  3  4  1  0
  4  5  1  0
  5  6  2  0
  5  7  1  0
  7  8  1  0
  8  9  1  0
  9 10  1  0
 10 11  1  0
 11 12  1  0
 12 13  1  0
 13 14  1  0
 14 15  1  0
 15 16  1  0
 16 17  1  0
 17 18  1  0
  2 19  1  0
 19 20  2  0
 20 21  1  0
 21 22  2  0
 22 23  1  0
 23 24  2  0
 24 25  1  0
 25 26  2  0
 26 27  1  0
 27 28  2  0
 12  7  1  0
 18 13  1  0
 28 19  1  0
 27 22  1  0
  3 29  1  0
  4 30  1  0
  4 31  1  0
  8 32  1  0
  8 33  1  0
  9 34  1  0
  9 35  1  0
 10 36  1  0
 10 37  1  0
 11 38  1  0
 11 39  1  0
 12 40  1  6
 13 41  1  0
 14 42  1  0
 14 43  1  0
 15 44  1  0
 15 45  1  0
 17 46  1  0
 17 47  1  0
 18 48  1  0
 18 49  1  0
 20 50  1  0
 21 51  1  0
 23 52  1  0
 24 53  1  0
 25 54  1  0
 26 55  1  0
M  END
>  <smiles>  (56) 
O=C(NCC(=O)N1CCCCC1C1CCOCC1)c1ccc2ccccc2n1

>  <score_type>  (56) 
oracle

>  <origin>  (56) 
autodockgpu

>  <m_score__min__energy>  (56) 
-8.7699999999999996

>  <m_primary>  (56) 
energy

>  <rmsd>  (56) 
2.4215598036144357

>  <m_score__min__rmsd>  (56) 
2.4215598036144357

>  <meeko>  (56) 
{"free_energy": -8.67, "intermolecular_energy": -10.16, "internal_energy": -1.74, "cluster_size": 21, "cluster_id": 1, "rank_in_cluster": 10}

>  <energy>  (56) 
-8.71

>  <cluster_rmsd>  (56) 
0.1

>  <cluster>  (56) 
1

$$$$

     RDKit          3D

 55 58  0  0  0  0  0  0  0  0999 V2000
  141.2610   72.0230  221.5530 O   0  0  0  0  0  0  0  0  0  0  0  0
  140.4200   72.3500  222.4290 C   0  0  0  0  0  0  0  0  0  0  0  0
  139.6020   73.5100  222.3410 N   0  0  0  0  0  0  0  0  0  0  0  0
  139.7560   74.3580  221.1670 C   0  0  0  0  0  0  0  0  0  0  0  0
  139.4330   75.7240  221.5800 C   0  0  0  0  0  0  0  0  0  0  0  0
  138.5730   76.0040  222.4850 O   0  0  0  0  0  0  0  0  0  0  0  0
  140.0590   76.8940  220.9990 N   0  0  0  0  0  0  0  0  0  0  0  0
  139.2550   77.6370  220.0320 C   0  0  0  0  0  0  0  0  0  0  0  0
  140.1030   78.1040  218.9020 C   0  0  0  0  0  0  0  0  0  0  0  0
  141.4660   77.4920  218.8390 C   0  0  0  0  0  0  0  0  0  0  0  0
  142.1980   77.4290  220.1280 C   0  0  0  0  0  0  0  0  0  0  0  0
  141.4040   77.2920  221.3640 C   0  0  1  0  0  0  0  0  0  0  0  0
  141.4700   78.4640  222.2920 C   0  0  0  0  0  0  0  0  0  0  0  0
  140.1670   78.7820  222.9580 C   0  0  0  0  0  0  0  0  0  0  0  0
  140.1540   80.2160  223.4850 C   0  0  0  0  0  0  0  0  0  0  0  0
  141.4090   80.5630  223.9060 O   0  0  0  0  0  0  0  0  0  0  0  0
  142.3900   80.5940  222.9530 C   0  0  0  0  0  0  0  0  0  0  0  0
  142.0840   79.7070  221.7350 C   0  0  0  0  0  0  0  0  0  0  0  0
  140.2570   71.4990  223.6180 C   0  0  0  0  0  0  0  0  0  0  0  0
  139.6100   70.2670  223.5040 C   0  0  0  0  0  0  0  0  0  0  0  0
  139.4400   69.4380  224.6110 C   0  0  0  0  0  0  0  0  0  0  0  0
  139.9380   69.8850  225.8270 C   0  0  0  0  0  0  0  0  0  0  0  0
  139.7950   69.1010  226.9500 C   0  0  0  0  0  0  0  0  0  0  0  0
  140.2690   69.4900  228.1880 C   0  0  0  0  0  0  0  0  0  0  0  0
  140.9020   70.7160  228.2510 C   0  0  0  0  0  0  0  0  0  0  0  0
  141.0670   71.5340  227.1460 C   0  0  0  0  0  0  0  0  0  0  0  0
  140.5770   71.1030  225.9330 C   0  0  0  0  0  0  0  0  0  0  0  0
  140.7130   71.8630  224.8310 N   0  0  0  0  0  0  0  0  0  0  0  0
  138.9020   73.7630  223.0910 H   0  0  0  0  0  0  0  0  0  0  0  0
  140.7916   74.3095  220.7993 H   0  0  0  0  0  0  0  0  0  0  0  0
  139.0931   74.0268  220.3541 H   0  0  0  0  0  0  0  0  0  0  0  0
  138.4605   76.9833  219.6428 H   0  0  0  0  0  0  0  0  0  0  0  0
  138.8138   78.5117  220.5321 H   0  0  0  0  0  0  0  0  0  0  0  0
  139.5799   77.8692  217.9632 H   0  0  0  0  0  0  0  0  0  0  0  0
  140.2572   79.1818  219.0586 H   0  0  0  0  0  0  0  0  0  0  0  0
  141.3592   76.4651  218.4594 H   0  0  0  0  0  0  0  0  0  0  0  0
  142.0611   78.1467  218.1854 H   0  0  0  0  0  0  0  0  0  0  0  0
  142.8778   76.5657  220.0774 H   0  0  0  0  0  0  0  0  0  0  0  0
  142.6844   78.4115  220.2187 H   0  0  0  0  0  0  0  0  0  0  0  0
  141.8580   76.5021  221.9804 H   0  0  0  0  0  0  0  0  0  0  0  0
  142.1719   78.0999  223.0567 H   0  0  0  0  0  0  0  0  0  0  0  0
  139.3519   78.6596  222.2295 H   0  0  0  0  0  0  0  0  0  0  0  0
  140.0325   78.0964  223.8076 H   0  0  0  0  0  0  0  0  0  0  0  0
  139.8358   80.8978  222.6826 H   0  0  0  0  0  0  0  0  0  0  0  0
  139.4531   80.2878  224.3297 H   0  0  0  0  0  0  0  0  0  0  0  0
  142.5087   81.6317  222.6080 H   0  0  0  0  0  0  0  0  0  0  0  0
  143.3075   80.2037  223.4176 H   0  0  0  0  0  0  0  0  0  0  0  0
  141.3806   80.2132  221.0575 H   0  0  0  0  0  0  0  0  0  0  0  0
  142.9900   79.4887  221.1506 H   0  0  0  0  0  0  0  0  0  0  0  0
  139.2281   69.9454  222.5238 H   0  0  0  0  0  0  0  0  0  0  0  0
  138.9308   68.4668  224.5245 H   0  0  0  0  0  0  0  0  0  0  0  0
  139.2853   68.1306  226.8581 H   0  0  0  0  0  0  0  0  0  0  0  0
  140.1484   68.8555  229.0784 H   0  0  0  0  0  0  0  0  0  0  0  0
  141.2920   71.0574  229.2212 H   0  0  0  0  0  0  0  0  0  0  0  0
  141.5771   72.5045  227.2347 H   0  0  0  0  0  0  0  0  0  0  0  0
  1  2  2  0
  2  3  1  0
  3  4  1  0
  4  5  1  0
  5  6  2  0
  5  7  1  0
  7  8  1  0
  8  9  1  0
  9 10  1  0
 10 11  1  0
 11 12  1  0
 12 13  1  0
 13 14  1  0
 14 15  1  0
 15 16  1  0
 16 17  1  0
 17 18  1  0
  2 19  1  0
 19 20  2  0
 20 21  1  0
 21 22  2  0
 22 23  1  0
 23 24  2  0
 24 25  1  0
 25 26  2  0
 26 27  1  0
 27 28  2  0
 12  7  1  0
 18 13  1  0
 28 19  1  0
 27 22  1  0
  3 29  1  0
  4 30  1  0
  4 31  1  0
  8 32  1  0
  8 33  1  0
  9 34  1  0
  9 35  1  0
 10 36  1  0
 10 37  1  0
 11 38  1  0
 11 39  1  0
 12 40  1  1
 13 41  1  0
 14 42  1  0
 14 43  1  0
 15 44  1  0
 15 45  1  0
 17 46  1  0
 17 47  1  0
 18 48  1  0
 18 49  1  0
 20 50  1  0
 21 51  1  0
 23 52  1  0
 24 53  1  0
 25 54  1  0
 26 55  1  0
M  END
>  <smiles>  (57) 
O=C(NCC(=O)N1CCCCC1C1CCOCC1)c1ccc2ccccc2n1

>  <score_type>  (57) 
oracle

>  <origin>  (57) 
autodockgpu

>  <m_score__min__energy>  (57) 
-8.7699999999999996

>  <m_primary>  (57) 
energy

>  <rmsd>  (57) 
1.9581862469658025

>  <m_score__min__rmsd>  (57) 
1.9581862469658025

>  <meeko>  (57) 
{"free_energy": -8.47, "intermolecular_energy": -9.96, "internal_energy": -1.73, "cluster_size": 27, "cluster_id": 2, "rank_in_cluster": 6}

>  <energy>  (57) 
-8.71

>  <cluster_rmsd>  (57) 
0.11

>  <cluster>  (57) 
1

$$$$

     RDKit          3D

 55 58  0  0  0  0  0  0  0  0999 V2000
  141.2680   71.9540  221.4290 O   0  0  0  0  0  0  0  0  0  0  0  0
  140.5150   72.3740  222.3450 C   0  0  0  0  0  0  0  0  0  0  0  0
  139.8690   73.6400  222.3140 N   0  0  0  0  0  0  0  0  0  0  0  0
  140.0970   74.4880  221.1520 C   0  0  0  0  0  0  0  0  0  0  0  0
  139.8830   75.8700  221.5810 C   0  0  0  0  0  0  0  0  0  0  0  0
  139.3110   76.1880  222.6810 O   0  0  0  0  0  0  0  0  0  0  0  0
  140.2990   77.0140  220.7970 N   0  0  0  0  0  0  0  0  0  0  0  0
  139.2720   77.6200  219.9530 C   0  0  0  0  0  0  0  0  0  0  0  0
  139.8490   78.0280  218.6430 C   0  0  0  0  0  0  0  0  0  0  0  0
  141.2140   77.4890  218.3590 C   0  0  0  0  0  0  0  0  0  0  0  0
  142.1850   77.5840  219.4780 C   0  0  0  0  0  0  0  0  0  0  0  0
  141.6570   77.5180  220.8540 C   0  0  1  0  0  0  0  0  0  0  0  0
  141.8170   78.7720  221.6540 C   0  0  0  0  0  0  0  0  0  0  0  0
  141.4290   78.6240  223.0930 C   0  0  0  0  0  0  0  0  0  0  0  0
  141.1440   79.9840  223.7290 C   0  0  0  0  0  0  0  0  0  0  0  0
  141.9720   80.9280  223.1840 O   0  0  0  0  0  0  0  0  0  0  0  0
  141.8250   81.1760  221.8470 C   0  0  0  0  0  0  0  0  0  0  0  0
  141.2010   80.0030  221.0750 C   0  0  0  0  0  0  0  0  0  0  0  0
  140.2770   71.5250  223.5230 C   0  0  0  0  0  0  0  0  0  0  0  0
  139.6100   70.3080  223.3740 C   0  0  0  0  0  0  0  0  0  0  0  0
  139.3700   69.4800  224.4700 C   0  0  0  0  0  0  0  0  0  0  0  0
  139.8200   69.9140  225.7090 C   0  0  0  0  0  0  0  0  0  0  0  0
  139.6060   69.1310  226.8220 C   0  0  0  0  0  0  0  0  0  0  0  0
  140.0290   69.5070  228.0820 C   0  0  0  0  0  0  0  0  0  0  0  0
  140.6860   70.7190  228.1790 C   0  0  0  0  0  0  0  0  0  0  0  0
  140.9200   71.5350  227.0840 C   0  0  0  0  0  0  0  0  0  0  0  0
  140.4790   71.1170  225.8480 C   0  0  0  0  0  0  0  0  0  0  0  0
  140.6840   71.8770  224.7570 N   0  0  0  0  0  0  0  0  0  0  0  0
  139.2400   73.9700  223.0970 H   0  0  0  0  0  0  0  0  0  0  0  0
  141.1273   74.3609  220.7881 H   0  0  0  0  0  0  0  0  0  0  0  0
  139.4136   74.2217  220.3322 H   0  0  0  0  0  0  0  0  0  0  0  0
  138.4665   76.8905  219.7825 H   0  0  0  0  0  0  0  0  0  0  0  0
  138.8746   78.5115  220.4603 H   0  0  0  0  0  0  0  0  0  0  0  0
  139.1724   77.6797  217.8487 H   0  0  0  0  0  0  0  0  0  0  0  0
  139.9520   79.1225  218.6798 H   0  0  0  0  0  0  0  0  0  0  0  0
  141.1099   76.4275  218.0901 H   0  0  0  0  0  0  0  0  0  0  0  0
  141.6228   78.1135  217.5510 H   0  0  0  0  0  0  0  0  0  0  0  0
  142.9017   76.7577  219.3616 H   0  0  0  0  0  0  0  0  0  0  0  0
  142.6089   78.5954  219.3920 H   0  0  0  0  0  0  0  0  0  0  0  0
  142.2773   76.8145  221.4287 H   0  0  0  0  0  0  0  0  0  0  0  0
  142.9044   78.9294  221.6005 H   0  0  0  0  0  0  0  0  0  0  0  0
  140.5254   78.0001  223.1591 H   0  0  0  0  0  0  0  0  0  0  0  0
  142.2639   78.1539  223.6333 H   0  0  0  0  0  0  0  0  0  0  0  0
  140.0967   80.2635  223.5417 H   0  0  0  0  0  0  0  0  0  0  0  0
  141.3209   79.9248  224.8131 H   0  0  0  0  0  0  0  0  0  0  0  0
  141.1785   82.0575  221.7247 H   0  0  0  0  0  0  0  0  0  0  0  0
  142.8314   81.3387  221.4338 H   0  0  0  0  0  0  0  0  0  0  0  0
  140.1099   79.9886  221.2135 H   0  0  0  0  0  0  0  0  0  0  0  0
  141.3856   80.0819  219.9935 H   0  0  0  0  0  0  0  0  0  0  0  0
  139.2681   69.9970  222.3758 H   0  0  0  0  0  0  0  0  0  0  0  0
  138.8445   68.5203  224.3569 H   0  0  0  0  0  0  0  0  0  0  0  0
  139.0797   68.1724  226.7031 H   0  0  0  0  0  0  0  0  0  0  0  0
  139.8519   68.8737  228.9638 H   0  0  0  0  0  0  0  0  0  0  0  0
  141.0380   71.0498  229.1673 H   0  0  0  0  0  0  0  0  0  0  0  0
  141.4457   72.4944  227.1991 H   0  0  0  0  0  0  0  0  0  0  0  0
  1  2  2  0
  2  3  1  0
  3  4  1  0
  4  5  1  0
  5  6  2  0
  5  7  1  0
  7  8  1  0
  8  9  1  0
  9 10  1  0
 10 11  1  0
 11 12  1  0
 12 13  1  0
 13 14  1  0
 14 15  1  0
 15 16  1  0
 16 17  1  0
 17 18  1  0
  2 19  1  0
 19 20  2  0
 20 21  1  0
 21 22  2  0
 22 23  1  0
 23 24  2  0
 24 25  1  0
 25 26  2  0
 26 27  1  0
 27 28  2  0
 12  7  1  0
 18 13  1  0
 28 19  1  0
 27 22  1  0
  3 29  1  0
  4 30  1  0
  4 31  1  0
  8 32  1  0
  8 33  1  0
  9 34  1  0
  9 35  1  0
 10 36  1  0
 10 37  1  0
 11 38  1  0
 11 39  1  0
 12 40  1  1
 13 41  1  0
 14 42  1  0
 14 43  1  0
 15 44  1  0
 15 45  1  0
 17 46  1  0
 17 47  1  0
 18 48  1  0
 18 49  1  0
 20 50  1  0
 21 51  1  0
 23 52  1  0
 24 53  1  0
 25 54  1  0
 26 55  1  0
M  END
>  <smiles>  (58) 
O=C(NCC(=O)N1CCCCC1C1CCOCC1)c1ccc2ccccc2n1

>  <score_type>  (58) 
oracle

>  <origin>  (58) 
autodockgpu

>  <m_score__min__energy>  (58) 
-8.7699999999999996

>  <m_primary>  (58) 
energy

>  <rmsd>  (58) 
1.908627971862734

>  <m_score__min__rmsd>  (58) 
1.908627971862734

>  <meeko>  (58) 
{"free_energy": -8.36, "intermolecular_energy": -9.85, "internal_energy": -1.82, "cluster_size": 27, "cluster_id": 2, "rank_in_cluster": 16}

>  <energy>  (58) 
-8.7

>  <cluster_rmsd>  (58) 
0.18

>  <cluster>  (58) 
1

$$$$

     RDKit          3D

 55 58  0  0  0  0  0  0  0  0999 V2000
  141.4560   71.8110  221.5970 O   0  0  0  0  0  0  0  0  0  0  0  0
  140.6610   72.2800  222.4520 C   0  0  0  0  0  0  0  0  0  0  0  0
  140.0430   73.5560  222.3370 N   0  0  0  0  0  0  0  0  0  0  0  0
  140.3550   74.3540  221.1590 C   0  0  0  0  0  0  0  0  0  0  0  0
  139.7190   75.6590  221.3460 C   0  0  0  0  0  0  0  0  0  0  0  0
  138.7440   75.8610  222.1500 O   0  0  0  0  0  0  0  0  0  0  0  0
  140.1330   76.8480  220.6320 N   0  0  0  0  0  0  0  0  0  0  0  0
  139.2030   77.3470  219.6210 C   0  0  0  0  0  0  0  0  0  0  0  0
  139.9440   77.8270  218.4240 C   0  0  0  0  0  0  0  0  0  0  0  0
  141.3890   77.4430  218.3790 C   0  0  0  0  0  0  0  0  0  0  0  0
  142.1410   77.6330  219.6440 C   0  0  0  0  0  0  0  0  0  0  0  0
  141.3990   77.4970  220.9120 C   0  0  1  0  0  0  0  0  0  0  0  0
  141.2840   78.7530  221.7160 C   0  0  0  0  0  0  0  0  0  0  0  0
  141.8340   79.9640  221.0280 C   0  0  0  0  0  0  0  0  0  0  0  0
  142.1380   81.0770  222.0310 C   0  0  0  0  0  0  0  0  0  0  0  0
  141.2230   81.0420  223.0470 O   0  0  0  0  0  0  0  0  0  0  0  0
  141.2120   79.9180  223.8270 C   0  0  0  0  0  0  0  0  0  0  0  0
  141.7880   78.6810  223.1210 C   0  0  0  0  0  0  0  0  0  0  0  0
  140.3390   71.4810  223.6450 C   0  0  0  0  0  0  0  0  0  0  0  0
  139.6330   70.2850  223.5060 C   0  0  0  0  0  0  0  0  0  0  0  0
  139.3130   69.5040  224.6160 C   0  0  0  0  0  0  0  0  0  0  0  0
  139.7230   69.9630  225.8600 C   0  0  0  0  0  0  0  0  0  0  0  0
  139.4310   69.2270  226.9860 C   0  0  0  0  0  0  0  0  0  0  0  0
  139.8120   69.6310  228.2510 C   0  0  0  0  0  0  0  0  0  0  0  0
  140.5090   70.8210  228.3380 C   0  0  0  0  0  0  0  0  0  0  0  0
  140.8220   71.5900  227.2300 C   0  0  0  0  0  0  0  0  0  0  0  0
  140.4210   71.1460  225.9890 C   0  0  0  0  0  0  0  0  0  0  0  0
  140.7030   71.8600  224.8840 N   0  0  0  0  0  0  0  0  0  0  0  0
  139.3780   73.9270  223.0700 H   0  0  0  0  0  0  0  0  0  0  0  0
  141.4440   74.4748  221.0621 H   0  0  0  0  0  0  0  0  0  0  0  0
  139.9872   73.8652  220.2448 H   0  0  0  0  0  0  0  0  0  0  0  0
  138.5217   76.5360  219.3240 H   0  0  0  0  0  0  0  0  0  0  0  0
  138.6316   78.1855  220.0458 H   0  0  0  0  0  0  0  0  0  0  0  0
  139.4532   77.4139  217.5305 H   0  0  0  0  0  0  0  0  0  0  0  0
  139.9191   78.9259  218.4673 H   0  0  0  0  0  0  0  0  0  0  0  0
  141.4484   76.3790  218.1062 H   0  0  0  0  0  0  0  0  0  0  0  0
  141.8573   78.1161  217.6457 H   0  0  0  0  0  0  0  0  0  0  0  0
  142.9530   76.8910  219.6577 H   0  0  0  0  0  0  0  0  0  0  0  0
  142.4604   78.6854  219.6212 H   0  0  0  0  0  0  0  0  0  0  0  0
  141.9870   76.8601  221.5892 H   0  0  0  0  0  0  0  0  0  0  0  0
  140.1925   78.8636  221.7954 H   0  0  0  0  0  0  0  0  0  0  0  0
  142.7615   79.6893  220.5043 H   0  0  0  0  0  0  0  0  0  0  0  0
  141.0817   80.3324  220.3151 H   0  0  0  0  0  0  0  0  0  0  0  0
  143.1478   80.9329  222.4427 H   0  0  0  0  0  0  0  0  0  0  0  0
  142.0827   82.0512  221.5232 H   0  0  0  0  0  0  0  0  0  0  0  0
  141.8090   80.1140  224.7298 H   0  0  0  0  0  0  0  0  0  0  0  0
  140.1608   79.6971  224.0642 H   0  0  0  0  0  0  0  0  0  0  0  0
  142.8876   78.7064  223.1369 H   0  0  0  0  0  0  0  0  0  0  0  0
  141.4820   77.7482  223.6172 H   0  0  0  0  0  0  0  0  0  0  0  0
  139.3238   69.9529  222.5039 H   0  0  0  0  0  0  0  0  0  0  0  0
  138.7572   68.5607  224.5098 H   0  0  0  0  0  0  0  0  0  0  0  0
  138.8750   68.2844  226.8747 H   0  0  0  0  0  0  0  0  0  0  0  0
  139.5725   69.0353  229.1442 H   0  0  0  0  0  0  0  0  0  0  0  0
  140.8289   71.1724  229.3301 H   0  0  0  0  0  0  0  0  0  0  0  0
  141.3777   72.5331  227.3380 H   0  0  0  0  0  0  0  0  0  0  0  0
  1  2  2  0
  2  3  1  0
  3  4  1  0
  4  5  1  0
  5  6  2  0
  5  7  1  0
  7  8  1  0
  8  9  1  0
  9 10  1  0
 10 11  1  0
 11 12  1  0
 12 13  1  0
 13 14  1  0
 14 15  1  0
 15 16  1  0
 16 17  1  0
 17 18  1  0
  2 19  1  0
 19 20  2  0
 20 21  1  0
 21 22  2  0
 22 23  1  0
 23 24  2  0
 24 25  1  0
 25 26  2  0
 26 27  1  0
 27 28  2  0
 12  7  1  0
 18 13  1  0
 28 19  1  0
 27 22  1  0
  3 29  1  0
  4 30  1  0
  4 31  1  0
  8 32  1  0
  8 33  1  0
  9 34  1  0
  9 35  1  0
 10 36  1  0
 10 37  1  0
 11 38  1  0
 11 39  1  0
 12 40  1  1
 13 41  1  0
 14 42  1  0
 14 43  1  0
 15 44  1  0
 15 45  1  0
 17 46  1  0
 17 47  1  0
 18 48  1  0
 18 49  1  0
 20 50  1  0
 21 51  1  0
 23 52  1  0
 24 53  1  0
 25 54  1  0
 26 55  1  0
M  END
>  <smiles>  (59) 
O=C(NCC(=O)N1CCCCC1C1CCOCC1)c1ccc2ccccc2n1

>  <score_type>  (59) 
oracle

>  <origin>  (59) 
autodockgpu

>  <m_score__min__energy>  (59) 
-8.7699999999999996

>  <m_primary>  (59) 
energy

>  <rmsd>  (59) 
1.8957305131911502

>  <m_score__min__rmsd>  (59) 
1.8957305131911502

>  <meeko>  (59) 
{"free_energy": -8.15, "intermolecular_energy": -9.65, "internal_energy": -1.8, "cluster_size": 27, "cluster_id": 2, "rank_in_cluster": 23}

>  <energy>  (59) 
-8.7

>  <cluster_rmsd>  (59) 
0.2

>  <cluster>  (59) 
1

$$$$

     RDKit          3D

 55 58  0  0  0  0  0  0  0  0999 V2000
  141.3920   72.1570  221.5710 O   0  0  0  0  0  0  0  0  0  0  0  0
  140.5240   72.4820  222.4220 C   0  0  0  0  0  0  0  0  0  0  0  0
  139.7530   73.6740  222.3440 N   0  0  0  0  0  0  0  0  0  0  0  0
  139.9890   74.5590  221.2110 C   0  0  0  0  0  0  0  0  0  0  0  0
  139.7020   75.9200  221.6640 C   0  0  0  0  0  0  0  0  0  0  0  0
  139.0280   76.1870  222.7190 O   0  0  0  0  0  0  0  0  0  0  0  0
  140.1550   77.1000  220.9560 N   0  0  0  0  0  0  0  0  0  0  0  0
  139.2580   77.6100  219.9220 C   0  0  0  0  0  0  0  0  0  0  0  0
  140.0360   78.0730  218.7410 C   0  0  0  0  0  0  0  0  0  0  0  0
  141.4740   77.6640  218.7320 C   0  0  0  0  0  0  0  0  0  0  0  0
  142.1990   77.8460  220.0150 C   0  0  0  0  0  0  0  0  0  0  0  0
  141.4240   77.7280  221.2650 C   0  0  1  0  0  0  0  0  0  0  0  0
  141.3120   78.9890  222.0620 C   0  0  0  0  0  0  0  0  0  0  0  0
  142.6100   79.4510  222.6480 C   0  0  0  0  0  0  0  0  0  0  0  0
  142.3760   80.4160  223.8100 C   0  0  0  0  0  0  0  0  0  0  0  0
  141.2600   81.1680  223.5650 O   0  0  0  0  0  0  0  0  0  0  0  0
  140.0710   80.4960  223.4800 C   0  0  0  0  0  0  0  0  0  0  0  0
  140.2360   79.0160  223.0980 C   0  0  0  0  0  0  0  0  0  0  0  0
  140.2780   71.5940  223.5690 C   0  0  0  0  0  0  0  0  0  0  0  0
  139.5940   70.3930  223.3800 C   0  0  0  0  0  0  0  0  0  0  0  0
  139.3450   69.5300  224.4450 C   0  0  0  0  0  0  0  0  0  0  0  0
  139.8050   69.9120  225.6980 C   0  0  0  0  0  0  0  0  0  0  0  0
  139.5840   69.0920  226.7830 C   0  0  0  0  0  0  0  0  0  0  0  0
  140.0150   69.4180  228.0540 C   0  0  0  0  0  0  0  0  0  0  0  0
  140.6890   70.6160  228.1920 C   0  0  0  0  0  0  0  0  0  0  0  0
  140.9310   71.4680  227.1270 C   0  0  0  0  0  0  0  0  0  0  0  0
  140.4810   71.1010  225.8780 C   0  0  0  0  0  0  0  0  0  0  0  0
  140.6930   71.8960  224.8130 N   0  0  0  0  0  0  0  0  0  0  0  0
  139.0290   73.9250  223.0720 H   0  0  0  0  0  0  0  0  0  0  0  0
  141.0365   74.4828  220.8839 H   0  0  0  0  0  0  0  0  0  0  0  0
  139.3486   74.2856  220.3594 H   0  0  0  0  0  0  0  0  0  0  0  0
  138.5706   76.8093  219.6117 H   0  0  0  0  0  0  0  0  0  0  0  0
  138.6903   78.4593  220.3300 H   0  0  0  0  0  0  0  0  0  0  0  0
  139.5596   77.6652  217.8373 H   0  0  0  0  0  0  0  0  0  0  0  0
  140.0292   79.1723  218.7801 H   0  0  0  0  0  0  0  0  0  0  0  0
  141.5214   76.5981  218.4643 H   0  0  0  0  0  0  0  0  0  0  0  0
  141.9714   78.3259  218.0078 H   0  0  0  0  0  0  0  0  0  0  0  0
  142.9972   77.0900  220.0511 H   0  0  0  0  0  0  0  0  0  0  0  0
  142.5375   78.8924  219.9963 H   0  0  0  0  0  0  0  0  0  0  0  0
  141.9835   77.0838  221.9592 H   0  0  0  0  0  0  0  0  0  0  0  0
  141.0026   79.7100  221.2910 H   0  0  0  0  0  0  0  0  0  0  0  0
  143.1704   78.5778  223.0133 H   0  0  0  0  0  0  0  0  0  0  0  0
  143.1791   79.9760  221.8667 H   0  0  0  0  0  0  0  0  0  0  0  0
  142.2349   79.8434  224.7385 H   0  0  0  0  0  0  0  0  0  0  0  0
  143.2473   81.0792  223.9149 H   0  0  0  0  0  0  0  0  0  0  0  0
  139.5682   80.5507  224.4568 H   0  0  0  0  0  0  0  0  0  0  0  0
  139.4820   80.9747  222.6838 H   0  0  0  0  0  0  0  0  0  0  0  0
  140.5325   78.4231  223.9758 H   0  0  0  0  0  0  0  0  0  0  0  0
  139.2966   78.5842  222.7223 H   0  0  0  0  0  0  0  0  0  0  0  0
  139.2451   70.1226  222.3724 H   0  0  0  0  0  0  0  0  0  0  0  0
  138.8050   68.5829  224.2988 H   0  0  0  0  0  0  0  0  0  0  0  0
  139.0456   68.1448  226.6317 H   0  0  0  0  0  0  0  0  0  0  0  0
  139.8308   68.7567  228.9135 H   0  0  0  0  0  0  0  0  0  0  0  0
  141.0489   70.9057  229.1903 H   0  0  0  0  0  0  0  0  0  0  0  0
  141.4699   72.4154  227.2752 H   0  0  0  0  0  0  0  0  0  0  0  0
  1  2  2  0
  2  3  1  0
  3  4  1  0
  4  5  1  0
  5  6  2  0
  5  7  1  0
  7  8  1  0
  8  9  1  0
  9 10  1  0
 10 11  1  0
 11 12  1  0
 12 13  1  0
 13 14  1  0
 14 15  1  0
 15 16  1  0
 16 17  1  0
 17 18  1  0
  2 19  1  0
 19 20  2  0
 20 21  1  0
 21 22  2  0
 22 23  1  0
 23 24  2  0
 24 25  1  0
 25 26  2  0
 26 27  1  0
 27 28  2  0
 12  7  1  0
 18 13  1  0
 28 19  1  0
 27 22  1  0
  3 29  1  0
  4 30  1  0
  4 31  1  0
  8 32  1  0
  8 33  1  0
  9 34  1  0
  9 35  1  0
 10 36  1  0
 10 37  1  0
 11 38  1  0
 11 39  1  0
 12 40  1  1
 13 41  1  0
 14 42  1  0
 14 43  1  0
 15 44  1  0
 15 45  1  0
 17 46  1  0
 17 47  1  0
 18 48  1  0
 18 49  1  0
 20 50  1  0
 21 51  1  0
 23 52  1  0
 24 53  1  0
 25 54  1  0
 26 55  1  0
M  END
>  <smiles>  (60) 
O=C(NCC(=O)N1CCCCC1C1CCOCC1)c1ccc2ccccc2n1

>  <score_type>  (60) 
oracle

>  <origin>  (60) 
autodockgpu

>  <m_score__min__energy>  (60) 
-8.7699999999999996

>  <m_primary>  (60) 
energy

>  <rmsd>  (60) 
1.99223705100476

>  <m_score__min__rmsd>  (60) 
1.99223705100476

>  <meeko>  (60) 
{"free_energy": -8.6, "intermolecular_energy": -10.09, "internal_energy": -1.75, "cluster_size": 27, "cluster_id": 2, "rank_in_cluster": 2}

>  <energy>  (60) 
-8.67

>  <cluster_rmsd>  (60) 
0.2

>  <cluster>  (60) 
1

$$$$

     RDKit          3D

 55 58  0  0  0  0  0  0  0  0999 V2000
  140.8300   71.4260  221.3030 O   0  0  0  0  0  0  0  0  0  0  0  0
  140.3560   72.0330  222.2970 C   0  0  0  0  0  0  0  0  0  0  0  0
  139.9300   73.3890  222.2610 N   0  0  0  0  0  0  0  0  0  0  0  0
  140.0540   74.1040  220.9970 C   0  0  0  0  0  0  0  0  0  0  0  0
  141.1490   75.0620  221.1530 C   0  0  0  0  0  0  0  0  0  0  0  0
  141.3840   75.6960  222.2380 O   0  0  0  0  0  0  0  0  0  0  0  0
  142.0730   75.3840  220.0850 N   0  0  0  0  0  0  0  0  0  0  0  0
  142.5270   76.7710  220.0270 C   0  0  0  0  0  0  0  0  0  0  0  0
  142.6120   77.2320  218.6150 C   0  0  0  0  0  0  0  0  0  0  0  0
  141.9610   76.3300  217.6160 C   0  0  0  0  0  0  0  0  0  0  0  0
  142.2540   74.8830  217.7750 C   0  0  0  0  0  0  0  0  0  0  0  0
  142.5140   74.3800  219.1370 C   0  0  1  0  0  0  0  0  0  0  0  0
  143.9040   73.8780  219.3710 C   0  0  0  0  0  0  0  0  0  0  0  0
  144.1830   72.5520  218.7320 C   0  0  0  0  0  0  0  0  0  0  0  0
  145.3890   71.8720  219.3800 C   0  0  0  0  0  0  0  0  0  0  0  0
  146.2990   72.8190  219.7620 O   0  0  0  0  0  0  0  0  0  0  0  0
  145.8960   73.7090  220.7200 C   0  0  0  0  0  0  0  0  0  0  0  0
  144.3710   73.8780  220.7900 C   0  0  0  0  0  0  0  0  0  0  0  0
  140.2260   71.3200  223.5770 C   0  0  0  0  0  0  0  0  0  0  0  0
  139.6190   70.0630  223.6110 C   0  0  0  0  0  0  0  0  0  0  0  0
  139.4810   69.3620  224.8070 C   0  0  0  0  0  0  0  0  0  0  0  0
  139.9710   69.9610  225.9590 C   0  0  0  0  0  0  0  0  0  0  0  0
  139.8580   69.3070  227.1660 C   0  0  0  0  0  0  0  0  0  0  0  0
  140.3250   69.8500  228.3470 C   0  0  0  0  0  0  0  0  0  0  0  0
  140.9190   71.0950  228.2630 C   0  0  0  0  0  0  0  0  0  0  0  0
  141.0520   71.7850  227.0700 C   0  0  0  0  0  0  0  0  0  0  0  0
  140.5700   71.2020  225.9190 C   0  0  0  0  0  0  0  0  0  0  0  0
  140.6770   71.8350  224.7360 N   0  0  0  0  0  0  0  0  0  0  0  0
  139.5340   73.8780  223.1110 H   0  0  0  0  0  0  0  0  0  0  0  0
  140.2823   73.3983  220.1846 H   0  0  0  0  0  0  0  0  0  0  0  0
  139.1154   74.6185  220.7433 H   0  0  0  0  0  0  0  0  0  0  0  0
  141.8161   77.4079  220.5737 H   0  0  0  0  0  0  0  0  0  0  0  0
  143.5252   76.8384  220.4843 H   0  0  0  0  0  0  0  0  0  0  0  0
  142.1306   78.2188  218.5486 H   0  0  0  0  0  0  0  0  0  0  0  0
  143.6822   77.2505  218.3613 H   0  0  0  0  0  0  0  0  0  0  0  0
  140.8723   76.4661  217.6953 H   0  0  0  0  0  0  0  0  0  0  0  0
  142.3734   76.6159  216.6371 H   0  0  0  0  0  0  0  0  0  0  0  0
  141.3906   74.3279  217.3794 H   0  0  0  0  0  0  0  0  0  0  0  0
  143.2019   74.7314  217.2379 H   0  0  0  0  0  0  0  0  0  0  0  0
  141.9249   73.4630  219.2854 H   0  0  0  0  0  0  0  0  0  0  0  0
  144.5041   74.6447  218.8591 H   0  0  0  0  0  0  0  0  0  0  0  0
  143.3009   71.9050  218.8471 H   0  0  0  0  0  0  0  0  0  0  0  0
  144.4051   72.7169  217.6673 H   0  0  0  0  0  0  0  0  0  0  0  0
  145.0589   71.3044  220.2625 H   0  0  0  0  0  0  0  0  0  0  0  0
  145.8556   71.1880  218.6559 H   0  0  0  0  0  0  0  0  0  0  0  0
  146.2531   73.3545  221.6981 H   0  0  0  0  0  0  0  0  0  0  0  0
  146.3202   74.6883  220.4536 H   0  0  0  0  0  0  0  0  0  0  0  0
  143.9167   73.0434  221.3442 H   0  0  0  0  0  0  0  0  0  0  0  0
  144.0864   74.8028  221.3133 H   0  0  0  0  0  0  0  0  0  0  0  0
  139.2434   69.6186  222.6775 H   0  0  0  0  0  0  0  0  0  0  0  0
  139.0022   68.3721  224.8371 H   0  0  0  0  0  0  0  0  0  0  0  0
  139.3788   68.3171  227.1902 H   0  0  0  0  0  0  0  0  0  0  0  0
  140.2290   69.3187  229.3054 H   0  0  0  0  0  0  0  0  0  0  0  0
  141.3029   71.5579  229.1841 H   0  0  0  0  0  0  0  0  0  0  0  0
  141.5310   72.7748  227.0421 H   0  0  0  0  0  0  0  0  0  0  0  0
  1  2  2  0
  2  3  1  0
  3  4  1  0
  4  5  1  0
  5  6  2  0
  5  7  1  0
  7  8  1  0
  8  9  1  0
  9 10  1  0
 10 11  1  0
 11 12  1  0
 12 13  1  0
 13 14  1  0
 14 15  1  0
 15 16  1  0
 16 17  1  0
 17 18  1  0
  2 19  1  0
 19 20  2  0
 20 21  1  0
 21 22  2  0
 22 23  1  0
 23 24  2  0
 24 25  1  0
 25 26  2  0
 26 27  1  0
 27 28  2  0
 12  7  1  0
 18 13  1  0
 28 19  1  0
 27 22  1  0
  3 29  1  0
  4 30  1  0
  4 31  1  0
  8 32  1  0
  8 33  1  0
  9 34  1  0
  9 35  1  0
 10 36  1  0
 10 37  1  0
 11 38  1  0
 11 39  1  0
 12 40  1  1
 13 41  1  0
 14 42  1  0
 14 43  1  0
 15 44  1  0
 15 45  1  0
 17 46  1  0
 17 47  1  0
 18 48  1  0
 18 49  1  0
 20 50  1  0
 21 51  1  0
 23 52  1  0
 24 53  1  0
 25 54  1  0
 26 55  1  0
M  END
>  <smiles>  (61) 
O=C(NCC(=O)N1CCCCC1C1CCOCC1)c1ccc2ccccc2n1

>  <score_type>  (61) 
oracle

>  <origin>  (61) 
autodockgpu

>  <m_score__min__energy>  (61) 
-8.7699999999999996

>  <m_primary>  (61) 
energy

>  <rmsd>  (61) 
2.4096771084790936

>  <m_score__min__rmsd>  (61) 
2.4096771084790936

>  <meeko>  (61) 
{"free_energy": -8.7, "intermolecular_energy": -10.19, "internal_energy": -1.71, "cluster_size": 21, "cluster_id": 1, "rank_in_cluster": 9}

>  <energy>  (61) 
-8.66

>  <cluster_rmsd>  (61) 
0.21

>  <cluster>  (61) 
1

$$$$

     RDKit          3D

 55 58  0  0  0  0  0  0  0  0999 V2000
  141.4010   72.0980  221.5610 O   0  0  0  0  0  0  0  0  0  0  0  0
  140.5510   72.4520  222.4170 C   0  0  0  0  0  0  0  0  0  0  0  0
  139.8220   73.6710  222.3460 N   0  0  0  0  0  0  0  0  0  0  0  0
  140.0820   74.5490  221.2140 C   0  0  0  0  0  0  0  0  0  0  0  0
  139.7170   75.9040  221.6300 C   0  0  0  0  0  0  0  0  0  0  0  0
  138.9790   76.1570  222.6430 O   0  0  0  0  0  0  0  0  0  0  0  0
  140.1590   77.0910  220.9280 N   0  0  0  0  0  0  0  0  0  0  0  0
  139.2550   77.6020  219.9000 C   0  0  0  0  0  0  0  0  0  0  0  0
  140.0250   78.0770  218.7190 C   0  0  0  0  0  0  0  0  0  0  0  0
  141.4660   77.6780  218.7030 C   0  0  0  0  0  0  0  0  0  0  0  0
  142.1940   77.8580  219.9840 C   0  0  0  0  0  0  0  0  0  0  0  0
  141.4250   77.7260  221.2350 C   0  0  1  0  0  0  0  0  0  0  0  0
  141.3070   78.9810  222.0410 C   0  0  0  0  0  0  0  0  0  0  0  0
  142.6040   79.4480  222.6270 C   0  0  0  0  0  0  0  0  0  0  0  0
  142.3670   80.4040  223.7960 C   0  0  0  0  0  0  0  0  0  0  0  0
  141.2450   81.1500  223.5590 O   0  0  0  0  0  0  0  0  0  0  0  0
  140.0610   80.4710  223.4720 C   0  0  0  0  0  0  0  0  0  0  0  0
  140.2340   78.9950  223.0800 C   0  0  0  0  0  0  0  0  0  0  0  0
  140.2800   71.5720  223.5640 C   0  0  0  0  0  0  0  0  0  0  0  0
  139.6020   70.3680  223.3670 C   0  0  0  0  0  0  0  0  0  0  0  0
  139.3310   69.5110  224.4330 C   0  0  0  0  0  0  0  0  0  0  0  0
  139.7610   69.9020  225.6930 C   0  0  0  0  0  0  0  0  0  0  0  0
  139.5170   69.0890  226.7770 C   0  0  0  0  0  0  0  0  0  0  0  0
  139.9200   69.4230  228.0560 C   0  0  0  0  0  0  0  0  0  0  0  0
  140.5880   70.6230  228.2010 C   0  0  0  0  0  0  0  0  0  0  0  0
  140.8530   71.4680  227.1370 C   0  0  0  0  0  0  0  0  0  0  0  0
  140.4310   71.0930  225.8800 C   0  0  0  0  0  0  0  0  0  0  0  0
  140.6670   71.8820  224.8160 N   0  0  0  0  0  0  0  0  0  0  0  0
  139.1120   73.9460  223.0790 H   0  0  0  0  0  0  0  0  0  0  0  0
  141.1476   74.5111  220.9436 H   0  0  0  0  0  0  0  0  0  0  0  0
  139.4990   74.2382  220.3345 H   0  0  0  0  0  0  0  0  0  0  0  0
  138.5713   76.7990  219.5874 H   0  0  0  0  0  0  0  0  0  0  0  0
  138.6841   78.4455  220.3154 H   0  0  0  0  0  0  0  0  0  0  0  0
  139.5482   77.6708  217.8147 H   0  0  0  0  0  0  0  0  0  0  0  0
  140.0104   79.1760  218.7638 H   0  0  0  0  0  0  0  0  0  0  0  0
  141.5198   76.6139  218.4294 H   0  0  0  0  0  0  0  0  0  0  0  0
  141.9563   78.3473  217.9808 H   0  0  0  0  0  0  0  0  0  0  0  0
  142.9985   77.1084  220.0125 H   0  0  0  0  0  0  0  0  0  0  0  0
  142.5240   78.9072  219.9705 H   0  0  0  0  0  0  0  0  0  0  0  0
  141.9923   77.0806  221.9218 H   0  0  0  0  0  0  0  0  0  0  0  0
  140.9907   79.7044  221.2751 H   0  0  0  0  0  0  0  0  0  0  0  0
  143.1710   78.5761  222.9852 H   0  0  0  0  0  0  0  0  0  0  0  0
  143.1674   79.9820  221.8476 H   0  0  0  0  0  0  0  0  0  0  0  0
  142.2325   79.8245  224.7213 H   0  0  0  0  0  0  0  0  0  0  0  0
  143.2341   81.0724  223.9027 H   0  0  0  0  0  0  0  0  0  0  0  0
  139.5600   80.5160  224.4503 H   0  0  0  0  0  0  0  0  0  0  0  0
  139.4676   80.9510  222.6799 H   0  0  0  0  0  0  0  0  0  0  0  0
  140.5366   78.3983  223.9532 H   0  0  0  0  0  0  0  0  0  0  0  0
  139.2962   78.5601  222.7040 H   0  0  0  0  0  0  0  0  0  0  0  0
  139.2760   70.0905  222.3537 H   0  0  0  0  0  0  0  0  0  0  0  0
  138.7969   68.5615  224.2809 H   0  0  0  0  0  0  0  0  0  0  0  0
  138.9826   68.1405  226.6195 H   0  0  0  0  0  0  0  0  0  0  0  0
  139.7189   68.7662  228.9152 H   0  0  0  0  0  0  0  0  0  0  0  0
  140.9240   70.9202  229.2054 H   0  0  0  0  0  0  0  0  0  0  0  0
  141.3880   72.4167  227.2914 H   0  0  0  0  0  0  0  0  0  0  0  0
  1  2  2  0
  2  3  1  0
  3  4  1  0
  4  5  1  0
  5  6  2  0
  5  7  1  0
  7  8  1  0
  8  9  1  0
  9 10  1  0
 10 11  1  0
 11 12  1  0
 12 13  1  0
 13 14  1  0
 14 15  1  0
 15 16  1  0
 16 17  1  0
 17 18  1  0
  2 19  1  0
 19 20  2  0
 20 21  1  0
 21 22  2  0
 22 23  1  0
 23 24  2  0
 24 25  1  0
 25 26  2  0
 26 27  1  0
 27 28  2  0
 12  7  1  0
 18 13  1  0
 28 19  1  0
 27 22  1  0
  3 29  1  0
  4 30  1  0
  4 31  1  0
  8 32  1  0
  8 33  1  0
  9 34  1  0
  9 35  1  0
 10 36  1  0
 10 37  1  0
 11 38  1  0
 11 39  1  0
 12 40  1  1
 13 41  1  0
 14 42  1  0
 14 43  1  0
 15 44  1  0
 15 45  1  0
 17 46  1  0
 17 47  1  0
 18 48  1  0
 18 49  1  0
 20 50  1  0
 21 51  1  0
 23 52  1  0
 24 53  1  0
 25 54  1  0
 26 55  1  0
M  END
>  <smiles>  (62) 
O=C(NCC(=O)N1CCCCC1C1CCOCC1)c1ccc2ccccc2n1

>  <score_type>  (62) 
oracle

>  <origin>  (62) 
autodockgpu

>  <m_score__min__energy>  (62) 
-8.7699999999999996

>  <m_primary>  (62) 
energy

>  <rmsd>  (62) 
1.9958947398583242

>  <m_score__min__rmsd>  (62) 
1.9958947398583242

>  <meeko>  (62) 
{"free_energy": -8.54, "intermolecular_energy": -10.04, "internal_energy": -1.79, "cluster_size": 27, "cluster_id": 2, "rank_in_cluster": 4}

>  <energy>  (62) 
-8.62

>  <cluster_rmsd>  (62) 
0.31

>  <cluster>  (62) 
1

$$$$

     RDKit          3D

 55 58  0  0  0  0  0  0  0  0999 V2000
  141.0350   71.9390  221.3680 O   0  0  0  0  0  0  0  0  0  0  0  0
  140.3790   72.3760  222.3490 C   0  0  0  0  0  0  0  0  0  0  0  0
  139.7730   73.6620  222.3810 N   0  0  0  0  0  0  0  0  0  0  0  0
  139.9280   74.5110  221.2080 C   0  0  0  0  0  0  0  0  0  0  0  0
  139.6310   75.8810  221.6290 C   0  0  0  0  0  0  0  0  0  0  0  0
  138.9170   76.1670  222.6510 O   0  0  0  0  0  0  0  0  0  0  0  0
  140.1180   77.0470  220.9220 N   0  0  0  0  0  0  0  0  0  0  0  0
  139.2570   77.5590  219.8580 C   0  0  0  0  0  0  0  0  0  0  0  0
  140.0740   77.9990  218.6950 C   0  0  0  0  0  0  0  0  0  0  0  0
  141.5060   77.5710  218.7300 C   0  0  0  0  0  0  0  0  0  0  0  0
  142.1970   77.7570  220.0310 C   0  0  0  0  0  0  0  0  0  0  0  0
  141.3870   77.6610  221.2590 C   0  0  1  0  0  0  0  0  0  0  0  0
  141.2700   78.9320  222.0410 C   0  0  0  0  0  0  0  0  0  0  0  0
  142.5790   79.4550  222.5450 C   0  0  0  0  0  0  0  0  0  0  0  0
  142.3730   80.4310  223.7030 C   0  0  0  0  0  0  0  0  0  0  0  0
  141.2160   81.1350  223.5080 O   0  0  0  0  0  0  0  0  0  0  0  0
  140.0520   80.4160  223.5010 C   0  0  0  0  0  0  0  0  0  0  0  0
  140.2530   78.9380  223.1350 C   0  0  0  0  0  0  0  0  0  0  0  0
  140.2170   71.5250  223.5380 C   0  0  0  0  0  0  0  0  0  0  0  0
  139.5800   70.2880  223.4220 C   0  0  0  0  0  0  0  0  0  0  0  0
  139.4120   69.4580  224.5290 C   0  0  0  0  0  0  0  0  0  0  0  0
  139.9010   69.9100  225.7470 C   0  0  0  0  0  0  0  0  0  0  0  0
  139.7580   69.1260  226.8700 C   0  0  0  0  0  0  0  0  0  0  0  0
  140.2220   69.5210  228.1100 C   0  0  0  0  0  0  0  0  0  0  0  0
  140.8460   70.7520  228.1750 C   0  0  0  0  0  0  0  0  0  0  0  0
  141.0090   71.5700  227.0690 C   0  0  0  0  0  0  0  0  0  0  0  0
  140.5280   71.1340  225.8550 C   0  0  0  0  0  0  0  0  0  0  0  0
  140.6640   71.8940  224.7530 N   0  0  0  0  0  0  0  0  0  0  0  0
  139.2260   74.0060  223.2180 H   0  0  0  0  0  0  0  0  0  0  0  0
  140.9587   74.4473  220.8291 H   0  0  0  0  0  0  0  0  0  0  0  0
  139.2515   74.1929  220.4011 H   0  0  0  0  0  0  0  0  0  0  0  0
  138.5672   76.7648  219.5364 H   0  0  0  0  0  0  0  0  0  0  0  0
  138.6902   78.4201  220.2416 H   0  0  0  0  0  0  0  0  0  0  0  0
  139.6174   77.5882  217.7824 H   0  0  0  0  0  0  0  0  0  0  0  0
  140.0813   79.0986  218.7232 H   0  0  0  0  0  0  0  0  0  0  0  0
  141.5465   76.5018  218.4745 H   0  0  0  0  0  0  0  0  0  0  0  0
  142.0323   78.2184  218.0131 H   0  0  0  0  0  0  0  0  0  0  0  0
  142.9845   76.9918  220.0967 H   0  0  0  0  0  0  0  0  0  0  0  0
  142.5486   78.7991  220.0116 H   0  0  0  0  0  0  0  0  0  0  0  0
  141.9188   77.0155  221.9735 H   0  0  0  0  0  0  0  0  0  0  0  0
  140.8899   79.6254  221.2763 H   0  0  0  0  0  0  0  0  0  0  0  0
  143.1935   78.6110  222.8916 H   0  0  0  0  0  0  0  0  0  0  0  0
  143.0813   79.9880  221.7243 H   0  0  0  0  0  0  0  0  0  0  0  0
  142.3060   79.8704  224.6471 H   0  0  0  0  0  0  0  0  0  0  0  0
  143.2223   81.1285  223.7492 H   0  0  0  0  0  0  0  0  0  0  0  0
  139.6026   80.4694  224.5036 H   0  0  0  0  0  0  0  0  0  0  0  0
  139.4015   80.8567  222.7312 H   0  0  0  0  0  0  0  0  0  0  0  0
  140.6205   78.3733  224.0045 H   0  0  0  0  0  0  0  0  0  0  0  0
  139.3117   78.4643  222.8195 H   0  0  0  0  0  0  0  0  0  0  0  0
  139.2044   69.9630  222.4405 H   0  0  0  0  0  0  0  0  0  0  0  0
  138.9113   68.4825  224.4409 H   0  0  0  0  0  0  0  0  0  0  0  0
  139.2569   68.1512  226.7766 H   0  0  0  0  0  0  0  0  0  0  0  0
  140.1007   68.8872  229.0008 H   0  0  0  0  0  0  0  0  0  0  0  0
  141.2297   71.0972  229.1464 H   0  0  0  0  0  0  0  0  0  0  0  0
  141.5108   72.5447  227.1586 H   0  0  0  0  0  0  0  0  0  0  0  0
  1  2  2  0
  2  3  1  0
  3  4  1  0
  4  5  1  0
  5  6  2  0
  5  7  1  0
  7  8  1  0
  8  9  1  0
  9 10  1  0
 10 11  1  0
 11 12  1  0
 12 13  1  0
 13 14  1  0
 14 15  1  0
 15 16  1  0
 16 17  1  0
 17 18  1  0
  2 19  1  0
 19 20  2  0
 20 21  1  0
 21 22  2  0
 22 23  1  0
 23 24  2  0
 24 25  1  0
 25 26  2  0
 26 27  1  0
 27 28  2  0
 12  7  1  0
 18 13  1  0
 28 19  1  0
 27 22  1  0
  3 29  1  0
  4 30  1  0
  4 31  1  0
  8 32  1  0
  8 33  1  0
  9 34  1  0
  9 35  1  0
 10 36  1  0
 10 37  1  0
 11 38  1  0
 11 39  1  0
 12 40  1  1
 13 41  1  0
 14 42  1  0
 14 43  1  0
 15 44  1  0
 15 45  1  0
 17 46  1  0
 17 47  1  0
 18 48  1  0
 18 49  1  0
 20 50  1  0
 21 51  1  0
 23 52  1  0
 24 53  1  0
 25 54  1  0
 26 55  1  0
M  END
>  <smiles>  (63) 
O=C(NCC(=O)N1CCCCC1C1CCOCC1)c1ccc2ccccc2n1

>  <score_type>  (63) 
oracle

>  <origin>  (63) 
autodockgpu

>  <m_score__min__energy>  (63) 
-8.7699999999999996

>  <m_primary>  (63) 
energy

>  <rmsd>  (63) 
1.9286576852402892

>  <m_score__min__rmsd>  (63) 
1.9286576852402892

>  <meeko>  (63) 
{"free_energy": -8.46, "intermolecular_energy": -9.95, "internal_energy": -1.81, "cluster_size": 27, "cluster_id": 2, "rank_in_cluster": 9}

>  <energy>  (63) 
-8.6

>  <cluster_rmsd>  (63) 
0.25

>  <cluster>  (63) 
1

$$$$

     RDKit          3D

 55 58  0  0  0  0  0  0  0  0999 V2000
  141.1330   72.0420  221.4570 O   0  0  0  0  0  0  0  0  0  0  0  0
  140.3020   72.3820  222.3380 C   0  0  0  0  0  0  0  0  0  0  0  0
  139.4940   73.5480  222.2500 N   0  0  0  0  0  0  0  0  0  0  0  0
  139.6450   74.3880  221.0700 C   0  0  0  0  0  0  0  0  0  0  0  0
  140.5010   75.5130  221.4520 C   0  0  0  0  0  0  0  0  0  0  0  0
  141.4140   75.4350  222.3440 O   0  0  0  0  0  0  0  0  0  0  0  0
  140.3910   76.8270  220.8520 N   0  0  0  0  0  0  0  0  0  0  0  0
  139.1340   77.1140  220.1640 C   0  0  0  0  0  0  0  0  0  0  0  0
  139.3890   77.8870  218.9180 C   0  0  0  0  0  0  0  0  0  0  0  0
  140.8210   77.9450  218.4920 C   0  0  0  0  0  0  0  0  0  0  0  0
  141.7970   78.2410  219.5700 C   0  0  0  0  0  0  0  0  0  0  0  0
  141.4700   77.7900  220.9360 C   0  0  1  0  0  0  0  0  0  0  0  0
  141.2430   78.8870  221.9280 C   0  0  0  0  0  0  0  0  0  0  0  0
  142.5030   79.4250  222.5330 C   0  0  0  0  0  0  0  0  0  0  0  0
  142.2130   80.1600  223.8420 C   0  0  0  0  0  0  0  0  0  0  0  0
  140.9980   80.7830  223.7600 O   0  0  0  0  0  0  0  0  0  0  0  0
  139.9020   79.9780  223.6100 C   0  0  0  0  0  0  0  0  0  0  0  0
  140.2320   78.6100  222.9920 C   0  0  0  0  0  0  0  0  0  0  0  0
  140.1410   71.5390  223.5340 C   0  0  0  0  0  0  0  0  0  0  0  0
  139.4420   70.3340  223.4420 C   0  0  0  0  0  0  0  0  0  0  0  0
  139.2730   69.5140  224.5560 C   0  0  0  0  0  0  0  0  0  0  0  0
  139.8260   69.9410  225.7550 C   0  0  0  0  0  0  0  0  0  0  0  0
  139.6860   69.1640  226.8830 C   0  0  0  0  0  0  0  0  0  0  0  0
  140.2140   69.5350  228.1050 C   0  0  0  0  0  0  0  0  0  0  0  0
  140.8980   70.7340  228.1460 C   0  0  0  0  0  0  0  0  0  0  0  0
  141.0610   71.5440  227.0340 C   0  0  0  0  0  0  0  0  0  0  0  0
  140.5170   71.1320  225.8380 C   0  0  0  0  0  0  0  0  0  0  0  0
  140.6500   71.8850  224.7310 N   0  0  0  0  0  0  0  0  0  0  0  0
  138.8020   73.8120  223.0050 H   0  0  0  0  0  0  0  0  0  0  0  0
  140.1143   73.8155  220.2563 H   0  0  0  0  0  0  0  0  0  0  0  0
  138.6669   74.7426  220.7128 H   0  0  0  0  0  0  0  0  0  0  0  0
  138.6368   76.1669  219.9076 H   0  0  0  0  0  0  0  0  0  0  0  0
  138.4917   77.7104  220.8286 H   0  0  0  0  0  0  0  0  0  0  0  0
  138.8097   77.4248  218.1051 H   0  0  0  0  0  0  0  0  0  0  0  0
  139.0901   78.9236  219.1328 H   0  0  0  0  0  0  0  0  0  0  0  0
  141.0842   76.9705  218.0548 H   0  0  0  0  0  0  0  0  0  0  0  0
  140.8913   78.7829  217.7828 H   0  0  0  0  0  0  0  0  0  0  0  0
  142.7502   77.7698  219.2882 H   0  0  0  0  0  0  0  0  0  0  0  0
  141.8120   79.3389  219.6366 H   0  0  0  0  0  0  0  0  0  0  0  0
  142.3583   77.2976  221.3585 H   0  0  0  0  0  0  0  0  0  0  0  0
  140.8008   79.6695  221.2938 H   0  0  0  0  0  0  0  0  0  0  0  0
  143.1903   78.5901  222.7341 H   0  0  0  0  0  0  0  0  0  0  0  0
  142.9555   80.1354  221.8255 H   0  0  0  0  0  0  0  0  0  0  0  0
  142.1987   79.4379  224.6717 H   0  0  0  0  0  0  0  0  0  0  0  0
  142.9968   80.9109  224.0202 H   0  0  0  0  0  0  0  0  0  0  0  0
  139.4511   79.8142  224.5999 H   0  0  0  0  0  0  0  0  0  0  0  0
  139.2142   80.4894  222.9205 H   0  0  0  0  0  0  0  0  0  0  0  0
  140.6500   77.9349  223.7533 H   0  0  0  0  0  0  0  0  0  0  0  0
  139.3357   78.1185  222.5857 H   0  0  0  0  0  0  0  0  0  0  0  0
  139.0178   70.0269  222.4746 H   0  0  0  0  0  0  0  0  0  0  0  0
  138.7222   68.5643  224.4875 H   0  0  0  0  0  0  0  0  0  0  0  0
  139.1347   68.2150  226.8089 H   0  0  0  0  0  0  0  0  0  0  0  0
  140.0954   68.9068  229.0001 H   0  0  0  0  0  0  0  0  0  0  0  0
  141.3321   71.0599  229.1028 H   0  0  0  0  0  0  0  0  0  0  0  0
  141.6118   72.4935  227.1048 H   0  0  0  0  0  0  0  0  0  0  0  0
  1  2  2  0
  2  3  1  0
  3  4  1  0
  4  5  1  0
  5  6  2  0
  5  7  1  0
  7  8  1  0
  8  9  1  0
  9 10  1  0
 10 11  1  0
 11 12  1  0
 12 13  1  0
 13 14  1  0
 14 15  1  0
 15 16  1  0
 16 17  1  0
 17 18  1  0
  2 19  1  0
 19 20  2  0
 20 21  1  0
 21 22  2  0
 22 23  1  0
 23 24  2  0
 24 25  1  0
 25 26  2  0
 26 27  1  0
 27 28  2  0
 12  7  1  0
 18 13  1  0
 28 19  1  0
 27 22  1  0
  3 29  1  0
  4 30  1  0
  4 31  1  0
  8 32  1  0
  8 33  1  0
  9 34  1  0
  9 35  1  0
 10 36  1  0
 10 37  1  0
 11 38  1  0
 11 39  1  0
 12 40  1  1
 13 41  1  0
 14 42  1  0
 14 43  1  0
 15 44  1  0
 15 45  1  0
 17 46  1  0
 17 47  1  0
 18 48  1  0
 18 49  1  0
 20 50  1  0
 21 51  1  0
 23 52  1  0
 24 53  1  0
 25 54  1  0
 26 55  1  0
M  END
>  <smiles>  (64) 
O=C(NCC(=O)N1CCCCC1C1CCOCC1)c1ccc2ccccc2n1

>  <score_type>  (64) 
oracle

>  <origin>  (64) 
autodockgpu

>  <m_score__min__energy>  (64) 
-8.7699999999999996

>  <m_primary>  (64) 
energy

>  <rmsd>  (64) 
1.775776887341116

>  <m_score__min__rmsd>  (64) 
1.775776887341116

>  <meeko>  (64) 
{"free_energy": -8.39, "intermolecular_energy": -9.89, "internal_energy": -1.33, "cluster_size": 27, "cluster_id": 2, "rank_in_cluster": 15}

>  <energy>  (64) 
-8.59

>  <cluster_rmsd>  (64) 
0.26

>  <cluster>  (64) 
1

$$$$

     RDKit          3D

 55 58  0  0  0  0  0  0  0  0999 V2000
  141.5090   72.0240  221.6450 O   0  0  0  0  0  0  0  0  0  0  0  0
  140.6460   72.4140  222.4730 C   0  0  0  0  0  0  0  0  0  0  0  0
  139.9400   73.6420  222.3530 N   0  0  0  0  0  0  0  0  0  0  0  0
  140.2400   74.4860  221.2050 C   0  0  0  0  0  0  0  0  0  0  0  0
  139.5520   75.7600  221.4180 C   0  0  0  0  0  0  0  0  0  0  0  0
  138.5070   75.8850  222.1450 O   0  0  0  0  0  0  0  0  0  0  0  0
  139.9920   77.0040  220.8210 N   0  0  0  0  0  0  0  0  0  0  0  0
  138.9390   77.8680  220.2910 C   0  0  0  0  0  0  0  0  0  0  0  0
  139.3750   78.4950  219.0140 C   0  0  0  0  0  0  0  0  0  0  0  0
  140.6120   77.9090  218.4120 C   0  0  0  0  0  0  0  0  0  0  0  0
  141.7320   77.6730  219.3570 C   0  0  0  0  0  0  0  0  0  0  0  0
  141.3950   77.3600  220.7580 C   0  0  1  0  0  0  0  0  0  0  0  0
  141.8160   78.3920  221.7570 C   0  0  0  0  0  0  0  0  0  0  0  0
  141.1140   78.2790  223.0750 C   0  0  0  0  0  0  0  0  0  0  0  0
  141.2000   79.5890  223.8580 C   0  0  0  0  0  0  0  0  0  0  0  0
  142.3980   80.1980  223.6030 O   0  0  0  0  0  0  0  0  0  0  0  0
  142.6250   80.5950  222.3130 C   0  0  0  0  0  0  0  0  0  0  0  0
  141.8030   79.8080  221.2810 C   0  0  0  0  0  0  0  0  0  0  0  0
  140.3350   71.5680  223.6350 C   0  0  0  0  0  0  0  0  0  0  0  0
  139.6220   70.3810  223.4560 C   0  0  0  0  0  0  0  0  0  0  0  0
  139.3120   69.5570  224.5370 C   0  0  0  0  0  0  0  0  0  0  0  0
  139.7390   69.9630  225.7930 C   0  0  0  0  0  0  0  0  0  0  0  0
  139.4570   69.1830  226.8920 C   0  0  0  0  0  0  0  0  0  0  0  0
  139.8540   69.5330  228.1680 C   0  0  0  0  0  0  0  0  0  0  0  0
  140.5580   70.7150  228.2950 C   0  0  0  0  0  0  0  0  0  0  0  0
  140.8610   71.5280  227.2160 C   0  0  0  0  0  0  0  0  0  0  0  0
  140.4430   71.1370  225.9630 C   0  0  0  0  0  0  0  0  0  0  0  0
  140.7150   71.8940  224.8840 N   0  0  0  0  0  0  0  0  0  0  0  0
  139.2180   73.9470  223.0630 H   0  0  0  0  0  0  0  0  0  0  0  0
  141.3251   74.6506  221.1307 H   0  0  0  0  0  0  0  0  0  0  0  0
  139.9055   74.0110  220.2709 H   0  0  0  0  0  0  0  0  0  0  0  0
  138.0350   77.2680  220.1099 H   0  0  0  0  0  0  0  0  0  0  0  0
  138.7265   78.6610  221.0231 H   0  0  0  0  0  0  0  0  0  0  0  0
  138.5578   78.3890  218.2854 H   0  0  0  0  0  0  0  0  0  0  0  0
  139.6152   79.5418  219.2519 H   0  0  0  0  0  0  0  0  0  0  0  0
  140.3433   76.9442  217.9571 H   0  0  0  0  0  0  0  0  0  0  0  0
  140.9781   78.6531  217.6893 H   0  0  0  0  0  0  0  0  0  0  0  0
  142.3201   76.8302  218.9648 H   0  0  0  0  0  0  0  0  0  0  0  0
  142.2595   78.6369  219.4076 H   0  0  0  0  0  0  0  0  0  0  0  0
  141.9988   76.4962  221.0729 H   0  0  0  0  0  0  0  0  0  0  0  0
  142.8756   78.1366  221.9050 H   0  0  0  0  0  0  0  0  0  0  0  0
  140.0561   78.0345  222.8988 H   0  0  0  0  0  0  0  0  0  0  0  0
  141.6008   77.4874  223.6636 H   0  0  0  0  0  0  0  0  0  0  0  0
  140.3788   80.2535  223.5512 H   0  0  0  0  0  0  0  0  0  0  0  0
  141.1196   79.3772  224.9344 H   0  0  0  0  0  0  0  0  0  0  0  0
  142.3672   81.6607  222.2253 H   0  0  0  0  0  0  0  0  0  0  0  0
  143.6867   80.4060  222.0962 H   0  0  0  0  0  0  0  0  0  0  0  0
  140.7723   80.1899  221.2384 H   0  0  0  0  0  0  0  0  0  0  0  0
  142.2215   79.9021  220.2681 H   0  0  0  0  0  0  0  0  0  0  0  0
  139.2994   70.0911  222.4451 H   0  0  0  0  0  0  0  0  0  0  0  0
  138.7506   68.6211  224.3994 H   0  0  0  0  0  0  0  0  0  0  0  0
  138.8956   68.2479  226.7489 H   0  0  0  0  0  0  0  0  0  0  0  0
  139.6214   68.9025  229.0389 H   0  0  0  0  0  0  0  0  0  0  0  0
  140.8922   71.0235  229.2966 H   0  0  0  0  0  0  0  0  0  0  0  0
  141.4221   72.4637  227.3560 H   0  0  0  0  0  0  0  0  0  0  0  0
  1  2  2  0
  2  3  1  0
  3  4  1  0
  4  5  1  0
  5  6  2  0
  5  7  1  0
  7  8  1  0
  8  9  1  0
  9 10  1  0
 10 11  1  0
 11 12  1  0
 12 13  1  0
 13 14  1  0
 14 15  1  0
 15 16  1  0
 16 17  1  0
 17 18  1  0
  2 19  1  0
 19 20  2  0
 20 21  1  0
 21 22  2  0
 22 23  1  0
 23 24  2  0
 24 25  1  0
 25 26  2  0
 26 27  1  0
 27 28  2  0
 12  7  1  0
 18 13  1  0
 28 19  1  0
 27 22  1  0
  3 29  1  0
  4 30  1  0
  4 31  1  0
  8 32  1  0
  8 33  1  0
  9 34  1  0
  9 35  1  0
 10 36  1  0
 10 37  1  0
 11 38  1  0
 11 39  1  0
 12 40  1  1
 13 41  1  0
 14 42  1  0
 14 43  1  0
 15 44  1  0
 15 45  1  0
 17 46  1  0
 17 47  1  0
 18 48  1  0
 18 49  1  0
 20 50  1  0
 21 51  1  0
 23 52  1  0
 24 53  1  0
 25 54  1  0
 26 55  1  0
M  END
>  <smiles>  (65) 
O=C(NCC(=O)N1CCCCC1C1CCOCC1)c1ccc2ccccc2n1

>  <score_type>  (65) 
oracle

>  <origin>  (65) 
autodockgpu

>  <m_score__min__energy>  (65) 
-8.7699999999999996

>  <m_primary>  (65) 
energy

>  <rmsd>  (65) 
2.0820852644336303

>  <m_score__min__rmsd>  (65) 
2.0820852644336303

>  <meeko>  (65) 
{"free_energy": -8.11, "intermolecular_energy": -9.6, "internal_energy": -1.84, "cluster_size": 27, "cluster_id": 2, "rank_in_cluster": 25}

>  <energy>  (65) 
-8.55

>  <cluster_rmsd>  (65) 
0.29

>  <cluster>  (65) 
1

$$$$

     RDKit          3D

 55 58  0  0  0  0  0  0  0  0999 V2000
  140.7830   71.3170  221.2560 O   0  0  0  0  0  0  0  0  0  0  0  0
  140.3480   71.9640  222.2430 C   0  0  0  0  0  0  0  0  0  0  0  0
  139.9650   73.3320  222.1810 N   0  0  0  0  0  0  0  0  0  0  0  0
  140.0870   74.0110  220.8980 C   0  0  0  0  0  0  0  0  0  0  0  0
  141.0970   75.0570  221.0620 C   0  0  0  0  0  0  0  0  0  0  0  0
  141.2270   75.7540  222.1270 O   0  0  0  0  0  0  0  0  0  0  0  0
  142.0480   75.4060  220.0260 N   0  0  0  0  0  0  0  0  0  0  0  0
  142.5550   76.7760  220.0560 C   0  0  0  0  0  0  0  0  0  0  0  0
  142.6770   77.3150  218.6750 C   0  0  0  0  0  0  0  0  0  0  0  0
  142.0070   76.4990  217.6160 C   0  0  0  0  0  0  0  0  0  0  0  0
  142.2420   75.0350  217.6920 C   0  0  0  0  0  0  0  0  0  0  0  0
  142.4640   74.4440  219.0250 C   0  0  1  0  0  0  0  0  0  0  0  0
  143.8300   73.8750  219.2460 C   0  0  0  0  0  0  0  0  0  0  0  0
  143.9700   72.4500  218.8050 C   0  0  0  0  0  0  0  0  0  0  0  0
  145.1720   71.7830  219.4730 C   0  0  0  0  0  0  0  0  0  0  0  0
  146.1710   72.7030  219.6430 O   0  0  0  0  0  0  0  0  0  0  0  0
  145.9020   73.7560  220.4740 C   0  0  0  0  0  0  0  0  0  0  0  0
  144.4010   74.0530  220.6150 C   0  0  0  0  0  0  0  0  0  0  0  0
  140.2200   71.2870  223.5430 C   0  0  0  0  0  0  0  0  0  0  0  0
  139.6190   70.0290  223.6120 C   0  0  0  0  0  0  0  0  0  0  0  0
  139.4840   69.3610  224.8270 C   0  0  0  0  0  0  0  0  0  0  0  0
  139.9680   69.9960  225.9630 C   0  0  0  0  0  0  0  0  0  0  0  0
  139.8580   69.3760  227.1880 C   0  0  0  0  0  0  0  0  0  0  0  0
  140.3200   69.9550  228.3530 C   0  0  0  0  0  0  0  0  0  0  0  0
  140.9080   71.2000  228.2350 C   0  0  0  0  0  0  0  0  0  0  0  0
  141.0380   71.8570  227.0220 C   0  0  0  0  0  0  0  0  0  0  0  0
  140.5610   71.2390  225.8880 C   0  0  0  0  0  0  0  0  0  0  0  0
  140.6660   71.8380  224.6870 N   0  0  0  0  0  0  0  0  0  0  0  0
  139.6020   73.8540  223.0260 H   0  0  0  0  0  0  0  0  0  0  0  0
  140.4036   73.2985  220.1221 H   0  0  0  0  0  0  0  0  0  0  0  0
  139.1231   74.4411  220.5882 H   0  0  0  0  0  0  0  0  0  0  0  0
  141.8610   77.4066  220.6310 H   0  0  0  0  0  0  0  0  0  0  0  0
  143.5483   76.7782  220.5285 H   0  0  0  0  0  0  0  0  0  0  0  0
  142.2339   78.3217  218.6613 H   0  0  0  0  0  0  0  0  0  0  0  0
  143.7506   77.3068  218.4358 H   0  0  0  0  0  0  0  0  0  0  0  0
  140.9233   76.6724  217.6896 H   0  0  0  0  0  0  0  0  0  0  0  0
  142.4448   76.8257  216.6612 H   0  0  0  0  0  0  0  0  0  0  0  0
  141.3634   74.5382  217.2547 H   0  0  0  0  0  0  0  0  0  0  0  0
  143.1902   74.8778  217.1570 H   0  0  0  0  0  0  0  0  0  0  0  0
  141.8382   73.5435  219.1110 H   0  0  0  0  0  0  0  0  0  0  0  0
  144.4409   74.5059  218.5835 H   0  0  0  0  0  0  0  0  0  0  0  0
  143.0572   71.8989  219.0753 H   0  0  0  0  0  0  0  0  0  0  0  0
  144.1225   72.4347  217.7157 H   0  0  0  0  0  0  0  0  0  0  0  0
  144.8714   71.3835  220.4528 H   0  0  0  0  0  0  0  0  0  0  0  0
  145.5351   70.9624  218.8368 H   0  0  0  0  0  0  0  0  0  0  0  0
  146.3073   73.5264  221.4705 H   0  0  0  0  0  0  0  0  0  0  0  0
  146.3696   74.6476  220.0308 H   0  0  0  0  0  0  0  0  0  0  0  0
  143.9344   73.3500  221.3208 H   0  0  0  0  0  0  0  0  0  0  0  0
  144.2196   75.0654  221.0050 H   0  0  0  0  0  0  0  0  0  0  0  0
  139.2456   69.5570  222.6912 H   0  0  0  0  0  0  0  0  0  0  0  0
  139.0122   68.3689  224.8842 H   0  0  0  0  0  0  0  0  0  0  0  0
  139.3852   68.3842  227.2399 H   0  0  0  0  0  0  0  0  0  0  0  0
  140.2249   69.4508  229.3260 H   0  0  0  0  0  0  0  0  0  0  0  0
  141.2892   71.6904  229.1429 H   0  0  0  0  0  0  0  0  0  0  0  0
  141.5110   72.8486  226.9664 H   0  0  0  0  0  0  0  0  0  0  0  0
  1  2  2  0
  2  3  1  0
  3  4  1  0
  4  5  1  0
  5  6  2  0
  5  7  1  0
  7  8  1  0
  8  9  1  0
  9 10  1  0
 10 11  1  0
 11 12  1  0
 12 13  1  0
 13 14  1  0
 14 15  1  0
 15 16  1  0
 16 17  1  0
 17 18  1  0
  2 19  1  0
 19 20  2  0
 20 21  1  0
 21 22  2  0
 22 23  1  0
 23 24  2  0
 24 25  1  0
 25 26  2  0
 26 27  1  0
 27 28  2  0
 12  7  1  0
 18 13  1  0
 28 19  1  0
 27 22  1  0
  3 29  1  0
  4 30  1  0
  4 31  1  0
  8 32  1  0
  8 33  1  0
  9 34  1  0
  9 35  1  0
 10 36  1  0
 10 37  1  0
 11 38  1  0
 11 39  1  0
 12 40  1  6
 13 41  1  0
 14 42  1  0
 14 43  1  0
 15 44  1  0
 15 45  1  0
 17 46  1  0
 17 47  1  0
 18 48  1  0
 18 49  1  0
 20 50  1  0
 21 51  1  0
 23 52  1  0
 24 53  1  0
 25 54  1  0
 26 55  1  0
M  END
>  <smiles>  (66) 
O=C(NCC(=O)N1CCCCC1C1CCOCC1)c1ccc2ccccc2n1

>  <score_type>  (66) 
oracle

>  <origin>  (66) 
autodockgpu

>  <m_score__min__energy>  (66) 
-8.7699999999999996

>  <m_primary>  (66) 
energy

>  <rmsd>  (66) 
2.4139821885818105

>  <m_score__min__rmsd>  (66) 
2.4139821885818105

>  <meeko>  (66) 
{"free_energy": -8.66, "intermolecular_energy": -10.15, "internal_energy": -1.74, "cluster_size": 21, "cluster_id": 1, "rank_in_cluster": 11}

>  <energy>  (66) 
-8.46

>  <cluster_rmsd>  (66) 
0.31

>  <cluster>  (66) 
1

$$$$

     RDKit          3D

 55 58  0  0  0  0  0  0  0  0999 V2000
  141.3180   72.2180  221.7130 O   0  0  0  0  0  0  0  0  0  0  0  0
  140.3660   72.4370  222.5060 C   0  0  0  0  0  0  0  0  0  0  0  0
  139.4340   73.4980  222.3440 N   0  0  0  0  0  0  0  0  0  0  0  0
  139.6000   74.3740  221.1930 C   0  0  0  0  0  0  0  0  0  0  0  0
  139.5920   75.7490  221.6960 C   0  0  0  0  0  0  0  0  0  0  0  0
  139.1400   76.0770  222.8460 O   0  0  0  0  0  0  0  0  0  0  0  0
  140.0970   76.8710  220.9320 N   0  0  0  0  0  0  0  0  0  0  0  0
  139.2620   77.3150  219.8180 C   0  0  0  0  0  0  0  0  0  0  0  0
  140.1080   77.6860  218.6510 C   0  0  0  0  0  0  0  0  0  0  0  0
  141.5390   77.2650  218.7490 C   0  0  0  0  0  0  0  0  0  0  0  0
  142.1970   77.5310  220.0530 C   0  0  0  0  0  0  0  0  0  0  0  0
  141.3550   77.5080  221.2640 C   0  0  1  0  0  0  0  0  0  0  0  0
  141.2160   78.8230  221.9640 C   0  0  0  0  0  0  0  0  0  0  0  0
  142.5220   79.4230  222.3870 C   0  0  0  0  0  0  0  0  0  0  0  0
  142.3170   80.4670  223.4850 C   0  0  0  0  0  0  0  0  0  0  0  0
  141.1290   81.1170  223.2840 O   0  0  0  0  0  0  0  0  0  0  0  0
  139.9930   80.3590  223.3640 C   0  0  0  0  0  0  0  0  0  0  0  0
  140.2360   78.8670  223.0890 C   0  0  0  0  0  0  0  0  0  0  0  0
  140.1900   71.5570  223.6720 C   0  0  0  0  0  0  0  0  0  0  0  0
  139.5300   70.3350  223.5230 C   0  0  0  0  0  0  0  0  0  0  0  0
  139.3480   69.4790  224.6070 C   0  0  0  0  0  0  0  0  0  0  0  0
  139.8460   69.8880  225.8370 C   0  0  0  0  0  0  0  0  0  0  0  0
  139.6900   69.0760  226.9380 C   0  0  0  0  0  0  0  0  0  0  0  0
  140.1630   69.4280  228.1870 C   0  0  0  0  0  0  0  0  0  0  0  0
  140.8090   70.6450  228.2850 C   0  0  0  0  0  0  0  0  0  0  0  0
  140.9860   71.4900  227.2020 C   0  0  0  0  0  0  0  0  0  0  0  0
  140.4960   71.0960  225.9760 C   0  0  0  0  0  0  0  0  0  0  0  0
  140.6450   71.8840  224.8950 N   0  0  0  0  0  0  0  0  0  0  0  0
  138.6420   73.6600  223.0260 H   0  0  0  0  0  0  0  0  0  0  0  0
  140.5554   74.1611  220.6910 H   0  0  0  0  0  0  0  0  0  0  0  0
  138.7925   74.2189  220.4623 H   0  0  0  0  0  0  0  0  0  0  0  0
  138.5816   76.5008  219.5281 H   0  0  0  0  0  0  0  0  0  0  0  0
  138.6842   78.1960  220.1342 H   0  0  0  0  0  0  0  0  0  0  0  0
  139.6756   77.2190  217.7538 H   0  0  0  0  0  0  0  0  0  0  0  0
  140.1129   78.7853  218.6119 H   0  0  0  0  0  0  0  0  0  0  0  0
  141.5872   76.1824  218.5600 H   0  0  0  0  0  0  0  0  0  0  0  0
  142.0825   77.8699  218.0082 H   0  0  0  0  0  0  0  0  0  0  0  0
  142.9829   76.7727  220.1850 H   0  0  0  0  0  0  0  0  0  0  0  0
  142.5492   78.5705  219.9794 H   0  0  0  0  0  0  0  0  0  0  0  0
  141.8690   76.9094  222.0305 H   0  0  0  0  0  0  0  0  0  0  0  0
  140.7854   79.4505  221.1698 H   0  0  0  0  0  0  0  0  0  0  0  0
  143.1776   78.6256  222.7670 H   0  0  0  0  0  0  0  0  0  0  0  0
  142.9787   79.9162  221.5163 H   0  0  0  0  0  0  0  0  0  0  0  0
  142.3005   79.9687  224.4655 H   0  0  0  0  0  0  0  0  0  0  0  0
  143.1413   81.1948  223.4559 H   0  0  0  0  0  0  0  0  0  0  0  0
  139.5742   80.4637  224.3758 H   0  0  0  0  0  0  0  0  0  0  0  0
  139.3029   80.7244  222.5893 H   0  0  0  0  0  0  0  0  0  0  0  0
  140.6518   78.3746  223.9804 H   0  0  0  0  0  0  0  0  0  0  0  0
  139.3030   78.3412  222.8381 H   0  0  0  0  0  0  0  0  0  0  0  0
  139.1477   70.0438  222.5335 H   0  0  0  0  0  0  0  0  0  0  0  0
  138.8295   68.5156  224.4928 H   0  0  0  0  0  0  0  0  0  0  0  0
  139.1707   68.1137  226.8187 H   0  0  0  0  0  0  0  0  0  0  0  0
  140.0318   68.7719  229.0601 H   0  0  0  0  0  0  0  0  0  0  0  0
  141.1996   70.9563  229.2651 H   0  0  0  0  0  0  0  0  0  0  0  0
  141.5054   72.4527  227.3179 H   0  0  0  0  0  0  0  0  0  0  0  0
  1  2  2  0
  2  3  1  0
  3  4  1  0
  4  5  1  0
  5  6  2  0
  5  7  1  0
  7  8  1  0
  8  9  1  0
  9 10  1  0
 10 11  1  0
 11 12  1  0
 12 13  1  0
 13 14  1  0
 14 15  1  0
 15 16  1  0
 16 17  1  0
 17 18  1  0
  2 19  1  0
 19 20  2  0
 20 21  1  0
 21 22  2  0
 22 23  1  0
 23 24  2  0
 24 25  1  0
 25 26  2  0
 26 27  1  0
 27 28  2  0
 12  7  1  0
 18 13  1  0
 28 19  1  0
 27 22  1  0
  3 29  1  0
  4 30  1  0
  4 31  1  0
  8 32  1  0
  8 33  1  0
  9 34  1  0
  9 35  1  0
 10 36  1  0
 10 37  1  0
 11 38  1  0
 11 39  1  0
 12 40  1  1
 13 41  1  0
 14 42  1  0
 14 43  1  0
 15 44  1  0
 15 45  1  0
 17 46  1  0
 17 47  1  0
 18 48  1  0
 18 49  1  0
 20 50  1  0
 21 51  1  0
 23 52  1  0
 24 53  1  0
 25 54  1  0
 26 55  1  0
M  END
>  <smiles>  (67) 
O=C(NCC(=O)N1CCCCC1C1CCOCC1)c1ccc2ccccc2n1

>  <score_type>  (67) 
oracle

>  <origin>  (67) 
autodockgpu

>  <m_score__min__energy>  (67) 
-8.7699999999999996

>  <m_primary>  (67) 
energy

>  <rmsd>  (67) 
1.8264689435828245

>  <m_score__min__rmsd>  (67) 
1.8264689435828245

>  <meeko>  (67) 
{"free_energy": -8.57, "intermolecular_energy": -10.06, "internal_energy": -1.56, "cluster_size": 27, "cluster_id": 2, "rank_in_cluster": 3}

>  <energy>  (67) 
-8.44

>  <cluster_rmsd>  (67) 
0.45

>  <cluster>  (67) 
1

$$$$

     RDKit          3D

 55 58  0  0  0  0  0  0  0  0999 V2000
  139.0520   70.9370  221.5530 O   0  0  0  0  0  0  0  0  0  0  0  0
  139.3960   71.5080  222.6200 C   0  0  0  0  0  0  0  0  0  0  0  0
  139.6240   72.9070  222.7260 N   0  0  0  0  0  0  0  0  0  0  0  0
  139.4440   73.7140  221.5260 C   0  0  0  0  0  0  0  0  0  0  0  0
  140.7630   73.8610  220.9080 C   0  0  0  0  0  0  0  0  0  0  0  0
  141.5430   74.8490  221.1350 O   0  0  0  0  0  0  0  0  0  0  0  0
  141.3090   72.8970  219.9750 N   0  0  0  0  0  0  0  0  0  0  0  0
  140.7980   72.9680  218.6080 C   0  0  0  0  0  0  0  0  0  0  0  0
  140.6100   71.6010  218.0520 C   0  0  0  0  0  0  0  0  0  0  0  0
  140.6890   70.4950  219.0540 C   0  0  0  0  0  0  0  0  0  0  0  0
  141.8170   70.5820  220.0150 C   0  0  0  0  0  0  0  0  0  0  0  0
  142.3010   71.9250  220.3860 C   0  0  1  0  0  0  0  0  0  0  0  0
  143.6950   72.2390  219.9400 C   0  0  0  0  0  0  0  0  0  0  0  0
  144.4120   71.0740  219.3310 C   0  0  0  0  0  0  0  0  0  0  0  0
  145.9250   71.2910  219.3470 C   0  0  0  0  0  0  0  0  0  0  0  0
  146.2010   72.6200  219.1740 O   0  0  0  0  0  0  0  0  0  0  0  0
  145.7580   73.4720  220.1480 C   0  0  0  0  0  0  0  0  0  0  0  0
  144.5670   72.9180  220.9460 C   0  0  0  0  0  0  0  0  0  0  0  0
  139.5790   70.7010  223.8370 C   0  0  0  0  0  0  0  0  0  0  0  0
  139.1660   69.3680  223.8510 C   0  0  0  0  0  0  0  0  0  0  0  0
  139.3260   68.5770  224.9880 C   0  0  0  0  0  0  0  0  0  0  0  0
  139.9100   69.1670  226.1000 C   0  0  0  0  0  0  0  0  0  0  0  0
  140.0890   68.4260  227.2470 C   0  0  0  0  0  0  0  0  0  0  0  0
  140.6630   68.9570  228.3870 C   0  0  0  0  0  0  0  0  0  0  0  0
  141.0570   70.2800  228.3230 C   0  0  0  0  0  0  0  0  0  0  0  0
  140.8940   71.0580  227.1900 C   0  0  0  0  0  0  0  0  0  0  0  0
  140.3160   70.4850  226.0790 C   0  0  0  0  0  0  0  0  0  0  0  0
  140.1370   71.2020  224.9540 N   0  0  0  0  0  0  0  0  0  0  0  0
  139.9120   73.3630  223.6350 H   0  0  0  0  0  0  0  0  0  0  0  0
  138.7554   73.2103  220.8317 H   0  0  0  0  0  0  0  0  0  0  0  0
  139.0146   74.6960  221.7737 H   0  0  0  0  0  0  0  0  0  0  0  0
  139.8322   73.4946  218.6091 H   0  0  0  0  0  0  0  0  0  0  0  0
  141.5238   73.5099  217.9839 H   0  0  0  0  0  0  0  0  0  0  0  0
  139.6194   71.5597  217.5756 H   0  0  0  0  0  0  0  0  0  0  0  0
  141.4401   71.4384  217.3488 H   0  0  0  0  0  0  0  0  0  0  0  0
  139.7522   70.4926  219.6305 H   0  0  0  0  0  0  0  0  0  0  0  0
  140.8561   69.5747  218.4751 H   0  0  0  0  0  0  0  0  0  0  0  0
  141.4990   70.0803  220.9408 H   0  0  0  0  0  0  0  0  0  0  0  0
  142.6647   70.1166  219.4908 H   0  0  0  0  0  0  0  0  0  0  0  0
  142.4084   71.9639  221.4801 H   0  0  0  0  0  0  0  0  0  0  0  0
  143.5120   72.9841  219.1517 H   0  0  0  0  0  0  0  0  0  0  0  0
  144.1731   70.1656  219.9035 H   0  0  0  0  0  0  0  0  0  0  0  0
  144.0846   70.9690  218.2861 H   0  0  0  0  0  0  0  0  0  0  0  0
  146.3326   70.9553  220.3120 H   0  0  0  0  0  0  0  0  0  0  0  0
  146.3850   70.7137  218.5315 H   0  0  0  0  0  0  0  0  0  0  0  0
  146.5861   73.6650  220.8458 H   0  0  0  0  0  0  0  0  0  0  0  0
  145.4153   74.3892  219.6467 H   0  0  0  0  0  0  0  0  0  0  0  0
  144.9125   72.1989  221.7033 H   0  0  0  0  0  0  0  0  0  0  0  0
  144.0290   73.7136  221.4823 H   0  0  0  0  0  0  0  0  0  0  0  0
  138.7068   68.9343  222.9504 H   0  0  0  0  0  0  0  0  0  0  0  0
  139.0019   67.5260  225.0030 H   0  0  0  0  0  0  0  0  0  0  0  0
  139.7640   67.3752  227.2563 H   0  0  0  0  0  0  0  0  0  0  0  0
  140.7992   68.3569  229.2988 H   0  0  0  0  0  0  0  0  0  0  0  0
  141.5203   70.7345  229.2111 H   0  0  0  0  0  0  0  0  0  0  0  0
  141.2184   72.1090  227.1772 H   0  0  0  0  0  0  0  0  0  0  0  0
  1  2  2  0
  2  3  1  0
  3  4  1  0
  4  5  1  0
  5  6  2  0
  5  7  1  0
  7  8  1  0
  8  9  1  0
  9 10  1  0
 10 11  1  0
 11 12  1  0
 12 13  1  0
 13 14  1  0
 14 15  1  0
 15 16  1  0
 16 17  1  0
 17 18  1  0
  2 19  1  0
 19 20  2  0
 20 21  1  0
 21 22  2  0
 22 23  1  0
 23 24  2  0
 24 25  1  0
 25 26  2  0
 26 27  1  0
 27 28  2  0
 12  7  1  0
 18 13  1  0
 28 19  1  0
 27 22  1  0
  3 29  1  0
  4 30  1  0
  4 31  1  0
  8 32  1  0
  8 33  1  0
  9 34  1  0
  9 35  1  0
 10 36  1  0
 10 37  1  0
 11 38  1  0
 11 39  1  0
 12 40  1  1
 13 41  1  0
 14 42  1  0
 14 43  1  0
 15 44  1  0
 15 45  1  0
 17 46  1  0
 17 47  1  0
 18 48  1  0
 18 49  1  0
 20 50  1  0
 21 51  1  0
 23 52  1  0
 24 53  1  0
 25 54  1  0
 26 55  1  0
M  END
>  <smiles>  (68) 
O=C(NCC(=O)N1CCCCC1C1CCOCC1)c1ccc2ccccc2n1

>  <score_type>  (68) 
oracle

>  <origin>  (68) 
autodockgpu

>  <m_score__min__energy>  (68) 
-8.7699999999999996

>  <m_primary>  (68) 
energy

>  <rmsd>  (68) 
3.152706741952086

>  <m_score__min__rmsd>  (68) 
3.152706741952086

>  <meeko>  (68) 
{"free_energy": -7.41, "intermolecular_energy": -8.9, "internal_energy": -2.04, "cluster_size": 21, "cluster_id": 1, "rank_in_cluster": 21}

>  <energy>  (68) 
-8.3

>  <cluster_rmsd>  (68) 
0.55

>  <cluster>  (68) 
1

$$$$

     RDKit          3D

 55 58  0  0  0  0  0  0  0  0999 V2000
  140.6390   71.1490  221.1980 O   0  0  0  0  0  0  0  0  0  0  0  0
  140.3200   71.8440  222.1960 C   0  0  0  0  0  0  0  0  0  0  0  0
  140.0710   73.2420  222.1350 N   0  0  0  0  0  0  0  0  0  0  0  0
  140.1940   73.8950  220.8380 C   0  0  0  0  0  0  0  0  0  0  0  0
  141.1040   75.0280  221.0150 C   0  0  0  0  0  0  0  0  0  0  0  0
  141.1190   75.7660  222.0600 O   0  0  0  0  0  0  0  0  0  0  0  0
  142.0750   75.4240  220.0160 N   0  0  0  0  0  0  0  0  0  0  0  0
  142.5260   76.8120  220.0750 C   0  0  0  0  0  0  0  0  0  0  0  0
  142.6730   77.3700  218.7040 C   0  0  0  0  0  0  0  0  0  0  0  0
  142.0720   76.5390  217.6150 C   0  0  0  0  0  0  0  0  0  0  0  0
  142.3630   75.0850  217.6870 C   0  0  0  0  0  0  0  0  0  0  0  0
  142.5620   74.4890  219.0210 C   0  0  1  0  0  0  0  0  0  0  0  0
  143.9420   73.9720  219.2840 C   0  0  0  0  0  0  0  0  0  0  0  0
  144.2190   72.6420  218.6520 C   0  0  0  0  0  0  0  0  0  0  0  0
  145.4040   71.9500  219.3250 C   0  0  0  0  0  0  0  0  0  0  0  0
  146.3170   72.8880  219.7240 O   0  0  0  0  0  0  0  0  0  0  0  0
  145.9050   73.7840  220.6720 C   0  0  0  0  0  0  0  0  0  0  0  0
  144.3800   73.9690  220.7120 C   0  0  0  0  0  0  0  0  0  0  0  0
  140.1910   71.1940  223.5100 C   0  0  0  0  0  0  0  0  0  0  0  0
  139.5740   69.9450  223.6060 C   0  0  0  0  0  0  0  0  0  0  0  0
  139.4380   69.3030  224.8360 C   0  0  0  0  0  0  0  0  0  0  0  0
  139.9380   69.9520  225.9560 C   0  0  0  0  0  0  0  0  0  0  0  0
  139.8270   69.3570  227.1930 C   0  0  0  0  0  0  0  0  0  0  0  0
  140.3050   69.9530  228.3440 C   0  0  0  0  0  0  0  0  0  0  0  0
  140.9090   71.1870  228.1980 C   0  0  0  0  0  0  0  0  0  0  0  0
  141.0400   71.8180  226.9720 C   0  0  0  0  0  0  0  0  0  0  0  0
  140.5470   71.1850  225.8530 C   0  0  0  0  0  0  0  0  0  0  0  0
  140.6530   71.7600  224.6400 N   0  0  0  0  0  0  0  0  0  0  0  0
  139.8030   73.8040  222.9890 H   0  0  0  0  0  0  0  0  0  0  0  0
  140.6050   73.1921  220.0984 H   0  0  0  0  0  0  0  0  0  0  0  0
  139.2126   74.2324  220.4732 H   0  0  0  0  0  0  0  0  0  0  0  0
  141.7887   77.4090  220.6318 H   0  0  0  0  0  0  0  0  0  0  0  0
  143.5022   76.8480  220.5806 H   0  0  0  0  0  0  0  0  0  0  0  0
  142.1908   78.3585  218.6845 H   0  0  0  0  0  0  0  0  0  0  0  0
  143.7536   77.4069  218.5015 H   0  0  0  0  0  0  0  0  0  0  0  0
  140.9803   76.6686  217.6529 H   0  0  0  0  0  0  0  0  0  0  0  0
  142.5278   76.8925  216.6784 H   0  0  0  0  0  0  0  0  0  0  0  0
  141.5209   74.5581  217.2145 H   0  0  0  0  0  0  0  0  0  0  0  0
  143.3353   74.9719  217.1852 H   0  0  0  0  0  0  0  0  0  0  0  0
  141.9693   73.5640  219.0770 H   0  0  0  0  0  0  0  0  0  0  0  0
  144.5611   74.7313  218.7838 H   0  0  0  0  0  0  0  0  0  0  0  0
  143.3277   72.0049  218.7501 H   0  0  0  0  0  0  0  0  0  0  0  0
  144.4640   72.8029  217.5918 H   0  0  0  0  0  0  0  0  0  0  0  0
  145.0500   71.3876  220.2016 H   0  0  0  0  0  0  0  0  0  0  0  0
  145.8775   71.2597  218.6113 H   0  0  0  0  0  0  0  0  0  0  0  0
  146.2394   73.4279  221.6576 H   0  0  0  0  0  0  0  0  0  0  0  0
  146.3445   74.7583  220.4120 H   0  0  0  0  0  0  0  0  0  0  0  0
  143.9061   73.1399  221.2579 H   0  0  0  0  0  0  0  0  0  0  0  0
  144.0944   74.8970  221.2289 H   0  0  0  0  0  0  0  0  0  0  0  0
  139.1892   69.4600  222.6968 H   0  0  0  0  0  0  0  0  0  0  0  0
  138.9526   68.3191  224.9157 H   0  0  0  0  0  0  0  0  0  0  0  0
  139.3409   68.3730  227.2671 H   0  0  0  0  0  0  0  0  0  0  0  0
  140.2095   69.4694  229.3273 H   0  0  0  0  0  0  0  0  0  0  0  0
  141.3027   71.6898  229.0937 H   0  0  0  0  0  0  0  0  0  0  0  0
  141.5264   72.8016  226.8941 H   0  0  0  0  0  0  0  0  0  0  0  0
  1  2  2  0
  2  3  1  0
  3  4  1  0
  4  5  1  0
  5  6  2  0
  5  7  1  0
  7  8  1  0
  8  9  1  0
  9 10  1  0
 10 11  1  0
 11 12  1  0
 12 13  1  0
 13 14  1  0
 14 15  1  0
 15 16  1  0
 16 17  1  0
 17 18  1  0
  2 19  1  0
 19 20  2  0
 20 21  1  0
 21 22  2  0
 22 23  1  0
 23 24  2  0
 24 25  1  0
 25 26  2  0
 26 27  1  0
 27 28  2  0
 12  7  1  0
 18 13  1  0
 28 19  1  0
 27 22  1  0
  3 29  1  0
  4 30  1  0
  4 31  1  0
  8 32  1  0
  8 33  1  0
  9 34  1  0
  9 35  1  0
 10 36  1  0
 10 37  1  0
 11 38  1  0
 11 39  1  0
 12 40  1  6
 13 41  1  0
 14 42  1  0
 14 43  1  0
 15 44  1  0
 15 45  1  0
 17 46  1  0
 17 47  1  0
 18 48  1  0
 18 49  1  0
 20 50  1  0
 21 51  1  0
 23 52  1  0
 24 53  1  0
 25 54  1  0
 26 55  1  0
M  END
>  <smiles>  (69) 
O=C(NCC(=O)N1CCCCC1C1CCOCC1)c1ccc2ccccc2n1

>  <score_type>  (69) 
oracle

>  <origin>  (69) 
autodockgpu

>  <m_score__min__energy>  (69) 
-8.7699999999999996

>  <m_primary>  (69) 
energy

>  <rmsd>  (69) 
2.4165948876817946

>  <m_score__min__rmsd>  (69) 
2.4165948876817946

>  <meeko>  (69) 
{"free_energy": -8.6, "intermolecular_energy": -10.09, "internal_energy": -1.79, "cluster_size": 21, "cluster_id": 1, "rank_in_cluster": 13}

>  <energy>  (69) 
-8.16

>  <cluster_rmsd>  (69) 
0.97

>  <cluster>  (69) 
1

$$$$

     RDKit          3D

 55 58  0  0  0  0  0  0  0  0999 V2000
  141.4450   71.7770  221.5550 O   0  0  0  0  0  0  0  0  0  0  0  0
  140.5590   72.1940  222.3440 C   0  0  0  0  0  0  0  0  0  0  0  0
  139.7690   73.3510  222.1010 N   0  0  0  0  0  0  0  0  0  0  0  0
  140.0080   74.0850  220.8650 C   0  0  0  0  0  0  0  0  0  0  0  0
  141.1450   74.9740  221.1080 C   0  0  0  0  0  0  0  0  0  0  0  0
  141.3940   75.5090  222.2430 O   0  0  0  0  0  0  0  0  0  0  0  0
  142.0980   75.3350  220.0790 N   0  0  0  0  0  0  0  0  0  0  0  0
  142.5540   76.7230  220.0860 C   0  0  0  0  0  0  0  0  0  0  0  0
  142.6770   77.2370  218.6950 C   0  0  0  0  0  0  0  0  0  0  0  0
  142.0540   76.3730  217.6450 C   0  0  0  0  0  0  0  0  0  0  0  0
  142.3420   74.9210  217.7580 C   0  0  0  0  0  0  0  0  0  0  0  0
  142.5650   74.3670  219.1060 C   0  0  1  0  0  0  0  0  0  0  0  0
  143.9480   73.8550  219.3600 C   0  0  0  0  0  0  0  0  0  0  0  0
  144.2140   72.5110  218.7530 C   0  0  0  0  0  0  0  0  0  0  0  0
  145.4100   71.8330  219.4230 C   0  0  0  0  0  0  0  0  0  0  0  0
  146.3290   72.7790  219.7880 O   0  0  0  0  0  0  0  0  0  0  0  0
  145.9310   73.6950  220.7230 C   0  0  0  0  0  0  0  0  0  0  0  0
  144.4070   73.8830  220.7810 C   0  0  0  0  0  0  0  0  0  0  0  0
  140.3100   71.4590  223.5940 C   0  0  0  0  0  0  0  0  0  0  0  0
  139.5780   70.2710  223.5640 C   0  0  0  0  0  0  0  0  0  0  0  0
  139.3260   69.5510  224.7310 C   0  0  0  0  0  0  0  0  0  0  0  0
  139.8300   70.0620  225.9190 C   0  0  0  0  0  0  0  0  0  0  0  0
  139.6060   69.3860  227.0980 C   0  0  0  0  0  0  0  0  0  0  0  0
  140.0810   69.8440  228.3120 C   0  0  0  0  0  0  0  0  0  0  0  0
  140.8000   71.0230  228.2920 C   0  0  0  0  0  0  0  0  0  0  0  0
  141.0460   71.7320  227.1280 C   0  0  0  0  0  0  0  0  0  0  0  0
  140.5520   71.2370  225.9410 C   0  0  0  0  0  0  0  0  0  0  0  0
  140.7660   71.8910  224.7850 N   0  0  0  0  0  0  0  0  0  0  0  0
  139.0300   73.6820  222.7810 H   0  0  0  0  0  0  0  0  0  0  0  0
  140.2432   73.3852  220.0496 H   0  0  0  0  0  0  0  0  0  0  0  0
  139.1169   74.6590  220.5709 H   0  0  0  0  0  0  0  0  0  0  0  0
  141.8289   77.3397  220.6372 H   0  0  0  0  0  0  0  0  0  0  0  0
  143.5395   76.7718  220.5722 H   0  0  0  0  0  0  0  0  0  0  0  0
  142.1966   78.2257  218.6527 H   0  0  0  0  0  0  0  0  0  0  0  0
  143.7537   77.2649  218.4714 H   0  0  0  0  0  0  0  0  0  0  0  0
  140.9636   76.5073  217.6988 H   0  0  0  0  0  0  0  0  0  0  0  0
  142.4940   76.6945  216.6895 H   0  0  0  0  0  0  0  0  0  0  0  0
  141.4893   74.3823  217.3189 H   0  0  0  0  0  0  0  0  0  0  0  0
  143.3042   74.7886  217.2416 H   0  0  0  0  0  0  0  0  0  0  0  0
  141.9725   73.4453  219.2025 H   0  0  0  0  0  0  0  0  0  0  0  0
  144.5607   74.6025  218.8348 H   0  0  0  0  0  0  0  0  0  0  0  0
  143.3240   71.8769  218.8793 H   0  0  0  0  0  0  0  0  0  0  0  0
  144.4419   72.6479  217.6856 H   0  0  0  0  0  0  0  0  0  0  0  0
  145.0694   71.2896  220.3167 H   0  0  0  0  0  0  0  0  0  0  0  0
  145.8726   71.1276  218.7171 H   0  0  0  0  0  0  0  0  0  0  0  0
  146.2790   73.3589  221.7109 H   0  0  0  0  0  0  0  0  0  0  0  0
  146.3676   74.6631  220.4364 H   0  0  0  0  0  0  0  0  0  0  0  0
  143.9403   73.0669  221.3521 H   0  0  0  0  0  0  0  0  0  0  0  0
  144.1301   74.8228  221.2812 H   0  0  0  0  0  0  0  0  0  0  0  0
  139.1936   69.8966  222.6038 H   0  0  0  0  0  0  0  0  0  0  0  0
  138.7500   68.6141  224.7110 H   0  0  0  0  0  0  0  0  0  0  0  0
  139.0293   68.4496  227.0722 H   0  0  0  0  0  0  0  0  0  0  0  0
  139.8957   69.2967  229.2480 H   0  0  0  0  0  0  0  0  0  0  0  0
  141.1941   71.4156  229.2410 H   0  0  0  0  0  0  0  0  0  0  0  0
  141.6224   72.6686  227.1507 H   0  0  0  0  0  0  0  0  0  0  0  0
  1  2  2  0
  2  3  1  0
  3  4  1  0
  4  5  1  0
  5  6  2  0
  5  7  1  0
  7  8  1  0
  8  9  1  0
  9 10  1  0
 10 11  1  0
 11 12  1  0
 12 13  1  0
 13 14  1  0
 14 15  1  0
 15 16  1  0
 16 17  1  0
 17 18  1  0
  2 19  1  0
 19 20  2  0
 20 21  1  0
 21 22  2  0
 22 23  1  0
 23 24  2  0
 24 25  1  0
 25 26  2  0
 26 27  1  0
 27 28  2  0
 12  7  1  0
 18 13  1  0
 28 19  1  0
 27 22  1  0
  3 29  1  0
  4 30  1  0
  4 31  1  0
  8 32  1  0
  8 33  1  0
  9 34  1  0
  9 35  1  0
 10 36  1  0
 10 37  1  0
 11 38  1  0
 11 39  1  0
 12 40  1  6
 13 41  1  0
 14 42  1  0
 14 43  1  0
 15 44  1  0
 15 45  1  0
 17 46  1  0
 17 47  1  0
 18 48  1  0
 18 49  1  0
 20 50  1  0
 21 51  1  0
 23 52  1  0
 24 53  1  0
 25 54  1  0
 26 55  1  0
M  END
>  <smiles>  (70) 
O=C(NCC(=O)N1CCCCC1C1CCOCC1)c1ccc2ccccc2n1

>  <score_type>  (70) 
oracle

>  <origin>  (70) 
autodockgpu

>  <m_score__min__energy>  (70) 
-8.7699999999999996

>  <m_primary>  (70) 
energy

>  <rmsd>  (70) 
2.457205224621205

>  <m_score__min__rmsd>  (70) 
2.457205224621205

>  <meeko>  (70) 
{"free_energy": -8.71, "intermolecular_energy": -10.2, "internal_energy": -1.66, "cluster_size": 21, "cluster_id": 1, "rank_in_cluster": 7}

>  <energy>  (70) 
-7.79

>  <cluster_rmsd>  (70) 
1.11

>  <cluster>  (70) 
1

$$$$

     RDKit          3D

 55 58  0  0  0  0  0  0  0  0999 V2000
  141.4100   71.7440  221.5350 O   0  0  0  0  0  0  0  0  0  0  0  0
  140.5400   72.1780  222.3340 C   0  0  0  0  0  0  0  0  0  0  0  0
  139.7650   73.3450  222.0950 N   0  0  0  0  0  0  0  0  0  0  0  0
  140.0000   74.0710  220.8540 C   0  0  0  0  0  0  0  0  0  0  0  0
  141.1360   74.9630  221.0880 C   0  0  0  0  0  0  0  0  0  0  0  0
  141.3860   75.5070  222.2190 O   0  0  0  0  0  0  0  0  0  0  0  0
  142.0870   75.3180  220.0550 N   0  0  0  0  0  0  0  0  0  0  0  0
  142.5500   76.7040  220.0590 C   0  0  0  0  0  0  0  0  0  0  0  0
  142.6710   77.2150  218.6670 C   0  0  0  0  0  0  0  0  0  0  0  0
  142.0390   76.3540  217.6200 C   0  0  0  0  0  0  0  0  0  0  0  0
  142.3200   74.9000  217.7330 C   0  0  0  0  0  0  0  0  0  0  0  0
  142.5450   74.3470  219.0820 C   0  0  1  0  0  0  0  0  0  0  0  0
  143.9260   73.8270  219.3310 C   0  0  0  0  0  0  0  0  0  0  0  0
  144.1870   72.4860  218.7170 C   0  0  0  0  0  0  0  0  0  0  0  0
  145.3800   71.8000  219.3810 C   0  0  0  0  0  0  0  0  0  0  0  0
  146.3030   72.7390  219.7500 O   0  0  0  0  0  0  0  0  0  0  0  0
  145.9110   73.6520  220.6900 C   0  0  0  0  0  0  0  0  0  0  0  0
  144.3880   73.8460  220.7510 C   0  0  0  0  0  0  0  0  0  0  0  0
  140.2950   71.4510  223.5900 C   0  0  0  0  0  0  0  0  0  0  0  0
  139.5680   70.2600  223.5690 C   0  0  0  0  0  0  0  0  0  0  0  0
  139.3190   69.5480  224.7410 C   0  0  0  0  0  0  0  0  0  0  0  0
  139.8230   70.0690  225.9250 C   0  0  0  0  0  0  0  0  0  0  0  0
  139.6030   69.4010  227.1090 C   0  0  0  0  0  0  0  0  0  0  0  0
  140.0780   69.8690  228.3190 C   0  0  0  0  0  0  0  0  0  0  0  0
  140.7930   71.0510  228.2890 C   0  0  0  0  0  0  0  0  0  0  0  0
  141.0350   71.7520  227.1200 C   0  0  0  0  0  0  0  0  0  0  0  0
  140.5410   71.2460  225.9380 C   0  0  0  0  0  0  0  0  0  0  0  0
  140.7510   71.8930  224.7760 N   0  0  0  0  0  0  0  0  0  0  0  0
  139.0390   73.6890  222.7830 H   0  0  0  0  0  0  0  0  0  0  0  0
  140.2342   73.3661  220.0427 H   0  0  0  0  0  0  0  0  0  0  0  0
  139.1074   74.6419  220.5584 H   0  0  0  0  0  0  0  0  0  0  0  0
  141.8297   77.3251  220.6116 H   0  0  0  0  0  0  0  0  0  0  0  0
  143.5371   76.7488  220.5424 H   0  0  0  0  0  0  0  0  0  0  0  0
  142.1967   78.2066  218.6252 H   0  0  0  0  0  0  0  0  0  0  0  0
  143.7471   77.2353  218.4396 H   0  0  0  0  0  0  0  0  0  0  0  0
  140.9495   76.4942  217.6782 H   0  0  0  0  0  0  0  0  0  0  0  0
  142.4764   76.6727  216.6623 H   0  0  0  0  0  0  0  0  0  0  0  0
  141.4630   74.3652  217.2976 H   0  0  0  0  0  0  0  0  0  0  0  0
  143.2792   74.7614  217.2126 H   0  0  0  0  0  0  0  0  0  0  0  0
  141.9473   73.4291  219.1827 H   0  0  0  0  0  0  0  0  0  0  0  0
  144.5398   74.5749  218.8076 H   0  0  0  0  0  0  0  0  0  0  0  0
  143.2949   71.8545  218.8406 H   0  0  0  0  0  0  0  0  0  0  0  0
  144.4150   72.6284  217.6503 H   0  0  0  0  0  0  0  0  0  0  0  0
  145.0382   71.2529  220.2720 H   0  0  0  0  0  0  0  0  0  0  0  0
  145.8388   71.0969  218.6702 H   0  0  0  0  0  0  0  0  0  0  0  0
  146.2591   73.3096  221.6757 H   0  0  0  0  0  0  0  0  0  0  0  0
  146.3516   74.6196  220.4079 H   0  0  0  0  0  0  0  0  0  0  0  0
  143.9189   73.0290  221.3188 H   0  0  0  0  0  0  0  0  0  0  0  0
  144.1162   74.7847  221.2560 H   0  0  0  0  0  0  0  0  0  0  0  0
  139.1851   69.8768  222.6116 H   0  0  0  0  0  0  0  0  0  0  0  0
  138.7453   68.6095  224.7283 H   0  0  0  0  0  0  0  0  0  0  0  0
  139.0294   68.4626  227.0907 H   0  0  0  0  0  0  0  0  0  0  0  0
  139.8961   69.3277  229.2592 H   0  0  0  0  0  0  0  0  0  0  0  0
  141.1868   71.4522  229.2345 H   0  0  0  0  0  0  0  0  0  0  0  0
  141.6082   72.6908  227.1347 H   0  0  0  0  0  0  0  0  0  0  0  0
  1  2  2  0
  2  3  1  0
  3  4  1  0
  4  5  1  0
  5  6  2  0
  5  7  1  0
  7  8  1  0
  8  9  1  0
  9 10  1  0
 10 11  1  0
 11 12  1  0
 12 13  1  0
 13 14  1  0
 14 15  1  0
 15 16  1  0
 16 17  1  0
 17 18  1  0
  2 19  1  0
 19 20  2  0
 20 21  1  0
 21 22  2  0
 22 23  1  0
 23 24  2  0
 24 25  1  0
 25 26  2  0
 26 27  1  0
 27 28  2  0
 12  7  1  0
 18 13  1  0
 28 19  1  0
 27 22  1  0
  3 29  1  0
  4 30  1  0
  4 31  1  0
  8 32  1  0
  8 33  1  0
  9 34  1  0
  9 35  1  0
 10 36  1  0
 10 37  1  0
 11 38  1  0
 11 39  1  0
 12 40  1  6
 13 41  1  0
 14 42  1  0
 14 43  1  0
 15 44  1  0
 15 45  1  0
 17 46  1  0
 17 47  1  0
 18 48  1  0
 18 49  1  0
 20 50  1  0
 21 51  1  0
 23 52  1  0
 24 53  1  0
 25 54  1  0
 26 55  1  0
M  END
>  <smiles>  (71) 
O=C(NCC(=O)N1CCCCC1C1CCOCC1)c1ccc2ccccc2n1

>  <score_type>  (71) 
oracle

>  <origin>  (71) 
autodockgpu

>  <m_score__min__energy>  (71) 
-8.7699999999999996

>  <m_primary>  (71) 
energy

>  <rmsd>  (71) 
2.45155011884188

>  <m_score__min__rmsd>  (71) 
2.45155011884188

>  <meeko>  (71) 
{"free_energy": -8.71, "intermolecular_energy": -10.2, "internal_energy": -1.67, "cluster_size": 21, "cluster_id": 1, "rank_in_cluster": 6}

>  <energy>  (71) 
-7.41

>  <cluster_rmsd>  (71) 
1.67

>  <cluster>  (71) 
1

$$$$

     RDKit          3D

 55 58  0  0  0  0  0  0  0  0999 V2000
  141.3500   72.0290  221.5830 O   0  0  0  0  0  0  0  0  0  0  0  0
  140.5010   72.3900  222.4380 C   0  0  0  0  0  0  0  0  0  0  0  0
  139.7440   73.5900  222.3380 N   0  0  0  0  0  0  0  0  0  0  0  0
  139.9730   74.4390  221.1770 C   0  0  0  0  0  0  0  0  0  0  0  0
  139.8340   75.8250  221.6270 C   0  0  0  0  0  0  0  0  0  0  0  0
  139.2980   76.1560  222.7400 O   0  0  0  0  0  0  0  0  0  0  0  0
  140.2900   76.9570  220.8470 N   0  0  0  0  0  0  0  0  0  0  0  0
  139.2870   77.5990  220.0010 C   0  0  0  0  0  0  0  0  0  0  0  0
  139.8820   77.9910  218.6950 C   0  0  0  0  0  0  0  0  0  0  0  0
  141.2310   77.4090  218.4150 C   0  0  0  0  0  0  0  0  0  0  0  0
  142.1990   77.4700  219.5380 C   0  0  0  0  0  0  0  0  0  0  0  0
  141.6630   77.4160  220.9110 C   0  0  1  0  0  0  0  0  0  0  0  0
  141.8610   78.6620  221.7170 C   0  0  0  0  0  0  0  0  0  0  0  0
  141.4720   78.5190  223.1560 C   0  0  0  0  0  0  0  0  0  0  0  0
  141.2280   79.8850  223.7980 C   0  0  0  0  0  0  0  0  0  0  0  0
  142.0800   80.8070  223.2540 O   0  0  0  0  0  0  0  0  0  0  0  0
  141.9360   81.0650  221.9180 C   0  0  0  0  0  0  0  0  0  0  0  0
  141.2780   79.9130  221.1440 C   0  0  0  0  0  0  0  0  0  0  0  0
  140.2620   71.5380  223.6130 C   0  0  0  0  0  0  0  0  0  0  0  0
  139.5650   70.3370  223.4680 C   0  0  0  0  0  0  0  0  0  0  0  0
  139.3230   69.5080  224.5610 C   0  0  0  0  0  0  0  0  0  0  0  0
  139.8010   69.9230  225.7970 C   0  0  0  0  0  0  0  0  0  0  0  0
  139.5870   69.1370  226.9070 C   0  0  0  0  0  0  0  0  0  0  0  0
  140.0370   69.4960  228.1630 C   0  0  0  0  0  0  0  0  0  0  0  0
  140.7210   70.6930  228.2570 C   0  0  0  0  0  0  0  0  0  0  0  0
  140.9570   71.5110  227.1650 C   0  0  0  0  0  0  0  0  0  0  0  0
  140.4880   71.1110  225.9330 C   0  0  0  0  0  0  0  0  0  0  0  0
  140.6940   71.8730  224.8430 N   0  0  0  0  0  0  0  0  0  0  0  0
  139.0360   73.8710  223.0710 H   0  0  0  0  0  0  0  0  0  0  0  0
  140.9847   74.2705  220.7793 H   0  0  0  0  0  0  0  0  0  0  0  0
  139.2537   74.2120  220.3763 H   0  0  0  0  0  0  0  0  0  0  0  0
  138.4584   76.8972  219.8254 H   0  0  0  0  0  0  0  0  0  0  0  0
  138.9174   78.5018  220.5093 H   0  0  0  0  0  0  0  0  0  0  0  0
  139.1979   77.6662  217.8971 H   0  0  0  0  0  0  0  0  0  0  0  0
  140.0199   79.0816  218.7349 H   0  0  0  0  0  0  0  0  0  0  0  0
  141.0941   76.3521  218.1427 H   0  0  0  0  0  0  0  0  0  0  0  0
  141.6631   78.0220  217.6103 H   0  0  0  0  0  0  0  0  0  0  0  0
  142.8902   76.6222  219.4219 H   0  0  0  0  0  0  0  0  0  0  0  0
  142.6547   78.4679  219.4573 H   0  0  0  0  0  0  0  0  0  0  0  0
  142.2571   76.6899  221.4853 H   0  0  0  0  0  0  0  0  0  0  0  0
  142.9523   78.7885  221.6624 H   0  0  0  0  0  0  0  0  0  0  0  0
  140.5508   77.9214  223.2216 H   0  0  0  0  0  0  0  0  0  0  0  0
  142.2938   78.0223  223.6926 H   0  0  0  0  0  0  0  0  0  0  0  0
  140.1884   80.1948  223.6154 H   0  0  0  0  0  0  0  0  0  0  0  0
  141.4072   79.8166  224.8811 H   0  0  0  0  0  0  0  0  0  0  0  0
  141.3136   81.9644  221.8012 H   0  0  0  0  0  0  0  0  0  0  0  0
  142.9451   81.2023  221.5022 H   0  0  0  0  0  0  0  0  0  0  0  0
  140.1872   79.9286  221.2854 H   0  0  0  0  0  0  0  0  0  0  0  0
  141.4623   79.9907  220.0623 H   0  0  0  0  0  0  0  0  0  0  0  0
  139.2006   70.0402  222.4734 H   0  0  0  0  0  0  0  0  0  0  0  0
  138.7744   68.5611  224.4493 H   0  0  0  0  0  0  0  0  0  0  0  0
  139.0388   68.1905  226.7898 H   0  0  0  0  0  0  0  0  0  0  0  0
  139.8598   68.8611  229.0436 H   0  0  0  0  0  0  0  0  0  0  0  0
  141.0942   71.0098  229.2421 H   0  0  0  0  0  0  0  0  0  0  0  0
  141.5058   72.4575  227.2785 H   0  0  0  0  0  0  0  0  0  0  0  0
  1  2  2  0
  2  3  1  0
  3  4  1  0
  4  5  1  0
  5  6  2  0
  5  7  1  0
  7  8  1  0
  8  9  1  0
  9 10  1  0
 10 11  1  0
 11 12  1  0
 12 13  1  0
 13 14  1  0
 14 15  1  0
 15 16  1  0
 16 17  1  0
 17 18  1  0
  2 19  1  0
 19 20  2  0
 20 21  1  0
 21 22  2  0
 22 23  1  0
 23 24  2  0
 24 25  1  0
 25 26  2  0
 26 27  1  0
 27 28  2  0
 12  7  1  0
 18 13  1  0
 28 19  1  0
 27 22  1  0
  3 29  1  0
  4 30  1  0
  4 31  1  0
  8 32  1  0
  8 33  1  0
  9 34  1  0
  9 35  1  0
 10 36  1  0
 10 37  1  0
 11 38  1  0
 11 39  1  0
 12 40  1  1
 13 41  1  0
 14 42  1  0
 14 43  1  0
 15 44  1  0
 15 45  1  0
 17 46  1  0
 17 47  1  0
 18 48  1  0
 18 49  1  0
 20 50  1  0
 21 51  1  0
 23 52  1  0
 24 53  1  0
 25 54  1  0
 26 55  1  0
M  END
>  <smiles>  (72) 
O=C(NCC(=O)N1CCCCC1C1CCOCC1)c1ccc2ccccc2n1

>  <score_type>  (72) 
oracle

>  <origin>  (72) 
autodockgpu

>  <m_score__min__energy>  (72) 
-8.7699999999999996

>  <m_primary>  (72) 
energy

>  <rmsd>  (72) 
1.9030356775796784

>  <m_score__min__rmsd>  (72) 
1.9030356775796784

>  <meeko>  (72) 
{"free_energy": -8.4, "intermolecular_energy": -9.89, "internal_energy": -1.75, "cluster_size": 27, "cluster_id": 2, "rank_in_cluster": 14}

>  <energy>  (72) 
-8.6

>  <cluster_rmsd>  (72) 
0.0

>  <cluster>  (72) 
2

$$$$

     RDKit          3D

 55 58  0  0  0  0  0  0  0  0999 V2000
  140.6050   71.1480  221.2200 O   0  0  0  0  0  0  0  0  0  0  0  0
  140.2980   71.8400  222.2250 C   0  0  0  0  0  0  0  0  0  0  0  0
  140.0550   73.2400  222.1730 N   0  0  0  0  0  0  0  0  0  0  0  0
  140.1690   73.8980  220.8790 C   0  0  0  0  0  0  0  0  0  0  0  0
  141.0960   75.0180  221.0490 C   0  0  0  0  0  0  0  0  0  0  0  0
  141.1340   75.7510  222.0960 O   0  0  0  0  0  0  0  0  0  0  0  0
  142.0610   75.4040  220.0400 N   0  0  0  0  0  0  0  0  0  0  0  0
  142.5140   76.7920  220.0840 C   0  0  0  0  0  0  0  0  0  0  0  0
  142.6530   77.3380  218.7070 C   0  0  0  0  0  0  0  0  0  0  0  0
  142.0440   76.4980  217.6300 C   0  0  0  0  0  0  0  0  0  0  0  0
  142.3330   75.0440  217.7120 C   0  0  0  0  0  0  0  0  0  0  0  0
  142.5400   74.4600  219.0510 C   0  0  1  0  0  0  0  0  0  0  0  0
  143.9210   73.9430  219.3080 C   0  0  0  0  0  0  0  0  0  0  0  0
  144.2020   72.6220  218.6600 C   0  0  0  0  0  0  0  0  0  0  0  0
  145.3890   71.9260  219.3260 C   0  0  0  0  0  0  0  0  0  0  0  0
  146.2990   72.8610  219.7370 O   0  0  0  0  0  0  0  0  0  0  0  0
  145.8830   73.7430  220.6970 C   0  0  0  0  0  0  0  0  0  0  0  0
  144.3580   73.9240  220.7370 C   0  0  0  0  0  0  0  0  0  0  0  0
  140.1790   71.1840  223.5370 C   0  0  0  0  0  0  0  0  0  0  0  0
  139.5680   69.9320  223.6310 C   0  0  0  0  0  0  0  0  0  0  0  0
  139.4410   69.2840  224.8590 C   0  0  0  0  0  0  0  0  0  0  0  0
  139.9440   69.9310  225.9790 C   0  0  0  0  0  0  0  0  0  0  0  0
  139.8420   69.3310  227.2140 C   0  0  0  0  0  0  0  0  0  0  0  0
  140.3230   69.9240  228.3650 C   0  0  0  0  0  0  0  0  0  0  0  0
  140.9200   71.1620  228.2210 C   0  0  0  0  0  0  0  0  0  0  0  0
  141.0420   71.7980  226.9980 C   0  0  0  0  0  0  0  0  0  0  0  0
  140.5470   71.1680  225.8780 C   0  0  0  0  0  0  0  0  0  0  0  0
  140.6430   71.7480  224.6670 N   0  0  0  0  0  0  0  0  0  0  0  0
  139.7980   73.7990  223.0330 H   0  0  0  0  0  0  0  0  0  0  0  0
  140.5606   73.1937  220.1302 H   0  0  0  0  0  0  0  0  0  0  0  0
  139.1872   74.2504  220.5298 H   0  0  0  0  0  0  0  0  0  0  0  0
  141.7810   77.3947  220.6402 H   0  0  0  0  0  0  0  0  0  0  0  0
  143.4935   76.8312  220.5831 H   0  0  0  0  0  0  0  0  0  0  0  0
  142.1718   78.3269  218.6818 H   0  0  0  0  0  0  0  0  0  0  0  0
  143.7323   77.3722  218.4972 H   0  0  0  0  0  0  0  0  0  0  0  0
  140.9528   76.6295  217.6741 H   0  0  0  0  0  0  0  0  0  0  0  0
  142.4948   76.8424  216.6876 H   0  0  0  0  0  0  0  0  0  0  0  0
  141.4868   74.5144  217.2499 H   0  0  0  0  0  0  0  0  0  0  0  0
  143.3012   74.9241  217.2039 H   0  0  0  0  0  0  0  0  0  0  0  0
  141.9460   73.5368  219.1209 H   0  0  0  0  0  0  0  0  0  0  0  0
  144.5387   74.7094  218.8169 H   0  0  0  0  0  0  0  0  0  0  0  0
  143.3126   71.9810  218.7498 H   0  0  0  0  0  0  0  0  0  0  0  0
  144.4467   72.7960  217.6018 H   0  0  0  0  0  0  0  0  0  0  0  0
  145.0359   71.3522  220.1955 H   0  0  0  0  0  0  0  0  0  0  0  0
  145.8652   71.2461  218.6042 H   0  0  0  0  0  0  0  0  0  0  0  0
  146.2165   73.3739  221.6781 H   0  0  0  0  0  0  0  0  0  0  0  0
  146.3206   74.7218  220.4513 H   0  0  0  0  0  0  0  0  0  0  0  0
  143.8854   73.0874  221.2725 H   0  0  0  0  0  0  0  0  0  0  0  0
  144.0699   74.8454  221.2643 H   0  0  0  0  0  0  0  0  0  0  0  0
  139.1806   69.4492  222.7217 H   0  0  0  0  0  0  0  0  0  0  0  0
  138.9605   68.2976  224.9371 H   0  0  0  0  0  0  0  0  0  0  0  0
  139.3605   68.3447  227.2866 H   0  0  0  0  0  0  0  0  0  0  0  0
  140.2353   69.4355  229.3467 H   0  0  0  0  0  0  0  0  0  0  0  0
  141.3151   71.6633  229.1168 H   0  0  0  0  0  0  0  0  0  0  0  0
  141.5234   72.7842  226.9223 H   0  0  0  0  0  0  0  0  0  0  0  0
  1  2  2  0
  2  3  1  0
  3  4  1  0
  4  5  1  0
  5  6  2  0
  5  7  1  0
  7  8  1  0
  8  9  1  0
  9 10  1  0
 10 11  1  0
 11 12  1  0
 12 13  1  0
 13 14  1  0
 14 15  1  0
 15 16  1  0
 16 17  1  0
 17 18  1  0
  2 19  1  0
 19 20  2  0
 20 21  1  0
 21 22  2  0
 22 23  1  0
 23 24  2  0
 24 25  1  0
 25 26  2  0
 26 27  1  0
 27 28  2  0
 12  7  1  0
 18 13  1  0
 28 19  1  0
 27 22  1  0
  3 29  1  0
  4 30  1  0
  4 31  1  0
  8 32  1  0
  8 33  1  0
  9 34  1  0
  9 35  1  0
 10 36  1  0
 10 37  1  0
 11 38  1  0
 11 39  1  0
 12 40  1  6
 13 41  1  0
 14 42  1  0
 14 43  1  0
 15 44  1  0
 15 45  1  0
 17 46  1  0
 17 47  1  0
 18 48  1  0
 18 49  1  0
 20 50  1  0
 21 51  1  0
 23 52  1  0
 24 53  1  0
 25 54  1  0
 26 55  1  0
M  END
>  <smiles>  (73) 
O=C(NCC(=O)N1CCCCC1C1CCOCC1)c1ccc2ccccc2n1

>  <score_type>  (73) 
oracle

>  <origin>  (73) 
autodockgpu

>  <m_score__min__energy>  (73) 
-8.7699999999999996

>  <m_primary>  (73) 
energy

>  <rmsd>  (73) 
2.4076362074977937

>  <m_score__min__rmsd>  (73) 
2.4076362074977937

>  <meeko>  (73) 
{"free_energy": -8.59, "intermolecular_energy": -10.08, "internal_energy": -1.79, "cluster_size": 21, "cluster_id": 1, "rank_in_cluster": 14}

>  <energy>  (73) 
-8.6

>  <cluster_rmsd>  (73) 
1.17

>  <cluster>  (73) 
2

$$$$

     RDKit          3D

 55 58  0  0  0  0  0  0  0  0999 V2000
  139.7710   71.3440  221.2740 O   0  0  0  0  0  0  0  0  0  0  0  0
  139.7410   72.0000  222.3470 C   0  0  0  0  0  0  0  0  0  0  0  0
  139.5740   73.4110  222.4020 N   0  0  0  0  0  0  0  0  0  0  0  0
  139.4300   74.1250  221.1400 C   0  0  0  0  0  0  0  0  0  0  0  0
  139.2920   75.5450  221.4650 C   0  0  0  0  0  0  0  0  0  0  0  0
  138.5420   75.9860  222.4040 O   0  0  0  0  0  0  0  0  0  0  0  0
  139.9940   76.5910  220.7500 N   0  0  0  0  0  0  0  0  0  0  0  0
  139.3540   77.0720  219.5280 C   0  0  0  0  0  0  0  0  0  0  0  0
  140.3720   77.3240  218.4720 C   0  0  0  0  0  0  0  0  0  0  0  0
  141.7320   76.7770  218.7630 C   0  0  0  0  0  0  0  0  0  0  0  0
  142.2420   77.0250  220.1350 C   0  0  0  0  0  0  0  0  0  0  0  0
  141.2550   77.1200  221.2280 C   0  0  1  0  0  0  0  0  0  0  0  0
  141.1550   78.4650  221.8750 C   0  0  0  0  0  0  0  0  0  0  0  0
  141.8200   79.5600  221.0990 C   0  0  0  0  0  0  0  0  0  0  0  0
  142.1150   80.7660  221.9920 C   0  0  0  0  0  0  0  0  0  0  0  0
  141.1290   80.8930  222.9320 O   0  0  0  0  0  0  0  0  0  0  0  0
  141.0000   79.8690  223.8300 C   0  0  0  0  0  0  0  0  0  0  0  0
  141.5540   78.5320  223.3130 C   0  0  0  0  0  0  0  0  0  0  0  0
  139.8840   71.2880  223.6260 C   0  0  0  0  0  0  0  0  0  0  0  0
  139.5380   69.9390  223.7090 C   0  0  0  0  0  0  0  0  0  0  0  0
  139.6630   69.2360  224.9060 C   0  0  0  0  0  0  0  0  0  0  0  0
  140.1440   69.9300  226.0080 C   0  0  0  0  0  0  0  0  0  0  0  0
  140.2850   69.2780  227.2130 C   0  0  0  0  0  0  0  0  0  0  0  0
  140.7580   69.9130  228.3450 C   0  0  0  0  0  0  0  0  0  0  0  0
  141.0890   71.2480  228.2130 C   0  0  0  0  0  0  0  0  0  0  0  0
  140.9620   71.9390  227.0200 C   0  0  0  0  0  0  0  0  0  0  0  0
  140.4850   71.2630  225.9180 C   0  0  0  0  0  0  0  0  0  0  0  0
  140.3440   71.8920  224.7370 N   0  0  0  0  0  0  0  0  0  0  0  0
  139.5520   73.9400  223.3170 H   0  0  0  0  0  0  0  0  0  0  0  0
  140.3192   73.9658  220.5123 H   0  0  0  0  0  0  0  0  0  0  0  0
  138.5538   73.7631  220.5821 H   0  0  0  0  0  0  0  0  0  0  0  0
  138.6410   76.3146  219.1703 H   0  0  0  0  0  0  0  0  0  0  0  0
  138.8284   78.0130  219.7479 H   0  0  0  0  0  0  0  0  0  0  0  0
  140.0138   76.8685  217.5370 H   0  0  0  0  0  0  0  0  0  0  0  0
  140.4866   78.4162  218.4096 H   0  0  0  0  0  0  0  0  0  0  0  0
  141.7002   75.6889  218.6051 H   0  0  0  0  0  0  0  0  0  0  0  0
  142.4201   77.3042  218.0858 H   0  0  0  0  0  0  0  0  0  0  0  0
  142.9290   76.2026  220.3835 H   0  0  0  0  0  0  0  0  0  0  0  0
  142.6980   78.0248  220.0851 H   0  0  0  0  0  0  0  0  0  0  0  0
  141.6081   76.5025  222.0671 H   0  0  0  0  0  0  0  0  0  0  0  0
  140.0687   78.6371  221.8582 H   0  0  0  0  0  0  0  0  0  0  0  0
  142.7650   79.1820  220.6818 H   0  0  0  0  0  0  0  0  0  0  0  0
  141.1423   79.8789  220.2934 H   0  0  0  0  0  0  0  0  0  0  0  0
  143.0831   80.6217  222.4941 H   0  0  0  0  0  0  0  0  0  0  0  0
  142.1519   81.6765  221.3759 H   0  0  0  0  0  0  0  0  0  0  0  0
  141.5421   80.1397  224.7481 H   0  0  0  0  0  0  0  0  0  0  0  0
  139.9240   79.7276  224.0096 H   0  0  0  0  0  0  0  0  0  0  0  0
  142.6494   78.5064  223.4098 H   0  0  0  0  0  0  0  0  0  0  0  0
  141.1621   77.6786  223.8858 H   0  0  0  0  0  0  0  0  0  0  0  0
  139.1602   69.4216  222.8148 H   0  0  0  0  0  0  0  0  0  0  0  0
  139.3910   68.1724  224.9749 H   0  0  0  0  0  0  0  0  0  0  0  0
  140.0114   68.2144  227.2762 H   0  0  0  0  0  0  0  0  0  0  0  0
  140.8656   69.3828  229.3028 H   0  0  0  0  0  0  0  0  0  0  0  0
  141.4700   71.7851  229.0941 H   0  0  0  0  0  0  0  0  0  0  0  0
  141.2354   73.0024  226.9534 H   0  0  0  0  0  0  0  0  0  0  0  0
  1  2  2  0
  2  3  1  0
  3  4  1  0
  4  5  1  0
  5  6  2  0
  5  7  1  0
  7  8  1  0
  8  9  1  0
  9 10  1  0
 10 11  1  0
 11 12  1  0
 12 13  1  0
 13 14  1  0
 14 15  1  0
 15 16  1  0
 16 17  1  0
 17 18  1  0
  2 19  1  0
 19 20  2  0
 20 21  1  0
 21 22  2  0
 22 23  1  0
 23 24  2  0
 24 25  1  0
 25 26  2  0
 26 27  1  0
 27 28  2  0
 12  7  1  0
 18 13  1  0
 28 19  1  0
 27 22  1  0
  3 29  1  0
  4 30  1  0
  4 31  1  0
  8 32  1  0
  8 33  1  0
  9 34  1  0
  9 35  1  0
 10 36  1  0
 10 37  1  0
 11 38  1  0
 11 39  1  0
 12 40  1  1
 13 41  1  0
 14 42  1  0
 14 43  1  0
 15 44  1  0
 15 45  1  0
 17 46  1  0
 17 47  1  0
 18 48  1  0
 18 49  1  0
 20 50  1  0
 21 51  1  0
 23 52  1  0
 24 53  1  0
 25 54  1  0
 26 55  1  0
M  END
>  <smiles>  (74) 
O=C(NCC(=O)N1CCCCC1C1CCOCC1)c1ccc2ccccc2n1

>  <score_type>  (74) 
oracle

>  <origin>  (74) 
autodockgpu

>  <m_score__min__energy>  (74) 
-8.7699999999999996

>  <m_primary>  (74) 
energy

>  <rmsd>  (74) 
1.66307595551156

>  <m_score__min__rmsd>  (74) 
1.66307595551156

>  <meeko>  (74) 
{"free_energy": -8.13, "intermolecular_energy": -9.63, "internal_energy": -1.73, "cluster_size": 27, "cluster_id": 2, "rank_in_cluster": 24}

>  <energy>  (74) 
-8.57

>  <cluster_rmsd>  (74) 
1.18

>  <cluster>  (74) 
2

$$$$

     RDKit          3D

 55 58  0  0  0  0  0  0  0  0999 V2000
  140.9860   72.2550  221.4910 O   0  0  0  0  0  0  0  0  0  0  0  0
  140.1110   72.4870  222.3640 C   0  0  0  0  0  0  0  0  0  0  0  0
  139.1980   73.5750  222.2930 N   0  0  0  0  0  0  0  0  0  0  0  0
  139.2910   74.4620  221.1420 C   0  0  0  0  0  0  0  0  0  0  0  0
  140.2670   75.5000  221.4790 C   0  0  0  0  0  0  0  0  0  0  0  0
  141.1930   75.3430  222.3470 O   0  0  0  0  0  0  0  0  0  0  0  0
  140.2740   76.8080  220.8590 N   0  0  0  0  0  0  0  0  0  0  0  0
  139.0800   77.1610  220.0940 C   0  0  0  0  0  0  0  0  0  0  0  0
  139.4530   77.8980  218.8570 C   0  0  0  0  0  0  0  0  0  0  0  0
  140.9090   77.8620  218.5150 C   0  0  0  0  0  0  0  0  0  0  0  0
  141.8370   78.1150  219.6460 C   0  0  0  0  0  0  0  0  0  0  0  0
  141.4030   77.7050  220.9950 C   0  0  1  0  0  0  0  0  0  0  0  0
  141.1860   78.8300  221.9590 C   0  0  0  0  0  0  0  0  0  0  0  0
  142.4530   79.4040  222.5130 C   0  0  0  0  0  0  0  0  0  0  0  0
  142.1880   80.1750  223.8060 C   0  0  0  0  0  0  0  0  0  0  0  0
  140.9620   80.7780  223.7380 O   0  0  0  0  0  0  0  0  0  0  0  0
  139.8750   79.9520  223.6440 C   0  0  0  0  0  0  0  0  0  0  0  0
  140.2090   78.5710  223.0590 C   0  0  0  0  0  0  0  0  0  0  0  0
  140.0080   71.5960  223.5300 C   0  0  0  0  0  0  0  0  0  0  0  0
  139.3150   70.3890  223.4190 C   0  0  0  0  0  0  0  0  0  0  0  0
  139.2000   69.5230  224.5050 C   0  0  0  0  0  0  0  0  0  0  0  0
  139.8010   69.9070  225.6960 C   0  0  0  0  0  0  0  0  0  0  0  0
  139.7150   69.0840  226.7970 C   0  0  0  0  0  0  0  0  0  0  0  0
  140.2920   69.4100  228.0090 C   0  0  0  0  0  0  0  0  0  0  0  0
  140.9680   70.6140  228.0690 C   0  0  0  0  0  0  0  0  0  0  0  0
  141.0770   71.4690  226.9850 C   0  0  0  0  0  0  0  0  0  0  0  0
  140.4850   71.1000  225.7980 C   0  0  0  0  0  0  0  0  0  0  0  0
  140.5650   71.8980  224.7170 N   0  0  0  0  0  0  0  0  0  0  0  0
  138.4700   73.7480  223.0400 H   0  0  0  0  0  0  0  0  0  0  0  0
  139.6272   73.9000  220.2582 H   0  0  0  0  0  0  0  0  0  0  0  0
  138.3118   74.9051  220.9079 H   0  0  0  0  0  0  0  0  0  0  0  0
  138.5412   76.2421  219.8194 H   0  0  0  0  0  0  0  0  0  0  0  0
  138.4388   77.8060  220.7127 H   0  0  0  0  0  0  0  0  0  0  0  0
  138.8941   77.4598  218.0170 H   0  0  0  0  0  0  0  0  0  0  0  0
  139.2064   78.9540  219.0418 H   0  0  0  0  0  0  0  0  0  0  0  0
  141.1366   76.8666  218.1058 H   0  0  0  0  0  0  0  0  0  0  0  0
  141.0721   78.6825  217.8008 H   0  0  0  0  0  0  0  0  0  0  0  0
  142.7745   77.5830  219.4268 H   0  0  0  0  0  0  0  0  0  0  0  0
  141.9157   79.2108  219.7007 H   0  0  0  0  0  0  0  0  0  0  0  0
  142.2327   77.1653  221.4749 H   0  0  0  0  0  0  0  0  0  0  0  0
  140.7153   79.5858  221.3132 H   0  0  0  0  0  0  0  0  0  0  0  0
  143.1577   78.5853  222.7208 H   0  0  0  0  0  0  0  0  0  0  0  0
  142.8754   80.0987  221.7720 H   0  0  0  0  0  0  0  0  0  0  0  0
  142.2069   79.4790  224.6576 H   0  0  0  0  0  0  0  0  0  0  0  0
  142.9652   80.9419  223.9397 H   0  0  0  0  0  0  0  0  0  0  0  0
  139.4548   79.8122  224.6509 H   0  0  0  0  0  0  0  0  0  0  0  0
  139.1602   80.4314  222.9591 H   0  0  0  0  0  0  0  0  0  0  0  0
  140.6583   77.9259  223.8284 H   0  0  0  0  0  0  0  0  0  0  0  0
  139.3096   78.0541  222.6931 H   0  0  0  0  0  0  0  0  0  0  0  0
  138.8523   70.1171  222.4588 H   0  0  0  0  0  0  0  0  0  0  0  0
  138.6540   68.5718  224.4216 H   0  0  0  0  0  0  0  0  0  0  0  0
  139.1677   68.1339  226.7081 H   0  0  0  0  0  0  0  0  0  0  0  0
  140.2173   68.7451  228.8821 H   0  0  0  0  0  0  0  0  0  0  0  0
  141.4399   70.9058  229.0188 H   0  0  0  0  0  0  0  0  0  0  0  0
  141.6233   72.4199  227.0703 H   0  0  0  0  0  0  0  0  0  0  0  0
  1  2  2  0
  2  3  1  0
  3  4  1  0
  4  5  1  0
  5  6  2  0
  5  7  1  0
  7  8  1  0
  8  9  1  0
  9 10  1  0
 10 11  1  0
 11 12  1  0
 12 13  1  0
 13 14  1  0
 14 15  1  0
 15 16  1  0
 16 17  1  0
 17 18  1  0
  2 19  1  0
 19 20  2  0
 20 21  1  0
 21 22  2  0
 22 23  1  0
 23 24  2  0
 24 25  1  0
 25 26  2  0
 26 27  1  0
 27 28  2  0
 12  7  1  0
 18 13  1  0
 28 19  1  0
 27 22  1  0
  3 29  1  0
  4 30  1  0
  4 31  1  0
  8 32  1  0
  8 33  1  0
  9 34  1  0
  9 35  1  0
 10 36  1  0
 10 37  1  0
 11 38  1  0
 11 39  1  0
 12 40  1  1
 13 41  1  0
 14 42  1  0
 14 43  1  0
 15 44  1  0
 15 45  1  0
 17 46  1  0
 17 47  1  0
 18 48  1  0
 18 49  1  0
 20 50  1  0
 21 51  1  0
 23 52  1  0
 24 53  1  0
 25 54  1  0
 26 55  1  0
M  END
>  <smiles>  (75) 
O=C(NCC(=O)N1CCCCC1C1CCOCC1)c1ccc2ccccc2n1

>  <score_type>  (75) 
oracle

>  <origin>  (75) 
autodockgpu

>  <m_score__min__energy>  (75) 
-8.7699999999999996

>  <m_primary>  (75) 
energy

>  <rmsd>  (75) 
1.725493937118948

>  <m_score__min__rmsd>  (75) 
1.725493937118948

>  <meeko>  (75) 
{"free_energy": -8.41, "intermolecular_energy": -9.9, "internal_energy": -1.33, "cluster_size": 27, "cluster_id": 2, "rank_in_cluster": 12}

>  <energy>  (75) 
-8.54

>  <cluster_rmsd>  (75) 
1.18

>  <cluster>  (75) 
2

$$$$

     RDKit          3D

 55 58  0  0  0  0  0  0  0  0999 V2000
  140.8680   71.3800  221.2840 O   0  0  0  0  0  0  0  0  0  0  0  0
  140.3930   72.0060  222.2670 C   0  0  0  0  0  0  0  0  0  0  0  0
  139.9760   73.3640  222.2080 N   0  0  0  0  0  0  0  0  0  0  0  0
  140.1090   74.0580  220.9350 C   0  0  0  0  0  0  0  0  0  0  0  0
  141.1450   75.0770  221.1090 C   0  0  0  0  0  0  0  0  0  0  0  0
  141.3090   75.7400  222.1910 O   0  0  0  0  0  0  0  0  0  0  0  0
  142.0850   75.4340  220.0670 N   0  0  0  0  0  0  0  0  0  0  0  0
  142.5660   76.8130  220.0820 C   0  0  0  0  0  0  0  0  0  0  0  0
  142.6720   77.3420  218.6960 C   0  0  0  0  0  0  0  0  0  0  0  0
  142.0130   76.5040  217.6470 C   0  0  0  0  0  0  0  0  0  0  0  0
  142.2760   75.0460  217.7360 C   0  0  0  0  0  0  0  0  0  0  0  0
  142.5140   74.4710  219.0730 C   0  0  1  0  0  0  0  0  0  0  0  0
  143.8920   73.9300  219.2930 C   0  0  0  0  0  0  0  0  0  0  0  0
  144.0920   72.5470  218.7520 C   0  0  0  0  0  0  0  0  0  0  0  0
  145.2970   71.8700  219.4050 C   0  0  0  0  0  0  0  0  0  0  0  0
  146.2590   72.8050  219.6740 O   0  0  0  0  0  0  0  0  0  0  0  0
  145.9320   73.7830  220.5720 C   0  0  0  0  0  0  0  0  0  0  0  0
  144.4180   74.0220  220.6880 C   0  0  0  0  0  0  0  0  0  0  0  0
  140.2530   71.3130  223.5570 C   0  0  0  0  0  0  0  0  0  0  0  0
  139.6480   70.0560  223.6060 C   0  0  0  0  0  0  0  0  0  0  0  0
  139.5020   69.3730  224.8120 C   0  0  0  0  0  0  0  0  0  0  0  0
  139.9800   69.9920  225.9590 C   0  0  0  0  0  0  0  0  0  0  0  0
  139.8580   69.3570  227.1750 C   0  0  0  0  0  0  0  0  0  0  0  0
  140.3140   69.9210  228.3510 C   0  0  0  0  0  0  0  0  0  0  0  0
  140.9060   71.1650  228.2530 C   0  0  0  0  0  0  0  0  0  0  0  0
  141.0470   71.8360  227.0500 C   0  0  0  0  0  0  0  0  0  0  0  0
  140.5770   71.2340  225.9040 C   0  0  0  0  0  0  0  0  0  0  0  0
  140.6930   71.8480  224.7120 N   0  0  0  0  0  0  0  0  0  0  0  0
  139.5790   73.8670  223.0490 H   0  0  0  0  0  0  0  0  0  0  0  0
  140.4048   73.3492  220.1475 H   0  0  0  0  0  0  0  0  0  0  0  0
  139.1545   74.5158  220.6361 H   0  0  0  0  0  0  0  0  0  0  0  0
  141.8627   77.4356  220.6545 H   0  0  0  0  0  0  0  0  0  0  0  0
  143.5613   76.8379  220.5497 H   0  0  0  0  0  0  0  0  0  0  0  0
  142.2098   78.3400  218.6755 H   0  0  0  0  0  0  0  0  0  0  0  0
  143.7446   77.3520  218.4522 H   0  0  0  0  0  0  0  0  0  0  0  0
  140.9265   76.6577  217.7235 H   0  0  0  0  0  0  0  0  0  0  0  0
  142.4403   76.8301  216.6873 H   0  0  0  0  0  0  0  0  0  0  0  0
  141.4054   74.5287  217.3065 H   0  0  0  0  0  0  0  0  0  0  0  0
  143.2254   74.9023  217.1994 H   0  0  0  0  0  0  0  0  0  0  0  0
  141.9051   73.5600  219.1697 H   0  0  0  0  0  0  0  0  0  0  0  0
  144.4996   74.6280  218.6983 H   0  0  0  0  0  0  0  0  0  0  0  0
  143.1911   71.9487  218.9531 H   0  0  0  0  0  0  0  0  0  0  0  0
  144.2750   72.6181  217.6697 H   0  0  0  0  0  0  0  0  0  0  0  0
  144.9826   71.3881  220.3425 H   0  0  0  0  0  0  0  0  0  0  0  0
  145.7056   71.1122  218.7203 H   0  0  0  0  0  0  0  0  0  0  0  0
  146.3160   73.4914  221.5607 H   0  0  0  0  0  0  0  0  0  0  0  0
  146.3825   74.7195  220.2114 H   0  0  0  0  0  0  0  0  0  0  0  0
  143.9551   73.2538  221.3249 H   0  0  0  0  0  0  0  0  0  0  0  0
  144.1923   74.9963  221.1460 H   0  0  0  0  0  0  0  0  0  0  0  0
  139.2801   69.5966  222.6767 H   0  0  0  0  0  0  0  0  0  0  0  0
  139.0265   68.3820  224.8534 H   0  0  0  0  0  0  0  0  0  0  0  0
  139.3810   68.3665  227.2112 H   0  0  0  0  0  0  0  0  0  0  0  0
  140.2107   69.4051  229.3170 H   0  0  0  0  0  0  0  0  0  0  0  0
  141.2815   71.6431  229.1697 H   0  0  0  0  0  0  0  0  0  0  0  0
  141.5233   72.8268  227.0106 H   0  0  0  0  0  0  0  0  0  0  0  0
  1  2  2  0
  2  3  1  0
  3  4  1  0
  4  5  1  0
  5  6  2  0
  5  7  1  0
  7  8  1  0
  8  9  1  0
  9 10  1  0
 10 11  1  0
 11 12  1  0
 12 13  1  0
 13 14  1  0
 14 15  1  0
 15 16  1  0
 16 17  1  0
 17 18  1  0
  2 19  1  0
 19 20  2  0
 20 21  1  0
 21 22  2  0
 22 23  1  0
 23 24  2  0
 24 25  1  0
 25 26  2  0
 26 27  1  0
 27 28  2  0
 12  7  1  0
 18 13  1  0
 28 19  1  0
 27 22  1  0
  3 29  1  0
  4 30  1  0
  4 31  1  0
  8 32  1  0
  8 33  1  0
  9 34  1  0
  9 35  1  0
 10 36  1  0
 10 37  1  0
 11 38  1  0
 11 39  1  0
 12 40  1  6
 13 41  1  0
 14 42  1  0
 14 43  1  0
 15 44  1  0
 15 45  1  0
 17 46  1  0
 17 47  1  0
 18 48  1  0
 18 49  1  0
 20 50  1  0
 21 51  1  0
 23 52  1  0
 24 53  1  0
 25 54  1  0
 26 55  1  0
M  END
>  <smiles>  (76) 
O=C(NCC(=O)N1CCCCC1C1CCOCC1)c1ccc2ccccc2n1

>  <score_type>  (76) 
oracle

>  <origin>  (76) 
autodockgpu

>  <m_score__min__energy>  (76) 
-8.7699999999999996

>  <m_primary>  (76) 
energy

>  <rmsd>  (76) 
2.427209074972974

>  <m_score__min__rmsd>  (76) 
2.427209074972974

>  <meeko>  (76) 
{"free_energy": -8.7, "intermolecular_energy": -10.19, "internal_energy": -1.72, "cluster_size": 21, "cluster_id": 1, "rank_in_cluster": 8}

>  <energy>  (76) 
-8.49

>  <cluster_rmsd>  (76) 
1.19

>  <cluster>  (76) 
2

$$$$

     RDKit          3D

 55 58  0  0  0  0  0  0  0  0999 V2000
  141.0800   71.9720  221.3540 O   0  0  0  0  0  0  0  0  0  0  0  0
  140.3970   72.4070  222.3160 C   0  0  0  0  0  0  0  0  0  0  0  0
  139.7890   73.6920  222.3330 N   0  0  0  0  0  0  0  0  0  0  0  0
  139.9740   74.5430  221.1660 C   0  0  0  0  0  0  0  0  0  0  0  0
  139.6030   75.9020  221.5640 C   0  0  0  0  0  0  0  0  0  0  0  0
  138.8150   76.1630  222.5370 O   0  0  0  0  0  0  0  0  0  0  0  0
  140.0970   77.0840  220.8880 N   0  0  0  0  0  0  0  0  0  0  0  0
  139.2440   77.6200  219.8300 C   0  0  0  0  0  0  0  0  0  0  0  0
  140.0700   78.0870  218.6840 C   0  0  0  0  0  0  0  0  0  0  0  0
  141.5020   77.6580  218.7200 C   0  0  0  0  0  0  0  0  0  0  0  0
  142.1830   77.8140  220.0300 C   0  0  0  0  0  0  0  0  0  0  0  0
  141.3620   77.6900  221.2500 C   0  0  1  0  0  0  0  0  0  0  0  0
  141.2380   78.9430  222.0590 C   0  0  0  0  0  0  0  0  0  0  0  0
  142.5430   79.4500  222.5910 C   0  0  0  0  0  0  0  0  0  0  0  0
  142.3250   80.4000  223.7690 C   0  0  0  0  0  0  0  0  0  0  0  0
  141.1720   81.1110  223.5780 O   0  0  0  0  0  0  0  0  0  0  0  0
  140.0070   80.3950  223.5400 C   0  0  0  0  0  0  0  0  0  0  0  0
  140.2090   78.9240  223.1420 C   0  0  0  0  0  0  0  0  0  0  0  0
  140.2040   71.5540  223.5000 C   0  0  0  0  0  0  0  0  0  0  0  0
  139.5080   70.3500  223.3790 C   0  0  0  0  0  0  0  0  0  0  0  0
  139.3090   69.5200  224.4800 C   0  0  0  0  0  0  0  0  0  0  0  0
  139.8280   69.9370  225.6980 C   0  0  0  0  0  0  0  0  0  0  0  0
  139.6570   69.1510  226.8150 C   0  0  0  0  0  0  0  0  0  0  0  0
  140.1490   69.5120  228.0550 C   0  0  0  0  0  0  0  0  0  0  0  0
  140.8310   70.7110  228.1250 C   0  0  0  0  0  0  0  0  0  0  0  0
  141.0240   71.5300  227.0250 C   0  0  0  0  0  0  0  0  0  0  0  0
  140.5140   71.1280  225.8100 C   0  0  0  0  0  0  0  0  0  0  0  0
  140.6780   71.8910  224.7140 N   0  0  0  0  0  0  0  0  0  0  0  0
  139.2180   74.0340  223.1550 H   0  0  0  0  0  0  0  0  0  0  0  0
  141.0252   74.5177  220.8429 H   0  0  0  0  0  0  0  0  0  0  0  0
  139.3541   74.1971  220.3257 H   0  0  0  0  0  0  0  0  0  0  0  0
  138.5571   76.8332  219.4848 H   0  0  0  0  0  0  0  0  0  0  0  0
  138.6735   78.4717  220.2289 H   0  0  0  0  0  0  0  0  0  0  0  0
  139.6205   77.6978  217.7586 H   0  0  0  0  0  0  0  0  0  0  0  0
  140.0771   79.1856  218.7381 H   0  0  0  0  0  0  0  0  0  0  0  0
  141.5445   76.5950  218.4404 H   0  0  0  0  0  0  0  0  0  0  0  0
  142.0338   78.3215  218.0222 H   0  0  0  0  0  0  0  0  0  0  0  0
  142.9698   77.0472  220.0844 H   0  0  0  0  0  0  0  0  0  0  0  0
  142.5354   78.8560  220.0373 H   0  0  0  0  0  0  0  0  0  0  0  0
  141.8876   77.0288  221.9547 H   0  0  0  0  0  0  0  0  0  0  0  0
  140.8681   79.6557  221.3071 H   0  0  0  0  0  0  0  0  0  0  0  0
  143.1507   78.5963  222.9256 H   0  0  0  0  0  0  0  0  0  0  0  0
  143.0574   79.9998  221.7891 H   0  0  0  0  0  0  0  0  0  0  0  0
  142.2463   79.8179  224.6990 H   0  0  0  0  0  0  0  0  0  0  0  0
  143.1749   81.0947  223.8401 H   0  0  0  0  0  0  0  0  0  0  0  0
  139.5455   80.4263  224.5380 H   0  0  0  0  0  0  0  0  0  0  0  0
  139.3673   80.8549  222.7723 H   0  0  0  0  0  0  0  0  0  0  0  0
  140.5662   78.3383  224.0019 H   0  0  0  0  0  0  0  0  0  0  0  0
  139.2705   78.4588  222.8061 H   0  0  0  0  0  0  0  0  0  0  0  0
  139.1100   70.0516  222.3979 H   0  0  0  0  0  0  0  0  0  0  0  0
  138.7615   68.5704  224.3877 H   0  0  0  0  0  0  0  0  0  0  0  0
  139.1094   68.2020  226.7172 H   0  0  0  0  0  0  0  0  0  0  0  0
  140.0048   68.8766  228.9413 H   0  0  0  0  0  0  0  0  0  0  0  0
  141.2383   71.0290  229.0961 H   0  0  0  0  0  0  0  0  0  0  0  0
  141.5717   72.4793  227.1192 H   0  0  0  0  0  0  0  0  0  0  0  0
  1  2  2  0
  2  3  1  0
  3  4  1  0
  4  5  1  0
  5  6  2  0
  5  7  1  0
  7  8  1  0
  8  9  1  0
  9 10  1  0
 10 11  1  0
 11 12  1  0
 12 13  1  0
 13 14  1  0
 14 15  1  0
 15 16  1  0
 16 17  1  0
 17 18  1  0
  2 19  1  0
 19 20  2  0
 20 21  1  0
 21 22  2  0
 22 23  1  0
 23 24  2  0
 24 25  1  0
 25 26  2  0
 26 27  1  0
 27 28  2  0
 12  7  1  0
 18 13  1  0
 28 19  1  0
 27 22  1  0
  3 29  1  0
  4 30  1  0
  4 31  1  0
  8 32  1  0
  8 33  1  0
  9 34  1  0
  9 35  1  0
 10 36  1  0
 10 37  1  0
 11 38  1  0
 11 39  1  0
 12 40  1  1
 13 41  1  0
 14 42  1  0
 14 43  1  0
 15 44  1  0
 15 45  1  0
 17 46  1  0
 17 47  1  0
 18 48  1  0
 18 49  1  0
 20 50  1  0
 21 51  1  0
 23 52  1  0
 24 53  1  0
 25 54  1  0
 26 55  1  0
M  END
>  <smiles>  (77) 
O=C(NCC(=O)N1CCCCC1C1CCOCC1)c1ccc2ccccc2n1

>  <score_type>  (77) 
oracle

>  <origin>  (77) 
autodockgpu

>  <m_score__min__energy>  (77) 
-8.7699999999999996

>  <m_primary>  (77) 
energy

>  <rmsd>  (77) 
1.9580033659816214

>  <m_score__min__rmsd>  (77) 
1.9580033659816214

>  <meeko>  (77) 
{"free_energy": -8.46, "intermolecular_energy": -9.95, "internal_energy": -1.81, "cluster_size": 27, "cluster_id": 2, "rank_in_cluster": 8}

>  <energy>  (77) 
-8.47

>  <cluster_rmsd>  (77) 
1.13

>  <cluster>  (77) 
2

$$$$

     RDKit          3D

 55 58  0  0  0  0  0  0  0  0999 V2000
  140.6590   71.1200  221.2040 O   0  0  0  0  0  0  0  0  0  0  0  0
  140.2820   71.8010  222.1920 C   0  0  0  0  0  0  0  0  0  0  0  0
  139.9510   73.1820  222.1160 N   0  0  0  0  0  0  0  0  0  0  0  0
  140.0570   73.8330  220.8180 C   0  0  0  0  0  0  0  0  0  0  0  0
  140.8550   75.0440  221.0100 C   0  0  0  0  0  0  0  0  0  0  0  0
  140.7920   75.7730  222.0590 O   0  0  0  0  0  0  0  0  0  0  0  0
  141.7960   75.5350  220.0230 N   0  0  0  0  0  0  0  0  0  0  0  0
  142.2590   76.9080  220.2070 C   0  0  0  0  0  0  0  0  0  0  0  0
  142.3650   77.6010  218.8950 C   0  0  0  0  0  0  0  0  0  0  0  0
  141.7210   76.8870  217.7490 C   0  0  0  0  0  0  0  0  0  0  0  0
  142.0030   75.4320  217.6640 C   0  0  0  0  0  0  0  0  0  0  0  0
  142.2420   74.7030  218.9240 C   0  0  1  0  0  0  0  0  0  0  0  0
  143.6260   74.1560  219.0860 C   0  0  0  0  0  0  0  0  0  0  0  0
  143.9640   73.0710  218.1110 C   0  0  0  0  0  0  0  0  0  0  0  0
  145.1440   72.2350  218.6070 C   0  0  0  0  0  0  0  0  0  0  0  0
  146.0140   73.0340  219.2970 O   0  0  0  0  0  0  0  0  0  0  0  0
  145.5420   73.6100  220.4450 C   0  0  0  0  0  0  0  0  0  0  0  0
  144.0120   73.7500  220.4700 C   0  0  0  0  0  0  0  0  0  0  0  0
  140.1710   71.1530  223.5080 C   0  0  0  0  0  0  0  0  0  0  0  0
  139.5580   69.9030  223.6140 C   0  0  0  0  0  0  0  0  0  0  0  0
  139.4370   69.2620  224.8450 C   0  0  0  0  0  0  0  0  0  0  0  0
  139.9500   69.9140  225.9580 C   0  0  0  0  0  0  0  0  0  0  0  0
  139.8550   69.3210  227.1980 C   0  0  0  0  0  0  0  0  0  0  0  0
  140.3460   69.9190  228.3420 C   0  0  0  0  0  0  0  0  0  0  0  0
  140.9450   71.1550  228.1870 C   0  0  0  0  0  0  0  0  0  0  0  0
  141.0600   71.7840  226.9590 C   0  0  0  0  0  0  0  0  0  0  0  0
  140.5550   71.1490  225.8460 C   0  0  0  0  0  0  0  0  0  0  0  0
  140.6440   71.7220  224.6320 N   0  0  0  0  0  0  0  0  0  0  0  0
  139.6360   73.7320  222.9630 H   0  0  0  0  0  0  0  0  0  0  0  0
  140.5529   73.1640  220.0993 H   0  0  0  0  0  0  0  0  0  0  0  0
  139.0614   74.0783  220.4197 H   0  0  0  0  0  0  0  0  0  0  0  0
  141.5448   77.4486  220.8455 H   0  0  0  0  0  0  0  0  0  0  0  0
  143.2514   76.8888  220.6810 H   0  0  0  0  0  0  0  0  0  0  0  0
  141.8907   78.5888  218.9915 H   0  0  0  0  0  0  0  0  0  0  0  0
  143.4385   77.6530  218.6606 H   0  0  0  0  0  0  0  0  0  0  0  0
  140.6323   77.0168  217.8373 H   0  0  0  0  0  0  0  0  0  0  0  0
  142.1475   77.3315  216.8376 H   0  0  0  0  0  0  0  0  0  0  0  0
  141.1416   74.9592  217.1697 H   0  0  0  0  0  0  0  0  0  0  0  0
  142.9571   75.3660  217.1205 H   0  0  0  0  0  0  0  0  0  0  0  0
  141.6447   73.7794  218.9074 H   0  0  0  0  0  0  0  0  0  0  0  0
  144.2410   75.0375  218.8519 H   0  0  0  0  0  0  0  0  0  0  0  0
  143.0887   72.4171  217.9831 H   0  0  0  0  0  0  0  0  0  0  0  0
  144.2421   73.5353  217.1534 H   0  0  0  0  0  0  0  0  0  0  0  0
  144.7753   71.4378  219.2691 H   0  0  0  0  0  0  0  0  0  0  0  0
  145.6626   71.7879  217.7461 H   0  0  0  0  0  0  0  0  0  0  0  0
  145.8498   72.9891  221.2993 H   0  0  0  0  0  0  0  0  0  0  0  0
  145.9630   74.6249  220.4973 H   0  0  0  0  0  0  0  0  0  0  0  0
  143.5425   72.7910  220.7344 H   0  0  0  0  0  0  0  0  0  0  0  0
  143.6816   74.4856  221.2182 H   0  0  0  0  0  0  0  0  0  0  0  0
  139.1638   69.4159  222.7099 H   0  0  0  0  0  0  0  0  0  0  0  0
  138.9538   68.2776  224.9316 H   0  0  0  0  0  0  0  0  0  0  0  0
  139.3710   68.3366  227.2797 H   0  0  0  0  0  0  0  0  0  0  0  0
  140.2645   69.4360  229.3269 H   0  0  0  0  0  0  0  0  0  0  0  0
  141.3475   71.6604  229.0772 H   0  0  0  0  0  0  0  0  0  0  0  0
  141.5436   72.7683  226.8742 H   0  0  0  0  0  0  0  0  0  0  0  0
  1  2  2  0
  2  3  1  0
  3  4  1  0
  4  5  1  0
  5  6  2  0
  5  7  1  0
  7  8  1  0
  8  9  1  0
  9 10  1  0
 10 11  1  0
 11 12  1  0
 12 13  1  0
 13 14  1  0
 14 15  1  0
 15 16  1  0
 16 17  1  0
 17 18  1  0
  2 19  1  0
 19 20  2  0
 20 21  1  0
 21 22  2  0
 22 23  1  0
 23 24  2  0
 24 25  1  0
 25 26  2  0
 26 27  1  0
 27 28  2  0
 12  7  1  0
 18 13  1  0
 28 19  1  0
 27 22  1  0
  3 29  1  0
  4 30  1  0
  4 31  1  0
  8 32  1  0
  8 33  1  0
  9 34  1  0
  9 35  1  0
 10 36  1  0
 10 37  1  0
 11 38  1  0
 11 39  1  0
 12 40  1  6
 13 41  1  0
 14 42  1  0
 14 43  1  0
 15 44  1  0
 15 45  1  0
 17 46  1  0
 17 47  1  0
 18 48  1  0
 18 49  1  0
 20 50  1  0
 21 51  1  0
 23 52  1  0
 24 53  1  0
 25 54  1  0
 26 55  1  0
M  END
>  <smiles>  (78) 
O=C(NCC(=O)N1CCCCC1C1CCOCC1)c1ccc2ccccc2n1

>  <score_type>  (78) 
oracle

>  <origin>  (78) 
autodockgpu

>  <m_score__min__energy>  (78) 
-8.7699999999999996

>  <m_primary>  (78) 
energy

>  <rmsd>  (78) 
2.306428016263581

>  <m_score__min__rmsd>  (78) 
2.306428016263581

>  <meeko>  (78) 
{"free_energy": -8.44, "intermolecular_energy": -9.93, "internal_energy": -1.79, "cluster_size": 21, "cluster_id": 1, "rank_in_cluster": 17}

>  <energy>  (78) 
-8.47

>  <cluster_rmsd>  (78) 
1.19

>  <cluster>  (78) 
2

$$$$

     RDKit          3D

 55 58  0  0  0  0  0  0  0  0999 V2000
  140.4580   75.3020  220.6740 O   0  0  0  0  0  0  0  0  0  0  0  0
  139.7700   75.6770  221.6580 C   0  0  0  0  0  0  0  0  0  0  0  0
  138.7730   74.8720  222.2750 N   0  0  0  0  0  0  0  0  0  0  0  0
  138.5460   73.5410  221.7280 C   0  0  0  0  0  0  0  0  0  0  0  0
  139.5210   72.6480  222.3550 C   0  0  0  0  0  0  0  0  0  0  0  0
  140.6980   73.0150  222.6940 O   0  0  0  0  0  0  0  0  0  0  0  0
  139.2420   71.2580  222.6510 N   0  0  0  0  0  0  0  0  0  0  0  0
  139.6200   70.2950  221.6190 C   0  0  0  0  0  0  0  0  0  0  0  0
  138.5890   69.2300  221.4990 C   0  0  0  0  0  0  0  0  0  0  0  0
  137.3030   69.5120  222.2070 C   0  0  0  0  0  0  0  0  0  0  0  0
  137.4360   70.0410  223.5880 C   0  0  0  0  0  0  0  0  0  0  0  0
  138.6240   70.8580  223.8990 C   0  0  1  0  0  0  0  0  0  0  0  0
  139.5670   70.2520  224.8890 C   0  0  0  0  0  0  0  0  0  0  0  0
  138.9660   69.1430  225.6960 C   0  0  0  0  0  0  0  0  0  0  0  0
  139.7650   68.8980  226.9760 C   0  0  0  0  0  0  0  0  0  0  0  0
  141.0930   69.1290  226.7390 O   0  0  0  0  0  0  0  0  0  0  0  0
  141.4440   70.4060  226.3970 C   0  0  0  0  0  0  0  0  0  0  0  0
  140.2880   71.2100  225.7800 C   0  0  0  0  0  0  0  0  0  0  0  0
  139.9940   77.0190  222.2180 C   0  0  0  0  0  0  0  0  0  0  0  0
  138.9120   77.7530  222.7080 C   0  0  0  0  0  0  0  0  0  0  0  0
  139.0910   79.0270  223.2450 C   0  0  0  0  0  0  0  0  0  0  0  0
  140.3830   79.5340  223.2740 C   0  0  0  0  0  0  0  0  0  0  0  0
  140.6100   80.7880  223.7950 C   0  0  0  0  0  0  0  0  0  0  0  0
  141.8720   81.3470  223.8510 C   0  0  0  0  0  0  0  0  0  0  0  0
  142.9100   80.5820  223.3550 C   0  0  0  0  0  0  0  0  0  0  0  0
  142.7230   79.3170  222.8230 C   0  0  0  0  0  0  0  0  0  0  0  0
  141.4470   78.8020  222.7880 C   0  0  0  0  0  0  0  0  0  0  0  0
  141.2170   77.5780  222.2810 N   0  0  0  0  0  0  0  0  0  0  0  0
  138.2090   75.2110  223.1020 H   0  0  0  0  0  0  0  0  0  0  0  0
  137.5240   73.2067  221.9598 H   0  0  0  0  0  0  0  0  0  0  0  0
  138.6613   73.5416  220.6341 H   0  0  0  0  0  0  0  0  0  0  0  0
  139.7162   70.8162  220.6551 H   0  0  0  0  0  0  0  0  0  0  0  0
  140.5787   69.8329  221.8971 H   0  0  0  0  0  0  0  0  0  0  0  0
  138.3666   69.0893  220.4309 H   0  0  0  0  0  0  0  0  0  0  0  0
  139.0139   68.3358  221.9785 H   0  0  0  0  0  0  0  0  0  0  0  0
  136.7444   70.2507  221.6135 H   0  0  0  0  0  0  0  0  0  0  0  0
  136.7923   68.5425  222.3030 H   0  0  0  0  0  0  0  0  0  0  0  0
  136.5497   70.6607  223.7890 H   0  0  0  0  0  0  0  0  0  0  0  0
  137.5417   69.1461  224.2189 H   0  0  0  0  0  0  0  0  0  0  0  0
  138.2927   71.7572  224.4390 H   0  0  0  0  0  0  0  0  0  0  0  0
  140.3347   69.8244  224.2273 H   0  0  0  0  0  0  0  0  0  0  0  0
  137.9334   69.4119  225.9631 H   0  0  0  0  0  0  0  0  0  0  0  0
  138.9824   68.2234  225.0926 H   0  0  0  0  0  0  0  0  0  0  0  0
  139.4102   69.5776  227.7649 H   0  0  0  0  0  0  0  0  0  0  0  0
  139.6273   67.8555  227.2990 H   0  0  0  0  0  0  0  0  0  0  0  0
  141.7880   70.9278  227.3022 H   0  0  0  0  0  0  0  0  0  0  0  0
  142.2337   70.3337  225.6347 H   0  0  0  0  0  0  0  0  0  0  0  0
  139.6162   71.5832  226.5670 H   0  0  0  0  0  0  0  0  0  0  0  0
  140.6514   72.0881  225.2261 H   0  0  0  0  0  0  0  0  0  0  0  0
  137.9020   77.3190  222.6697 H   0  0  0  0  0  0  0  0  0  0  0  0
  138.2408   79.6084  223.6311 H   0  0  0  0  0  0  0  0  0  0  0  0
  139.7564   81.3651  224.1802 H   0  0  0  0  0  0  0  0  0  0  0  0
  142.0418   82.3501  224.2692 H   0  0  0  0  0  0  0  0  0  0  0  0
  143.9289   80.9954  223.3838 H   0  0  0  0  0  0  0  0  0  0  0  0
  143.5746   78.7372  222.4373 H   0  0  0  0  0  0  0  0  0  0  0  0
  1  2  2  0
  2  3  1  0
  3  4  1  0
  4  5  1  0
  5  6  2  0
  5  7  1  0
  7  8  1  0
  8  9  1  0
  9 10  1  0
 10 11  1  0
 11 12  1  0
 12 13  1  0
 13 14  1  0
 14 15  1  0
 15 16  1  0
 16 17  1  0
 17 18  1  0
  2 19  1  0
 19 20  2  0
 20 21  1  0
 21 22  2  0
 22 23  1  0
 23 24  2  0
 24 25  1  0
 25 26  2  0
 26 27  1  0
 27 28  2  0
 12  7  1  0
 18 13  1  0
 28 19  1  0
 27 22  1  0
  3 29  1  0
  4 30  1  0
  4 31  1  0
  8 32  1  0
  8 33  1  0
  9 34  1  0
  9 35  1  0
 10 36  1  0
 10 37  1  0
 11 38  1  0
 11 39  1  0
 12 40  1  1
 13 41  1  0
 14 42  1  0
 14 43  1  0
 15 44  1  0
 15 45  1  0
 17 46  1  0
 17 47  1  0
 18 48  1  0
 18 49  1  0
 20 50  1  0
 21 51  1  0
 23 52  1  0
 24 53  1  0
 25 54  1  0
 26 55  1  0
M  END
>  <smiles>  (79) 
O=C(NCC(=O)N1CCCCC1C1CCOCC1)c1ccc2ccccc2n1

>  <score_type>  (79) 
oracle

>  <origin>  (79) 
autodockgpu

>  <m_score__min__energy>  (79) 
-8.7699999999999996

>  <m_primary>  (79) 
energy

>  <rmsd>  (79) 
8.190989269566703

>  <m_score__min__rmsd>  (79) 
8.190989269566703

>  <meeko>  (79) 
{"free_energy": -8.11, "intermolecular_energy": -9.6, "internal_energy": -1.27, "cluster_size": 2, "cluster_id": 3, "rank_in_cluster": 1}

>  <energy>  (79) 
-8.46

>  <cluster_rmsd>  (79) 
1.2

>  <cluster>  (79) 
2

$$$$

     RDKit          3D

 55 58  0  0  0  0  0  0  0  0999 V2000
  140.5770   71.4590  221.2490 O   0  0  0  0  0  0  0  0  0  0  0  0
  140.2160   72.0670  222.2900 C   0  0  0  0  0  0  0  0  0  0  0  0
  139.8410   73.4380  222.3100 N   0  0  0  0  0  0  0  0  0  0  0  0
  139.8800   74.1690  221.0510 C   0  0  0  0  0  0  0  0  0  0  0  0
  141.0370   75.0640  221.1110 C   0  0  0  0  0  0  0  0  0  0  0  0
  141.3990   75.6800  222.1720 O   0  0  0  0  0  0  0  0  0  0  0  0
  141.8830   75.3380  219.9670 N   0  0  0  0  0  0  0  0  0  0  0  0
  142.4560   76.6800  219.9020 C   0  0  0  0  0  0  0  0  0  0  0  0
  142.4500   77.1800  218.5010 C   0  0  0  0  0  0  0  0  0  0  0  0
  141.6270   76.3760  217.5460 C   0  0  0  0  0  0  0  0  0  0  0  0
  141.7970   74.9040  217.6380 C   0  0  0  0  0  0  0  0  0  0  0  0
  142.1360   74.3330  218.9550 C   0  0  1  0  0  0  0  0  0  0  0  0
  143.4890   73.6980  219.0400 C   0  0  0  0  0  0  0  0  0  0  0  0
  144.1380   73.8380  220.3820 C   0  0  0  0  0  0  0  0  0  0  0  0
  145.6490   73.6260  220.2870 C   0  0  0  0  0  0  0  0  0  0  0  0
  145.9220   72.6940  219.3240 O   0  0  0  0  0  0  0  0  0  0  0  0
  145.5750   73.0150  218.0400 C   0  0  0  0  0  0  0  0  0  0  0  0
  144.4520   74.0610  217.9570 C   0  0  0  0  0  0  0  0  0  0  0  0
  140.1730   71.3370  223.5670 C   0  0  0  0  0  0  0  0  0  0  0  0
  139.6330   70.0500  223.6100 C   0  0  0  0  0  0  0  0  0  0  0  0
  139.5780   69.3330  224.8030 C   0  0  0  0  0  0  0  0  0  0  0  0
  140.0790   69.9470  225.9430 C   0  0  0  0  0  0  0  0  0  0  0  0
  140.0470   69.2780  227.1460 C   0  0  0  0  0  0  0  0  0  0  0  0
  140.5300   69.8350  228.3140 C   0  0  0  0  0  0  0  0  0  0  0  0
  141.0550   71.1100  228.2210 C   0  0  0  0  0  0  0  0  0  0  0  0
  141.1060   71.8160  227.0310 C   0  0  0  0  0  0  0  0  0  0  0  0
  140.6110   71.2180  225.8920 C   0  0  0  0  0  0  0  0  0  0  0  0
  140.6400   71.8660  224.7130 N   0  0  0  0  0  0  0  0  0  0  0  0
  139.5410   73.9260  223.1990 H   0  0  0  0  0  0  0  0  0  0  0  0
  139.9881   73.4678  220.2103 H   0  0  0  0  0  0  0  0  0  0  0  0
  138.9511   74.7382  220.8988 H   0  0  0  0  0  0  0  0  0  0  0  0
  141.8616   77.3586  220.5314 H   0  0  0  0  0  0  0  0  0  0  0  0
  143.4946   76.6420  220.2625 H   0  0  0  0  0  0  0  0  0  0  0  0
  142.0583   78.2079  218.5073 H   0  0  0  0  0  0  0  0  0  0  0  0
  143.4886   77.1103  218.1455 H   0  0  0  0  0  0  0  0  0  0  0  0
  140.5680   76.6072  217.7334 H   0  0  0  0  0  0  0  0  0  0  0  0
  141.9710   76.6574  216.5398 H   0  0  0  0  0  0  0  0  0  0  0  0
  140.8521   74.4435  217.3139 H   0  0  0  0  0  0  0  0  0  0  0  0
  142.6715   74.6856  217.0074 H   0  0  0  0  0  0  0  0  0  0  0  0
  141.4793   73.4692  219.1358 H   0  0  0  0  0  0  0  0  0  0  0  0
  143.2460   72.6372  218.8801 H   0  0  0  0  0  0  0  0  0  0  0  0
  143.9406   74.8470  220.7731 H   0  0  0  0  0  0  0  0  0  0  0  0
  143.7195   73.0743  221.0541 H   0  0  0  0  0  0  0  0  0  0  0  0
  146.1363   74.5767  220.0249 H   0  0  0  0  0  0  0  0  0  0  0  0
  146.0298   73.2719  221.2563 H   0  0  0  0  0  0  0  0  0  0  0  0
  146.4628   73.4146  217.5279 H   0  0  0  0  0  0  0  0  0  0  0  0
  145.2004   72.0965  217.5645 H   0  0  0  0  0  0  0  0  0  0  0  0
  144.8543   75.0713  218.1228 H   0  0  0  0  0  0  0  0  0  0  0  0
  143.9711   74.0665  216.9677 H   0  0  0  0  0  0  0  0  0  0  0  0
  139.2447   69.5950  222.6868 H   0  0  0  0  0  0  0  0  0  0  0  0
  139.1537   68.3188  224.8404 H   0  0  0  0  0  0  0  0  0  0  0  0
  139.6217   68.2640  227.1780 H   0  0  0  0  0  0  0  0  0  0  0  0
  140.4984   69.2913  229.2697 H   0  0  0  0  0  0  0  0  0  0  0  0
  141.4494   71.5844  229.1317 H   0  0  0  0  0  0  0  0  0  0  0  0
  141.5314   72.8298  226.9954 H   0  0  0  0  0  0  0  0  0  0  0  0
  1  2  2  0
  2  3  1  0
  3  4  1  0
  4  5  1  0
  5  6  2  0
  5  7  1  0
  7  8  1  0
  8  9  1  0
  9 10  1  0
 10 11  1  0
 11 12  1  0
 12 13  1  0
 13 14  1  0
 14 15  1  0
 15 16  1  0
 16 17  1  0
 17 18  1  0
  2 19  1  0
 19 20  2  0
 20 21  1  0
 21 22  2  0
 22 23  1  0
 23 24  2  0
 24 25  1  0
 25 26  2  0
 26 27  1  0
 27 28  2  0
 12  7  1  0
 18 13  1  0
 28 19  1  0
 27 22  1  0
  3 29  1  0
  4 30  1  0
  4 31  1  0
  8 32  1  0
  8 33  1  0
  9 34  1  0
  9 35  1  0
 10 36  1  0
 10 37  1  0
 11 38  1  0
 11 39  1  0
 12 40  1  1
 13 41  1  0
 14 42  1  0
 14 43  1  0
 15 44  1  0
 15 45  1  0
 17 46  1  0
 17 47  1  0
 18 48  1  0
 18 49  1  0
 20 50  1  0
 21 51  1  0
 23 52  1  0
 24 53  1  0
 25 54  1  0
 26 55  1  0
M  END
>  <smiles>  (80) 
O=C(NCC(=O)N1CCCCC1C1CCOCC1)c1ccc2ccccc2n1

>  <score_type>  (80) 
oracle

>  <origin>  (80) 
autodockgpu

>  <m_score__min__energy>  (80) 
-8.7699999999999996

>  <m_primary>  (80) 
energy

>  <rmsd>  (80) 
2.3312242076557688

>  <m_score__min__rmsd>  (80) 
2.3312242076557688

>  <meeko>  (80) 
{"free_energy": -8.3, "intermolecular_energy": -9.79, "internal_energy": -1.72, "cluster_size": 21, "cluster_id": 1, "rank_in_cluster": 18}

>  <energy>  (80) 
-8.46

>  <cluster_rmsd>  (80) 
1.19

>  <cluster>  (80) 
2

$$$$

     RDKit          3D

 55 58  0  0  0  0  0  0  0  0999 V2000
  141.2520   71.9330  221.4120 O   0  0  0  0  0  0  0  0  0  0  0  0
  140.5470   72.3860  222.3500 C   0  0  0  0  0  0  0  0  0  0  0  0
  139.9640   73.6830  222.3410 N   0  0  0  0  0  0  0  0  0  0  0  0
  140.2030   74.5240  221.1750 C   0  0  0  0  0  0  0  0  0  0  0  0
  139.6840   75.8550  221.4940 C   0  0  0  0  0  0  0  0  0  0  0  0
  138.7820   76.0690  222.3750 O   0  0  0  0  0  0  0  0  0  0  0  0
  140.1450   77.0600  220.8360 N   0  0  0  0  0  0  0  0  0  0  0  0
  139.2650   77.6040  219.8050 C   0  0  0  0  0  0  0  0  0  0  0  0
  140.0610   78.1100  218.6550 C   0  0  0  0  0  0  0  0  0  0  0  0
  141.5010   77.7050  218.6570 C   0  0  0  0  0  0  0  0  0  0  0  0
  142.2020   77.8440  219.9580 C   0  0  0  0  0  0  0  0  0  0  0  0
  141.4070   77.6790  221.1890 C   0  0  1  0  0  0  0  0  0  0  0  0
  141.2760   78.9120  222.0280 C   0  0  0  0  0  0  0  0  0  0  0  0
  142.5810   79.4260  222.5520 C   0  0  0  0  0  0  0  0  0  0  0  0
  142.3660   80.3460  223.7540 C   0  0  0  0  0  0  0  0  0  0  0  0
  141.2000   81.0440  223.5950 O   0  0  0  0  0  0  0  0  0  0  0  0
  140.0450   80.3120  223.5580 C   0  0  0  0  0  0  0  0  0  0  0  0
  140.2620   78.8540  223.1240 C   0  0  0  0  0  0  0  0  0  0  0  0
  140.2990   71.5440  223.5310 C   0  0  0  0  0  0  0  0  0  0  0  0
  139.6150   70.3350  223.3870 C   0  0  0  0  0  0  0  0  0  0  0  0
  139.3650   69.5150  224.4860 C   0  0  0  0  0  0  0  0  0  0  0  0
  139.8220   69.9470  225.7230 C   0  0  0  0  0  0  0  0  0  0  0  0
  139.5990   69.1710  226.8390 C   0  0  0  0  0  0  0  0  0  0  0  0
  140.0270   69.5460  228.0970 C   0  0  0  0  0  0  0  0  0  0  0  0
  140.7000   70.7500  228.1890 C   0  0  0  0  0  0  0  0  0  0  0  0
  140.9440   71.5590  227.0920 C   0  0  0  0  0  0  0  0  0  0  0  0
  140.4960   71.1420  225.8580 C   0  0  0  0  0  0  0  0  0  0  0  0
  140.7110   71.8950  224.7630 N   0  0  0  0  0  0  0  0  0  0  0  0
  139.3740   74.0410  223.1420 H   0  0  0  0  0  0  0  0  0  0  0  0
  141.2811   74.5795  220.9638 H   0  0  0  0  0  0  0  0  0  0  0  0
  139.7056   74.1116  220.2848 H   0  0  0  0  0  0  0  0  0  0  0  0
  138.5854   76.8131  219.4548 H   0  0  0  0  0  0  0  0  0  0  0  0
  138.6883   78.4373  220.2328 H   0  0  0  0  0  0  0  0  0  0  0  0
  139.6016   77.7328  217.7295 H   0  0  0  0  0  0  0  0  0  0  0  0
  140.0498   79.2073  218.7319 H   0  0  0  0  0  0  0  0  0  0  0  0
  141.5566   76.6493  218.3532 H   0  0  0  0  0  0  0  0  0  0  0  0
  142.0092   78.3928  217.9651 H   0  0  0  0  0  0  0  0  0  0  0  0
  143.0028   77.0902  219.9812 H   0  0  0  0  0  0  0  0  0  0  0  0
  142.5353   78.8920  219.9822 H   0  0  0  0  0  0  0  0  0  0  0  0
  141.9572   77.0118  221.8688 H   0  0  0  0  0  0  0  0  0  0  0  0
  140.8847   79.6362  221.2983 H   0  0  0  0  0  0  0  0  0  0  0  0
  143.2059   78.5742  222.8585 H   0  0  0  0  0  0  0  0  0  0  0  0
  143.0759   80.0009  221.7554 H   0  0  0  0  0  0  0  0  0  0  0  0
  142.3089   79.7421  224.6716 H   0  0  0  0  0  0  0  0  0  0  0  0
  143.2067   81.0514  223.8291 H   0  0  0  0  0  0  0  0  0  0  0  0
  139.5982   80.3141  224.5632 H   0  0  0  0  0  0  0  0  0  0  0  0
  139.3872   80.7796  222.8105 H   0  0  0  0  0  0  0  0  0  0  0  0
  140.6389   78.2542  223.9655 H   0  0  0  0  0  0  0  0  0  0  0  0
  139.3256   78.3833  222.7899 H   0  0  0  0  0  0  0  0  0  0  0  0
  139.2680   70.0249  222.3903 H   0  0  0  0  0  0  0  0  0  0  0  0
  138.8262   68.5622  224.3770 H   0  0  0  0  0  0  0  0  0  0  0  0
  139.0608   68.2186  226.7239 H   0  0  0  0  0  0  0  0  0  0  0  0
  139.8418   68.9185  228.9813 H   0  0  0  0  0  0  0  0  0  0  0  0
  141.0570   71.0795  229.1759 H   0  0  0  0  0  0  0  0  0  0  0  0
  141.4826   72.5116  227.2033 H   0  0  0  0  0  0  0  0  0  0  0  0
  1  2  2  0
  2  3  1  0
  3  4  1  0
  4  5  1  0
  5  6  2  0
  5  7  1  0
  7  8  1  0
  8  9  1  0
  9 10  1  0
 10 11  1  0
 11 12  1  0
 12 13  1  0
 13 14  1  0
 14 15  1  0
 15 16  1  0
 16 17  1  0
 17 18  1  0
  2 19  1  0
 19 20  2  0
 20 21  1  0
 21 22  2  0
 22 23  1  0
 23 24  2  0
 24 25  1  0
 25 26  2  0
 26 27  1  0
 27 28  2  0
 12  7  1  0
 18 13  1  0
 28 19  1  0
 27 22  1  0
  3 29  1  0
  4 30  1  0
  4 31  1  0
  8 32  1  0
  8 33  1  0
  9 34  1  0
  9 35  1  0
 10 36  1  0
 10 37  1  0
 11 38  1  0
 11 39  1  0
 12 40  1  1
 13 41  1  0
 14 42  1  0
 14 43  1  0
 15 44  1  0
 15 45  1  0
 17 46  1  0
 17 47  1  0
 18 48  1  0
 18 49  1  0
 20 50  1  0
 21 51  1  0
 23 52  1  0
 24 53  1  0
 25 54  1  0
 26 55  1  0
M  END
>  <smiles>  (81) 
O=C(NCC(=O)N1CCCCC1C1CCOCC1)c1ccc2ccccc2n1

>  <score_type>  (81) 
oracle

>  <origin>  (81) 
autodockgpu

>  <m_score__min__energy>  (81) 
-8.7699999999999996

>  <m_primary>  (81) 
energy

>  <rmsd>  (81) 
1.9923225028663214

>  <m_score__min__rmsd>  (81) 
1.9923225028663214

>  <meeko>  (81) 
{"free_energy": -8.4, "intermolecular_energy": -9.9, "internal_energy": -1.82, "cluster_size": 27, "cluster_id": 2, "rank_in_cluster": 13}

>  <energy>  (81) 
-8.45

>  <cluster_rmsd>  (81) 
1.19

>  <cluster>  (81) 
2

$$$$

     RDKit          3D

 55 58  0  0  0  0  0  0  0  0999 V2000
  139.8130   71.1490  221.2350 O   0  0  0  0  0  0  0  0  0  0  0  0
  139.6630   71.8140  222.2910 C   0  0  0  0  0  0  0  0  0  0  0  0
  139.3410   73.1990  222.3110 N   0  0  0  0  0  0  0  0  0  0  0  0
  139.1790   73.8740  221.0300 C   0  0  0  0  0  0  0  0  0  0  0  0
  139.7000   75.2320  221.1930 C   0  0  0  0  0  0  0  0  0  0  0  0
  139.0760   76.1570  221.8180 O   0  0  0  0  0  0  0  0  0  0  0  0
  140.9760   75.6580  220.6560 N   0  0  0  0  0  0  0  0  0  0  0  0
  141.4660   76.9540  221.1190 C   0  0  0  0  0  0  0  0  0  0  0  0
  142.1050   77.6980  220.0010 C   0  0  0  0  0  0  0  0  0  0  0  0
  141.8600   77.1290  218.6400 C   0  0  0  0  0  0  0  0  0  0  0  0
  142.0170   75.6570  218.5250 C   0  0  0  0  0  0  0  0  0  0  0  0
  141.7120   74.8390  219.7140 C   0  0  1  0  0  0  0  0  0  0  0  0
  142.8850   74.1220  220.3060 C   0  0  0  0  0  0  0  0  0  0  0  0
  144.1670   74.8930  220.2290 C   0  0  0  0  0  0  0  0  0  0  0  0
  145.3750   73.9690  220.3820 C   0  0  0  0  0  0  0  0  0  0  0  0
  145.0670   72.9510  221.2430 O   0  0  0  0  0  0  0  0  0  0  0  0
  144.0730   72.0950  220.8540 C   0  0  0  0  0  0  0  0  0  0  0  0
  143.0960   72.7170  219.8440 C   0  0  0  0  0  0  0  0  0  0  0  0
  139.8230   71.1420  223.5900 C   0  0  0  0  0  0  0  0  0  0  0  0
  139.4820   69.7940  223.7180 C   0  0  0  0  0  0  0  0  0  0  0  0
  139.6230   69.1280  224.9340 C   0  0  0  0  0  0  0  0  0  0  0  0
  140.1150   69.8560  226.0090 C   0  0  0  0  0  0  0  0  0  0  0  0
  140.2720   69.2420  227.2310 C   0  0  0  0  0  0  0  0  0  0  0  0
  140.7560   69.9130  228.3380 C   0  0  0  0  0  0  0  0  0  0  0  0
  141.0810   71.2440  228.1620 C   0  0  0  0  0  0  0  0  0  0  0  0
  140.9380   71.8980  226.9490 C   0  0  0  0  0  0  0  0  0  0  0  0
  140.4500   71.1870  225.8750 C   0  0  0  0  0  0  0  0  0  0  0  0
  140.2940   71.7800  224.6770 N   0  0  0  0  0  0  0  0  0  0  0  0
  139.2200   73.7360  223.2130 H   0  0  0  0  0  0  0  0  0  0  0  0
  139.7442   73.3437  220.2494 H   0  0  0  0  0  0  0  0  0  0  0  0
  138.1217   73.8929  220.7272 H   0  0  0  0  0  0  0  0  0  0  0  0
  140.6222   77.5417  221.5096 H   0  0  0  0  0  0  0  0  0  0  0  0
  142.2123   76.7905  221.9104 H   0  0  0  0  0  0  0  0  0  0  0  0
  141.7210   78.7287  220.0139 H   0  0  0  0  0  0  0  0  0  0  0  0
  143.1900   77.6333  220.1699 H   0  0  0  0  0  0  0  0  0  0  0  0
  140.8311   77.3841  218.3462 H   0  0  0  0  0  0  0  0  0  0  0  0
  142.6291   77.5668  217.9867 H   0  0  0  0  0  0  0  0  0  0  0  0
  141.3544   75.3184  217.7148 H   0  0  0  0  0  0  0  0  0  0  0  0
  143.0927   75.5052  218.3522 H   0  0  0  0  0  0  0  0  0  0  0  0
  141.0779   73.9970  219.3993 H   0  0  0  0  0  0  0  0  0  0  0  0
  142.5869   74.0476  221.3622 H   0  0  0  0  0  0  0  0  0  0  0  0
  144.2235   75.3997  219.2543 H   0  0  0  0  0  0  0  0  0  0  0  0
  144.1828   75.6272  221.0480 H   0  0  0  0  0  0  0  0  0  0  0  0
  145.6425   73.5503  219.4006 H   0  0  0  0  0  0  0  0  0  0  0  0
  146.2250   74.5415  220.7817 H   0  0  0  0  0  0  0  0  0  0  0  0
  144.5352   71.2097  220.3929 H   0  0  0  0  0  0  0  0  0  0  0  0
  143.4931   71.8390  221.7530 H   0  0  0  0  0  0  0  0  0  0  0  0
  143.5293   72.7057  218.8330 H   0  0  0  0  0  0  0  0  0  0  0  0
  142.1502   72.1576  219.7935 H   0  0  0  0  0  0  0  0  0  0  0  0
  139.0956   69.2486  222.8444 H   0  0  0  0  0  0  0  0  0  0  0  0
  139.3548   68.0663  225.0381 H   0  0  0  0  0  0  0  0  0  0  0  0
  140.0028   68.1800  227.3298 H   0  0  0  0  0  0  0  0  0  0  0  0
  140.8763   69.4125  229.3101 H   0  0  0  0  0  0  0  0  0  0  0  0
  141.4701   71.8090  229.0219 H   0  0  0  0  0  0  0  0  0  0  0  0
  141.2077   72.9595  226.8461 H   0  0  0  0  0  0  0  0  0  0  0  0
  1  2  2  0
  2  3  1  0
  3  4  1  0
  4  5  1  0
  5  6  2  0
  5  7  1  0
  7  8  1  0
  8  9  1  0
  9 10  1  0
 10 11  1  0
 11 12  1  0
 12 13  1  0
 13 14  1  0
 14 15  1  0
 15 16  1  0
 16 17  1  0
 17 18  1  0
  2 19  1  0
 19 20  2  0
 20 21  1  0
 21 22  2  0
 22 23  1  0
 23 24  2  0
 24 25  1  0
 25 26  2  0
 26 27  1  0
 27 28  2  0
 12  7  1  0
 18 13  1  0
 28 19  1  0
 27 22  1  0
  3 29  1  0
  4 30  1  0
  4 31  1  0
  8 32  1  0
  8 33  1  0
  9 34  1  0
  9 35  1  0
 10 36  1  0
 10 37  1  0
 11 38  1  0
 11 39  1  0
 12 40  1  6
 13 41  1  0
 14 42  1  0
 14 43  1  0
 15 44  1  0
 15 45  1  0
 17 46  1  0
 17 47  1  0
 18 48  1  0
 18 49  1  0
 20 50  1  0
 21 51  1  0
 23 52  1  0
 24 53  1  0
 25 54  1  0
 26 55  1  0
M  END
>  <smiles>  (82) 
O=C(NCC(=O)N1CCCCC1C1CCOCC1)c1ccc2ccccc2n1

>  <score_type>  (82) 
oracle

>  <origin>  (82) 
autodockgpu

>  <m_score__min__energy>  (82) 
-8.7699999999999996

>  <m_primary>  (82) 
energy

>  <rmsd>  (82) 
2.1962371701328594

>  <m_score__min__rmsd>  (82) 
2.1962371701328594

>  <meeko>  (82) 
{"free_energy": -7.79, "intermolecular_energy": -9.28, "internal_energy": -1.8, "cluster_size": 21, "cluster_id": 1, "rank_in_cluster": 20}

>  <energy>  (82) 
-8.44

>  <cluster_rmsd>  (82) 
1.2

>  <cluster>  (82) 
2

$$$$

     RDKit          3D

 55 58  0  0  0  0  0  0  0  0999 V2000
  141.4110   72.0740  221.5600 O   0  0  0  0  0  0  0  0  0  0  0  0
  140.5800   72.4570  222.4240 C   0  0  0  0  0  0  0  0  0  0  0  0
  139.8910   73.6980  222.3570 N   0  0  0  0  0  0  0  0  0  0  0  0
  140.1690   74.5660  221.2210 C   0  0  0  0  0  0  0  0  0  0  0  0
  139.6830   75.9010  221.5720 C   0  0  0  0  0  0  0  0  0  0  0  0
  138.8280   76.1200  222.4980 O   0  0  0  0  0  0  0  0  0  0  0  0
  140.1270   77.1050  220.9000 N   0  0  0  0  0  0  0  0  0  0  0  0
  139.2270   77.6380  219.8800 C   0  0  0  0  0  0  0  0  0  0  0  0
  140.0020   78.1410  218.7150 C   0  0  0  0  0  0  0  0  0  0  0  0
  141.4440   77.7440  218.6950 C   0  0  0  0  0  0  0  0  0  0  0  0
  142.1660   77.8950  219.9840 C   0  0  0  0  0  0  0  0  0  0  0  0
  141.3910   77.7330  221.2280 C   0  0  1  0  0  0  0  0  0  0  0  0
  141.2670   78.9690  222.0620 C   0  0  0  0  0  0  0  0  0  0  0  0
  142.5680   79.4470  222.6300 C   0  0  0  0  0  0  0  0  0  0  0  0
  142.3390   80.3750  223.8240 C   0  0  0  0  0  0  0  0  0  0  0  0
  141.1990   81.1050  223.6260 O   0  0  0  0  0  0  0  0  0  0  0  0
  140.0260   80.4060  223.5490 C   0  0  0  0  0  0  0  0  0  0  0  0
  140.2160   78.9420  223.1230 C   0  0  0  0  0  0  0  0  0  0  0  0
  140.2920   71.5870  223.5750 C   0  0  0  0  0  0  0  0  0  0  0  0
  139.5850   70.3980  223.3840 C   0  0  0  0  0  0  0  0  0  0  0  0
  139.2970   69.5520  224.4540 C   0  0  0  0  0  0  0  0  0  0  0  0
  139.7390   69.9380  225.7120 C   0  0  0  0  0  0  0  0  0  0  0  0
  139.4780   69.1350  226.8000 C   0  0  0  0  0  0  0  0  0  0  0  0
  139.8910   69.4650  228.0760 C   0  0  0  0  0  0  0  0  0  0  0  0
  140.5880   70.6500  228.2150 C   0  0  0  0  0  0  0  0  0  0  0  0
  140.8700   71.4850  227.1470 C   0  0  0  0  0  0  0  0  0  0  0  0
  140.4370   71.1140  225.8930 C   0  0  0  0  0  0  0  0  0  0  0  0
  140.6880   71.8930  224.8240 N   0  0  0  0  0  0  0  0  0  0  0  0
  139.1970   73.9970  223.0970 H   0  0  0  0  0  0  0  0  0  0  0  0
  141.2511   74.5974  221.0258 H   0  0  0  0  0  0  0  0  0  0  0  0
  139.6722   74.1942  220.3127 H   0  0  0  0  0  0  0  0  0  0  0  0
  138.5463   76.8413  219.5455 H   0  0  0  0  0  0  0  0  0  0  0  0
  138.6522   78.4705  220.3119 H   0  0  0  0  0  0  0  0  0  0  0  0
  139.5295   77.7561  217.7992 H   0  0  0  0  0  0  0  0  0  0  0  0
  139.9867   79.2385  218.7868 H   0  0  0  0  0  0  0  0  0  0  0  0
  141.5005   76.6867  218.3966 H   0  0  0  0  0  0  0  0  0  0  0  0
  141.9367   78.4301  217.9904 H   0  0  0  0  0  0  0  0  0  0  0  0
  142.9713   77.1458  219.9990 H   0  0  0  0  0  0  0  0  0  0  0  0
  142.4948   78.9446  219.9966 H   0  0  0  0  0  0  0  0  0  0  0  0
  141.9559   77.0722  221.9020 H   0  0  0  0  0  0  0  0  0  0  0  0
  140.9209   79.7024  221.3188 H   0  0  0  0  0  0  0  0  0  0  0  0
  143.1577   78.5783  222.9579 H   0  0  0  0  0  0  0  0  0  0  0  0
  143.1054   80.0066  221.8502 H   0  0  0  0  0  0  0  0  0  0  0  0
  142.2347   79.7744  224.7397 H   0  0  0  0  0  0  0  0  0  0  0  0
  143.1961   81.0568  223.9264 H   0  0  0  0  0  0  0  0  0  0  0  0
  139.5449   80.4219  224.5381 H   0  0  0  0  0  0  0  0  0  0  0  0
  139.4083   80.8912  222.7789 H   0  0  0  0  0  0  0  0  0  0  0  0
  140.5472   78.3329  223.9770 H   0  0  0  0  0  0  0  0  0  0  0  0
  139.2782   78.4980  222.7577 H   0  0  0  0  0  0  0  0  0  0  0  0
  139.2498   70.1244  222.3727 H   0  0  0  0  0  0  0  0  0  0  0  0
  138.7408   68.6145  224.3070 H   0  0  0  0  0  0  0  0  0  0  0  0
  138.9214   68.1985  226.6475 H   0  0  0  0  0  0  0  0  0  0  0  0
  139.6759   68.8169  228.9384 H   0  0  0  0  0  0  0  0  0  0  0  0
  140.9338   70.9427  229.2174 H   0  0  0  0  0  0  0  0  0  0  0  0
  141.4264   72.4221  227.2963 H   0  0  0  0  0  0  0  0  0  0  0  0
  1  2  2  0
  2  3  1  0
  3  4  1  0
  4  5  1  0
  5  6  2  0
  5  7  1  0
  7  8  1  0
  8  9  1  0
  9 10  1  0
 10 11  1  0
 11 12  1  0
 12 13  1  0
 13 14  1  0
 14 15  1  0
 15 16  1  0
 16 17  1  0
 17 18  1  0
  2 19  1  0
 19 20  2  0
 20 21  1  0
 21 22  2  0
 22 23  1  0
 23 24  2  0
 24 25  1  0
 25 26  2  0
 26 27  1  0
 27 28  2  0
 12  7  1  0
 18 13  1  0
 28 19  1  0
 27 22  1  0
  3 29  1  0
  4 30  1  0
  4 31  1  0
  8 32  1  0
  8 33  1  0
  9 34  1  0
  9 35  1  0
 10 36  1  0
 10 37  1  0
 11 38  1  0
 11 39  1  0
 12 40  1  1
 13 41  1  0
 14 42  1  0
 14 43  1  0
 15 44  1  0
 15 45  1  0
 17 46  1  0
 17 47  1  0
 18 48  1  0
 18 49  1  0
 20 50  1  0
 21 51  1  0
 23 52  1  0
 24 53  1  0
 25 54  1  0
 26 55  1  0
M  END
>  <smiles>  (83) 
O=C(NCC(=O)N1CCCCC1C1CCOCC1)c1ccc2ccccc2n1

>  <score_type>  (83) 
oracle

>  <origin>  (83) 
autodockgpu

>  <m_score__min__energy>  (83) 
-8.7699999999999996

>  <m_primary>  (83) 
energy

>  <rmsd>  (83) 
2.027341092201214

>  <m_score__min__rmsd>  (83) 
2.027341092201214

>  <meeko>  (83) 
{"free_energy": -8.45, "intermolecular_energy": -9.95, "internal_energy": -1.81, "cluster_size": 27, "cluster_id": 2, "rank_in_cluster": 10}

>  <energy>  (83) 
-8.41

>  <cluster_rmsd>  (83) 
1.04

>  <cluster>  (83) 
2

$$$$

     RDKit          3D

 55 58  0  0  0  0  0  0  0  0999 V2000
  140.5610   71.0800  221.1950 O   0  0  0  0  0  0  0  0  0  0  0  0
  140.3110   71.7850  222.2060 C   0  0  0  0  0  0  0  0  0  0  0  0
  140.1240   73.1940  222.1560 N   0  0  0  0  0  0  0  0  0  0  0  0
  140.2310   73.8440  220.8570 C   0  0  0  0  0  0  0  0  0  0  0  0
  141.1290   74.9880  221.0240 C   0  0  0  0  0  0  0  0  0  0  0  0
  141.1390   75.7330  222.0640 O   0  0  0  0  0  0  0  0  0  0  0  0
  142.0940   75.3860  220.0200 N   0  0  0  0  0  0  0  0  0  0  0  0
  142.5590   76.7690  220.0910 C   0  0  0  0  0  0  0  0  0  0  0  0
  142.6980   77.3420  218.7250 C   0  0  0  0  0  0  0  0  0  0  0  0
  142.0790   76.5300  217.6330 C   0  0  0  0  0  0  0  0  0  0  0  0
  142.3560   75.0720  217.6850 C   0  0  0  0  0  0  0  0  0  0  0  0
  142.5620   74.4590  219.0100 C   0  0  1  0  0  0  0  0  0  0  0  0
  143.9390   73.9250  219.2530 C   0  0  0  0  0  0  0  0  0  0  0  0
  144.1700   72.5620  218.6760 C   0  0  0  0  0  0  0  0  0  0  0  0
  145.3630   71.8780  219.3430 C   0  0  0  0  0  0  0  0  0  0  0  0
  146.3070   72.8140  219.6670 O   0  0  0  0  0  0  0  0  0  0  0  0
  145.9430   73.7610  220.5850 C   0  0  0  0  0  0  0  0  0  0  0  0
  144.4250   73.9810  220.6640 C   0  0  0  0  0  0  0  0  0  0  0  0
  140.2000   71.1370  223.5220 C   0  0  0  0  0  0  0  0  0  0  0  0
  139.5860   69.8880  223.6290 C   0  0  0  0  0  0  0  0  0  0  0  0
  139.4660   69.2480  224.8610 C   0  0  0  0  0  0  0  0  0  0  0  0
  139.9800   69.9000  225.9730 C   0  0  0  0  0  0  0  0  0  0  0  0
  139.8860   69.3070  227.2130 C   0  0  0  0  0  0  0  0  0  0  0  0
  140.3780   69.9050  228.3570 C   0  0  0  0  0  0  0  0  0  0  0  0
  140.9780   71.1400  228.2010 C   0  0  0  0  0  0  0  0  0  0  0  0
  141.0930   71.7690  226.9720 C   0  0  0  0  0  0  0  0  0  0  0  0
  140.5860   71.1340  225.8600 C   0  0  0  0  0  0  0  0  0  0  0  0
  140.6750   71.7060  224.6460 N   0  0  0  0  0  0  0  0  0  0  0  0
  139.9140   73.7650  223.0210 H   0  0  0  0  0  0  0  0  0  0  0  0
  140.6451   73.1435  220.1169 H   0  0  0  0  0  0  0  0  0  0  0  0
  139.2434   74.1691  220.4980 H   0  0  0  0  0  0  0  0  0  0  0  0
  141.8330   77.3663  220.6621 H   0  0  0  0  0  0  0  0  0  0  0  0
  143.5404   76.7896  220.5874 H   0  0  0  0  0  0  0  0  0  0  0  0
  142.2249   78.3351  218.7218 H   0  0  0  0  0  0  0  0  0  0  0  0
  143.7769   77.3713  218.5124 H   0  0  0  0  0  0  0  0  0  0  0  0
  140.9891   76.6699  217.6828 H   0  0  0  0  0  0  0  0  0  0  0  0
  142.5298   76.8899  216.6964 H   0  0  0  0  0  0  0  0  0  0  0  0
  141.5040   74.5590  217.2149 H   0  0  0  0  0  0  0  0  0  0  0  0
  143.3219   74.9547  217.1719 H   0  0  0  0  0  0  0  0  0  0  0  0
  141.9605   73.5395  219.0614 H   0  0  0  0  0  0  0  0  0  0  0  0
  144.5554   74.6467  218.6969 H   0  0  0  0  0  0  0  0  0  0  0  0
  143.2705   71.9484  218.8321 H   0  0  0  0  0  0  0  0  0  0  0  0
  144.3833   72.6684  217.6021 H   0  0  0  0  0  0  0  0  0  0  0  0
  145.0273   71.3653  220.2565 H   0  0  0  0  0  0  0  0  0  0  0  0
  145.7990   71.1450  218.6483 H   0  0  0  0  0  0  0  0  0  0  0  0
  146.3014   73.4429  221.5752 H   0  0  0  0  0  0  0  0  0  0  0  0
  146.3933   74.7127  220.2663 H   0  0  0  0  0  0  0  0  0  0  0  0
  143.9528   73.1898  221.2648 H   0  0  0  0  0  0  0  0  0  0  0  0
  144.1763   74.9394  221.1432 H   0  0  0  0  0  0  0  0  0  0  0  0
  139.1902   69.4008  222.7257 H   0  0  0  0  0  0  0  0  0  0  0  0
  138.9825   68.2639  224.9487 H   0  0  0  0  0  0  0  0  0  0  0  0
  139.4021   68.3226  227.2950 H   0  0  0  0  0  0  0  0  0  0  0  0
  140.2963   69.4225  229.3422 H   0  0  0  0  0  0  0  0  0  0  0  0
  141.3816   71.6453  229.0908 H   0  0  0  0  0  0  0  0  0  0  0  0
  141.5779   72.7526  226.8863 H   0  0  0  0  0  0  0  0  0  0  0  0
  1  2  2  0
  2  3  1  0
  3  4  1  0
  4  5  1  0
  5  6  2  0
  5  7  1  0
  7  8  1  0
  8  9  1  0
  9 10  1  0
 10 11  1  0
 11 12  1  0
 12 13  1  0
 13 14  1  0
 14 15  1  0
 15 16  1  0
 16 17  1  0
 17 18  1  0
  2 19  1  0
 19 20  2  0
 20 21  1  0
 21 22  2  0
 22 23  1  0
 23 24  2  0
 24 25  1  0
 25 26  2  0
 26 27  1  0
 27 28  2  0
 12  7  1  0
 18 13  1  0
 28 19  1  0
 27 22  1  0
  3 29  1  0
  4 30  1  0
  4 31  1  0
  8 32  1  0
  8 33  1  0
  9 34  1  0
  9 35  1  0
 10 36  1  0
 10 37  1  0
 11 38  1  0
 11 39  1  0
 12 40  1  6
 13 41  1  0
 14 42  1  0
 14 43  1  0
 15 44  1  0
 15 45  1  0
 17 46  1  0
 17 47  1  0
 18 48  1  0
 18 49  1  0
 20 50  1  0
 21 51  1  0
 23 52  1  0
 24 53  1  0
 25 54  1  0
 26 55  1  0
M  END
>  <smiles>  (84) 
O=C(NCC(=O)N1CCCCC1C1CCOCC1)c1ccc2ccccc2n1

>  <score_type>  (84) 
oracle

>  <origin>  (84) 
autodockgpu

>  <m_score__min__energy>  (84) 
-8.7699999999999996

>  <m_primary>  (84) 
energy

>  <rmsd>  (84) 
2.4233202185535743

>  <m_score__min__rmsd>  (84) 
2.4233202185535743

>  <meeko>  (84) 
{"free_energy": -8.55, "intermolecular_energy": -10.04, "internal_energy": -1.81, "cluster_size": 21, "cluster_id": 1, "rank_in_cluster": 15}

>  <energy>  (84) 
-8.4

>  <cluster_rmsd>  (84) 
1.21

>  <cluster>  (84) 
2

$$$$

     RDKit          3D

 55 58  0  0  0  0  0  0  0  0999 V2000
  137.2850   76.2010  222.2370 O   0  0  0  0  0  0  0  0  0  0  0  0
  138.5320   76.2620  222.3910 C   0  0  0  0  0  0  0  0  0  0  0  0
  139.3960   75.1400  222.2670 N   0  0  0  0  0  0  0  0  0  0  0  0
  138.7930   73.8550  221.9420 C   0  0  0  0  0  0  0  0  0  0  0  0
  139.7690   72.8230  222.2970 C   0  0  0  0  0  0  0  0  0  0  0  0
  141.0310   73.0290  222.3410 O   0  0  0  0  0  0  0  0  0  0  0  0
  139.3950   71.4640  222.6310 N   0  0  0  0  0  0  0  0  0  0  0  0
  139.9300   70.4200  221.7610 C   0  0  0  0  0  0  0  0  0  0  0  0
  138.9060   69.3670  221.5220 C   0  0  0  0  0  0  0  0  0  0  0  0
  137.5190   69.7250  221.9500 C   0  0  0  0  0  0  0  0  0  0  0  0
  137.4060   70.3550  223.2900 C   0  0  0  0  0  0  0  0  0  0  0  0
  138.5390   71.1710  223.7630 C   0  0  1  0  0  0  0  0  0  0  0  0
  139.2590   70.6240  224.9560 C   0  0  0  0  0  0  0  0  0  0  0  0
  140.5450   71.3280  225.2610 C   0  0  0  0  0  0  0  0  0  0  0  0
  141.4520   70.4620  226.1360 C   0  0  0  0  0  0  0  0  0  0  0  0
  140.6870   69.7180  226.9930 O   0  0  0  0  0  0  0  0  0  0  0  0
  139.8420   68.8030  226.4270 C   0  0  0  0  0  0  0  0  0  0  0  0
  139.4600   69.1440  224.9780 C   0  0  0  0  0  0  0  0  0  0  0  0
  139.1500   77.5570  222.7170 C   0  0  0  0  0  0  0  0  0  0  0  0
  138.3410   78.6520  223.0250 C   0  0  0  0  0  0  0  0  0  0  0  0
  138.8960   79.8910  223.3390 C   0  0  0  0  0  0  0  0  0  0  0  0
  140.2810   79.9920  223.3340 C   0  0  0  0  0  0  0  0  0  0  0  0
  140.8760   81.1960  223.6380 C   0  0  0  0  0  0  0  0  0  0  0  0
  142.2480   81.3590  223.6500 C   0  0  0  0  0  0  0  0  0  0  0  0
  143.0060   80.2460  223.3410 C   0  0  0  0  0  0  0  0  0  0  0  0
  142.4460   79.0180  223.0290 C   0  0  0  0  0  0  0  0  0  0  0  0
  141.0740   78.9050  223.0300 C   0  0  0  0  0  0  0  0  0  0  0  0
  140.4840   77.7320  222.7340 N   0  0  0  0  0  0  0  0  0  0  0  0
  140.4420   75.2180  222.4000 H   0  0  0  0  0  0  0  0  0  0  0  0
  137.8676   73.7148  222.5200 H   0  0  0  0  0  0  0  0  0  0  0  0
  138.5350   73.8010  220.8741 H   0  0  0  0  0  0  0  0  0  0  0  0
  140.2231   70.8653  220.7988 H   0  0  0  0  0  0  0  0  0  0  0  0
  140.8038   69.9631  222.2485 H   0  0  0  0  0  0  0  0  0  0  0  0
  138.8850   69.1500  220.4438 H   0  0  0  0  0  0  0  0  0  0  0  0
  139.2038   68.5040  222.1357 H   0  0  0  0  0  0  0  0  0  0  0  0
  137.1064   70.4264  221.2099 H   0  0  0  0  0  0  0  0  0  0  0  0
  136.9685   68.7749  222.0156 H   0  0  0  0  0  0  0  0  0  0  0  0
  136.5182   71.0043  223.2736 H   0  0  0  0  0  0  0  0  0  0  0  0
  137.3618   69.5088  223.9914 H   0  0  0  0  0  0  0  0  0  0  0  0
  138.1401   72.1142  224.1645 H   0  0  0  0  0  0  0  0  0  0  0  0
  138.5440   70.8407  225.7634 H   0  0  0  0  0  0  0  0  0  0  0  0
  141.0640   71.5529  224.3176 H   0  0  0  0  0  0  0  0  0  0  0  0
  140.3151   72.2553  225.8062 H   0  0  0  0  0  0  0  0  0  0  0  0
  142.0447   69.7907  225.4973 H   0  0  0  0  0  0  0  0  0  0  0  0
  142.1270   71.1087  226.7158 H   0  0  0  0  0  0  0  0  0  0  0  0
  140.3352   67.8198  226.4360 H   0  0  0  0  0  0  0  0  0  0  0  0
  138.9144   68.8065  227.0182 H   0  0  0  0  0  0  0  0  0  0  0  0
  140.2678   68.8555  224.2894 H   0  0  0  0  0  0  0  0  0  0  0  0
  138.5569   68.6047  224.6564 H   0  0  0  0  0  0  0  0  0  0  0  0
  137.2473   78.5349  223.0197 H   0  0  0  0  0  0  0  0  0  0  0  0
  138.2613   80.7560  223.5816 H   0  0  0  0  0  0  0  0  0  0  0  0
  140.2368   82.0580  223.8797 H   0  0  0  0  0  0  0  0  0  0  0  0
  142.7131   82.3257  223.8932 H   0  0  0  0  0  0  0  0  0  0  0  0
  144.1021   80.3390  223.3428 H   0  0  0  0  0  0  0  0  0  0  0  0
  143.0822   78.1541  222.7863 H   0  0  0  0  0  0  0  0  0  0  0  0
  1  2  2  0
  2  3  1  0
  3  4  1  0
  4  5  1  0
  5  6  2  0
  5  7  1  0
  7  8  1  0
  8  9  1  0
  9 10  1  0
 10 11  1  0
 11 12  1  0
 12 13  1  0
 13 14  1  0
 14 15  1  0
 15 16  1  0
 16 17  1  0
 17 18  1  0
  2 19  1  0
 19 20  2  0
 20 21  1  0
 21 22  2  0
 22 23  1  0
 23 24  2  0
 24 25  1  0
 25 26  2  0
 26 27  1  0
 27 28  2  0
 12  7  1  0
 18 13  1  0
 28 19  1  0
 27 22  1  0
  3 29  1  0
  4 30  1  0
  4 31  1  0
  8 32  1  0
  8 33  1  0
  9 34  1  0
  9 35  1  0
 10 36  1  0
 10 37  1  0
 11 38  1  0
 11 39  1  0
 12 40  1  1
 13 41  1  0
 14 42  1  0
 14 43  1  0
 15 44  1  0
 15 45  1  0
 17 46  1  0
 17 47  1  0
 18 48  1  0
 18 49  1  0
 20 50  1  0
 21 51  1  0
 23 52  1  0
 24 53  1  0
 25 54  1  0
 26 55  1  0
M  END
>  <smiles>  (85) 
O=C(NCC(=O)N1CCCCC1C1CCOCC1)c1ccc2ccccc2n1

>  <score_type>  (85) 
oracle

>  <origin>  (85) 
autodockgpu

>  <m_score__min__energy>  (85) 
-8.7699999999999996

>  <m_primary>  (85) 
energy

>  <rmsd>  (85) 
8.318891009614259

>  <m_score__min__rmsd>  (85) 
8.318891009614259

>  <meeko>  (85) 
{"free_energy": -7.41, "intermolecular_energy": -8.91, "internal_energy": -2.07, "cluster_size": 2, "cluster_id": 3, "rank_in_cluster": 2}

>  <energy>  (85) 
-8.4

>  <cluster_rmsd>  (85) 
1.24

>  <cluster>  (85) 
2

$$$$

     RDKit          3D

 55 58  0  0  0  0  0  0  0  0999 V2000
  140.3360   71.7360  221.0690 O   0  0  0  0  0  0  0  0  0  0  0  0
  140.0660   72.2620  222.1800 C   0  0  0  0  0  0  0  0  0  0  0  0
  139.7660   73.6420  222.3450 N   0  0  0  0  0  0  0  0  0  0  0  0
  139.7730   74.4830  221.1560 C   0  0  0  0  0  0  0  0  0  0  0  0
  139.5920   75.8630  221.6070 C   0  0  0  0  0  0  0  0  0  0  0  0
  138.9690   76.1800  222.6790 O   0  0  0  0  0  0  0  0  0  0  0  0
  140.1020   77.0050  220.8780 N   0  0  0  0  0  0  0  0  0  0  0  0
  139.2590   77.5020  219.7930 C   0  0  0  0  0  0  0  0  0  0  0  0
  140.0930   77.9030  218.6280 C   0  0  0  0  0  0  0  0  0  0  0  0
  141.5190   77.4570  218.6880 C   0  0  0  0  0  0  0  0  0  0  0  0
  142.1990   77.6660  219.9910 C   0  0  0  0  0  0  0  0  0  0  0  0
  141.3750   77.6110  221.2130 C   0  0  1  0  0  0  0  0  0  0  0  0
  141.2660   78.9020  221.9620 C   0  0  0  0  0  0  0  0  0  0  0  0
  142.5820   79.4370  222.4380 C   0  0  0  0  0  0  0  0  0  0  0  0
  142.3880   80.4440  223.5720 C   0  0  0  0  0  0  0  0  0  0  0  0
  141.2290   81.1430  223.3720 O   0  0  0  0  0  0  0  0  0  0  0  0
  140.0650   80.4240  223.3960 C   0  0  0  0  0  0  0  0  0  0  0  0
  140.2610   78.9370  223.0670 C   0  0  0  0  0  0  0  0  0  0  0  0
  140.0560   71.4200  223.3870 C   0  0  0  0  0  0  0  0  0  0  0  0
  139.5920   70.1060  223.3090 C   0  0  0  0  0  0  0  0  0  0  0  0
  139.5690   69.2830  224.4340 C   0  0  0  0  0  0  0  0  0  0  0  0
  140.0250   69.8210  225.6290 C   0  0  0  0  0  0  0  0  0  0  0  0
  140.0230   69.0470  226.7680 C   0  0  0  0  0  0  0  0  0  0  0  0
  140.4630   69.5260  227.9870 C   0  0  0  0  0  0  0  0  0  0  0  0
  140.9140   70.8320  228.0140 C   0  0  0  0  0  0  0  0  0  0  0  0
  140.9320   71.6420  226.8910 C   0  0  0  0  0  0  0  0  0  0  0  0
  140.4830   71.1210  225.6980 C   0  0  0  0  0  0  0  0  0  0  0  0
  140.4820   71.8710  224.5810 N   0  0  0  0  0  0  0  0  0  0  0  0
  139.5420   74.0590  223.2910 H   0  0  0  0  0  0  0  0  0  0  0  0
  140.7320   74.3812  220.6269 H   0  0  0  0  0  0  0  0  0  0  0  0
  138.9718   74.1885  220.4622 H   0  0  0  0  0  0  0  0  0  0  0  0
  138.5621   76.7092  219.4837 H   0  0  0  0  0  0  0  0  0  0  0  0
  138.7001   78.3797  220.1498 H   0  0  0  0  0  0  0  0  0  0  0  0
  139.6399   77.4763  217.7210 H   0  0  0  0  0  0  0  0  0  0  0  0
  140.1147   79.0028  218.6296 H   0  0  0  0  0  0  0  0  0  0  0  0
  141.5477   76.3814  218.4593 H   0  0  0  0  0  0  0  0  0  0  0  0
  142.0612   78.0792  217.9608 H   0  0  0  0  0  0  0  0  0  0  0  0
  142.9755   76.8924  220.0837 H   0  0  0  0  0  0  0  0  0  0  0  0
  142.5646   78.7026  219.9497 H   0  0  0  0  0  0  0  0  0  0  0  0
  141.8916   76.9771  221.9488 H   0  0  0  0  0  0  0  0  0  0  0  0
  140.8769   79.5755  221.1842 H   0  0  0  0  0  0  0  0  0  0  0  0
  143.1995   78.6020  222.8005 H   0  0  0  0  0  0  0  0  0  0  0  0
  143.0767   79.9469  221.5982 H   0  0  0  0  0  0  0  0  0  0  0  0
  142.3317   79.9087  224.5313 H   0  0  0  0  0  0  0  0  0  0  0  0
  143.2375   81.1426  223.5894 H   0  0  0  0  0  0  0  0  0  0  0  0
  139.6262   80.5039  224.4015 H   0  0  0  0  0  0  0  0  0  0  0  0
  139.4071   80.8445  222.6212 H   0  0  0  0  0  0  0  0  0  0  0  0
  140.6379   78.3950  223.9469 H   0  0  0  0  0  0  0  0  0  0  0  0
  139.3161   78.4556  222.7748 H   0  0  0  0  0  0  0  0  0  0  0  0
  139.2387   69.7134  222.3441 H   0  0  0  0  0  0  0  0  0  0  0  0
  139.2035   68.2471  224.3766 H   0  0  0  0  0  0  0  0  0  0  0  0
  139.6583   68.0111  226.7051 H   0  0  0  0  0  0  0  0  0  0  0  0
  140.4547   68.8991  228.8909 H   0  0  0  0  0  0  0  0  0  0  0  0
  141.2738   71.2455  228.9677 H   0  0  0  0  0  0  0  0  0  0  0  0
  141.2967   72.6781  226.9506 H   0  0  0  0  0  0  0  0  0  0  0  0
  1  2  2  0
  2  3  1  0
  3  4  1  0
  4  5  1  0
  5  6  2  0
  5  7  1  0
  7  8  1  0
  8  9  1  0
  9 10  1  0
 10 11  1  0
 11 12  1  0
 12 13  1  0
 13 14  1  0
 14 15  1  0
 15 16  1  0
 16 17  1  0
 17 18  1  0
  2 19  1  0
 19 20  2  0
 20 21  1  0
 21 22  2  0
 22 23  1  0
 23 24  2  0
 24 25  1  0
 25 26  2  0
 26 27  1  0
 27 28  2  0
 12  7  1  0
 18 13  1  0
 28 19  1  0
 27 22  1  0
  3 29  1  0
  4 30  1  0
  4 31  1  0
  8 32  1  0
  8 33  1  0
  9 34  1  0
  9 35  1  0
 10 36  1  0
 10 37  1  0
 11 38  1  0
 11 39  1  0
 12 40  1  1
 13 41  1  0
 14 42  1  0
 14 43  1  0
 15 44  1  0
 15 45  1  0
 17 46  1  0
 17 47  1  0
 18 48  1  0
 18 49  1  0
 20 50  1  0
 21 51  1  0
 23 52  1  0
 24 53  1  0
 25 54  1  0
 26 55  1  0
M  END
>  <smiles>  (86) 
O=C(NCC(=O)N1CCCCC1C1CCOCC1)c1ccc2ccccc2n1

>  <score_type>  (86) 
oracle

>  <origin>  (86) 
autodockgpu

>  <m_score__min__energy>  (86) 
-8.7699999999999996

>  <m_primary>  (86) 
energy

>  <rmsd>  (86) 
1.8181631729178032

>  <m_score__min__rmsd>  (86) 
1.8181631729178032

>  <meeko>  (86) 
{"free_energy": -8.32, "intermolecular_energy": -9.81, "internal_energy": -1.88, "cluster_size": 27, "cluster_id": 2, "rank_in_cluster": 19}

>  <energy>  (86) 
-8.39

>  <cluster_rmsd>  (86) 
1.03

>  <cluster>  (86) 
2

$$$$

     RDKit          3D

 55 58  0  0  0  0  0  0  0  0999 V2000
  141.4460   72.0490  221.5410 O   0  0  0  0  0  0  0  0  0  0  0  0
  140.6180   72.4370  222.4050 C   0  0  0  0  0  0  0  0  0  0  0  0
  139.9340   73.6810  222.3360 N   0  0  0  0  0  0  0  0  0  0  0  0
  140.2160   74.5460  221.1990 C   0  0  0  0  0  0  0  0  0  0  0  0
  139.6950   75.8730  221.5310 C   0  0  0  0  0  0  0  0  0  0  0  0
  138.8070   76.0790  222.4280 O   0  0  0  0  0  0  0  0  0  0  0  0
  140.1380   77.0830  220.8690 N   0  0  0  0  0  0  0  0  0  0  0  0
  139.2370   77.6260  219.8560 C   0  0  0  0  0  0  0  0  0  0  0  0
  140.0110   78.1400  218.6940 C   0  0  0  0  0  0  0  0  0  0  0  0
  141.4520   77.7430  218.6690 C   0  0  0  0  0  0  0  0  0  0  0  0
  142.1760   77.8810  219.9580 C   0  0  0  0  0  0  0  0  0  0  0  0
  141.4030   77.7080  221.2020 C   0  0  1  0  0  0  0  0  0  0  0  0
  141.2810   78.9360  222.0480 C   0  0  0  0  0  0  0  0  0  0  0  0
  142.5830   79.4120  222.6140 C   0  0  0  0  0  0  0  0  0  0  0  0
  142.3580   80.3270  223.8170 C   0  0  0  0  0  0  0  0  0  0  0  0
  141.2170   81.0570  223.6310 O   0  0  0  0  0  0  0  0  0  0  0  0
  140.0440   80.3570  223.5540 C   0  0  0  0  0  0  0  0  0  0  0  0
  140.2350   78.8970  223.1140 C   0  0  0  0  0  0  0  0  0  0  0  0
  140.3260   71.5690  223.5570 C   0  0  0  0  0  0  0  0  0  0  0  0
  139.6130   70.3840  223.3670 C   0  0  0  0  0  0  0  0  0  0  0  0
  139.3200   69.5410  224.4380 C   0  0  0  0  0  0  0  0  0  0  0  0
  139.7660   69.9260  225.6950 C   0  0  0  0  0  0  0  0  0  0  0  0
  139.5020   69.1250  226.7840 C   0  0  0  0  0  0  0  0  0  0  0  0
  139.9170   69.4540  228.0600 C   0  0  0  0  0  0  0  0  0  0  0  0
  140.6200   70.6360  228.1970 C   0  0  0  0  0  0  0  0  0  0  0  0
  140.9060   71.4680  227.1280 C   0  0  0  0  0  0  0  0  0  0  0  0
  140.4700   71.0980  225.8750 C   0  0  0  0  0  0  0  0  0  0  0  0
  140.7240   71.8750  224.8050 N   0  0  0  0  0  0  0  0  0  0  0  0
  139.2410   73.9840  223.0750 H   0  0  0  0  0  0  0  0  0  0  0  0
  141.3008   74.5989  221.0245 H   0  0  0  0  0  0  0  0  0  0  0  0
  139.7454   74.1573  220.2839 H   0  0  0  0  0  0  0  0  0  0  0  0
  138.5553   76.8329  219.5150 H   0  0  0  0  0  0  0  0  0  0  0  0
  138.6632   78.4546  220.2967 H   0  0  0  0  0  0  0  0  0  0  0  0
  139.5374   77.7637  217.7753 H   0  0  0  0  0  0  0  0  0  0  0  0
  139.9958   79.2369  218.7756 H   0  0  0  0  0  0  0  0  0  0  0  0
  141.5076   76.6887  218.3604 H   0  0  0  0  0  0  0  0  0  0  0  0
  141.9439   78.4362  217.9709 H   0  0  0  0  0  0  0  0  0  0  0  0
  142.9805   77.1309  219.9645 H   0  0  0  0  0  0  0  0  0  0  0  0
  142.5057   78.9302  219.9800 H   0  0  0  0  0  0  0  0  0  0  0  0
  141.9684   77.0414  221.8697 H   0  0  0  0  0  0  0  0  0  0  0  0
  140.9303   79.6752  221.3128 H   0  0  0  0  0  0  0  0  0  0  0  0
  143.1767   78.5418  222.9305 H   0  0  0  0  0  0  0  0  0  0  0  0
  143.1147   79.9808  221.8370 H   0  0  0  0  0  0  0  0  0  0  0  0
  142.2582   79.7173  224.7271 H   0  0  0  0  0  0  0  0  0  0  0  0
  143.2147   81.0088  223.9226 H   0  0  0  0  0  0  0  0  0  0  0  0
  139.5679   80.3633  224.5456 H   0  0  0  0  0  0  0  0  0  0  0  0
  139.4211   80.8481  222.7919 H   0  0  0  0  0  0  0  0  0  0  0  0
  140.5717   78.2810  223.9609 H   0  0  0  0  0  0  0  0  0  0  0  0
  139.2964   78.4542  222.7493 H   0  0  0  0  0  0  0  0  0  0  0  0
  139.2769   70.1110  222.3558 H   0  0  0  0  0  0  0  0  0  0  0  0
  138.7573   68.6071  224.2927 H   0  0  0  0  0  0  0  0  0  0  0  0
  138.9412   68.1909  226.6324 H   0  0  0  0  0  0  0  0  0  0  0  0
  139.6990   68.8079  228.9232 H   0  0  0  0  0  0  0  0  0  0  0  0
  140.9674   70.9284  229.1989 H   0  0  0  0  0  0  0  0  0  0  0  0
  141.4679   72.4020  227.2758 H   0  0  0  0  0  0  0  0  0  0  0  0
  1  2  2  0
  2  3  1  0
  3  4  1  0
  4  5  1  0
  5  6  2  0
  5  7  1  0
  7  8  1  0
  8  9  1  0
  9 10  1  0
 10 11  1  0
 11 12  1  0
 12 13  1  0
 13 14  1  0
 14 15  1  0
 15 16  1  0
 16 17  1  0
 17 18  1  0
  2 19  1  0
 19 20  2  0
 20 21  1  0
 21 22  2  0
 22 23  1  0
 23 24  2  0
 24 25  1  0
 25 26  2  0
 26 27  1  0
 27 28  2  0
 12  7  1  0
 18 13  1  0
 28 19  1  0
 27 22  1  0
  3 29  1  0
  4 30  1  0
  4 31  1  0
  8 32  1  0
  8 33  1  0
  9 34  1  0
  9 35  1  0
 10 36  1  0
 10 37  1  0
 11 38  1  0
 11 39  1  0
 12 40  1  1
 13 41  1  0
 14 42  1  0
 14 43  1  0
 15 44  1  0
 15 45  1  0
 17 46  1  0
 17 47  1  0
 18 48  1  0
 18 49  1  0
 20 50  1  0
 21 51  1  0
 23 52  1  0
 24 53  1  0
 25 54  1  0
 26 55  1  0
M  END
>  <smiles>  (87) 
O=C(NCC(=O)N1CCCCC1C1CCOCC1)c1ccc2ccccc2n1

>  <score_type>  (87) 
oracle

>  <origin>  (87) 
autodockgpu

>  <m_score__min__energy>  (87) 
-8.7699999999999996

>  <m_primary>  (87) 
energy

>  <rmsd>  (87) 
2.0225883632807933

>  <m_score__min__rmsd>  (87) 
2.0225883632807933

>  <meeko>  (87) 
{"free_energy": -8.44, "intermolecular_energy": -9.93, "internal_energy": -1.81, "cluster_size": 27, "cluster_id": 2, "rank_in_cluster": 11}

>  <energy>  (87) 
-8.36

>  <cluster_rmsd>  (87) 
1.27

>  <cluster>  (87) 
2

$$$$

     RDKit          3D

 55 58  0  0  0  0  0  0  0  0999 V2000
  138.7930   71.0020  221.6160 O   0  0  0  0  0  0  0  0  0  0  0  0
  139.2560   71.5630  222.6430 C   0  0  0  0  0  0  0  0  0  0  0  0
  139.5670   72.9480  222.7110 N   0  0  0  0  0  0  0  0  0  0  0  0
  139.3300   73.7530  221.5200 C   0  0  0  0  0  0  0  0  0  0  0  0
  140.2230   74.9100  221.6010 C   0  0  0  0  0  0  0  0  0  0  0  0
  141.4970   74.8170  221.6580 O   0  0  0  0  0  0  0  0  0  0  0  0
  139.7430   76.2770  221.6270 N   0  0  0  0  0  0  0  0  0  0  0  0
  138.6030   76.5390  222.5020 C   0  0  0  0  0  0  0  0  0  0  0  0
  137.6590   77.4890  221.8540 C   0  0  0  0  0  0  0  0  0  0  0  0
  137.9040   77.7310  220.3990 C   0  0  0  0  0  0  0  0  0  0  0  0
  139.3200   77.9680  220.0200 C   0  0  0  0  0  0  0  0  0  0  0  0
  140.3660   77.3130  220.8280 C   0  0  1  0  0  0  0  0  0  0  0  0
  141.2440   78.2450  221.6010 C   0  0  0  0  0  0  0  0  0  0  0  0
  141.3440   77.9130  223.0580 C   0  0  0  0  0  0  0  0  0  0  0  0
  141.8220   79.1190  223.8660 C   0  0  0  0  0  0  0  0  0  0  0  0
  142.7020   79.8520  223.1190 O   0  0  0  0  0  0  0  0  0  0  0  0
  142.2130   80.4220  221.9760 C   0  0  0  0  0  0  0  0  0  0  0  0
  140.9740   79.7030  221.4190 C   0  0  0  0  0  0  0  0  0  0  0  0
  139.4980   70.7580  223.8510 C   0  0  0  0  0  0  0  0  0  0  0  0
  139.1450   69.4070  223.8650 C   0  0  0  0  0  0  0  0  0  0  0  0
  139.3620   68.6180  224.9930 C   0  0  0  0  0  0  0  0  0  0  0  0
  139.9400   69.2280  226.0980 C   0  0  0  0  0  0  0  0  0  0  0  0
  140.1730   68.4890  227.2370 C   0  0  0  0  0  0  0  0  0  0  0  0
  140.7450   69.0380  228.3680 C   0  0  0  0  0  0  0  0  0  0  0  0
  141.0770   70.3780  228.3070 C   0  0  0  0  0  0  0  0  0  0  0  0
  140.8580   71.1540  227.1810 C   0  0  0  0  0  0  0  0  0  0  0  0
  140.2850   70.5630  226.0770 C   0  0  0  0  0  0  0  0  0  0  0  0
  140.0540   71.2770  224.9610 N   0  0  0  0  0  0  0  0  0  0  0  0
  139.9550   73.3960  223.5860 H   0  0  0  0  0  0  0  0  0  0  0  0
  139.5530   73.1661  220.6168 H   0  0  0  0  0  0  0  0  0  0  0  0
  138.2786   74.0716  221.4643 H   0  0  0  0  0  0  0  0  0  0  0  0
  138.0804   75.5935  222.7092 H   0  0  0  0  0  0  0  0  0  0  0  0
  138.9679   76.9828  223.4400 H   0  0  0  0  0  0  0  0  0  0  0  0
  136.6409   77.0880  221.9663 H   0  0  0  0  0  0  0  0  0  0  0  0
  137.8054   78.4572  222.3552 H   0  0  0  0  0  0  0  0  0  0  0  0
  137.5475   76.8506  219.8443 H   0  0  0  0  0  0  0  0  0  0  0  0
  137.3661   78.6582  220.1523 H   0  0  0  0  0  0  0  0  0  0  0  0
  139.4439   77.6250  218.9822 H   0  0  0  0  0  0  0  0  0  0  0  0
  139.4751   79.0444  220.1852 H   0  0  0  0  0  0  0  0  0  0  0  0
  141.0919   76.8498  220.1436 H   0  0  0  0  0  0  0  0  0  0  0  0
  142.2231   78.0618  221.1342 H   0  0  0  0  0  0  0  0  0  0  0  0
  140.3539   77.6045  223.4249 H   0  0  0  0  0  0  0  0  0  0  0  0
  142.0732   77.0988  223.1814 H   0  0  0  0  0  0  0  0  0  0  0  0
  140.9586   79.7457  224.1339 H   0  0  0  0  0  0  0  0  0  0  0  0
  142.3221   78.7703  224.7816 H   0  0  0  0  0  0  0  0  0  0  0  0
  141.9421   81.4654  222.1947 H   0  0  0  0  0  0  0  0  0  0  0  0
  143.0019   80.3493  221.2129 H   0  0  0  0  0  0  0  0  0  0  0  0
  140.0738   80.0000  221.9770 H   0  0  0  0  0  0  0  0  0  0  0  0
  140.7947   79.9565  220.3637 H   0  0  0  0  0  0  0  0  0  0  0  0
  138.6880   68.9581  222.9708 H   0  0  0  0  0  0  0  0  0  0  0  0
  139.0860   67.5533  225.0073 H   0  0  0  0  0  0  0  0  0  0  0  0
  139.8939   67.4250  227.2461 H   0  0  0  0  0  0  0  0  0  0  0  0
  140.9271   68.4385  229.2721 H   0  0  0  0  0  0  0  0  0  0  0  0
  141.5345   70.8481  229.1900 H   0  0  0  0  0  0  0  0  0  0  0  0
  141.1355   72.2184  227.1688 H   0  0  0  0  0  0  0  0  0  0  0  0
  1  2  2  0
  2  3  1  0
  3  4  1  0
  4  5  1  0
  5  6  2  0
  5  7  1  0
  7  8  1  0
  8  9  1  0
  9 10  1  0
 10 11  1  0
 11 12  1  0
 12 13  1  0
 13 14  1  0
 14 15  1  0
 15 16  1  0
 16 17  1  0
 17 18  1  0
  2 19  1  0
 19 20  2  0
 20 21  1  0
 21 22  2  0
 22 23  1  0
 23 24  2  0
 24 25  1  0
 25 26  2  0
 26 27  1  0
 27 28  2  0
 12  7  1  0
 18 13  1  0
 28 19  1  0
 27 22  1  0
  3 29  1  0
  4 30  1  0
  4 31  1  0
  8 32  1  0
  8 33  1  0
  9 34  1  0
  9 35  1  0
 10 36  1  0
 10 37  1  0
 11 38  1  0
 11 39  1  0
 12 40  1  6
 13 41  1  0
 14 42  1  0
 14 43  1  0
 15 44  1  0
 15 45  1  0
 17 46  1  0
 17 47  1  0
 18 48  1  0
 18 49  1  0
 20 50  1  0
 21 51  1  0
 23 52  1  0
 24 53  1  0
 25 54  1  0
 26 55  1  0
M  END
>  <smiles>  (88) 
O=C(NCC(=O)N1CCCCC1C1CCOCC1)c1ccc2ccccc2n1

>  <score_type>  (88) 
oracle

>  <origin>  (88) 
autodockgpu

>  <m_score__min__energy>  (88) 
-8.7699999999999996

>  <m_primary>  (88) 
energy

>  <rmsd>  (88) 
2.3881238123248982

>  <m_score__min__rmsd>  (88) 
2.3881238123248982

>  <meeko>  (88) 
{"free_energy": -8.0, "intermolecular_energy": -9.49, "internal_energy": -1.55, "cluster_size": 27, "cluster_id": 2, "rank_in_cluster": 27}

>  <energy>  (88) 
-8.32

>  <cluster_rmsd>  (88) 
1.22

>  <cluster>  (88) 
2

$$$$

     RDKit          3D

 55 58  0  0  0  0  0  0  0  0999 V2000
  139.8090   71.6300  221.0650 O   0  0  0  0  0  0  0  0  0  0  0  0
  139.7640   72.1980  222.1860 C   0  0  0  0  0  0  0  0  0  0  0  0
  139.6100   73.6010  222.3520 N   0  0  0  0  0  0  0  0  0  0  0  0
  139.4980   74.4160  221.1500 C   0  0  0  0  0  0  0  0  0  0  0  0
  140.6350   75.3390  221.1510 C   0  0  0  0  0  0  0  0  0  0  0  0
  141.8060   75.0160  221.5500 O   0  0  0  0  0  0  0  0  0  0  0  0
  140.5370   76.7120  220.7000 N   0  0  0  0  0  0  0  0  0  0  0  0
  139.1990   77.1740  220.3380 C   0  0  0  0  0  0  0  0  0  0  0  0
  139.2580   78.0450  219.1340 C   0  0  0  0  0  0  0  0  0  0  0  0
  140.5610   78.0240  218.4020 C   0  0  0  0  0  0  0  0  0  0  0  0
  141.7740   78.1240  219.2520 C   0  0  0  0  0  0  0  0  0  0  0  0
  141.7050   77.5660  220.6160 C   0  0  1  0  0  0  0  0  0  0  0  0
  141.8150   78.5720  221.7180 C   0  0  0  0  0  0  0  0  0  0  0  0
  141.0610   78.1950  222.9570 C   0  0  0  0  0  0  0  0  0  0  0  0
  140.8000   79.4190  223.8340 C   0  0  0  0  0  0  0  0  0  0  0  0
  141.8490   80.2900  223.7320 O   0  0  0  0  0  0  0  0  0  0  0  0
  142.0760   80.8390  222.4990 C   0  0  0  0  0  0  0  0  0  0  0  0
  141.5240   79.9880  221.3450 C   0  0  0  0  0  0  0  0  0  0  0  0
  139.8750   71.3830  223.4060 C   0  0  0  0  0  0  0  0  0  0  0  0
  139.4740   70.0460  223.3850 C   0  0  0  0  0  0  0  0  0  0  0  0
  139.5670   69.2480  224.5230 C   0  0  0  0  0  0  0  0  0  0  0  0
  140.0740   69.8340  225.6750 C   0  0  0  0  0  0  0  0  0  0  0  0
  140.1850   69.0850  226.8260 C   0  0  0  0  0  0  0  0  0  0  0  0
  140.6810   69.6110  228.0030 C   0  0  0  0  0  0  0  0  0  0  0  0
  141.0670   70.9380  227.9750 C   0  0  0  0  0  0  0  0  0  0  0  0
  140.9700   71.7240  226.8390 C   0  0  0  0  0  0  0  0  0  0  0  0
  140.4690   71.1550  225.6890 C   0  0  0  0  0  0  0  0  0  0  0  0
  140.3570   71.8800  224.5610 N   0  0  0  0  0  0  0  0  0  0  0  0
  139.5750   74.0550  223.3070 H   0  0  0  0  0  0  0  0  0  0  0  0
  139.5313   73.7766  220.2556 H   0  0  0  0  0  0  0  0  0  0  0  0
  138.5457   74.9663  221.1362 H   0  0  0  0  0  0  0  0  0  0  0  0
  138.5607   76.3039  220.1247 H   0  0  0  0  0  0  0  0  0  0  0  0
  138.7829   77.7524  221.1761 H   0  0  0  0  0  0  0  0  0  0  0  0
  138.4706   77.7193  218.4384 H   0  0  0  0  0  0  0  0  0  0  0  0
  139.1242   79.0759  219.4937 H   0  0  0  0  0  0  0  0  0  0  0  0
  140.6184   77.0805  217.8395 H   0  0  0  0  0  0  0  0  0  0  0  0
  140.5639   78.9211  217.7654 H   0  0  0  0  0  0  0  0  0  0  0  0
  142.5877   77.6039  218.7253 H   0  0  0  0  0  0  0  0  0  0  0  0
  141.9200   79.2040  219.4011 H   0  0  0  0  0  0  0  0  0  0  0  0
  142.6065   76.9593  220.7870 H   0  0  0  0  0  0  0  0  0  0  0  0
  142.8917   78.5378  221.9407 H   0  0  0  0  0  0  0  0  0  0  0  0
  140.0985   77.7467  222.6697 H   0  0  0  0  0  0  0  0  0  0  0  0
  141.6657   77.4764  223.5298 H   0  0  0  0  0  0  0  0  0  0  0  0
  139.8773   79.9171  223.5017 H   0  0  0  0  0  0  0  0  0  0  0  0
  140.6908   79.1007  224.8813 H   0  0  0  0  0  0  0  0  0  0  0  0
  141.5968   81.8285  222.4636 H   0  0  0  0  0  0  0  0  0  0  0  0
  143.1661   80.9019  222.3655 H   0  0  0  0  0  0  0  0  0  0  0  0
  140.4401   80.1423  221.2380 H   0  0  0  0  0  0  0  0  0  0  0  0
  141.9831   80.2588  220.3828 H   0  0  0  0  0  0  0  0  0  0  0  0
  139.0777   69.6152  222.4537 H   0  0  0  0  0  0  0  0  0  0  0  0
  139.2510   68.1945  224.5094 H   0  0  0  0  0  0  0  0  0  0  0  0
  139.8677   68.0319  226.8070 H   0  0  0  0  0  0  0  0  0  0  0  0
  140.7646   69.0043  228.9168 H   0  0  0  0  0  0  0  0  0  0  0  0
  141.4684   71.3890  228.8945 H   0  0  0  0  0  0  0  0  0  0  0  0
  141.2855   72.7777  226.8547 H   0  0  0  0  0  0  0  0  0  0  0  0
  1  2  2  0
  2  3  1  0
  3  4  1  0
  4  5  1  0
  5  6  2  0
  5  7  1  0
  7  8  1  0
  8  9  1  0
  9 10  1  0
 10 11  1  0
 11 12  1  0
 12 13  1  0
 13 14  1  0
 14 15  1  0
 15 16  1  0
 16 17  1  0
 17 18  1  0
  2 19  1  0
 19 20  2  0
 20 21  1  0
 21 22  2  0
 22 23  1  0
 23 24  2  0
 24 25  1  0
 25 26  2  0
 26 27  1  0
 27 28  2  0
 12  7  1  0
 18 13  1  0
 28 19  1  0
 27 22  1  0
  3 29  1  0
  4 30  1  0
  4 31  1  0
  8 32  1  0
  8 33  1  0
  9 34  1  0
  9 35  1  0
 10 36  1  0
 10 37  1  0
 11 38  1  0
 11 39  1  0
 12 40  1  1
 13 41  1  0
 14 42  1  0
 14 43  1  0
 15 44  1  0
 15 45  1  0
 17 46  1  0
 17 47  1  0
 18 48  1  0
 18 49  1  0
 20 50  1  0
 21 51  1  0
 23 52  1  0
 24 53  1  0
 25 54  1  0
 26 55  1  0
M  END
>  <smiles>  (89) 
O=C(NCC(=O)N1CCCCC1C1CCOCC1)c1ccc2ccccc2n1

>  <score_type>  (89) 
oracle

>  <origin>  (89) 
autodockgpu

>  <m_score__min__energy>  (89) 
-8.7699999999999996

>  <m_primary>  (89) 
energy

>  <rmsd>  (89) 
1.7151994356233529

>  <m_score__min__rmsd>  (89) 
1.7151994356233529

>  <meeko>  (89) 
{"free_energy": -8.04, "intermolecular_energy": -9.53, "internal_energy": -1.53, "cluster_size": 27, "cluster_id": 2, "rank_in_cluster": 26}

>  <energy>  (89) 
-8.32

>  <cluster_rmsd>  (89) 
0.73

>  <cluster>  (89) 
2

$$$$

     RDKit          3D

 55 58  0  0  0  0  0  0  0  0999 V2000
  141.3520   71.6770  221.4870 O   0  0  0  0  0  0  0  0  0  0  0  0
  140.5280   72.1480  222.3110 C   0  0  0  0  0  0  0  0  0  0  0  0
  139.7930   73.3460  222.0930 N   0  0  0  0  0  0  0  0  0  0  0  0
  140.0170   74.0580  220.8420 C   0  0  0  0  0  0  0  0  0  0  0  0
  141.1120   75.0000  221.0760 C   0  0  0  0  0  0  0  0  0  0  0  0
  141.3190   75.5790  222.1970 O   0  0  0  0  0  0  0  0  0  0  0  0
  142.0690   75.3670  220.0520 N   0  0  0  0  0  0  0  0  0  0  0  0
  142.5140   76.7580  220.0610 C   0  0  0  0  0  0  0  0  0  0  0  0
  142.6410   77.2720  218.6710 C   0  0  0  0  0  0  0  0  0  0  0  0
  142.0300   76.4050  217.6170 C   0  0  0  0  0  0  0  0  0  0  0  0
  142.3280   74.9550  217.7320 C   0  0  0  0  0  0  0  0  0  0  0  0
  142.5470   74.4030  219.0820 C   0  0  1  0  0  0  0  0  0  0  0  0
  143.9320   73.9000  219.3420 C   0  0  0  0  0  0  0  0  0  0  0  0
  144.2440   72.6050  218.6580 C   0  0  0  0  0  0  0  0  0  0  0  0
  145.4320   71.9060  219.3180 C   0  0  0  0  0  0  0  0  0  0  0  0
  146.3210   72.8420  219.7710 O   0  0  0  0  0  0  0  0  0  0  0  0
  145.8780   73.6870  220.7510 C   0  0  0  0  0  0  0  0  0  0  0  0
  144.3500   73.8430  220.7760 C   0  0  0  0  0  0  0  0  0  0  0  0
  140.2940   71.4360  223.5770 C   0  0  0  0  0  0  0  0  0  0  0  0
  139.5730   70.2410  223.5760 C   0  0  0  0  0  0  0  0  0  0  0  0
  139.3350   69.5420  224.7580 C   0  0  0  0  0  0  0  0  0  0  0  0
  139.8440   70.0800  225.9320 C   0  0  0  0  0  0  0  0  0  0  0  0
  139.6360   69.4250  227.1260 C   0  0  0  0  0  0  0  0  0  0  0  0
  140.1160   69.9100  228.3270 C   0  0  0  0  0  0  0  0  0  0  0  0
  140.8250   71.0950  228.2780 C   0  0  0  0  0  0  0  0  0  0  0  0
  141.0560   71.7830  227.0990 C   0  0  0  0  0  0  0  0  0  0  0  0
  140.5560   71.2610  225.9260 C   0  0  0  0  0  0  0  0  0  0  0  0
  140.7560   71.8940  224.7560 N   0  0  0  0  0  0  0  0  0  0  0  0
  139.1050   73.7210  222.8030 H   0  0  0  0  0  0  0  0  0  0  0  0
  140.2922   73.3486  220.0476 H   0  0  0  0  0  0  0  0  0  0  0  0
  139.1065   74.5860  220.5224 H   0  0  0  0  0  0  0  0  0  0  0  0
  141.7809   77.3693  220.6077 H   0  0  0  0  0  0  0  0  0  0  0  0
  143.4962   76.8147  220.5530 H   0  0  0  0  0  0  0  0  0  0  0  0
  142.1545   78.2575  218.6261 H   0  0  0  0  0  0  0  0  0  0  0  0
  143.7188   77.3059  218.4537 H   0  0  0  0  0  0  0  0  0  0  0  0
  140.9384   76.5317  217.6645 H   0  0  0  0  0  0  0  0  0  0  0  0
  142.4724   76.7302  216.6638 H   0  0  0  0  0  0  0  0  0  0  0  0
  141.4820   74.4099  217.2879 H   0  0  0  0  0  0  0  0  0  0  0  0
  143.2941   74.8294  217.2212 H   0  0  0  0  0  0  0  0  0  0  0  0
  141.9591   73.4781  219.1767 H   0  0  0  0  0  0  0  0  0  0  0  0
  144.5429   74.6912  218.8830 H   0  0  0  0  0  0  0  0  0  0  0  0
  143.3638   71.9477  218.7146 H   0  0  0  0  0  0  0  0  0  0  0  0
  144.5018   72.8169  217.6098 H   0  0  0  0  0  0  0  0  0  0  0  0
  145.0762   71.2994  220.1638 H   0  0  0  0  0  0  0  0  0  0  0  0
  145.9286   71.2563  218.5823 H   0  0  0  0  0  0  0  0  0  0  0  0
  146.2044   73.2933  221.7249 H   0  0  0  0  0  0  0  0  0  0  0  0
  146.3028   74.6797  220.5408 H   0  0  0  0  0  0  0  0  0  0  0  0
  143.8837   72.9828  221.2787 H   0  0  0  0  0  0  0  0  0  0  0  0
  144.0402   74.7427  221.3279 H   0  0  0  0  0  0  0  0  0  0  0  0
  139.1859   69.8440  222.6260 H   0  0  0  0  0  0  0  0  0  0  0  0
  138.7660   68.6006  224.7605 H   0  0  0  0  0  0  0  0  0  0  0  0
  139.0679   68.4830  227.1229 H   0  0  0  0  0  0  0  0  0  0  0  0
  139.9425   69.3795  229.2749 H   0  0  0  0  0  0  0  0  0  0  0  0
  141.2229   71.5095  229.2160 H   0  0  0  0  0  0  0  0  0  0  0  0
  141.6253   72.7242  227.0987 H   0  0  0  0  0  0  0  0  0  0  0  0
  1  2  2  0
  2  3  1  0
  3  4  1  0
  4  5  1  0
  5  6  2  0
  5  7  1  0
  7  8  1  0
  8  9  1  0
  9 10  1  0
 10 11  1  0
 11 12  1  0
 12 13  1  0
 13 14  1  0
 14 15  1  0
 15 16  1  0
 16 17  1  0
 17 18  1  0
  2 19  1  0
 19 20  2  0
 20 21  1  0
 21 22  2  0
 22 23  1  0
 23 24  2  0
 24 25  1  0
 25 26  2  0
 26 27  1  0
 27 28  2  0
 12  7  1  0
 18 13  1  0
 28 19  1  0
 27 22  1  0
  3 29  1  0
  4 30  1  0
  4 31  1  0
  8 32  1  0
  8 33  1  0
  9 34  1  0
  9 35  1  0
 10 36  1  0
 10 37  1  0
 11 38  1  0
 11 39  1  0
 12 40  1  6
 13 41  1  0
 14 42  1  0
 14 43  1  0
 15 44  1  0
 15 45  1  0
 17 46  1  0
 17 47  1  0
 18 48  1  0
 18 49  1  0
 20 50  1  0
 21 51  1  0
 23 52  1  0
 24 53  1  0
 25 54  1  0
 26 55  1  0
M  END
>  <smiles>  (90) 
O=C(NCC(=O)N1CCCCC1C1CCOCC1)c1ccc2ccccc2n1

>  <score_type>  (90) 
oracle

>  <origin>  (90) 
autodockgpu

>  <m_score__min__energy>  (90) 
-8.7699999999999996

>  <m_primary>  (90) 
energy

>  <rmsd>  (90) 
2.440726991495803

>  <m_score__min__rmsd>  (90) 
2.440726991495803

>  <meeko>  (90) 
{"free_energy": -8.74, "intermolecular_energy": -10.24, "internal_energy": -1.66, "cluster_size": 21, "cluster_id": 1, "rank_in_cluster": 3}

>  <energy>  (90) 
-8.32

>  <cluster_rmsd>  (90) 
1.24

>  <cluster>  (90) 
2

$$$$

     RDKit          3D

 55 58  0  0  0  0  0  0  0  0999 V2000
  138.2180   71.9960  222.1590 O   0  0  0  0  0  0  0  0  0  0  0  0
  139.3950   71.8620  222.5840 C   0  0  0  0  0  0  0  0  0  0  0  0
  140.5290   72.4430  221.9540 N   0  0  0  0  0  0  0  0  0  0  0  0
  140.3050   73.2350  220.7530 C   0  0  0  0  0  0  0  0  0  0  0  0
  141.0000   74.5090  220.9430 C   0  0  0  0  0  0  0  0  0  0  0  0
  140.8230   75.2650  221.9590 O   0  0  0  0  0  0  0  0  0  0  0  0
  141.9580   75.0350  219.9920 N   0  0  0  0  0  0  0  0  0  0  0  0
  142.3230   76.4390  220.1610 C   0  0  0  0  0  0  0  0  0  0  0  0
  142.4530   77.1060  218.8380 C   0  0  0  0  0  0  0  0  0  0  0  0
  141.9180   76.3240  217.6810 C   0  0  0  0  0  0  0  0  0  0  0  0
  142.2950   74.8880  217.6500 C   0  0  0  0  0  0  0  0  0  0  0  0
  142.5130   74.2080  218.9400 C   0  0  1  0  0  0  0  0  0  0  0  0
  143.9180   73.7550  219.1870 C   0  0  0  0  0  0  0  0  0  0  0  0
  144.2080   72.3770  218.6770 C   0  0  0  0  0  0  0  0  0  0  0  0
  145.4430   71.7870  219.3570 C   0  0  0  0  0  0  0  0  0  0  0  0
  146.3430   72.7840  219.6190 O   0  0  0  0  0  0  0  0  0  0  0  0
  145.9460   73.7580  220.4930 C   0  0  0  0  0  0  0  0  0  0  0  0
  144.4190   73.9060  220.5860 C   0  0  0  0  0  0  0  0  0  0  0  0
  139.6320   71.0650  223.7980 C   0  0  0  0  0  0  0  0  0  0  0  0
  139.3160   69.7060  223.8050 C   0  0  0  0  0  0  0  0  0  0  0  0
  139.5290   68.9230  224.9390 C   0  0  0  0  0  0  0  0  0  0  0  0
  140.0660   69.5490  226.0550 C   0  0  0  0  0  0  0  0  0  0  0  0
  140.2950   68.8170  227.2000 C   0  0  0  0  0  0  0  0  0  0  0  0
  140.8270   69.3820  228.3430 C   0  0  0  0  0  0  0  0  0  0  0  0
  141.1240   70.7300  228.2870 C   0  0  0  0  0  0  0  0  0  0  0  0
  140.9080   71.5000  227.1560 C   0  0  0  0  0  0  0  0  0  0  0  0
  140.3760   70.8930  226.0410 C   0  0  0  0  0  0  0  0  0  0  0  0
  140.1500   71.6000  224.9190 N   0  0  0  0  0  0  0  0  0  0  0  0
  141.5090   72.3170  222.3320 H   0  0  0  0  0  0  0  0  0  0  0  0
  140.7100   72.7114  219.8745 H   0  0  0  0  0  0  0  0  0  0  0  0
  139.2300   73.3963  220.5847 H   0  0  0  0  0  0  0  0  0  0  0  0
  141.5439   76.9475  220.7478 H   0  0  0  0  0  0  0  0  0  0  0  0
  143.2889   76.4951  220.6843 H   0  0  0  0  0  0  0  0  0  0  0  0
  141.9113   78.0623  218.8832 H   0  0  0  0  0  0  0  0  0  0  0  0
  143.5317   77.2233  218.6574 H   0  0  0  0  0  0  0  0  0  0  0  0
  140.8201   76.3854  217.7093 H   0  0  0  0  0  0  0  0  0  0  0  0
  142.3646   76.7726  216.7814 H   0  0  0  0  0  0  0  0  0  0  0  0
  141.4919   74.3489  217.1262 H   0  0  0  0  0  0  0  0  0  0  0  0
  143.2780   74.8695  217.1567 H   0  0  0  0  0  0  0  0  0  0  0  0
  141.9764   73.2480  218.9185 H   0  0  0  0  0  0  0  0  0  0  0  0
  144.4902   74.4762  218.5849 H   0  0  0  0  0  0  0  0  0  0  0  0
  143.3423   71.7293  218.8799 H   0  0  0  0  0  0  0  0  0  0  0  0
  144.4003   72.4381  217.5957 H   0  0  0  0  0  0  0  0  0  0  0  0
  145.1463   71.3045  220.3000 H   0  0  0  0  0  0  0  0  0  0  0  0
  145.9056   71.0427  218.6922 H   0  0  0  0  0  0  0  0  0  0  0  0
  146.3342   73.5100  221.4919 H   0  0  0  0  0  0  0  0  0  0  0  0
  146.3436   74.7130  220.1190 H   0  0  0  0  0  0  0  0  0  0  0  0
  143.9955   73.1234  221.2327 H   0  0  0  0  0  0  0  0  0  0  0  0
  144.1283   74.8733  221.0216 H   0  0  0  0  0  0  0  0  0  0  0  0
  138.8918   69.2446  222.9010 H   0  0  0  0  0  0  0  0  0  0  0  0
  139.2811   67.8513  224.9485 H   0  0  0  0  0  0  0  0  0  0  0  0
  140.0455   67.7457  227.2040 H   0  0  0  0  0  0  0  0  0  0  0  0
  141.0051   68.7884  229.2518 H   0  0  0  0  0  0  0  0  0  0  0  0
  141.5503   71.2126  229.1788 H   0  0  0  0  0  0  0  0  0  0  0  0
  141.1559   72.5717  227.1491 H   0  0  0  0  0  0  0  0  0  0  0  0
  1  2  2  0
  2  3  1  0
  3  4  1  0
  4  5  1  0
  5  6  2  0
  5  7  1  0
  7  8  1  0
  8  9  1  0
  9 10  1  0
 10 11  1  0
 11 12  1  0
 12 13  1  0
 13 14  1  0
 14 15  1  0
 15 16  1  0
 16 17  1  0
 17 18  1  0
  2 19  1  0
 19 20  2  0
 20 21  1  0
 21 22  2  0
 22 23  1  0
 23 24  2  0
 24 25  1  0
 25 26  2  0
 26 27  1  0
 27 28  2  0
 12  7  1  0
 18 13  1  0
 28 19  1  0
 27 22  1  0
  3 29  1  0
  4 30  1  0
  4 31  1  0
  8 32  1  0
  8 33  1  0
  9 34  1  0
  9 35  1  0
 10 36  1  0
 10 37  1  0
 11 38  1  0
 11 39  1  0
 12 40  1  6
 13 41  1  0
 14 42  1  0
 14 43  1  0
 15 44  1  0
 15 45  1  0
 17 46  1  0
 17 47  1  0
 18 48  1  0
 18 49  1  0
 20 50  1  0
 21 51  1  0
 23 52  1  0
 24 53  1  0
 25 54  1  0
 26 55  1  0
M  END
>  <smiles>  (91) 
O=C(NCC(=O)N1CCCCC1C1CCOCC1)c1ccc2ccccc2n1

>  <score_type>  (91) 
oracle

>  <origin>  (91) 
autodockgpu

>  <m_score__min__energy>  (91) 
-8.7699999999999996

>  <m_primary>  (91) 
energy

>  <rmsd>  (91) 
2.406108820350423

>  <m_score__min__rmsd>  (91) 
2.406108820350423

>  <meeko>  (91) 
{"free_energy": -8.16, "intermolecular_energy": -9.66, "internal_energy": -1.37, "cluster_size": 21, "cluster_id": 1, "rank_in_cluster": 19}

>  <energy>  (91) 
-8.29

>  <cluster_rmsd>  (91) 
1.27

>  <cluster>  (91) 
2

$$$$

     RDKit          3D

 55 58  0  0  0  0  0  0  0  0999 V2000
  141.4650   71.9670  221.5570 O   0  0  0  0  0  0  0  0  0  0  0  0
  140.6520   72.3900  222.4180 C   0  0  0  0  0  0  0  0  0  0  0  0
  140.0130   73.6570  222.3420 N   0  0  0  0  0  0  0  0  0  0  0  0
  140.3240   74.5040  221.1980 C   0  0  0  0  0  0  0  0  0  0  0  0
  139.6900   75.8010  221.4410 C   0  0  0  0  0  0  0  0  0  0  0  0
  138.7020   75.9670  222.2350 O   0  0  0  0  0  0  0  0  0  0  0  0
  140.1250   77.0240  220.7990 N   0  0  0  0  0  0  0  0  0  0  0  0
  139.2280   77.5680  219.7820 C   0  0  0  0  0  0  0  0  0  0  0  0
  140.0080   78.1060  218.6350 C   0  0  0  0  0  0  0  0  0  0  0  0
  141.4550   77.7270  218.6210 C   0  0  0  0  0  0  0  0  0  0  0  0
  142.1630   77.8580  219.9190 C   0  0  0  0  0  0  0  0  0  0  0  0
  141.3780   77.6610  221.1520 C   0  0  1  0  0  0  0  0  0  0  0  0
  141.2320   78.8770  222.0110 C   0  0  0  0  0  0  0  0  0  0  0  0
  142.5290   79.3920  222.5550 C   0  0  0  0  0  0  0  0  0  0  0  0
  142.2980   80.2900  223.7700 C   0  0  0  0  0  0  0  0  0  0  0  0
  141.1280   80.9820  223.6140 O   0  0  0  0  0  0  0  0  0  0  0  0
  139.9790   80.2420  223.5560 C   0  0  0  0  0  0  0  0  0  0  0  0
  140.2110   78.7930  223.0980 C   0  0  0  0  0  0  0  0  0  0  0  0
  140.3300   71.5410  223.5770 C   0  0  0  0  0  0  0  0  0  0  0  0
  139.5990   70.3670  223.3920 C   0  0  0  0  0  0  0  0  0  0  0  0
  139.2790   69.5420  224.4690 C   0  0  0  0  0  0  0  0  0  0  0  0
  139.7150   69.9330  225.7270 C   0  0  0  0  0  0  0  0  0  0  0  0
  139.4240   69.1500  226.8220 C   0  0  0  0  0  0  0  0  0  0  0  0
  139.8290   69.4870  228.0990 C   0  0  0  0  0  0  0  0  0  0  0  0
  140.5510   70.6570  228.2310 C   0  0  0  0  0  0  0  0  0  0  0  0
  140.8650   71.4720  227.1550 C   0  0  0  0  0  0  0  0  0  0  0  0
  140.4380   71.0950  225.9010 C   0  0  0  0  0  0  0  0  0  0  0  0
  140.7190   71.8540  224.8260 N   0  0  0  0  0  0  0  0  0  0  0  0
  139.3320   73.9900  223.0800 H   0  0  0  0  0  0  0  0  0  0  0  0
  141.4130   74.6275  221.1043 H   0  0  0  0  0  0  0  0  0  0  0  0
  139.9538   74.0547  220.2647 H   0  0  0  0  0  0  0  0  0  0  0  0
  138.5604   76.7705  219.4238 H   0  0  0  0  0  0  0  0  0  0  0  0
  138.6388   78.3838  220.2262 H   0  0  0  0  0  0  0  0  0  0  0  0
  139.5492   77.7353  217.7065 H   0  0  0  0  0  0  0  0  0  0  0  0
  139.9781   79.2015  218.7299 H   0  0  0  0  0  0  0  0  0  0  0  0
  141.5272   76.6773  218.3001 H   0  0  0  0  0  0  0  0  0  0  0  0
  141.9457   78.4349  217.9368 H   0  0  0  0  0  0  0  0  0  0  0  0
  142.9762   77.1173  219.9257 H   0  0  0  0  0  0  0  0  0  0  0  0
  142.4803   78.9105  219.9571 H   0  0  0  0  0  0  0  0  0  0  0  0
  141.9444   76.9932  221.8177 H   0  0  0  0  0  0  0  0  0  0  0  0
  140.8412   79.6100  221.2899 H   0  0  0  0  0  0  0  0  0  0  0  0
  143.1576   78.5397  222.8525 H   0  0  0  0  0  0  0  0  0  0  0  0
  143.0258   79.9840  221.7723 H   0  0  0  0  0  0  0  0  0  0  0  0
  142.2387   79.6705  224.6770 H   0  0  0  0  0  0  0  0  0  0  0  0
  143.1327   81.0004  223.8630 H   0  0  0  0  0  0  0  0  0  0  0  0
  139.5251   80.2230  224.5578 H   0  0  0  0  0  0  0  0  0  0  0  0
  139.3226   80.7175  222.8123 H   0  0  0  0  0  0  0  0  0  0  0  0
  140.5865   78.1817  223.9318 H   0  0  0  0  0  0  0  0  0  0  0  0
  139.2807   78.3214  222.7487 H   0  0  0  0  0  0  0  0  0  0  0  0
  139.2700   70.0881  222.3801 H   0  0  0  0  0  0  0  0  0  0  0  0
  138.7026   68.6159  224.3270 H   0  0  0  0  0  0  0  0  0  0  0  0
  138.8490   68.2239  226.6746 H   0  0  0  0  0  0  0  0  0  0  0  0
  139.5886   68.8554  228.9669 H   0  0  0  0  0  0  0  0  0  0  0  0
  140.8915   70.9548  229.2337 H   0  0  0  0  0  0  0  0  0  0  0  0
  141.4414   72.3977  227.2990 H   0  0  0  0  0  0  0  0  0  0  0  0
  1  2  2  0
  2  3  1  0
  3  4  1  0
  4  5  1  0
  5  6  2  0
  5  7  1  0
  7  8  1  0
  8  9  1  0
  9 10  1  0
 10 11  1  0
 11 12  1  0
 12 13  1  0
 13 14  1  0
 14 15  1  0
 15 16  1  0
 16 17  1  0
 17 18  1  0
  2 19  1  0
 19 20  2  0
 20 21  1  0
 21 22  2  0
 22 23  1  0
 23 24  2  0
 24 25  1  0
 25 26  2  0
 26 27  1  0
 27 28  2  0
 12  7  1  0
 18 13  1  0
 28 19  1  0
 27 22  1  0
  3 29  1  0
  4 30  1  0
  4 31  1  0
  8 32  1  0
  8 33  1  0
  9 34  1  0
  9 35  1  0
 10 36  1  0
 10 37  1  0
 11 38  1  0
 11 39  1  0
 12 40  1  1
 13 41  1  0
 14 42  1  0
 14 43  1  0
 15 44  1  0
 15 45  1  0
 17 46  1  0
 17 47  1  0
 18 48  1  0
 18 49  1  0
 20 50  1  0
 21 51  1  0
 23 52  1  0
 24 53  1  0
 25 54  1  0
 26 55  1  0
M  END
>  <smiles>  (92) 
O=C(NCC(=O)N1CCCCC1C1CCOCC1)c1ccc2ccccc2n1

>  <score_type>  (92) 
oracle

>  <origin>  (92) 
autodockgpu

>  <m_score__min__energy>  (92) 
-8.7699999999999996

>  <m_primary>  (92) 
energy

>  <rmsd>  (92) 
2.013159571503237

>  <m_score__min__rmsd>  (92) 
2.013159571503237

>  <meeko>  (92) 
{"free_energy": -8.32, "intermolecular_energy": -9.81, "internal_energy": -1.81, "cluster_size": 27, "cluster_id": 2, "rank_in_cluster": 17}

>  <energy>  (92) 
-8.24

>  <cluster_rmsd>  (92) 
1.31

>  <cluster>  (92) 
2

$$$$

     RDKit          3D

 55 58  0  0  0  0  0  0  0  0999 V2000
  141.2730   72.1160  221.7290 O   0  0  0  0  0  0  0  0  0  0  0  0
  140.3270   72.3170  222.5330 C   0  0  0  0  0  0  0  0  0  0  0  0
  139.3510   73.3360  222.3610 N   0  0  0  0  0  0  0  0  0  0  0  0
  139.4630   74.1880  221.1840 C   0  0  0  0  0  0  0  0  0  0  0  0
  140.2360   75.3660  221.5800 C   0  0  0  0  0  0  0  0  0  0  0  0
  141.5100   75.3700  221.6890 O   0  0  0  0  0  0  0  0  0  0  0  0
  139.6260   76.6430  221.8880 N   0  0  0  0  0  0  0  0  0  0  0  0
  138.4490   76.5990  222.7520 C   0  0  0  0  0  0  0  0  0  0  0  0
  137.4300   77.5810  222.2930 C   0  0  0  0  0  0  0  0  0  0  0  0
  137.6790   78.1640  220.9390 C   0  0  0  0  0  0  0  0  0  0  0  0
  139.0720   78.6060  220.6800 C   0  0  0  0  0  0  0  0  0  0  0  0
  140.1610   77.8830  221.3650 C   0  0  1  0  0  0  0  0  0  0  0  0
  140.9300   78.6930  222.3610 C   0  0  0  0  0  0  0  0  0  0  0  0
  140.0830   79.6460  223.1480 C   0  0  0  0  0  0  0  0  0  0  0  0
  140.9340   80.7540  223.7690 C   0  0  0  0  0  0  0  0  0  0  0  0
  142.1600   80.2540  224.1110 O   0  0  0  0  0  0  0  0  0  0  0  0
  142.9470   79.7990  223.0870 C   0  0  0  0  0  0  0  0  0  0  0  0
  142.1460   79.3880  221.8420 C   0  0  0  0  0  0  0  0  0  0  0  0
  140.2050   71.4620  223.7240 C   0  0  0  0  0  0  0  0  0  0  0  0
  139.5880   70.2130  223.6190 C   0  0  0  0  0  0  0  0  0  0  0  0
  139.4580   69.3800  224.7280 C   0  0  0  0  0  0  0  0  0  0  0  0
  139.9640   69.8380  225.9360 C   0  0  0  0  0  0  0  0  0  0  0  0
  139.8580   69.0500  227.0600 C   0  0  0  0  0  0  0  0  0  0  0  0
  140.3420   69.4510  228.2910 C   0  0  0  0  0  0  0  0  0  0  0  0
  140.9440   70.6930  228.3450 C   0  0  0  0  0  0  0  0  0  0  0  0
  141.0700   71.5160  227.2380 C   0  0  0  0  0  0  0  0  0  0  0  0
  140.5720   71.0730  226.0320 C   0  0  0  0  0  0  0  0  0  0  0  0
  140.6710   71.8370  224.9290 N   0  0  0  0  0  0  0  0  0  0  0  0
  138.5640   73.4850  223.0510 H   0  0  0  0  0  0  0  0  0  0  0  0
  139.9812   73.6502  220.3764 H   0  0  0  0  0  0  0  0  0  0  0  0
  138.4687   74.4776  220.8132 H   0  0  0  0  0  0  0  0  0  0  0  0
  138.0164   75.5880  222.7235 H   0  0  0  0  0  0  0  0  0  0  0  0
  138.7512   76.8528  223.7788 H   0  0  0  0  0  0  0  0  0  0  0  0
  136.4535   77.0750  222.2723 H   0  0  0  0  0  0  0  0  0  0  0  0
  137.4717   78.4212  223.0018 H   0  0  0  0  0  0  0  0  0  0  0  0
  137.4203   77.4020  220.1891 H   0  0  0  0  0  0  0  0  0  0  0  0
  137.0589   79.0708  220.8819 H   0  0  0  0  0  0  0  0  0  0  0  0
  139.2488   78.5171  219.5979 H   0  0  0  0  0  0  0  0  0  0  0  0
  139.1189   79.6274  221.0857 H   0  0  0  0  0  0  0  0  0  0  0  0
  140.9417   77.6528  220.6250 H   0  0  0  0  0  0  0  0  0  0  0  0
  141.2997   77.9117  223.0414 H   0  0  0  0  0  0  0  0  0  0  0  0
  139.3357   80.0987  222.4797 H   0  0  0  0  0  0  0  0  0  0  0  0
  139.5897   79.0885  223.9579 H   0  0  0  0  0  0  0  0  0  0  0  0
  141.0611   81.5692  223.0415 H   0  0  0  0  0  0  0  0  0  0  0  0
  140.4324   81.1386  224.6693 H   0  0  0  0  0  0  0  0  0  0  0  0
  143.6476   80.5982  222.8034 H   0  0  0  0  0  0  0  0  0  0  0  0
  143.4681   78.9010  223.4505 H   0  0  0  0  0  0  0  0  0  0  0  0
  141.8615   80.2755  221.2577 H   0  0  0  0  0  0  0  0  0  0  0  0
  142.7330   78.7396  221.1749 H   0  0  0  0  0  0  0  0  0  0  0  0
  139.1986   69.8820  222.6450 H   0  0  0  0  0  0  0  0  0  0  0  0
  138.9724   68.3961  224.6489 H   0  0  0  0  0  0  0  0  0  0  0  0
  139.3712   68.0672  226.9754 H   0  0  0  0  0  0  0  0  0  0  0  0
  140.2523   68.8132  229.1827 H   0  0  0  0  0  0  0  0  0  0  0  0
  141.3406   71.0438  229.3092 H   0  0  0  0  0  0  0  0  0  0  0  0
  141.5559   72.4995  227.3197 H   0  0  0  0  0  0  0  0  0  0  0  0
  1  2  2  0
  2  3  1  0
  3  4  1  0
  4  5  1  0
  5  6  2  0
  5  7  1  0
  7  8  1  0
  8  9  1  0
  9 10  1  0
 10 11  1  0
 11 12  1  0
 12 13  1  0
 13 14  1  0
 14 15  1  0
 15 16  1  0
 16 17  1  0
 17 18  1  0
  2 19  1  0
 19 20  2  0
 20 21  1  0
 21 22  2  0
 22 23  1  0
 23 24  2  0
 24 25  1  0
 25 26  2  0
 26 27  1  0
 27 28  2  0
 12  7  1  0
 18 13  1  0
 28 19  1  0
 27 22  1  0
  3 29  1  0
  4 30  1  0
  4 31  1  0
  8 32  1  0
  8 33  1  0
  9 34  1  0
  9 35  1  0
 10 36  1  0
 10 37  1  0
 11 38  1  0
 11 39  1  0
 12 40  1  6
 13 41  1  0
 14 42  1  0
 14 43  1  0
 15 44  1  0
 15 45  1  0
 17 46  1  0
 17 47  1  0
 18 48  1  0
 18 49  1  0
 20 50  1  0
 21 51  1  0
 23 52  1  0
 24 53  1  0
 25 54  1  0
 26 55  1  0
M  END
>  <smiles>  (93) 
O=C(NCC(=O)N1CCCCC1C1CCOCC1)c1ccc2ccccc2n1

>  <score_type>  (93) 
oracle

>  <origin>  (93) 
autodockgpu

>  <m_score__min__energy>  (93) 
-8.7699999999999996

>  <m_primary>  (93) 
energy

>  <rmsd>  (93) 
2.7323862372016685

>  <m_score__min__rmsd>  (93) 
2.7323862372016685

>  <meeko>  (93) 
{"free_energy": -8.6, "intermolecular_energy": -10.09, "internal_energy": -1.29, "cluster_size": 27, "cluster_id": 2, "rank_in_cluster": 1}

>  <energy>  (93) 
-8.21

>  <cluster_rmsd>  (93) 
1.22

>  <cluster>  (93) 
2

$$$$

     RDKit          3D

 55 58  0  0  0  0  0  0  0  0999 V2000
  140.0200   71.6260  221.0900 O   0  0  0  0  0  0  0  0  0  0  0  0
  139.8870   72.1970  222.2030 C   0  0  0  0  0  0  0  0  0  0  0  0
  139.6700   73.5950  222.3490 N   0  0  0  0  0  0  0  0  0  0  0  0
  139.5980   74.3980  221.1360 C   0  0  0  0  0  0  0  0  0  0  0  0
  139.3350   75.7770  221.5510 C   0  0  0  0  0  0  0  0  0  0  0  0
  138.4970   76.0920  222.4640 O   0  0  0  0  0  0  0  0  0  0  0  0
  140.0020   76.9190  220.9610 N   0  0  0  0  0  0  0  0  0  0  0  0
  139.2310   77.6720  219.9740 C   0  0  0  0  0  0  0  0  0  0  0  0
  140.1040   78.0980  218.8470 C   0  0  0  0  0  0  0  0  0  0  0  0
  141.4490   77.4460  218.8080 C   0  0  0  0  0  0  0  0  0  0  0  0
  142.1650   77.3800  220.1070 C   0  0  0  0  0  0  0  0  0  0  0  0
  141.3540   77.2830  221.3350 C   0  0  1  0  0  0  0  0  0  0  0  0
  141.4450   78.4660  222.2480 C   0  0  0  0  0  0  0  0  0  0  0  0
  140.1610   78.7870  222.9500 C   0  0  0  0  0  0  0  0  0  0  0  0
  140.1600   80.2270  223.4610 C   0  0  0  0  0  0  0  0  0  0  0  0
  141.4260   80.5820  223.8390 O   0  0  0  0  0  0  0  0  0  0  0  0
  142.3780   80.6050  222.8570 C   0  0  0  0  0  0  0  0  0  0  0  0
  142.0380   79.7040  221.6590 C   0  0  0  0  0  0  0  0  0  0  0  0
  139.9570   71.3940  223.4330 C   0  0  0  0  0  0  0  0  0  0  0  0
  139.5250   70.0660  223.4180 C   0  0  0  0  0  0  0  0  0  0  0  0
  139.5790   69.2790  224.5670 C   0  0  0  0  0  0  0  0  0  0  0  0
  140.0770   69.8660  225.7220 C   0  0  0  0  0  0  0  0  0  0  0  0
  140.1490   69.1280  226.8830 C   0  0  0  0  0  0  0  0  0  0  0  0
  140.6350   69.6550  228.0640 C   0  0  0  0  0  0  0  0  0  0  0  0
  141.0510   70.9730  228.0290 C   0  0  0  0  0  0  0  0  0  0  0  0
  140.9940   71.7480  226.8830 C   0  0  0  0  0  0  0  0  0  0  0  0
  140.5020   71.1780  225.7300 C   0  0  0  0  0  0  0  0  0  0  0  0
  140.4280   71.8920  224.5910 N   0  0  0  0  0  0  0  0  0  0  0  0
  139.5600   74.0510  223.2960 H   0  0  0  0  0  0  0  0  0  0  0  0
  140.5510   74.3432  220.5895 H   0  0  0  0  0  0  0  0  0  0  0  0
  138.8046   74.0307  220.4684 H   0  0  0  0  0  0  0  0  0  0  0  0
  138.4218   77.0365  219.5851 H   0  0  0  0  0  0  0  0  0  0  0  0
  138.8111   78.5666  220.4571 H   0  0  0  0  0  0  0  0  0  0  0  0
  139.5844   77.8649  217.9059 H   0  0  0  0  0  0  0  0  0  0  0  0
  140.2876   79.1731  218.9899 H   0  0  0  0  0  0  0  0  0  0  0  0
  141.3165   76.4174  218.4414 H   0  0  0  0  0  0  0  0  0  0  0  0
  142.0702   78.0738  218.1522 H   0  0  0  0  0  0  0  0  0  0  0  0
  142.8203   76.4970  220.0760 H   0  0  0  0  0  0  0  0  0  0  0  0
  142.6784   78.3493  220.1899 H   0  0  0  0  0  0  0  0  0  0  0  0
  141.7774   76.4883  221.9669 H   0  0  0  0  0  0  0  0  0  0  0  0
  142.1714   78.1133  222.9950 H   0  0  0  0  0  0  0  0  0  0  0  0
  139.3246   78.6541  222.2481 H   0  0  0  0  0  0  0  0  0  0  0  0
  140.0540   78.1103  223.8106 H   0  0  0  0  0  0  0  0  0  0  0  0
  139.8151   80.8988  222.6612 H   0  0  0  0  0  0  0  0  0  0  0  0
  139.4853   80.3066  224.3261 H   0  0  0  0  0  0  0  0  0  0  0  0
  142.4835   81.6391  222.4972 H   0  0  0  0  0  0  0  0  0  0  0  0
  143.3102   80.2223  223.2981 H   0  0  0  0  0  0  0  0  0  0  0  0
  141.3129   80.2008  220.9976 H   0  0  0  0  0  0  0  0  0  0  0  0
  142.9265   79.4816  221.0498 H   0  0  0  0  0  0  0  0  0  0  0  0
  139.1358   69.6341  222.4842 H   0  0  0  0  0  0  0  0  0  0  0  0
  139.2399   68.2326  224.5588 H   0  0  0  0  0  0  0  0  0  0  0  0
  139.8076   68.0824  226.8692 H   0  0  0  0  0  0  0  0  0  0  0  0
  140.6883   69.0564  228.9853 H   0  0  0  0  0  0  0  0  0  0  0  0
  141.4442   71.4255  228.9513 H   0  0  0  0  0  0  0  0  0  0  0  0
  141.3337   72.7942  226.8933 H   0  0  0  0  0  0  0  0  0  0  0  0
  1  2  2  0
  2  3  1  0
  3  4  1  0
  4  5  1  0
  5  6  2  0
  5  7  1  0
  7  8  1  0
  8  9  1  0
  9 10  1  0
 10 11  1  0
 11 12  1  0
 12 13  1  0
 13 14  1  0
 14 15  1  0
 15 16  1  0
 16 17  1  0
 17 18  1  0
  2 19  1  0
 19 20  2  0
 20 21  1  0
 21 22  2  0
 22 23  1  0
 23 24  2  0
 24 25  1  0
 25 26  2  0
 26 27  1  0
 27 28  2  0
 12  7  1  0
 18 13  1  0
 28 19  1  0
 27 22  1  0
  3 29  1  0
  4 30  1  0
  4 31  1  0
  8 32  1  0
  8 33  1  0
  9 34  1  0
  9 35  1  0
 10 36  1  0
 10 37  1  0
 11 38  1  0
 11 39  1  0
 12 40  1  1
 13 41  1  0
 14 42  1  0
 14 43  1  0
 15 44  1  0
 15 45  1  0
 17 46  1  0
 17 47  1  0
 18 48  1  0
 18 49  1  0
 20 50  1  0
 21 51  1  0
 23 52  1  0
 24 53  1  0
 25 54  1  0
 26 55  1  0
M  END
>  <smiles>  (94) 
O=C(NCC(=O)N1CCCCC1C1CCOCC1)c1ccc2ccccc2n1

>  <score_type>  (94) 
oracle

>  <origin>  (94) 
autodockgpu

>  <m_score__min__energy>  (94) 
-8.7699999999999996

>  <m_primary>  (94) 
energy

>  <rmsd>  (94) 
1.8692243122603007

>  <m_score__min__rmsd>  (94) 
1.8692243122603007

>  <meeko>  (94) 
{"free_energy": -8.21, "intermolecular_energy": -9.7, "internal_energy": -1.75, "cluster_size": 27, "cluster_id": 2, "rank_in_cluster": 22}

>  <energy>  (94) 
-8.15

>  <cluster_rmsd>  (94) 
1.34

>  <cluster>  (94) 
2

$$$$

     RDKit          3D

 55 58  0  0  0  0  0  0  0  0999 V2000
  141.5460   72.2520  221.5600 O   0  0  0  0  0  0  0  0  0  0  0  0
  140.6630   72.5790  222.3930 C   0  0  0  0  0  0  0  0  0  0  0  0
  139.9500   73.8080  222.3440 N   0  0  0  0  0  0  0  0  0  0  0  0
  140.2690   74.7310  221.2630 C   0  0  0  0  0  0  0  0  0  0  0  0
  139.8000   76.0540  221.6790 C   0  0  0  0  0  0  0  0  0  0  0  0
  139.0400   76.2490  222.6890 O   0  0  0  0  0  0  0  0  0  0  0  0
  140.1540   77.2720  220.9800 N   0  0  0  0  0  0  0  0  0  0  0  0
  139.1290   77.8260  220.0980 C   0  0  0  0  0  0  0  0  0  0  0  0
  139.7450   78.3550  218.8520 C   0  0  0  0  0  0  0  0  0  0  0  0
  141.1710   77.9600  218.6350 C   0  0  0  0  0  0  0  0  0  0  0  0
  142.0560   78.0830  219.8200 C   0  0  0  0  0  0  0  0  0  0  0  0
  141.4510   77.8940  221.1520 C   0  0  1  0  0  0  0  0  0  0  0  0
  141.4410   79.1130  222.0210 C   0  0  0  0  0  0  0  0  0  0  0  0
  140.9620   80.3480  221.3230 C   0  0  0  0  0  0  0  0  0  0  0  0
  141.4180   81.6080  222.0610 C   0  0  0  0  0  0  0  0  0  0  0  0
  141.4390   81.3680  223.4080 O   0  0  0  0  0  0  0  0  0  0  0  0
  142.3190   80.4180  223.8500 C   0  0  0  0  0  0  0  0  0  0  0  0
  142.7030   79.3950  222.7700 C   0  0  0  0  0  0  0  0  0  0  0  0
  140.3330   71.6520  223.4880 C   0  0  0  0  0  0  0  0  0  0  0  0
  139.6130   70.4870  223.2150 C   0  0  0  0  0  0  0  0  0  0  0  0
  139.2850   69.5890  224.2290 C   0  0  0  0  0  0  0  0  0  0  0  0
  139.7020   69.8980  225.5160 C   0  0  0  0  0  0  0  0  0  0  0  0
  139.4030   69.0420  226.5520 C   0  0  0  0  0  0  0  0  0  0  0  0
  139.7890   69.2940  227.8540 C   0  0  0  0  0  0  0  0  0  0  0  0
  140.5000   70.4580  228.0740 C   0  0  0  0  0  0  0  0  0  0  0  0
  140.8210   71.3450  227.0610 C   0  0  0  0  0  0  0  0  0  0  0  0
  140.4130   71.0510  225.7780 C   0  0  0  0  0  0  0  0  0  0  0  0
  140.7020   71.8830  224.7610 N   0  0  0  0  0  0  0  0  0  0  0  0
  139.2100   74.0590  223.0570 H   0  0  0  0  0  0  0  0  0  0  0  0
  141.3554   74.7517  221.0919 H   0  0  0  0  0  0  0  0  0  0  0  0
  139.7860   74.4198  220.3250 H   0  0  0  0  0  0  0  0  0  0  0  0
  138.4089   77.0359  219.8387 H   0  0  0  0  0  0  0  0  0  0  0  0
  138.6177   78.6487  220.6193 H   0  0  0  0  0  0  0  0  0  0  0  0
  139.1558   77.9892  217.9981 H   0  0  0  0  0  0  0  0  0  0  0  0
  139.7407   79.4508  218.9481 H   0  0  0  0  0  0  0  0  0  0  0  0
  141.1857   76.9096  218.3087 H   0  0  0  0  0  0  0  0  0  0  0  0
  141.5683   78.6624  217.8875 H   0  0  0  0  0  0  0  0  0  0  0  0
  142.8542   77.3337  219.7127 H   0  0  0  0  0  0  0  0  0  0  0  0
  142.3863   79.1322  219.8118 H   0  0  0  0  0  0  0  0  0  0  0  0
  142.0978   77.2194  221.7322 H   0  0  0  0  0  0  0  0  0  0  0  0
  140.6985   78.8345  222.7833 H   0  0  0  0  0  0  0  0  0  0  0  0
  141.3678   80.3635  220.3007 H   0  0  0  0  0  0  0  0  0  0  0  0
  139.8623   80.3337  221.3016 H   0  0  0  0  0  0  0  0  0  0  0  0
  142.4272   81.8855  221.7227 H   0  0  0  0  0  0  0  0  0  0  0  0
  140.7192   82.4301  221.8470 H   0  0  0  0  0  0  0  0  0  0  0  0
  143.2339   80.9227  224.1937 H   0  0  0  0  0  0  0  0  0  0  0  0
  141.8211   79.8648  224.6600 H   0  0  0  0  0  0  0  0  0  0  0  0
  143.4644   79.8147  222.0962 H   0  0  0  0  0  0  0  0  0  0  0  0
  143.1311   78.4809  223.2073 H   0  0  0  0  0  0  0  0  0  0  0  0
  139.2995   70.2746  222.1822 H   0  0  0  0  0  0  0  0  0  0  0  0
  138.7175   68.6708  224.0174 H   0  0  0  0  0  0  0  0  0  0  0  0
  138.8364   68.1245  226.3350 H   0  0  0  0  0  0  0  0  0  0  0  0
  139.5429   68.6032  228.6739 H   0  0  0  0  0  0  0  0  0  0  0  0
  140.8252   70.6900  229.0989 H   0  0  0  0  0  0  0  0  0  0  0  0
  141.3883   72.2628  227.2750 H   0  0  0  0  0  0  0  0  0  0  0  0
  1  2  2  0
  2  3  1  0
  3  4  1  0
  4  5  1  0
  5  6  2  0
  5  7  1  0
  7  8  1  0
  8  9  1  0
  9 10  1  0
 10 11  1  0
 11 12  1  0
 12 13  1  0
 13 14  1  0
 14 15  1  0
 15 16  1  0
 16 17  1  0
 17 18  1  0
  2 19  1  0
 19 20  2  0
 20 21  1  0
 21 22  2  0
 22 23  1  0
 23 24  2  0
 24 25  1  0
 25 26  2  0
 26 27  1  0
 27 28  2  0
 12  7  1  0
 18 13  1  0
 28 19  1  0
 27 22  1  0
  3 29  1  0
  4 30  1  0
  4 31  1  0
  8 32  1  0
  8 33  1  0
  9 34  1  0
  9 35  1  0
 10 36  1  0
 10 37  1  0
 11 38  1  0
 11 39  1  0
 12 40  1  1
 13 41  1  0
 14 42  1  0
 14 43  1  0
 15 44  1  0
 15 45  1  0
 17 46  1  0
 17 47  1  0
 18 48  1  0
 18 49  1  0
 20 50  1  0
 21 51  1  0
 23 52  1  0
 24 53  1  0
 25 54  1  0
 26 55  1  0
M  END
>  <smiles>  (95) 
O=C(NCC(=O)N1CCCCC1C1CCOCC1)c1ccc2ccccc2n1

>  <score_type>  (95) 
oracle

>  <origin>  (95) 
autodockgpu

>  <m_score__min__energy>  (95) 
-8.7699999999999996

>  <m_primary>  (95) 
energy

>  <rmsd>  (95) 
2.1280430337821006

>  <m_score__min__rmsd>  (95) 
2.1280430337821006

>  <meeko>  (95) 
{"free_energy": -8.29, "intermolecular_energy": -9.78, "internal_energy": -1.76, "cluster_size": 27, "cluster_id": 2, "rank_in_cluster": 20}

>  <energy>  (95) 
-8.13

>  <cluster_rmsd>  (95) 
1.41

>  <cluster>  (95) 
2

$$$$

     RDKit          3D

 55 58  0  0  0  0  0  0  0  0999 V2000
  141.1070   72.2440  221.7110 O   0  0  0  0  0  0  0  0  0  0  0  0
  140.1420   72.3440  222.5110 C   0  0  0  0  0  0  0  0  0  0  0  0
  139.0580   73.2460  222.3280 N   0  0  0  0  0  0  0  0  0  0  0  0
  139.0770   74.0950  221.1440 C   0  0  0  0  0  0  0  0  0  0  0  0
  139.9320   75.2420  221.4530 C   0  0  0  0  0  0  0  0  0  0  0  0
  141.0970   75.1350  221.9700 O   0  0  0  0  0  0  0  0  0  0  0  0
  139.5340   76.6120  221.2040 N   0  0  0  0  0  0  0  0  0  0  0  0
  138.1210   76.9180  221.4120 C   0  0  0  0  0  0  0  0  0  0  0  0
  137.6300   77.8490  220.3610 C   0  0  0  0  0  0  0  0  0  0  0  0
  138.5520   78.0320  219.1980 C   0  0  0  0  0  0  0  0  0  0  0  0
  139.9800   78.2420  219.5410 C   0  0  0  0  0  0  0  0  0  0  0  0
  140.4910   77.6110  220.7730 C   0  0  1  0  0  0  0  0  0  0  0  0
  140.9130   78.5660  221.8450 C   0  0  0  0  0  0  0  0  0  0  0  0
  141.8240   79.6520  221.3630 C   0  0  0  0  0  0  0  0  0  0  0  0
  142.5940   80.2800  222.5250 C   0  0  0  0  0  0  0  0  0  0  0  0
  141.8080   80.2900  223.6450 O   0  0  0  0  0  0  0  0  0  0  0  0
  141.4350   79.0720  224.1450 C   0  0  0  0  0  0  0  0  0  0  0  0
  141.4550   77.9510  223.0940 C   0  0  0  0  0  0  0  0  0  0  0  0
  140.1130   71.4910  223.7090 C   0  0  0  0  0  0  0  0  0  0  0  0
  139.5690   70.2070  223.6310 C   0  0  0  0  0  0  0  0  0  0  0  0
  139.5280   69.3740  224.7470 C   0  0  0  0  0  0  0  0  0  0  0  0
  140.0460   69.8700  225.9350 C   0  0  0  0  0  0  0  0  0  0  0  0
  140.0280   69.0840  227.0660 C   0  0  0  0  0  0  0  0  0  0  0  0
  140.5290   69.5210  228.2770 C   0  0  0  0  0  0  0  0  0  0  0  0
  141.0570   70.7970  228.3050 C   0  0  0  0  0  0  0  0  0  0  0  0
  141.0940   71.6190  227.1900 C   0  0  0  0  0  0  0  0  0  0  0  0
  140.5820   71.1390  226.0050 C   0  0  0  0  0  0  0  0  0  0  0  0
  140.5970   71.9010  224.8960 N   0  0  0  0  0  0  0  0  0  0  0  0
  138.2570   73.3110  223.0150 H   0  0  0  0  0  0  0  0  0  0  0  0
  139.4857   73.5392  220.2872 H   0  0  0  0  0  0  0  0  0  0  0  0
  138.0608   74.4230  220.8800 H   0  0  0  0  0  0  0  0  0  0  0  0
  137.5387   75.9857  221.3706 H   0  0  0  0  0  0  0  0  0  0  0  0
  138.0013   77.3962  222.3954 H   0  0  0  0  0  0  0  0  0  0  0  0
  136.6738   77.4604  219.9806 H   0  0  0  0  0  0  0  0  0  0  0  0
  137.5409   78.8348  220.8408 H   0  0  0  0  0  0  0  0  0  0  0  0
  138.4838   77.1336  218.5670 H   0  0  0  0  0  0  0  0  0  0  0  0
  138.2239   78.9536  218.6950 H   0  0  0  0  0  0  0  0  0  0  0  0
  140.5790   77.8572  218.7024 H   0  0  0  0  0  0  0  0  0  0  0  0
  140.0643   79.3228  219.7275 H   0  0  0  0  0  0  0  0  0  0  0  0
  141.4446   77.1158  220.5377 H   0  0  0  0  0  0  0  0  0  0  0  0
  139.9511   79.0188  222.1273 H   0  0  0  0  0  0  0  0  0  0  0  0
  142.5408   79.2273  220.6447 H   0  0  0  0  0  0  0  0  0  0  0  0
  141.2145   80.4330  220.8848 H   0  0  0  0  0  0  0  0  0  0  0  0
  143.5033   79.6930  222.7212 H   0  0  0  0  0  0  0  0  0  0  0  0
  142.8709   81.3121  222.2641 H   0  0  0  0  0  0  0  0  0  0  0  0
  142.1260   78.8015  224.9570 H   0  0  0  0  0  0  0  0  0  0  0  0
  140.3977   79.1688  224.4981 H   0  0  0  0  0  0  0  0  0  0  0  0
  142.4828   77.5939  222.9321 H   0  0  0  0  0  0  0  0  0  0  0  0
  140.8606   77.0820  223.4125 H   0  0  0  0  0  0  0  0  0  0  0  0
  139.1663   69.8475  222.6726 H   0  0  0  0  0  0  0  0  0  0  0  0
  139.1013   68.3618  224.6886 H   0  0  0  0  0  0  0  0  0  0  0  0
  139.5996   68.0728  227.0027 H   0  0  0  0  0  0  0  0  0  0  0  0
  140.5085   68.8846  229.1740 H   0  0  0  0  0  0  0  0  0  0  0  0
  141.4656   71.1770  229.2530 H   0  0  0  0  0  0  0  0  0  0  0  0
  141.5220   72.6306  227.2499 H   0  0  0  0  0  0  0  0  0  0  0  0
  1  2  2  0
  2  3  1  0
  3  4  1  0
  4  5  1  0
  5  6  2  0
  5  7  1  0
  7  8  1  0
  8  9  1  0
  9 10  1  0
 10 11  1  0
 11 12  1  0
 12 13  1  0
 13 14  1  0
 14 15  1  0
 15 16  1  0
 16 17  1  0
 17 18  1  0
  2 19  1  0
 19 20  2  0
 20 21  1  0
 21 22  2  0
 22 23  1  0
 23 24  2  0
 24 25  1  0
 25 26  2  0
 26 27  1  0
 27 28  2  0
 12  7  1  0
 18 13  1  0
 28 19  1  0
 27 22  1  0
  3 29  1  0
  4 30  1  0
  4 31  1  0
  8 32  1  0
  8 33  1  0
  9 34  1  0
  9 35  1  0
 10 36  1  0
 10 37  1  0
 11 38  1  0
 11 39  1  0
 12 40  1  6
 13 41  1  0
 14 42  1  0
 14 43  1  0
 15 44  1  0
 15 45  1  0
 17 46  1  0
 17 47  1  0
 18 48  1  0
 18 49  1  0
 20 50  1  0
 21 51  1  0
 23 52  1  0
 24 53  1  0
 25 54  1  0
 26 55  1  0
M  END
>  <smiles>  (96) 
O=C(NCC(=O)N1CCCCC1C1CCOCC1)c1ccc2ccccc2n1

>  <score_type>  (96) 
oracle

>  <origin>  (96) 
autodockgpu

>  <m_score__min__energy>  (96) 
-8.7699999999999996

>  <m_primary>  (96) 
energy

>  <rmsd>  (96) 
2.10211017088247

>  <m_score__min__rmsd>  (96) 
2.10211017088247

>  <meeko>  (96) 
{"free_energy": -8.32, "intermolecular_energy": -9.81, "internal_energy": -1.29, "cluster_size": 27, "cluster_id": 2, "rank_in_cluster": 18}

>  <energy>  (96) 
-8.11

>  <cluster_rmsd>  (96) 
1.18

>  <cluster>  (96) 
2

$$$$

     RDKit          3D

 55 58  0  0  0  0  0  0  0  0999 V2000
  140.8710   71.4220  221.3070 O   0  0  0  0  0  0  0  0  0  0  0  0
  140.3840   72.0320  222.2930 C   0  0  0  0  0  0  0  0  0  0  0  0
  139.9560   73.3870  222.2470 N   0  0  0  0  0  0  0  0  0  0  0  0
  140.0920   74.0960  220.9820 C   0  0  0  0  0  0  0  0  0  0  0  0
  141.1640   75.0780  221.1550 C   0  0  0  0  0  0  0  0  0  0  0  0
  141.3650   75.7190  222.2440 O   0  0  0  0  0  0  0  0  0  0  0  0
  142.1000   75.4180  220.1040 N   0  0  0  0  0  0  0  0  0  0  0  0
  142.5560   76.8050  220.0760 C   0  0  0  0  0  0  0  0  0  0  0  0
  142.6560   77.2910  218.6730 C   0  0  0  0  0  0  0  0  0  0  0  0
  142.0160   76.4080  217.6510 C   0  0  0  0  0  0  0  0  0  0  0  0
  142.3050   74.9580  217.7870 C   0  0  0  0  0  0  0  0  0  0  0  0
  142.5500   74.4310  219.1430 C   0  0  1  0  0  0  0  0  0  0  0  0
  143.9370   73.9220  219.3830 C   0  0  0  0  0  0  0  0  0  0  0  0
  144.2190   72.6060  218.7280 C   0  0  0  0  0  0  0  0  0  0  0  0
  145.4180   71.9140  219.3770 C   0  0  0  0  0  0  0  0  0  0  0  0
  146.3260   72.8540  219.7820 O   0  0  0  0  0  0  0  0  0  0  0  0
  145.9160   73.7300  220.7490 C   0  0  0  0  0  0  0  0  0  0  0  0
  144.3900   73.9010  220.8070 C   0  0  0  0  0  0  0  0  0  0  0  0
  140.2420   71.3230  223.5750 C   0  0  0  0  0  0  0  0  0  0  0  0
  139.6220   70.0730  223.6090 C   0  0  0  0  0  0  0  0  0  0  0  0
  139.4730   69.3760  224.8060 C   0  0  0  0  0  0  0  0  0  0  0  0
  139.9630   69.9730  225.9590 C   0  0  0  0  0  0  0  0  0  0  0  0
  139.8390   69.3230  227.1670 C   0  0  0  0  0  0  0  0  0  0  0  0
  140.3060   69.8650  228.3490 C   0  0  0  0  0  0  0  0  0  0  0  0
  140.9130   71.1040  228.2640 C   0  0  0  0  0  0  0  0  0  0  0  0
  141.0570   71.7890  227.0700 C   0  0  0  0  0  0  0  0  0  0  0  0
  140.5750   71.2080  225.9180 C   0  0  0  0  0  0  0  0  0  0  0  0
  140.6920   71.8370  224.7340 N   0  0  0  0  0  0  0  0  0  0  0  0
  139.5490   73.8780  223.0910 H   0  0  0  0  0  0  0  0  0  0  0  0
  140.3521   73.3902  220.1794 H   0  0  0  0  0  0  0  0  0  0  0  0
  139.1486   74.5893  220.7050 H   0  0  0  0  0  0  0  0  0  0  0  0
  141.8401   77.4329  220.6267 H   0  0  0  0  0  0  0  0  0  0  0  0
  143.5493   76.8631  220.5450 H   0  0  0  0  0  0  0  0  0  0  0  0
  142.1755   78.2790  218.6192 H   0  0  0  0  0  0  0  0  0  0  0  0
  143.7289   77.3131  218.4313 H   0  0  0  0  0  0  0  0  0  0  0  0
  140.9267   76.5442  217.7201 H   0  0  0  0  0  0  0  0  0  0  0  0
  142.4406   76.7107  216.6824 H   0  0  0  0  0  0  0  0  0  0  0  0
  141.4449   74.4115  217.3728 H   0  0  0  0  0  0  0  0  0  0  0  0
  143.2579   74.8139  217.2568 H   0  0  0  0  0  0  0  0  0  0  0  0
  141.9580   73.5125  219.2689 H   0  0  0  0  0  0  0  0  0  0  0  0
  144.5442   74.6940  218.8877 H   0  0  0  0  0  0  0  0  0  0  0  0
  143.3346   71.9592  218.8258 H   0  0  0  0  0  0  0  0  0  0  0  0
  144.4510   72.7859  217.6679 H   0  0  0  0  0  0  0  0  0  0  0  0
  145.0787   71.3336  220.2477 H   0  0  0  0  0  0  0  0  0  0  0  0
  145.8903   71.2402  218.6470 H   0  0  0  0  0  0  0  0  0  0  0  0
  146.2632   73.3601  221.7250 H   0  0  0  0  0  0  0  0  0  0  0  0
  146.3447   74.7124  220.5015 H   0  0  0  0  0  0  0  0  0  0  0  0
  143.9289   73.0595  221.3449 H   0  0  0  0  0  0  0  0  0  0  0  0
  144.1018   74.8186  221.3408 H   0  0  0  0  0  0  0  0  0  0  0  0
  139.2447   69.6308  222.6751 H   0  0  0  0  0  0  0  0  0  0  0  0
  138.9857   68.3903  224.8361 H   0  0  0  0  0  0  0  0  0  0  0  0
  139.3509   68.3375  227.1916 H   0  0  0  0  0  0  0  0  0  0  0  0
  140.2002   69.3376  229.3085 H   0  0  0  0  0  0  0  0  0  0  0  0
  141.2982   71.5655  229.1852 H   0  0  0  0  0  0  0  0  0  0  0  0
  141.5450   72.7744  227.0418 H   0  0  0  0  0  0  0  0  0  0  0  0
  1  2  2  0
  2  3  1  0
  3  4  1  0
  4  5  1  0
  5  6  2  0
  5  7  1  0
  7  8  1  0
  8  9  1  0
  9 10  1  0
 10 11  1  0
 11 12  1  0
 12 13  1  0
 13 14  1  0
 14 15  1  0
 15 16  1  0
 16 17  1  0
 17 18  1  0
  2 19  1  0
 19 20  2  0
 20 21  1  0
 21 22  2  0
 22 23  1  0
 23 24  2  0
 24 25  1  0
 25 26  2  0
 26 27  1  0
 27 28  2  0
 12  7  1  0
 18 13  1  0
 28 19  1  0
 27 22  1  0
  3 29  1  0
  4 30  1  0
  4 31  1  0
  8 32  1  0
  8 33  1  0
  9 34  1  0
  9 35  1  0
 10 36  1  0
 10 37  1  0
 11 38  1  0
 11 39  1  0
 12 40  1  1
 13 41  1  0
 14 42  1  0
 14 43  1  0
 15 44  1  0
 15 45  1  0
 17 46  1  0
 17 47  1  0
 18 48  1  0
 18 49  1  0
 20 50  1  0
 21 51  1  0
 23 52  1  0
 24 53  1  0
 25 54  1  0
 26 55  1  0
M  END
>  <smiles>  (97) 
O=C(NCC(=O)N1CCCCC1C1CCOCC1)c1ccc2ccccc2n1

>  <score_type>  (97) 
oracle

>  <origin>  (97) 
autodockgpu

>  <m_score__min__energy>  (97) 
-8.7699999999999996

>  <m_primary>  (97) 
energy

>  <rmsd>  (97) 
2.4268511927422054

>  <m_score__min__rmsd>  (97) 
2.4268511927422054

>  <meeko>  (97) 
{"free_energy": -8.73, "intermolecular_energy": -10.22, "internal_energy": -1.71, "cluster_size": 21, "cluster_id": 1, "rank_in_cluster": 4}

>  <energy>  (97) 
-8.04

>  <cluster_rmsd>  (97) 
1.15

>  <cluster>  (97) 
2

$$$$

     RDKit          3D

 55 58  0  0  0  0  0  0  0  0999 V2000
  140.4500   71.0560  221.1930 O   0  0  0  0  0  0  0  0  0  0  0  0
  140.2520   71.7800  222.2030 C   0  0  0  0  0  0  0  0  0  0  0  0
  140.1320   73.1950  222.1450 N   0  0  0  0  0  0  0  0  0  0  0  0
  140.2450   73.8310  220.8400 C   0  0  0  0  0  0  0  0  0  0  0  0
  141.1080   75.0010  221.0060 C   0  0  0  0  0  0  0  0  0  0  0  0
  141.0820   75.7570  222.0380 O   0  0  0  0  0  0  0  0  0  0  0  0
  142.0770   75.4150  220.0120 N   0  0  0  0  0  0  0  0  0  0  0  0
  142.5190   76.8050  220.0880 C   0  0  0  0  0  0  0  0  0  0  0  0
  142.6630   77.3800  218.7240 C   0  0  0  0  0  0  0  0  0  0  0  0
  142.0680   76.5580  217.6260 C   0  0  0  0  0  0  0  0  0  0  0  0
  142.3680   75.1050  217.6800 C   0  0  0  0  0  0  0  0  0  0  0  0
  142.5710   74.4950  219.0070 C   0  0  1  0  0  0  0  0  0  0  0  0
  143.9530   73.9830  219.2640 C   0  0  0  0  0  0  0  0  0  0  0  0
  144.2300   72.6510  218.6390 C   0  0  0  0  0  0  0  0  0  0  0  0
  145.4230   71.9670  219.3080 C   0  0  0  0  0  0  0  0  0  0  0  0
  146.3350   72.9100  219.6950 O   0  0  0  0  0  0  0  0  0  0  0  0
  145.9270   73.8110  220.6400 C   0  0  0  0  0  0  0  0  0  0  0  0
  144.4020   73.9920  220.6890 C   0  0  0  0  0  0  0  0  0  0  0  0
  140.1360   71.1470  223.5260 C   0  0  0  0  0  0  0  0  0  0  0  0
  139.5770   69.8720  223.6360 C   0  0  0  0  0  0  0  0  0  0  0  0
  139.4530   69.2450  224.8750 C   0  0  0  0  0  0  0  0  0  0  0  0
  139.9080   69.9360  225.9900 C   0  0  0  0  0  0  0  0  0  0  0  0
  139.8080   69.3580  227.2350 C   0  0  0  0  0  0  0  0  0  0  0  0
  140.2410   69.9950  228.3820 C   0  0  0  0  0  0  0  0  0  0  0  0
  140.7880   71.2540  228.2220 C   0  0  0  0  0  0  0  0  0  0  0  0
  140.9070   71.8690  226.9870 C   0  0  0  0  0  0  0  0  0  0  0  0
  140.4600   71.1950  225.8730 C   0  0  0  0  0  0  0  0  0  0  0  0
  140.5550   71.7530  224.6520 N   0  0  0  0  0  0  0  0  0  0  0  0
  139.9660   73.7810  223.0090 H   0  0  0  0  0  0  0  0  0  0  0  0
  140.6911   73.1324  220.1169 H   0  0  0  0  0  0  0  0  0  0  0  0
  139.2553   74.1247  220.4601 H   0  0  0  0  0  0  0  0  0  0  0  0
  141.7776   77.3905  220.6515 H   0  0  0  0  0  0  0  0  0  0  0  0
  143.4947   76.8413  220.5947 H   0  0  0  0  0  0  0  0  0  0  0  0
  142.1744   78.3655  218.7157 H   0  0  0  0  0  0  0  0  0  0  0  0
  143.7434   77.4266  218.5224 H   0  0  0  0  0  0  0  0  0  0  0  0
  140.9755   76.6800  217.6654 H   0  0  0  0  0  0  0  0  0  0  0  0
  142.5223   76.9254  216.6940 H   0  0  0  0  0  0  0  0  0  0  0  0
  141.5290   74.5785  217.2015 H   0  0  0  0  0  0  0  0  0  0  0  0
  143.3405   75.0034  217.1761 H   0  0  0  0  0  0  0  0  0  0  0  0
  141.9849   73.5653  219.0527 H   0  0  0  0  0  0  0  0  0  0  0  0
  144.5662   74.7405  218.7540 H   0  0  0  0  0  0  0  0  0  0  0  0
  143.3417   72.0114  218.7476 H   0  0  0  0  0  0  0  0  0  0  0  0
  144.4668   72.8060  217.5760 H   0  0  0  0  0  0  0  0  0  0  0  0
  145.0772   71.4084  220.1903 H   0  0  0  0  0  0  0  0  0  0  0  0
  145.8940   71.2744  218.5949 H   0  0  0  0  0  0  0  0  0  0  0  0
  146.2690   73.4622  221.6256 H   0  0  0  0  0  0  0  0  0  0  0  0
  146.3621   74.7848  220.3709 H   0  0  0  0  0  0  0  0  0  0  0  0
  143.9344   73.1657  221.2446 H   0  0  0  0  0  0  0  0  0  0  0  0
  144.1178   74.9234  221.2006 H   0  0  0  0  0  0  0  0  0  0  0  0
  139.2288   69.3539  222.7302 H   0  0  0  0  0  0  0  0  0  0  0  0
  139.0117   68.2415  224.9657 H   0  0  0  0  0  0  0  0  0  0  0  0
  139.3678   68.3535  227.3199 H   0  0  0  0  0  0  0  0  0  0  0  0
  140.1547   69.5240  229.3723 H   0  0  0  0  0  0  0  0  0  0  0  0
  141.1441   71.7905  229.1138 H   0  0  0  0  0  0  0  0  0  0  0  0
  141.3484   72.8726  226.8982 H   0  0  0  0  0  0  0  0  0  0  0  0
  1  2  2  0
  2  3  1  0
  3  4  1  0
  4  5  1  0
  5  6  2  0
  5  7  1  0
  7  8  1  0
  8  9  1  0
  9 10  1  0
 10 11  1  0
 11 12  1  0
 12 13  1  0
 13 14  1  0
 14 15  1  0
 15 16  1  0
 16 17  1  0
 17 18  1  0
  2 19  1  0
 19 20  2  0
 20 21  1  0
 21 22  2  0
 22 23  1  0
 23 24  2  0
 24 25  1  0
 25 26  2  0
 26 27  1  0
 27 28  2  0
 12  7  1  0
 18 13  1  0
 28 19  1  0
 27 22  1  0
  3 29  1  0
  4 30  1  0
  4 31  1  0
  8 32  1  0
  8 33  1  0
  9 34  1  0
  9 35  1  0
 10 36  1  0
 10 37  1  0
 11 38  1  0
 11 39  1  0
 12 40  1  6
 13 41  1  0
 14 42  1  0
 14 43  1  0
 15 44  1  0
 15 45  1  0
 17 46  1  0
 17 47  1  0
 18 48  1  0
 18 49  1  0
 20 50  1  0
 21 51  1  0
 23 52  1  0
 24 53  1  0
 25 54  1  0
 26 55  1  0
M  END
>  <smiles>  (98) 
O=C(NCC(=O)N1CCCCC1C1CCOCC1)c1ccc2ccccc2n1

>  <score_type>  (98) 
oracle

>  <origin>  (98) 
autodockgpu

>  <m_score__min__energy>  (98) 
-8.7699999999999996

>  <m_primary>  (98) 
energy

>  <rmsd>  (98) 
2.4169482094459833

>  <m_score__min__rmsd>  (98) 
2.4169482094459833

>  <meeko>  (98) 
{"free_energy": -8.46, "intermolecular_energy": -9.96, "internal_energy": -1.85, "cluster_size": 21, "cluster_id": 1, "rank_in_cluster": 16}

>  <energy>  (98) 
-8.0

>  <cluster_rmsd>  (98) 
0.99

>  <cluster>  (98) 
2

$$$$

     RDKit          3D

 55 58  0  0  0  0  0  0  0  0999 V2000
  140.8760   71.7930  221.2250 O   0  0  0  0  0  0  0  0  0  0  0  0
  140.3770   72.3050  222.2590 C   0  0  0  0  0  0  0  0  0  0  0  0
  139.9360   73.6550  222.3350 N   0  0  0  0  0  0  0  0  0  0  0  0
  140.0760   74.4800  221.1430 C   0  0  0  0  0  0  0  0  0  0  0  0
  139.9390   75.8740  221.5690 C   0  0  0  0  0  0  0  0  0  0  0  0
  139.4180   76.2240  222.6840 O   0  0  0  0  0  0  0  0  0  0  0  0
  140.3800   76.9920  220.7620 N   0  0  0  0  0  0  0  0  0  0  0  0
  139.3790   77.5740  219.8710 C   0  0  0  0  0  0  0  0  0  0  0  0
  139.9940   77.9410  218.5670 C   0  0  0  0  0  0  0  0  0  0  0  0
  141.3660   77.3910  218.3380 C   0  0  0  0  0  0  0  0  0  0  0  0
  142.3040   77.5180  219.4800 C   0  0  0  0  0  0  0  0  0  0  0  0
  141.7370   77.4950  220.8420 C   0  0  1  0  0  0  0  0  0  0  0  0
  141.8780   78.7720  221.6080 C   0  0  0  0  0  0  0  0  0  0  0  0
  141.5040   78.6540  223.0540 C   0  0  0  0  0  0  0  0  0  0  0  0
  141.1970   80.0250  223.6560 C   0  0  0  0  0  0  0  0  0  0  0  0
  142.0010   80.9700  223.0800 O   0  0  0  0  0  0  0  0  0  0  0  0
  141.8380   81.1810  221.7380 C   0  0  0  0  0  0  0  0  0  0  0  0
  141.2320   79.9750  221.0020 C   0  0  0  0  0  0  0  0  0  0  0  0
  140.2300   71.4790  223.4680 C   0  0  0  0  0  0  0  0  0  0  0  0
  139.6080   70.2330  223.3830 C   0  0  0  0  0  0  0  0  0  0  0  0
  139.4550   69.4270  224.5100 C   0  0  0  0  0  0  0  0  0  0  0  0
  139.9440   69.9110  225.7150 C   0  0  0  0  0  0  0  0  0  0  0  0
  139.8160   69.1510  226.8560 C   0  0  0  0  0  0  0  0  0  0  0  0
  140.2830   69.5790  228.0840 C   0  0  0  0  0  0  0  0  0  0  0  0
  140.8920   70.8180  228.1180 C   0  0  0  0  0  0  0  0  0  0  0  0
  141.0400   71.6130  226.9930 C   0  0  0  0  0  0  0  0  0  0  0  0
  140.5580   71.1440  225.7910 C   0  0  0  0  0  0  0  0  0  0  0  0
  140.6800   71.8810  224.6710 N   0  0  0  0  0  0  0  0  0  0  0  0
  139.5180   74.0620  223.2170 H   0  0  0  0  0  0  0  0  0  0  0  0
  141.0639   74.3198  220.6865 H   0  0  0  0  0  0  0  0  0  0  0  0
  139.3125   74.2213  220.3945 H   0  0  0  0  0  0  0  0  0  0  0  0
  138.5768   76.8411  219.6996 H   0  0  0  0  0  0  0  0  0  0  0  0
  138.9695   78.4811  220.3395 H   0  0  0  0  0  0  0  0  0  0  0  0
  139.3394   77.5701  217.7646 H   0  0  0  0  0  0  0  0  0  0  0  0
  140.0990   79.0360  218.5740 H   0  0  0  0  0  0  0  0  0  0  0  0
  141.2669   76.3220  218.0982 H   0  0  0  0  0  0  0  0  0  0  0  0
  141.7993   77.9900  217.5234 H   0  0  0  0  0  0  0  0  0  0  0  0
  143.0214   76.6871  219.4092 H   0  0  0  0  0  0  0  0  0  0  0  0
  142.7328   78.5256  219.3755 H   0  0  0  0  0  0  0  0  0  0  0  0
  142.3389   76.8081  221.4551 H   0  0  0  0  0  0  0  0  0  0  0  0
  142.9616   78.9496  221.5419 H   0  0  0  0  0  0  0  0  0  0  0  0
  140.6135   78.0145  223.1438 H   0  0  0  0  0  0  0  0  0  0  0  0
  142.3519   78.2144  223.5997 H   0  0  0  0  0  0  0  0  0  0  0  0
  140.1429   80.2787  223.4701 H   0  0  0  0  0  0  0  0  0  0  0  0
  141.3839   79.9981  224.7397 H   0  0  0  0  0  0  0  0  0  0  0  0
  141.1722   82.0455  221.5988 H   0  0  0  0  0  0  0  0  0  0  0  0
  142.8371   81.3544  221.3118 H   0  0  0  0  0  0  0  0  0  0  0  0
  140.1425   79.9420  221.1501 H   0  0  0  0  0  0  0  0  0  0  0  0
  141.4064   80.0291  219.9173 H   0  0  0  0  0  0  0  0  0  0  0  0
  139.2323   69.8810  222.4109 H   0  0  0  0  0  0  0  0  0  0  0  0
  138.9650   68.4442  224.4465 H   0  0  0  0  0  0  0  0  0  0  0  0
  139.3249   68.1691  226.7876 H   0  0  0  0  0  0  0  0  0  0  0  0
  140.1751   68.9636  228.9893 H   0  0  0  0  0  0  0  0  0  0  0  0
  141.2760   71.1896  229.0795 H   0  0  0  0  0  0  0  0  0  0  0  0
  141.5307   72.5953  227.0582 H   0  0  0  0  0  0  0  0  0  0  0  0
  1  2  2  0
  2  3  1  0
  3  4  1  0
  4  5  1  0
  5  6  2  0
  5  7  1  0
  7  8  1  0
  8  9  1  0
  9 10  1  0
 10 11  1  0
 11 12  1  0
 12 13  1  0
 13 14  1  0
 14 15  1  0
 15 16  1  0
 16 17  1  0
 17 18  1  0
  2 19  1  0
 19 20  2  0
 20 21  1  0
 21 22  2  0
 22 23  1  0
 23 24  2  0
 24 25  1  0
 25 26  2  0
 26 27  1  0
 27 28  2  0
 12  7  1  0
 18 13  1  0
 28 19  1  0
 27 22  1  0
  3 29  1  0
  4 30  1  0
  4 31  1  0
  8 32  1  0
  8 33  1  0
  9 34  1  0
  9 35  1  0
 10 36  1  0
 10 37  1  0
 11 38  1  0
 11 39  1  0
 12 40  1  1
 13 41  1  0
 14 42  1  0
 14 43  1  0
 15 44  1  0
 15 45  1  0
 17 46  1  0
 17 47  1  0
 18 48  1  0
 18 49  1  0
 20 50  1  0
 21 51  1  0
 23 52  1  0
 24 53  1  0
 25 54  1  0
 26 55  1  0
M  END
>  <smiles>  (99) 
O=C(NCC(=O)N1CCCCC1C1CCOCC1)c1ccc2ccccc2n1

>  <score_type>  (99) 
oracle

>  <origin>  (99) 
autodockgpu

>  <m_score__min__energy>  (99) 
-8.7699999999999996

>  <m_primary>  (99) 
energy

>  <rmsd>  (99) 
1.8612049727875344

>  <m_score__min__rmsd>  (99) 
1.8612049727875344

>  <meeko>  (99) 
{"free_energy": -8.24, "intermolecular_energy": -9.73, "internal_energy": -1.89, "cluster_size": 27, "cluster_id": 2, "rank_in_cluster": 21}

>  <energy>  (99) 
-8.11

>  <cluster_rmsd>  (99) 
0.0

>  <cluster>  (99) 
3

$$$$

     RDKit          3D

 55 58  0  0  0  0  0  0  0  0999 V2000
  140.7290   71.4150  221.2690 O   0  0  0  0  0  0  0  0  0  0  0  0
  140.3050   72.0470  222.2700 C   0  0  0  0  0  0  0  0  0  0  0  0
  139.9220   73.4160  222.2310 N   0  0  0  0  0  0  0  0  0  0  0  0
  140.0310   74.1130  220.9570 C   0  0  0  0  0  0  0  0  0  0  0  0
  141.0300   75.1680  221.1300 C   0  0  0  0  0  0  0  0  0  0  0  0
  141.1460   75.8620  222.1990 O   0  0  0  0  0  0  0  0  0  0  0  0
  141.9840   75.5290  220.1020 N   0  0  0  0  0  0  0  0  0  0  0  0
  142.4290   76.9210  220.1000 C   0  0  0  0  0  0  0  0  0  0  0  0
  142.5530   77.4250  218.7060 C   0  0  0  0  0  0  0  0  0  0  0  0
  141.9400   76.5490  217.6600 C   0  0  0  0  0  0  0  0  0  0  0  0
  142.2390   75.1000  217.7840 C   0  0  0  0  0  0  0  0  0  0  0  0
  142.4610   74.5580  219.1380 C   0  0  1  0  0  0  0  0  0  0  0  0
  143.8470   74.0580  219.4000 C   0  0  0  0  0  0  0  0  0  0  0  0
  144.3370   73.0750  218.3810 C   0  0  0  0  0  0  0  0  0  0  0  0
  145.5020   72.2500  218.9290 C   0  0  0  0  0  0  0  0  0  0  0  0
  146.2560   73.0220  219.7700 O   0  0  0  0  0  0  0  0  0  0  0  0
  145.6410   73.4770  220.9040 C   0  0  0  0  0  0  0  0  0  0  0  0
  144.1110   73.5500  220.7800 C   0  0  0  0  0  0  0  0  0  0  0  0
  140.1900   71.3520  223.5610 C   0  0  0  0  0  0  0  0  0  0  0  0
  139.5830   70.0960  223.6180 C   0  0  0  0  0  0  0  0  0  0  0  0
  139.4600   69.4110  224.8260 C   0  0  0  0  0  0  0  0  0  0  0  0
  139.9620   70.0250  225.9640 C   0  0  0  0  0  0  0  0  0  0  0  0
  139.8640   69.3870  227.1810 C   0  0  0  0  0  0  0  0  0  0  0  0
  140.3450   69.9470  228.3490 C   0  0  0  0  0  0  0  0  0  0  0  0
  140.9370   71.1910  228.2410 C   0  0  0  0  0  0  0  0  0  0  0  0
  141.0560   71.8640  227.0370 C   0  0  0  0  0  0  0  0  0  0  0  0
  140.5610   71.2660  225.9000 C   0  0  0  0  0  0  0  0  0  0  0  0
  140.6540   71.8830  224.7070 N   0  0  0  0  0  0  0  0  0  0  0  0
  139.5670   73.9260  223.0870 H   0  0  0  0  0  0  0  0  0  0  0  0
  140.3520   73.4142  220.1705 H   0  0  0  0  0  0  0  0  0  0  0  0
  139.0611   74.5365  220.6573 H   0  0  0  0  0  0  0  0  0  0  0  0
  141.6969   77.5361  220.6438 H   0  0  0  0  0  0  0  0  0  0  0  0
  143.4122   76.9814  220.5895 H   0  0  0  0  0  0  0  0  0  0  0  0
  142.0657   78.4099  218.6547 H   0  0  0  0  0  0  0  0  0  0  0  0
  143.6303   77.4586  218.4860 H   0  0  0  0  0  0  0  0  0  0  0  0
  140.8484   76.6752  217.7095 H   0  0  0  0  0  0  0  0  0  0  0  0
  142.3804   76.8674  216.7036 H   0  0  0  0  0  0  0  0  0  0  0  0
  141.3924   74.5514  217.3455 H   0  0  0  0  0  0  0  0  0  0  0  0
  143.2038   74.9709  217.2717 H   0  0  0  0  0  0  0  0  0  0  0  0
  141.8741   73.6333  219.2398 H   0  0  0  0  0  0  0  0  0  0  0  0
  144.4364   74.9818  219.3044 H   0  0  0  0  0  0  0  0  0  0  0  0
  143.5135   72.3981  218.1096 H   0  0  0  0  0  0  0  0  0  0  0  0
  144.6867   73.6309  217.4986 H   0  0  0  0  0  0  0  0  0  0  0  0
  145.1091   71.3836  219.4812 H   0  0  0  0  0  0  0  0  0  0  0  0
  146.1275   71.9018  218.0938 H   0  0  0  0  0  0  0  0  0  0  0  0
  145.8919   72.7988  221.7330 H   0  0  0  0  0  0  0  0  0  0  0  0
  146.0021   74.5008  221.0813 H   0  0  0  0  0  0  0  0  0  0  0  0
  143.6662   72.5529  220.9144 H   0  0  0  0  0  0  0  0  0  0  0  0
  143.6698   74.2034  221.5471 H   0  0  0  0  0  0  0  0  0  0  0  0
  139.1956   69.6397  222.6951 H   0  0  0  0  0  0  0  0  0  0  0  0
  138.9829   68.4211  224.8748 H   0  0  0  0  0  0  0  0  0  0  0  0
  139.3861   68.3972  227.2244 H   0  0  0  0  0  0  0  0  0  0  0  0
  140.2610   69.4289  229.3157 H   0  0  0  0  0  0  0  0  0  0  0  0
  141.3307   71.6671  229.1511 H   0  0  0  0  0  0  0  0  0  0  0  0
  141.5348   72.8532  226.9899 H   0  0  0  0  0  0  0  0  0  0  0  0
  1  2  2  0
  2  3  1  0
  3  4  1  0
  4  5  1  0
  5  6  2  0
  5  7  1  0
  7  8  1  0
  8  9  1  0
  9 10  1  0
 10 11  1  0
 11 12  1  0
 12 13  1  0
 13 14  1  0
 14 15  1  0
 15 16  1  0
 16 17  1  0
 17 18  1  0
  2 19  1  0
 19 20  2  0
 20 21  1  0
 21 22  2  0
 22 23  1  0
 23 24  2  0
 24 25  1  0
 25 26  2  0
 26 27  1  0
 27 28  2  0
 12  7  1  0
 18 13  1  0
 28 19  1  0
 27 22  1  0
  3 29  1  0
  4 30  1  0
  4 31  1  0
  8 32  1  0
  8 33  1  0
  9 34  1  0
  9 35  1  0
 10 36  1  0
 10 37  1  0
 11 38  1  0
 11 39  1  0
 12 40  1  6
 13 41  1  0
 14 42  1  0
 14 43  1  0
 15 44  1  0
 15 45  1  0
 17 46  1  0
 17 47  1  0
 18 48  1  0
 18 49  1  0
 20 50  1  0
 21 51  1  0
 23 52  1  0
 24 53  1  0
 25 54  1  0
 26 55  1  0
M  END
>  <smiles>  (100) 
O=C(NCC(=O)N1CCCCC1C1CCOCC1)c1ccc2ccccc2n1

>  <score_type>  (100) 
oracle

>  <origin>  (100) 
autodockgpu

>  <m_score__min__energy>  (100) 
-8.7699999999999996

>  <m_primary>  (100) 
energy

>  <rmsd>  (100) 
2.3844200933709425

>  <m_score__min__rmsd>  (100) 
2.3844200933709425

>  <meeko>  (100) 
{"free_energy": -8.62, "intermolecular_energy": -10.11, "internal_energy": -1.75, "cluster_size": 21, "cluster_id": 1, "rank_in_cluster": 12}

>  <energy>  (100) 
-7.41

>  <cluster_rmsd>  (100) 
1.0

>  <cluster>  (100) 
3

$$$$
