
     RDKit          3D

 52 55  0  0  0  0  0  0  0  0999 V2000
  139.9580   73.7670  222.4060 O   0  0  0  0  0  0  0  0  0  0  0  0
  139.9640   72.5160  222.2860 C   0  0  0  0  0  0  0  0  0  0  0  0
  139.9270   72.0240  220.9320 N   0  0  0  0  0  0  0  0  0  0  0  0
  139.8890   73.0030  219.8880 C   0  0  0  0  0  0  0  0  0  0  0  0
  140.9910   72.8770  218.9270 C   0  0  0  0  0  0  0  0  0  0  0  0
  140.7030   72.8190  217.7030 O   0  0  0  0  0  0  0  0  0  0  0  0
  142.3220   72.8250  219.4240 N   0  0  0  0  0  0  0  0  0  0  0  0
  143.0170   71.6660  220.0000 C   0  0  0  0  0  0  0  0  0  0  0  0
  144.1230   72.2100  220.8380 C   0  0  0  0  0  0  0  0  0  0  0  0
  143.8760   73.7050  220.8440 C   0  0  0  0  0  0  0  0  0  0  0  0
  143.2730   73.8970  219.4710 C   0  0  2  0  0  0  0  0  0  0  0  0
  142.7240   75.2640  219.2560 C   0  0  0  0  0  0  0  0  0  0  0  0
  141.5390   75.5140  219.9860 O   0  0  0  0  0  0  0  0  0  0  0  0
  141.4910   76.6740  220.7480 C   0  0  0  0  0  0  0  0  0  0  0  0
  141.0220   76.5830  222.0430 C   0  0  0  0  0  0  0  0  0  0  0  0
  140.9340   77.6760  222.8840 C   0  0  0  0  0  0  0  0  0  0  0  0
  141.3280   78.8850  222.4000 C   0  0  0  0  0  0  0  0  0  0  0  0
  141.2220   80.2820  223.4530 Cl  0  0  0  0  0  0  0  0  0  0  0  0
  141.7920   78.9800  221.1180 C   0  0  0  0  0  0  0  0  0  0  0  0
  141.8940   77.9090  220.2510 C   0  0  0  0  0  0  0  0  0  0  0  0
  140.0040   71.6170  223.4110 C   0  0  0  0  0  0  0  0  0  0  0  0
  139.5200   70.3350  223.2310 C   0  0  0  0  0  0  0  0  0  0  0  0
  139.5150   69.3970  224.2500 C   0  0  0  0  0  0  0  0  0  0  0  0
  140.0210   69.8120  225.4650 C   0  0  0  0  0  0  0  0  0  0  0  0
  140.0180   68.8760  226.4910 C   0  0  0  0  0  0  0  0  0  0  0  0
  140.5090   69.2220  227.7310 C   0  0  0  0  0  0  0  0  0  0  0  0
  140.5050   68.3130  228.7230 F   0  0  0  0  0  0  0  0  0  0  0  0
  140.9970   70.5140  227.9120 C   0  0  0  0  0  0  0  0  0  0  0  0
  140.9980   71.4460  226.8860 C   0  0  0  0  0  0  0  0  0  0  0  0
  140.5070   71.0960  225.6520 C   0  0  0  0  0  0  0  0  0  0  0  0
  140.4740   71.9310  224.6180 N   0  0  0  0  0  0  0  0  0  0  0  0
  139.9290   71.0030  220.7280 H   0  0  0  0  0  0  0  0  0  0  0  0
  138.9389   72.8955  219.3443 H   0  0  0  0  0  0  0  0  0  0  0  0
  139.9872   73.9891  220.3654 H   0  0  0  0  0  0  0  0  0  0  0  0
  142.3248   71.0772  220.6198 H   0  0  0  0  0  0  0  0  0  0  0  0
  143.4037   71.0021  219.2128 H   0  0  0  0  0  0  0  0  0  0  0  0
  144.0776   71.8020  221.8585 H   0  0  0  0  0  0  0  0  0  0  0  0
  145.1178   71.9465  220.4496 H   0  0  0  0  0  0  0  0  0  0  0  0
  143.1738   73.9963  221.6390 H   0  0  0  0  0  0  0  0  0  0  0  0
  144.7712   74.3141  221.0379 H   0  0  0  0  0  0  0  0  0  0  0  0
  143.9925   73.8475  218.6404 H   0  0  0  0  0  0  0  0  0  0  0  0
  143.4841   75.9974  219.5631 H   0  0  0  0  0  0  0  0  0  0  0  0
  142.4721   75.3488  218.1886 H   0  0  0  0  0  0  0  0  0  0  0  0
  140.7052   75.5998  222.4212 H   0  0  0  0  0  0  0  0  0  0  0  0
  140.5573   77.5719  223.9122 H   0  0  0  0  0  0  0  0  0  0  0  0
  142.1035   79.9702  220.7539 H   0  0  0  0  0  0  0  0  0  0  0  0
  142.2728   78.0265  219.2250 H   0  0  0  0  0  0  0  0  0  0  0  0
  139.1253   70.0499  222.2447 H   0  0  0  0  0  0  0  0  0  0  0  0
  139.1292   68.3780  224.0992 H   0  0  0  0  0  0  0  0  0  0  0  0
  139.6257   67.8636  226.3146 H   0  0  0  0  0  0  0  0  0  0  0  0
  141.3927   70.8028  228.8969 H   0  0  0  0  0  0  0  0  0  0  0  0
  141.3895   72.4593  227.0590 H   0  0  0  0  0  0  0  0  0  0  0  0
  1  2  2  0
  2  3  1  0
  3  4  1  0
  4  5  1  0
  5  6  2  0
  5  7  1  0
  7  8  1  0
  8  9  1  0
  9 10  1  0
 10 11  1  0
 11 12  1  0
 12 13  1  0
 13 14  1  0
 14 15  2  0
 15 16  1  0
 16 17  2  0
 17 18  1  0
 17 19  1  0
 19 20  2  0
  2 21  1  0
 21 22  2  0
 22 23  1  0
 23 24  2  0
 24 25  1  0
 25 26  2  0
 26 27  1  0
 26 28  1  0
 28 29  2  0
 29 30  1  0
 30 31  2  0
 11  7  1  0
 20 14  1  0
 31 21  1  0
 30 24  1  0
  3 32  1  0
  4 33  1  0
  4 34  1  0
  8 35  1  0
  8 36  1  0
  9 37  1  0
  9 38  1  0
 10 39  1  0
 10 40  1  0
 11 41  1  6
 12 42  1  0
 12 43  1  0
 15 44  1  0
 16 45  1  0
 19 46  1  0
 20 47  1  0
 22 48  1  0
 23 49  1  0
 25 50  1  0
 28 51  1  0
 29 52  1  0
M  END
>  <smiles>  (1) 
O=C(NCC(=O)N1CCC[C@@H]1COc1ccc(Cl)cc1)c1ccc2cc(F)ccc2n1

>  <score_type>  (1) 
oracle

>  <origin>  (1) 
autodockgpu

>  <m_score__min__energy>  (1) 
-8.5

>  <m_primary>  (1) 
energy

>  <rmsd>  (1) 
3.363234636492676

>  <m_score__min__rmsd>  (1) 
3.363234636492676

>  <meeko>  (1) 
{"free_energy": -7.75, "intermolecular_energy": -9.84, "internal_energy": -2.0, "cluster_size": 30, "cluster_id": 1, "rank_in_cluster": 17}

>  <energy>  (1) 
-8.5

>  <cluster_rmsd>  (1) 
0.0

>  <cluster>  (1) 
1

$$$$

     RDKit          3D

 52 55  0  0  0  0  0  0  0  0999 V2000
  138.8050   71.2900  222.1950 O   0  0  0  0  0  0  0  0  0  0  0  0
  139.6960   71.7340  222.9630 C   0  0  0  0  0  0  0  0  0  0  0  0
  140.3700   72.9230  222.5060 N   0  0  0  0  0  0  0  0  0  0  0  0
  139.9540   73.4590  221.2450 C   0  0  0  0  0  0  0  0  0  0  0  0
  140.2090   74.8980  221.1080 C   0  0  0  0  0  0  0  0  0  0  0  0
  141.1810   75.3880  221.7390 O   0  0  0  0  0  0  0  0  0  0  0  0
  139.3480   75.6630  220.2740 N   0  0  0  0  0  0  0  0  0  0  0  0
  139.4600   75.8700  218.8240 C   0  0  0  0  0  0  0  0  0  0  0  0
  138.7060   77.1190  218.5160 C   0  0  0  0  0  0  0  0  0  0  0  0
  138.3480   77.6750  219.8800 C   0  0  0  0  0  0  0  0  0  0  0  0
  138.1830   76.3980  220.6710 C   0  0  2  0  0  0  0  0  0  0  0  0
  138.0280   76.6300  222.1330 C   0  0  0  0  0  0  0  0  0  0  0  0
  137.9790   77.9990  222.4840 O   0  0  0  0  0  0  0  0  0  0  0  0
  139.1790   78.6200  222.8020 C   0  0  0  0  0  0  0  0  0  0  0  0
  139.1440   79.9430  223.1960 C   0  0  0  0  0  0  0  0  0  0  0  0
  140.2800   80.6530  223.5330 C   0  0  0  0  0  0  0  0  0  0  0  0
  141.4760   80.0070  223.4690 C   0  0  0  0  0  0  0  0  0  0  0  0
  142.9280   80.8930  223.8930 Cl  0  0  0  0  0  0  0  0  0  0  0  0
  141.5170   78.6980  223.0790 C   0  0  0  0  0  0  0  0  0  0  0  0
  140.4010   77.9590  222.7360 C   0  0  0  0  0  0  0  0  0  0  0  0
  140.0360   71.1120  224.2170 C   0  0  0  0  0  0  0  0  0  0  0  0
  140.6710   71.8860  225.1700 C   0  0  0  0  0  0  0  0  0  0  0  0
  141.0400   71.3820  226.4060 C   0  0  0  0  0  0  0  0  0  0  0  0
  140.7390   70.0550  226.6390 C   0  0  0  0  0  0  0  0  0  0  0  0
  141.1050   69.5440  227.8770 C   0  0  0  0  0  0  0  0  0  0  0  0
  140.8350   68.2260  228.1780 C   0  0  0  0  0  0  0  0  0  0  0  0
  141.1910   67.7340  229.3780 F   0  0  0  0  0  0  0  0  0  0  0  0
  140.1950   67.4470  227.2180 C   0  0  0  0  0  0  0  0  0  0  0  0
  139.8300   67.9600  225.9830 C   0  0  0  0  0  0  0  0  0  0  0  0
  140.1020   69.2740  225.6880 C   0  0  0  0  0  0  0  0  0  0  0  0
  139.7840   69.8410  224.5280 N   0  0  0  0  0  0  0  0  0  0  0  0
  141.1240   73.3670  223.0710 H   0  0  0  0  0  0  0  0  0  0  0  0
  140.4964   72.9316  220.4465 H   0  0  0  0  0  0  0  0  0  0  0  0
  138.8657   73.3150  221.1753 H   0  0  0  0  0  0  0  0  0  0  0  0
  140.5158   75.9826  218.5365 H   0  0  0  0  0  0  0  0  0  0  0  0
  139.0545   75.0125  218.2669 H   0  0  0  0  0  0  0  0  0  0  0  0
  139.3347   77.8279  217.9572 H   0  0  0  0  0  0  0  0  0  0  0  0
  137.8221   76.9366  217.8871 H   0  0  0  0  0  0  0  0  0  0  0  0
  139.1555   78.3017  220.2865 H   0  0  0  0  0  0  0  0  0  0  0  0
  137.4662   78.3326  219.8870 H   0  0  0  0  0  0  0  0  0  0  0  0
  137.2553   75.8441  220.4646 H   0  0  0  0  0  0  0  0  0  0  0  0
  137.0945   76.1518  222.4645 H   0  0  0  0  0  0  0  0  0  0  0  0
  138.9135   76.2010  222.6247 H   0  0  0  0  0  0  0  0  0  0  0  0
  138.1705   80.4530  223.2435 H   0  0  0  0  0  0  0  0  0  0  0  0
  140.2198   81.7067  223.8431 H   0  0  0  0  0  0  0  0  0  0  0  0
  142.4981   78.2025  223.0355 H   0  0  0  0  0  0  0  0  0  0  0  0
  140.4749   76.9057  222.4276 H   0  0  0  0  0  0  0  0  0  0  0  0
  140.8909   72.9387  224.9387 H   0  0  0  0  0  0  0  0  0  0  0  0
  141.5446   72.0042  227.1598 H   0  0  0  0  0  0  0  0  0  0  0  0
  141.6078   70.1875  228.6139 H   0  0  0  0  0  0  0  0  0  0  0  0
  139.9726   66.3941  227.4460 H   0  0  0  0  0  0  0  0  0  0  0  0
  139.3261   67.3194  225.2443 H   0  0  0  0  0  0  0  0  0  0  0  0
  1  2  2  0
  2  3  1  0
  3  4  1  0
  4  5  1  0
  5  6  2  0
  5  7  1  0
  7  8  1  0
  8  9  1  0
  9 10  1  0
 10 11  1  0
 11 12  1  0
 12 13  1  0
 13 14  1  0
 14 15  2  0
 15 16  1  0
 16 17  2  0
 17 18  1  0
 17 19  1  0
 19 20  2  0
  2 21  1  0
 21 22  2  0
 22 23  1  0
 23 24  2  0
 24 25  1  0
 25 26  2  0
 26 27  1  0
 26 28  1  0
 28 29  2  0
 29 30  1  0
 30 31  2  0
 11  7  1  0
 20 14  1  0
 31 21  1  0
 30 24  1  0
  3 32  1  0
  4 33  1  0
  4 34  1  0
  8 35  1  0
  8 36  1  0
  9 37  1  0
  9 38  1  0
 10 39  1  0
 10 40  1  0
 11 41  1  6
 12 42  1  0
 12 43  1  0
 15 44  1  0
 16 45  1  0
 19 46  1  0
 20 47  1  0
 22 48  1  0
 23 49  1  0
 25 50  1  0
 28 51  1  0
 29 52  1  0
M  END
>  <smiles>  (2) 
O=C(NCC(=O)N1CCC[C@@H]1COc1ccc(Cl)cc1)c1ccc2cc(F)ccc2n1

>  <score_type>  (2) 
oracle

>  <origin>  (2) 
autodockgpu

>  <m_score__min__energy>  (2) 
-8.5

>  <m_primary>  (2) 
energy

>  <rmsd>  (2) 
2.9025353656695385

>  <m_score__min__rmsd>  (2) 
2.9025353656695385

>  <meeko>  (2) 
{"free_energy": -7.47, "intermolecular_energy": -9.56, "internal_energy": -1.81, "cluster_size": 30, "cluster_id": 1, "rank_in_cluster": 23}

>  <energy>  (2) 
-8.49

>  <cluster_rmsd>  (2) 
0.27

>  <cluster>  (2) 
1

$$$$

     RDKit          3D

 52 55  0  0  0  0  0  0  0  0999 V2000
  139.1940   71.2810  221.5600 O   0  0  0  0  0  0  0  0  0  0  0  0
  138.7690   71.5860  222.7020 C   0  0  0  0  0  0  0  0  0  0  0  0
  137.6600   72.5070  222.7250 N   0  0  0  0  0  0  0  0  0  0  0  0
  137.1740   72.9650  221.4580 C   0  0  0  0  0  0  0  0  0  0  0  0
  137.8520   74.1730  220.9730 C   0  0  0  0  0  0  0  0  0  0  0  0
  138.5420   74.0810  219.9240 O   0  0  0  0  0  0  0  0  0  0  0  0
  137.6980   75.3790  221.7090 N   0  0  0  0  0  0  0  0  0  0  0  0
  136.4490   76.0950  222.0010 C   0  0  0  0  0  0  0  0  0  0  0  0
  136.8290   77.5060  222.2970 C   0  0  0  0  0  0  0  0  0  0  0  0
  138.3070   77.5630  221.9640 C   0  0  0  0  0  0  0  0  0  0  0  0
  138.7320   76.1580  222.3250 C   0  0  2  0  0  0  0  0  0  0  0  0
  140.1240   75.8400  221.9040 C   0  0  0  0  0  0  0  0  0  0  0  0
  140.4700   74.4800  222.0860 O   0  0  0  0  0  0  0  0  0  0  0  0
  141.5770   74.0050  221.3960 C   0  0  0  0  0  0  0  0  0  0  0  0
  142.4420   74.9250  220.8380 C   0  0  0  0  0  0  0  0  0  0  0  0
  143.5710   74.5570  220.1330 C   0  0  0  0  0  0  0  0  0  0  0  0
  143.8270   73.2280  219.9910 C   0  0  0  0  0  0  0  0  0  0  0  0
  145.2560   72.7430  219.0980 Cl  0  0  0  0  0  0  0  0  0  0  0  0
  142.9740   72.3120  220.5410 C   0  0  0  0  0  0  0  0  0  0  0  0
  141.8380   72.6460  221.2520 C   0  0  0  0  0  0  0  0  0  0  0  0
  139.3360   71.0630  223.9190 C   0  0  0  0  0  0  0  0  0  0  0  0
  140.2720   71.8370  224.5790 C   0  0  0  0  0  0  0  0  0  0  0  0
  140.8760   71.4230  225.7560 C   0  0  0  0  0  0  0  0  0  0  0  0
  140.4910   70.1890  226.2380 C   0  0  0  0  0  0  0  0  0  0  0  0
  141.0930   69.7690  227.4170 C   0  0  0  0  0  0  0  0  0  0  0  0
  140.7560   68.5460  227.9570 C   0  0  0  0  0  0  0  0  0  0  0  0
  141.3400   68.1430  229.0990 F   0  0  0  0  0  0  0  0  0  0  0  0
  139.8120   67.7680  227.2920 C   0  0  0  0  0  0  0  0  0  0  0  0
  139.2140   68.1900  226.1150 C   0  0  0  0  0  0  0  0  0  0  0  0
  139.5530   69.4090  225.5810 C   0  0  0  0  0  0  0  0  0  0  0  0
  139.0240   69.8850  224.4570 N   0  0  0  0  0  0  0  0  0  0  0  0
  137.2370   72.8210  223.6220 H   0  0  0  0  0  0  0  0  0  0  0  0
  137.3195   72.1635  220.7188 H   0  0  0  0  0  0  0  0  0  0  0  0
  136.1127   73.2212  221.5919 H   0  0  0  0  0  0  0  0  0  0  0  0
  135.7769   76.0570  221.1310 H   0  0  0  0  0  0  0  0  0  0  0  0
  135.9186   75.6394  222.8502 H   0  0  0  0  0  0  0  0  0  0  0  0
  136.2588   78.2051  221.6677 H   0  0  0  0  0  0  0  0  0  0  0  0
  136.6172   77.7931  223.3375 H   0  0  0  0  0  0  0  0  0  0  0  0
  138.4740   77.7753  220.8977 H   0  0  0  0  0  0  0  0  0  0  0  0
  138.8619   78.3557  222.4872 H   0  0  0  0  0  0  0  0  0  0  0  0
  138.8084   75.9622  223.4047 H   0  0  0  0  0  0  0  0  0  0  0  0
  140.2306   76.0871  220.8374 H   0  0  0  0  0  0  0  0  0  0  0  0
  140.7985   76.4340  222.5382 H   0  0  0  0  0  0  0  0  0  0  0  0
  142.2227   75.9960  220.9601 H   0  0  0  0  0  0  0  0  0  0  0  0
  144.2418   75.3138  219.7001 H   0  0  0  0  0  0  0  0  0  0  0  0
  143.2064   71.2449  220.4094 H   0  0  0  0  0  0  0  0  0  0  0  0
  141.1758   71.8795  221.6809 H   0  0  0  0  0  0  0  0  0  0  0  0
  140.5468   72.8145  224.1559 H   0  0  0  0  0  0  0  0  0  0  0  0
  141.6204   72.0435  226.2764 H   0  0  0  0  0  0  0  0  0  0  0  0
  141.8348   70.4088  227.9174 H   0  0  0  0  0  0  0  0  0  0  0  0
  139.5329   66.7907  227.7127 H   0  0  0  0  0  0  0  0  0  0  0  0
  138.4723   67.5524  225.6116 H   0  0  0  0  0  0  0  0  0  0  0  0
  1  2  2  0
  2  3  1  0
  3  4  1  0
  4  5  1  0
  5  6  2  0
  5  7  1  0
  7  8  1  0
  8  9  1  0
  9 10  1  0
 10 11  1  0
 11 12  1  0
 12 13  1  0
 13 14  1  0
 14 15  2  0
 15 16  1  0
 16 17  2  0
 17 18  1  0
 17 19  1  0
 19 20  2  0
  2 21  1  0
 21 22  2  0
 22 23  1  0
 23 24  2  0
 24 25  1  0
 25 26  2  0
 26 27  1  0
 26 28  1  0
 28 29  2  0
 29 30  1  0
 30 31  2  0
 11  7  1  0
 20 14  1  0
 31 21  1  0
 30 24  1  0
  3 32  1  0
  4 33  1  0
  4 34  1  0
  8 35  1  0
  8 36  1  0
  9 37  1  0
  9 38  1  0
 10 39  1  0
 10 40  1  0
 11 41  1  1
 12 42  1  0
 12 43  1  0
 15 44  1  0
 16 45  1  0
 19 46  1  0
 20 47  1  0
 22 48  1  0
 23 49  1  0
 25 50  1  0
 28 51  1  0
 29 52  1  0
M  END
>  <smiles>  (3) 
O=C(NCC(=O)N1CCC[C@@H]1COc1ccc(Cl)cc1)c1ccc2cc(F)ccc2n1

>  <score_type>  (3) 
oracle

>  <origin>  (3) 
autodockgpu

>  <m_score__min__energy>  (3) 
-8.5

>  <m_primary>  (3) 
energy

>  <rmsd>  (3) 
3.4862779366375474

>  <m_score__min__rmsd>  (3) 
3.4862779366375474

>  <meeko>  (3) 
{"free_energy": -7.49, "intermolecular_energy": -9.58, "internal_energy": -2.1, "cluster_size": 4, "cluster_id": 5, "rank_in_cluster": 1}

>  <energy>  (3) 
-8.46

>  <cluster_rmsd>  (3) 
1.32

>  <cluster>  (3) 
1

$$$$

     RDKit          3D

 52 55  0  0  0  0  0  0  0  0999 V2000
  140.6780   73.5010  222.3470 O   0  0  0  0  0  0  0  0  0  0  0  0
  140.5930   74.4540  221.5310 C   0  0  0  0  0  0  0  0  0  0  0  0
  141.0170   74.1570  220.1870 N   0  0  0  0  0  0  0  0  0  0  0  0
  141.4810   72.8260  219.9330 C   0  0  0  0  0  0  0  0  0  0  0  0
  142.5080   72.7540  218.8860 C   0  0  0  0  0  0  0  0  0  0  0  0
  142.1290   72.5840  217.6990 O   0  0  0  0  0  0  0  0  0  0  0  0
  143.8720   72.8770  219.2660 N   0  0  0  0  0  0  0  0  0  0  0  0
  144.8770   71.8090  219.3480 C   0  0  0  0  0  0  0  0  0  0  0  0
  145.9400   72.2980  220.2720 C   0  0  0  0  0  0  0  0  0  0  0  0
  145.3730   73.5880  220.8300 C   0  0  0  0  0  0  0  0  0  0  0  0
  144.5620   74.0740  219.6500 C   0  0  2  0  0  0  0  0  0  0  0  0
  143.7010   75.2450  219.9710 C   0  0  0  0  0  0  0  0  0  0  0  0
  142.9420   75.7040  218.8700 O   0  0  0  0  0  0  0  0  0  0  0  0
  142.6040   77.0500  218.8420 C   0  0  0  0  0  0  0  0  0  0  0  0
  142.1720   77.6370  220.0150 C   0  0  0  0  0  0  0  0  0  0  0  0
  141.8130   78.9690  220.0950 C   0  0  0  0  0  0  0  0  0  0  0  0
  141.8920   79.7180  218.9620 C   0  0  0  0  0  0  0  0  0  0  0  0
  141.4390   81.4100  219.0460 Cl  0  0  0  0  0  0  0  0  0  0  0  0
  142.3190   79.1420  217.7980 C   0  0  0  0  0  0  0  0  0  0  0  0
  142.6860   77.8150  217.6830 C   0  0  0  0  0  0  0  0  0  0  0  0
  140.1090   75.7610  221.8960 C   0  0  0  0  0  0  0  0  0  0  0  0
  138.8070   76.0830  221.5610 C   0  0  0  0  0  0  0  0  0  0  0  0
  138.2480   77.3140  221.8660 C   0  0  0  0  0  0  0  0  0  0  0  0
  139.0650   78.2090  222.5270 C   0  0  0  0  0  0  0  0  0  0  0  0
  138.5100   79.4430  222.8360 C   0  0  0  0  0  0  0  0  0  0  0  0
  139.2690   80.3860  223.4960 C   0  0  0  0  0  0  0  0  0  0  0  0
  138.7290   81.5810  223.7940 F   0  0  0  0  0  0  0  0  0  0  0  0
  140.5800   80.0600  223.8340 C   0  0  0  0  0  0  0  0  0  0  0  0
  141.1310   78.8270  223.5230 C   0  0  0  0  0  0  0  0  0  0  0  0
  140.3710   77.8910  222.8650 C   0  0  0  0  0  0  0  0  0  0  0  0
  140.8250   76.6860  222.5330 N   0  0  0  0  0  0  0  0  0  0  0  0
  140.9850   74.8800  219.4380 H   0  0  0  0  0  0  0  0  0  0  0  0
  141.9040   72.4210  220.8642 H   0  0  0  0  0  0  0  0  0  0  0  0
  140.6171   72.2439  219.5797 H   0  0  0  0  0  0  0  0  0  0  0  0
  144.4225   70.8891  219.7446 H   0  0  0  0  0  0  0  0  0  0  0  0
  145.2897   71.5741  218.3558 H   0  0  0  0  0  0  0  0  0  0  0  0
  146.1238   71.5709  221.0767 H   0  0  0  0  0  0  0  0  0  0  0  0
  146.9068   72.4428  219.7676 H   0  0  0  0  0  0  0  0  0  0  0  0
  144.7383   73.4044  221.7095 H   0  0  0  0  0  0  0  0  0  0  0  0
  146.1301   74.3015  221.1875 H   0  0  0  0  0  0  0  0  0  0  0  0
  145.1555   74.4930  218.8240 H   0  0  0  0  0  0  0  0  0  0  0  0
  143.0086   74.9581  220.7761 H   0  0  0  0  0  0  0  0  0  0  0  0
  144.3690   76.0665  220.2692 H   0  0  0  0  0  0  0  0  0  0  0  0
  142.1112   77.0189  220.9229 H   0  0  0  0  0  0  0  0  0  0  0  0
  141.4742   79.4096  221.0443 H   0  0  0  0  0  0  0  0  0  0  0  0
  142.3737   79.7731  216.8987 H   0  0  0  0  0  0  0  0  0  0  0  0
  143.0243   77.3871  216.7278 H   0  0  0  0  0  0  0  0  0  0  0  0
  138.1938   75.3368  221.0345 H   0  0  0  0  0  0  0  0  0  0  0  0
  137.2112   77.5638  221.5964 H   0  0  0  0  0  0  0  0  0  0  0  0
  137.4702   79.6675  222.5559 H   0  0  0  0  0  0  0  0  0  0  0  0
  141.1958   80.8023  224.3629 H   0  0  0  0  0  0  0  0  0  0  0  0
  142.1706   78.5993  223.8014 H   0  0  0  0  0  0  0  0  0  0  0  0
  1  2  2  0
  2  3  1  0
  3  4  1  0
  4  5  1  0
  5  6  2  0
  5  7  1  0
  7  8  1  0
  8  9  1  0
  9 10  1  0
 10 11  1  0
 11 12  1  0
 12 13  1  0
 13 14  1  0
 14 15  2  0
 15 16  1  0
 16 17  2  0
 17 18  1  0
 17 19  1  0
 19 20  2  0
  2 21  1  0
 21 22  2  0
 22 23  1  0
 23 24  2  0
 24 25  1  0
 25 26  2  0
 26 27  1  0
 26 28  1  0
 28 29  2  0
 29 30  1  0
 30 31  2  0
 11  7  1  0
 20 14  1  0
 31 21  1  0
 30 24  1  0
  3 32  1  0
  4 33  1  0
  4 34  1  0
  8 35  1  0
  8 36  1  0
  9 37  1  0
  9 38  1  0
 10 39  1  0
 10 40  1  0
 11 41  1  6
 12 42  1  0
 12 43  1  0
 15 44  1  0
 16 45  1  0
 19 46  1  0
 20 47  1  0
 22 48  1  0
 23 49  1  0
 25 50  1  0
 28 51  1  0
 29 52  1  0
M  END
>  <smiles>  (4) 
O=C(NCC(=O)N1CCC[C@@H]1COc1ccc(Cl)cc1)c1ccc2cc(F)ccc2n1

>  <score_type>  (4) 
oracle

>  <origin>  (4) 
autodockgpu

>  <m_score__min__energy>  (4) 
-8.5

>  <m_primary>  (4) 
energy

>  <rmsd>  (4) 
7.570005858226763

>  <m_score__min__rmsd>  (4) 
7.570005858226763

>  <meeko>  (4) 
{"free_energy": -6.17, "intermolecular_energy": -8.26, "internal_energy": -3.07, "cluster_size": 2, "cluster_id": 11, "rank_in_cluster": 1}

>  <energy>  (4) 
-8.45

>  <cluster_rmsd>  (4) 
1.31

>  <cluster>  (4) 
1

$$$$

     RDKit          3D

 52 55  0  0  0  0  0  0  0  0999 V2000
  138.2290   70.7810  221.7120 O   0  0  0  0  0  0  0  0  0  0  0  0
  138.7440   71.5410  222.5700 C   0  0  0  0  0  0  0  0  0  0  0  0
  138.7120   72.9460  222.2510 N   0  0  0  0  0  0  0  0  0  0  0  0
  138.1050   73.3130  221.0070 C   0  0  0  0  0  0  0  0  0  0  0  0
  139.0750   73.5590  219.9330 C   0  0  0  0  0  0  0  0  0  0  0  0
  138.7420   74.3420  219.0050 O   0  0  0  0  0  0  0  0  0  0  0  0
  140.3350   72.9030  219.9930 N   0  0  0  0  0  0  0  0  0  0  0  0
  140.6180   71.4850  219.7290 C   0  0  0  0  0  0  0  0  0  0  0  0
  141.9000   71.1740  220.4230 C   0  0  0  0  0  0  0  0  0  0  0  0
  142.1930   72.4250  221.2270 C   0  0  0  0  0  0  0  0  0  0  0  0
  141.6020   73.4840  220.3260 C   0  0  2  0  0  0  0  0  0  0  0  0
  141.5530   74.8320  220.9570 C   0  0  0  0  0  0  0  0  0  0  0  0
  140.5930   74.9340  221.9910 O   0  0  0  0  0  0  0  0  0  0  0  0
  140.1780   76.2080  222.3540 C   0  0  0  0  0  0  0  0  0  0  0  0
  138.8210   76.4590  222.4140 C   0  0  0  0  0  0  0  0  0  0  0  0
  138.3050   77.6910  222.7640 C   0  0  0  0  0  0  0  0  0  0  0  0
  139.1820   78.6890  223.0580 C   0  0  0  0  0  0  0  0  0  0  0  0
  138.5430   80.2600  223.5030 Cl  0  0  0  0  0  0  0  0  0  0  0  0
  140.5260   78.4460  222.9990 C   0  0  0  0  0  0  0  0  0  0  0  0
  141.0760   77.2270  222.6540 C   0  0  0  0  0  0  0  0  0  0  0  0
  139.3310   71.0620  223.7960 C   0  0  0  0  0  0  0  0  0  0  0  0
  140.2580   71.8700  224.4260 C   0  0  0  0  0  0  0  0  0  0  0  0
  140.8790   71.5000  225.6080 C   0  0  0  0  0  0  0  0  0  0  0  0
  140.5220   70.2720  226.1270 C   0  0  0  0  0  0  0  0  0  0  0  0
  141.1410   69.8960  227.3120 C   0  0  0  0  0  0  0  0  0  0  0  0
  140.8310   68.6820  227.8870 C   0  0  0  0  0  0  0  0  0  0  0  0
  141.4320   68.3210  229.0350 F   0  0  0  0  0  0  0  0  0  0  0  0
  139.8970   67.8690  227.2520 C   0  0  0  0  0  0  0  0  0  0  0  0
  139.2810   68.2470  226.0690 C   0  0  0  0  0  0  0  0  0  0  0  0
  139.5930   69.4580  225.4990 C   0  0  0  0  0  0  0  0  0  0  0  0
  139.0460   69.8930  224.3680 N   0  0  0  0  0  0  0  0  0  0  0  0
  139.1130   73.6560  222.8980 H   0  0  0  0  0  0  0  0  0  0  0  0
  137.4359   72.4986  220.6923 H   0  0  0  0  0  0  0  0  0  0  0  0
  137.5635   74.2554  221.1764 H   0  0  0  0  0  0  0  0  0  0  0  0
  139.8082   70.8553  220.1262 H   0  0  0  0  0  0  0  0  0  0  0  0
  140.6917   71.2879  218.6493 H   0  0  0  0  0  0  0  0  0  0  0  0
  141.7856   70.3021  221.0838 H   0  0  0  0  0  0  0  0  0  0  0  0
  142.7101   70.9203  219.7234 H   0  0  0  0  0  0  0  0  0  0  0  0
  141.6941   72.4027  222.2071 H   0  0  0  0  0  0  0  0  0  0  0  0
  143.2559   72.5732  221.4685 H   0  0  0  0  0  0  0  0  0  0  0  0
  142.1994   73.7125  219.4311 H   0  0  0  0  0  0  0  0  0  0  0  0
  142.5442   75.0560  221.3782 H   0  0  0  0  0  0  0  0  0  0  0  0
  141.2629   75.5470  220.1730 H   0  0  0  0  0  0  0  0  0  0  0  0
  138.1227   75.6439  222.1730 H   0  0  0  0  0  0  0  0  0  0  0  0
  137.2188   77.8604  222.8039 H   0  0  0  0  0  0  0  0  0  0  0  0
  141.2112   79.2718  223.2411 H   0  0  0  0  0  0  0  0  0  0  0  0
  142.1642   77.0706  222.6184 H   0  0  0  0  0  0  0  0  0  0  0  0
  140.5116   72.8401  223.9737 H   0  0  0  0  0  0  0  0  0  0  0  0
  141.6154   72.1487  226.1050 H   0  0  0  0  0  0  0  0  0  0  0  0
  141.8743   70.5629  227.7890 H   0  0  0  0  0  0  0  0  0  0  0  0
  139.6401   66.8985  227.7017 H   0  0  0  0  0  0  0  0  0  0  0  0
  138.5474   67.5821  225.5897 H   0  0  0  0  0  0  0  0  0  0  0  0
  1  2  2  0
  2  3  1  0
  3  4  1  0
  4  5  1  0
  5  6  2  0
  5  7  1  0
  7  8  1  0
  8  9  1  0
  9 10  1  0
 10 11  1  0
 11 12  1  0
 12 13  1  0
 13 14  1  0
 14 15  2  0
 15 16  1  0
 16 17  2  0
 17 18  1  0
 17 19  1  0
 19 20  2  0
  2 21  1  0
 21 22  2  0
 22 23  1  0
 23 24  2  0
 24 25  1  0
 25 26  2  0
 26 27  1  0
 26 28  1  0
 28 29  2  0
 29 30  1  0
 30 31  2  0
 11  7  1  0
 20 14  1  0
 31 21  1  0
 30 24  1  0
  3 32  1  0
  4 33  1  0
  4 34  1  0
  8 35  1  0
  8 36  1  0
  9 37  1  0
  9 38  1  0
 10 39  1  0
 10 40  1  0
 11 41  1  6
 12 42  1  0
 12 43  1  0
 15 44  1  0
 16 45  1  0
 19 46  1  0
 20 47  1  0
 22 48  1  0
 23 49  1  0
 25 50  1  0
 28 51  1  0
 29 52  1  0
M  END
>  <smiles>  (5) 
O=C(NCC(=O)N1CCC[C@@H]1COc1ccc(Cl)cc1)c1ccc2cc(F)ccc2n1

>  <score_type>  (5) 
oracle

>  <origin>  (5) 
autodockgpu

>  <m_score__min__energy>  (5) 
-8.5

>  <m_primary>  (5) 
energy

>  <rmsd>  (5) 
3.5909623683730376

>  <m_score__min__rmsd>  (5) 
3.5909623683730376

>  <meeko>  (5) 
{"free_energy": -7.39, "intermolecular_energy": -9.47, "internal_energy": -2.93, "cluster_size": 30, "cluster_id": 1, "rank_in_cluster": 25}

>  <energy>  (5) 
-8.38

>  <cluster_rmsd>  (5) 
1.27

>  <cluster>  (5) 
1

$$$$

     RDKit          3D

 52 55  0  0  0  0  0  0  0  0999 V2000
  138.0480   70.8670  221.7830 O   0  0  0  0  0  0  0  0  0  0  0  0
  138.6610   71.5870  222.6110 C   0  0  0  0  0  0  0  0  0  0  0  0
  138.7130   72.9910  222.2910 N   0  0  0  0  0  0  0  0  0  0  0  0
  138.0680   73.4030  221.0810 C   0  0  0  0  0  0  0  0  0  0  0  0
  138.8190   73.0520  219.8690 C   0  0  0  0  0  0  0  0  0  0  0  0
  138.2060   73.0660  218.7700 O   0  0  0  0  0  0  0  0  0  0  0  0
  140.1940   72.7140  219.9970 N   0  0  0  0  0  0  0  0  0  0  0  0
  140.7900   71.3720  219.9820 C   0  0  0  0  0  0  0  0  0  0  0  0
  142.1070   71.4860  220.6700 C   0  0  0  0  0  0  0  0  0  0  0  0
  142.1090   72.8970  221.2230 C   0  0  0  0  0  0  0  0  0  0  0  0
  141.2970   73.6140  220.1700 C   0  0  2  0  0  0  0  0  0  0  0  0
  140.9430   75.0090  220.5500 C   0  0  0  0  0  0  0  0  0  0  0  0
  140.4210   75.1210  221.8590 O   0  0  0  0  0  0  0  0  0  0  0  0
  140.0980   76.3930  222.3130 C   0  0  0  0  0  0  0  0  0  0  0  0
  138.7630   76.7270  222.4190 C   0  0  0  0  0  0  0  0  0  0  0  0
  138.3360   77.9650  222.8590 C   0  0  0  0  0  0  0  0  0  0  0  0
  139.2830   78.8820  223.1960 C   0  0  0  0  0  0  0  0  0  0  0  0
  138.7580   80.4580  223.7560 Cl  0  0  0  0  0  0  0  0  0  0  0  0
  140.6060   78.5570  223.0920 C   0  0  0  0  0  0  0  0  0  0  0  0
  141.0680   77.3290  222.6570 C   0  0  0  0  0  0  0  0  0  0  0  0
  139.2770   71.0650  223.8040 C   0  0  0  0  0  0  0  0  0  0  0  0
  140.2640   71.8230  224.4050 C   0  0  0  0  0  0  0  0  0  0  0  0
  140.9180   71.4090  225.5550 C   0  0  0  0  0  0  0  0  0  0  0  0
  140.5290   70.1900  226.0730 C   0  0  0  0  0  0  0  0  0  0  0  0
  141.1790   69.7700  227.2260 C   0  0  0  0  0  0  0  0  0  0  0  0
  140.8410   68.5630  227.7980 C   0  0  0  0  0  0  0  0  0  0  0  0
  141.4730   68.1590  228.9140 F   0  0  0  0  0  0  0  0  0  0  0  0
  139.8460   67.8000  227.1920 C   0  0  0  0  0  0  0  0  0  0  0  0
  139.1990   68.2220  226.0410 C   0  0  0  0  0  0  0  0  0  0  0  0
  139.5390   69.4260  225.4750 C   0  0  0  0  0  0  0  0  0  0  0  0
  138.9650   69.9020  224.3740 N   0  0  0  0  0  0  0  0  0  0  0  0
  139.1990   73.6690  222.9140 H   0  0  0  0  0  0  0  0  0  0  0  0
  137.0807   72.9206  221.0309 H   0  0  0  0  0  0  0  0  0  0  0  0
  137.9948   74.5002  221.1103 H   0  0  0  0  0  0  0  0  0  0  0  0
  140.1419   70.6624  220.5172 H   0  0  0  0  0  0  0  0  0  0  0  0
  140.9095   71.0014  218.9532 H   0  0  0  0  0  0  0  0  0  0  0  0
  142.1899   70.7477  221.4812 H   0  0  0  0  0  0  0  0  0  0  0  0
  142.9552   71.2933  219.9967 H   0  0  0  0  0  0  0  0  0  0  0  0
  141.6257   72.9458  222.2099 H   0  0  0  0  0  0  0  0  0  0  0  0
  143.1107   73.3190  221.3917 H   0  0  0  0  0  0  0  0  0  0  0  0
  141.8298   73.8013  219.2261 H   0  0  0  0  0  0  0  0  0  0  0  0
  141.8490   75.6291  220.4821 H   0  0  0  0  0  0  0  0  0  0  0  0
  140.1562   75.3434  219.8579 H   0  0  0  0  0  0  0  0  0  0  0  0
  138.0080   75.9766  222.1418 H   0  0  0  0  0  0  0  0  0  0  0  0
  137.2645   78.2018  222.9345 H   0  0  0  0  0  0  0  0  0  0  0  0
  141.3486   79.3189  223.3714 H   0  0  0  0  0  0  0  0  0  0  0  0
  142.1425   77.1044  222.5868 H   0  0  0  0  0  0  0  0  0  0  0  0
  140.5402   72.7881  223.9553 H   0  0  0  0  0  0  0  0  0  0  0  0
  141.7027   72.0176  226.0281 H   0  0  0  0  0  0  0  0  0  0  0  0
  141.9597   70.3977  227.6803 H   0  0  0  0  0  0  0  0  0  0  0  0
  139.5655   66.8350  227.6394 H   0  0  0  0  0  0  0  0  0  0  0  0
  138.4182   67.5964  225.5839 H   0  0  0  0  0  0  0  0  0  0  0  0
  1  2  2  0
  2  3  1  0
  3  4  1  0
  4  5  1  0
  5  6  2  0
  5  7  1  0
  7  8  1  0
  8  9  1  0
  9 10  1  0
 10 11  1  0
 11 12  1  0
 12 13  1  0
 13 14  1  0
 14 15  2  0
 15 16  1  0
 16 17  2  0
 17 18  1  0
 17 19  1  0
 19 20  2  0
  2 21  1  0
 21 22  2  0
 22 23  1  0
 23 24  2  0
 24 25  1  0
 25 26  2  0
 26 27  1  0
 26 28  1  0
 28 29  2  0
 29 30  1  0
 30 31  2  0
 11  7  1  0
 20 14  1  0
 31 21  1  0
 30 24  1  0
  3 32  1  0
  4 33  1  0
  4 34  1  0
  8 35  1  0
  8 36  1  0
  9 37  1  0
  9 38  1  0
 10 39  1  0
 10 40  1  0
 11 41  1  6
 12 42  1  0
 12 43  1  0
 15 44  1  0
 16 45  1  0
 19 46  1  0
 20 47  1  0
 22 48  1  0
 23 49  1  0
 25 50  1  0
 28 51  1  0
 29 52  1  0
M  END
>  <smiles>  (6) 
O=C(NCC(=O)N1CCC[C@@H]1COc1ccc(Cl)cc1)c1ccc2cc(F)ccc2n1

>  <score_type>  (6) 
oracle

>  <origin>  (6) 
autodockgpu

>  <m_score__min__energy>  (6) 
-8.5

>  <m_primary>  (6) 
energy

>  <rmsd>  (6) 
3.580843101545525

>  <m_score__min__rmsd>  (6) 
3.580843101545525

>  <meeko>  (6) 
{"free_energy": -7.29, "intermolecular_energy": -9.38, "internal_energy": -2.78, "cluster_size": 30, "cluster_id": 1, "rank_in_cluster": 28}

>  <energy>  (6) 
-8.3

>  <cluster_rmsd>  (6) 
1.64

>  <cluster>  (6) 
1

$$$$

     RDKit          3D

 52 55  0  0  0  0  0  0  0  0999 V2000
  140.8410   71.7180  221.2970 O   0  0  0  0  0  0  0  0  0  0  0  0
  140.3590   72.1590  222.3710 C   0  0  0  0  0  0  0  0  0  0  0  0
  139.9180   73.5310  222.3340 N   0  0  0  0  0  0  0  0  0  0  0  0
  140.0790   74.2280  221.0940 C   0  0  0  0  0  0  0  0  0  0  0  0
  140.9550   75.4020  221.1910 C   0  0  0  0  0  0  0  0  0  0  0  0
  141.1010   75.9370  222.3200 O   0  0  0  0  0  0  0  0  0  0  0  0
  141.5900   75.8740  220.0100 N   0  0  0  0  0  0  0  0  0  0  0  0
  142.9570   75.5870  219.5540 C   0  0  0  0  0  0  0  0  0  0  0  0
  143.3300   76.6850  218.6180 C   0  0  0  0  0  0  0  0  0  0  0  0
  142.1860   77.6720  218.7390 C   0  0  0  0  0  0  0  0  0  0  0  0
  141.0320   76.7340  219.0090 C   0  0  2  0  0  0  0  0  0  0  0  0
  139.7770   77.4410  219.3850 C   0  0  0  0  0  0  0  0  0  0  0  0
  139.9440   78.8360  219.5470 O   0  0  0  0  0  0  0  0  0  0  0  0
  140.6150   79.2720  220.6820 C   0  0  0  0  0  0  0  0  0  0  0  0
  141.5200   80.3060  220.5470 C   0  0  0  0  0  0  0  0  0  0  0  0
  142.2380   80.8130  221.6120 C   0  0  0  0  0  0  0  0  0  0  0  0
  142.0350   80.2590  222.8380 C   0  0  0  0  0  0  0  0  0  0  0  0
  142.9400   80.8910  224.2010 Cl  0  0  0  0  0  0  0  0  0  0  0  0
  141.1400   79.2350  222.9770 C   0  0  0  0  0  0  0  0  0  0  0  0
  140.4060   78.7050  221.9350 C   0  0  0  0  0  0  0  0  0  0  0  0
  140.2440   71.3650  223.5670 C   0  0  0  0  0  0  0  0  0  0  0  0
  139.6180   70.1370  223.4690 C   0  0  0  0  0  0  0  0  0  0  0  0
  139.4580   69.2990  224.5610 C   0  0  0  0  0  0  0  0  0  0  0  0
  139.9590   69.7590  225.7620 C   0  0  0  0  0  0  0  0  0  0  0  0
  139.8010   68.9240  226.8600 C   0  0  0  0  0  0  0  0  0  0  0  0
  140.2780   69.3190  228.0910 C   0  0  0  0  0  0  0  0  0  0  0  0
  140.1240   68.5080  229.1530 F   0  0  0  0  0  0  0  0  0  0  0  0
  140.9090   70.5570  228.1900 C   0  0  0  0  0  0  0  0  0  0  0  0
  141.0640   71.3880  227.0910 C   0  0  0  0  0  0  0  0  0  0  0  0
  140.5870   70.9890  225.8660 C   0  0  0  0  0  0  0  0  0  0  0  0
  140.6980   71.7280  224.7660 N   0  0  0  0  0  0  0  0  0  0  0  0
  139.5040   73.9880  223.1720 H   0  0  0  0  0  0  0  0  0  0  0  0
  140.5085   73.5331  220.3573 H   0  0  0  0  0  0  0  0  0  0  0  0
  139.0843   74.5906  220.7954 H   0  0  0  0  0  0  0  0  0  0  0  0
  143.6470   75.5669  220.4105 H   0  0  0  0  0  0  0  0  0  0  0  0
  143.0137   74.6061  219.0594 H   0  0  0  0  0  0  0  0  0  0  0  0
  144.2808   77.1493  218.9185 H   0  0  0  0  0  0  0  0  0  0  0  0
  143.4778   76.3314  217.5869 H   0  0  0  0  0  0  0  0  0  0  0  0
  142.3420   78.3727  219.5725 H   0  0  0  0  0  0  0  0  0  0  0  0
  142.0498   78.3219  217.8620 H   0  0  0  0  0  0  0  0  0  0  0  0
  140.6800   76.1715  218.1317 H   0  0  0  0  0  0  0  0  0  0  0  0
  139.0302   77.2687  218.5959 H   0  0  0  0  0  0  0  0  0  0  0  0
  139.4564   77.0378  220.3569 H   0  0  0  0  0  0  0  0  0  0  0  0
  141.6754   80.7439  219.5500 H   0  0  0  0  0  0  0  0  0  0  0  0
  142.9515   81.6387  221.4736 H   0  0  0  0  0  0  0  0  0  0  0  0
  140.9960   78.8074  223.9802 H   0  0  0  0  0  0  0  0  0  0  0  0
  139.6949   77.8796  222.0871 H   0  0  0  0  0  0  0  0  0  0  0  0
  139.2334   69.8135  222.4905 H   0  0  0  0  0  0  0  0  0  0  0  0
  138.9597   68.3221  224.4755 H   0  0  0  0  0  0  0  0  0  0  0  0
  139.2977   67.9523  226.7478 H   0  0  0  0  0  0  0  0  0  0  0  0
  141.2948   70.8842  229.1668 H   0  0  0  0  0  0  0  0  0  0  0  0
  141.5658   72.3608  227.1993 H   0  0  0  0  0  0  0  0  0  0  0  0
  1  2  2  0
  2  3  1  0
  3  4  1  0
  4  5  1  0
  5  6  2  0
  5  7  1  0
  7  8  1  0
  8  9  1  0
  9 10  1  0
 10 11  1  0
 11 12  1  0
 12 13  1  0
 13 14  1  0
 14 15  2  0
 15 16  1  0
 16 17  2  0
 17 18  1  0
 17 19  1  0
 19 20  2  0
  2 21  1  0
 21 22  2  0
 22 23  1  0
 23 24  2  0
 24 25  1  0
 25 26  2  0
 26 27  1  0
 26 28  1  0
 28 29  2  0
 29 30  1  0
 30 31  2  0
 11  7  1  0
 20 14  1  0
 31 21  1  0
 30 24  1  0
  3 32  1  0
  4 33  1  0
  4 34  1  0
  8 35  1  0
  8 36  1  0
  9 37  1  0
  9 38  1  0
 10 39  1  0
 10 40  1  0
 11 41  1  6
 12 42  1  0
 12 43  1  0
 15 44  1  0
 16 45  1  0
 19 46  1  0
 20 47  1  0
 22 48  1  0
 23 49  1  0
 25 50  1  0
 28 51  1  0
 29 52  1  0
M  END
>  <smiles>  (7) 
O=C(NCC(=O)N1CCC[C@@H]1COc1ccc(Cl)cc1)c1ccc2cc(F)ccc2n1

>  <score_type>  (7) 
oracle

>  <origin>  (7) 
autodockgpu

>  <m_score__min__energy>  (7) 
-8.5

>  <m_primary>  (7) 
energy

>  <rmsd>  (7) 
2.0650972334319033

>  <m_score__min__rmsd>  (7) 
2.0650972334319033

>  <meeko>  (7) 
{"free_energy": -8.38, "intermolecular_energy": -10.47, "internal_energy": -1.71, "cluster_size": 30, "cluster_id": 1, "rank_in_cluster": 5}

>  <energy>  (7) 
-8.18

>  <cluster_rmsd>  (7) 
1.34

>  <cluster>  (7) 
1

$$$$

     RDKit          3D

 52 55  0  0  0  0  0  0  0  0999 V2000
  141.0270   73.3270  222.1130 O   0  0  0  0  0  0  0  0  0  0  0  0
  140.3790   72.2520  222.1830 C   0  0  0  0  0  0  0  0  0  0  0  0
  139.8010   71.7970  220.9440 N   0  0  0  0  0  0  0  0  0  0  0  0
  140.0270   72.6100  219.7870 C   0  0  0  0  0  0  0  0  0  0  0  0
  139.2860   73.8780  219.8080 C   0  0  0  0  0  0  0  0  0  0  0  0
  138.0480   73.8340  220.0260 O   0  0  0  0  0  0  0  0  0  0  0  0
  140.0020   75.0850  219.5810 N   0  0  0  0  0  0  0  0  0  0  0  0
  140.7360   75.4750  218.3700 C   0  0  0  0  0  0  0  0  0  0  0  0
  141.7240   76.5100  218.7890 C   0  0  0  0  0  0  0  0  0  0  0  0
  141.6220   76.5200  220.3010 C   0  0  0  0  0  0  0  0  0  0  0  0
  140.1600   76.1840  220.4880 C   0  0  2  0  0  0  0  0  0  0  0  0
  139.7960   75.9140  221.9060 C   0  0  0  0  0  0  0  0  0  0  0  0
  139.2080   77.0230  222.5570 O   0  0  0  0  0  0  0  0  0  0  0  0
  140.0500   78.0570  222.9460 C   0  0  0  0  0  0  0  0  0  0  0  0
  139.4960   79.3040  223.1570 C   0  0  0  0  0  0  0  0  0  0  0  0
  140.2450   80.3970  223.5450 C   0  0  0  0  0  0  0  0  0  0  0  0
  141.5830   80.2220  223.7220 C   0  0  0  0  0  0  0  0  0  0  0  0
  142.5490   81.6000  224.2140 Cl  0  0  0  0  0  0  0  0  0  0  0  0
  142.1370   78.9900  223.5140 C   0  0  0  0  0  0  0  0  0  0  0  0
  141.4170   77.8760  223.1260 C   0  0  0  0  0  0  0  0  0  0  0  0
  140.2130   71.5110  223.4070 C   0  0  0  0  0  0  0  0  0  0  0  0
  139.4900   70.3350  223.3550 C   0  0  0  0  0  0  0  0  0  0  0  0
  139.2730   69.5500  224.4760 C   0  0  0  0  0  0  0  0  0  0  0  0
  139.8220   70.0070  225.6570 C   0  0  0  0  0  0  0  0  0  0  0  0
  139.6090   69.2250  226.7840 C   0  0  0  0  0  0  0  0  0  0  0  0
  140.1290   69.6210  227.9980 C   0  0  0  0  0  0  0  0  0  0  0  0
  139.9210   68.8610  229.0870 F   0  0  0  0  0  0  0  0  0  0  0  0
  140.8590   70.8060  228.0490 C   0  0  0  0  0  0  0  0  0  0  0  0
  141.0690   71.5850  226.9210 C   0  0  0  0  0  0  0  0  0  0  0  0
  140.5490   71.1860  225.7140 C   0  0  0  0  0  0  0  0  0  0  0  0
  140.7070   71.8760  224.5890 N   0  0  0  0  0  0  0  0  0  0  0  0
  139.2460   70.9180  220.8980 H   0  0  0  0  0  0  0  0  0  0  0  0
  141.1018   72.8358  219.7247 H   0  0  0  0  0  0  0  0  0  0  0  0
  139.6691   72.0406  218.9166 H   0  0  0  0  0  0  0  0  0  0  0  0
  141.2555   74.6043  217.9435 H   0  0  0  0  0  0  0  0  0  0  0  0
  140.0542   75.8645  217.5996 H   0  0  0  0  0  0  0  0  0  0  0  0
  142.7392   76.2350  218.4670 H   0  0  0  0  0  0  0  0  0  0  0  0
  141.5212   77.4951  218.3435 H   0  0  0  0  0  0  0  0  0  0  0  0
  142.2736   75.7594  220.7558 H   0  0  0  0  0  0  0  0  0  0  0  0
  141.9368   77.4626  220.7727 H   0  0  0  0  0  0  0  0  0  0  0  0
  139.4652   77.0073  220.2654 H   0  0  0  0  0  0  0  0  0  0  0  0
  139.0820   75.0775  221.9293 H   0  0  0  0  0  0  0  0  0  0  0  0
  140.7283   75.6808  222.4412 H   0  0  0  0  0  0  0  0  0  0  0  0
  138.4134   79.4319  223.0099 H   0  0  0  0  0  0  0  0  0  0  0  0
  139.7751   81.3784  223.7060 H   0  0  0  0  0  0  0  0  0  0  0  0
  143.2209   78.8784  223.6645 H   0  0  0  0  0  0  0  0  0  0  0  0
  141.8988   76.8998  222.9682 H   0  0  0  0  0  0  0  0  0  0  0  0
  139.0722   70.0106  222.3905 H   0  0  0  0  0  0  0  0  0  0  0  0
  138.6955   68.6150  224.4274 H   0  0  0  0  0  0  0  0  0  0  0  0
  139.0281   68.2939  226.7089 H   0  0  0  0  0  0  0  0  0  0  0  0
  141.2808   71.1332  229.0108 H   0  0  0  0  0  0  0  0  0  0  0  0
  141.6487   72.5171  226.9926 H   0  0  0  0  0  0  0  0  0  0  0  0
  1  2  2  0
  2  3  1  0
  3  4  1  0
  4  5  1  0
  5  6  2  0
  5  7  1  0
  7  8  1  0
  8  9  1  0
  9 10  1  0
 10 11  1  0
 11 12  1  0
 12 13  1  0
 13 14  1  0
 14 15  2  0
 15 16  1  0
 16 17  2  0
 17 18  1  0
 17 19  1  0
 19 20  2  0
  2 21  1  0
 21 22  2  0
 22 23  1  0
 23 24  2  0
 24 25  1  0
 25 26  2  0
 26 27  1  0
 26 28  1  0
 28 29  2  0
 29 30  1  0
 30 31  2  0
 11  7  1  0
 20 14  1  0
 31 21  1  0
 30 24  1  0
  3 32  1  0
  4 33  1  0
  4 34  1  0
  8 35  1  0
  8 36  1  0
  9 37  1  0
  9 38  1  0
 10 39  1  0
 10 40  1  0
 11 41  1  6
 12 42  1  0
 12 43  1  0
 15 44  1  0
 16 45  1  0
 19 46  1  0
 20 47  1  0
 22 48  1  0
 23 49  1  0
 25 50  1  0
 28 51  1  0
 29 52  1  0
M  END
>  <smiles>  (8) 
O=C(NCC(=O)N1CCC[C@@H]1COc1ccc(Cl)cc1)c1ccc2cc(F)ccc2n1

>  <score_type>  (8) 
oracle

>  <origin>  (8) 
autodockgpu

>  <m_score__min__energy>  (8) 
-8.5

>  <m_primary>  (8) 
energy

>  <rmsd>  (8) 
2.0005627751642674

>  <m_score__min__rmsd>  (8) 
2.0005627751642674

>  <meeko>  (8) 
{"free_energy": -7.72, "intermolecular_energy": -9.8, "internal_energy": -1.53, "cluster_size": 30, "cluster_id": 1, "rank_in_cluster": 18}

>  <energy>  (8) 
-8.15

>  <cluster_rmsd>  (8) 
1.56

>  <cluster>  (8) 
1

$$$$

     RDKit          3D

 52 55  0  0  0  0  0  0  0  0999 V2000
  138.2080   70.6560  221.8920 O   0  0  0  0  0  0  0  0  0  0  0  0
  138.8330   71.1560  222.8610 C   0  0  0  0  0  0  0  0  0  0  0  0
  139.1540   72.5550  222.7350 N   0  0  0  0  0  0  0  0  0  0  0  0
  138.7300   73.2110  221.5340 C   0  0  0  0  0  0  0  0  0  0  0  0
  139.3040   74.5520  221.3660 C   0  0  0  0  0  0  0  0  0  0  0  0
  140.3730   74.8160  221.9730 O   0  0  0  0  0  0  0  0  0  0  0  0
  138.6240   75.4800  220.5300 N   0  0  0  0  0  0  0  0  0  0  0  0
  138.8180   75.6940  219.0900 C   0  0  0  0  0  0  0  0  0  0  0  0
  138.3150   77.0660  218.7960 C   0  0  0  0  0  0  0  0  0  0  0  0
  138.0230   77.6500  220.1640 C   0  0  0  0  0  0  0  0  0  0  0  0
  137.6020   76.4080  220.9160 C   0  0  2  0  0  0  0  0  0  0  0  0
  137.4460   76.6320  222.3790 C   0  0  0  0  0  0  0  0  0  0  0  0
  138.6740   76.6360  223.0820 O   0  0  0  0  0  0  0  0  0  0  0  0
  139.4690   77.7690  222.9710 C   0  0  0  0  0  0  0  0  0  0  0  0
  138.9150   78.9890  223.3020 C   0  0  0  0  0  0  0  0  0  0  0  0
  139.6200   80.1740  223.2270 C   0  0  0  0  0  0  0  0  0  0  0  0
  140.9130   80.1200  222.8070 C   0  0  0  0  0  0  0  0  0  0  0  0
  141.8230   81.6150  222.7050 Cl  0  0  0  0  0  0  0  0  0  0  0  0
  141.4670   78.9140  222.4770 C   0  0  0  0  0  0  0  0  0  0  0  0
  140.7910   77.7110  222.5410 C   0  0  0  0  0  0  0  0  0  0  0  0
  139.2130   70.4000  224.0270 C   0  0  0  0  0  0  0  0  0  0  0  0
  138.9310   69.0470  224.0390 C   0  0  0  0  0  0  0  0  0  0  0  0
  139.2540   68.2330  225.1120 C   0  0  0  0  0  0  0  0  0  0  0  0
  139.8780   68.8490  226.1790 C   0  0  0  0  0  0  0  0  0  0  0  0
  140.2050   68.0390  227.2580 C   0  0  0  0  0  0  0  0  0  0  0  0
  140.8300   68.5870  228.3570 C   0  0  0  0  0  0  0  0  0  0  0  0
  141.1470   67.8000  229.4010 F   0  0  0  0  0  0  0  0  0  0  0  0
  141.1150   69.9500  228.3450 C   0  0  0  0  0  0  0  0  0  0  0  0
  140.7860   70.7560  227.2660 C   0  0  0  0  0  0  0  0  0  0  0  0
  140.1640   70.2050  226.1720 C   0  0  0  0  0  0  0  0  0  0  0  0
  139.8170   70.9100  225.0990 N   0  0  0  0  0  0  0  0  0  0  0  0
  139.6710   73.0600  223.4840 H   0  0  0  0  0  0  0  0  0  0  0  0
  139.0307   72.5933  220.6749 H   0  0  0  0  0  0  0  0  0  0  0  0
  137.6386   73.3317  221.5989 H   0  0  0  0  0  0  0  0  0  0  0  0
  139.8852   75.6174  218.8345 H   0  0  0  0  0  0  0  0  0  0  0  0
  138.2809   74.9376  218.4989 H   0  0  0  0  0  0  0  0  0  0  0  0
  139.0795   77.6590  218.2727 H   0  0  0  0  0  0  0  0  0  0  0  0
  137.4320   77.0619  218.1400 H   0  0  0  0  0  0  0  0  0  0  0  0
  138.9187   78.1086  220.6084 H   0  0  0  0  0  0  0  0  0  0  0  0
  137.2773   78.4587  220.1651 H   0  0  0  0  0  0  0  0  0  0  0  0
  136.5952   76.0393  220.6704 H   0  0  0  0  0  0  0  0  0  0  0  0
  136.9536   77.6036  222.5322 H   0  0  0  0  0  0  0  0  0  0  0  0
  136.8494   75.7961  222.7732 H   0  0  0  0  0  0  0  0  0  0  0  0
  137.8685   79.0186  223.6395 H   0  0  0  0  0  0  0  0  0  0  0  0
  139.1510   81.1313  223.4982 H   0  0  0  0  0  0  0  0  0  0  0  0
  142.5141   78.9011  222.1403 H   0  0  0  0  0  0  0  0  0  0  0  0
  141.2712   76.7600  222.2672 H   0  0  0  0  0  0  0  0  0  0  0  0
  138.4325   68.6010  223.1657 H   0  0  0  0  0  0  0  0  0  0  0  0
  139.0264   67.1568  225.1142 H   0  0  0  0  0  0  0  0  0  0  0  0
  139.9664   66.9654  227.2357 H   0  0  0  0  0  0  0  0  0  0  0  0
  141.6150   70.3996  229.2156 H   0  0  0  0  0  0  0  0  0  0  0  0
  141.0216   71.8303  227.2858 H   0  0  0  0  0  0  0  0  0  0  0  0
  1  2  2  0
  2  3  1  0
  3  4  1  0
  4  5  1  0
  5  6  2  0
  5  7  1  0
  7  8  1  0
  8  9  1  0
  9 10  1  0
 10 11  1  0
 11 12  1  0
 12 13  1  0
 13 14  1  0
 14 15  2  0
 15 16  1  0
 16 17  2  0
 17 18  1  0
 17 19  1  0
 19 20  2  0
  2 21  1  0
 21 22  2  0
 22 23  1  0
 23 24  2  0
 24 25  1  0
 25 26  2  0
 26 27  1  0
 26 28  1  0
 28 29  2  0
 29 30  1  0
 30 31  2  0
 11  7  1  0
 20 14  1  0
 31 21  1  0
 30 24  1  0
  3 32  1  0
  4 33  1  0
  4 34  1  0
  8 35  1  0
  8 36  1  0
  9 37  1  0
  9 38  1  0
 10 39  1  0
 10 40  1  0
 11 41  1  6
 12 42  1  0
 12 43  1  0
 15 44  1  0
 16 45  1  0
 19 46  1  0
 20 47  1  0
 22 48  1  0
 23 49  1  0
 25 50  1  0
 28 51  1  0
 29 52  1  0
M  END
>  <smiles>  (9) 
O=C(NCC(=O)N1CCC[C@@H]1COc1ccc(Cl)cc1)c1ccc2cc(F)ccc2n1

>  <score_type>  (9) 
oracle

>  <origin>  (9) 
autodockgpu

>  <m_score__min__energy>  (9) 
-8.5

>  <m_primary>  (9) 
energy

>  <rmsd>  (9) 
1.8874013883485967

>  <m_score__min__rmsd>  (9) 
1.8874013883485967

>  <meeko>  (9) 
{"free_energy": -7.52, "intermolecular_energy": -9.6, "internal_energy": -2.03, "cluster_size": 30, "cluster_id": 1, "rank_in_cluster": 22}

>  <energy>  (9) 
-8.14

>  <cluster_rmsd>  (9) 
1.85

>  <cluster>  (9) 
1

$$$$

     RDKit          3D

 52 55  0  0  0  0  0  0  0  0999 V2000
  141.3460   72.3030  221.8170 O   0  0  0  0  0  0  0  0  0  0  0  0
  140.3860   72.3690  222.6250 C   0  0  0  0  0  0  0  0  0  0  0  0
  139.4140   73.3960  222.3470 N   0  0  0  0  0  0  0  0  0  0  0  0
  139.6480   74.2140  221.1960 C   0  0  0  0  0  0  0  0  0  0  0  0
  140.7290   75.1900  221.3820 C   0  0  0  0  0  0  0  0  0  0  0  0
  140.6760   75.9460  222.3860 O   0  0  0  0  0  0  0  0  0  0  0  0
  141.7770   75.2320  220.4210 N   0  0  0  0  0  0  0  0  0  0  0  0
  142.7800   74.1950  220.1460 C   0  0  0  0  0  0  0  0  0  0  0  0
  143.9310   74.8820  219.4930 C   0  0  0  0  0  0  0  0  0  0  0  0
  143.5870   76.3540  219.6030 C   0  0  0  0  0  0  0  0  0  0  0  0
  142.0790   76.3000  219.5130 C   0  0  2  0  0  0  0  0  0  0  0  0
  141.4260   77.6050  219.8040 C   0  0  0  0  0  0  0  0  0  0  0  0
  141.8830   78.2100  220.9980 O   0  0  0  0  0  0  0  0  0  0  0  0
  140.9350   78.8150  221.8110 C   0  0  0  0  0  0  0  0  0  0  0  0
  141.3780   79.6260  222.8370 C   0  0  0  0  0  0  0  0  0  0  0  0
  140.5180   80.2730  223.7020 C   0  0  0  0  0  0  0  0  0  0  0  0
  139.1810   80.0940  223.5240 C   0  0  0  0  0  0  0  0  0  0  0  0
  138.0760   80.9080  224.6140 Cl  0  0  0  0  0  0  0  0  0  0  0  0
  138.7360   79.2920  222.5100 C   0  0  0  0  0  0  0  0  0  0  0  0
  139.5680   78.6300  221.6280 C   0  0  0  0  0  0  0  0  0  0  0  0
  140.2470   71.4900  223.7580 C   0  0  0  0  0  0  0  0  0  0  0  0
  139.5960   70.2870  223.5650 C   0  0  0  0  0  0  0  0  0  0  0  0
  139.4110   69.3730  224.5890 C   0  0  0  0  0  0  0  0  0  0  0  0
  139.9150   69.7290  225.8240 C   0  0  0  0  0  0  0  0  0  0  0  0
  139.7330   68.8170  226.8550 C   0  0  0  0  0  0  0  0  0  0  0  0
  140.2110   69.1080  228.1150 C   0  0  0  0  0  0  0  0  0  0  0  0
  140.0340   68.2230  229.1110 F   0  0  0  0  0  0  0  0  0  0  0  0
  140.8680   70.3200  228.3090 C   0  0  0  0  0  0  0  0  0  0  0  0
  141.0480   71.2290  227.2770 C   0  0  0  0  0  0  0  0  0  0  0  0
  140.5690   70.9340  226.0230 C   0  0  0  0  0  0  0  0  0  0  0  0
  140.7020   71.7510  224.9820 N   0  0  0  0  0  0  0  0  0  0  0  0
  138.5820   73.5320  222.9580 H   0  0  0  0  0  0  0  0  0  0  0  0
  139.9107   73.5600  220.3515 H   0  0  0  0  0  0  0  0  0  0  0  0
  138.7255   74.7838  221.0106 H   0  0  0  0  0  0  0  0  0  0  0  0
  143.1032   73.7206  221.0843 H   0  0  0  0  0  0  0  0  0  0  0  0
  142.3691   73.4056  219.4995 H   0  0  0  0  0  0  0  0  0  0  0  0
  144.8702   74.6591  220.0204 H   0  0  0  0  0  0  0  0  0  0  0  0
  144.0834   74.5586  218.4527 H   0  0  0  0  0  0  0  0  0  0  0  0
  143.9204   76.7771  220.5621 H   0  0  0  0  0  0  0  0  0  0  0  0
  144.0659   76.9915  218.8452 H   0  0  0  0  0  0  0  0  0  0  0  0
  141.6837   76.1093  218.5044 H   0  0  0  0  0  0  0  0  0  0  0  0
  141.6279   78.2898  218.9672 H   0  0  0  0  0  0  0  0  0  0  0  0
  140.3513   77.4081  219.9315 H   0  0  0  0  0  0  0  0  0  0  0  0
  142.4613   79.7623  222.9708 H   0  0  0  0  0  0  0  0  0  0  0  0
  140.9018   80.9133  224.5099 H   0  0  0  0  0  0  0  0  0  0  0  0
  137.6499   79.1663  222.3892 H   0  0  0  0  0  0  0  0  0  0  0  0
  139.1715   77.9914  220.8248 H   0  0  0  0  0  0  0  0  0  0  0  0
  139.2111   70.0466  222.5630 H   0  0  0  0  0  0  0  0  0  0  0  0
  138.8916   68.4169  224.4273 H   0  0  0  0  0  0  0  0  0  0  0  0
  139.2103   67.8675  226.6675 H   0  0  0  0  0  0  0  0  0  0  0  0
  141.2554   70.5637  229.3093 H   0  0  0  0  0  0  0  0  0  0  0  0
  141.5705   72.1794  227.4609 H   0  0  0  0  0  0  0  0  0  0  0  0
  1  2  2  0
  2  3  1  0
  3  4  1  0
  4  5  1  0
  5  6  2  0
  5  7  1  0
  7  8  1  0
  8  9  1  0
  9 10  1  0
 10 11  1  0
 11 12  1  0
 12 13  1  0
 13 14  1  0
 14 15  2  0
 15 16  1  0
 16 17  2  0
 17 18  1  0
 17 19  1  0
 19 20  2  0
  2 21  1  0
 21 22  2  0
 22 23  1  0
 23 24  2  0
 24 25  1  0
 25 26  2  0
 26 27  1  0
 26 28  1  0
 28 29  2  0
 29 30  1  0
 30 31  2  0
 11  7  1  0
 20 14  1  0
 31 21  1  0
 30 24  1  0
  3 32  1  0
  4 33  1  0
  4 34  1  0
  8 35  1  0
  8 36  1  0
  9 37  1  0
  9 38  1  0
 10 39  1  0
 10 40  1  0
 11 41  1  6
 12 42  1  0
 12 43  1  0
 15 44  1  0
 16 45  1  0
 19 46  1  0
 20 47  1  0
 22 48  1  0
 23 49  1  0
 25 50  1  0
 28 51  1  0
 29 52  1  0
M  END
>  <smiles>  (10) 
O=C(NCC(=O)N1CCC[C@@H]1COc1ccc(Cl)cc1)c1ccc2cc(F)ccc2n1

>  <score_type>  (10) 
oracle

>  <origin>  (10) 
autodockgpu

>  <m_score__min__energy>  (10) 
-8.5

>  <m_primary>  (10) 
energy

>  <rmsd>  (10) 
2.3077282231402307

>  <m_score__min__rmsd>  (10) 
2.3077282231402307

>  <meeko>  (10) 
{"free_energy": -8.49, "intermolecular_energy": -10.58, "internal_energy": -1.58, "cluster_size": 30, "cluster_id": 1, "rank_in_cluster": 2}

>  <energy>  (10) 
-8.11

>  <cluster_rmsd>  (10) 
1.99

>  <cluster>  (10) 
1

$$$$

     RDKit          3D

 52 55  0  0  0  0  0  0  0  0999 V2000
  136.3630   76.3080  221.4920 O   0  0  0  0  0  0  0  0  0  0  0  0
  137.4760   76.2090  222.0690 C   0  0  0  0  0  0  0  0  0  0  0  0
  137.9140   74.8630  222.3380 N   0  0  0  0  0  0  0  0  0  0  0  0
  137.0450   73.8040  221.9240 C   0  0  0  0  0  0  0  0  0  0  0  0
  137.7590   72.6240  221.4180 C   0  0  0  0  0  0  0  0  0  0  0  0
  137.7730   72.4320  220.1750 O   0  0  0  0  0  0  0  0  0  0  0  0
  138.3930   71.7630  222.3540 N   0  0  0  0  0  0  0  0  0  0  0  0
  137.7550   70.9610  223.4060 C   0  0  0  0  0  0  0  0  0  0  0  0
  138.8090   70.6810  224.4230 C   0  0  0  0  0  0  0  0  0  0  0  0
  139.9840   71.5250  223.9720 C   0  0  0  0  0  0  0  0  0  0  0  0
  139.7960   71.4920  222.4720 C   0  0  2  0  0  0  0  0  0  0  0  0
  140.7020   72.4240  221.7460 C   0  0  0  0  0  0  0  0  0  0  0  0
  140.4870   73.7840  222.0710 O   0  0  0  0  0  0  0  0  0  0  0  0
  140.7410   74.7250  221.0820 C   0  0  0  0  0  0  0  0  0  0  0  0
  139.9010   74.7620  219.9860 C   0  0  0  0  0  0  0  0  0  0  0  0
  140.0670   75.6580  218.9490 C   0  0  0  0  0  0  0  0  0  0  0  0
  141.1060   76.5330  219.0230 C   0  0  0  0  0  0  0  0  0  0  0  0
  141.3310   77.6770  217.7140 Cl  0  0  0  0  0  0  0  0  0  0  0  0
  141.9410   76.5010  220.1050 C   0  0  0  0  0  0  0  0  0  0  0  0
  141.8040   75.6190  221.1590 C   0  0  0  0  0  0  0  0  0  0  0  0
  138.2730   77.3480  222.4440 C   0  0  0  0  0  0  0  0  0  0  0  0
  137.6230   78.5510  222.6490 C   0  0  0  0  0  0  0  0  0  0  0  0
  138.3000   79.7040  223.0120 C   0  0  0  0  0  0  0  0  0  0  0  0
  139.6680   79.5900  223.1580 C   0  0  0  0  0  0  0  0  0  0  0  0
  140.3510   80.7420  223.5210 C   0  0  0  0  0  0  0  0  0  0  0  0
  141.7190   80.7010  223.6850 C   0  0  0  0  0  0  0  0  0  0  0  0
  142.3790   81.8190  224.0370 F   0  0  0  0  0  0  0  0  0  0  0  0
  142.3730   79.4890  223.4790 C   0  0  0  0  0  0  0  0  0  0  0  0
  141.6870   78.3400  223.1160 C   0  0  0  0  0  0  0  0  0  0  0  0
  140.3240   78.3870  222.9530 C   0  0  0  0  0  0  0  0  0  0  0  0
  139.5950   77.3300  222.6080 N   0  0  0  0  0  0  0  0  0  0  0  0
  138.8220   74.6750  222.8130 H   0  0  0  0  0  0  0  0  0  0  0  0
  136.4338   73.4981  222.7859 H   0  0  0  0  0  0  0  0  0  0  0  0
  136.4338   74.1921  221.0959 H   0  0  0  0  0  0  0  0  0  0  0  0
  136.9265   71.5226  223.8622 H   0  0  0  0  0  0  0  0  0  0  0  0
  137.3385   70.0284  222.9977 H   0  0  0  0  0  0  0  0  0  0  0  0
  138.4739   70.9812  225.4268 H   0  0  0  0  0  0  0  0  0  0  0  0
  139.0571   69.6117  224.4935 H   0  0  0  0  0  0  0  0  0  0  0  0
  139.9210   72.5502  224.3656 H   0  0  0  0  0  0  0  0  0  0  0  0
  140.9640   71.1633  224.3166 H   0  0  0  0  0  0  0  0  0  0  0  0
  140.0749   70.5419  221.9928 H   0  0  0  0  0  0  0  0  0  0  0  0
  141.7414   72.1658  221.9967 H   0  0  0  0  0  0  0  0  0  0  0  0
  140.4925   72.3098  220.6722 H   0  0  0  0  0  0  0  0  0  0  0  0
  139.0655   74.0482  219.9375 H   0  0  0  0  0  0  0  0  0  0  0  0
  139.3805   75.6642  218.0896 H   0  0  0  0  0  0  0  0  0  0  0  0
  142.7719   77.2210  220.1382 H   0  0  0  0  0  0  0  0  0  0  0  0
  142.4976   75.6232  222.0127 H   0  0  0  0  0  0  0  0  0  0  0  0
  136.5315   78.5941  222.5195 H   0  0  0  0  0  0  0  0  0  0  0  0
  137.7764   80.6576  223.1748 H   0  0  0  0  0  0  0  0  0  0  0  0
  139.8035   81.6832  223.6771 H   0  0  0  0  0  0  0  0  0  0  0  0
  143.4644   79.4418  223.6079 H   0  0  0  0  0  0  0  0  0  0  0  0
  142.2309   77.3968  222.9595 H   0  0  0  0  0  0  0  0  0  0  0  0
  1  2  2  0
  2  3  1  0
  3  4  1  0
  4  5  1  0
  5  6  2  0
  5  7  1  0
  7  8  1  0
  8  9  1  0
  9 10  1  0
 10 11  1  0
 11 12  1  0
 12 13  1  0
 13 14  1  0
 14 15  2  0
 15 16  1  0
 16 17  2  0
 17 18  1  0
 17 19  1  0
 19 20  2  0
  2 21  1  0
 21 22  2  0
 22 23  1  0
 23 24  2  0
 24 25  1  0
 25 26  2  0
 26 27  1  0
 26 28  1  0
 28 29  2  0
 29 30  1  0
 30 31  2  0
 11  7  1  0
 20 14  1  0
 31 21  1  0
 30 24  1  0
  3 32  1  0
  4 33  1  0
  4 34  1  0
  8 35  1  0
  8 36  1  0
  9 37  1  0
  9 38  1  0
 10 39  1  0
 10 40  1  0
 11 41  1  6
 12 42  1  0
 12 43  1  0
 15 44  1  0
 16 45  1  0
 19 46  1  0
 20 47  1  0
 22 48  1  0
 23 49  1  0
 25 50  1  0
 28 51  1  0
 29 52  1  0
M  END
>  <smiles>  (11) 
O=C(NCC(=O)N1CCC[C@@H]1COc1ccc(Cl)cc1)c1ccc2cc(F)ccc2n1

>  <score_type>  (11) 
oracle

>  <origin>  (11) 
autodockgpu

>  <m_score__min__energy>  (11) 
-8.5

>  <m_primary>  (11) 
energy

>  <rmsd>  (11) 
8.291822294010768

>  <m_score__min__rmsd>  (11) 
8.291822294010768

>  <meeko>  (11) 
{"free_energy": -6.08, "intermolecular_energy": -8.16, "internal_energy": -3.55, "cluster_size": 2, "cluster_id": 10, "rank_in_cluster": 2}

>  <energy>  (11) 
-8.07

>  <cluster_rmsd>  (11) 
1.7

>  <cluster>  (11) 
1

$$$$

     RDKit          3D

 52 55  0  0  0  0  0  0  0  0999 V2000
  140.0750   70.9940  221.3950 O   0  0  0  0  0  0  0  0  0  0  0  0
  140.0180   71.5260  222.5320 C   0  0  0  0  0  0  0  0  0  0  0  0
  139.9690   72.9670  222.5380 N   0  0  0  0  0  0  0  0  0  0  0  0
  139.9920   73.6210  221.2650 C   0  0  0  0  0  0  0  0  0  0  0  0
  140.6750   74.9200  221.2860 C   0  0  0  0  0  0  0  0  0  0  0  0
  140.6410   75.5870  222.3520 O   0  0  0  0  0  0  0  0  0  0  0  0
  141.3350   75.3590  220.1060 N   0  0  0  0  0  0  0  0  0  0  0  0
  142.6070   74.8680  219.5590 C   0  0  0  0  0  0  0  0  0  0  0  0
  143.1340   75.9500  218.6780 C   0  0  0  0  0  0  0  0  0  0  0  0
  142.1930   77.1120  218.9250 C   0  0  0  0  0  0  0  0  0  0  0  0
  140.9000   76.3770  219.1950 C   0  0  2  0  0  0  0  0  0  0  0  0
  139.8110   77.2650  219.6850 C   0  0  0  0  0  0  0  0  0  0  0  0
  140.1160   78.6420  219.5760 O   0  0  0  0  0  0  0  0  0  0  0  0
  140.8050   79.2290  220.6280 C   0  0  0  0  0  0  0  0  0  0  0  0
  140.8020   78.5850  221.8490 C   0  0  0  0  0  0  0  0  0  0  0  0
  141.4560   79.0850  222.9590 C   0  0  0  0  0  0  0  0  0  0  0  0
  142.1260   80.2620  222.8260 C   0  0  0  0  0  0  0  0  0  0  0  0
  142.9610   80.9100  224.2250 Cl  0  0  0  0  0  0  0  0  0  0  0  0
  142.1320   80.9040  221.6200 C   0  0  0  0  0  0  0  0  0  0  0  0
  141.4900   80.4330  220.4910 C   0  0  0  0  0  0  0  0  0  0  0  0
  140.0000   70.7680  223.7570 C   0  0  0  0  0  0  0  0  0  0  0  0
  139.3960   69.5260  223.7380 C   0  0  0  0  0  0  0  0  0  0  0  0
  139.3260   68.7200  224.8630 C   0  0  0  0  0  0  0  0  0  0  0  0
  139.8960   69.2270  226.0130 C   0  0  0  0  0  0  0  0  0  0  0  0
  139.8300   68.4240  227.1440 C   0  0  0  0  0  0  0  0  0  0  0  0
  140.3780   68.8670  228.3280 C   0  0  0  0  0  0  0  0  0  0  0  0
  140.3130   68.0870  229.4220 F   0  0  0  0  0  0  0  0  0  0  0  0
  140.9880   70.1190  228.3460 C   0  0  0  0  0  0  0  0  0  0  0  0
  141.0520   70.9190  227.2160 C   0  0  0  0  0  0  0  0  0  0  0  0
  140.5030   70.4720  226.0380 C   0  0  0  0  0  0  0  0  0  0  0  0
  140.5240   71.1780  224.9110 N   0  0  0  0  0  0  0  0  0  0  0  0
  139.9200   73.5010  223.4300 H   0  0  0  0  0  0  0  0  0  0  0  0
  140.5091   72.9674  220.5471 H   0  0  0  0  0  0  0  0  0  0  0  0
  138.9466   73.8099  220.9795 H   0  0  0  0  0  0  0  0  0  0  0  0
  143.3167   74.6616  220.3737 H   0  0  0  0  0  0  0  0  0  0  0  0
  142.4646   73.9322  218.9986 H   0  0  0  0  0  0  0  0  0  0  0  0
  144.1645   76.2148  218.9571 H   0  0  0  0  0  0  0  0  0  0  0  0
  143.1733   75.6536  217.6194 H   0  0  0  0  0  0  0  0  0  0  0  0
  142.5075   77.7101  219.7929 H   0  0  0  0  0  0  0  0  0  0  0  0
  142.1403   77.8385  218.1007 H   0  0  0  0  0  0  0  0  0  0  0  0
  140.4153   75.9538  218.3028 H   0  0  0  0  0  0  0  0  0  0  0  0
  138.9040   77.0613  219.0969 H   0  0  0  0  0  0  0  0  0  0  0  0
  139.6714   77.0474  220.7542 H   0  0  0  0  0  0  0  0  0  0  0  0
  140.2564   77.6344  221.9423 H   0  0  0  0  0  0  0  0  0  0  0  0
  141.4356   78.5488  223.9192 H   0  0  0  0  0  0  0  0  0  0  0  0
  142.6815   81.8538  221.5433 H   0  0  0  0  0  0  0  0  0  0  0  0
  141.5186   80.9792  219.5366 H   0  0  0  0  0  0  0  0  0  0  0  0
  138.9553   69.1642  222.7973 H   0  0  0  0  0  0  0  0  0  0  0  0
  138.8433   67.7318  224.8407 H   0  0  0  0  0  0  0  0  0  0  0  0
  139.3426   67.4391  227.0949 H   0  0  0  0  0  0  0  0  0  0  0  0
  141.4318   70.4834  229.2842 H   0  0  0  0  0  0  0  0  0  0  0  0
  141.5386   71.9045  227.2617 H   0  0  0  0  0  0  0  0  0  0  0  0
  1  2  2  0
  2  3  1  0
  3  4  1  0
  4  5  1  0
  5  6  2  0
  5  7  1  0
  7  8  1  0
  8  9  1  0
  9 10  1  0
 10 11  1  0
 11 12  1  0
 12 13  1  0
 13 14  1  0
 14 15  2  0
 15 16  1  0
 16 17  2  0
 17 18  1  0
 17 19  1  0
 19 20  2  0
  2 21  1  0
 21 22  2  0
 22 23  1  0
 23 24  2  0
 24 25  1  0
 25 26  2  0
 26 27  1  0
 26 28  1  0
 28 29  2  0
 29 30  1  0
 30 31  2  0
 11  7  1  0
 20 14  1  0
 31 21  1  0
 30 24  1  0
  3 32  1  0
  4 33  1  0
  4 34  1  0
  8 35  1  0
  8 36  1  0
  9 37  1  0
  9 38  1  0
 10 39  1  0
 10 40  1  0
 11 41  1  6
 12 42  1  0
 12 43  1  0
 15 44  1  0
 16 45  1  0
 19 46  1  0
 20 47  1  0
 22 48  1  0
 23 49  1  0
 25 50  1  0
 28 51  1  0
 29 52  1  0
M  END
>  <smiles>  (12) 
O=C(NCC(=O)N1CCC[C@@H]1COc1ccc(Cl)cc1)c1ccc2cc(F)ccc2n1

>  <score_type>  (12) 
oracle

>  <origin>  (12) 
autodockgpu

>  <m_score__min__energy>  (12) 
-8.5

>  <m_primary>  (12) 
energy

>  <rmsd>  (12) 
1.8815285298094602

>  <m_score__min__rmsd>  (12) 
1.8815285298094602

>  <meeko>  (12) 
{"free_energy": -8.18, "intermolecular_energy": -10.27, "internal_energy": -1.86, "cluster_size": 30, "cluster_id": 1, "rank_in_cluster": 7}

>  <energy>  (12) 
-8.03

>  <cluster_rmsd>  (12) 
1.67

>  <cluster>  (12) 
1

$$$$

     RDKit          3D

 52 55  0  0  0  0  0  0  0  0999 V2000
  138.4670   70.7280  221.7710 O   0  0  0  0  0  0  0  0  0  0  0  0
  139.0340   71.2210  222.7800 C   0  0  0  0  0  0  0  0  0  0  0  0
  139.3670   72.6190  222.6800 N   0  0  0  0  0  0  0  0  0  0  0  0
  139.0190   73.2820  221.4600 C   0  0  0  0  0  0  0  0  0  0  0  0
  139.5320   74.6550  221.3720 C   0  0  0  0  0  0  0  0  0  0  0  0
  140.5620   74.9430  222.0330 O   0  0  0  0  0  0  0  0  0  0  0  0
  138.8390   75.5860  220.5500 N   0  0  0  0  0  0  0  0  0  0  0  0
  139.0050   75.8000  219.1060 C   0  0  0  0  0  0  0  0  0  0  0  0
  138.5030   77.1750  218.8220 C   0  0  0  0  0  0  0  0  0  0  0  0
  138.2400   77.7590  220.1960 C   0  0  0  0  0  0  0  0  0  0  0  0
  137.8290   76.5190  220.9560 C   0  0  2  0  0  0  0  0  0  0  0  0
  137.7030   76.7430  222.4220 C   0  0  0  0  0  0  0  0  0  0  0  0
  137.8010   78.1050  222.7930 O   0  0  0  0  0  0  0  0  0  0  0  0
  139.0730   78.6210  223.0010 C   0  0  0  0  0  0  0  0  0  0  0  0
  139.1820   79.9130  223.4740 C   0  0  0  0  0  0  0  0  0  0  0  0
  140.4000   80.5190  223.7140 C   0  0  0  0  0  0  0  0  0  0  0  0
  141.5280   79.8000  223.4690 C   0  0  0  0  0  0  0  0  0  0  0  0
  143.0820   80.5550  223.7680 Cl  0  0  0  0  0  0  0  0  0  0  0  0
  141.4260   78.5200  223.0010 C   0  0  0  0  0  0  0  0  0  0  0  0
  140.2260   77.8840  222.7500 C   0  0  0  0  0  0  0  0  0  0  0  0
  139.3390   70.4580  223.9630 C   0  0  0  0  0  0  0  0  0  0  0  0
  138.9970   69.1190  223.9740 C   0  0  0  0  0  0  0  0  0  0  0  0
  139.2470   68.3000  225.0630 C   0  0  0  0  0  0  0  0  0  0  0  0
  139.8610   68.8960  226.1470 C   0  0  0  0  0  0  0  0  0  0  0  0
  140.1140   68.0810  227.2410 C   0  0  0  0  0  0  0  0  0  0  0  0
  140.7240   68.6100  228.3580 C   0  0  0  0  0  0  0  0  0  0  0  0
  140.9690   67.8180  229.4170 F   0  0  0  0  0  0  0  0  0  0  0  0
  141.0690   69.9590  228.3470 C   0  0  0  0  0  0  0  0  0  0  0  0
  140.8140   70.7700  227.2520 C   0  0  0  0  0  0  0  0  0  0  0  0
  140.2060   70.2390  226.1410 C   0  0  0  0  0  0  0  0  0  0  0  0
  139.9280   70.9490  225.0520 N   0  0  0  0  0  0  0  0  0  0  0  0
  139.8380   73.1190  223.4620 H   0  0  0  0  0  0  0  0  0  0  0  0
  139.4292   72.7026  220.6197 H   0  0  0  0  0  0  0  0  0  0  0  0
  137.9212   73.3443  221.4277 H   0  0  0  0  0  0  0  0  0  0  0  0
  140.0664   75.7181  218.8291 H   0  0  0  0  0  0  0  0  0  0  0  0
  138.4521   75.0466  218.5258 H   0  0  0  0  0  0  0  0  0  0  0  0
  139.2603   77.7647  218.2846 H   0  0  0  0  0  0  0  0  0  0  0  0
  137.6079   77.1758  218.1826 H   0  0  0  0  0  0  0  0  0  0  0  0
  139.1460   78.2139  220.6229 H   0  0  0  0  0  0  0  0  0  0  0  0
  137.4973   78.5703  220.2118 H   0  0  0  0  0  0  0  0  0  0  0  0
  136.8158   76.1552  220.7300 H   0  0  0  0  0  0  0  0  0  0  0  0
  136.7247   76.3618  222.7501 H   0  0  0  0  0  0  0  0  0  0  0  0
  138.5384   76.2142  222.9042 H   0  0  0  0  0  0  0  0  0  0  0  0
  138.2616   80.4834  223.6677 H   0  0  0  0  0  0  0  0  0  0  0  0
  140.4557   81.5507  224.0914 H   0  0  0  0  0  0  0  0  0  0  0  0
  142.3556   77.9628  222.8129 H   0  0  0  0  0  0  0  0  0  0  0  0
  140.1842   76.8517  222.3724 H   0  0  0  0  0  0  0  0  0  0  0  0
  138.5092   68.6885  223.0870 H   0  0  0  0  0  0  0  0  0  0  0  0
  138.9719   67.2349  225.0642 H   0  0  0  0  0  0  0  0  0  0  0  0
  139.8294   67.0187  227.2170 H   0  0  0  0  0  0  0  0  0  0  0  0
  141.5575   70.3932  229.2318 H   0  0  0  0  0  0  0  0  0  0  0  0
  141.0970   71.8328  227.2729 H   0  0  0  0  0  0  0  0  0  0  0  0
  1  2  2  0
  2  3  1  0
  3  4  1  0
  4  5  1  0
  5  6  2  0
  5  7  1  0
  7  8  1  0
  8  9  1  0
  9 10  1  0
 10 11  1  0
 11 12  1  0
 12 13  1  0
 13 14  1  0
 14 15  2  0
 15 16  1  0
 16 17  2  0
 17 18  1  0
 17 19  1  0
 19 20  2  0
  2 21  1  0
 21 22  2  0
 22 23  1  0
 23 24  2  0
 24 25  1  0
 25 26  2  0
 26 27  1  0
 26 28  1  0
 28 29  2  0
 29 30  1  0
 30 31  2  0
 11  7  1  0
 20 14  1  0
 31 21  1  0
 30 24  1  0
  3 32  1  0
  4 33  1  0
  4 34  1  0
  8 35  1  0
  8 36  1  0
  9 37  1  0
  9 38  1  0
 10 39  1  0
 10 40  1  0
 11 41  1  6
 12 42  1  0
 12 43  1  0
 15 44  1  0
 16 45  1  0
 19 46  1  0
 20 47  1  0
 22 48  1  0
 23 49  1  0
 25 50  1  0
 28 51  1  0
 29 52  1  0
M  END
>  <smiles>  (13) 
O=C(NCC(=O)N1CCC[C@@H]1COc1ccc(Cl)cc1)c1ccc2cc(F)ccc2n1

>  <score_type>  (13) 
oracle

>  <origin>  (13) 
autodockgpu

>  <m_score__min__energy>  (13) 
-8.5

>  <m_primary>  (13) 
energy

>  <rmsd>  (13) 
1.823584569244966

>  <m_score__min__rmsd>  (13) 
1.823584569244966

>  <meeko>  (13) 
{"free_energy": -8.11, "intermolecular_energy": -10.2, "internal_energy": -1.86, "cluster_size": 30, "cluster_id": 1, "rank_in_cluster": 10}

>  <energy>  (13) 
-8.0

>  <cluster_rmsd>  (13) 
1.98

>  <cluster>  (13) 
1

$$$$

     RDKit          3D

 52 55  0  0  0  0  0  0  0  0999 V2000
  140.3750   73.7290  222.3620 O   0  0  0  0  0  0  0  0  0  0  0  0
  139.8470   72.5890  222.3370 C   0  0  0  0  0  0  0  0  0  0  0  0
  139.1270   72.2650  221.1310 N   0  0  0  0  0  0  0  0  0  0  0  0
  139.0950   73.2670  220.1090 C   0  0  0  0  0  0  0  0  0  0  0  0
  140.1020   73.0650  219.0600 C   0  0  0  0  0  0  0  0  0  0  0  0
  139.7250   73.1260  217.8610 O   0  0  0  0  0  0  0  0  0  0  0  0
  141.4460   72.8110  219.4490 N   0  0  0  0  0  0  0  0  0  0  0  0
  142.0300   71.5260  219.8570 C   0  0  0  0  0  0  0  0  0  0  0  0
  143.2440   71.8490  220.6600 C   0  0  0  0  0  0  0  0  0  0  0  0
  143.1800   73.3540  220.8280 C   0  0  0  0  0  0  0  0  0  0  0  0
  142.5200   73.7560  219.5290 C   0  0  2  0  0  0  0  0  0  0  0  0
  142.1280   75.1910  219.4890 C   0  0  0  0  0  0  0  0  0  0  0  0
  141.1010   75.5190  220.4050 O   0  0  0  0  0  0  0  0  0  0  0  0
  141.2450   76.6930  221.1330 C   0  0  0  0  0  0  0  0  0  0  0  0
  141.6940   77.8190  220.4720 C   0  0  0  0  0  0  0  0  0  0  0  0
  141.8710   79.0340  221.1030 C   0  0  0  0  0  0  0  0  0  0  0  0
  141.5880   79.1080  222.4320 C   0  0  0  0  0  0  0  0  0  0  0  0
  141.8090   80.6440  223.2490 Cl  0  0  0  0  0  0  0  0  0  0  0  0
  141.1440   77.9970  223.0920 C   0  0  0  0  0  0  0  0  0  0  0  0
  140.9550   76.7670  222.4920 C   0  0  0  0  0  0  0  0  0  0  0  0
  139.9420   71.6540  223.4290 C   0  0  0  0  0  0  0  0  0  0  0  0
  139.4970   70.3630  223.2140 C   0  0  0  0  0  0  0  0  0  0  0  0
  139.5450   69.3900  224.1990 C   0  0  0  0  0  0  0  0  0  0  0  0
  140.0650   69.7800  225.4170 C   0  0  0  0  0  0  0  0  0  0  0  0
  140.1160   68.8090  226.4090 C   0  0  0  0  0  0  0  0  0  0  0  0
  140.6240   69.1280  227.6500 C   0  0  0  0  0  0  0  0  0  0  0  0
  140.6730   68.1860  228.6080 F   0  0  0  0  0  0  0  0  0  0  0  0
  141.0730   70.4290  227.8660 C   0  0  0  0  0  0  0  0  0  0  0  0
  141.0200   71.3960  226.8740 C   0  0  0  0  0  0  0  0  0  0  0  0
  140.5130   71.0720  225.6380 C   0  0  0  0  0  0  0  0  0  0  0  0
  140.4290   71.9410  224.6350 N   0  0  0  0  0  0  0  0  0  0  0  0
  138.6550   71.3450  221.0140 H   0  0  0  0  0  0  0  0  0  0  0  0
  138.0990   73.2568  219.6423 H   0  0  0  0  0  0  0  0  0  0  0  0
  139.3191   74.2295  220.5920 H   0  0  0  0  0  0  0  0  0  0  0  0
  141.3113   70.9582  220.4662 H   0  0  0  0  0  0  0  0  0  0  0  0
  142.2839   70.9088  218.9826 H   0  0  0  0  0  0  0  0  0  0  0  0
  143.2127   71.3444  221.6370 H   0  0  0  0  0  0  0  0  0  0  0  0
  144.1738   71.5153  220.1762 H   0  0  0  0  0  0  0  0  0  0  0  0
  142.5693   73.6387  221.6975 H   0  0  0  0  0  0  0  0  0  0  0  0
  144.1527   73.8335  221.0122 H   0  0  0  0  0  0  0  0  0  0  0  0
  143.1750   73.7119  218.6464 H   0  0  0  0  0  0  0  0  0  0  0  0
  143.0128   75.8008  219.7243 H   0  0  0  0  0  0  0  0  0  0  0  0
  141.7397   75.3934  218.4799 H   0  0  0  0  0  0  0  0  0  0  0  0
  141.9201   77.7448  219.3980 H   0  0  0  0  0  0  0  0  0  0  0  0
  142.2294   79.9142  220.5492 H   0  0  0  0  0  0  0  0  0  0  0  0
  140.9237   78.0874  224.1659 H   0  0  0  0  0  0  0  0  0  0  0  0
  140.5953   75.8946  223.0572 H   0  0  0  0  0  0  0  0  0  0  0  0
  139.0906   70.0991  222.2265 H   0  0  0  0  0  0  0  0  0  0  0  0
  139.1889   68.3646  224.0207 H   0  0  0  0  0  0  0  0  0  0  0  0
  139.7529   67.7908  226.2053 H   0  0  0  0  0  0  0  0  0  0  0  0
  141.4812   70.6966  228.8518 H   0  0  0  0  0  0  0  0  0  0  0  0
  141.3812   72.4155  227.0745 H   0  0  0  0  0  0  0  0  0  0  0  0
  1  2  2  0
  2  3  1  0
  3  4  1  0
  4  5  1  0
  5  6  2  0
  5  7  1  0
  7  8  1  0
  8  9  1  0
  9 10  1  0
 10 11  1  0
 11 12  1  0
 12 13  1  0
 13 14  1  0
 14 15  2  0
 15 16  1  0
 16 17  2  0
 17 18  1  0
 17 19  1  0
 19 20  2  0
  2 21  1  0
 21 22  2  0
 22 23  1  0
 23 24  2  0
 24 25  1  0
 25 26  2  0
 26 27  1  0
 26 28  1  0
 28 29  2  0
 29 30  1  0
 30 31  2  0
 11  7  1  0
 20 14  1  0
 31 21  1  0
 30 24  1  0
  3 32  1  0
  4 33  1  0
  4 34  1  0
  8 35  1  0
  8 36  1  0
  9 37  1  0
  9 38  1  0
 10 39  1  0
 10 40  1  0
 11 41  1  6
 12 42  1  0
 12 43  1  0
 15 44  1  0
 16 45  1  0
 19 46  1  0
 20 47  1  0
 22 48  1  0
 23 49  1  0
 25 50  1  0
 28 51  1  0
 29 52  1  0
M  END
>  <smiles>  (14) 
O=C(NCC(=O)N1CCC[C@@H]1COc1ccc(Cl)cc1)c1ccc2cc(F)ccc2n1

>  <score_type>  (14) 
oracle

>  <origin>  (14) 
autodockgpu

>  <m_score__min__energy>  (14) 
-8.5

>  <m_primary>  (14) 
energy

>  <rmsd>  (14) 
3.117339365918798

>  <m_score__min__rmsd>  (14) 
3.117339365918798

>  <meeko>  (14) 
{"free_energy": -7.54, "intermolecular_energy": -9.63, "internal_energy": -2.12, "cluster_size": 30, "cluster_id": 1, "rank_in_cluster": 20}

>  <energy>  (14) 
-7.99

>  <cluster_rmsd>  (14) 
1.61

>  <cluster>  (14) 
1

$$$$

     RDKit          3D

 52 55  0  0  0  0  0  0  0  0999 V2000
  134.2510   71.1200  223.7590 O   0  0  0  0  0  0  0  0  0  0  0  0
  134.7860   72.0560  224.4040 C   0  0  0  0  0  0  0  0  0  0  0  0
  136.2080   72.1990  224.2200 N   0  0  0  0  0  0  0  0  0  0  0  0
  136.8430   71.2700  223.3350 C   0  0  0  0  0  0  0  0  0  0  0  0
  136.6430   69.8670  223.7180 C   0  0  0  0  0  0  0  0  0  0  0  0
  136.5600   69.5960  224.9430 O   0  0  0  0  0  0  0  0  0  0  0  0
  136.5560   68.8900  222.6890 N   0  0  0  0  0  0  0  0  0  0  0  0
  135.3380   68.3430  222.0760 C   0  0  0  0  0  0  0  0  0  0  0  0
  135.7160   67.0280  221.4840 C   0  0  0  0  0  0  0  0  0  0  0  0
  137.1340   66.8030  221.9700 C   0  0  0  0  0  0  0  0  0  0  0  0
  137.6420   68.2260  222.0280 C   0  0  2  0  0  0  0  0  0  0  0  0
  138.9730   68.3480  222.6820 C   0  0  0  0  0  0  0  0  0  0  0  0
  138.9890   67.8810  224.0170 O   0  0  0  0  0  0  0  0  0  0  0  0
  139.4700   68.7450  224.9910 C   0  0  0  0  0  0  0  0  0  0  0  0
  139.8570   70.0130  224.6040 C   0  0  0  0  0  0  0  0  0  0  0  0
  140.3490   70.9480  225.4930 C   0  0  0  0  0  0  0  0  0  0  0  0
  140.4500   70.5890  226.8020 C   0  0  0  0  0  0  0  0  0  0  0  0
  141.0730   71.7640  227.9450 Cl  0  0  0  0  0  0  0  0  0  0  0  0
  140.0690   69.3350  227.1910 C   0  0  0  0  0  0  0  0  0  0  0  0
  139.5740   68.3770  226.3280 C   0  0  0  0  0  0  0  0  0  0  0  0
  134.0480   72.9380  225.2720 C   0  0  0  0  0  0  0  0  0  0  0  0
  132.9860   72.4070  225.9780 C   0  0  0  0  0  0  0  0  0  0  0  0
  132.2140   73.1710  226.8380 C   0  0  0  0  0  0  0  0  0  0  0  0
  132.5630   74.5010  226.9540 C   0  0  0  0  0  0  0  0  0  0  0  0
  131.7930   75.2720  227.8150 C   0  0  0  0  0  0  0  0  0  0  0  0
  132.0860   76.6090  227.9790 C   0  0  0  0  0  0  0  0  0  0  0  0
  131.3390   77.3530  228.8130 F   0  0  0  0  0  0  0  0  0  0  0  0
  133.1580   77.1430  227.2680 C   0  0  0  0  0  0  0  0  0  0  0  0
  133.9240   76.3710  226.4090 C   0  0  0  0  0  0  0  0  0  0  0  0
  133.6280   75.0390  226.2480 C   0  0  0  0  0  0  0  0  0  0  0  0
  134.3150   74.2310  225.4450 N   0  0  0  0  0  0  0  0  0  0  0  0
  136.7440   72.9450  224.7100 H   0  0  0  0  0  0  0  0  0  0  0  0
  136.4344   71.4168  222.3243 H   0  0  0  0  0  0  0  0  0  0  0  0
  137.9243   71.4670  223.3802 H   0  0  0  0  0  0  0  0  0  0  0  0
  134.5573   68.2061  222.8387 H   0  0  0  0  0  0  0  0  0  0  0  0
  134.9378   69.0237  221.3102 H   0  0  0  0  0  0  0  0  0  0  0  0
  135.0483   66.2309  221.8428 H   0  0  0  0  0  0  0  0  0  0  0  0
  135.6373   67.0186  220.3869 H   0  0  0  0  0  0  0  0  0  0  0  0
  137.1515   66.3261  222.9611 H   0  0  0  0  0  0  0  0  0  0  0  0
  137.7317   66.1312  221.3364 H   0  0  0  0  0  0  0  0  0  0  0  0
  137.8674   68.6756  221.0497 H   0  0  0  0  0  0  0  0  0  0  0  0
  139.7020   67.7649  222.1001 H   0  0  0  0  0  0  0  0  0  0  0  0
  139.2236   69.4187  222.7100 H   0  0  0  0  0  0  0  0  0  0  0  0
  139.7696   70.2897  223.5430 H   0  0  0  0  0  0  0  0  0  0  0  0
  140.6496   71.9505  225.1543 H   0  0  0  0  0  0  0  0  0  0  0  0
  140.1623   69.0733  228.2553 H   0  0  0  0  0  0  0  0  0  0  0  0
  139.2782   67.3774  226.6791 H   0  0  0  0  0  0  0  0  0  0  0  0
  132.7450   71.3410  225.8530 H   0  0  0  0  0  0  0  0  0  0  0  0
  131.3698   72.7413  227.3972 H   0  0  0  0  0  0  0  0  0  0  0  0
  130.9540   74.8184  228.3630 H   0  0  0  0  0  0  0  0  0  0  0  0
  133.4037   78.2080  227.3918 H   0  0  0  0  0  0  0  0  0  0  0  0
  134.7636   76.8218  225.8596 H   0  0  0  0  0  0  0  0  0  0  0  0
  1  2  2  0
  2  3  1  0
  3  4  1  0
  4  5  1  0
  5  6  2  0
  5  7  1  0
  7  8  1  0
  8  9  1  0
  9 10  1  0
 10 11  1  0
 11 12  1  0
 12 13  1  0
 13 14  1  0
 14 15  2  0
 15 16  1  0
 16 17  2  0
 17 18  1  0
 17 19  1  0
 19 20  2  0
  2 21  1  0
 21 22  2  0
 22 23  1  0
 23 24  2  0
 24 25  1  0
 25 26  2  0
 26 27  1  0
 26 28  1  0
 28 29  2  0
 29 30  1  0
 30 31  2  0
 11  7  1  0
 20 14  1  0
 31 21  1  0
 30 24  1  0
  3 32  1  0
  4 33  1  0
  4 34  1  0
  8 35  1  0
  8 36  1  0
  9 37  1  0
  9 38  1  0
 10 39  1  0
 10 40  1  0
 11 41  1  6
 12 42  1  0
 12 43  1  0
 15 44  1  0
 16 45  1  0
 19 46  1  0
 20 47  1  0
 22 48  1  0
 23 49  1  0
 25 50  1  0
 28 51  1  0
 29 52  1  0
M  END
>  <smiles>  (15) 
O=C(NCC(=O)N1CCC[C@@H]1COc1ccc(Cl)cc1)c1ccc2cc(F)ccc2n1

>  <score_type>  (15) 
oracle

>  <origin>  (15) 
autodockgpu

>  <m_score__min__energy>  (15) 
-8.5

>  <m_primary>  (15) 
energy

>  <rmsd>  (15) 
8.714725551961335

>  <m_score__min__rmsd>  (15) 
8.714725551961335

>  <meeko>  (15) 
{"free_energy": -7.42, "intermolecular_energy": -9.51, "internal_energy": -1.76, "cluster_size": 1, "cluster_id": 7, "rank_in_cluster": 1}

>  <energy>  (15) 
-7.92

>  <cluster_rmsd>  (15) 
1.73

>  <cluster>  (15) 
1

$$$$

     RDKit          3D

 52 55  0  0  0  0  0  0  0  0999 V2000
  141.1270   72.6500  221.9660 O   0  0  0  0  0  0  0  0  0  0  0  0
  140.1050   72.5460  222.6910 C   0  0  0  0  0  0  0  0  0  0  0  0
  139.0040   73.4040  222.3350 N   0  0  0  0  0  0  0  0  0  0  0  0
  139.1930   74.2670  221.2080 C   0  0  0  0  0  0  0  0  0  0  0  0
  139.7860   75.5640  221.5580 C   0  0  0  0  0  0  0  0  0  0  0  0
  140.9790   75.5780  221.9590 O   0  0  0  0  0  0  0  0  0  0  0  0
  138.9870   76.7320  221.4270 N   0  0  0  0  0  0  0  0  0  0  0  0
  139.2930   77.9430  220.6550 C   0  0  0  0  0  0  0  0  0  0  0  0
  138.4700   79.0390  221.2420 C   0  0  0  0  0  0  0  0  0  0  0  0
  137.8580   78.4130  222.4790 C   0  0  0  0  0  0  0  0  0  0  0  0
  137.7070   76.9790  222.0240 C   0  0  2  0  0  0  0  0  0  0  0  0
  137.3120   76.0540  223.1210 C   0  0  0  0  0  0  0  0  0  0  0  0
  136.5790   74.9300  222.6720 O   0  0  0  0  0  0  0  0  0  0  0  0
  135.8400   74.2300  223.6160 C   0  0  0  0  0  0  0  0  0  0  0  0
  135.1660   74.9510  224.5820 C   0  0  0  0  0  0  0  0  0  0  0  0
  134.4040   74.3520  225.5650 C   0  0  0  0  0  0  0  0  0  0  0  0
  134.3260   72.9930  225.5710 C   0  0  0  0  0  0  0  0  0  0  0  0
  133.3630   72.2160  226.8130 Cl  0  0  0  0  0  0  0  0  0  0  0  0
  134.9920   72.2740  224.6180 C   0  0  0  0  0  0  0  0  0  0  0  0
  135.7610   72.8410  223.6200 C   0  0  0  0  0  0  0  0  0  0  0  0
  140.0210   71.6390  223.8070 C   0  0  0  0  0  0  0  0  0  0  0  0
  139.3280   70.4580  223.6270 C   0  0  0  0  0  0  0  0  0  0  0  0
  139.1900   69.5200  224.6380 C   0  0  0  0  0  0  0  0  0  0  0  0
  139.7850   69.8300  225.8440 C   0  0  0  0  0  0  0  0  0  0  0  0
  139.6500   68.8940  226.8610 C   0  0  0  0  0  0  0  0  0  0  0  0
  140.2190   69.1380  228.0920 C   0  0  0  0  0  0  0  0  0  0  0  0
  140.0880   68.2300  229.0750 F   0  0  0  0  0  0  0  0  0  0  0  0
  140.9190   70.3290  228.2730 C   0  0  0  0  0  0  0  0  0  0  0  0
  141.0510   71.2610  227.2550 C   0  0  0  0  0  0  0  0  0  0  0  0
  140.4820   71.0130  226.0300 C   0  0  0  0  0  0  0  0  0  0  0  0
  140.5640   71.8560  225.0040 N   0  0  0  0  0  0  0  0  0  0  0  0
  138.1140   73.3920  222.8750 H   0  0  0  0  0  0  0  0  0  0  0  0
  139.8568   73.7626  220.4904 H   0  0  0  0  0  0  0  0  0  0  0  0
  138.1983   74.4692  220.7841 H   0  0  0  0  0  0  0  0  0  0  0  0
  140.3628   78.1856  220.7369 H   0  0  0  0  0  0  0  0  0  0  0  0
  139.0652   77.8025  219.5880 H   0  0  0  0  0  0  0  0  0  0  0  0
  139.0994   79.9005  221.5099 H   0  0  0  0  0  0  0  0  0  0  0  0
  137.7131   79.4226  220.5420 H   0  0  0  0  0  0  0  0  0  0  0  0
  138.5280   78.4939  223.3477 H   0  0  0  0  0  0  0  0  0  0  0  0
  136.9231   78.8858  222.8143 H   0  0  0  0  0  0  0  0  0  0  0  0
  136.8816   76.8035  221.3184 H   0  0  0  0  0  0  0  0  0  0  0  0
  138.2241   75.6979  223.6221 H   0  0  0  0  0  0  0  0  0  0  0  0
  136.6570   76.6181  223.8012 H   0  0  0  0  0  0  0  0  0  0  0  0
  135.2394   76.0484  224.5675 H   0  0  0  0  0  0  0  0  0  0  0  0
  133.8765   74.9539  226.3196 H   0  0  0  0  0  0  0  0  0  0  0  0
  134.9107   71.1774  224.6475 H   0  0  0  0  0  0  0  0  0  0  0  0
  136.2821   72.2280  222.8699 H   0  0  0  0  0  0  0  0  0  0  0  0
  138.8699   70.2549  222.6478 H   0  0  0  0  0  0  0  0  0  0  0  0
  138.6372   68.5810  224.4875 H   0  0  0  0  0  0  0  0  0  0  0  0
  139.0918   67.9627  226.6847 H   0  0  0  0  0  0  0  0  0  0  0  0
  141.3796   70.5355  229.2503 H   0  0  0  0  0  0  0  0  0  0  0  0
  141.6082   72.1936  227.4276 H   0  0  0  0  0  0  0  0  0  0  0  0
  1  2  2  0
  2  3  1  0
  3  4  1  0
  4  5  1  0
  5  6  2  0
  5  7  1  0
  7  8  1  0
  8  9  1  0
  9 10  1  0
 10 11  1  0
 11 12  1  0
 12 13  1  0
 13 14  1  0
 14 15  2  0
 15 16  1  0
 16 17  2  0
 17 18  1  0
 17 19  1  0
 19 20  2  0
  2 21  1  0
 21 22  2  0
 22 23  1  0
 23 24  2  0
 24 25  1  0
 25 26  2  0
 26 27  1  0
 26 28  1  0
 28 29  2  0
 29 30  1  0
 30 31  2  0
 11  7  1  0
 20 14  1  0
 31 21  1  0
 30 24  1  0
  3 32  1  0
  4 33  1  0
  4 34  1  0
  8 35  1  0
  8 36  1  0
  9 37  1  0
  9 38  1  0
 10 39  1  0
 10 40  1  0
 11 41  1  6
 12 42  1  0
 12 43  1  0
 15 44  1  0
 16 45  1  0
 19 46  1  0
 20 47  1  0
 22 48  1  0
 23 49  1  0
 25 50  1  0
 28 51  1  0
 29 52  1  0
M  END
>  <smiles>  (16) 
O=C(NCC(=O)N1CCC[C@@H]1COc1ccc(Cl)cc1)c1ccc2cc(F)ccc2n1

>  <score_type>  (16) 
oracle

>  <origin>  (16) 
autodockgpu

>  <m_score__min__energy>  (16) 
-8.5

>  <m_primary>  (16) 
energy

>  <rmsd>  (16) 
2.9034437129583734

>  <m_score__min__rmsd>  (16) 
2.9034437129583734

>  <meeko>  (16) 
{"free_energy": -7.44, "intermolecular_energy": -9.53, "internal_energy": -2.35, "cluster_size": 1, "cluster_id": 6, "rank_in_cluster": 1}

>  <energy>  (16) 
-7.82

>  <cluster_rmsd>  (16) 
1.68

>  <cluster>  (16) 
1

$$$$

     RDKit          3D

 52 55  0  0  0  0  0  0  0  0999 V2000
  137.8860   70.9590  221.5580 O   0  0  0  0  0  0  0  0  0  0  0  0
  138.4760   71.5550  222.4960 C   0  0  0  0  0  0  0  0  0  0  0  0
  138.6350   72.9760  222.3220 N   0  0  0  0  0  0  0  0  0  0  0  0
  138.1110   73.5440  221.1170 C   0  0  0  0  0  0  0  0  0  0  0  0
  137.9800   75.0050  221.1670 C   0  0  0  0  0  0  0  0  0  0  0  0
  137.1780   75.4970  222.0020 O   0  0  0  0  0  0  0  0  0  0  0  0
  138.7600   75.7870  220.2720 N   0  0  0  0  0  0  0  0  0  0  0  0
  138.4470   76.1300  218.8780 C   0  0  0  0  0  0  0  0  0  0  0  0
  139.7440   76.4680  218.2240 C   0  0  0  0  0  0  0  0  0  0  0  0
  140.7830   76.1080  219.2670 C   0  0  0  0  0  0  0  0  0  0  0  0
  140.0240   76.4100  220.5380 C   0  0  2  0  0  0  0  0  0  0  0  0
  140.7280   75.9510  221.7660 C   0  0  0  0  0  0  0  0  0  0  0  0
  140.7110   74.5460  221.9330 O   0  0  0  0  0  0  0  0  0  0  0  0
  141.7250   73.8180  221.3260 C   0  0  0  0  0  0  0  0  0  0  0  0
  142.8290   74.5030  220.8590 C   0  0  0  0  0  0  0  0  0  0  0  0
  143.8920   73.8730  220.2410 C   0  0  0  0  0  0  0  0  0  0  0  0
  143.8330   72.5220  220.0930 C   0  0  0  0  0  0  0  0  0  0  0  0
  145.1730   71.7070  219.3100 Cl  0  0  0  0  0  0  0  0  0  0  0  0
  142.7420   71.8390  220.5540 C   0  0  0  0  0  0  0  0  0  0  0  0
  141.6630   72.4360  221.1760 C   0  0  0  0  0  0  0  0  0  0  0  0
  138.9660   70.8810  223.6710 C   0  0  0  0  0  0  0  0  0  0  0  0
  138.7960   69.5120  223.7480 C   0  0  0  0  0  0  0  0  0  0  0  0
  139.2320   68.7730  224.8360 C   0  0  0  0  0  0  0  0  0  0  0  0
  139.8480   69.4810  225.8480 C   0  0  0  0  0  0  0  0  0  0  0  0
  140.2870   68.7460  226.9410 C   0  0  0  0  0  0  0  0  0  0  0  0
  140.9120   69.3880  227.9880 C   0  0  0  0  0  0  0  0  0  0  0  0
  141.3360   68.6730  229.0450 F   0  0  0  0  0  0  0  0  0  0  0  0
  141.0830   70.7680  227.9100 C   0  0  0  0  0  0  0  0  0  0  0  0
  140.6430   71.4990  226.8170 C   0  0  0  0  0  0  0  0  0  0  0  0
  140.0210   70.8540  225.7760 C   0  0  0  0  0  0  0  0  0  0  0  0
  139.5720   71.4830  224.6940 N   0  0  0  0  0  0  0  0  0  0  0  0
  139.1100   73.5580  223.0430 H   0  0  0  0  0  0  0  0  0  0  0  0
  138.7846   73.2830  220.2875 H   0  0  0  0  0  0  0  0  0  0  0  0
  137.1000   73.1331  220.9786 H   0  0  0  0  0  0  0  0  0  0  0  0
  137.9780   75.2733  218.3719 H   0  0  0  0  0  0  0  0  0  0  0  0
  137.7426   76.9731  218.8242 H   0  0  0  0  0  0  0  0  0  0  0  0
  139.8868   75.8752  217.3085 H   0  0  0  0  0  0  0  0  0  0  0  0
  139.8010   77.5221  217.9146 H   0  0  0  0  0  0  0  0  0  0  0  0
  141.0662   75.0468  219.2070 H   0  0  0  0  0  0  0  0  0  0  0  0
  141.7360   76.6481  219.1662 H   0  0  0  0  0  0  0  0  0  0  0  0
  139.9172   77.4806  220.7668 H   0  0  0  0  0  0  0  0  0  0  0  0
  141.7754   76.2828  221.7118 H   0  0  0  0  0  0  0  0  0  0  0  0
  140.1973   76.3861  222.6257 H   0  0  0  0  0  0  0  0  0  0  0  0
  142.8637   75.5953  220.9841 H   0  0  0  0  0  0  0  0  0  0  0  0
  144.7589   74.4459  219.8800 H   0  0  0  0  0  0  0  0  0  0  0  0
  142.7224   70.7472  220.4214 H   0  0  0  0  0  0  0  0  0  0  0  0
  140.8023   71.8514  221.5330 H   0  0  0  0  0  0  0  0  0  0  0  0
  138.2976   68.9910  222.9173 H   0  0  0  0  0  0  0  0  0  0  0  0
  139.0948   67.6829  224.8901 H   0  0  0  0  0  0  0  0  0  0  0  0
  140.1367   67.6567  226.9711 H   0  0  0  0  0  0  0  0  0  0  0  0
  141.5810   71.2927  228.7387 H   0  0  0  0  0  0  0  0  0  0  0  0
  140.7911   72.5885  226.7838 H   0  0  0  0  0  0  0  0  0  0  0  0
  1  2  2  0
  2  3  1  0
  3  4  1  0
  4  5  1  0
  5  6  2  0
  5  7  1  0
  7  8  1  0
  8  9  1  0
  9 10  1  0
 10 11  1  0
 11 12  1  0
 12 13  1  0
 13 14  1  0
 14 15  2  0
 15 16  1  0
 16 17  2  0
 17 18  1  0
 17 19  1  0
 19 20  2  0
  2 21  1  0
 21 22  2  0
 22 23  1  0
 23 24  2  0
 24 25  1  0
 25 26  2  0
 26 27  1  0
 26 28  1  0
 28 29  2  0
 29 30  1  0
 30 31  2  0
 11  7  1  0
 20 14  1  0
 31 21  1  0
 30 24  1  0
  3 32  1  0
  4 33  1  0
  4 34  1  0
  8 35  1  0
  8 36  1  0
  9 37  1  0
  9 38  1  0
 10 39  1  0
 10 40  1  0
 11 41  1  1
 12 42  1  0
 12 43  1  0
 15 44  1  0
 16 45  1  0
 19 46  1  0
 20 47  1  0
 22 48  1  0
 23 49  1  0
 25 50  1  0
 28 51  1  0
 29 52  1  0
M  END
>  <smiles>  (17) 
O=C(NCC(=O)N1CCC[C@@H]1COc1ccc(Cl)cc1)c1ccc2cc(F)ccc2n1

>  <score_type>  (17) 
oracle

>  <origin>  (17) 
autodockgpu

>  <m_score__min__energy>  (17) 
-8.5

>  <m_primary>  (17) 
energy

>  <rmsd>  (17) 
1.2647215189104761

>  <m_score__min__rmsd>  (17) 
1.2647215189104761

>  <meeko>  (17) 
{"free_energy": -6.83, "intermolecular_energy": -8.92, "internal_energy": -2.68, "cluster_size": 4, "cluster_id": 5, "rank_in_cluster": 4}

>  <energy>  (17) 
-7.75

>  <cluster_rmsd>  (17) 
1.86

>  <cluster>  (17) 
1

$$$$

     RDKit          3D

 52 55  0  0  0  0  0  0  0  0999 V2000
  138.2080   70.7680  221.9150 O   0  0  0  0  0  0  0  0  0  0  0  0
  138.8920   71.2270  222.8660 C   0  0  0  0  0  0  0  0  0  0  0  0
  139.3000   72.6020  222.7270 N   0  0  0  0  0  0  0  0  0  0  0  0
  138.8860   73.2830  221.5380 C   0  0  0  0  0  0  0  0  0  0  0  0
  139.4770   74.6190  221.3920 C   0  0  0  0  0  0  0  0  0  0  0  0
  140.4650   74.9090  222.1150 O   0  0  0  0  0  0  0  0  0  0  0  0
  138.9050   75.5140  220.4470 N   0  0  0  0  0  0  0  0  0  0  0  0
  139.2120   75.6180  219.0150 C   0  0  0  0  0  0  0  0  0  0  0  0
  138.7990   76.9860  218.5910 C   0  0  0  0  0  0  0  0  0  0  0  0
  138.4380   77.6770  219.8910 C   0  0  0  0  0  0  0  0  0  0  0  0
  137.9040   76.5110  220.6910 C   0  0  2  0  0  0  0  0  0  0  0  0
  137.6540   76.8450  222.1200 C   0  0  0  0  0  0  0  0  0  0  0  0
  137.7750   78.2250  222.4050 O   0  0  0  0  0  0  0  0  0  0  0  0
  139.0370   78.7030  222.7300 C   0  0  0  0  0  0  0  0  0  0  0  0
  139.1580   80.0290  223.0950 C   0  0  0  0  0  0  0  0  0  0  0  0
  140.3670   80.6030  223.4360 C   0  0  0  0  0  0  0  0  0  0  0  0
  141.4760   79.8150  223.4050 C   0  0  0  0  0  0  0  0  0  0  0  0
  143.0190   80.5280  223.8350 Cl  0  0  0  0  0  0  0  0  0  0  0  0
  141.3630   78.5020  223.0450 C   0  0  0  0  0  0  0  0  0  0  0  0
  140.1700   77.8970  222.6980 C   0  0  0  0  0  0  0  0  0  0  0  0
  139.2530   70.4480  224.0230 C   0  0  0  0  0  0  0  0  0  0  0  0
  138.9560   69.0990  224.0110 C   0  0  0  0  0  0  0  0  0  0  0  0
  139.2620   68.2650  225.0740 C   0  0  0  0  0  0  0  0  0  0  0  0
  139.8840   68.8570  226.1550 C   0  0  0  0  0  0  0  0  0  0  0  0
  140.1940   68.0260  227.2240 C   0  0  0  0  0  0  0  0  0  0  0  0
  140.8170   68.5500  228.3360 C   0  0  0  0  0  0  0  0  0  0  0  0
  141.1160   67.7430  229.3690 F   0  0  0  0  0  0  0  0  0  0  0  0
  141.1170   69.9100  228.3470 C   0  0  0  0  0  0  0  0  0  0  0  0
  140.8060   70.7360  227.2780 C   0  0  0  0  0  0  0  0  0  0  0  0
  140.1850   70.2100  226.1720 C   0  0  0  0  0  0  0  0  0  0  0  0
  139.8550   70.9350  225.1070 N   0  0  0  0  0  0  0  0  0  0  0  0
  139.8680   73.0730  223.4610 H   0  0  0  0  0  0  0  0  0  0  0  0
  139.1793   72.6757  220.6690 H   0  0  0  0  0  0  0  0  0  0  0  0
  137.7962   73.4170  221.6048 H   0  0  0  0  0  0  0  0  0  0  0  0
  140.2899   75.4773  218.8464 H   0  0  0  0  0  0  0  0  0  0  0  0
  138.6820   74.8460  218.4378 H   0  0  0  0  0  0  0  0  0  0  0  0
  139.6272   77.5066  218.0879 H   0  0  0  0  0  0  0  0  0  0  0  0
  137.9670   76.9741  217.8716 H   0  0  0  0  0  0  0  0  0  0  0  0
  139.3207   78.1263  220.3696 H   0  0  0  0  0  0  0  0  0  0  0  0
  137.7343   78.5154  219.7817 H   0  0  0  0  0  0  0  0  0  0  0  0
  136.9009   76.1700  220.3953 H   0  0  0  0  0  0  0  0  0  0  0  0
  136.6346   76.5236  222.3797 H   0  0  0  0  0  0  0  0  0  0  0  0
  138.4191   76.3231  222.7135 H   0  0  0  0  0  0  0  0  0  0  0  0
  138.2535   80.6546  223.1151 H   0  0  0  0  0  0  0  0  0  0  0  0
  140.4314   81.6628  223.7234 H   0  0  0  0  0  0  0  0  0  0  0  0
  142.2766   77.8895  223.0305 H   0  0  0  0  0  0  0  0  0  0  0  0
  140.1192   76.8360  222.4121 H   0  0  0  0  0  0  0  0  0  0  0  0
  138.4594   68.6723  223.1270 H   0  0  0  0  0  0  0  0  0  0  0  0
  139.0228   67.1914  225.0577 H   0  0  0  0  0  0  0  0  0  0  0  0
  139.9436   66.9557  227.1832 H   0  0  0  0  0  0  0  0  0  0  0  0
  141.6146   70.3407  229.2284 H   0  0  0  0  0  0  0  0  0  0  0  0
  141.0553   71.8067  227.3155 H   0  0  0  0  0  0  0  0  0  0  0  0
  1  2  2  0
  2  3  1  0
  3  4  1  0
  4  5  1  0
  5  6  2  0
  5  7  1  0
  7  8  1  0
  8  9  1  0
  9 10  1  0
 10 11  1  0
 11 12  1  0
 12 13  1  0
 13 14  1  0
 14 15  2  0
 15 16  1  0
 16 17  2  0
 17 18  1  0
 17 19  1  0
 19 20  2  0
  2 21  1  0
 21 22  2  0
 22 23  1  0
 23 24  2  0
 24 25  1  0
 25 26  2  0
 26 27  1  0
 26 28  1  0
 28 29  2  0
 29 30  1  0
 30 31  2  0
 11  7  1  0
 20 14  1  0
 31 21  1  0
 30 24  1  0
  3 32  1  0
  4 33  1  0
  4 34  1  0
  8 35  1  0
  8 36  1  0
  9 37  1  0
  9 38  1  0
 10 39  1  0
 10 40  1  0
 11 41  1  6
 12 42  1  0
 12 43  1  0
 15 44  1  0
 16 45  1  0
 19 46  1  0
 20 47  1  0
 22 48  1  0
 23 49  1  0
 25 50  1  0
 28 51  1  0
 29 52  1  0
M  END
>  <smiles>  (18) 
O=C(NCC(=O)N1CCC[C@@H]1COc1ccc(Cl)cc1)c1ccc2cc(F)ccc2n1

>  <score_type>  (18) 
oracle

>  <origin>  (18) 
autodockgpu

>  <m_score__min__energy>  (18) 
-8.5

>  <m_primary>  (18) 
energy

>  <rmsd>  (18) 
1.7218047536042003

>  <m_score__min__rmsd>  (18) 
1.7218047536042003

>  <meeko>  (18) 
{"free_energy": -8.0, "intermolecular_energy": -10.09, "internal_energy": -1.97, "cluster_size": 30, "cluster_id": 1, "rank_in_cluster": 13}

>  <energy>  (18) 
-7.72

>  <cluster_rmsd>  (18) 
1.67

>  <cluster>  (18) 
1

$$$$

     RDKit          3D

 52 55  0  0  0  0  0  0  0  0999 V2000
  141.2610   72.0930  221.7480 O   0  0  0  0  0  0  0  0  0  0  0  0
  140.3760   72.2450  222.6270 C   0  0  0  0  0  0  0  0  0  0  0  0
  139.4760   73.3500  222.4140 N   0  0  0  0  0  0  0  0  0  0  0  0
  139.6890   74.1420  221.2400 C   0  0  0  0  0  0  0  0  0  0  0  0
  140.7280   75.1650  221.4050 C   0  0  0  0  0  0  0  0  0  0  0  0
  140.5860   76.0080  222.3290 O   0  0  0  0  0  0  0  0  0  0  0  0
  141.8370   75.1550  220.5160 N   0  0  0  0  0  0  0  0  0  0  0  0
  142.8740   74.1220  220.3910 C   0  0  0  0  0  0  0  0  0  0  0  0
  144.0550   74.7800  219.7630 C   0  0  0  0  0  0  0  0  0  0  0  0
  143.6800   76.2490  219.7320 C   0  0  0  0  0  0  0  0  0  0  0  0
  142.1830   76.1540  219.5470 C   0  0  2  0  0  0  0  0  0  0  0  0
  141.4890   77.4640  219.6890 C   0  0  0  0  0  0  0  0  0  0  0  0
  142.0630   78.3000  220.6750 O   0  0  0  0  0  0  0  0  0  0  0  0
  141.2130   78.8260  221.6390 C   0  0  0  0  0  0  0  0  0  0  0  0
  139.8840   79.0040  221.3090 C   0  0  0  0  0  0  0  0  0  0  0  0
  138.9580   79.5200  222.1940 C   0  0  0  0  0  0  0  0  0  0  0  0
  139.3890   79.8630  223.4380 C   0  0  0  0  0  0  0  0  0  0  0  0
  138.2260   80.5210  224.5740 Cl  0  0  0  0  0  0  0  0  0  0  0  0
  140.7030   79.6900  223.7700 C   0  0  0  0  0  0  0  0  0  0  0  0
  141.6550   79.1770  222.9110 C   0  0  0  0  0  0  0  0  0  0  0  0
  140.2510   71.3840  223.7750 C   0  0  0  0  0  0  0  0  0  0  0  0
  139.6160   70.1690  223.6050 C   0  0  0  0  0  0  0  0  0  0  0  0
  139.4450   69.2710  224.6470 C   0  0  0  0  0  0  0  0  0  0  0  0
  139.9470   69.6570  225.8740 C   0  0  0  0  0  0  0  0  0  0  0  0
  139.7790   68.7620  226.9220 C   0  0  0  0  0  0  0  0  0  0  0  0
  140.2550   69.0820  228.1750 C   0  0  0  0  0  0  0  0  0  0  0  0
  140.0920   68.2130  229.1880 F   0  0  0  0  0  0  0  0  0  0  0  0
  140.8960   70.3070  228.3460 C   0  0  0  0  0  0  0  0  0  0  0  0
  141.0610   71.1990  227.2970 C   0  0  0  0  0  0  0  0  0  0  0  0
  140.5850   70.8750  226.0500 C   0  0  0  0  0  0  0  0  0  0  0  0
  140.7040   71.6740  224.9940 N   0  0  0  0  0  0  0  0  0  0  0  0
  138.7090   73.5590  223.0860 H   0  0  0  0  0  0  0  0  0  0  0  0
  139.9857   73.4737  220.4182 H   0  0  0  0  0  0  0  0  0  0  0  0
  138.7466   74.6688  221.0296 H   0  0  0  0  0  0  0  0  0  0  0  0
  143.1409   73.7297  221.3834 H   0  0  0  0  0  0  0  0  0  0  0  0
  142.5207   73.2759  219.7833 H   0  0  0  0  0  0  0  0  0  0  0  0
  144.9599   74.6197  220.3676 H   0  0  0  0  0  0  0  0  0  0  0  0
  144.2829   74.3791  218.7644 H   0  0  0  0  0  0  0  0  0  0  0  0
  143.9405   76.7535  220.6741 H   0  0  0  0  0  0  0  0  0  0  0  0
  144.1985   76.8357  218.9594 H   0  0  0  0  0  0  0  0  0  0  0  0
  141.8615   75.8749  218.5327 H   0  0  0  0  0  0  0  0  0  0  0  0
  141.5297   77.9867  218.7220 H   0  0  0  0  0  0  0  0  0  0  0  0
  140.4566   77.2520  220.0040 H   0  0  0  0  0  0  0  0  0  0  0  0
  139.5491   78.7232  220.2995 H   0  0  0  0  0  0  0  0  0  0  0  0
  137.9053   79.6496  221.9024 H   0  0  0  0  0  0  0  0  0  0  0  0
  141.0220   79.9767  224.7829 H   0  0  0  0  0  0  0  0  0  0  0  0
  142.7047   79.0527  223.2155 H   0  0  0  0  0  0  0  0  0  0  0  0
  139.2328   69.9050  222.6083 H   0  0  0  0  0  0  0  0  0  0  0  0
  138.9380   68.3053  224.5044 H   0  0  0  0  0  0  0  0  0  0  0  0
  139.2686   67.8024  226.7530 H   0  0  0  0  0  0  0  0  0  0  0  0
  141.2820   70.5742  229.3408 H   0  0  0  0  0  0  0  0  0  0  0  0
  141.5699   72.1600  227.4626 H   0  0  0  0  0  0  0  0  0  0  0  0
  1  2  2  0
  2  3  1  0
  3  4  1  0
  4  5  1  0
  5  6  2  0
  5  7  1  0
  7  8  1  0
  8  9  1  0
  9 10  1  0
 10 11  1  0
 11 12  1  0
 12 13  1  0
 13 14  1  0
 14 15  2  0
 15 16  1  0
 16 17  2  0
 17 18  1  0
 17 19  1  0
 19 20  2  0
  2 21  1  0
 21 22  2  0
 22 23  1  0
 23 24  2  0
 24 25  1  0
 25 26  2  0
 26 27  1  0
 26 28  1  0
 28 29  2  0
 29 30  1  0
 30 31  2  0
 11  7  1  0
 20 14  1  0
 31 21  1  0
 30 24  1  0
  3 32  1  0
  4 33  1  0
  4 34  1  0
  8 35  1  0
  8 36  1  0
  9 37  1  0
  9 38  1  0
 10 39  1  0
 10 40  1  0
 11 41  1  6
 12 42  1  0
 12 43  1  0
 15 44  1  0
 16 45  1  0
 19 46  1  0
 20 47  1  0
 22 48  1  0
 23 49  1  0
 25 50  1  0
 28 51  1  0
 29 52  1  0
M  END
>  <smiles>  (19) 
O=C(NCC(=O)N1CCC[C@@H]1COc1ccc(Cl)cc1)c1ccc2cc(F)ccc2n1

>  <score_type>  (19) 
oracle

>  <origin>  (19) 
autodockgpu

>  <m_score__min__energy>  (19) 
-8.5

>  <m_primary>  (19) 
energy

>  <rmsd>  (19) 
2.3846268968630566

>  <m_score__min__rmsd>  (19) 
2.3846268968630566

>  <meeko>  (19) 
{"free_energy": -8.5, "intermolecular_energy": -10.59, "internal_energy": -1.7, "cluster_size": 30, "cluster_id": 1, "rank_in_cluster": 1}

>  <energy>  (19) 
-7.64

>  <cluster_rmsd>  (19) 
1.51

>  <cluster>  (19) 
1

$$$$

     RDKit          3D

 52 55  0  0  0  0  0  0  0  0999 V2000
  138.8720   70.4910  221.2860 O   0  0  0  0  0  0  0  0  0  0  0  0
  138.9370   71.2810  222.2610 C   0  0  0  0  0  0  0  0  0  0  0  0
  138.4480   72.6130  222.0110 N   0  0  0  0  0  0  0  0  0  0  0  0
  137.9490   72.8840  220.6970 C   0  0  0  0  0  0  0  0  0  0  0  0
  137.9750   74.3080  220.3420 C   0  0  0  0  0  0  0  0  0  0  0  0
  137.0380   75.0370  220.7580 O   0  0  0  0  0  0  0  0  0  0  0  0
  139.0530   74.7900  219.5500 N   0  0  0  0  0  0  0  0  0  0  0  0
  139.0040   75.2360  218.1510 C   0  0  0  0  0  0  0  0  0  0  0  0
  140.3940   75.1220  217.6220 C   0  0  0  0  0  0  0  0  0  0  0  0
  141.1490   74.4160  218.7310 C   0  0  0  0  0  0  0  0  0  0  0  0
  140.4220   74.9420  219.9470 C   0  0  2  0  0  0  0  0  0  0  0  0
  140.8130   74.2540  221.2080 C   0  0  0  0  0  0  0  0  0  0  0  0
  140.0920   74.7010  222.3390 O   0  0  0  0  0  0  0  0  0  0  0  0
  139.9410   76.0720  222.5010 C   0  0  0  0  0  0  0  0  0  0  0  0
  141.0800   76.8480  222.5810 C   0  0  0  0  0  0  0  0  0  0  0  0
  141.0390   78.2190  222.7420 C   0  0  0  0  0  0  0  0  0  0  0  0
  139.8180   78.8140  222.8250 C   0  0  0  0  0  0  0  0  0  0  0  0
  139.7490   80.5540  223.0300 Cl  0  0  0  0  0  0  0  0  0  0  0  0
  138.6870   78.0510  222.7470 C   0  0  0  0  0  0  0  0  0  0  0  0
  138.6920   76.6790  222.5860 C   0  0  0  0  0  0  0  0  0  0  0  0
  139.4610   70.9020  223.5480 C   0  0  0  0  0  0  0  0  0  0  0  0
  140.2790   71.8030  224.2030 C   0  0  0  0  0  0  0  0  0  0  0  0
  140.8330   71.5320  225.4440 C   0  0  0  0  0  0  0  0  0  0  0  0
  140.5220   70.3070  225.9970 C   0  0  0  0  0  0  0  0  0  0  0  0
  141.0740   70.0300  227.2410 C   0  0  0  0  0  0  0  0  0  0  0  0
  140.8060   68.8240  227.8530 C   0  0  0  0  0  0  0  0  0  0  0  0
  141.3410   68.5600  229.0580 F   0  0  0  0  0  0  0  0  0  0  0  0
  139.9810   67.9170  227.1930 C   0  0  0  0  0  0  0  0  0  0  0  0
  139.4320   68.1960  225.9510 C   0  0  0  0  0  0  0  0  0  0  0  0
  139.7020   69.3990  225.3460 C   0  0  0  0  0  0  0  0  0  0  0  0
  139.2140   69.7430  224.1570 N   0  0  0  0  0  0  0  0  0  0  0  0
  138.4590   73.3410  222.7560 H   0  0  0  0  0  0  0  0  0  0  0  0
  138.5644   72.3330  219.9706 H   0  0  0  0  0  0  0  0  0  0  0  0
  136.8962   72.5657  220.6791 H   0  0  0  0  0  0  0  0  0  0  0  0
  138.3230   74.5955  217.5714 H   0  0  0  0  0  0  0  0  0  0  0  0
  138.6326   76.2686  218.0751 H   0  0  0  0  0  0  0  0  0  0  0  0
  140.4130   74.5284  216.6961 H   0  0  0  0  0  0  0  0  0  0  0  0
  140.8317   76.0979  217.3652 H   0  0  0  0  0  0  0  0  0  0  0  0
  141.0613   73.3226  218.6482 H   0  0  0  0  0  0  0  0  0  0  0  0
  142.2334   74.6006  218.7332 H   0  0  0  0  0  0  0  0  0  0  0  0
  140.6618   75.9820  220.2133 H   0  0  0  0  0  0  0  0  0  0  0  0
  140.6360   73.1752  221.0858 H   0  0  0  0  0  0  0  0  0  0  0  0
  141.8736   74.4839  221.3876 H   0  0  0  0  0  0  0  0  0  0  0  0
  142.0605   76.3540  222.5137 H   0  0  0  0  0  0  0  0  0  0  0  0
  141.9640   78.8113  222.8013 H   0  0  0  0  0  0  0  0  0  0  0  0
  137.7142   78.5598  222.8166 H   0  0  0  0  0  0  0  0  0  0  0  0
  137.7596   76.0983  222.5282 H   0  0  0  0  0  0  0  0  0  0  0  0
  140.4978   72.7682  223.7229 H   0  0  0  0  0  0  0  0  0  0  0  0
  141.4843   72.2533  225.9593 H   0  0  0  0  0  0  0  0  0  0  0  0
  141.7217   70.7690  227.7354 H   0  0  0  0  0  0  0  0  0  0  0  0
  139.7585   66.9515  227.6708 H   0  0  0  0  0  0  0  0  0  0  0  0
  138.7846   67.4589  225.4535 H   0  0  0  0  0  0  0  0  0  0  0  0
  1  2  2  0
  2  3  1  0
  3  4  1  0
  4  5  1  0
  5  6  2  0
  5  7  1  0
  7  8  1  0
  8  9  1  0
  9 10  1  0
 10 11  1  0
 11 12  1  0
 12 13  1  0
 13 14  1  0
 14 15  2  0
 15 16  1  0
 16 17  2  0
 17 18  1  0
 17 19  1  0
 19 20  2  0
  2 21  1  0
 21 22  2  0
 22 23  1  0
 23 24  2  0
 24 25  1  0
 25 26  2  0
 26 27  1  0
 26 28  1  0
 28 29  2  0
 29 30  1  0
 30 31  2  0
 11  7  1  0
 20 14  1  0
 31 21  1  0
 30 24  1  0
  3 32  1  0
  4 33  1  0
  4 34  1  0
  8 35  1  0
  8 36  1  0
  9 37  1  0
  9 38  1  0
 10 39  1  0
 10 40  1  0
 11 41  1  1
 12 42  1  0
 12 43  1  0
 15 44  1  0
 16 45  1  0
 19 46  1  0
 20 47  1  0
 22 48  1  0
 23 49  1  0
 25 50  1  0
 28 51  1  0
 29 52  1  0
M  END
>  <smiles>  (20) 
O=C(NCC(=O)N1CCC[C@@H]1COc1ccc(Cl)cc1)c1ccc2cc(F)ccc2n1

>  <score_type>  (20) 
oracle

>  <origin>  (20) 
autodockgpu

>  <m_score__min__energy>  (20) 
-8.5

>  <m_primary>  (20) 
energy

>  <rmsd>  (20) 
2.6140087893692767

>  <m_score__min__rmsd>  (20) 
2.6140087893692767

>  <meeko>  (20) 
{"free_energy": -7.06, "intermolecular_energy": -9.15, "internal_energy": -2.59, "cluster_size": 30, "cluster_id": 1, "rank_in_cluster": 30}

>  <energy>  (20) 
-7.54

>  <cluster_rmsd>  (20) 
1.8

>  <cluster>  (20) 
1

$$$$

     RDKit          3D

 52 55  0  0  0  0  0  0  0  0999 V2000
  140.9470   73.7160  220.4340 O   0  0  0  0  0  0  0  0  0  0  0  0
  140.4820   73.9900  221.5700 C   0  0  0  0  0  0  0  0  0  0  0  0
  140.3240   72.8680  222.4600 N   0  0  0  0  0  0  0  0  0  0  0  0
  140.7100   71.5830  221.9570 C   0  0  0  0  0  0  0  0  0  0  0  0
  139.5900   70.8120  221.4020 C   0  0  0  0  0  0  0  0  0  0  0  0
  139.8210   69.6420  221.0020 O   0  0  0  0  0  0  0  0  0  0  0  0
  138.3080   71.4240  221.3440 N   0  0  0  0  0  0  0  0  0  0  0  0
  137.7870   72.3080  220.2930 C   0  0  0  0  0  0  0  0  0  0  0  0
  136.6830   73.0960  220.9110 C   0  0  0  0  0  0  0  0  0  0  0  0
  136.7600   72.7390  222.3830 C   0  0  0  0  0  0  0  0  0  0  0  0
  137.2480   71.3110  222.3020 C   0  0  2  0  0  0  0  0  0  0  0  0
  137.6250   70.7430  223.6250 C   0  0  0  0  0  0  0  0  0  0  0  0
  138.8340   71.2680  224.1380 O   0  0  0  0  0  0  0  0  0  0  0  0
  139.4030   70.6170  225.2240 C   0  0  0  0  0  0  0  0  0  0  0  0
  139.0280   69.3120  225.4710 C   0  0  0  0  0  0  0  0  0  0  0  0
  139.5350   68.5760  226.5240 C   0  0  0  0  0  0  0  0  0  0  0  0
  140.4390   69.1770  227.3440 C   0  0  0  0  0  0  0  0  0  0  0  0
  141.0920   68.2570  228.6870 Cl  0  0  0  0  0  0  0  0  0  0  0  0
  140.8140   70.4700  227.1050 C   0  0  0  0  0  0  0  0  0  0  0  0
  140.3280   71.2340  226.0620 C   0  0  0  0  0  0  0  0  0  0  0  0
  140.1260   75.3260  221.9740 C   0  0  0  0  0  0  0  0  0  0  0  0
  138.7860   75.6650  221.9700 C   0  0  0  0  0  0  0  0  0  0  0  0
  138.3410   76.9240  222.3410 C   0  0  0  0  0  0  0  0  0  0  0  0
  139.3130   77.8280  222.7180 C   0  0  0  0  0  0  0  0  0  0  0  0
  138.8720   79.0910  223.0910 C   0  0  0  0  0  0  0  0  0  0  0  0
  139.7880   80.0450  223.4800 C   0  0  0  0  0  0  0  0  0  0  0  0
  139.3590   81.2670  223.8420 F   0  0  0  0  0  0  0  0  0  0  0  0
  141.1380   79.7020  223.4860 C   0  0  0  0  0  0  0  0  0  0  0  0
  141.5740   78.4400  223.1120 C   0  0  0  0  0  0  0  0  0  0  0  0
  140.6570   77.4930  222.7250 C   0  0  0  0  0  0  0  0  0  0  0  0
  140.9940   76.2620  222.3540 N   0  0  0  0  0  0  0  0  0  0  0  0
  139.9470   72.9900  223.4230 H   0  0  0  0  0  0  0  0  0  0  0  0
  141.4587   71.7296  221.1645 H   0  0  0  0  0  0  0  0  0  0  0  0
  141.1093   71.0091  222.8062 H   0  0  0  0  0  0  0  0  0  0  0  0
  138.5800   72.9811  219.9350 H   0  0  0  0  0  0  0  0  0  0  0  0
  137.4275   71.7297  219.4291 H   0  0  0  0  0  0  0  0  0  0  0  0
  136.8403   74.1743  220.7610 H   0  0  0  0  0  0  0  0  0  0  0  0
  135.7012   72.8688  220.4701 H   0  0  0  0  0  0  0  0  0  0  0  0
  137.4745   73.3814  222.9187 H   0  0  0  0  0  0  0  0  0  0  0  0
  135.8162   72.8676  222.9331 H   0  0  0  0  0  0  0  0  0  0  0  0
  136.4864   70.5810  221.9904 H   0  0  0  0  0  0  0  0  0  0  0  0
  136.8187   70.9613  224.3407 H   0  0  0  0  0  0  0  0  0  0  0  0
  137.7744   69.6624  223.4837 H   0  0  0  0  0  0  0  0  0  0  0  0
  138.2949   68.8384  224.8014 H   0  0  0  0  0  0  0  0  0  0  0  0
  139.2178   67.5366  226.6943 H   0  0  0  0  0  0  0  0  0  0  0  0
  141.5470   70.9295  227.7844 H   0  0  0  0  0  0  0  0  0  0  0  0
  140.6537   72.2725  225.9022 H   0  0  0  0  0  0  0  0  0  0  0  0
  138.0478   74.9099  221.6619 H   0  0  0  0  0  0  0  0  0  0  0  0
  137.2731   77.1878  222.3353 H   0  0  0  0  0  0  0  0  0  0  0  0
  137.7981   79.3287  223.0761 H   0  0  0  0  0  0  0  0  0  0  0  0
  141.8791   80.4534  223.7961 H   0  0  0  0  0  0  0  0  0  0  0  0
  142.6471   78.1986  223.1251 H   0  0  0  0  0  0  0  0  0  0  0  0
  1  2  2  0
  2  3  1  0
  3  4  1  0
  4  5  1  0
  5  6  2  0
  5  7  1  0
  7  8  1  0
  8  9  1  0
  9 10  1  0
 10 11  1  0
 11 12  1  0
 12 13  1  0
 13 14  1  0
 14 15  2  0
 15 16  1  0
 16 17  2  0
 17 18  1  0
 17 19  1  0
 19 20  2  0
  2 21  1  0
 21 22  2  0
 22 23  1  0
 23 24  2  0
 24 25  1  0
 25 26  2  0
 26 27  1  0
 26 28  1  0
 28 29  2  0
 29 30  1  0
 30 31  2  0
 11  7  1  0
 20 14  1  0
 31 21  1  0
 30 24  1  0
  3 32  1  0
  4 33  1  0
  4 34  1  0
  8 35  1  0
  8 36  1  0
  9 37  1  0
  9 38  1  0
 10 39  1  0
 10 40  1  0
 11 41  1  6
 12 42  1  0
 12 43  1  0
 15 44  1  0
 16 45  1  0
 19 46  1  0
 20 47  1  0
 22 48  1  0
 23 49  1  0
 25 50  1  0
 28 51  1  0
 29 52  1  0
M  END
>  <smiles>  (21) 
O=C(NCC(=O)N1CCC[C@@H]1COc1ccc(Cl)cc1)c1ccc2cc(F)ccc2n1

>  <score_type>  (21) 
oracle

>  <origin>  (21) 
autodockgpu

>  <m_score__min__energy>  (21) 
-8.5

>  <m_primary>  (21) 
energy

>  <rmsd>  (21) 
7.306250772529755

>  <m_score__min__rmsd>  (21) 
7.306250772529755

>  <meeko>  (21) 
{"free_energy": -6.88, "intermolecular_energy": -8.97, "internal_energy": -2.76, "cluster_size": 3, "cluster_id": 4, "rank_in_cluster": 3}

>  <energy>  (21) 
-7.52

>  <cluster_rmsd>  (21) 
1.98

>  <cluster>  (21) 
1

$$$$

     RDKit          3D

 52 55  0  0  0  0  0  0  0  0999 V2000
  141.2400   72.5880  221.9290 O   0  0  0  0  0  0  0  0  0  0  0  0
  140.2390   72.4680  222.6800 C   0  0  0  0  0  0  0  0  0  0  0  0
  139.1190   73.3150  222.3590 N   0  0  0  0  0  0  0  0  0  0  0  0
  139.2700   74.1890  221.2350 C   0  0  0  0  0  0  0  0  0  0  0  0
  140.0640   75.3890  221.5290 C   0  0  0  0  0  0  0  0  0  0  0  0
  141.2330   75.2310  221.9660 O   0  0  0  0  0  0  0  0  0  0  0  0
  139.4740   76.6630  221.3060 N   0  0  0  0  0  0  0  0  0  0  0  0
  138.8100   77.5250  222.2930 C   0  0  0  0  0  0  0  0  0  0  0  0
  137.9170   78.4380  221.5240 C   0  0  0  0  0  0  0  0  0  0  0  0
  137.9830   77.9050  220.1070 C   0  0  0  0  0  0  0  0  0  0  0  0
  139.4010   77.3820  220.0680 C   0  0  2  0  0  0  0  0  0  0  0  0
  139.7030   76.5950  218.8410 C   0  0  0  0  0  0  0  0  0  0  0  0
  141.0360   76.7430  218.3920 O   0  0  0  0  0  0  0  0  0  0  0  0
  141.9890   75.8870  218.9270 C   0  0  0  0  0  0  0  0  0  0  0  0
  143.1000   76.4430  219.5290 C   0  0  0  0  0  0  0  0  0  0  0  0
  144.1050   75.6810  220.0910 C   0  0  0  0  0  0  0  0  0  0  0  0
  143.9810   74.3270  220.0400 C   0  0  0  0  0  0  0  0  0  0  0  0
  145.2490   73.3440  220.7490 Cl  0  0  0  0  0  0  0  0  0  0  0  0
  142.8840   73.7700  219.4450 C   0  0  0  0  0  0  0  0  0  0  0  0
  141.8610   74.5030  218.8750 C   0  0  0  0  0  0  0  0  0  0  0  0
  140.1930   71.5510  223.7900 C   0  0  0  0  0  0  0  0  0  0  0  0
  139.6420   70.3020  223.5740 C   0  0  0  0  0  0  0  0  0  0  0  0
  139.5510   69.3500  224.5760 C   0  0  0  0  0  0  0  0  0  0  0  0
  140.0440   69.7160  225.8120 C   0  0  0  0  0  0  0  0  0  0  0  0
  139.9560   68.7660  226.8210 C   0  0  0  0  0  0  0  0  0  0  0  0
  140.4290   69.0630  228.0810 C   0  0  0  0  0  0  0  0  0  0  0  0
  140.3430   68.1410  229.0560 F   0  0  0  0  0  0  0  0  0  0  0  0
  140.9850   70.3220  228.2980 C   0  0  0  0  0  0  0  0  0  0  0  0
  141.0700   71.2680  227.2890 C   0  0  0  0  0  0  0  0  0  0  0  0
  140.5980   70.9670  226.0350 C   0  0  0  0  0  0  0  0  0  0  0  0
  140.6440   71.8180  225.0150 N   0  0  0  0  0  0  0  0  0  0  0  0
  138.2430   73.2900  222.9210 H   0  0  0  0  0  0  0  0  0  0  0  0
  139.7658   73.6330  220.4257 H   0  0  0  0  0  0  0  0  0  0  0  0
  138.2629   74.5286  220.9514 H   0  0  0  0  0  0  0  0  0  0  0  0
  138.2191   76.9161  222.9931 H   0  0  0  0  0  0  0  0  0  0  0  0
  139.5442   78.0915  222.8846 H   0  0  0  0  0  0  0  0  0  0  0  0
  136.8880   78.3958  221.9104 H   0  0  0  0  0  0  0  0  0  0  0  0
  138.2249   79.4916  221.5955 H   0  0  0  0  0  0  0  0  0  0  0  0
  137.2502   77.1013  219.9420 H   0  0  0  0  0  0  0  0  0  0  0  0
  137.7493   78.6472  219.3294 H   0  0  0  0  0  0  0  0  0  0  0  0
  140.1769   78.1582  219.9941 H   0  0  0  0  0  0  0  0  0  0  0  0
  139.5238   75.5313  219.0563 H   0  0  0  0  0  0  0  0  0  0  0  0
  139.0478   76.9742  218.0429 H   0  0  0  0  0  0  0  0  0  0  0  0
  143.1883   77.5389  219.5624 H   0  0  0  0  0  0  0  0  0  0  0  0
  144.9780   76.1535  220.5649 H   0  0  0  0  0  0  0  0  0  0  0  0
  142.8112   72.6727  219.4184 H   0  0  0  0  0  0  0  0  0  0  0  0
  140.9923   74.0183  218.4055 H   0  0  0  0  0  0  0  0  0  0  0  0
  139.2625   70.0554  222.5714 H   0  0  0  0  0  0  0  0  0  0  0  0
  139.1106   68.3581  224.3967 H   0  0  0  0  0  0  0  0  0  0  0  0
  139.5109   67.7812  226.6156 H   0  0  0  0  0  0  0  0  0  0  0  0
  141.3673   70.5721  229.2986 H   0  0  0  0  0  0  0  0  0  0  0  0
  141.5130   72.2543  227.4913 H   0  0  0  0  0  0  0  0  0  0  0  0
  1  2  2  0
  2  3  1  0
  3  4  1  0
  4  5  1  0
  5  6  2  0
  5  7  1  0
  7  8  1  0
  8  9  1  0
  9 10  1  0
 10 11  1  0
 11 12  1  0
 12 13  1  0
 13 14  1  0
 14 15  2  0
 15 16  1  0
 16 17  2  0
 17 18  1  0
 17 19  1  0
 19 20  2  0
  2 21  1  0
 21 22  2  0
 22 23  1  0
 23 24  2  0
 24 25  1  0
 25 26  2  0
 26 27  1  0
 26 28  1  0
 28 29  2  0
 29 30  1  0
 30 31  2  0
 11  7  1  0
 20 14  1  0
 31 21  1  0
 30 24  1  0
  3 32  1  0
  4 33  1  0
  4 34  1  0
  8 35  1  0
  8 36  1  0
  9 37  1  0
  9 38  1  0
 10 39  1  0
 10 40  1  0
 11 41  1  1
 12 42  1  0
 12 43  1  0
 15 44  1  0
 16 45  1  0
 19 46  1  0
 20 47  1  0
 22 48  1  0
 23 49  1  0
 25 50  1  0
 28 51  1  0
 29 52  1  0
M  END
>  <smiles>  (22) 
O=C(NCC(=O)N1CCC[C@@H]1COc1ccc(Cl)cc1)c1ccc2cc(F)ccc2n1

>  <score_type>  (22) 
oracle

>  <origin>  (22) 
autodockgpu

>  <m_score__min__energy>  (22) 
-8.5

>  <m_primary>  (22) 
energy

>  <rmsd>  (22) 
2.5632850625045807

>  <m_score__min__rmsd>  (22) 
2.5632850625045807

>  <meeko>  (22) 
{"free_energy": -7.49, "intermolecular_energy": -9.58, "internal_energy": -1.95, "cluster_size": 4, "cluster_id": 5, "rank_in_cluster": 2}

>  <energy>  (22) 
-7.52

>  <cluster_rmsd>  (22) 
1.95

>  <cluster>  (22) 
1

$$$$

     RDKit          3D

 52 55  0  0  0  0  0  0  0  0999 V2000
  141.4810   71.6360  222.1450 O   0  0  0  0  0  0  0  0  0  0  0  0
  140.5550   71.7720  222.9850 C   0  0  0  0  0  0  0  0  0  0  0  0
  139.4640   72.6170  222.5720 N   0  0  0  0  0  0  0  0  0  0  0  0
  139.5550   73.2000  221.2670 C   0  0  0  0  0  0  0  0  0  0  0  0
  140.2430   74.4980  221.2530 C   0  0  0  0  0  0  0  0  0  0  0  0
  139.8900   75.3610  222.0970 O   0  0  0  0  0  0  0  0  0  0  0  0
  141.2660   74.7120  220.2900 N   0  0  0  0  0  0  0  0  0  0  0  0
  142.4390   73.8660  220.0280 C   0  0  0  0  0  0  0  0  0  0  0  0
  143.4490   74.7380  219.3630 C   0  0  0  0  0  0  0  0  0  0  0  0
  142.8480   76.1270  219.4520 C   0  0  0  0  0  0  0  0  0  0  0  0
  141.3740   75.8030  219.3660 C   0  0  2  0  0  0  0  0  0  0  0  0
  140.4980   76.9750  219.6390 C   0  0  0  0  0  0  0  0  0  0  0  0
  141.1250   78.2170  219.3830 O   0  0  0  0  0  0  0  0  0  0  0  0
  141.4720   78.9950  220.4790 C   0  0  0  0  0  0  0  0  0  0  0  0
  141.4980   78.3950  221.7220 C   0  0  0  0  0  0  0  0  0  0  0  0
  141.8300   79.0800  222.8740 C   0  0  0  0  0  0  0  0  0  0  0  0
  142.1400   80.4010  222.7630 C   0  0  0  0  0  0  0  0  0  0  0  0
  142.5630   81.2850  224.2170 Cl  0  0  0  0  0  0  0  0  0  0  0  0
  142.1150   81.0000  221.5350 C   0  0  0  0  0  0  0  0  0  0  0  0
  141.7890   80.3450  220.3630 C   0  0  0  0  0  0  0  0  0  0  0  0
  140.5640   71.1350  224.2770 C   0  0  0  0  0  0  0  0  0  0  0  0
  141.0090   71.8730  225.3570 C   0  0  0  0  0  0  0  0  0  0  0  0
  141.0570   71.3520  226.6400 C   0  0  0  0  0  0  0  0  0  0  0  0
  140.6340   70.0460  226.7850 C   0  0  0  0  0  0  0  0  0  0  0  0
  140.6800   69.5180  228.0680 C   0  0  0  0  0  0  0  0  0  0  0  0
  140.2720   68.2190  228.2860 C   0  0  0  0  0  0  0  0  0  0  0  0
  140.3170   67.7110  229.5300 F   0  0  0  0  0  0  0  0  0  0  0  0
  139.8240   67.4760  227.1970 C   0  0  0  0  0  0  0  0  0  0  0  0
  139.7800   68.0060  225.9170 C   0  0  0  0  0  0  0  0  0  0  0  0
  140.1870   69.3010  225.7050 C   0  0  0  0  0  0  0  0  0  0  0  0
  140.1750   69.8820  224.5090 N   0  0  0  0  0  0  0  0  0  0  0  0
  138.6490   72.7920  223.1960 H   0  0  0  0  0  0  0  0  0  0  0  0
  140.1051   72.5070  220.6134 H   0  0  0  0  0  0  0  0  0  0  0  0
  138.5267   73.3745  220.9176 H   0  0  0  0  0  0  0  0  0  0  0  0
  142.8411   73.4706  220.9725 H   0  0  0  0  0  0  0  0  0  0  0  0
  142.1762   73.0064  219.3940 H   0  0  0  0  0  0  0  0  0  0  0  0
  144.4126   74.6940  219.8918 H   0  0  0  0  0  0  0  0  0  0  0  0
  143.6570   74.4318  218.3272 H   0  0  0  0  0  0  0  0  0  0  0  0
  143.1000   76.6171  220.4040 H   0  0  0  0  0  0  0  0  0  0  0  0
  143.2060   76.8285  218.6841 H   0  0  0  0  0  0  0  0  0  0  0  0
  141.0204   75.5295  218.3609 H   0  0  0  0  0  0  0  0  0  0  0  0
  139.6041   76.8979  219.0025 H   0  0  0  0  0  0  0  0  0  0  0  0
  140.2491   76.9517  220.7102 H   0  0  0  0  0  0  0  0  0  0  0  0
  141.2438   77.3275  221.7978 H   0  0  0  0  0  0  0  0  0  0  0  0
  141.8436   78.5743  223.8507 H   0  0  0  0  0  0  0  0  0  0  0  0
  142.3699   82.0684  221.4760 H   0  0  0  0  0  0  0  0  0  0  0  0
  141.7805   80.8620  219.3921 H   0  0  0  0  0  0  0  0  0  0  0  0
  141.3365   72.9101  225.1925 H   0  0  0  0  0  0  0  0  0  0  0  0
  141.4123   71.9458  227.4951 H   0  0  0  0  0  0  0  0  0  0  0  0
  141.0400   70.1326  228.9063 H   0  0  0  0  0  0  0  0  0  0  0  0
  139.4955   66.4385  227.3571 H   0  0  0  0  0  0  0  0  0  0  0  0
  139.4215   67.3937  225.0764 H   0  0  0  0  0  0  0  0  0  0  0  0
  1  2  2  0
  2  3  1  0
  3  4  1  0
  4  5  1  0
  5  6  2  0
  5  7  1  0
  7  8  1  0
  8  9  1  0
  9 10  1  0
 10 11  1  0
 11 12  1  0
 12 13  1  0
 13 14  1  0
 14 15  2  0
 15 16  1  0
 16 17  2  0
 17 18  1  0
 17 19  1  0
 19 20  2  0
  2 21  1  0
 21 22  2  0
 22 23  1  0
 23 24  2  0
 24 25  1  0
 25 26  2  0
 26 27  1  0
 26 28  1  0
 28 29  2  0
 29 30  1  0
 30 31  2  0
 11  7  1  0
 20 14  1  0
 31 21  1  0
 30 24  1  0
  3 32  1  0
  4 33  1  0
  4 34  1  0
  8 35  1  0
  8 36  1  0
  9 37  1  0
  9 38  1  0
 10 39  1  0
 10 40  1  0
 11 41  1  6
 12 42  1  0
 12 43  1  0
 15 44  1  0
 16 45  1  0
 19 46  1  0
 20 47  1  0
 22 48  1  0
 23 49  1  0
 25 50  1  0
 28 51  1  0
 29 52  1  0
M  END
>  <smiles>  (23) 
O=C(NCC(=O)N1CCC[C@@H]1COc1ccc(Cl)cc1)c1ccc2cc(F)ccc2n1

>  <score_type>  (23) 
oracle

>  <origin>  (23) 
autodockgpu

>  <m_score__min__energy>  (23) 
-8.5

>  <m_primary>  (23) 
energy

>  <rmsd>  (23) 
3.11322175277073

>  <m_score__min__rmsd>  (23) 
3.11322175277073

>  <meeko>  (23) 
{"free_energy": -8.46, "intermolecular_energy": -10.55, "internal_energy": -1.59, "cluster_size": 30, "cluster_id": 1, "rank_in_cluster": 3}

>  <energy>  (23) 
-7.47

>  <cluster_rmsd>  (23) 
1.95

>  <cluster>  (23) 
1

$$$$

     RDKit          3D

 52 55  0  0  0  0  0  0  0  0999 V2000
  137.6770   70.9620  221.5690 O   0  0  0  0  0  0  0  0  0  0  0  0
  138.3040   71.5650  222.4760 C   0  0  0  0  0  0  0  0  0  0  0  0
  138.4560   72.9860  222.2850 N   0  0  0  0  0  0  0  0  0  0  0  0
  137.8820   73.5430  221.0980 C   0  0  0  0  0  0  0  0  0  0  0  0
  138.8100   73.5820  219.9610 C   0  0  0  0  0  0  0  0  0  0  0  0
  138.4920   74.2780  218.9620 O   0  0  0  0  0  0  0  0  0  0  0  0
  140.0160   72.8340  220.0450 N   0  0  0  0  0  0  0  0  0  0  0  0
  140.1950   71.3960  219.8040 C   0  0  0  0  0  0  0  0  0  0  0  0
  141.4420   70.9980  220.5180 C   0  0  0  0  0  0  0  0  0  0  0  0
  141.8200   72.2360  221.3080 C   0  0  0  0  0  0  0  0  0  0  0  0
  141.3200   73.3230  220.3850 C   0  0  2  0  0  0  0  0  0  0  0  0
  141.3660   74.6800  220.9970 C   0  0  0  0  0  0  0  0  0  0  0  0
  140.4080   74.8670  222.0210 O   0  0  0  0  0  0  0  0  0  0  0  0
  140.0550   76.1730  222.3350 C   0  0  0  0  0  0  0  0  0  0  0  0
  141.0650   77.0740  222.6050 C   0  0  0  0  0  0  0  0  0  0  0  0
  140.8220   78.3950  222.9270 C   0  0  0  0  0  0  0  0  0  0  0  0
  139.5260   78.8090  222.9770 C   0  0  0  0  0  0  0  0  0  0  0  0
  139.1990   80.4820  223.3850 Cl  0  0  0  0  0  0  0  0  0  0  0  0
  138.5220   77.9210  222.7110 C   0  0  0  0  0  0  0  0  0  0  0  0
  138.7300   76.5950  222.3860 C   0  0  0  0  0  0  0  0  0  0  0  0
  138.8430   70.9020  223.6360 C   0  0  0  0  0  0  0  0  0  0  0  0
  138.6950   69.5300  223.7210 C   0  0  0  0  0  0  0  0  0  0  0  0
  139.1770   68.8000  224.7950 C   0  0  0  0  0  0  0  0  0  0  0  0
  139.8180   69.5190  225.7840 C   0  0  0  0  0  0  0  0  0  0  0  0
  140.3030   68.7920  226.8630 C   0  0  0  0  0  0  0  0  0  0  0  0
  140.9550   69.4460  227.8880 C   0  0  0  0  0  0  0  0  0  0  0  0
  141.4240   68.7390  228.9310 F   0  0  0  0  0  0  0  0  0  0  0  0
  141.1040   70.8270  227.8000 C   0  0  0  0  0  0  0  0  0  0  0  0
  140.6180   71.5500  226.7220 C   0  0  0  0  0  0  0  0  0  0  0  0
  139.9690   70.8940  225.7040 C   0  0  0  0  0  0  0  0  0  0  0  0
  139.4750   71.5140  224.6360 N   0  0  0  0  0  0  0  0  0  0  0  0
  138.9590   73.5740  222.9810 H   0  0  0  0  0  0  0  0  0  0  0  0
  137.0099   72.9354  220.8148 H   0  0  0  0  0  0  0  0  0  0  0  0
  137.6088   74.5833  221.3283 H   0  0  0  0  0  0  0  0  0  0  0  0
  139.3354   70.8348  220.1992 H   0  0  0  0  0  0  0  0  0  0  0  0
  140.2669   71.1794  218.7279 H   0  0  0  0  0  0  0  0  0  0  0  0
  141.2541   70.1473  221.1896 H   0  0  0  0  0  0  0  0  0  0  0  0
  142.2382   70.6724  219.8324 H   0  0  0  0  0  0  0  0  0  0  0  0
  141.3104   72.2659  222.2824 H   0  0  0  0  0  0  0  0  0  0  0  0
  142.8884   72.3075  221.5598 H   0  0  0  0  0  0  0  0  0  0  0  0
  141.9423   73.4926  219.4939 H   0  0  0  0  0  0  0  0  0  0  0  0
  142.3677   74.8363  221.4238 H   0  0  0  0  0  0  0  0  0  0  0  0
  141.1359   75.4034  220.2009 H   0  0  0  0  0  0  0  0  0  0  0  0
  142.1074   76.7254  222.5619 H   0  0  0  0  0  0  0  0  0  0  0  0
  141.6487   79.0899  223.1362 H   0  0  0  0  0  0  0  0  0  0  0  0
  137.4849   78.2845  222.7586 H   0  0  0  0  0  0  0  0  0  0  0  0
  137.8944   75.9102  222.1789 H   0  0  0  0  0  0  0  0  0  0  0  0
  138.1769   69.0001  222.9081 H   0  0  0  0  0  0  0  0  0  0  0  0
  139.0558   67.7084  224.8564 H   0  0  0  0  0  0  0  0  0  0  0  0
  140.1681   67.7009  226.9004 H   0  0  0  0  0  0  0  0  0  0  0  0
  141.6229   71.3605  228.6100 H   0  0  0  0  0  0  0  0  0  0  0  0
  140.7509   72.6412  226.6817 H   0  0  0  0  0  0  0  0  0  0  0  0
  1  2  2  0
  2  3  1  0
  3  4  1  0
  4  5  1  0
  5  6  2  0
  5  7  1  0
  7  8  1  0
  8  9  1  0
  9 10  1  0
 10 11  1  0
 11 12  1  0
 12 13  1  0
 13 14  1  0
 14 15  2  0
 15 16  1  0
 16 17  2  0
 17 18  1  0
 17 19  1  0
 19 20  2  0
  2 21  1  0
 21 22  2  0
 22 23  1  0
 23 24  2  0
 24 25  1  0
 25 26  2  0
 26 27  1  0
 26 28  1  0
 28 29  2  0
 29 30  1  0
 30 31  2  0
 11  7  1  0
 20 14  1  0
 31 21  1  0
 30 24  1  0
  3 32  1  0
  4 33  1  0
  4 34  1  0
  8 35  1  0
  8 36  1  0
  9 37  1  0
  9 38  1  0
 10 39  1  0
 10 40  1  0
 11 41  1  6
 12 42  1  0
 12 43  1  0
 15 44  1  0
 16 45  1  0
 19 46  1  0
 20 47  1  0
 22 48  1  0
 23 49  1  0
 25 50  1  0
 28 51  1  0
 29 52  1  0
M  END
>  <smiles>  (24) 
O=C(NCC(=O)N1CCC[C@@H]1COc1ccc(Cl)cc1)c1ccc2cc(F)ccc2n1

>  <score_type>  (24) 
oracle

>  <origin>  (24) 
autodockgpu

>  <m_score__min__energy>  (24) 
-8.5

>  <m_primary>  (24) 
energy

>  <rmsd>  (24) 
2.9451010372777153

>  <m_score__min__rmsd>  (24) 
2.9451010372777153

>  <meeko>  (24) 
{"free_energy": -7.3, "intermolecular_energy": -9.39, "internal_energy": -3.01, "cluster_size": 30, "cluster_id": 1, "rank_in_cluster": 27}

>  <energy>  (24) 
-7.46

>  <cluster_rmsd>  (24) 
1.62

>  <cluster>  (24) 
1

$$$$

     RDKit          3D

 52 55  0  0  0  0  0  0  0  0999 V2000
  140.2070   71.4420  221.7110 O   0  0  0  0  0  0  0  0  0  0  0  0
  139.4720   71.5520  222.7250 C   0  0  0  0  0  0  0  0  0  0  0  0
  138.4430   72.5560  222.6370 N   0  0  0  0  0  0  0  0  0  0  0  0
  138.3730   73.3070  221.4200 C   0  0  0  0  0  0  0  0  0  0  0  0
  139.3990   74.3520  221.3170 C   0  0  0  0  0  0  0  0  0  0  0  0
  140.2700   74.4150  222.2230 O   0  0  0  0  0  0  0  0  0  0  0  0
  139.3560   75.2370  220.2050 N   0  0  0  0  0  0  0  0  0  0  0  0
  140.0770   75.1090  218.9320 C   0  0  0  0  0  0  0  0  0  0  0  0
  140.1450   76.4780  218.3440 C   0  0  0  0  0  0  0  0  0  0  0  0
  139.6040   77.3730  219.4410 C   0  0  0  0  0  0  0  0  0  0  0  0
  138.5980   76.4490  220.0890 C   0  0  2  0  0  0  0  0  0  0  0  0
  138.0370   76.9880  221.3580 C   0  0  0  0  0  0  0  0  0  0  0  0
  138.9030   76.8360  222.4650 O   0  0  0  0  0  0  0  0  0  0  0  0
  139.6950   77.9230  222.8110 C   0  0  0  0  0  0  0  0  0  0  0  0
  141.0660   77.7730  222.7570 C   0  0  0  0  0  0  0  0  0  0  0  0
  141.9420   78.7910  223.0810 C   0  0  0  0  0  0  0  0  0  0  0  0
  141.4160   79.9840  223.4680 C   0  0  0  0  0  0  0  0  0  0  0  0
  142.5130   81.2870  223.8830 Cl  0  0  0  0  0  0  0  0  0  0  0  0
  140.0590   80.1390  223.5240 C   0  0  0  0  0  0  0  0  0  0  0  0
  139.1550   79.1430  223.2070 C   0  0  0  0  0  0  0  0  0  0  0  0
  139.6310   70.7400  223.9040 C   0  0  0  0  0  0  0  0  0  0  0  0
  139.1240   69.4550  223.8760 C   0  0  0  0  0  0  0  0  0  0  0  0
  139.2250   68.5950  224.9580 C   0  0  0  0  0  0  0  0  0  0  0  0
  139.8640   69.0940  226.0750 C   0  0  0  0  0  0  0  0  0  0  0  0
  139.9690   68.2370  227.1630 C   0  0  0  0  0  0  0  0  0  0  0  0
  140.5950   68.6680  228.3130 C   0  0  0  0  0  0  0  0  0  0  0  0
  140.6960   67.8370  229.3640 F   0  0  0  0  0  0  0  0  0  0  0  0
  141.1070   69.9630  228.3400 C   0  0  0  0  0  0  0  0  0  0  0  0
  141.0000   70.8160  227.2520 C   0  0  0  0  0  0  0  0  0  0  0  0
  140.3750   70.3810  226.1090 C   0  0  0  0  0  0  0  0  0  0  0  0
  140.2330   71.1370  225.0240 N   0  0  0  0  0  0  0  0  0  0  0  0
  137.7830   72.7240  223.4250 H   0  0  0  0  0  0  0  0  0  0  0  0
  138.4964   72.6134  220.5752 H   0  0  0  0  0  0  0  0  0  0  0  0
  137.3953   73.8110  221.4065 H   0  0  0  0  0  0  0  0  0  0  0  0
  141.0909   74.7199  219.1070 H   0  0  0  0  0  0  0  0  0  0  0  0
  139.5657   74.4099  218.2539 H   0  0  0  0  0  0  0  0  0  0  0  0
  141.1825   76.7463  218.0960 H   0  0  0  0  0  0  0  0  0  0  0  0
  139.5769   76.5656  217.4061 H   0  0  0  0  0  0  0  0  0  0  0  0
  140.3934   77.6710  220.1467 H   0  0  0  0  0  0  0  0  0  0  0  0
  139.1849   78.3262  219.0863 H   0  0  0  0  0  0  0  0  0  0  0  0
  137.6704   76.3034  219.5159 H   0  0  0  0  0  0  0  0  0  0  0  0
  137.8317   78.0599  221.2207 H   0  0  0  0  0  0  0  0  0  0  0  0
  137.1247   76.4144  221.5787 H   0  0  0  0  0  0  0  0  0  0  0  0
  141.4782   76.8027  222.4430 H   0  0  0  0  0  0  0  0  0  0  0  0
  143.0305   78.6414  223.0276 H   0  0  0  0  0  0  0  0  0  0  0  0
  139.6628   81.1152  223.8404 H   0  0  0  0  0  0  0  0  0  0  0  0
  138.0686   79.3055  223.2645 H   0  0  0  0  0  0  0  0  0  0  0  0
  138.6225   69.1022  222.9627 H   0  0  0  0  0  0  0  0  0  0  0  0
  138.8191   67.5731  224.9283 H   0  0  0  0  0  0  0  0  0  0  0  0
  139.5547   67.2195  227.1072 H   0  0  0  0  0  0  0  0  0  0  0  0
  141.6107   70.3194  229.2506 H   0  0  0  0  0  0  0  0  0  0  0  0
  141.4129   71.8342  227.3040 H   0  0  0  0  0  0  0  0  0  0  0  0
  1  2  2  0
  2  3  1  0
  3  4  1  0
  4  5  1  0
  5  6  2  0
  5  7  1  0
  7  8  1  0
  8  9  1  0
  9 10  1  0
 10 11  1  0
 11 12  1  0
 12 13  1  0
 13 14  1  0
 14 15  2  0
 15 16  1  0
 16 17  2  0
 17 18  1  0
 17 19  1  0
 19 20  2  0
  2 21  1  0
 21 22  2  0
 22 23  1  0
 23 24  2  0
 24 25  1  0
 25 26  2  0
 26 27  1  0
 26 28  1  0
 28 29  2  0
 29 30  1  0
 30 31  2  0
 11  7  1  0
 20 14  1  0
 31 21  1  0
 30 24  1  0
  3 32  1  0
  4 33  1  0
  4 34  1  0
  8 35  1  0
  8 36  1  0
  9 37  1  0
  9 38  1  0
 10 39  1  0
 10 40  1  0
 11 41  1  6
 12 42  1  0
 12 43  1  0
 15 44  1  0
 16 45  1  0
 19 46  1  0
 20 47  1  0
 22 48  1  0
 23 49  1  0
 25 50  1  0
 28 51  1  0
 29 52  1  0
M  END
>  <smiles>  (25) 
O=C(NCC(=O)N1CCC[C@@H]1COc1ccc(Cl)cc1)c1ccc2cc(F)ccc2n1

>  <score_type>  (25) 
oracle

>  <origin>  (25) 
autodockgpu

>  <m_score__min__energy>  (25) 
-8.5

>  <m_primary>  (25) 
energy

>  <rmsd>  (25) 
1.3810818624170262

>  <m_score__min__rmsd>  (25) 
1.3810818624170262

>  <meeko>  (25) 
{"free_energy": -8.3, "intermolecular_energy": -10.39, "internal_energy": -1.55, "cluster_size": 30, "cluster_id": 1, "rank_in_cluster": 6}

>  <energy>  (25) 
-7.39

>  <cluster_rmsd>  (25) 
1.9

>  <cluster>  (25) 
1

$$$$

     RDKit          3D

 52 55  0  0  0  0  0  0  0  0999 V2000
  138.3180   70.7120  221.6030 O   0  0  0  0  0  0  0  0  0  0  0  0
  138.7720   71.4910  222.4780 C   0  0  0  0  0  0  0  0  0  0  0  0
  138.6990   72.8940  222.1560 N   0  0  0  0  0  0  0  0  0  0  0  0
  138.1230   73.2370  220.8910 C   0  0  0  0  0  0  0  0  0  0  0  0
  138.2940   74.6510  220.5350 C   0  0  0  0  0  0  0  0  0  0  0  0
  138.3530   74.9490  219.3140 O   0  0  0  0  0  0  0  0  0  0  0  0
  138.3870   75.6080  221.5830 N   0  0  0  0  0  0  0  0  0  0  0  0
  137.3180   76.4720  222.1020 C   0  0  0  0  0  0  0  0  0  0  0  0
  137.9910   77.6240  222.7670 C   0  0  0  0  0  0  0  0  0  0  0  0
  139.4550   77.4430  222.4170 C   0  0  0  0  0  0  0  0  0  0  0  0
  139.5470   75.9360  222.3590 C   0  0  2  0  0  0  0  0  0  0  0  0
  140.8470   75.4470  221.8230 C   0  0  0  0  0  0  0  0  0  0  0  0
  140.9920   74.0420  221.8940 O   0  0  0  0  0  0  0  0  0  0  0  0
  142.0710   73.4760  221.2270 C   0  0  0  0  0  0  0  0  0  0  0  0
  142.1380   72.1000  221.1460 C   0  0  0  0  0  0  0  0  0  0  0  0
  143.1680   71.4390  220.5070 C   0  0  0  0  0  0  0  0  0  0  0  0
  144.1510   72.1890  219.9390 C   0  0  0  0  0  0  0  0  0  0  0  0
  145.4660   71.3660  219.1230 Cl  0  0  0  0  0  0  0  0  0  0  0  0
  144.0900   73.5530  220.0160 C   0  0  0  0  0  0  0  0  0  0  0  0
  143.0750   74.2450  220.6470 C   0  0  0  0  0  0  0  0  0  0  0  0
  139.3330   71.0350  223.7250 C   0  0  0  0  0  0  0  0  0  0  0  0
  140.2420   71.8570  224.3630 C   0  0  0  0  0  0  0  0  0  0  0  0
  140.8380   71.5090  225.5640 C   0  0  0  0  0  0  0  0  0  0  0  0
  140.4730   70.2890  226.0960 C   0  0  0  0  0  0  0  0  0  0  0  0
  141.0660   69.9350  227.3000 C   0  0  0  0  0  0  0  0  0  0  0  0
  140.7490   68.7290  227.8880 C   0  0  0  0  0  0  0  0  0  0  0  0
  141.3240   68.3890  229.0550 F   0  0  0  0  0  0  0  0  0  0  0  0
  139.8320   67.9010  227.2450 C   0  0  0  0  0  0  0  0  0  0  0  0
  139.2420   68.2580  226.0430 C   0  0  0  0  0  0  0  0  0  0  0  0
  139.5620   69.4600  225.4600 C   0  0  0  0  0  0  0  0  0  0  0  0
  139.0390   69.8740  224.3100 N   0  0  0  0  0  0  0  0  0  0  0  0
  139.0490   73.6180  222.8160 H   0  0  0  0  0  0  0  0  0  0  0  0
  138.5990   72.6219  220.1132 H   0  0  0  0  0  0  0  0  0  0  0  0
  137.0416   73.0502  220.9660 H   0  0  0  0  0  0  0  0  0  0  0  0
  136.6825   76.8274  221.2775 H   0  0  0  0  0  0  0  0  0  0  0  0
  136.6727   75.9271  222.8068 H   0  0  0  0  0  0  0  0  0  0  0  0
  137.6102   78.5788  222.3755 H   0  0  0  0  0  0  0  0  0  0  0  0
  137.8144   77.6494  223.8524 H   0  0  0  0  0  0  0  0  0  0  0  0
  139.6992   77.9013  221.4473 H   0  0  0  0  0  0  0  0  0  0  0  0
  140.1541   77.9155  223.1227 H   0  0  0  0  0  0  0  0  0  0  0  0
  139.5434   75.4362  223.3389 H   0  0  0  0  0  0  0  0  0  0  0  0
  140.9267   75.7528  220.7694 H   0  0  0  0  0  0  0  0  0  0  0  0
  141.6404   75.8868  222.4452 H   0  0  0  0  0  0  0  0  0  0  0  0
  141.3374   71.5051  221.6098 H   0  0  0  0  0  0  0  0  0  0  0  0
  143.1932   70.3404  220.4586 H   0  0  0  0  0  0  0  0  0  0  0  0
  144.8979   74.1339  219.5472 H   0  0  0  0  0  0  0  0  0  0  0  0
  143.0611   75.3441  220.6888 H   0  0  0  0  0  0  0  0  0  0  0  0
  140.5014   72.8211  223.9012 H   0  0  0  0  0  0  0  0  0  0  0  0
  141.5617   72.1682  226.0657 H   0  0  0  0  0  0  0  0  0  0  0  0
  141.7852   70.6132  227.7825 H   0  0  0  0  0  0  0  0  0  0  0  0
  139.5687   66.9367  227.7041 H   0  0  0  0  0  0  0  0  0  0  0  0
  138.5215   67.5827  225.5584 H   0  0  0  0  0  0  0  0  0  0  0  0
  1  2  2  0
  2  3  1  0
  3  4  1  0
  4  5  1  0
  5  6  2  0
  5  7  1  0
  7  8  1  0
  8  9  1  0
  9 10  1  0
 10 11  1  0
 11 12  1  0
 12 13  1  0
 13 14  1  0
 14 15  2  0
 15 16  1  0
 16 17  2  0
 17 18  1  0
 17 19  1  0
 19 20  2  0
  2 21  1  0
 21 22  2  0
 22 23  1  0
 23 24  2  0
 24 25  1  0
 25 26  2  0
 26 27  1  0
 26 28  1  0
 28 29  2  0
 29 30  1  0
 30 31  2  0
 11  7  1  0
 20 14  1  0
 31 21  1  0
 30 24  1  0
  3 32  1  0
  4 33  1  0
  4 34  1  0
  8 35  1  0
  8 36  1  0
  9 37  1  0
  9 38  1  0
 10 39  1  0
 10 40  1  0
 11 41  1  1
 12 42  1  0
 12 43  1  0
 15 44  1  0
 16 45  1  0
 19 46  1  0
 20 47  1  0
 22 48  1  0
 23 49  1  0
 25 50  1  0
 28 51  1  0
 29 52  1  0
M  END
>  <smiles>  (26) 
O=C(NCC(=O)N1CCC[C@@H]1COc1ccc(Cl)cc1)c1ccc2cc(F)ccc2n1

>  <score_type>  (26) 
oracle

>  <origin>  (26) 
autodockgpu

>  <m_score__min__energy>  (26) 
-8.5

>  <m_primary>  (26) 
energy

>  <rmsd>  (26) 
3.3851697458296486

>  <m_score__min__rmsd>  (26) 
3.3851697458296486

>  <meeko>  (26) 
{"free_energy": -7.36, "intermolecular_energy": -9.45, "internal_energy": -2.6, "cluster_size": 4, "cluster_id": 5, "rank_in_cluster": 3}

>  <energy>  (26) 
-7.31

>  <cluster_rmsd>  (26) 
1.93

>  <cluster>  (26) 
1

$$$$

     RDKit          3D

 52 55  0  0  0  0  0  0  0  0999 V2000
  138.7440   70.8470  221.6850 O   0  0  0  0  0  0  0  0  0  0  0  0
  139.2260   71.3290  222.7420 C   0  0  0  0  0  0  0  0  0  0  0  0
  139.5360   72.7350  222.6950 N   0  0  0  0  0  0  0  0  0  0  0  0
  139.2640   73.4170  221.4650 C   0  0  0  0  0  0  0  0  0  0  0  0
  140.1500   74.5630  221.2240 C   0  0  0  0  0  0  0  0  0  0  0  0
  141.1470   74.7080  221.9770 O   0  0  0  0  0  0  0  0  0  0  0  0
  139.8350   75.4500  220.1580 N   0  0  0  0  0  0  0  0  0  0  0  0
  140.5660   75.6240  218.8950 C   0  0  0  0  0  0  0  0  0  0  0  0
  140.2030   76.9750  218.3790 C   0  0  0  0  0  0  0  0  0  0  0  0
  139.4020   77.5930  219.5080 C   0  0  0  0  0  0  0  0  0  0  0  0
  138.7350   76.3660  220.0860 C   0  0  2  0  0  0  0  0  0  0  0  0
  138.0260   76.6320  221.3680 C   0  0  0  0  0  0  0  0  0  0  0  0
  138.8640   76.5380  222.5040 O   0  0  0  0  0  0  0  0  0  0  0  0
  139.7100   77.6070  222.7640 C   0  0  0  0  0  0  0  0  0  0  0  0
  139.1440   78.8150  223.1170 C   0  0  0  0  0  0  0  0  0  0  0  0
  139.8960   79.9390  223.3950 C   0  0  0  0  0  0  0  0  0  0  0  0
  141.2510   79.8360  223.3130 C   0  0  0  0  0  0  0  0  0  0  0  0
  142.2210   81.2530  223.6630 Cl  0  0  0  0  0  0  0  0  0  0  0  0
  141.8170   78.6420  222.9640 C   0  0  0  0  0  0  0  0  0  0  0  0
  141.0950   77.4990  222.6790 C   0  0  0  0  0  0  0  0  0  0  0  0
  139.4590   70.5470  223.9290 C   0  0  0  0  0  0  0  0  0  0  0  0
  139.0310   69.2330  223.9310 C   0  0  0  0  0  0  0  0  0  0  0  0
  139.2080   68.3990  225.0230 C   0  0  0  0  0  0  0  0  0  0  0  0
  139.8390   68.9530  226.1180 C   0  0  0  0  0  0  0  0  0  0  0  0
  140.0190   68.1220  227.2160 C   0  0  0  0  0  0  0  0  0  0  0  0
  140.6420   68.6090  228.3450 C   0  0  0  0  0  0  0  0  0  0  0  0
  140.8160   67.8020  229.4060 F   0  0  0  0  0  0  0  0  0  0  0  0
  141.0740   69.9330  228.3420 C   0  0  0  0  0  0  0  0  0  0  0  0
  140.8920   70.7600  227.2450 C   0  0  0  0  0  0  0  0  0  0  0  0
  140.2700   70.2700  226.1220 C   0  0  0  0  0  0  0  0  0  0  0  0
  140.0590   70.9980  225.0300 N   0  0  0  0  0  0  0  0  0  0  0  0
  139.9390   73.2270  223.5190 H   0  0  0  0  0  0  0  0  0  0  0  0
  139.3845   72.7032  220.6368 H   0  0  0  0  0  0  0  0  0  0  0  0
  138.2382   73.8086  221.5314 H   0  0  0  0  0  0  0  0  0  0  0  0
  141.6500   75.5633  219.0717 H   0  0  0  0  0  0  0  0  0  0  0  0
  140.3035   74.8379  218.1717 H   0  0  0  0  0  0  0  0  0  0  0  0
  141.1047   77.5687  218.1681 H   0  0  0  0  0  0  0  0  0  0  0  0
  139.6411   76.9316  217.4343 H   0  0  0  0  0  0  0  0  0  0  0  0
  140.0539   78.0846  220.2451 H   0  0  0  0  0  0  0  0  0  0  0  0
  138.7058   78.3842  219.1928 H   0  0  0  0  0  0  0  0  0  0  0  0
  137.9037   75.9673  219.4859 H   0  0  0  0  0  0  0  0  0  0  0  0
  137.6043   77.6472  221.3290 H   0  0  0  0  0  0  0  0  0  0  0  0
  137.2477   75.8620  221.4742 H   0  0  0  0  0  0  0  0  0  0  0  0
  138.0480   78.8853  223.1795 H   0  0  0  0  0  0  0  0  0  0  0  0
  139.4153   80.8882  223.6741 H   0  0  0  0  0  0  0  0  0  0  0  0
  142.9142   78.5877  222.9065 H   0  0  0  0  0  0  0  0  0  0  0  0
  141.5876   76.5558  222.4003 H   0  0  0  0  0  0  0  0  0  0  0  0
  138.5326   68.8355  223.0346 H   0  0  0  0  0  0  0  0  0  0  0  0
  138.8648   67.3539  225.0175 H   0  0  0  0  0  0  0  0  0  0  0  0
  139.6662   67.0806  227.1849 H   0  0  0  0  0  0  0  0  0  0  0  0
  141.5740   70.3338  229.2360 H   0  0  0  0  0  0  0  0  0  0  0  0
  141.2432   71.8020  227.2731 H   0  0  0  0  0  0  0  0  0  0  0  0
  1  2  2  0
  2  3  1  0
  3  4  1  0
  4  5  1  0
  5  6  2  0
  5  7  1  0
  7  8  1  0
  8  9  1  0
  9 10  1  0
 10 11  1  0
 11 12  1  0
 12 13  1  0
 13 14  1  0
 14 15  2  0
 15 16  1  0
 16 17  2  0
 17 18  1  0
 17 19  1  0
 19 20  2  0
  2 21  1  0
 21 22  2  0
 22 23  1  0
 23 24  2  0
 24 25  1  0
 25 26  2  0
 26 27  1  0
 26 28  1  0
 28 29  2  0
 29 30  1  0
 30 31  2  0
 11  7  1  0
 20 14  1  0
 31 21  1  0
 30 24  1  0
  3 32  1  0
  4 33  1  0
  4 34  1  0
  8 35  1  0
  8 36  1  0
  9 37  1  0
  9 38  1  0
 10 39  1  0
 10 40  1  0
 11 41  1  6
 12 42  1  0
 12 43  1  0
 15 44  1  0
 16 45  1  0
 19 46  1  0
 20 47  1  0
 22 48  1  0
 23 49  1  0
 25 50  1  0
 28 51  1  0
 29 52  1  0
M  END
>  <smiles>  (27) 
O=C(NCC(=O)N1CCC[C@@H]1COc1ccc(Cl)cc1)c1ccc2cc(F)ccc2n1

>  <score_type>  (27) 
oracle

>  <origin>  (27) 
autodockgpu

>  <m_score__min__energy>  (27) 
-8.5

>  <m_primary>  (27) 
energy

>  <rmsd>  (27) 
1.5259467605705834

>  <m_score__min__rmsd>  (27) 
1.5259467605705834

>  <meeko>  (27) 
{"free_energy": -7.99, "intermolecular_energy": -10.08, "internal_energy": -1.99, "cluster_size": 30, "cluster_id": 1, "rank_in_cluster": 14}

>  <energy>  (27) 
-7.3

>  <cluster_rmsd>  (27) 
1.89

>  <cluster>  (27) 
1

$$$$

     RDKit          3D

 52 55  0  0  0  0  0  0  0  0999 V2000
  140.9140   71.9880  221.3250 O   0  0  0  0  0  0  0  0  0  0  0  0
  140.2170   72.3360  222.3110 C   0  0  0  0  0  0  0  0  0  0  0  0
  139.5170   73.5870  222.1620 N   0  0  0  0  0  0  0  0  0  0  0  0
  139.6920   74.2830  220.9230 C   0  0  0  0  0  0  0  0  0  0  0  0
  140.8830   75.1420  220.8970 C   0  0  0  0  0  0  0  0  0  0  0  0
  141.8730   74.7980  221.5920 O   0  0  0  0  0  0  0  0  0  0  0  0
  140.8560   76.3140  220.0930 N   0  0  0  0  0  0  0  0  0  0  0  0
  141.9120   76.8100  219.2000 C   0  0  0  0  0  0  0  0  0  0  0  0
  141.6630   78.2690  219.0200 C   0  0  0  0  0  0  0  0  0  0  0  0
  140.5490   78.5730  220.0030 C   0  0  0  0  0  0  0  0  0  0  0  0
  139.7900   77.2660  219.9820 C   0  0  2  0  0  0  0  0  0  0  0  0
  138.7340   77.1840  221.0280 C   0  0  0  0  0  0  0  0  0  0  0  0
  139.2490   77.0760  222.3400 O   0  0  0  0  0  0  0  0  0  0  0  0
  140.0830   78.0930  222.7860 C   0  0  0  0  0  0  0  0  0  0  0  0
  139.5360   79.3450  222.9830 C   0  0  0  0  0  0  0  0  0  0  0  0
  140.2780   80.4230  223.4230 C   0  0  0  0  0  0  0  0  0  0  0  0
  141.6020   80.2270  223.6670 C   0  0  0  0  0  0  0  0  0  0  0  0
  142.5590   81.5860  224.2260 Cl  0  0  0  0  0  0  0  0  0  0  0  0
  142.1490   78.9900  223.4730 C   0  0  0  0  0  0  0  0  0  0  0  0
  141.4370   77.8910  223.0340 C   0  0  0  0  0  0  0  0  0  0  0  0
  140.1110   71.5550  223.5160 C   0  0  0  0  0  0  0  0  0  0  0  0
  139.4340   70.3520  223.4480 C   0  0  0  0  0  0  0  0  0  0  0  0
  139.2770   69.5280  224.5500 C   0  0  0  0  0  0  0  0  0  0  0  0
  139.8360   69.9740  225.7310 C   0  0  0  0  0  0  0  0  0  0  0  0
  139.6820   69.1530  226.8400 C   0  0  0  0  0  0  0  0  0  0  0  0
  140.2150   69.5360  228.0520 C   0  0  0  0  0  0  0  0  0  0  0  0
  140.0650   68.7380  229.1240 F   0  0  0  0  0  0  0  0  0  0  0  0
  140.8980   70.7480  228.1200 C   0  0  0  0  0  0  0  0  0  0  0  0
  141.0490   71.5660  227.0110 C   0  0  0  0  0  0  0  0  0  0  0  0
  140.5160   71.1800  225.8050 C   0  0  0  0  0  0  0  0  0  0  0  0
  140.6190   71.9070  224.6960 N   0  0  0  0  0  0  0  0  0  0  0  0
  138.9140   73.9620  222.9230 H   0  0  0  0  0  0  0  0  0  0  0  0
  139.7804   73.5407  220.1161 H   0  0  0  0  0  0  0  0  0  0  0  0
  138.8177   74.9379  220.7934 H   0  0  0  0  0  0  0  0  0  0  0  0
  142.9009   76.6463  219.6531 H   0  0  0  0  0  0  0  0  0  0  0  0
  141.8978   76.2819  218.2352 H   0  0  0  0  0  0  0  0  0  0  0  0
  142.5648   78.8522  219.2579 H   0  0  0  0  0  0  0  0  0  0  0  0
  141.3979   78.5295  217.9847 H   0  0  0  0  0  0  0  0  0  0  0  0
  140.9431   78.7964  221.0054 H   0  0  0  0  0  0  0  0  0  0  0  0
  139.9441   79.4556  219.7479 H   0  0  0  0  0  0  0  0  0  0  0  0
  139.1812   77.1009  219.0808 H   0  0  0  0  0  0  0  0  0  0  0  0
  138.1151   78.0915  220.9702 H   0  0  0  0  0  0  0  0  0  0  0  0
  138.1532   76.2707  220.8315 H   0  0  0  0  0  0  0  0  0  0  0  0
  138.4644   79.4898  222.7810 H   0  0  0  0  0  0  0  0  0  0  0  0
  139.8134   81.4090  223.5716 H   0  0  0  0  0  0  0  0  0  0  0  0
  143.2219   78.8616  223.6790 H   0  0  0  0  0  0  0  0  0  0  0  0
  141.9139   76.9105  222.8885 H   0  0  0  0  0  0  0  0  0  0  0  0
  139.0049   70.0381  222.4850 H   0  0  0  0  0  0  0  0  0  0  0  0
  138.7371   68.5716  224.4878 H   0  0  0  0  0  0  0  0  0  0  0  0
  139.1373   68.2014  226.7518 H   0  0  0  0  0  0  0  0  0  0  0  0
  141.3297   71.0650  229.0808 H   0  0  0  0  0  0  0  0  0  0  0  0
  141.5924   72.5186  227.0961 H   0  0  0  0  0  0  0  0  0  0  0  0
  1  2  2  0
  2  3  1  0
  3  4  1  0
  4  5  1  0
  5  6  2  0
  5  7  1  0
  7  8  1  0
  8  9  1  0
  9 10  1  0
 10 11  1  0
 11 12  1  0
 12 13  1  0
 13 14  1  0
 14 15  2  0
 15 16  1  0
 16 17  2  0
 17 18  1  0
 17 19  1  0
 19 20  2  0
  2 21  1  0
 21 22  2  0
 22 23  1  0
 23 24  2  0
 24 25  1  0
 25 26  2  0
 26 27  1  0
 26 28  1  0
 28 29  2  0
 29 30  1  0
 30 31  2  0
 11  7  1  0
 20 14  1  0
 31 21  1  0
 30 24  1  0
  3 32  1  0
  4 33  1  0
  4 34  1  0
  8 35  1  0
  8 36  1  0
  9 37  1  0
  9 38  1  0
 10 39  1  0
 10 40  1  0
 11 41  1  6
 12 42  1  0
 12 43  1  0
 15 44  1  0
 16 45  1  0
 19 46  1  0
 20 47  1  0
 22 48  1  0
 23 49  1  0
 25 50  1  0
 28 51  1  0
 29 52  1  0
M  END
>  <smiles>  (28) 
O=C(NCC(=O)N1CCC[C@@H]1COc1ccc(Cl)cc1)c1ccc2cc(F)ccc2n1

>  <score_type>  (28) 
oracle

>  <origin>  (28) 
autodockgpu

>  <m_score__min__energy>  (28) 
-8.5

>  <m_primary>  (28) 
energy

>  <rmsd>  (28) 
2.022305143160936

>  <m_score__min__rmsd>  (28) 
2.022305143160936

>  <meeko>  (28) 
{"free_energy": -8.45, "intermolecular_energy": -10.54, "internal_energy": -1.47, "cluster_size": 30, "cluster_id": 1, "rank_in_cluster": 4}

>  <energy>  (28) 
-7.29

>  <cluster_rmsd>  (28) 
1.88

>  <cluster>  (28) 
1

$$$$

     RDKit          3D

 52 55  0  0  0  0  0  0  0  0999 V2000
  136.6140   75.6070  221.4690 O   0  0  0  0  0  0  0  0  0  0  0  0
  137.7210   75.3490  222.0060 C   0  0  0  0  0  0  0  0  0  0  0  0
  137.9440   73.9620  222.3260 N   0  0  0  0  0  0  0  0  0  0  0  0
  136.8940   73.0450  222.0010 C   0  0  0  0  0  0  0  0  0  0  0  0
  136.9540   71.7910  222.7630 C   0  0  0  0  0  0  0  0  0  0  0  0
  136.4610   71.7800  223.9200 O   0  0  0  0  0  0  0  0  0  0  0  0
  137.5640   70.6590  222.1570 N   0  0  0  0  0  0  0  0  0  0  0  0
  136.9110   69.4190  221.7190 C   0  0  0  0  0  0  0  0  0  0  0  0
  137.9750   68.3750  221.6690 C   0  0  0  0  0  0  0  0  0  0  0  0
  139.1830   69.0560  222.2820 C   0  0  0  0  0  0  0  0  0  0  0  0
  138.9530   70.4850  221.8460 C   0  0  2  0  0  0  0  0  0  0  0  0
  139.8890   71.4510  222.4830 C   0  0  0  0  0  0  0  0  0  0  0  0
  139.4650   71.8840  223.7610 O   0  0  0  0  0  0  0  0  0  0  0  0
  139.7460   71.0590  224.8420 C   0  0  0  0  0  0  0  0  0  0  0  0
  140.9140   71.2780  225.5430 C   0  0  0  0  0  0  0  0  0  0  0  0
  141.2870   70.5140  226.6320 C   0  0  0  0  0  0  0  0  0  0  0  0
  140.4570   69.5070  227.0160 C   0  0  0  0  0  0  0  0  0  0  0  0
  140.9140   68.5270  228.3960 Cl  0  0  0  0  0  0  0  0  0  0  0  0
  139.2980   69.2850  226.3250 C   0  0  0  0  0  0  0  0  0  0  0  0
  138.8960   70.0290  225.2340 C   0  0  0  0  0  0  0  0  0  0  0  0
  138.7120   76.3550  222.2910 C   0  0  0  0  0  0  0  0  0  0  0  0
  140.0370   76.0380  222.0610 C   0  0  0  0  0  0  0  0  0  0  0  0
  141.0650   76.9360  222.3030 C   0  0  0  0  0  0  0  0  0  0  0  0
  140.6930   78.1730  222.7900 C   0  0  0  0  0  0  0  0  0  0  0  0
  141.7180   79.0760  223.0350 C   0  0  0  0  0  0  0  0  0  0  0  0
  141.4200   80.3310  223.5220 C   0  0  0  0  0  0  0  0  0  0  0  0
  142.4150   81.2040  223.7570 F   0  0  0  0  0  0  0  0  0  0  0  0
  140.0840   80.6500  223.7520 C   0  0  0  0  0  0  0  0  0  0  0  0
  139.0630   79.7450  223.5080 C   0  0  0  0  0  0  0  0  0  0  0  0
  139.3650   78.4960  223.0220 C   0  0  0  0  0  0  0  0  0  0  0  0
  138.4450   77.5720  222.7610 N   0  0  0  0  0  0  0  0  0  0  0  0
  138.8300   73.6460  222.7730 H   0  0  0  0  0  0  0  0  0  0  0  0
  135.9298   73.5323  222.2081 H   0  0  0  0  0  0  0  0  0  0  0  0
  137.0102   72.7838  220.9388 H   0  0  0  0  0  0  0  0  0  0  0  0
  136.1273   69.1290  222.4344 H   0  0  0  0  0  0  0  0  0  0  0  0
  136.4326   69.5468  220.7367 H   0  0  0  0  0  0  0  0  0  0  0  0
  137.6841   67.4913  222.2559 H   0  0  0  0  0  0  0  0  0  0  0  0
  138.1653   68.0117  220.6483 H   0  0  0  0  0  0  0  0  0  0  0  0
  139.1877   68.9628  223.3780 H   0  0  0  0  0  0  0  0  0  0  0  0
  140.1504   68.6347  221.9710 H   0  0  0  0  0  0  0  0  0  0  0  0
  139.1662   70.6838  220.7853 H   0  0  0  0  0  0  0  0  0  0  0  0
  140.8717   70.9677  222.5868 H   0  0  0  0  0  0  0  0  0  0  0  0
  139.9292   72.3395  221.8357 H   0  0  0  0  0  0  0  0  0  0  0  0
  141.5761   72.0953  225.2213 H   0  0  0  0  0  0  0  0  0  0  0  0
  142.2248   70.7136  227.1711 H   0  0  0  0  0  0  0  0  0  0  0  0
  138.6466   68.4638  226.6588 H   0  0  0  0  0  0  0  0  0  0  0  0
  137.9554   69.8193  224.7035 H   0  0  0  0  0  0  0  0  0  0  0  0
  140.2846   75.0391  221.6727 H   0  0  0  0  0  0  0  0  0  0  0  0
  142.1179   76.6774  222.1174 H   0  0  0  0  0  0  0  0  0  0  0  0
  142.7629   78.7919  222.8416 H   0  0  0  0  0  0  0  0  0  0  0  0
  139.8319   81.6486  224.1383 H   0  0  0  0  0  0  0  0  0  0  0  0
  138.0172   80.0251  223.7023 H   0  0  0  0  0  0  0  0  0  0  0  0
  1  2  2  0
  2  3  1  0
  3  4  1  0
  4  5  1  0
  5  6  2  0
  5  7  1  0
  7  8  1  0
  8  9  1  0
  9 10  1  0
 10 11  1  0
 11 12  1  0
 12 13  1  0
 13 14  1  0
 14 15  2  0
 15 16  1  0
 16 17  2  0
 17 18  1  0
 17 19  1  0
 19 20  2  0
  2 21  1  0
 21 22  2  0
 22 23  1  0
 23 24  2  0
 24 25  1  0
 25 26  2  0
 26 27  1  0
 26 28  1  0
 28 29  2  0
 29 30  1  0
 30 31  2  0
 11  7  1  0
 20 14  1  0
 31 21  1  0
 30 24  1  0
  3 32  1  0
  4 33  1  0
  4 34  1  0
  8 35  1  0
  8 36  1  0
  9 37  1  0
  9 38  1  0
 10 39  1  0
 10 40  1  0
 11 41  1  6
 12 42  1  0
 12 43  1  0
 15 44  1  0
 16 45  1  0
 19 46  1  0
 20 47  1  0
 22 48  1  0
 23 49  1  0
 25 50  1  0
 28 51  1  0
 29 52  1  0
M  END
>  <smiles>  (29) 
O=C(NCC(=O)N1CCC[C@@H]1COc1ccc(Cl)cc1)c1ccc2cc(F)ccc2n1

>  <score_type>  (29) 
oracle

>  <origin>  (29) 
autodockgpu

>  <m_score__min__energy>  (29) 
-8.5

>  <m_primary>  (29) 
energy

>  <rmsd>  (29) 
8.076598159087165

>  <m_score__min__rmsd>  (29) 
8.076598159087165

>  <meeko>  (29) 
{"free_energy": -7.27, "intermolecular_energy": -9.36, "internal_energy": -2.27, "cluster_size": 3, "cluster_id": 4, "rank_in_cluster": 2}

>  <energy>  (29) 
-7.09

>  <cluster_rmsd>  (29) 
1.84

>  <cluster>  (29) 
1

$$$$

     RDKit          3D

 52 55  0  0  0  0  0  0  0  0999 V2000
  138.7260   71.3730  221.3290 O   0  0  0  0  0  0  0  0  0  0  0  0
  139.2180   71.8640  222.3770 C   0  0  0  0  0  0  0  0  0  0  0  0
  139.5090   73.2740  222.3220 N   0  0  0  0  0  0  0  0  0  0  0  0
  139.2090   73.9490  221.0960 C   0  0  0  0  0  0  0  0  0  0  0  0
  139.9670   73.4380  219.9460 C   0  0  0  0  0  0  0  0  0  0  0  0
  139.3240   72.9050  219.0060 O   0  0  0  0  0  0  0  0  0  0  0  0
  141.3820   73.5710  219.9540 N   0  0  0  0  0  0  0  0  0  0  0  0
  142.3620   72.6570  220.5560 C   0  0  0  0  0  0  0  0  0  0  0  0
  143.6010   73.4540  220.7820 C   0  0  0  0  0  0  0  0  0  0  0  0
  143.1850   74.8750  220.4570 C   0  0  0  0  0  0  0  0  0  0  0  0
  142.1590   74.6280  219.3760 C   0  0  2  0  0  0  0  0  0  0  0  0
  141.4050   75.8530  218.9910 C   0  0  0  0  0  0  0  0  0  0  0  0
  140.5350   76.3190  220.0040 O   0  0  0  0  0  0  0  0  0  0  0  0
  140.9960   77.3410  220.8230 C   0  0  0  0  0  0  0  0  0  0  0  0
  140.9780   77.1400  222.1890 C   0  0  0  0  0  0  0  0  0  0  0  0
  141.4140   78.0930  223.0890 C   0  0  0  0  0  0  0  0  0  0  0  0
  141.8770   79.2720  222.5930 C   0  0  0  0  0  0  0  0  0  0  0  0
  142.4340   80.4920  223.7230 Cl  0  0  0  0  0  0  0  0  0  0  0  0
  141.8970   79.4760  221.2420 C   0  0  0  0  0  0  0  0  0  0  0  0
  141.4690   78.5460  220.3150 C   0  0  0  0  0  0  0  0  0  0  0  0
  139.4800   71.0880  223.5620 C   0  0  0  0  0  0  0  0  0  0  0  0
  139.1220   69.7530  223.5520 C   0  0  0  0  0  0  0  0  0  0  0  0
  139.3310   68.9230  224.6410 C   0  0  0  0  0  0  0  0  0  0  0  0
  139.9210   69.5020  225.7460 C   0  0  0  0  0  0  0  0  0  0  0  0
  140.1330   68.6750  226.8410 C   0  0  0  0  0  0  0  0  0  0  0  0
  140.7180   69.1870  227.9790 C   0  0  0  0  0  0  0  0  0  0  0  0
  140.9230   68.3840  229.0380 F   0  0  0  0  0  0  0  0  0  0  0  0
  141.0790   70.5320  227.9890 C   0  0  0  0  0  0  0  0  0  0  0  0
  140.8650   71.3550  226.8940 C   0  0  0  0  0  0  0  0  0  0  0  0
  140.2820   70.8400  225.7620 C   0  0  0  0  0  0  0  0  0  0  0  0
  140.0440   71.5630  224.6720 N   0  0  0  0  0  0  0  0  0  0  0  0
  139.9180   73.7730  223.1390 H   0  0  0  0  0  0  0  0  0  0  0  0
  138.1357   73.8300  220.8864 H   0  0  0  0  0  0  0  0  0  0  0  0
  139.4933   75.0033  221.2287 H   0  0  0  0  0  0  0  0  0  0  0  0
  141.9812   72.2674  221.5116 H   0  0  0  0  0  0  0  0  0  0  0  0
  142.5573   71.7954  219.9006 H   0  0  0  0  0  0  0  0  0  0  0  0
  143.9332   73.3729  221.8275 H   0  0  0  0  0  0  0  0  0  0  0  0
  144.4456   73.1083  220.1678 H   0  0  0  0  0  0  0  0  0  0  0  0
  142.7413   75.3767  221.3296 H   0  0  0  0  0  0  0  0  0  0  0  0
  144.0125   75.5352  220.1579 H   0  0  0  0  0  0  0  0  0  0  0  0
  142.5783   74.3454  218.3991 H   0  0  0  0  0  0  0  0  0  0  0  0
  142.1280   76.6489  218.7591 H   0  0  0  0  0  0  0  0  0  0  0  0
  140.7819   75.5913  218.1231 H   0  0  0  0  0  0  0  0  0  0  0  0
  140.6011   76.1819  222.5763 H   0  0  0  0  0  0  0  0  0  0  0  0
  141.3876   77.9044  224.1724 H   0  0  0  0  0  0  0  0  0  0  0  0
  142.2769   80.4391  220.8703 H   0  0  0  0  0  0  0  0  0  0  0  0
  141.5005   78.7474  219.2341 H   0  0  0  0  0  0  0  0  0  0  0  0
  138.6549   69.3353  222.6479 H   0  0  0  0  0  0  0  0  0  0  0  0
  139.0428   67.8615  224.6259 H   0  0  0  0  0  0  0  0  0  0  0  0
  139.8356   67.6168  226.8004 H   0  0  0  0  0  0  0  0  0  0  0  0
  141.5470   70.9532  228.8910 H   0  0  0  0  0  0  0  0  0  0  0  0
  141.1603   72.4140  226.9316 H   0  0  0  0  0  0  0  0  0  0  0  0
  1  2  2  0
  2  3  1  0
  3  4  1  0
  4  5  1  0
  5  6  2  0
  5  7  1  0
  7  8  1  0
  8  9  1  0
  9 10  1  0
 10 11  1  0
 11 12  1  0
 12 13  1  0
 13 14  1  0
 14 15  2  0
 15 16  1  0
 16 17  2  0
 17 18  1  0
 17 19  1  0
 19 20  2  0
  2 21  1  0
 21 22  2  0
 22 23  1  0
 23 24  2  0
 24 25  1  0
 25 26  2  0
 26 27  1  0
 26 28  1  0
 28 29  2  0
 29 30  1  0
 30 31  2  0
 11  7  1  0
 20 14  1  0
 31 21  1  0
 30 24  1  0
  3 32  1  0
  4 33  1  0
  4 34  1  0
  8 35  1  0
  8 36  1  0
  9 37  1  0
  9 38  1  0
 10 39  1  0
 10 40  1  0
 11 41  1  6
 12 42  1  0
 12 43  1  0
 15 44  1  0
 16 45  1  0
 19 46  1  0
 20 47  1  0
 22 48  1  0
 23 49  1  0
 25 50  1  0
 28 51  1  0
 29 52  1  0
M  END
>  <smiles>  (30) 
O=C(NCC(=O)N1CCC[C@@H]1COc1ccc(Cl)cc1)c1ccc2cc(F)ccc2n1

>  <score_type>  (30) 
oracle

>  <origin>  (30) 
autodockgpu

>  <m_score__min__energy>  (30) 
-8.5

>  <m_primary>  (30) 
energy

>  <rmsd>  (30) 
2.6132758876253557

>  <m_score__min__rmsd>  (30) 
2.6132758876253557

>  <meeko>  (30) 
{"free_energy": -7.64, "intermolecular_energy": -9.73, "internal_energy": -1.94, "cluster_size": 30, "cluster_id": 1, "rank_in_cluster": 19}

>  <energy>  (30) 
-7.06

>  <cluster_rmsd>  (30) 
1.97

>  <cluster>  (30) 
1

$$$$

     RDKit          3D

 52 55  0  0  0  0  0  0  0  0999 V2000
  140.6910   73.5700  222.3480 O   0  0  0  0  0  0  0  0  0  0  0  0
  140.0740   72.4760  222.3710 C   0  0  0  0  0  0  0  0  0  0  0  0
  139.3300   72.1590  221.1780 N   0  0  0  0  0  0  0  0  0  0  0  0
  139.3780   73.1150  220.1130 C   0  0  0  0  0  0  0  0  0  0  0  0
  140.3970   72.8140  219.1000 C   0  0  0  0  0  0  0  0  0  0  0  0
  140.0100   72.3780  217.9860 O   0  0  0  0  0  0  0  0  0  0  0  0
  141.7640   73.0270  219.4290 N   0  0  0  0  0  0  0  0  0  0  0  0
  142.7210   72.0430  219.9520 C   0  0  0  0  0  0  0  0  0  0  0  0
  143.7990   72.8200  220.6280 C   0  0  0  0  0  0  0  0  0  0  0  0
  143.2850   74.2460  220.6150 C   0  0  0  0  0  0  0  0  0  0  0  0
  142.5020   74.2510  219.3220 C   0  0  2  0  0  0  0  0  0  0  0  0
  141.6900   75.4850  219.1320 C   0  0  0  0  0  0  0  0  0  0  0  0
  140.8690   75.7940  220.2410 O   0  0  0  0  0  0  0  0  0  0  0  0
  141.1610   76.9520  220.9490 C   0  0  0  0  0  0  0  0  0  0  0  0
  141.0230   76.9270  222.3230 C   0  0  0  0  0  0  0  0  0  0  0  0
  141.2880   78.0230  223.1200 C   0  0  0  0  0  0  0  0  0  0  0  0
  141.6990   79.1680  222.5100 C   0  0  0  0  0  0  0  0  0  0  0  0
  142.0380   80.5700  223.5070 Cl  0  0  0  0  0  0  0  0  0  0  0  0
  141.8360   79.1990  221.1510 C   0  0  0  0  0  0  0  0  0  0  0  0
  141.5810   78.1220  220.3250 C   0  0  0  0  0  0  0  0  0  0  0  0
  140.0950   71.5840  223.5020 C   0  0  0  0  0  0  0  0  0  0  0  0
  139.5820   70.3120  223.3300 C   0  0  0  0  0  0  0  0  0  0  0  0
  139.5560   69.3800  224.3560 C   0  0  0  0  0  0  0  0  0  0  0  0
  140.0730   69.7920  225.5680 C   0  0  0  0  0  0  0  0  0  0  0  0
  140.0500   68.8620  226.5990 C   0  0  0  0  0  0  0  0  0  0  0  0
  140.5490   69.2050  227.8370 C   0  0  0  0  0  0  0  0  0  0  0  0
  140.5260   68.3030  228.8340 F   0  0  0  0  0  0  0  0  0  0  0  0
  141.0660   70.4870  228.0100 C   0  0  0  0  0  0  0  0  0  0  0  0
  141.0870   71.4120  226.9780 C   0  0  0  0  0  0  0  0  0  0  0  0
  140.5880   71.0660  225.7460 C   0  0  0  0  0  0  0  0  0  0  0  0
  140.5730   71.8950  224.7060 N   0  0  0  0  0  0  0  0  0  0  0  0
  138.7860   71.2750  221.0990 H   0  0  0  0  0  0  0  0  0  0  0  0
  138.3944   73.1376  219.6211 H   0  0  0  0  0  0  0  0  0  0  0  0
  139.6437   74.0841  220.5605 H   0  0  0  0  0  0  0  0  0  0  0  0
  142.2248   71.3756  220.6720 H   0  0  0  0  0  0  0  0  0  0  0  0
  143.1283   71.4160  219.1452 H   0  0  0  0  0  0  0  0  0  0  0  0
  143.9477   72.4672  221.6592 H   0  0  0  0  0  0  0  0  0  0  0  0
  144.7734   72.7162  220.1282 H   0  0  0  0  0  0  0  0  0  0  0  0
  142.6385   74.4516  221.4809 H   0  0  0  0  0  0  0  0  0  0  0  0
  144.0698   75.0144  220.6760 H   0  0  0  0  0  0  0  0  0  0  0  0
  143.1175   74.2836  218.4109 H   0  0  0  0  0  0  0  0  0  0  0  0
  142.3739   76.3290  218.9587 H   0  0  0  0  0  0  0  0  0  0  0  0
  141.0239   75.3063  218.2750 H   0  0  0  0  0  0  0  0  0  0  0  0
  140.6881   75.9953  222.8023 H   0  0  0  0  0  0  0  0  0  0  0  0
  141.1707   77.9723  224.2125 H   0  0  0  0  0  0  0  0  0  0  0  0
  142.1696   80.1387  220.6866 H   0  0  0  0  0  0  0  0  0  0  0  0
  141.7033   78.1859  219.2337 H   0  0  0  0  0  0  0  0  0  0  0  0
  139.1807   70.0296  222.3455 H   0  0  0  0  0  0  0  0  0  0  0  0
  139.1465   68.3692  224.2125 H   0  0  0  0  0  0  0  0  0  0  0  0
  139.6359   67.8573  226.4285 H   0  0  0  0  0  0  0  0  0  0  0  0
  141.4687   70.7731  228.9928 H   0  0  0  0  0  0  0  0  0  0  0  0
  141.5009   72.4174  227.1447 H   0  0  0  0  0  0  0  0  0  0  0  0
  1  2  2  0
  2  3  1  0
  3  4  1  0
  4  5  1  0
  5  6  2  0
  5  7  1  0
  7  8  1  0
  8  9  1  0
  9 10  1  0
 10 11  1  0
 11 12  1  0
 12 13  1  0
 13 14  1  0
 14 15  2  0
 15 16  1  0
 16 17  2  0
 17 18  1  0
 17 19  1  0
 19 20  2  0
  2 21  1  0
 21 22  2  0
 22 23  1  0
 23 24  2  0
 24 25  1  0
 25 26  2  0
 26 27  1  0
 26 28  1  0
 28 29  2  0
 29 30  1  0
 30 31  2  0
 11  7  1  0
 20 14  1  0
 31 21  1  0
 30 24  1  0
  3 32  1  0
  4 33  1  0
  4 34  1  0
  8 35  1  0
  8 36  1  0
  9 37  1  0
  9 38  1  0
 10 39  1  0
 10 40  1  0
 11 41  1  6
 12 42  1  0
 12 43  1  0
 15 44  1  0
 16 45  1  0
 19 46  1  0
 20 47  1  0
 22 48  1  0
 23 49  1  0
 25 50  1  0
 28 51  1  0
 29 52  1  0
M  END
>  <smiles>  (31) 
O=C(NCC(=O)N1CCC[C@@H]1COc1ccc(Cl)cc1)c1ccc2cc(F)ccc2n1

>  <score_type>  (31) 
oracle

>  <origin>  (31) 
autodockgpu

>  <m_score__min__energy>  (31) 
-8.5

>  <m_primary>  (31) 
energy

>  <rmsd>  (31) 
3.0171102774499694

>  <m_score__min__rmsd>  (31) 
3.0171102774499694

>  <meeko>  (31) 
{"free_energy": -7.82, "intermolecular_energy": -9.91, "internal_energy": -2.02, "cluster_size": 30, "cluster_id": 1, "rank_in_cluster": 16}

>  <energy>  (31) 
-8.05

>  <cluster_rmsd>  (31) 
0.0

>  <cluster>  (31) 
2

$$$$

     RDKit          3D

 52 55  0  0  0  0  0  0  0  0999 V2000
  141.2070   72.1380  221.6490 O   0  0  0  0  0  0  0  0  0  0  0  0
  140.3470   72.3320  222.5450 C   0  0  0  0  0  0  0  0  0  0  0  0
  139.4710   73.4560  222.3280 N   0  0  0  0  0  0  0  0  0  0  0  0
  139.6760   74.2140  221.1310 C   0  0  0  0  0  0  0  0  0  0  0  0
  139.3070   75.6290  221.2640 C   0  0  0  0  0  0  0  0  0  0  0  0
  138.2800   75.9110  221.9340 O   0  0  0  0  0  0  0  0  0  0  0  0
  140.1240   76.6050  220.6310 N   0  0  0  0  0  0  0  0  0  0  0  0
  140.3750   76.7630  219.1920 C   0  0  0  0  0  0  0  0  0  0  0  0
  141.6550   77.5180  219.0670 C   0  0  0  0  0  0  0  0  0  0  0  0
  142.1770   77.5890  220.4880 C   0  0  0  0  0  0  0  0  0  0  0  0
  140.8810   77.6460  221.2620 C   0  0  2  0  0  0  0  0  0  0  0  0
  141.0690   77.5130  222.7330 C   0  0  0  0  0  0  0  0  0  0  0  0
  141.6170   78.6680  223.3370 O   0  0  0  0  0  0  0  0  0  0  0  0
  141.2030   79.9010  222.8520 C   0  0  0  0  0  0  0  0  0  0  0  0
  142.1170   80.6680  222.1580 C   0  0  0  0  0  0  0  0  0  0  0  0
  141.8060   81.9080  221.6350 C   0  0  0  0  0  0  0  0  0  0  0  0
  140.5430   82.3790  221.8200 C   0  0  0  0  0  0  0  0  0  0  0  0
  140.1330   83.9520  221.1630 Cl  0  0  0  0  0  0  0  0  0  0  0  0
  139.6340   81.6240  222.5070 C   0  0  0  0  0  0  0  0  0  0  0  0
  139.9110   80.3810  223.0420 C   0  0  0  0  0  0  0  0  0  0  0  0
  140.2280   71.5020  223.7160 C   0  0  0  0  0  0  0  0  0  0  0  0
  139.6000   70.2790  223.5790 C   0  0  0  0  0  0  0  0  0  0  0  0
  139.4350   69.4080  224.6440 C   0  0  0  0  0  0  0  0  0  0  0  0
  139.9350   69.8300  225.8600 C   0  0  0  0  0  0  0  0  0  0  0  0
  139.7730   68.9610  226.9310 C   0  0  0  0  0  0  0  0  0  0  0  0
  140.2480   69.3170  228.1750 C   0  0  0  0  0  0  0  0  0  0  0  0
  140.0910   68.4740  229.2110 F   0  0  0  0  0  0  0  0  0  0  0  0
  140.8820   70.5500  228.3130 C   0  0  0  0  0  0  0  0  0  0  0  0
  141.0410   71.4150  227.2410 C   0  0  0  0  0  0  0  0  0  0  0  0
  140.5660   71.0550  226.0030 C   0  0  0  0  0  0  0  0  0  0  0  0
  140.6800   71.8270  224.9260 N   0  0  0  0  0  0  0  0  0  0  0  0
  138.7250   73.7000  223.0120 H   0  0  0  0  0  0  0  0  0  0  0  0
  140.7404   74.1556  220.8598 H   0  0  0  0  0  0  0  0  0  0  0  0
  139.0245   73.7808  220.3578 H   0  0  0  0  0  0  0  0  0  0  0  0
  140.4663   75.7777  218.7115 H   0  0  0  0  0  0  0  0  0  0  0  0
  139.5484   77.2963  218.6997 H   0  0  0  0  0  0  0  0  0  0  0  0
  142.3627   76.9833  218.4164 H   0  0  0  0  0  0  0  0  0  0  0  0
  141.5189   78.5116  218.6151 H   0  0  0  0  0  0  0  0  0  0  0  0
  142.7653   76.6968  220.7484 H   0  0  0  0  0  0  0  0  0  0  0  0
  142.8606   78.4289  220.6811 H   0  0  0  0  0  0  0  0  0  0  0  0
  140.3628   78.6154  221.2218 H   0  0  0  0  0  0  0  0  0  0  0  0
  140.0903   77.3106  223.1925 H   0  0  0  0  0  0  0  0  0  0  0  0
  141.7832   76.6923  222.8956 H   0  0  0  0  0  0  0  0  0  0  0  0
  143.1347   80.2756  222.0156 H   0  0  0  0  0  0  0  0  0  0  0  0
  142.5560   82.4963  221.0860 H   0  0  0  0  0  0  0  0  0  0  0  0
  138.6209   82.0307  222.6420 H   0  0  0  0  0  0  0  0  0  0  0  0
  139.1517   79.8023  223.5884 H   0  0  0  0  0  0  0  0  0  0  0  0
  139.2177   69.9865  222.5899 H   0  0  0  0  0  0  0  0  0  0  0  0
  138.9341   68.4356  224.5274 H   0  0  0  0  0  0  0  0  0  0  0  0
  139.2685   67.9941  226.7874 H   0  0  0  0  0  0  0  0  0  0  0  0
  141.2672   70.8455  229.3001 H   0  0  0  0  0  0  0  0  0  0  0  0
  141.5442   72.3831  227.3808 H   0  0  0  0  0  0  0  0  0  0  0  0
  1  2  2  0
  2  3  1  0
  3  4  1  0
  4  5  1  0
  5  6  2  0
  5  7  1  0
  7  8  1  0
  8  9  1  0
  9 10  1  0
 10 11  1  0
 11 12  1  0
 12 13  1  0
 13 14  1  0
 14 15  2  0
 15 16  1  0
 16 17  2  0
 17 18  1  0
 17 19  1  0
 19 20  2  0
  2 21  1  0
 21 22  2  0
 22 23  1  0
 23 24  2  0
 24 25  1  0
 25 26  2  0
 26 27  1  0
 26 28  1  0
 28 29  2  0
 29 30  1  0
 30 31  2  0
 11  7  1  0
 20 14  1  0
 31 21  1  0
 30 24  1  0
  3 32  1  0
  4 33  1  0
  4 34  1  0
  8 35  1  0
  8 36  1  0
  9 37  1  0
  9 38  1  0
 10 39  1  0
 10 40  1  0
 11 41  1  1
 12 42  1  0
 12 43  1  0
 15 44  1  0
 16 45  1  0
 19 46  1  0
 20 47  1  0
 22 48  1  0
 23 49  1  0
 25 50  1  0
 28 51  1  0
 29 52  1  0
M  END
>  <smiles>  (32) 
O=C(NCC(=O)N1CCC[C@@H]1COc1ccc(Cl)cc1)c1ccc2cc(F)ccc2n1

>  <score_type>  (32) 
oracle

>  <origin>  (32) 
autodockgpu

>  <m_score__min__energy>  (32) 
-8.5

>  <m_primary>  (32) 
energy

>  <rmsd>  (32) 
1.8521139062477079

>  <m_score__min__rmsd>  (32) 
1.8521139062477079

>  <meeko>  (32) 
{"free_energy": -8.03, "intermolecular_energy": -10.12, "internal_energy": -1.69, "cluster_size": 30, "cluster_id": 1, "rank_in_cluster": 12}

>  <energy>  (32) 
-7.88

>  <cluster_rmsd>  (32) 
1.64

>  <cluster>  (32) 
2

$$$$

     RDKit          3D

 52 55  0  0  0  0  0  0  0  0999 V2000
  137.7500   70.8100  221.5870 O   0  0  0  0  0  0  0  0  0  0  0  0
  138.3280   71.4490  222.5020 C   0  0  0  0  0  0  0  0  0  0  0  0
  138.4310   72.8710  222.2940 N   0  0  0  0  0  0  0  0  0  0  0  0
  137.8690   73.3900  221.0830 C   0  0  0  0  0  0  0  0  0  0  0  0
  138.8470   73.5250  219.9960 C   0  0  0  0  0  0  0  0  0  0  0  0
  138.5860   74.3290  219.0650 O   0  0  0  0  0  0  0  0  0  0  0  0
  140.0320   72.7410  220.0480 N   0  0  0  0  0  0  0  0  0  0  0  0
  140.1720   71.3110  219.7450 C   0  0  0  0  0  0  0  0  0  0  0  0
  141.4070   70.8500  220.4420 C   0  0  0  0  0  0  0  0  0  0  0  0
  141.8160   72.0400  221.2860 C   0  0  0  0  0  0  0  0  0  0  0  0
  141.3470   73.1810  220.4110 C   0  0  2  0  0  0  0  0  0  0  0  0
  141.4270   74.5070  221.0830 C   0  0  0  0  0  0  0  0  0  0  0  0
  140.4240   74.7040  222.0600 O   0  0  0  0  0  0  0  0  0  0  0  0
  140.0620   76.0130  222.3490 C   0  0  0  0  0  0  0  0  0  0  0  0
  141.0680   76.9350  222.5630 C   0  0  0  0  0  0  0  0  0  0  0  0
  140.8150   78.2600  222.8570 C   0  0  0  0  0  0  0  0  0  0  0  0
  139.5170   78.6580  222.9370 C   0  0  0  0  0  0  0  0  0  0  0  0
  139.1790   80.3380  223.3110 Cl  0  0  0  0  0  0  0  0  0  0  0  0
  138.5170   77.7500  222.7270 C   0  0  0  0  0  0  0  0  0  0  0  0
  138.7340   76.4180  222.4310 C   0  0  0  0  0  0  0  0  0  0  0  0
  138.8590   70.8230  223.6860 C   0  0  0  0  0  0  0  0  0  0  0  0
  138.7170   69.4540  223.8110 C   0  0  0  0  0  0  0  0  0  0  0  0
  139.1930   68.7580  224.9110 C   0  0  0  0  0  0  0  0  0  0  0  0
  139.8210   69.5090  225.8830 C   0  0  0  0  0  0  0  0  0  0  0  0
  140.3000   68.8170  226.9880 C   0  0  0  0  0  0  0  0  0  0  0  0
  140.9380   69.5040  227.9980 C   0  0  0  0  0  0  0  0  0  0  0  0
  141.4020   68.8310  229.0660 F   0  0  0  0  0  0  0  0  0  0  0  0
  141.0820   70.8830  227.8720 C   0  0  0  0  0  0  0  0  0  0  0  0
  140.6020   71.5710  226.7680 C   0  0  0  0  0  0  0  0  0  0  0  0
  139.9670   70.8820  225.7630 C   0  0  0  0  0  0  0  0  0  0  0  0
  139.4800   71.4670  224.6730 N   0  0  0  0  0  0  0  0  0  0  0  0
  138.8920   73.4880  222.9940 H   0  0  0  0  0  0  0  0  0  0  0  0
  137.0700   72.7109  220.7506 H   0  0  0  0  0  0  0  0  0  0  0  0
  137.4917   74.3987  221.3069 H   0  0  0  0  0  0  0  0  0  0  0  0
  139.2971   70.7566  220.1153 H   0  0  0  0  0  0  0  0  0  0  0  0
  140.2391   71.1386  218.6607 H   0  0  0  0  0  0  0  0  0  0  0  0
  141.1957   69.9756  221.0750 H   0  0  0  0  0  0  0  0  0  0  0  0
  142.1957   70.5351  219.7429 H   0  0  0  0  0  0  0  0  0  0  0  0
  141.3052   72.0403  222.2602 H   0  0  0  0  0  0  0  0  0  0  0  0
  142.8854   72.0715  221.5419 H   0  0  0  0  0  0  0  0  0  0  0  0
  141.9755   73.3748  219.5292 H   0  0  0  0  0  0  0  0  0  0  0  0
  142.4095   74.5920  221.5702 H   0  0  0  0  0  0  0  0  0  0  0  0
  141.2791   75.2730  220.3075 H   0  0  0  0  0  0  0  0  0  0  0  0
  142.1136   76.5998  222.4965 H   0  0  0  0  0  0  0  0  0  0  0  0
  141.6376   78.9716  223.0214 H   0  0  0  0  0  0  0  0  0  0  0  0
  137.4769   78.1009  222.7980 H   0  0  0  0  0  0  0  0  0  0  0  0
  137.9023   75.7165  222.2691 H   0  0  0  0  0  0  0  0  0  0  0  0
  138.2086   68.8975  223.0098 H   0  0  0  0  0  0  0  0  0  0  0  0
  139.0766   67.6681  225.0038 H   0  0  0  0  0  0  0  0  0  0  0  0
  140.1708   67.7268  227.0565 H   0  0  0  0  0  0  0  0  0  0  0  0
  141.5909   71.4425  228.6707 H   0  0  0  0  0  0  0  0  0  0  0  0
  140.7288   72.6614  226.6972 H   0  0  0  0  0  0  0  0  0  0  0  0
  1  2  2  0
  2  3  1  0
  3  4  1  0
  4  5  1  0
  5  6  2  0
  5  7  1  0
  7  8  1  0
  8  9  1  0
  9 10  1  0
 10 11  1  0
 11 12  1  0
 12 13  1  0
 13 14  1  0
 14 15  2  0
 15 16  1  0
 16 17  2  0
 17 18  1  0
 17 19  1  0
 19 20  2  0
  2 21  1  0
 21 22  2  0
 22 23  1  0
 23 24  2  0
 24 25  1  0
 25 26  2  0
 26 27  1  0
 26 28  1  0
 28 29  2  0
 29 30  1  0
 30 31  2  0
 11  7  1  0
 20 14  1  0
 31 21  1  0
 30 24  1  0
  3 32  1  0
  4 33  1  0
  4 34  1  0
  8 35  1  0
  8 36  1  0
  9 37  1  0
  9 38  1  0
 10 39  1  0
 10 40  1  0
 11 41  1  6
 12 42  1  0
 12 43  1  0
 15 44  1  0
 16 45  1  0
 19 46  1  0
 20 47  1  0
 22 48  1  0
 23 49  1  0
 25 50  1  0
 28 51  1  0
 29 52  1  0
M  END
>  <smiles>  (33) 
O=C(NCC(=O)N1CCC[C@@H]1COc1ccc(Cl)cc1)c1ccc2cc(F)ccc2n1

>  <score_type>  (33) 
oracle

>  <origin>  (33) 
autodockgpu

>  <m_score__min__energy>  (33) 
-8.5

>  <m_primary>  (33) 
energy

>  <rmsd>  (33) 
2.9986308403378694

>  <m_score__min__rmsd>  (33) 
2.9986308403378694

>  <meeko>  (33) 
{"free_energy": -7.31, "intermolecular_energy": -9.39, "internal_energy": -3.02, "cluster_size": 30, "cluster_id": 1, "rank_in_cluster": 26}

>  <energy>  (33) 
-8.02

>  <cluster_rmsd>  (33) 
0.0

>  <cluster>  (33) 
3

$$$$

     RDKit          3D

 52 55  0  0  0  0  0  0  0  0999 V2000
  138.0490   70.4830  221.9520 O   0  0  0  0  0  0  0  0  0  0  0  0
  138.7080   70.9910  222.8950 C   0  0  0  0  0  0  0  0  0  0  0  0
  139.0400   72.3840  222.7380 N   0  0  0  0  0  0  0  0  0  0  0  0
  138.5870   73.0270  221.5420 C   0  0  0  0  0  0  0  0  0  0  0  0
  138.8800   74.4650  221.5020 C   0  0  0  0  0  0  0  0  0  0  0  0
  139.9410   74.8650  222.0460 O   0  0  0  0  0  0  0  0  0  0  0  0
  137.9530   75.3280  220.8560 N   0  0  0  0  0  0  0  0  0  0  0  0
  137.5400   75.3030  219.4470 C   0  0  0  0  0  0  0  0  0  0  0  0
  137.0170   76.6630  219.1350 C   0  0  0  0  0  0  0  0  0  0  0  0
  137.3430   77.4730  220.3740 C   0  0  0  0  0  0  0  0  0  0  0  0
  137.2220   76.4120  221.4440 C   0  0  2  0  0  0  0  0  0  0  0  0
  137.6960   76.8680  222.7790 C   0  0  0  0  0  0  0  0  0  0  0  0
  137.8790   78.2680  222.8630 O   0  0  0  0  0  0  0  0  0  0  0  0
  139.1780   78.7340  223.0150 C   0  0  0  0  0  0  0  0  0  0  0  0
  139.3580   80.0210  223.4800 C   0  0  0  0  0  0  0  0  0  0  0  0
  140.6070   80.5800  223.6660 C   0  0  0  0  0  0  0  0  0  0  0  0
  141.6960   79.8180  223.3740 C   0  0  0  0  0  0  0  0  0  0  0  0
  143.2890   80.5130  223.6040 Cl  0  0  0  0  0  0  0  0  0  0  0  0
  141.5240   78.5430  222.9130 C   0  0  0  0  0  0  0  0  0  0  0  0
  140.2900   77.9530  222.7160 C   0  0  0  0  0  0  0  0  0  0  0  0
  139.1140   70.2480  224.0610 C   0  0  0  0  0  0  0  0  0  0  0  0
  138.8650   68.8890  224.0790 C   0  0  0  0  0  0  0  0  0  0  0  0
  139.2160   68.0870  225.1530 C   0  0  0  0  0  0  0  0  0  0  0  0
  139.8330   68.7210  226.2120 C   0  0  0  0  0  0  0  0  0  0  0  0
  140.1880   67.9220  227.2910 C   0  0  0  0  0  0  0  0  0  0  0  0
  140.8080   68.4890  228.3840 C   0  0  0  0  0  0  0  0  0  0  0  0
  141.1510   67.7130  229.4280 F   0  0  0  0  0  0  0  0  0  0  0  0
  141.0600   69.8580  228.3650 C   0  0  0  0  0  0  0  0  0  0  0  0
  140.7040   70.6530  227.2860 C   0  0  0  0  0  0  0  0  0  0  0  0
  140.0860   70.0830  226.1990 C   0  0  0  0  0  0  0  0  0  0  0  0
  139.7140   70.7760  225.1260 N   0  0  0  0  0  0  0  0  0  0  0  0
  139.5830   72.8950  223.4650 H   0  0  0  0  0  0  0  0  0  0  0  0
  139.0778   72.5478  220.6820 H   0  0  0  0  0  0  0  0  0  0  0  0
  137.4927   72.9193  221.5119 H   0  0  0  0  0  0  0  0  0  0  0  0
  138.4006   75.0699  218.8029 H   0  0  0  0  0  0  0  0  0  0  0  0
  136.7750   74.5326  219.2704 H   0  0  0  0  0  0  0  0  0  0  0  0
  137.5192   77.0818  218.2505 H   0  0  0  0  0  0  0  0  0  0  0  0
  135.9422   76.6604  218.9009 H   0  0  0  0  0  0  0  0  0  0  0  0
  138.3602   77.8895  220.3297 H   0  0  0  0  0  0  0  0  0  0  0  0
  136.6984   78.3511  220.5275 H   0  0  0  0  0  0  0  0  0  0  0  0
  136.1900   76.1256  221.6950 H   0  0  0  0  0  0  0  0  0  0  0  0
  136.9541   76.5676  223.5335 H   0  0  0  0  0  0  0  0  0  0  0  0
  138.6773   76.4017  222.9514 H   0  0  0  0  0  0  0  0  0  0  0  0
  138.4696   80.6267  223.7121 H   0  0  0  0  0  0  0  0  0  0  0  0
  140.7181   81.6090  224.0385 H   0  0  0  0  0  0  0  0  0  0  0  0
  142.4223   77.9505  222.6849 H   0  0  0  0  0  0  0  0  0  0  0  0
  140.1922   76.9227  222.3433 H   0  0  0  0  0  0  0  0  0  0  0  0
  138.3712   68.4280  223.2109 H   0  0  0  0  0  0  0  0  0  0  0  0
  139.0142   67.0057  225.1610 H   0  0  0  0  0  0  0  0  0  0  0  0
  139.9757   66.8428  227.2736 H   0  0  0  0  0  0  0  0  0  0  0  0
  141.5555   70.3223  229.2304 H   0  0  0  0  0  0  0  0  0  0  0  0
  140.9149   71.7325  227.3001 H   0  0  0  0  0  0  0  0  0  0  0  0
  1  2  2  0
  2  3  1  0
  3  4  1  0
  4  5  1  0
  5  6  2  0
  5  7  1  0
  7  8  1  0
  8  9  1  0
  9 10  1  0
 10 11  1  0
 11 12  1  0
 12 13  1  0
 13 14  1  0
 14 15  2  0
 15 16  1  0
 16 17  2  0
 17 18  1  0
 17 19  1  0
 19 20  2  0
  2 21  1  0
 21 22  2  0
 22 23  1  0
 23 24  2  0
 24 25  1  0
 25 26  2  0
 26 27  1  0
 26 28  1  0
 28 29  2  0
 29 30  1  0
 30 31  2  0
 11  7  1  0
 20 14  1  0
 31 21  1  0
 30 24  1  0
  3 32  1  0
  4 33  1  0
  4 34  1  0
  8 35  1  0
  8 36  1  0
  9 37  1  0
  9 38  1  0
 10 39  1  0
 10 40  1  0
 11 41  1  1
 12 42  1  0
 12 43  1  0
 15 44  1  0
 16 45  1  0
 19 46  1  0
 20 47  1  0
 22 48  1  0
 23 49  1  0
 25 50  1  0
 28 51  1  0
 29 52  1  0
M  END
>  <smiles>  (34) 
O=C(NCC(=O)N1CCC[C@@H]1COc1ccc(Cl)cc1)c1ccc2cc(F)ccc2n1

>  <score_type>  (34) 
oracle

>  <origin>  (34) 
autodockgpu

>  <m_score__min__energy>  (34) 
-8.5

>  <m_primary>  (34) 
energy

>  <rmsd>  (34) 
2.1897427936599154

>  <m_score__min__rmsd>  (34) 
2.1897427936599154

>  <meeko>  (34) 
{"free_energy": -8.05, "intermolecular_energy": -10.14, "internal_energy": -1.86, "cluster_size": 2, "cluster_id": 2, "rank_in_cluster": 1}

>  <energy>  (34) 
-7.76

>  <cluster_rmsd>  (34) 
0.0

>  <cluster>  (34) 
4

$$$$

     RDKit          3D

 52 55  0  0  0  0  0  0  0  0999 V2000
  140.2420   73.3790  222.6040 O   0  0  0  0  0  0  0  0  0  0  0  0
  139.5470   72.3440  222.7580 C   0  0  0  0  0  0  0  0  0  0  0  0
  138.5420   72.1170  221.7500 N   0  0  0  0  0  0  0  0  0  0  0  0
  138.4510   73.0850  220.6980 C   0  0  0  0  0  0  0  0  0  0  0  0
  137.2210   73.8850  220.7440 C   0  0  0  0  0  0  0  0  0  0  0  0
  136.6690   74.1800  219.6530 O   0  0  0  0  0  0  0  0  0  0  0  0
  136.7190   74.2840  222.0130 N   0  0  0  0  0  0  0  0  0  0  0  0
  135.7910   73.5460  222.8800 C   0  0  0  0  0  0  0  0  0  0  0  0
  135.1610   74.5540  223.7800 C   0  0  0  0  0  0  0  0  0  0  0  0
  135.6430   75.8830  223.2340 C   0  0  0  0  0  0  0  0  0  0  0  0
  137.0110   75.4970  222.7190 C   0  0  2  0  0  0  0  0  0  0  0  0
  137.6620   76.5730  221.9220 C   0  0  0  0  0  0  0  0  0  0  0  0
  139.0720   76.4680  221.8830 O   0  0  0  0  0  0  0  0  0  0  0  0
  139.8070   77.5500  222.3480 C   0  0  0  0  0  0  0  0  0  0  0  0
  139.1740   78.7730  222.4450 C   0  0  0  0  0  0  0  0  0  0  0  0
  139.8140   79.9120  222.8950 C   0  0  0  0  0  0  0  0  0  0  0  0
  141.1230   79.8070  223.2520 C   0  0  0  0  0  0  0  0  0  0  0  0
  141.9510   81.2420  223.8240 Cl  0  0  0  0  0  0  0  0  0  0  0  0
  141.7550   78.5980  223.1570 C   0  0  0  0  0  0  0  0  0  0  0  0
  141.1450   77.4410  222.7130 C   0  0  0  0  0  0  0  0  0  0  0  0
  139.7240   71.4330  223.8600 C   0  0  0  0  0  0  0  0  0  0  0  0
  139.3060   70.1270  223.6910 C   0  0  0  0  0  0  0  0  0  0  0  0
  139.4320   69.1740  224.6900 C   0  0  0  0  0  0  0  0  0  0  0  0
  140.0010   69.6020  225.8720 C   0  0  0  0  0  0  0  0  0  0  0  0
  140.1310   68.6520  226.8770 C   0  0  0  0  0  0  0  0  0  0  0  0
  140.6910   69.0090  228.0840 C   0  0  0  0  0  0  0  0  0  0  0  0
  140.8160   68.0870  229.0550 F   0  0  0  0  0  0  0  0  0  0  0  0
  141.1130   70.3250  228.2540 C   0  0  0  0  0  0  0  0  0  0  0  0
  140.9820   71.2710  227.2490 C   0  0  0  0  0  0  0  0  0  0  0  0
  140.4230   70.9100  226.0470 C   0  0  0  0  0  0  0  0  0  0  0  0
  140.2630   71.7570  225.0340 N   0  0  0  0  0  0  0  0  0  0  0  0
  137.9160   71.2870  221.7890 H   0  0  0  0  0  0  0  0  0  0  0  0
  139.3120   73.7652  220.7752 H   0  0  0  0  0  0  0  0  0  0  0  0
  138.4415   72.5308  219.7479 H   0  0  0  0  0  0  0  0  0  0  0  0
  135.0222   73.0443  222.2740 H   0  0  0  0  0  0  0  0  0  0  0  0
  136.3165   72.7707  223.4569 H   0  0  0  0  0  0  0  0  0  0  0  0
  134.0639   74.4872  223.7350 H   0  0  0  0  0  0  0  0  0  0  0  0
  135.4308   74.4067  224.8362 H   0  0  0  0  0  0  0  0  0  0  0  0
  134.9936   76.2478  222.4245 H   0  0  0  0  0  0  0  0  0  0  0  0
  135.6466   76.7028  223.9674 H   0  0  0  0  0  0  0  0  0  0  0  0
  137.7726   75.3474  223.4985 H   0  0  0  0  0  0  0  0  0  0  0  0
  137.2800   76.5235  220.8916 H   0  0  0  0  0  0  0  0  0  0  0  0
  137.4208   77.5293  222.4092 H   0  0  0  0  0  0  0  0  0  0  0  0
  138.1161   78.8437  222.1519 H   0  0  0  0  0  0  0  0  0  0  0  0
  139.2825   80.8727  222.9625 H   0  0  0  0  0  0  0  0  0  0  0  0
  142.8133   78.5436  223.4521 H   0  0  0  0  0  0  0  0  0  0  0  0
  141.6873   76.4860  222.6514 H   0  0  0  0  0  0  0  0  0  0  0  0
  138.8577   69.8331  222.7305 H   0  0  0  0  0  0  0  0  0  0  0  0
  139.0974   68.1357  224.5484 H   0  0  0  0  0  0  0  0  0  0  0  0
  139.7886   67.6201  226.7100 H   0  0  0  0  0  0  0  0  0  0  0  0
  141.5630   70.6224  229.2127 H   0  0  0  0  0  0  0  0  0  0  0  0
  141.3233   72.3038  227.4129 H   0  0  0  0  0  0  0  0  0  0  0  0
  1  2  2  0
  2  3  1  0
  3  4  1  0
  4  5  1  0
  5  6  2  0
  5  7  1  0
  7  8  1  0
  8  9  1  0
  9 10  1  0
 10 11  1  0
 11 12  1  0
 12 13  1  0
 13 14  1  0
 14 15  2  0
 15 16  1  0
 16 17  2  0
 17 18  1  0
 17 19  1  0
 19 20  2  0
  2 21  1  0
 21 22  2  0
 22 23  1  0
 23 24  2  0
 24 25  1  0
 25 26  2  0
 26 27  1  0
 26 28  1  0
 28 29  2  0
 29 30  1  0
 30 31  2  0
 11  7  1  0
 20 14  1  0
 31 21  1  0
 30 24  1  0
  3 32  1  0
  4 33  1  0
  4 34  1  0
  8 35  1  0
  8 36  1  0
  9 37  1  0
  9 38  1  0
 10 39  1  0
 10 40  1  0
 11 41  1  1
 12 42  1  0
 12 43  1  0
 15 44  1  0
 16 45  1  0
 19 46  1  0
 20 47  1  0
 22 48  1  0
 23 49  1  0
 25 50  1  0
 28 51  1  0
 29 52  1  0
M  END
>  <smiles>  (35) 
O=C(NCC(=O)N1CCC[C@@H]1COc1ccc(Cl)cc1)c1ccc2cc(F)ccc2n1

>  <score_type>  (35) 
oracle

>  <origin>  (35) 
autodockgpu

>  <m_score__min__energy>  (35) 
-8.5

>  <m_primary>  (35) 
energy

>  <rmsd>  (35) 
3.897499653287218

>  <m_score__min__rmsd>  (35) 
3.897499653287218

>  <meeko>  (35) 
{"free_energy": -7.88, "intermolecular_energy": -9.97, "internal_energy": -1.68, "cluster_size": 2, "cluster_id": 2, "rank_in_cluster": 2}

>  <energy>  (35) 
-7.27

>  <cluster_rmsd>  (35) 
1.91

>  <cluster>  (35) 
4

$$$$

     RDKit          3D

 52 55  0  0  0  0  0  0  0  0999 V2000
  138.1400   70.5270  221.5690 O   0  0  0  0  0  0  0  0  0  0  0  0
  138.4290   71.3020  222.5160 C   0  0  0  0  0  0  0  0  0  0  0  0
  138.0500   72.6790  222.3270 N   0  0  0  0  0  0  0  0  0  0  0  0
  137.3950   73.0060  221.0960 C   0  0  0  0  0  0  0  0  0  0  0  0
  138.3130   73.4750  220.0510 C   0  0  0  0  0  0  0  0  0  0  0  0
  137.8270   74.1120  219.0810 O   0  0  0  0  0  0  0  0  0  0  0  0
  139.6980   73.1850  220.1850 N   0  0  0  0  0  0  0  0  0  0  0  0
  140.3990   71.9610  219.7730 C   0  0  0  0  0  0  0  0  0  0  0  0
  141.6520   71.9000  220.5790 C   0  0  0  0  0  0  0  0  0  0  0  0
  141.5010   73.0330  221.5740 C   0  0  0  0  0  0  0  0  0  0  0  0
  140.7100   74.0260  220.7540 C   0  0  2  0  0  0  0  0  0  0  0  0
  140.2210   75.1860  221.5470 C   0  0  0  0  0  0  0  0  0  0  0  0
  140.4400   76.4320  220.9160 O   0  0  0  0  0  0  0  0  0  0  0  0
  141.0030   77.4460  221.6790 C   0  0  0  0  0  0  0  0  0  0  0  0
  141.4810   78.5650  221.0260 C   0  0  0  0  0  0  0  0  0  0  0  0
  142.0590   79.6280  221.6920 C   0  0  0  0  0  0  0  0  0  0  0  0
  142.1550   79.5540  223.0480 C   0  0  0  0  0  0  0  0  0  0  0  0
  142.8870   80.8940  223.9090 Cl  0  0  0  0  0  0  0  0  0  0  0  0
  141.6840   78.4480  223.6990 C   0  0  0  0  0  0  0  0  0  0  0  0
  141.1000   77.3690  223.0650 C   0  0  0  0  0  0  0  0  0  0  0  0
  139.0940   70.8630  223.7170 C   0  0  0  0  0  0  0  0  0  0  0  0
  140.0350   71.7050  224.2770 C   0  0  0  0  0  0  0  0  0  0  0  0
  140.7290   71.3760  225.4300 C   0  0  0  0  0  0  0  0  0  0  0  0
  140.4290   70.1530  225.9950 C   0  0  0  0  0  0  0  0  0  0  0  0
  141.1210   69.8170  227.1510 C   0  0  0  0  0  0  0  0  0  0  0  0
  140.8710   68.6100  227.7680 C   0  0  0  0  0  0  0  0  0  0  0  0
  141.5430   68.2880  228.8880 F   0  0  0  0  0  0  0  0  0  0  0  0
  139.9220   67.7620  227.2040 C   0  0  0  0  0  0  0  0  0  0  0  0
  139.2330   68.1000  226.0490 C   0  0  0  0  0  0  0  0  0  0  0  0
  139.4850   69.3040  225.4370 C   0  0  0  0  0  0  0  0  0  0  0  0
  138.8670   69.7020  224.3290 N   0  0  0  0  0  0  0  0  0  0  0  0
  138.2460   73.3980  223.0530 H   0  0  0  0  0  0  0  0  0  0  0  0
  136.8777   72.1079  220.7276 H   0  0  0  0  0  0  0  0  0  0  0  0
  136.6988   73.8305  221.3090 H   0  0  0  0  0  0  0  0  0  0  0  0
  139.7739   71.0787  219.9748 H   0  0  0  0  0  0  0  0  0  0  0  0
  140.6190   71.9718  218.6953 H   0  0  0  0  0  0  0  0  0  0  0  0
  141.7376   70.9333  221.0968 H   0  0  0  0  0  0  0  0  0  0  0  0
  142.5580   71.9949  219.9624 H   0  0  0  0  0  0  0  0  0  0  0  0
  140.9468   72.7145  222.4692 H   0  0  0  0  0  0  0  0  0  0  0  0
  142.4511   73.4223  221.9687 H   0  0  0  0  0  0  0  0  0  0  0  0
  141.2909   74.5532  219.9829 H   0  0  0  0  0  0  0  0  0  0  0  0
  139.1403   75.0643  221.7121 H   0  0  0  0  0  0  0  0  0  0  0  0
  140.7880   75.1961  222.4895 H   0  0  0  0  0  0  0  0  0  0  0  0
  141.3980   78.6117  219.9301 H   0  0  0  0  0  0  0  0  0  0  0  0
  142.4301   80.5067  221.1441 H   0  0  0  0  0  0  0  0  0  0  0  0
  141.7758   78.4155  224.7947 H   0  0  0  0  0  0  0  0  0  0  0  0
  140.7318   76.4967  223.6249 H   0  0  0  0  0  0  0  0  0  0  0  0
  140.2404   72.6700  223.7907 H   0  0  0  0  0  0  0  0  0  0  0  0
  141.4771   72.0515  225.8704 H   0  0  0  0  0  0  0  0  0  0  0  0
  141.8644   70.5100  227.5719 H   0  0  0  0  0  0  0  0  0  0  0  0
  139.7128   66.7967  227.6881 H   0  0  0  0  0  0  0  0  0  0  0  0
  138.4895   67.4087  225.6255 H   0  0  0  0  0  0  0  0  0  0  0  0
  1  2  2  0
  2  3  1  0
  3  4  1  0
  4  5  1  0
  5  6  2  0
  5  7  1  0
  7  8  1  0
  8  9  1  0
  9 10  1  0
 10 11  1  0
 11 12  1  0
 12 13  1  0
 13 14  1  0
 14 15  2  0
 15 16  1  0
 16 17  2  0
 17 18  1  0
 17 19  1  0
 19 20  2  0
  2 21  1  0
 21 22  2  0
 22 23  1  0
 23 24  2  0
 24 25  1  0
 25 26  2  0
 26 27  1  0
 26 28  1  0
 28 29  2  0
 29 30  1  0
 30 31  2  0
 11  7  1  0
 20 14  1  0
 31 21  1  0
 30 24  1  0
  3 32  1  0
  4 33  1  0
  4 34  1  0
  8 35  1  0
  8 36  1  0
  9 37  1  0
  9 38  1  0
 10 39  1  0
 10 40  1  0
 11 41  1  6
 12 42  1  0
 12 43  1  0
 15 44  1  0
 16 45  1  0
 19 46  1  0
 20 47  1  0
 22 48  1  0
 23 49  1  0
 25 50  1  0
 28 51  1  0
 29 52  1  0
M  END
>  <smiles>  (36) 
O=C(NCC(=O)N1CCC[C@@H]1COc1ccc(Cl)cc1)c1ccc2cc(F)ccc2n1

>  <score_type>  (36) 
oracle

>  <origin>  (36) 
autodockgpu

>  <m_score__min__energy>  (36) 
-8.5

>  <m_primary>  (36) 
energy

>  <rmsd>  (36) 
3.422150533678485

>  <m_score__min__rmsd>  (36) 
3.422150533678485

>  <meeko>  (36) 
{"free_energy": -7.52, "intermolecular_energy": -9.61, "internal_energy": -1.83, "cluster_size": 30, "cluster_id": 1, "rank_in_cluster": 21}

>  <energy>  (36) 
-6.88

>  <cluster_rmsd>  (36) 
1.71

>  <cluster>  (36) 
4

$$$$

     RDKit          3D

 52 55  0  0  0  0  0  0  0  0999 V2000
  139.8130   73.4130  222.3600 O   0  0  0  0  0  0  0  0  0  0  0  0
  140.1570   72.2040  222.3760 C   0  0  0  0  0  0  0  0  0  0  0  0
  140.5850   71.6660  221.1090 N   0  0  0  0  0  0  0  0  0  0  0  0
  140.5700   72.5580  219.9890 C   0  0  0  0  0  0  0  0  0  0  0  0
  141.7210   73.4680  219.9510 C   0  0  0  0  0  0  0  0  0  0  0  0
  142.7990   73.0800  220.4710 O   0  0  0  0  0  0  0  0  0  0  0  0
  141.5600   74.7380  219.3320 N   0  0  0  0  0  0  0  0  0  0  0  0
  141.9290   75.1190  217.9620 C   0  0  0  0  0  0  0  0  0  0  0  0
  142.0770   76.6020  217.9600 C   0  0  0  0  0  0  0  0  0  0  0  0
  141.9630   76.9820  219.4230 C   0  0  0  0  0  0  0  0  0  0  0  0
  141.0030   75.9230  219.9160 C   0  0  2  0  0  0  0  0  0  0  0  0
  140.8530   75.9100  221.3970 C   0  0  0  0  0  0  0  0  0  0  0  0
  139.9440   76.8800  221.8780 O   0  0  0  0  0  0  0  0  0  0  0  0
  140.4770   78.0240  222.4590 C   0  0  0  0  0  0  0  0  0  0  0  0
  141.8220   78.2770  222.2830 C   0  0  0  0  0  0  0  0  0  0  0  0
  142.4500   79.3850  222.8180 C   0  0  0  0  0  0  0  0  0  0  0  0
  141.6970   80.2530  223.5470 C   0  0  0  0  0  0  0  0  0  0  0  0
  142.4780   81.6640  224.2330 Cl  0  0  0  0  0  0  0  0  0  0  0  0
  140.3640   80.0070  223.7240 C   0  0  0  0  0  0  0  0  0  0  0  0
  139.7050   78.9100  223.2040 C   0  0  0  0  0  0  0  0  0  0  0  0
  140.1340   71.3940  223.5670 C   0  0  0  0  0  0  0  0  0  0  0  0
  139.5740   70.1340  223.4790 C   0  0  0  0  0  0  0  0  0  0  0  0
  139.5020   69.2790  224.5670 C   0  0  0  0  0  0  0  0  0  0  0  0
  140.0230   69.7550  225.7530 C   0  0  0  0  0  0  0  0  0  0  0  0
  139.9550   68.9020  226.8470 C   0  0  0  0  0  0  0  0  0  0  0  0
  140.4560   69.3130  228.0640 C   0  0  0  0  0  0  0  0  0  0  0  0
  140.3890   68.4850  229.1210 F   0  0  0  0  0  0  0  0  0  0  0  0
  141.0210   70.5830  228.1510 C   0  0  0  0  0  0  0  0  0  0  0  0
  141.0870   71.4310  227.0570 C   0  0  0  0  0  0  0  0  0  0  0  0
  140.5860   71.0180  225.8470 C   0  0  0  0  0  0  0  0  0  0  0  0
  140.6120   71.7710  224.7520 N   0  0  0  0  0  0  0  0  0  0  0  0
  140.8900   70.6750  221.0190 H   0  0  0  0  0  0  0  0  0  0  0  0
  140.5690   71.9589  219.0665 H   0  0  0  0  0  0  0  0  0  0  0  0
  139.6679   73.1804  220.0826 H   0  0  0  0  0  0  0  0  0  0  0  0
  142.8786   74.6420  217.6777 H   0  0  0  0  0  0  0  0  0  0  0  0
  141.1653   74.7947  217.2398 H   0  0  0  0  0  0  0  0  0  0  0  0
  143.0559   76.8970  217.5542 H   0  0  0  0  0  0  0  0  0  0  0  0
  141.3252   77.1024  217.3320 H   0  0  0  0  0  0  0  0  0  0  0  0
  142.9345   76.9178  219.9349 H   0  0  0  0  0  0  0  0  0  0  0  0
  141.6317   78.0158  219.6009 H   0  0  0  0  0  0  0  0  0  0  0  0
  139.9550   76.0762  219.6190 H   0  0  0  0  0  0  0  0  0  0  0  0
  140.4957   74.9155  221.7025 H   0  0  0  0  0  0  0  0  0  0  0  0
  141.8380   76.1476  221.8251 H   0  0  0  0  0  0  0  0  0  0  0  0
  142.4190   77.5668  221.6921 H   0  0  0  0  0  0  0  0  0  0  0  0
  143.5244   79.5601  222.6598 H   0  0  0  0  0  0  0  0  0  0  0  0
  139.7804   80.7267  224.3168 H   0  0  0  0  0  0  0  0  0  0  0  0
  138.6300   78.7460  223.3696 H   0  0  0  0  0  0  0  0  0  0  0  0
  139.1715   69.7981  222.5120 H   0  0  0  0  0  0  0  0  0  0  0  0
  139.0547   68.2770  224.4897 H   0  0  0  0  0  0  0  0  0  0  0  0
  139.5040   67.9041  226.7431 H   0  0  0  0  0  0  0  0  0  0  0  0
  141.4264   70.9226  229.1156 H   0  0  0  0  0  0  0  0  0  0  0  0
  141.5381   72.4292  227.1573 H   0  0  0  0  0  0  0  0  0  0  0  0
  1  2  2  0
  2  3  1  0
  3  4  1  0
  4  5  1  0
  5  6  2  0
  5  7  1  0
  7  8  1  0
  8  9  1  0
  9 10  1  0
 10 11  1  0
 11 12  1  0
 12 13  1  0
 13 14  1  0
 14 15  2  0
 15 16  1  0
 16 17  2  0
 17 18  1  0
 17 19  1  0
 19 20  2  0
  2 21  1  0
 21 22  2  0
 22 23  1  0
 23 24  2  0
 24 25  1  0
 25 26  2  0
 26 27  1  0
 26 28  1  0
 28 29  2  0
 29 30  1  0
 30 31  2  0
 11  7  1  0
 20 14  1  0
 31 21  1  0
 30 24  1  0
  3 32  1  0
  4 33  1  0
  4 34  1  0
  8 35  1  0
  8 36  1  0
  9 37  1  0
  9 38  1  0
 10 39  1  0
 10 40  1  0
 11 41  1  6
 12 42  1  0
 12 43  1  0
 15 44  1  0
 16 45  1  0
 19 46  1  0
 20 47  1  0
 22 48  1  0
 23 49  1  0
 25 50  1  0
 28 51  1  0
 29 52  1  0
M  END
>  <smiles>  (37) 
O=C(NCC(=O)N1CCC[C@@H]1COc1ccc(Cl)cc1)c1ccc2cc(F)ccc2n1

>  <score_type>  (37) 
oracle

>  <origin>  (37) 
autodockgpu

>  <m_score__min__energy>  (37) 
-8.5

>  <m_primary>  (37) 
energy

>  <rmsd>  (37) 
2.0619317895065272

>  <m_score__min__rmsd>  (37) 
2.0619317895065272

>  <meeko>  (37) 
{"free_energy": -8.15, "intermolecular_energy": -10.23, "internal_energy": -1.41, "cluster_size": 30, "cluster_id": 1, "rank_in_cluster": 8}

>  <energy>  (37) 
-7.49

>  <cluster_rmsd>  (37) 
0.0

>  <cluster>  (37) 
5

$$$$

     RDKit          3D

 52 55  0  0  0  0  0  0  0  0999 V2000
  136.6740   76.4420  222.1190 O   0  0  0  0  0  0  0  0  0  0  0  0
  136.7470   75.3380  222.7160 C   0  0  0  0  0  0  0  0  0  0  0  0
  137.8460   74.4930  222.3220 N   0  0  0  0  0  0  0  0  0  0  0  0
  138.7210   75.0010  221.3090 C   0  0  0  0  0  0  0  0  0  0  0  0
  140.0730   75.3000  221.7980 C   0  0  0  0  0  0  0  0  0  0  0  0
  140.1940   76.1670  222.7020 O   0  0  0  0  0  0  0  0  0  0  0  0
  141.1710   74.6000  221.2280 N   0  0  0  0  0  0  0  0  0  0  0  0
  142.2630   75.1570  220.4200 C   0  0  0  0  0  0  0  0  0  0  0  0
  142.8270   74.0240  219.6310 C   0  0  0  0  0  0  0  0  0  0  0  0
  141.8710   72.8800  219.9030 C   0  0  0  0  0  0  0  0  0  0  0  0
  141.4470   73.1970  221.3190 C   0  0  2  0  0  0  0  0  0  0  0  0
  140.3270   72.3430  221.8020 C   0  0  0  0  0  0  0  0  0  0  0  0
  139.9150   72.6490  223.1200 O   0  0  0  0  0  0  0  0  0  0  0  0
  139.9700   71.6280  224.0600 C   0  0  0  0  0  0  0  0  0  0  0  0
  139.2480   70.4770  223.8140 C   0  0  0  0  0  0  0  0  0  0  0  0
  139.2340   69.4050  224.6840 C   0  0  0  0  0  0  0  0  0  0  0  0
  139.9680   69.5020  225.8260 C   0  0  0  0  0  0  0  0  0  0  0  0
  139.9620   68.1490  226.9420 Cl  0  0  0  0  0  0  0  0  0  0  0  0
  140.6840   70.6390  226.0740 C   0  0  0  0  0  0  0  0  0  0  0  0
  140.7200   71.7290  225.2270 C   0  0  0  0  0  0  0  0  0  0  0  0
  135.8060   74.9250  223.7260 C   0  0  0  0  0  0  0  0  0  0  0  0
  135.1170   75.9100  224.4070 C   0  0  0  0  0  0  0  0  0  0  0  0
  134.1920   75.6170  225.3960 C   0  0  0  0  0  0  0  0  0  0  0  0
  133.9930   74.2780  225.6690 C   0  0  0  0  0  0  0  0  0  0  0  0
  133.0670   73.9780  226.6590 C   0  0  0  0  0  0  0  0  0  0  0  0
  132.8190   72.6620  226.9830 C   0  0  0  0  0  0  0  0  0  0  0  0
  131.9210   72.3740  227.9420 F   0  0  0  0  0  0  0  0  0  0  0  0
  133.5140   71.6690  226.2960 C   0  0  0  0  0  0  0  0  0  0  0  0
  134.4380   71.9730  225.3080 C   0  0  0  0  0  0  0  0  0  0  0  0
  134.6820   73.2860  224.9890 C   0  0  0  0  0  0  0  0  0  0  0  0
  135.5510   73.6590  224.0540 N   0  0  0  0  0  0  0  0  0  0  0  0
  137.9930   73.5590  222.7570 H   0  0  0  0  0  0  0  0  0  0  0  0
  138.7985   74.2511  220.5080 H   0  0  0  0  0  0  0  0  0  0  0  0
  138.2889   75.9482  220.9538 H   0  0  0  0  0  0  0  0  0  0  0  0
  141.8774   75.9352  219.7450 H   0  0  0  0  0  0  0  0  0  0  0  0
  143.0318   75.6203  221.0559 H   0  0  0  0  0  0  0  0  0  0  0  0
  142.8511   74.2675  218.5586 H   0  0  0  0  0  0  0  0  0  0  0  0
  143.8639   73.7864  219.9109 H   0  0  0  0  0  0  0  0  0  0  0  0
  141.0157   72.8938  219.2114 H   0  0  0  0  0  0  0  0  0  0  0  0
  142.3085   71.8793  219.7714 H   0  0  0  0  0  0  0  0  0  0  0  0
  142.2022   72.9742  222.0872 H   0  0  0  0  0  0  0  0  0  0  0  0
  139.4686   72.4796  221.1278 H   0  0  0  0  0  0  0  0  0  0  0  0
  140.6899   71.3046  221.8082 H   0  0  0  0  0  0  0  0  0  0  0  0
  138.6598   70.4114  222.8868 H   0  0  0  0  0  0  0  0  0  0  0  0
  138.6481   68.5011  224.4612 H   0  0  0  0  0  0  0  0  0  0  0  0
  141.2674   70.6891  227.0052 H   0  0  0  0  0  0  0  0  0  0  0  0
  141.3093   72.6276  225.4622 H   0  0  0  0  0  0  0  0  0  0  0  0
  135.3095   76.9634  224.1553 H   0  0  0  0  0  0  0  0  0  0  0  0
  133.6467   76.4067  225.9336 H   0  0  0  0  0  0  0  0  0  0  0  0
  132.5345   74.7862  227.1816 H   0  0  0  0  0  0  0  0  0  0  0  0
  133.3244   70.6143  226.5444 H   0  0  0  0  0  0  0  0  0  0  0  0
  134.9722   71.1674  224.7830 H   0  0  0  0  0  0  0  0  0  0  0  0
  1  2  2  0
  2  3  1  0
  3  4  1  0
  4  5  1  0
  5  6  2  0
  5  7  1  0
  7  8  1  0
  8  9  1  0
  9 10  1  0
 10 11  1  0
 11 12  1  0
 12 13  1  0
 13 14  1  0
 14 15  2  0
 15 16  1  0
 16 17  2  0
 17 18  1  0
 17 19  1  0
 19 20  2  0
  2 21  1  0
 21 22  2  0
 22 23  1  0
 23 24  2  0
 24 25  1  0
 25 26  2  0
 26 27  1  0
 26 28  1  0
 28 29  2  0
 29 30  1  0
 30 31  2  0
 11  7  1  0
 20 14  1  0
 31 21  1  0
 30 24  1  0
  3 32  1  0
  4 33  1  0
  4 34  1  0
  8 35  1  0
  8 36  1  0
  9 37  1  0
  9 38  1  0
 10 39  1  0
 10 40  1  0
 11 41  1  1
 12 42  1  0
 12 43  1  0
 15 44  1  0
 16 45  1  0
 19 46  1  0
 20 47  1  0
 22 48  1  0
 23 49  1  0
 25 50  1  0
 28 51  1  0
 29 52  1  0
M  END
>  <smiles>  (38) 
O=C(NCC(=O)N1CCC[C@@H]1COc1ccc(Cl)cc1)c1ccc2cc(F)ccc2n1

>  <score_type>  (38) 
oracle

>  <origin>  (38) 
autodockgpu

>  <m_score__min__energy>  (38) 
-8.5

>  <m_primary>  (38) 
energy

>  <rmsd>  (38) 
5.994905701218407

>  <m_score__min__rmsd>  (38) 
5.994905701218407

>  <meeko>  (38) 
{"free_energy": -7.19, "intermolecular_energy": -9.28, "internal_energy": -2.32, "cluster_size": 2, "cluster_id": 8, "rank_in_cluster": 2}

>  <energy>  (38) 
-7.49

>  <cluster_rmsd>  (38) 
1.69

>  <cluster>  (38) 
5

$$$$

     RDKit          3D

 52 55  0  0  0  0  0  0  0  0999 V2000
  140.9410   71.8580  221.7850 O   0  0  0  0  0  0  0  0  0  0  0  0
  140.0620   71.8900  222.6820 C   0  0  0  0  0  0  0  0  0  0  0  0
  139.0230   72.8720  222.4970 N   0  0  0  0  0  0  0  0  0  0  0  0
  139.1080   73.6900  221.3240 C   0  0  0  0  0  0  0  0  0  0  0  0
  139.5550   75.0610  221.5990 C   0  0  0  0  0  0  0  0  0  0  0  0
  140.7920   75.2740  221.6760 O   0  0  0  0  0  0  0  0  0  0  0  0
  138.5710   76.0740  221.7640 N   0  0  0  0  0  0  0  0  0  0  0  0
  137.4250   76.0660  222.6830 C   0  0  0  0  0  0  0  0  0  0  0  0
  136.4310   77.0280  222.1290 C   0  0  0  0  0  0  0  0  0  0  0  0
  137.0050   77.4080  220.7780 C   0  0  0  0  0  0  0  0  0  0  0  0
  138.4860   77.3240  221.0670 C   0  0  2  0  0  0  0  0  0  0  0  0
  139.3300   77.4460  219.8470 C   0  0  0  0  0  0  0  0  0  0  0  0
  140.7170   77.4900  220.1250 O   0  0  0  0  0  0  0  0  0  0  0  0
  141.1570   78.4450  221.0310 C   0  0  0  0  0  0  0  0  0  0  0  0
  141.4090   78.0450  222.3280 C   0  0  0  0  0  0  0  0  0  0  0  0
  141.8490   78.9150  223.3060 C   0  0  0  0  0  0  0  0  0  0  0  0
  142.0380   80.2180  222.9600 C   0  0  0  0  0  0  0  0  0  0  0  0
  142.5970   81.3360  224.1890 Cl  0  0  0  0  0  0  0  0  0  0  0  0
  141.7910   80.6190  221.6770 C   0  0  0  0  0  0  0  0  0  0  0  0
  141.3500   79.7760  220.6760 C   0  0  0  0  0  0  0  0  0  0  0  0
  140.0730   71.0150  223.8270 C   0  0  0  0  0  0  0  0  0  0  0  0
  139.5420   69.7490  223.6760 C   0  0  0  0  0  0  0  0  0  0  0  0
  139.5050   68.8330  224.7150 C   0  0  0  0  0  0  0  0  0  0  0  0
  140.0300   69.2560  225.9200 C   0  0  0  0  0  0  0  0  0  0  0  0
  139.9970   68.3430  226.9650 C   0  0  0  0  0  0  0  0  0  0  0  0
  140.5040   68.6970  228.1970 C   0  0  0  0  0  0  0  0  0  0  0  0
  140.4710   67.8110  229.2080 F   0  0  0  0  0  0  0  0  0  0  0  0
  141.0400   69.9740  228.3480 C   0  0  0  0  0  0  0  0  0  0  0  0
  141.0720   70.8830  227.3020 C   0  0  0  0  0  0  0  0  0  0  0  0
  140.5640   70.5250  226.0770 C   0  0  0  0  0  0  0  0  0  0  0  0
  140.5580   71.3380  225.0250 N   0  0  0  0  0  0  0  0  0  0  0  0
  138.2500   72.9770  223.1850 H   0  0  0  0  0  0  0  0  0  0  0  0
  139.8195   73.2250  220.6257 H   0  0  0  0  0  0  0  0  0  0  0  0
  138.0944   73.7580  220.9020 H   0  0  0  0  0  0  0  0  0  0  0  0
  136.9885   75.0578  222.7372 H   0  0  0  0  0  0  0  0  0  0  0  0
  137.7296   76.3511  223.7008 H   0  0  0  0  0  0  0  0  0  0  0  0
  135.4461   76.5513  222.0157 H   0  0  0  0  0  0  0  0  0  0  0  0
  136.2731   77.8984  222.7828 H   0  0  0  0  0  0  0  0  0  0  0  0
  136.7041   76.6960  219.9953 H   0  0  0  0  0  0  0  0  0  0  0  0
  136.6693   78.3843  220.3984 H   0  0  0  0  0  0  0  0  0  0  0  0
  138.8873   78.1573  221.6624 H   0  0  0  0  0  0  0  0  0  0  0  0
  139.1318   76.5803  219.1979 H   0  0  0  0  0  0  0  0  0  0  0  0
  139.0655   78.3978  219.3631 H   0  0  0  0  0  0  0  0  0  0  0  0
  141.2528   76.9890  222.5936 H   0  0  0  0  0  0  0  0  0  0  0  0
  142.0406   78.5664  224.3316 H   0  0  0  0  0  0  0  0  0  0  0  0
  141.9534   81.6777  221.4264 H   0  0  0  0  0  0  0  0  0  0  0  0
  141.1617   80.1372  219.6542 H   0  0  0  0  0  0  0  0  0  0  0  0
  139.1343   69.4577  222.6968 H   0  0  0  0  0  0  0  0  0  0  0  0
  139.0814   67.8259  224.5871 H   0  0  0  0  0  0  0  0  0  0  0  0
  139.5683   67.3418  226.8108 H   0  0  0  0  0  0  0  0  0  0  0  0
  141.4495   70.2694  229.3253 H   0  0  0  0  0  0  0  0  0  0  0  0
  141.5014   71.8846  227.4519 H   0  0  0  0  0  0  0  0  0  0  0  0
  1  2  2  0
  2  3  1  0
  3  4  1  0
  4  5  1  0
  5  6  2  0
  5  7  1  0
  7  8  1  0
  8  9  1  0
  9 10  1  0
 10 11  1  0
 11 12  1  0
 12 13  1  0
 13 14  1  0
 14 15  2  0
 15 16  1  0
 16 17  2  0
 17 18  1  0
 17 19  1  0
 19 20  2  0
  2 21  1  0
 21 22  2  0
 22 23  1  0
 23 24  2  0
 24 25  1  0
 25 26  2  0
 26 27  1  0
 26 28  1  0
 28 29  2  0
 29 30  1  0
 30 31  2  0
 11  7  1  0
 20 14  1  0
 31 21  1  0
 30 24  1  0
  3 32  1  0
  4 33  1  0
  4 34  1  0
  8 35  1  0
  8 36  1  0
  9 37  1  0
  9 38  1  0
 10 39  1  0
 10 40  1  0
 11 41  1  1
 12 42  1  0
 12 43  1  0
 15 44  1  0
 16 45  1  0
 19 46  1  0
 20 47  1  0
 22 48  1  0
 23 49  1  0
 25 50  1  0
 28 51  1  0
 29 52  1  0
M  END
>  <smiles>  (39) 
O=C(NCC(=O)N1CCC[C@@H]1COc1ccc(Cl)cc1)c1ccc2cc(F)ccc2n1

>  <score_type>  (39) 
oracle

>  <origin>  (39) 
autodockgpu

>  <m_score__min__energy>  (39) 
-8.5

>  <m_primary>  (39) 
energy

>  <rmsd>  (39) 
2.7583006378504256

>  <m_score__min__rmsd>  (39) 
2.7583006378504256

>  <meeko>  (39) 
{"free_energy": -8.14, "intermolecular_energy": -10.23, "internal_energy": -1.49, "cluster_size": 30, "cluster_id": 1, "rank_in_cluster": 9}

>  <energy>  (39) 
-7.36

>  <cluster_rmsd>  (39) 
0.82

>  <cluster>  (39) 
5

$$$$

     RDKit          3D

 52 55  0  0  0  0  0  0  0  0999 V2000
  136.5710   76.4590  221.6450 O   0  0  0  0  0  0  0  0  0  0  0  0
  137.7050   76.3830  222.1830 C   0  0  0  0  0  0  0  0  0  0  0  0
  138.2020   75.0470  222.3930 N   0  0  0  0  0  0  0  0  0  0  0  0
  137.3590   73.9690  221.9700 C   0  0  0  0  0  0  0  0  0  0  0  0
  138.1020   72.8110  221.4570 C   0  0  0  0  0  0  0  0  0  0  0  0
  138.2290   72.6970  220.2110 O   0  0  0  0  0  0  0  0  0  0  0  0
  138.6350   71.8810  222.3910 N   0  0  0  0  0  0  0  0  0  0  0  0
  137.8960   71.0720  223.3690 C   0  0  0  0  0  0  0  0  0  0  0  0
  138.8720   70.6970  224.4320 C   0  0  0  0  0  0  0  0  0  0  0  0
  140.1130   71.4960  224.0860 C   0  0  0  0  0  0  0  0  0  0  0  0
  140.0140   71.5330  222.5780 C   0  0  2  0  0  0  0  0  0  0  0  0
  141.0060   72.4450  221.9460 C   0  0  0  0  0  0  0  0  0  0  0  0
  140.6570   73.8120  222.0460 O   0  0  0  0  0  0  0  0  0  0  0  0
  141.2430   74.6890  221.1440 C   0  0  0  0  0  0  0  0  0  0  0  0
  140.4430   75.6470  220.5520 C   0  0  0  0  0  0  0  0  0  0  0  0
  140.9280   76.5650  219.6420 C   0  0  0  0  0  0  0  0  0  0  0  0
  142.2500   76.5110  219.3250 C   0  0  0  0  0  0  0  0  0  0  0  0
  142.8810   77.6700  218.1700 Cl  0  0  0  0  0  0  0  0  0  0  0  0
  143.0460   75.5650  219.9070 C   0  0  0  0  0  0  0  0  0  0  0  0
  142.5950   74.6320  220.8210 C   0  0  0  0  0  0  0  0  0  0  0  0
  138.4720   77.5390  222.5710 C   0  0  0  0  0  0  0  0  0  0  0  0
  137.7830   78.7010  222.8650 C   0  0  0  0  0  0  0  0  0  0  0  0
  138.4280   79.8660  223.2470 C   0  0  0  0  0  0  0  0  0  0  0  0
  139.8050   79.8060  223.3200 C   0  0  0  0  0  0  0  0  0  0  0  0
  140.4570   80.9710  223.7020 C   0  0  0  0  0  0  0  0  0  0  0  0
  141.8320   80.9830  223.7960 C   0  0  0  0  0  0  0  0  0  0  0  0
  142.4610   82.1120  224.1680 F   0  0  0  0  0  0  0  0  0  0  0  0
  142.5260   79.8120  223.5010 C   0  0  0  0  0  0  0  0  0  0  0  0
  141.8710   78.6510  223.1190 C   0  0  0  0  0  0  0  0  0  0  0  0
  140.5010   78.6440  223.0270 C   0  0  0  0  0  0  0  0  0  0  0  0
  139.8000   77.5720  222.6680 N   0  0  0  0  0  0  0  0  0  0  0  0
  139.1310   74.8780  222.8310 H   0  0  0  0  0  0  0  0  0  0  0  0
  136.7544   73.6421  222.8289 H   0  0  0  0  0  0  0  0  0  0  0  0
  136.7394   74.3478  221.1438 H   0  0  0  0  0  0  0  0  0  0  0  0
  137.0706   71.6574  223.8003 H   0  0  0  0  0  0  0  0  0  0  0  0
  137.4587   70.1795  222.8977 H   0  0  0  0  0  0  0  0  0  0  0  0
  138.4929   70.9741  225.4267 H   0  0  0  0  0  0  0  0  0  0  0  0
  139.0618   69.6142  224.4707 H   0  0  0  0  0  0  0  0  0  0  0  0
  140.0777   72.5066  224.5190 H   0  0  0  0  0  0  0  0  0  0  0  0
  141.0513   71.0698  224.4707 H   0  0  0  0  0  0  0  0  0  0  0  0
  140.2744   70.5897  222.0756 H   0  0  0  0  0  0  0  0  0  0  0  0
  141.9786   72.2967  222.4380 H   0  0  0  0  0  0  0  0  0  0  0  0
  141.0390   72.1962  220.8750 H   0  0  0  0  0  0  0  0  0  0  0  0
  139.3758   75.6798  220.8165 H   0  0  0  0  0  0  0  0  0  0  0  0
  140.2661   77.3168  219.1873 H   0  0  0  0  0  0  0  0  0  0  0  0
  144.1107   75.5450  219.6311 H   0  0  0  0  0  0  0  0  0  0  0  0
  143.2677   73.8855  221.2685 H   0  0  0  0  0  0  0  0  0  0  0  0
  136.6854   78.7005  222.7932 H   0  0  0  0  0  0  0  0  0  0  0  0
  137.8737   80.7873  223.4791 H   0  0  0  0  0  0  0  0  0  0  0  0
  139.8793   81.8793  223.9283 H   0  0  0  0  0  0  0  0  0  0  0  0
  143.6236   79.8080  223.5730 H   0  0  0  0  0  0  0  0  0  0  0  0
  142.4455   77.7411  222.8910 H   0  0  0  0  0  0  0  0  0  0  0  0
  1  2  2  0
  2  3  1  0
  3  4  1  0
  4  5  1  0
  5  6  2  0
  5  7  1  0
  7  8  1  0
  8  9  1  0
  9 10  1  0
 10 11  1  0
 11 12  1  0
 12 13  1  0
 13 14  1  0
 14 15  2  0
 15 16  1  0
 16 17  2  0
 17 18  1  0
 17 19  1  0
 19 20  2  0
  2 21  1  0
 21 22  2  0
 22 23  1  0
 23 24  2  0
 24 25  1  0
 25 26  2  0
 26 27  1  0
 26 28  1  0
 28 29  2  0
 29 30  1  0
 30 31  2  0
 11  7  1  0
 20 14  1  0
 31 21  1  0
 30 24  1  0
  3 32  1  0
  4 33  1  0
  4 34  1  0
  8 35  1  0
  8 36  1  0
  9 37  1  0
  9 38  1  0
 10 39  1  0
 10 40  1  0
 11 41  1  6
 12 42  1  0
 12 43  1  0
 15 44  1  0
 16 45  1  0
 19 46  1  0
 20 47  1  0
 22 48  1  0
 23 49  1  0
 25 50  1  0
 28 51  1  0
 29 52  1  0
M  END
>  <smiles>  (40) 
O=C(NCC(=O)N1CCC[C@@H]1COc1ccc(Cl)cc1)c1ccc2cc(F)ccc2n1

>  <score_type>  (40) 
oracle

>  <origin>  (40) 
autodockgpu

>  <m_score__min__energy>  (40) 
-8.5

>  <m_primary>  (40) 
energy

>  <rmsd>  (40) 
8.390942929216461

>  <m_score__min__rmsd>  (40) 
8.390942929216461

>  <meeko>  (40) 
{"free_energy": -6.79, "intermolecular_energy": -8.87, "internal_energy": -3.13, "cluster_size": 2, "cluster_id": 10, "rank_in_cluster": 1}

>  <energy>  (40) 
-6.83

>  <cluster_rmsd>  (40) 
1.46

>  <cluster>  (40) 
5

$$$$

     RDKit          3D

 52 55  0  0  0  0  0  0  0  0999 V2000
  138.1290   71.1310  221.4920 O   0  0  0  0  0  0  0  0  0  0  0  0
  138.7120   71.6810  222.4600 C   0  0  0  0  0  0  0  0  0  0  0  0
  138.9370   73.0980  222.3240 N   0  0  0  0  0  0  0  0  0  0  0  0
  138.4750   73.7120  221.1160 C   0  0  0  0  0  0  0  0  0  0  0  0
  139.2740   73.3580  219.9360 C   0  0  0  0  0  0  0  0  0  0  0  0
  138.6740   72.8840  218.9370 O   0  0  0  0  0  0  0  0  0  0  0  0
  140.6800   73.5660  219.9820 N   0  0  0  0  0  0  0  0  0  0  0  0
  141.7190   72.5810  220.3120 C   0  0  0  0  0  0  0  0  0  0  0  0
  142.9140   73.3580  220.7500 C   0  0  0  0  0  0  0  0  0  0  0  0
  142.4130   74.7860  220.8270 C   0  0  0  0  0  0  0  0  0  0  0  0
  141.3860   74.7850  219.7170 C   0  0  2  0  0  0  0  0  0  0  0  0
  140.5580   76.0220  219.6830 C   0  0  0  0  0  0  0  0  0  0  0  0
  139.9550   76.3300  220.9240 O   0  0  0  0  0  0  0  0  0  0  0  0
  140.4520   77.4210  221.6230 C   0  0  0  0  0  0  0  0  0  0  0  0
  141.6230   78.0020  221.1780 C   0  0  0  0  0  0  0  0  0  0  0  0
  142.2000   79.0900  221.8020 C   0  0  0  0  0  0  0  0  0  0  0  0
  141.5780   79.5990  222.9000 C   0  0  0  0  0  0  0  0  0  0  0  0
  142.2990   80.9800  223.7040 Cl  0  0  0  0  0  0  0  0  0  0  0  0
  140.4190   79.0280  223.3450 C   0  0  0  0  0  0  0  0  0  0  0  0
  139.8150   77.9400  222.7460 C   0  0  0  0  0  0  0  0  0  0  0  0
  139.1370   70.9620  223.6350 C   0  0  0  0  0  0  0  0  0  0  0  0
  138.9170   69.5980  223.6710 C   0  0  0  0  0  0  0  0  0  0  0  0
  139.2880   68.8180  224.7550 C   0  0  0  0  0  0  0  0  0  0  0  0
  139.8920   69.4800  225.8050 C   0  0  0  0  0  0  0  0  0  0  0  0
  140.2660   68.7030  226.8930 C   0  0  0  0  0  0  0  0  0  0  0  0
  140.8750   69.2980  227.9780 C   0  0  0  0  0  0  0  0  0  0  0  0
  141.2360   68.5430  229.0300 F   0  0  0  0  0  0  0  0  0  0  0  0
  141.0970   70.6720  227.9400 C   0  0  0  0  0  0  0  0  0  0  0  0
  140.7220   71.4440  226.8510 C   0  0  0  0  0  0  0  0  0  0  0  0
  140.1150   70.8470  225.7730 C   0  0  0  0  0  0  0  0  0  0  0  0
  139.7270   71.5170  224.6920 N   0  0  0  0  0  0  0  0  0  0  0  0
  139.4120   73.6440  223.0710 H   0  0  0  0  0  0  0  0  0  0  0  0
  137.4360   73.3964  220.9404 H   0  0  0  0  0  0  0  0  0  0  0  0
  138.5634   74.8000  221.2519 H   0  0  0  0  0  0  0  0  0  0  0  0
  141.3750   71.9230  221.1236 H   0  0  0  0  0  0  0  0  0  0  0  0
  141.9535   71.9444  219.4461 H   0  0  0  0  0  0  0  0  0  0  0  0
  143.2659   73.0133  221.7335 H   0  0  0  0  0  0  0  0  0  0  0  0
  143.7676   73.2446  220.0655 H   0  0  0  0  0  0  0  0  0  0  0  0
  141.9542   75.0022  221.8031 H   0  0  0  0  0  0  0  0  0  0  0  0
  143.1970   75.5504  220.7220 H   0  0  0  0  0  0  0  0  0  0  0  0
  141.8053   74.8065  218.7003 H   0  0  0  0  0  0  0  0  0  0  0  0
  141.2019   76.8643  219.3900 H   0  0  0  0  0  0  0  0  0  0  0  0
  139.7455   75.8483  218.9622 H   0  0  0  0  0  0  0  0  0  0  0  0
  142.1164   77.5806  220.2897 H   0  0  0  0  0  0  0  0  0  0  0  0
  143.1336   79.5317  221.4233 H   0  0  0  0  0  0  0  0  0  0  0  0
  139.9379   79.4612  224.2343 H   0  0  0  0  0  0  0  0  0  0  0  0
  138.8816   77.5074  223.1353 H   0  0  0  0  0  0  0  0  0  0  0  0
  138.4311   69.1151  222.8103 H   0  0  0  0  0  0  0  0  0  0  0  0
  139.1111   67.7326  224.7773 H   0  0  0  0  0  0  0  0  0  0  0  0
  140.0777   67.6192  226.8897 H   0  0  0  0  0  0  0  0  0  0  0  0
  141.5836   71.1588  228.7981 H   0  0  0  0  0  0  0  0  0  0  0  0
  140.9094   72.5279  226.8503 H   0  0  0  0  0  0  0  0  0  0  0  0
  1  2  2  0
  2  3  1  0
  3  4  1  0
  4  5  1  0
  5  6  2  0
  5  7  1  0
  7  8  1  0
  8  9  1  0
  9 10  1  0
 10 11  1  0
 11 12  1  0
 12 13  1  0
 13 14  1  0
 14 15  2  0
 15 16  1  0
 16 17  2  0
 17 18  1  0
 17 19  1  0
 19 20  2  0
  2 21  1  0
 21 22  2  0
 22 23  1  0
 23 24  2  0
 24 25  1  0
 25 26  2  0
 26 27  1  0
 26 28  1  0
 28 29  2  0
 29 30  1  0
 30 31  2  0
 11  7  1  0
 20 14  1  0
 31 21  1  0
 30 24  1  0
  3 32  1  0
  4 33  1  0
  4 34  1  0
  8 35  1  0
  8 36  1  0
  9 37  1  0
  9 38  1  0
 10 39  1  0
 10 40  1  0
 11 41  1  6
 12 42  1  0
 12 43  1  0
 15 44  1  0
 16 45  1  0
 19 46  1  0
 20 47  1  0
 22 48  1  0
 23 49  1  0
 25 50  1  0
 28 51  1  0
 29 52  1  0
M  END
>  <smiles>  (41) 
O=C(NCC(=O)N1CCC[C@@H]1COc1ccc(Cl)cc1)c1ccc2cc(F)ccc2n1

>  <score_type>  (41) 
oracle

>  <origin>  (41) 
autodockgpu

>  <m_score__min__energy>  (41) 
-8.5

>  <m_primary>  (41) 
energy

>  <rmsd>  (41) 
2.4254694290452936

>  <m_score__min__rmsd>  (41) 
2.4254694290452936

>  <meeko>  (41) 
{"free_energy": -7.46, "intermolecular_energy": -9.55, "internal_energy": -1.91, "cluster_size": 30, "cluster_id": 1, "rank_in_cluster": 24}

>  <energy>  (41) 
-7.44

>  <cluster_rmsd>  (41) 
0.0

>  <cluster>  (41) 
6

$$$$

     RDKit          3D

 52 55  0  0  0  0  0  0  0  0999 V2000
  141.1530   72.0310  221.3830 O   0  0  0  0  0  0  0  0  0  0  0  0
  140.4890   72.3920  222.3870 C   0  0  0  0  0  0  0  0  0  0  0  0
  139.9050   73.7070  222.3010 N   0  0  0  0  0  0  0  0  0  0  0  0
  140.1440   74.4440  221.0970 C   0  0  0  0  0  0  0  0  0  0  0  0
  140.8700   75.7010  221.3140 C   0  0  0  0  0  0  0  0  0  0  0  0
  140.6220   76.3530  222.3610 O   0  0  0  0  0  0  0  0  0  0  0  0
  141.8130   76.1170  220.3350 N   0  0  0  0  0  0  0  0  0  0  0  0
  141.7530   77.3180  219.4900 C   0  0  0  0  0  0  0  0  0  0  0  0
  142.6180   77.0460  218.3060 C   0  0  0  0  0  0  0  0  0  0  0  0
  142.9900   75.5840  218.4540 C   0  0  0  0  0  0  0  0  0  0  0  0
  143.0270   75.4530  219.9600 C   0  0  2  0  0  0  0  0  0  0  0  0
  143.1670   74.0450  220.4240 C   0  0  0  0  0  0  0  0  0  0  0  0
  144.5020   73.5790  220.4090 O   0  0  0  0  0  0  0  0  0  0  0  0
  144.7130   72.2570  220.0410 C   0  0  0  0  0  0  0  0  0  0  0  0
  143.6490   71.3800  220.1220 C   0  0  0  0  0  0  0  0  0  0  0  0
  143.7540   70.0460  219.7800 C   0  0  0  0  0  0  0  0  0  0  0  0
  144.9620   69.5920  219.3480 C   0  0  0  0  0  0  0  0  0  0  0  0
  145.1120   67.9010  218.9110 Cl  0  0  0  0  0  0  0  0  0  0  0  0
  146.0180   70.4550  219.2670 C   0  0  0  0  0  0  0  0  0  0  0  0
  145.9490   71.7940  219.6000 C   0  0  0  0  0  0  0  0  0  0  0  0
  140.3110   71.5660  223.5530 C   0  0  0  0  0  0  0  0  0  0  0  0
  139.6530   70.3610  223.3960 C   0  0  0  0  0  0  0  0  0  0  0  0
  139.4310   69.4950  224.4550 C   0  0  0  0  0  0  0  0  0  0  0  0
  139.9060   69.9020  225.6850 C   0  0  0  0  0  0  0  0  0  0  0  0
  139.6870   69.0380  226.7500 C   0  0  0  0  0  0  0  0  0  0  0  0
  140.1350   69.3810  228.0080 C   0  0  0  0  0  0  0  0  0  0  0  0
  139.9220   68.5420  229.0380 F   0  0  0  0  0  0  0  0  0  0  0  0
  140.7990   70.5940  228.1660 C   0  0  0  0  0  0  0  0  0  0  0  0
  141.0160   71.4540  227.1000 C   0  0  0  0  0  0  0  0  0  0  0  0
  140.5680   71.1090  225.8490 C   0  0  0  0  0  0  0  0  0  0  0  0
  140.7360   71.8770  224.7770 N   0  0  0  0  0  0  0  0  0  0  0  0
  139.3370   74.0970  223.0810 H   0  0  0  0  0  0  0  0  0  0  0  0
  140.7341   73.8144  220.4148 H   0  0  0  0  0  0  0  0  0  0  0  0
  139.1614   74.7063  220.6779 H   0  0  0  0  0  0  0  0  0  0  0  0
  140.7177   77.5057  219.1692 H   0  0  0  0  0  0  0  0  0  0  0  0
  142.0968   78.2077  220.0380 H   0  0  0  0  0  0  0  0  0  0  0  0
  142.0654   77.2164  217.3703 H   0  0  0  0  0  0  0  0  0  0  0  0
  143.4976   77.7051  218.2630 H   0  0  0  0  0  0  0  0  0  0  0  0
  142.2296   74.9256  218.0088 H   0  0  0  0  0  0  0  0  0  0  0  0
  143.9242   75.2980  217.9486 H   0  0  0  0  0  0  0  0  0  0  0  0
  143.9091   75.9022  220.4398 H   0  0  0  0  0  0  0  0  0  0  0  0
  142.7857   73.9776  221.4536 H   0  0  0  0  0  0  0  0  0  0  0  0
  142.5952   73.4149  219.7268 H   0  0  0  0  0  0  0  0  0  0  0  0
  142.6782   71.7596  220.4733 H   0  0  0  0  0  0  0  0  0  0  0  0
  142.8882   69.3716  219.8545 H   0  0  0  0  0  0  0  0  0  0  0  0
  146.9822   70.0595  218.9151 H   0  0  0  0  0  0  0  0  0  0  0  0
  146.8228   72.4575  219.5209 H   0  0  0  0  0  0  0  0  0  0  0  0
  139.2928   70.0793  222.3955 H   0  0  0  0  0  0  0  0  0  0  0  0
  138.9059   68.5375  224.3226 H   0  0  0  0  0  0  0  0  0  0  0  0
  139.1594   68.0860  226.5909 H   0  0  0  0  0  0  0  0  0  0  0  0
  141.1619   70.8785  229.1647 H   0  0  0  0  0  0  0  0  0  0  0  0
  141.5437   72.4065  227.2558 H   0  0  0  0  0  0  0  0  0  0  0  0
  1  2  2  0
  2  3  1  0
  3  4  1  0
  4  5  1  0
  5  6  2  0
  5  7  1  0
  7  8  1  0
  8  9  1  0
  9 10  1  0
 10 11  1  0
 11 12  1  0
 12 13  1  0
 13 14  1  0
 14 15  2  0
 15 16  1  0
 16 17  2  0
 17 18  1  0
 17 19  1  0
 19 20  2  0
  2 21  1  0
 21 22  2  0
 22 23  1  0
 23 24  2  0
 24 25  1  0
 25 26  2  0
 26 27  1  0
 26 28  1  0
 28 29  2  0
 29 30  1  0
 30 31  2  0
 11  7  1  0
 20 14  1  0
 31 21  1  0
 30 24  1  0
  3 32  1  0
  4 33  1  0
  4 34  1  0
  8 35  1  0
  8 36  1  0
  9 37  1  0
  9 38  1  0
 10 39  1  0
 10 40  1  0
 11 41  1  1
 12 42  1  0
 12 43  1  0
 15 44  1  0
 16 45  1  0
 19 46  1  0
 20 47  1  0
 22 48  1  0
 23 49  1  0
 25 50  1  0
 28 51  1  0
 29 52  1  0
M  END
>  <smiles>  (42) 
O=C(NCC(=O)N1CCC[C@@H]1COc1ccc(Cl)cc1)c1ccc2cc(F)ccc2n1

>  <score_type>  (42) 
oracle

>  <origin>  (42) 
autodockgpu

>  <m_score__min__energy>  (42) 
-8.5

>  <m_primary>  (42) 
energy

>  <rmsd>  (42) 
2.2017716858016283

>  <m_score__min__rmsd>  (42) 
2.2017716858016283

>  <meeko>  (42) 
{"free_energy": -8.02, "intermolecular_energy": -10.1, "internal_energy": -1.66, "cluster_size": 1, "cluster_id": 3, "rank_in_cluster": 1}

>  <energy>  (42) 
-7.42

>  <cluster_rmsd>  (42) 
0.0

>  <cluster>  (42) 
7

$$$$

     RDKit          3D

 52 55  0  0  0  0  0  0  0  0999 V2000
  137.2840   76.1460  220.9990 O   0  0  0  0  0  0  0  0  0  0  0  0
  138.1930   76.0970  221.8660 C   0  0  0  0  0  0  0  0  0  0  0  0
  138.5250   74.7780  222.3410 N   0  0  0  0  0  0  0  0  0  0  0  0
  137.7900   73.6850  221.7810 C   0  0  0  0  0  0  0  0  0  0  0  0
  138.4900   73.0130  220.6790 C   0  0  0  0  0  0  0  0  0  0  0  0
  137.9570   71.9890  220.1780 O   0  0  0  0  0  0  0  0  0  0  0  0
  139.7300   73.5490  220.2360 N   0  0  0  0  0  0  0  0  0  0  0  0
  139.9770   74.3510  219.0300 C   0  0  0  0  0  0  0  0  0  0  0  0
  141.4290   74.2090  218.7190 C   0  0  0  0  0  0  0  0  0  0  0  0
  141.9080   73.1500  219.6910 C   0  0  0  0  0  0  0  0  0  0  0  0
  141.0070   73.4220  220.8730 C   0  0  2  0  0  0  0  0  0  0  0  0
  141.1030   72.3840  221.9360 C   0  0  0  0  0  0  0  0  0  0  0  0
  140.2950   72.6580  223.0640 O   0  0  0  0  0  0  0  0  0  0  0  0
  140.1510   71.6480  224.0070 C   0  0  0  0  0  0  0  0  0  0  0  0
  140.8150   71.7810  225.2100 C   0  0  0  0  0  0  0  0  0  0  0  0
  140.7380   70.8350  226.2130 C   0  0  0  0  0  0  0  0  0  0  0  0
  139.9730   69.7320  225.9910 C   0  0  0  0  0  0  0  0  0  0  0  0
  139.8650   68.5210  227.2540 Cl  0  0  0  0  0  0  0  0  0  0  0  0
  139.3140   69.5950  224.8010 C   0  0  0  0  0  0  0  0  0  0  0  0
  139.3680   70.5210  223.7780 C   0  0  0  0  0  0  0  0  0  0  0  0
  138.8710   77.2680  222.3620 C   0  0  0  0  0  0  0  0  0  0  0  0
  138.0970   78.2980  222.8630 C   0  0  0  0  0  0  0  0  0  0  0  0
  138.6520   79.4640  223.3630 C   0  0  0  0  0  0  0  0  0  0  0  0
  140.0300   79.5450  223.3360 C   0  0  0  0  0  0  0  0  0  0  0  0
  140.5930   80.7120  223.8360 C   0  0  0  0  0  0  0  0  0  0  0  0
  141.9630   80.8610  223.8400 C   0  0  0  0  0  0  0  0  0  0  0  0
  142.5050   81.9920  224.3260 F   0  0  0  0  0  0  0  0  0  0  0  0
  142.7420   79.8220  223.3360 C   0  0  0  0  0  0  0  0  0  0  0  0
  142.1770   78.6590  222.8370 C   0  0  0  0  0  0  0  0  0  0  0  0
  140.8110   78.5150  222.8360 C   0  0  0  0  0  0  0  0  0  0  0  0
  140.1930   77.4320  222.3760 N   0  0  0  0  0  0  0  0  0  0  0  0
  139.2650   74.6330  223.0590 H   0  0  0  0  0  0  0  0  0  0  0  0
  137.6026   72.9478  222.5756 H   0  0  0  0  0  0  0  0  0  0  0  0
  136.8581   74.0989  221.3683 H   0  0  0  0  0  0  0  0  0  0  0  0
  139.3703   73.9756  218.1928 H   0  0  0  0  0  0  0  0  0  0  0  0
  139.7049   75.4048  219.1896 H   0  0  0  0  0  0  0  0  0  0  0  0
  141.5763   73.8813  217.6793 H   0  0  0  0  0  0  0  0  0  0  0  0
  141.9789   75.1564  218.8190 H   0  0  0  0  0  0  0  0  0  0  0  0
  141.7571   72.1362  219.2918 H   0  0  0  0  0  0  0  0  0  0  0  0
  142.9833   73.1938  219.9185 H   0  0  0  0  0  0  0  0  0  0  0  0
  141.2688   74.3176  221.4556 H   0  0  0  0  0  0  0  0  0  0  0  0
  140.7912   71.4190  221.5100 H   0  0  0  0  0  0  0  0  0  0  0  0
  142.1474   72.3685  222.2810 H   0  0  0  0  0  0  0  0  0  0  0  0
  141.4306   72.6773  225.3764 H   0  0  0  0  0  0  0  0  0  0  0  0
  141.2783   70.9690  227.1618 H   0  0  0  0  0  0  0  0  0  0  0  0
  138.7038   68.6924  224.6492 H   0  0  0  0  0  0  0  0  0  0  0  0
  138.8221   70.3756  222.8342 H   0  0  0  0  0  0  0  0  0  0  0  0
  137.0026   78.1876  222.8645 H   0  0  0  0  0  0  0  0  0  0  0  0
  138.0298   80.2799  223.7595 H   0  0  0  0  0  0  0  0  0  0  0  0
  139.9487   81.5133  224.2268 H   0  0  0  0  0  0  0  0  0  0  0  0
  143.8369   79.9276  223.3340 H   0  0  0  0  0  0  0  0  0  0  0  0
  142.8184   77.8563  222.4442 H   0  0  0  0  0  0  0  0  0  0  0  0
  1  2  2  0
  2  3  1  0
  3  4  1  0
  4  5  1  0
  5  6  2  0
  5  7  1  0
  7  8  1  0
  8  9  1  0
  9 10  1  0
 10 11  1  0
 11 12  1  0
 12 13  1  0
 13 14  1  0
 14 15  2  0
 15 16  1  0
 16 17  2  0
 17 18  1  0
 17 19  1  0
 19 20  2  0
  2 21  1  0
 21 22  2  0
 22 23  1  0
 23 24  2  0
 24 25  1  0
 25 26  2  0
 26 27  1  0
 26 28  1  0
 28 29  2  0
 29 30  1  0
 30 31  2  0
 11  7  1  0
 20 14  1  0
 31 21  1  0
 30 24  1  0
  3 32  1  0
  4 33  1  0
  4 34  1  0
  8 35  1  0
  8 36  1  0
  9 37  1  0
  9 38  1  0
 10 39  1  0
 10 40  1  0
 11 41  1  1
 12 42  1  0
 12 43  1  0
 15 44  1  0
 16 45  1  0
 19 46  1  0
 20 47  1  0
 22 48  1  0
 23 49  1  0
 25 50  1  0
 28 51  1  0
 29 52  1  0
M  END
>  <smiles>  (43) 
O=C(NCC(=O)N1CCC[C@@H]1COc1ccc(Cl)cc1)c1ccc2cc(F)ccc2n1

>  <score_type>  (43) 
oracle

>  <origin>  (43) 
autodockgpu

>  <m_score__min__energy>  (43) 
-8.5

>  <m_primary>  (43) 
energy

>  <rmsd>  (43) 
7.418383250631288

>  <m_score__min__rmsd>  (43) 
7.418383250631288

>  <meeko>  (43) 
{"free_energy": -7.17, "intermolecular_energy": -9.26, "internal_energy": -2.53, "cluster_size": 1, "cluster_id": 9, "rank_in_cluster": 1}

>  <energy>  (43) 
-7.37

>  <cluster_rmsd>  (43) 
0.0

>  <cluster>  (43) 
8

$$$$

     RDKit          3D

 52 55  0  0  0  0  0  0  0  0999 V2000
  141.5460   73.7350  221.1260 O   0  0  0  0  0  0  0  0  0  0  0  0
  140.7370   74.5370  221.6570 C   0  0  0  0  0  0  0  0  0  0  0  0
  139.5970   73.9310  222.2990 N   0  0  0  0  0  0  0  0  0  0  0  0
  139.5160   72.5020  222.2600 C   0  0  0  0  0  0  0  0  0  0  0  0
  138.3280   72.0030  221.5570 C   0  0  0  0  0  0  0  0  0  0  0  0
  138.3080   72.0820  220.3010 O   0  0  0  0  0  0  0  0  0  0  0  0
  137.2630   71.4590  222.3260 N   0  0  0  0  0  0  0  0  0  0  0  0
  136.0240   72.1320  222.7390 C   0  0  0  0  0  0  0  0  0  0  0  0
  135.5140   71.3880  223.9260 C   0  0  0  0  0  0  0  0  0  0  0  0
  136.6260   70.4110  224.2500 C   0  0  0  0  0  0  0  0  0  0  0  0
  137.1710   70.1350  222.8680 C   0  0  2  0  0  0  0  0  0  0  0  0
  138.4360   69.3490  222.8810 C   0  0  0  0  0  0  0  0  0  0  0  0
  138.6590   68.6640  224.0980 O   0  0  0  0  0  0  0  0  0  0  0  0
  139.2720   69.3680  225.1250 C   0  0  0  0  0  0  0  0  0  0  0  0
  139.9320   70.5390  224.8090 C   0  0  0  0  0  0  0  0  0  0  0  0
  140.5730   71.3130  225.7560 C   0  0  0  0  0  0  0  0  0  0  0  0
  140.5460   70.8910  227.0490 C   0  0  0  0  0  0  0  0  0  0  0  0
  141.3560   71.8620  228.2630 Cl  0  0  0  0  0  0  0  0  0  0  0  0
  139.8940   69.7320  227.3680 C   0  0  0  0  0  0  0  0  0  0  0  0
  139.2430   68.9350  226.4470 C   0  0  0  0  0  0  0  0  0  0  0  0
  140.9170   75.9660  221.6380 C   0  0  0  0  0  0  0  0  0  0  0  0
  140.8940   76.6030  220.4120 C   0  0  0  0  0  0  0  0  0  0  0  0
  141.0580   77.9730  220.2860 C   0  0  0  0  0  0  0  0  0  0  0  0
  141.2470   78.6750  221.4600 C   0  0  0  0  0  0  0  0  0  0  0  0
  141.4120   80.0480  221.3410 C   0  0  0  0  0  0  0  0  0  0  0  0
  141.6050   80.8120  222.4710 C   0  0  0  0  0  0  0  0  0  0  0  0
  141.7640   82.1420  222.3530 F   0  0  0  0  0  0  0  0  0  0  0  0
  141.6270   80.1700  223.7070 C   0  0  0  0  0  0  0  0  0  0  0  0
  141.4620   78.7990  223.8220 C   0  0  0  0  0  0  0  0  0  0  0  0
  141.2700   78.0420  222.6920 C   0  0  0  0  0  0  0  0  0  0  0  0
  141.1040   76.7230  222.7180 N   0  0  0  0  0  0  0  0  0  0  0  0
  138.8710   74.5110  222.7680 H   0  0  0  0  0  0  0  0  0  0  0  0
  140.4107   72.1161  221.7494 H   0  0  0  0  0  0  0  0  0  0  0  0
  139.4472   72.1528  223.3008 H   0  0  0  0  0  0  0  0  0  0  0  0
  136.2310   73.1787  223.0066 H   0  0  0  0  0  0  0  0  0  0  0  0
  135.2841   72.1380  221.9251 H   0  0  0  0  0  0  0  0  0  0  0  0
  135.3357   72.0715  224.7692 H   0  0  0  0  0  0  0  0  0  0  0  0
  134.5535   70.8881  223.7324 H   0  0  0  0  0  0  0  0  0  0  0  0
  137.3867   70.8650  224.9021 H   0  0  0  0  0  0  0  0  0  0  0  0
  136.3000   69.5150  224.7986 H   0  0  0  0  0  0  0  0  0  0  0  0
  136.5430   69.4779  222.2485 H   0  0  0  0  0  0  0  0  0  0  0  0
  138.3957   68.6100  222.0672 H   0  0  0  0  0  0  0  0  0  0  0  0
  139.2632   70.0628  222.7538 H   0  0  0  0  0  0  0  0  0  0  0  0
  139.9478   70.8688  223.7597 H   0  0  0  0  0  0  0  0  0  0  0  0
  141.0895   72.2422  225.4736 H   0  0  0  0  0  0  0  0  0  0  0  0
  139.8877   69.4155  228.4215 H   0  0  0  0  0  0  0  0  0  0  0  0
  138.7294   68.0082  226.7425 H   0  0  0  0  0  0  0  0  0  0  0  0
  140.7401   76.0013  219.5041 H   0  0  0  0  0  0  0  0  0  0  0  0
  141.0387   78.4730  219.3064 H   0  0  0  0  0  0  0  0  0  0  0  0
  141.3888   80.5237  220.3494 H   0  0  0  0  0  0  0  0  0  0  0  0
  141.7797   80.7682  224.6174 H   0  0  0  0  0  0  0  0  0  0  0  0
  141.4846   78.3199  224.8119 H   0  0  0  0  0  0  0  0  0  0  0  0
  1  2  2  0
  2  3  1  0
  3  4  1  0
  4  5  1  0
  5  6  2  0
  5  7  1  0
  7  8  1  0
  8  9  1  0
  9 10  1  0
 10 11  1  0
 11 12  1  0
 12 13  1  0
 13 14  1  0
 14 15  2  0
 15 16  1  0
 16 17  2  0
 17 18  1  0
 17 19  1  0
 19 20  2  0
  2 21  1  0
 21 22  2  0
 22 23  1  0
 23 24  2  0
 24 25  1  0
 25 26  2  0
 26 27  1  0
 26 28  1  0
 28 29  2  0
 29 30  1  0
 30 31  2  0
 11  7  1  0
 20 14  1  0
 31 21  1  0
 30 24  1  0
  3 32  1  0
  4 33  1  0
  4 34  1  0
  8 35  1  0
  8 36  1  0
  9 37  1  0
  9 38  1  0
 10 39  1  0
 10 40  1  0
 11 41  1  6
 12 42  1  0
 12 43  1  0
 15 44  1  0
 16 45  1  0
 19 46  1  0
 20 47  1  0
 22 48  1  0
 23 49  1  0
 25 50  1  0
 28 51  1  0
 29 52  1  0
M  END
>  <smiles>  (44) 
O=C(NCC(=O)N1CCC[C@@H]1COc1ccc(Cl)cc1)c1ccc2cc(F)ccc2n1

>  <score_type>  (44) 
oracle

>  <origin>  (44) 
autodockgpu

>  <m_score__min__energy>  (44) 
-8.5

>  <m_primary>  (44) 
energy

>  <rmsd>  (44) 
8.509452927070322

>  <m_score__min__rmsd>  (44) 
8.509452927070322

>  <meeko>  (44) 
{"free_energy": -7.76, "intermolecular_energy": -9.85, "internal_energy": -1.46, "cluster_size": 3, "cluster_id": 4, "rank_in_cluster": 1}

>  <energy>  (44) 
-7.19

>  <cluster_rmsd>  (44) 
0.78

>  <cluster>  (44) 
8

$$$$

     RDKit          3D

 52 55  0  0  0  0  0  0  0  0999 V2000
  139.4520   74.3330  222.3370 O   0  0  0  0  0  0  0  0  0  0  0  0
  140.5420   74.7590  221.8760 C   0  0  0  0  0  0  0  0  0  0  0  0
  140.7580   76.1770  222.0080 N   0  0  0  0  0  0  0  0  0  0  0  0
  139.7200   76.9330  222.6420 C   0  0  0  0  0  0  0  0  0  0  0  0
  139.8430   78.3820  222.4380 C   0  0  0  0  0  0  0  0  0  0  0  0
  138.8250   79.0130  222.0550 O   0  0  0  0  0  0  0  0  0  0  0  0
  141.1030   78.9960  222.6800 N   0  0  0  0  0  0  0  0  0  0  0  0
  141.6170   79.5080  223.9570 C   0  0  0  0  0  0  0  0  0  0  0  0
  142.6760   80.5010  223.6190 C   0  0  0  0  0  0  0  0  0  0  0  0
  142.5760   80.6430  222.1140 C   0  0  0  0  0  0  0  0  0  0  0  0
  142.1440   79.2470  221.7270 C   0  0  2  0  0  0  0  0  0  0  0  0
  141.7560   79.1280  220.2950 C   0  0  0  0  0  0  0  0  0  0  0  0
  141.0110   77.9600  220.0090 O   0  0  0  0  0  0  0  0  0  0  0  0
  141.6190   76.9920  219.2210 C   0  0  0  0  0  0  0  0  0  0  0  0
  142.9990   76.9630  219.1720 C   0  0  0  0  0  0  0  0  0  0  0  0
  143.7000   76.0420  218.4200 C   0  0  0  0  0  0  0  0  0  0  0  0
  142.9880   75.1310  217.7030 C   0  0  0  0  0  0  0  0  0  0  0  0
  143.8630   73.9540  216.7420 Cl  0  0  0  0  0  0  0  0  0  0  0  0
  141.6220   75.1550  217.7470 C   0  0  0  0  0  0  0  0  0  0  0  0
  140.8900   76.0620  218.4880 C   0  0  0  0  0  0  0  0  0  0  0  0
  141.5210   73.9040  221.2550 C   0  0  0  0  0  0  0  0  0  0  0  0
  141.0880   72.7000  220.7330 C   0  0  0  0  0  0  0  0  0  0  0  0
  141.9510   71.8080  220.1160 C   0  0  0  0  0  0  0  0  0  0  0  0
  143.2770   72.1880  220.0500 C   0  0  0  0  0  0  0  0  0  0  0  0
  144.1460   71.2990  219.4330 C   0  0  0  0  0  0  0  0  0  0  0  0
  145.4840   71.6140  219.3310 C   0  0  0  0  0  0  0  0  0  0  0  0
  146.3240   70.7510  218.7320 F   0  0  0  0  0  0  0  0  0  0  0  0
  145.9200   72.8280  219.8570 C   0  0  0  0  0  0  0  0  0  0  0  0
  145.0490   73.7130  220.4730 C   0  0  0  0  0  0  0  0  0  0  0  0
  143.7160   73.3950  220.5710 C   0  0  0  0  0  0  0  0  0  0  0  0
  142.8180   74.1890  221.1460 N   0  0  0  0  0  0  0  0  0  0  0  0
  141.6290   76.6260  221.6580 H   0  0  0  0  0  0  0  0  0  0  0  0
  138.7521   76.6050  222.2351 H   0  0  0  0  0  0  0  0  0  0  0  0
  139.8011   76.7504  223.7237 H   0  0  0  0  0  0  0  0  0  0  0  0
  140.8091   79.9924  224.5251 H   0  0  0  0  0  0  0  0  0  0  0  0
  142.0183   78.6945  224.5793 H   0  0  0  0  0  0  0  0  0  0  0  0
  142.4834   81.4630  224.1164 H   0  0  0  0  0  0  0  0  0  0  0  0
  143.6760   80.1835  223.9495 H   0  0  0  0  0  0  0  0  0  0  0  0
  141.8248   81.3936  221.8270 H   0  0  0  0  0  0  0  0  0  0  0  0
  143.5003   80.9859  221.6260 H   0  0  0  0  0  0  0  0  0  0  0  0
  142.9394   78.4887  221.7739 H   0  0  0  0  0  0  0  0  0  0  0  0
  141.1481   80.0040  220.0247 H   0  0  0  0  0  0  0  0  0  0  0  0
  142.6862   79.0705  219.7107 H   0  0  0  0  0  0  0  0  0  0  0  0
  143.5629   77.7048  219.7566 H   0  0  0  0  0  0  0  0  0  0  0  0
  144.7998   76.0445  218.4010 H   0  0  0  0  0  0  0  0  0  0  0  0
  141.0726   74.4069  217.1567 H   0  0  0  0  0  0  0  0  0  0  0  0
  139.7901   76.0494  218.4978 H   0  0  0  0  0  0  0  0  0  0  0  0
  140.0218   72.4406  220.8098 H   0  0  0  0  0  0  0  0  0  0  0  0
  141.5995   70.8513  219.7022 H   0  0  0  0  0  0  0  0  0  0  0  0
  143.7691   70.3484  219.0277 H   0  0  0  0  0  0  0  0  0  0  0  0
  146.9852   73.0917  219.7814 H   0  0  0  0  0  0  0  0  0  0  0  0
  145.4226   74.6638  220.8808 H   0  0  0  0  0  0  0  0  0  0  0  0
  1  2  2  0
  2  3  1  0
  3  4  1  0
  4  5  1  0
  5  6  2  0
  5  7  1  0
  7  8  1  0
  8  9  1  0
  9 10  1  0
 10 11  1  0
 11 12  1  0
 12 13  1  0
 13 14  1  0
 14 15  2  0
 15 16  1  0
 16 17  2  0
 17 18  1  0
 17 19  1  0
 19 20  2  0
  2 21  1  0
 21 22  2  0
 22 23  1  0
 23 24  2  0
 24 25  1  0
 25 26  2  0
 26 27  1  0
 26 28  1  0
 28 29  2  0
 29 30  1  0
 30 31  2  0
 11  7  1  0
 20 14  1  0
 31 21  1  0
 30 24  1  0
  3 32  1  0
  4 33  1  0
  4 34  1  0
  8 35  1  0
  8 36  1  0
  9 37  1  0
  9 38  1  0
 10 39  1  0
 10 40  1  0
 11 41  1  1
 12 42  1  0
 12 43  1  0
 15 44  1  0
 16 45  1  0
 19 46  1  0
 20 47  1  0
 22 48  1  0
 23 49  1  0
 25 50  1  0
 28 51  1  0
 29 52  1  0
M  END
>  <smiles>  (45) 
O=C(NCC(=O)N1CCC[C@@H]1COc1ccc(Cl)cc1)c1ccc2cc(F)ccc2n1

>  <score_type>  (45) 
oracle

>  <origin>  (45) 
autodockgpu

>  <m_score__min__energy>  (45) 
-8.5

>  <m_primary>  (45) 
energy

>  <rmsd>  (45) 
6.635263371199633

>  <m_score__min__rmsd>  (45) 
6.635263371199633

>  <meeko>  (45) 
{"free_energy": -6.04, "intermolecular_energy": -8.12, "internal_energy": -3.77, "cluster_size": 1, "cluster_id": 12, "rank_in_cluster": 1}

>  <energy>  (45) 
-7.17

>  <cluster_rmsd>  (45) 
0.0

>  <cluster>  (45) 
9

$$$$

     RDKit          3D

 52 55  0  0  0  0  0  0  0  0999 V2000
  136.7330   76.2260  221.8100 O   0  0  0  0  0  0  0  0  0  0  0  0
  136.8090   75.1840  222.5080 C   0  0  0  0  0  0  0  0  0  0  0  0
  137.9160   74.3130  222.2020 N   0  0  0  0  0  0  0  0  0  0  0  0
  138.7940   74.7290  221.1500 C   0  0  0  0  0  0  0  0  0  0  0  0
  140.1300   75.1130  221.6210 C   0  0  0  0  0  0  0  0  0  0  0  0
  140.2180   76.0740  222.4280 O   0  0  0  0  0  0  0  0  0  0  0  0
  141.2530   74.3850  221.1410 N   0  0  0  0  0  0  0  0  0  0  0  0
  142.3710   74.8940  220.3360 C   0  0  0  0  0  0  0  0  0  0  0  0
  142.9710   73.7150  219.6490 C   0  0  0  0  0  0  0  0  0  0  0  0
  142.0130   72.5830  219.9650 C   0  0  0  0  0  0  0  0  0  0  0  0
  141.5350   72.9930  221.3400 C   0  0  2  0  0  0  0  0  0  0  0  0
  140.4030   72.1660  221.8390 C   0  0  0  0  0  0  0  0  0  0  0  0
  139.9600   72.5390  223.1290 O   0  0  0  0  0  0  0  0  0  0  0  0
  139.9500   71.5560  224.1100 C   0  0  0  0  0  0  0  0  0  0  0  0
  140.7000   71.7670  225.2500 C   0  0  0  0  0  0  0  0  0  0  0  0
  140.7590   70.8530  226.2840 C   0  0  0  0  0  0  0  0  0  0  0  0
  140.0440   69.7030  226.1590 C   0  0  0  0  0  0  0  0  0  0  0  0
  140.1080   68.5320  227.4620 Cl  0  0  0  0  0  0  0  0  0  0  0  0
  139.3000   69.4890  225.0320 C   0  0  0  0  0  0  0  0  0  0  0  0
  139.2180   70.3810  223.9810 C   0  0  0  0  0  0  0  0  0  0  0  0
  135.8650   74.8620  223.5480 C   0  0  0  0  0  0  0  0  0  0  0  0
  135.4830   73.5410  223.6870 C   0  0  0  0  0  0  0  0  0  0  0  0
  134.5810   73.1300  224.6550 C   0  0  0  0  0  0  0  0  0  0  0  0
  134.0800   74.1160  225.4800 C   0  0  0  0  0  0  0  0  0  0  0  0
  133.1760   73.7090  226.4530 C   0  0  0  0  0  0  0  0  0  0  0  0
  132.6340   74.6410  227.3120 C   0  0  0  0  0  0  0  0  0  0  0  0
  131.7590   74.2450  228.2540 F   0  0  0  0  0  0  0  0  0  0  0  0
  133.0200   75.9720  227.1730 C   0  0  0  0  0  0  0  0  0  0  0  0
  133.9230   76.3740  226.2000 C   0  0  0  0  0  0  0  0  0  0  0  0
  134.4590   75.4420  225.3460 C   0  0  0  0  0  0  0  0  0  0  0  0
  135.3310   75.7470  224.3890 N   0  0  0  0  0  0  0  0  0  0  0  0
  138.0650   73.4260  222.7250 H   0  0  0  0  0  0  0  0  0  0  0  0
  138.9015   73.8983  220.4370 H   0  0  0  0  0  0  0  0  0  0  0  0
  138.3453   75.6202  220.6869 H   0  0  0  0  0  0  0  0  0  0  0  0
  142.0056   75.6201  219.5948 H   0  0  0  0  0  0  0  0  0  0  0  0
  143.1129   75.4067  220.9659 H   0  0  0  0  0  0  0  0  0  0  0  0
  143.0330   73.8839  218.5638 H   0  0  0  0  0  0  0  0  0  0  0  0
  143.9984   73.5070  219.9823 H   0  0  0  0  0  0  0  0  0  0  0  0
  141.1836   72.5412  219.2437 H   0  0  0  0  0  0  0  0  0  0  0  0
  142.4618   71.5798  219.9189 H   0  0  0  0  0  0  0  0  0  0  0  0
  142.2627   72.8299  222.1486 H   0  0  0  0  0  0  0  0  0  0  0  0
  139.5612   72.2683  221.1383 H   0  0  0  0  0  0  0  0  0  0  0  0
  140.7641   71.1292  221.9072 H   0  0  0  0  0  0  0  0  0  0  0  0
  141.2740   72.7012  225.3384 H   0  0  0  0  0  0  0  0  0  0  0  0
  141.3654   71.0492  227.1805 H   0  0  0  0  0  0  0  0  0  0  0  0
  138.7325   68.5496  224.9580 H   0  0  0  0  0  0  0  0  0  0  0  0
  138.6069   70.1732  223.0903 H   0  0  0  0  0  0  0  0  0  0  0  0
  135.9098   72.7902  223.0057 H   0  0  0  0  0  0  0  0  0  0  0  0
  134.2811   72.0769  224.7599 H   0  0  0  0  0  0  0  0  0  0  0  0
  132.8942   72.6491  226.5376 H   0  0  0  0  0  0  0  0  0  0  0  0
  132.5969   76.7253  227.8538 H   0  0  0  0  0  0  0  0  0  0  0  0
  134.2080   77.4329  226.1130 H   0  0  0  0  0  0  0  0  0  0  0  0
  1  2  2  0
  2  3  1  0
  3  4  1  0
  4  5  1  0
  5  6  2  0
  5  7  1  0
  7  8  1  0
  8  9  1  0
  9 10  1  0
 10 11  1  0
 11 12  1  0
 12 13  1  0
 13 14  1  0
 14 15  2  0
 15 16  1  0
 16 17  2  0
 17 18  1  0
 17 19  1  0
 19 20  2  0
  2 21  1  0
 21 22  2  0
 22 23  1  0
 23 24  2  0
 24 25  1  0
 25 26  2  0
 26 27  1  0
 26 28  1  0
 28 29  2  0
 29 30  1  0
 30 31  2  0
 11  7  1  0
 20 14  1  0
 31 21  1  0
 30 24  1  0
  3 32  1  0
  4 33  1  0
  4 34  1  0
  8 35  1  0
  8 36  1  0
  9 37  1  0
  9 38  1  0
 10 39  1  0
 10 40  1  0
 11 41  1  1
 12 42  1  0
 12 43  1  0
 15 44  1  0
 16 45  1  0
 19 46  1  0
 20 47  1  0
 22 48  1  0
 23 49  1  0
 25 50  1  0
 28 51  1  0
 29 52  1  0
M  END
>  <smiles>  (46) 
O=C(NCC(=O)N1CCC[C@@H]1COc1ccc(Cl)cc1)c1ccc2cc(F)ccc2n1

>  <score_type>  (46) 
oracle

>  <origin>  (46) 
autodockgpu

>  <m_score__min__energy>  (46) 
-8.5

>  <m_primary>  (46) 
energy

>  <rmsd>  (46) 
5.994349914013061

>  <m_score__min__rmsd>  (46) 
5.994349914013061

>  <meeko>  (46) 
{"free_energy": -7.37, "intermolecular_energy": -9.45, "internal_energy": -2.14, "cluster_size": 2, "cluster_id": 8, "rank_in_cluster": 1}

>  <energy>  (46) 
-6.79

>  <cluster_rmsd>  (46) 
0.0

>  <cluster>  (46) 
10

$$$$

     RDKit          3D

 52 55  0  0  0  0  0  0  0  0999 V2000
  138.2200   70.9220  221.8860 O   0  0  0  0  0  0  0  0  0  0  0  0
  138.9100   71.3510  222.8450 C   0  0  0  0  0  0  0  0  0  0  0  0
  139.3800   72.7070  222.7110 N   0  0  0  0  0  0  0  0  0  0  0  0
  139.0120   73.4040  221.5160 C   0  0  0  0  0  0  0  0  0  0  0  0
  139.8300   74.5960  221.2580 C   0  0  0  0  0  0  0  0  0  0  0  0
  140.7900   74.8320  222.0360 O   0  0  0  0  0  0  0  0  0  0  0  0
  139.4950   75.4210  220.1500 N   0  0  0  0  0  0  0  0  0  0  0  0
  140.1280   75.4370  218.8240 C   0  0  0  0  0  0  0  0  0  0  0  0
  139.8270   76.7700  218.2280 C   0  0  0  0  0  0  0  0  0  0  0  0
  139.1730   77.5370  219.3600 C   0  0  0  0  0  0  0  0  0  0  0  0
  138.4660   76.4170  220.0880 C   0  0  2  0  0  0  0  0  0  0  0  0
  137.8900   76.8380  221.3950 C   0  0  0  0  0  0  0  0  0  0  0  0
  138.7920   76.7030  222.4760 O   0  0  0  0  0  0  0  0  0  0  0  0
  139.5660   77.8080  222.8050 C   0  0  0  0  0  0  0  0  0  0  0  0
  140.9390   77.6840  222.7410 C   0  0  0  0  0  0  0  0  0  0  0  0
  141.7980   78.7210  223.0480 C   0  0  0  0  0  0  0  0  0  0  0  0
  141.2520   79.9090  223.4260 C   0  0  0  0  0  0  0  0  0  0  0  0
  142.3280   81.2360  223.8190 Cl  0  0  0  0  0  0  0  0  0  0  0  0
  139.8930   80.0380  223.4910 C   0  0  0  0  0  0  0  0  0  0  0  0
  139.0060   79.0220  223.1920 C   0  0  0  0  0  0  0  0  0  0  0  0
  139.2230   70.5590  224.0070 C   0  0  0  0  0  0  0  0  0  0  0  0
  138.8720   69.2220  223.9900 C   0  0  0  0  0  0  0  0  0  0  0  0
  139.1280   68.3770  225.0570 C   0  0  0  0  0  0  0  0  0  0  0  0
  139.7570   68.9430  226.1480 C   0  0  0  0  0  0  0  0  0  0  0  0
  140.0160   68.1010  227.2200 C   0  0  0  0  0  0  0  0  0  0  0  0
  140.6420   68.5990  228.3430 C   0  0  0  0  0  0  0  0  0  0  0  0
  140.8920   67.7810  229.3800 F   0  0  0  0  0  0  0  0  0  0  0  0
  140.9960   69.9460  228.3590 C   0  0  0  0  0  0  0  0  0  0  0  0
  140.7350   70.7840  227.2870 C   0  0  0  0  0  0  0  0  0  0  0  0
  140.1110   70.2830  226.1700 C   0  0  0  0  0  0  0  0  0  0  0  0
  139.8270   71.0200  225.1010 N   0  0  0  0  0  0  0  0  0  0  0  0
  139.9600   73.1530  223.4520 H   0  0  0  0  0  0  0  0  0  0  0  0
  139.1203   72.7163  220.6644 H   0  0  0  0  0  0  0  0  0  0  0  0
  137.9746   73.7455  221.6469 H   0  0  0  0  0  0  0  0  0  0  0  0
  141.2152   75.3004  218.9201 H   0  0  0  0  0  0  0  0  0  0  0  0
  139.7463   74.6225  218.1908 H   0  0  0  0  0  0  0  0  0  0  0  0
  140.7505   77.2692  217.8994 H   0  0  0  0  0  0  0  0  0  0  0  0
  139.1859   76.7009  217.3368 H   0  0  0  0  0  0  0  0  0  0  0  0
  139.9199   78.0286  220.0007 H   0  0  0  0  0  0  0  0  0  0  0  0
  138.5150   78.3564  219.0351 H   0  0  0  0  0  0  0  0  0  0  0  0
  137.5594   76.0437  219.5894 H   0  0  0  0  0  0  0  0  0  0  0  0
  137.5909   77.8939  221.3203 H   0  0  0  0  0  0  0  0  0  0  0  0
  137.0351   76.1772  221.6010 H   0  0  0  0  0  0  0  0  0  0  0  0
  141.3671   76.7188  222.4326 H   0  0  0  0  0  0  0  0  0  0  0  0
  142.8887   78.5909  222.9889 H   0  0  0  0  0  0  0  0  0  0  0  0
  139.4805   81.0097  223.8001 H   0  0  0  0  0  0  0  0  0  0  0  0
  137.9172   79.1646  223.2562 H   0  0  0  0  0  0  0  0  0  0  0  0
  138.3722   68.8154  223.0985 H   0  0  0  0  0  0  0  0  0  0  0  0
  138.8459   67.3140  225.0364 H   0  0  0  0  0  0  0  0  0  0  0  0
  139.7234   67.0416  227.1742 H   0  0  0  0  0  0  0  0  0  0  0  0
  141.4971   70.3562  229.2482 H   0  0  0  0  0  0  0  0  0  0  0  0
  141.0256   71.8441  227.3298 H   0  0  0  0  0  0  0  0  0  0  0  0
  1  2  2  0
  2  3  1  0
  3  4  1  0
  4  5  1  0
  5  6  2  0
  5  7  1  0
  7  8  1  0
  8  9  1  0
  9 10  1  0
 10 11  1  0
 11 12  1  0
 12 13  1  0
 13 14  1  0
 14 15  2  0
 15 16  1  0
 16 17  2  0
 17 18  1  0
 17 19  1  0
 19 20  2  0
  2 21  1  0
 21 22  2  0
 22 23  1  0
 23 24  2  0
 24 25  1  0
 25 26  2  0
 26 27  1  0
 26 28  1  0
 28 29  2  0
 29 30  1  0
 30 31  2  0
 11  7  1  0
 20 14  1  0
 31 21  1  0
 30 24  1  0
  3 32  1  0
  4 33  1  0
  4 34  1  0
  8 35  1  0
  8 36  1  0
  9 37  1  0
  9 38  1  0
 10 39  1  0
 10 40  1  0
 11 41  1  6
 12 42  1  0
 12 43  1  0
 15 44  1  0
 16 45  1  0
 19 46  1  0
 20 47  1  0
 22 48  1  0
 23 49  1  0
 25 50  1  0
 28 51  1  0
 29 52  1  0
M  END
>  <smiles>  (47) 
O=C(NCC(=O)N1CCC[C@@H]1COc1ccc(Cl)cc1)c1ccc2cc(F)ccc2n1

>  <score_type>  (47) 
oracle

>  <origin>  (47) 
autodockgpu

>  <m_score__min__energy>  (47) 
-8.5

>  <m_primary>  (47) 
energy

>  <rmsd>  (47) 
1.490172397335303

>  <m_score__min__rmsd>  (47) 
1.490172397335303

>  <meeko>  (47) 
{"free_energy": -7.92, "intermolecular_energy": -10.01, "internal_energy": -2.0, "cluster_size": 30, "cluster_id": 1, "rank_in_cluster": 15}

>  <energy>  (47) 
-6.08

>  <cluster_rmsd>  (47) 
0.59

>  <cluster>  (47) 
10

$$$$

     RDKit          3D

 52 55  0  0  0  0  0  0  0  0999 V2000
  141.1570   72.9060  222.0810 O   0  0  0  0  0  0  0  0  0  0  0  0
  140.1230   72.6290  222.7400 C   0  0  0  0  0  0  0  0  0  0  0  0
  138.9290   73.3320  222.3420 N   0  0  0  0  0  0  0  0  0  0  0  0
  139.0540   74.2540  221.2540 C   0  0  0  0  0  0  0  0  0  0  0  0
  139.0690   75.6600  221.6770 C   0  0  0  0  0  0  0  0  0  0  0  0
  138.3950   75.9780  222.6900 O   0  0  0  0  0  0  0  0  0  0  0  0
  139.8380   76.5870  220.9210 N   0  0  0  0  0  0  0  0  0  0  0  0
  139.9150   76.7040  219.4590 C   0  0  0  0  0  0  0  0  0  0  0  0
  141.1970   77.4010  219.1570 C   0  0  0  0  0  0  0  0  0  0  0  0
  141.8940   77.4820  220.5010 C   0  0  0  0  0  0  0  0  0  0  0  0
  140.7070   77.6090  221.4270 C   0  0  2  0  0  0  0  0  0  0  0  0
  141.0700   77.5000  222.8660 C   0  0  0  0  0  0  0  0  0  0  0  0
  141.7400   78.6410  223.3650 O   0  0  0  0  0  0  0  0  0  0  0  0
  141.3910   79.8730  222.8290 C   0  0  0  0  0  0  0  0  0  0  0  0
  140.1420   80.3830  223.1270 C   0  0  0  0  0  0  0  0  0  0  0  0
  139.6970   81.5980  222.6440 C   0  0  0  0  0  0  0  0  0  0  0  0
  140.5350   82.3100  221.8430 C   0  0  0  0  0  0  0  0  0  0  0  0
  139.9860   83.8550  221.2220 Cl  0  0  0  0  0  0  0  0  0  0  0  0
  141.7720   81.8110  221.5450 C   0  0  0  0  0  0  0  0  0  0  0  0
  142.2490   80.6000  222.0100 C   0  0  0  0  0  0  0  0  0  0  0  0
  140.1090   71.6790  223.8230 C   0  0  0  0  0  0  0  0  0  0  0  0
  139.5700   70.4300  223.5790 C   0  0  0  0  0  0  0  0  0  0  0  0
  139.5100   69.4470  224.5530 C   0  0  0  0  0  0  0  0  0  0  0  0
  140.0210   69.7830  225.7910 C   0  0  0  0  0  0  0  0  0  0  0  0
  139.9640   68.8010  226.7720 C   0  0  0  0  0  0  0  0  0  0  0  0
  140.4560   69.0670  228.0320 C   0  0  0  0  0  0  0  0  0  0  0  0
  140.4000   68.1150  228.9790 F   0  0  0  0  0  0  0  0  0  0  0  0
  141.0000   70.3250  228.2770 C   0  0  0  0  0  0  0  0  0  0  0  0
  141.0550   71.3030  227.2950 C   0  0  0  0  0  0  0  0  0  0  0  0
  140.5630   71.0330  226.0410 C   0  0  0  0  0  0  0  0  0  0  0  0
  140.5800   71.9160  225.0470 N   0  0  0  0  0  0  0  0  0  0  0  0
  138.0220   73.1730  222.8260 H   0  0  0  0  0  0  0  0  0  0  0  0
  139.9930   74.0402  220.7225 H   0  0  0  0  0  0  0  0  0  0  0  0
  138.1712   74.1185  220.6118 H   0  0  0  0  0  0  0  0  0  0  0  0
  139.9072   75.7058  218.9970 H   0  0  0  0  0  0  0  0  0  0  0  0
  139.0553   77.2616  219.0588 H   0  0  0  0  0  0  0  0  0  0  0  0
  141.7972   76.8226  218.4392 H   0  0  0  0  0  0  0  0  0  0  0  0
  141.0446   78.3890  218.6982 H   0  0  0  0  0  0  0  0  0  0  0  0
  142.4759   76.5724  220.7109 H   0  0  0  0  0  0  0  0  0  0  0  0
  142.6275   78.2973  220.5857 H   0  0  0  0  0  0  0  0  0  0  0  0
  140.2256   78.5981  221.4256 H   0  0  0  0  0  0  0  0  0  0  0  0
  140.1479   77.3550  223.4480 H   0  0  0  0  0  0  0  0  0  0  0  0
  141.7613   76.6498  222.9626 H   0  0  0  0  0  0  0  0  0  0  0  0
  139.4744   79.7971  223.7758 H   0  0  0  0  0  0  0  0  0  0  0  0
  138.6967   81.9780  222.8989 H   0  0  0  0  0  0  0  0  0  0  0  0
  142.4278   82.4095  220.8956 H   0  0  0  0  0  0  0  0  0  0  0  0
  143.2515   80.2314  221.7471 H   0  0  0  0  0  0  0  0  0  0  0  0
  139.1750   70.2089  222.5765 H   0  0  0  0  0  0  0  0  0  0  0  0
  139.0796   68.4549  224.3517 H   0  0  0  0  0  0  0  0  0  0  0  0
  139.5287   67.8167  226.5446 H   0  0  0  0  0  0  0  0  0  0  0  0
  141.3975   70.5496  229.2778 H   0  0  0  0  0  0  0  0  0  0  0  0
  141.4897   72.2884  227.5188 H   0  0  0  0  0  0  0  0  0  0  0  0
  1  2  2  0
  2  3  1  0
  3  4  1  0
  4  5  1  0
  5  6  2  0
  5  7  1  0
  7  8  1  0
  8  9  1  0
  9 10  1  0
 10 11  1  0
 11 12  1  0
 12 13  1  0
 13 14  1  0
 14 15  2  0
 15 16  1  0
 16 17  2  0
 17 18  1  0
 17 19  1  0
 19 20  2  0
  2 21  1  0
 21 22  2  0
 22 23  1  0
 23 24  2  0
 24 25  1  0
 25 26  2  0
 26 27  1  0
 26 28  1  0
 28 29  2  0
 29 30  1  0
 30 31  2  0
 11  7  1  0
 20 14  1  0
 31 21  1  0
 30 24  1  0
  3 32  1  0
  4 33  1  0
  4 34  1  0
  8 35  1  0
  8 36  1  0
  9 37  1  0
  9 38  1  0
 10 39  1  0
 10 40  1  0
 11 41  1  1
 12 42  1  0
 12 43  1  0
 15 44  1  0
 16 45  1  0
 19 46  1  0
 20 47  1  0
 22 48  1  0
 23 49  1  0
 25 50  1  0
 28 51  1  0
 29 52  1  0
M  END
>  <smiles>  (48) 
O=C(NCC(=O)N1CCC[C@@H]1COc1ccc(Cl)cc1)c1ccc2cc(F)ccc2n1

>  <score_type>  (48) 
oracle

>  <origin>  (48) 
autodockgpu

>  <m_score__min__energy>  (48) 
-8.5

>  <m_primary>  (48) 
energy

>  <rmsd>  (48) 
1.7764044448623468

>  <m_score__min__rmsd>  (48) 
1.7764044448623468

>  <meeko>  (48) 
{"free_energy": -8.07, "intermolecular_energy": -10.15, "internal_energy": -1.58, "cluster_size": 30, "cluster_id": 1, "rank_in_cluster": 11}

>  <energy>  (48) 
-6.17

>  <cluster_rmsd>  (48) 
0.0

>  <cluster>  (48) 
11

$$$$

     RDKit          3D

 52 55  0  0  0  0  0  0  0  0999 V2000
  138.7770   70.5000  221.3750 O   0  0  0  0  0  0  0  0  0  0  0  0
  138.9580   71.3020  222.3260 C   0  0  0  0  0  0  0  0  0  0  0  0
  138.6050   72.6720  222.0550 N   0  0  0  0  0  0  0  0  0  0  0  0
  138.0940   72.9630  220.7500 C   0  0  0  0  0  0  0  0  0  0  0  0
  138.1990   74.3810  220.3820 C   0  0  0  0  0  0  0  0  0  0  0  0
  137.3230   75.1700  220.8200 O   0  0  0  0  0  0  0  0  0  0  0  0
  139.2800   74.7880  219.5530 N   0  0  0  0  0  0  0  0  0  0  0  0
  139.2620   74.9980  218.1000 C   0  0  0  0  0  0  0  0  0  0  0  0
  140.6740   74.8790  217.6370 C   0  0  0  0  0  0  0  0  0  0  0  0
  141.4230   74.4070  218.8680 C   0  0  0  0  0  0  0  0  0  0  0  0
  140.6240   75.0800  219.9600 C   0  0  2  0  0  0  0  0  0  0  0  0
  141.0020   74.6300  221.3270 C   0  0  0  0  0  0  0  0  0  0  0  0
  140.0870   75.0370  222.3260 O   0  0  0  0  0  0  0  0  0  0  0  0
  139.9820   76.3980  222.5810 C   0  0  0  0  0  0  0  0  0  0  0  0
  138.7200   76.9410  222.7090 C   0  0  0  0  0  0  0  0  0  0  0  0
  138.5060   78.2820  222.9620 C   0  0  0  0  0  0  0  0  0  0  0  0
  139.5960   79.0870  223.0870 C   0  0  0  0  0  0  0  0  0  0  0  0
  139.3430   80.7920  223.4080 Cl  0  0  0  0  0  0  0  0  0  0  0  0
  140.8480   78.5550  222.9610 C   0  0  0  0  0  0  0  0  0  0  0  0
  141.0970   77.2200  222.7090 C   0  0  0  0  0  0  0  0  0  0  0  0
  139.4820   70.8990  223.6070 C   0  0  0  0  0  0  0  0  0  0  0  0
  140.2950   71.7910  224.2800 C   0  0  0  0  0  0  0  0  0  0  0  0
  140.8480   71.4990  225.5160 C   0  0  0  0  0  0  0  0  0  0  0  0
  140.5420   70.2610  226.0450 C   0  0  0  0  0  0  0  0  0  0  0  0
  141.0930   69.9630  227.2840 C   0  0  0  0  0  0  0  0  0  0  0  0
  140.8290   68.7440  227.8720 C   0  0  0  0  0  0  0  0  0  0  0  0
  141.3630   68.4580  229.0730 F   0  0  0  0  0  0  0  0  0  0  0  0
  140.0080   67.8470  227.1940 C   0  0  0  0  0  0  0  0  0  0  0  0
  139.4600   68.1480  225.9560 C   0  0  0  0  0  0  0  0  0  0  0  0
  139.7260   69.3630  225.3750 C   0  0  0  0  0  0  0  0  0  0  0  0
  139.2390   69.7280  224.1920 N   0  0  0  0  0  0  0  0  0  0  0  0
  138.7190   73.4120  222.7790 H   0  0  0  0  0  0  0  0  0  0  0  0
  138.6581   72.3700  220.0151 H   0  0  0  0  0  0  0  0  0  0  0  0
  137.0237   72.7094  220.7579 H   0  0  0  0  0  0  0  0  0  0  0  0
  138.6370   74.2346  217.6135 H   0  0  0  0  0  0  0  0  0  0  0  0
  138.8419   75.9823  217.8458 H   0  0  0  0  0  0  0  0  0  0  0  0
  140.7581   74.1448  216.8222 H   0  0  0  0  0  0  0  0  0  0  0  0
  141.0699   75.8236  217.2358 H   0  0  0  0  0  0  0  0  0  0  0  0
  141.3961   73.3114  218.9631 H   0  0  0  0  0  0  0  0  0  0  0  0
  142.4953   74.6521  218.8709 H   0  0  0  0  0  0  0  0  0  0  0  0
  140.7994   76.1614  220.0597 H   0  0  0  0  0  0  0  0  0  0  0  0
  141.0554   73.5313  221.3300 H   0  0  0  0  0  0  0  0  0  0  0  0
  141.9703   75.0943  221.5653 H   0  0  0  0  0  0  0  0  0  0  0  0
  137.8481   76.2784  222.6053 H   0  0  0  0  0  0  0  0  0  0  0  0
  137.4875   78.6860  223.0593 H   0  0  0  0  0  0  0  0  0  0  0  0
  141.7097   79.2305  223.0666 H   0  0  0  0  0  0  0  0  0  0  0  0
  142.1206   76.8283  222.6147 H   0  0  0  0  0  0  0  0  0  0  0  0
  140.5103   72.7660  223.8185 H   0  0  0  0  0  0  0  0  0  0  0  0
  141.4947   72.2135  226.0464 H   0  0  0  0  0  0  0  0  0  0  0  0
  141.7365   70.6952  227.7937 H   0  0  0  0  0  0  0  0  0  0  0  0
  139.7877   66.8720  227.6532 H   0  0  0  0  0  0  0  0  0  0  0  0
  138.8165   67.4180  225.4431 H   0  0  0  0  0  0  0  0  0  0  0  0
  1  2  2  0
  2  3  1  0
  3  4  1  0
  4  5  1  0
  5  6  2  0
  5  7  1  0
  7  8  1  0
  8  9  1  0
  9 10  1  0
 10 11  1  0
 11 12  1  0
 12 13  1  0
 13 14  1  0
 14 15  2  0
 15 16  1  0
 16 17  2  0
 17 18  1  0
 17 19  1  0
 19 20  2  0
  2 21  1  0
 21 22  2  0
 22 23  1  0
 23 24  2  0
 24 25  1  0
 25 26  2  0
 26 27  1  0
 26 28  1  0
 28 29  2  0
 29 30  1  0
 30 31  2  0
 11  7  1  0
 20 14  1  0
 31 21  1  0
 30 24  1  0
  3 32  1  0
  4 33  1  0
  4 34  1  0
  8 35  1  0
  8 36  1  0
  9 37  1  0
  9 38  1  0
 10 39  1  0
 10 40  1  0
 11 41  1  1
 12 42  1  0
 12 43  1  0
 15 44  1  0
 16 45  1  0
 19 46  1  0
 20 47  1  0
 22 48  1  0
 23 49  1  0
 25 50  1  0
 28 51  1  0
 29 52  1  0
M  END
>  <smiles>  (49) 
O=C(NCC(=O)N1CCC[C@@H]1COc1ccc(Cl)cc1)c1ccc2cc(F)ccc2n1

>  <score_type>  (49) 
oracle

>  <origin>  (49) 
autodockgpu

>  <m_score__min__energy>  (49) 
-8.5

>  <m_primary>  (49) 
energy

>  <rmsd>  (49) 
2.602966286023794

>  <m_score__min__rmsd>  (49) 
2.602966286023794

>  <meeko>  (49) 
{"free_energy": -7.09, "intermolecular_energy": -9.18, "internal_energy": -2.5, "cluster_size": 30, "cluster_id": 1, "rank_in_cluster": 29}

>  <energy>  (49) 
-5.26

>  <cluster_rmsd>  (49) 
1.09

>  <cluster>  (49) 
11

$$$$

     RDKit          3D

 52 55  0  0  0  0  0  0  0  0999 V2000
  140.6270   73.3080  222.2510 O   0  0  0  0  0  0  0  0  0  0  0  0
  140.4300   74.2580  221.4520 C   0  0  0  0  0  0  0  0  0  0  0  0
  140.4320   73.9020  220.0560 N   0  0  0  0  0  0  0  0  0  0  0  0
  140.6540   72.5230  219.7400 C   0  0  0  0  0  0  0  0  0  0  0  0
  141.8820   72.2890  218.9690 C   0  0  0  0  0  0  0  0  0  0  0  0
  141.8180   71.5160  217.9780 O   0  0  0  0  0  0  0  0  0  0  0  0
  143.0750   72.9440  219.3790 N   0  0  0  0  0  0  0  0  0  0  0  0
  143.9170   72.6240  220.5390 C   0  0  0  0  0  0  0  0  0  0  0  0
  144.6900   73.8590  220.8550 C   0  0  0  0  0  0  0  0  0  0  0  0
  144.0900   74.9090  219.9410 C   0  0  0  0  0  0  0  0  0  0  0  0
  143.7130   74.0620  218.7470 C   0  0  2  0  0  0  0  0  0  0  0  0
  142.8950   74.7950  217.7420 C   0  0  0  0  0  0  0  0  0  0  0  0
  141.6910   75.3160  218.2700 O   0  0  0  0  0  0  0  0  0  0  0  0
  141.6350   76.6840  218.5050 C   0  0  0  0  0  0  0  0  0  0  0  0
  140.4410   77.2220  218.9420 C   0  0  0  0  0  0  0  0  0  0  0  0
  140.2810   78.5680  219.2050 C   0  0  0  0  0  0  0  0  0  0  0  0
  141.3530   79.3850  219.0190 C   0  0  0  0  0  0  0  0  0  0  0  0
  141.1660   81.0970  219.3470 Cl  0  0  0  0  0  0  0  0  0  0  0  0
  142.5370   78.8580  218.5860 C   0  0  0  0  0  0  0  0  0  0  0  0
  142.7320   77.5180  218.3140 C   0  0  0  0  0  0  0  0  0  0  0  0
  140.2160   75.6160  221.8810 C   0  0  0  0  0  0  0  0  0  0  0  0
  138.9300   75.9910  222.2200 C   0  0  0  0  0  0  0  0  0  0  0  0
  138.6200   77.2730  222.6440 C   0  0  0  0  0  0  0  0  0  0  0  0
  139.6720   78.1650  222.7100 C   0  0  0  0  0  0  0  0  0  0  0  0
  139.3680   79.4510  223.1340 C   0  0  0  0  0  0  0  0  0  0  0  0
  140.3700   80.3940  223.2240 C   0  0  0  0  0  0  0  0  0  0  0  0
  140.0730   81.6390  223.6350 F   0  0  0  0  0  0  0  0  0  0  0  0
  141.6660   80.0160  222.8830 C   0  0  0  0  0  0  0  0  0  0  0  0
  141.9660   78.7300  222.4590 C   0  0  0  0  0  0  0  0  0  0  0  0
  140.9640   77.7950  222.3710 C   0  0  0  0  0  0  0  0  0  0  0  0
  141.1700   76.5420  221.9750 N   0  0  0  0  0  0  0  0  0  0  0  0
  140.2780   74.6170  219.3160 H   0  0  0  0  0  0  0  0  0  0  0  0
  140.7202   71.9565  220.6806 H   0  0  0  0  0  0  0  0  0  0  0  0
  139.8113   72.1948  219.1138 H   0  0  0  0  0  0  0  0  0  0  0  0
  143.2899   72.3385  221.3965 H   0  0  0  0  0  0  0  0  0  0  0  0
  144.5878   71.7795  220.3226 H   0  0  0  0  0  0  0  0  0  0  0  0
  144.5632   74.1406  221.9107 H   0  0  0  0  0  0  0  0  0  0  0  0
  145.7721   73.7326  220.7028 H   0  0  0  0  0  0  0  0  0  0  0  0
  143.2080   75.3846  220.3948 H   0  0  0  0  0  0  0  0  0  0  0  0
  144.7612   75.7493  219.7099 H   0  0  0  0  0  0  0  0  0  0  0  0
  144.5590   73.7519  218.1161 H   0  0  0  0  0  0  0  0  0  0  0  0
  143.4929   75.6299  217.3478 H   0  0  0  0  0  0  0  0  0  0  0  0
  142.6205   74.0736  216.9582 H   0  0  0  0  0  0  0  0  0  0  0  0
  139.5817   76.5507  219.0866 H   0  0  0  0  0  0  0  0  0  0  0  0
  139.3172   78.9672  219.5539 H   0  0  0  0  0  0  0  0  0  0  0  0
  143.3865   79.5426  218.4455 H   0  0  0  0  0  0  0  0  0  0  0  0
  143.7012   77.1315  217.9656 H   0  0  0  0  0  0  0  0  0  0  0  0
  138.1241   75.2455  222.1508 H   0  0  0  0  0  0  0  0  0  0  0  0
  137.5938   77.5639  222.9129 H   0  0  0  0  0  0  0  0  0  0  0  0
  138.3334   79.7166  223.3968 H   0  0  0  0  0  0  0  0  0  0  0  0
  142.4748   80.7584  222.9518 H   0  0  0  0  0  0  0  0  0  0  0  0
  142.9994   78.4608  222.1950 H   0  0  0  0  0  0  0  0  0  0  0  0
  1  2  2  0
  2  3  1  0
  3  4  1  0
  4  5  1  0
  5  6  2  0
  5  7  1  0
  7  8  1  0
  8  9  1  0
  9 10  1  0
 10 11  1  0
 11 12  1  0
 12 13  1  0
 13 14  1  0
 14 15  2  0
 15 16  1  0
 16 17  2  0
 17 18  1  0
 17 19  1  0
 19 20  2  0
  2 21  1  0
 21 22  2  0
 22 23  1  0
 23 24  2  0
 24 25  1  0
 25 26  2  0
 26 27  1  0
 26 28  1  0
 28 29  2  0
 29 30  1  0
 30 31  2  0
 11  7  1  0
 20 14  1  0
 31 21  1  0
 30 24  1  0
  3 32  1  0
  4 33  1  0
  4 34  1  0
  8 35  1  0
  8 36  1  0
  9 37  1  0
  9 38  1  0
 10 39  1  0
 10 40  1  0
 11 41  1  6
 12 42  1  0
 12 43  1  0
 15 44  1  0
 16 45  1  0
 19 46  1  0
 20 47  1  0
 22 48  1  0
 23 49  1  0
 25 50  1  0
 28 51  1  0
 29 52  1  0
M  END
>  <smiles>  (50) 
O=C(NCC(=O)N1CCC[C@@H]1COc1ccc(Cl)cc1)c1ccc2cc(F)ccc2n1

>  <score_type>  (50) 
oracle

>  <origin>  (50) 
autodockgpu

>  <m_score__min__energy>  (50) 
-8.5

>  <m_primary>  (50) 
energy

>  <rmsd>  (50) 
7.281184223524902

>  <m_score__min__rmsd>  (50) 
7.281184223524902

>  <meeko>  (50) 
{"free_energy": -5.26, "intermolecular_energy": -7.35, "internal_energy": -4.09, "cluster_size": 2, "cluster_id": 11, "rank_in_cluster": 2}

>  <energy>  (50) 
-6.04

>  <cluster_rmsd>  (50) 
0.0

>  <cluster>  (50) 
12

$$$$
