
     RDKit          3D

 51 54  0  0  0  0  0  0  0  0999 V2000
  140.7260   70.9920  221.3660 O   0  0  0  0  0  0  0  0  0  0  0  0
  140.3970   71.5460  222.4320 C   0  0  0  0  0  0  0  0  0  0  0  0
  140.2050   72.9570  222.5320 N   0  0  0  0  0  0  0  0  0  0  0  0
  140.3950   73.7850  221.3590 C   0  0  0  0  0  0  0  0  0  0  0  0
  140.2660   75.2280  221.6780 C   0  0  0  0  0  0  0  0  0  0  0  0
  139.5950   75.5530  222.6890 O   0  0  0  0  0  0  0  0  0  0  0  0
  140.9100   76.1470  220.8150 N   0  0  0  0  0  0  0  0  0  0  0  0
  142.1890   75.8440  220.1530 C   0  0  0  0  0  0  0  0  0  0  0  0
  141.8640   75.5880  218.7000 C   0  0  0  0  0  0  0  0  0  0  0  0
  140.9140   76.6220  218.2110 C   0  0  0  0  0  0  0  0  0  0  0  0
  140.7980   77.8480  219.0870 C   0  0  0  0  0  0  0  0  0  0  0  0
  140.3690   77.4670  220.5000 C   0  0  2  0  0  0  0  0  0  0  0  0
  140.8630   78.5310  221.4040 C   0  0  0  0  0  0  0  0  0  0  0  0
  141.4310   78.2650  222.6440 C   0  0  0  0  0  0  0  0  0  0  0  0
  141.8790   79.2600  223.4880 C   0  0  0  0  0  0  0  0  0  0  0  0
  141.7840   80.5860  223.1370 C   0  0  0  0  0  0  0  0  0  0  0  0
  141.2280   80.8800  221.9150 C   0  0  0  0  0  0  0  0  0  0  0  0
  141.0770   82.7200  221.3850 Br  0  0  0  0  0  0  0  0  0  0  0  0
  140.7740   79.8720  221.0610 C   0  0  0  0  0  0  0  0  0  0  0  0
  140.1950   70.7330  223.6470 C   0  0  0  0  0  0  0  0  0  0  0  0
  139.4890   69.5530  223.5770 C   0  0  0  0  0  0  0  0  0  0  0  0
  139.2760   68.7590  224.6970 C   0  0  0  0  0  0  0  0  0  0  0  0
  139.8050   69.2100  225.8900 C   0  0  0  0  0  0  0  0  0  0  0  0
  139.5940   68.4180  227.0140 C   0  0  0  0  0  0  0  0  0  0  0  0
  140.1060   68.8330  228.2240 C   0  0  0  0  0  0  0  0  0  0  0  0
  140.8070   70.0020  228.3080 C   0  0  0  0  0  0  0  0  0  0  0  0
  141.0190   70.7950  227.1840 C   0  0  0  0  0  0  0  0  0  0  0  0
  140.5140   70.3950  225.9640 C   0  0  0  0  0  0  0  0  0  0  0  0
  140.6820   71.1140  224.8340 N   0  0  0  0  0  0  0  0  0  0  0  0
  139.9250   73.3820  223.4610 H   0  0  0  0  0  0  0  0  0  0  0  0
  141.3992   73.5988  220.9503 H   0  0  0  0  0  0  0  0  0  0  0  0
  139.6164   73.5252  220.6267 H   0  0  0  0  0  0  0  0  0  0  0  0
  142.8770   76.6974  220.2448 H   0  0  0  0  0  0  0  0  0  0  0  0
  142.6806   74.9736  220.6122 H   0  0  0  0  0  0  0  0  0  0  0  0
  142.7885   75.6299  218.1053 H   0  0  0  0  0  0  0  0  0  0  0  0
  141.4051   74.5935  218.5983 H   0  0  0  0  0  0  0  0  0  0  0  0
  141.2456   76.9456  217.2133 H   0  0  0  0  0  0  0  0  0  0  0  0
  139.9203   76.1503  218.2092 H   0  0  0  0  0  0  0  0  0  0  0  0
  141.7741   78.3534  219.1307 H   0  0  0  0  0  0  0  0  0  0  0  0
  140.0384   78.5173  218.6569 H   0  0  0  0  0  0  0  0  0  0  0  0
  139.2770   77.3953  220.6114 H   0  0  0  0  0  0  0  0  0  0  0  0
  141.5274   77.2176  222.9659 H   0  0  0  0  0  0  0  0  0  0  0  0
  142.3198   78.9879  224.4584 H   0  0  0  0  0  0  0  0  0  0  0  0
  142.1395   81.3813  223.8087 H   0  0  0  0  0  0  0  0  0  0  0  0
  140.3345   80.1490  220.0914 H   0  0  0  0  0  0  0  0  0  0  0  0
  139.0823   69.2299  222.6073 H   0  0  0  0  0  0  0  0  0  0  0  0
  138.7128   67.8161  224.6363 H   0  0  0  0  0  0  0  0  0  0  0  0
  139.0286   67.4775  226.9382 H   0  0  0  0  0  0  0  0  0  0  0  0
  139.9497   68.2211  229.1247 H   0  0  0  0  0  0  0  0  0  0  0  0
  141.2107   70.3221  229.2799 H   0  0  0  0  0  0  0  0  0  0  0  0
  141.5853   71.7343  227.2678 H   0  0  0  0  0  0  0  0  0  0  0  0
  1  2  2  0
  2  3  1  0
  3  4  1  0
  4  5  1  0
  5  6  2  0
  5  7  1  0
  7  8  1  0
  8  9  1  0
  9 10  1  0
 10 11  1  0
 11 12  1  0
 12 13  1  0
 13 14  2  0
 14 15  1  0
 15 16  2  0
 16 17  1  0
 17 18  1  0
 17 19  2  0
  2 20  1  0
 20 21  2  0
 21 22  1  0
 22 23  2  0
 23 24  1  0
 24 25  2  0
 25 26  1  0
 26 27  2  0
 27 28  1  0
 28 29  2  0
 12  7  1  0
 19 13  1  0
 29 20  1  0
 28 23  1  0
  3 30  1  0
  4 31  1  0
  4 32  1  0
  8 33  1  0
  8 34  1  0
  9 35  1  0
  9 36  1  0
 10 37  1  0
 10 38  1  0
 11 39  1  0
 11 40  1  0
 12 41  1  6
 14 42  1  0
 15 43  1  0
 16 44  1  0
 19 45  1  0
 21 46  1  0
 22 47  1  0
 24 48  1  0
 25 49  1  0
 26 50  1  0
 27 51  1  0
M  END
>  <smiles>  (1) 
O=C(NCC(=O)N1CCCCC1c1cccc(Br)c1)c1ccc2ccccc2n1

>  <score_type>  (1) 
oracle

>  <origin>  (1) 
autodockgpu

>  <m_score__min__energy>  (1) 
-10.01

>  <m_primary>  (1) 
energy

>  <rmsd>  (1) 
1.9459706977248232

>  <m_score__min__rmsd>  (1) 
1.9459706977248232

>  <meeko>  (1) 
{"free_energy": -8.81, "intermolecular_energy": -10.3, "internal_energy": -1.84, "cluster_size": 20, "cluster_id": 2, "rank_in_cluster": 19}

>  <energy>  (1) 
-10.01

>  <cluster_rmsd>  (1) 
0.0

>  <cluster>  (1) 
1

$$$$

     RDKit          3D

 51 54  0  0  0  0  0  0  0  0999 V2000
  141.1980   71.9610  221.6170 O   0  0  0  0  0  0  0  0  0  0  0  0
  140.3560   72.3220  222.4600 C   0  0  0  0  0  0  0  0  0  0  0  0
  139.5640   73.4980  222.2940 N   0  0  0  0  0  0  0  0  0  0  0  0
  139.7350   74.3080  221.1060 C   0  0  0  0  0  0  0  0  0  0  0  0
  140.4110   75.5940  221.4090 C   0  0  0  0  0  0  0  0  0  0  0  0
  141.6570   75.5850  221.5660 O   0  0  0  0  0  0  0  0  0  0  0  0
  139.6000   76.7510  221.5030 N   0  0  0  0  0  0  0  0  0  0  0  0
  138.7870   77.2380  220.3760 C   0  0  0  0  0  0  0  0  0  0  0  0
  137.3530   76.9030  220.7120 C   0  0  0  0  0  0  0  0  0  0  0  0
  137.0770   77.2530  222.1300 C   0  0  0  0  0  0  0  0  0  0  0  0
  138.0940   78.1700  222.7710 C   0  0  0  0  0  0  0  0  0  0  0  0
  139.4880   77.5570  222.7160 C   0  0  2  0  0  0  0  0  0  0  0  0
  140.4560   78.6780  222.7610 C   0  0  0  0  0  0  0  0  0  0  0  0
  141.6460   78.6200  223.4750 C   0  0  0  0  0  0  0  0  0  0  0  0
  142.5390   79.6710  223.5230 C   0  0  0  0  0  0  0  0  0  0  0  0
  142.2900   80.8470  222.8560 C   0  0  0  0  0  0  0  0  0  0  0  0
  141.1200   80.9330  222.1400 C   0  0  0  0  0  0  0  0  0  0  0  0
  140.7320   82.5580  221.1930 Br  0  0  0  0  0  0  0  0  0  0  0  0
  140.2160   79.8690  222.0920 C   0  0  0  0  0  0  0  0  0  0  0  0
  140.1550   71.5210  223.6830 C   0  0  0  0  0  0  0  0  0  0  0  0
  139.4380   70.3470  223.6270 C   0  0  0  0  0  0  0  0  0  0  0  0
  139.2250   69.5640  224.7550 C   0  0  0  0  0  0  0  0  0  0  0  0
  139.7660   70.0190  225.9400 C   0  0  0  0  0  0  0  0  0  0  0  0
  139.5550   69.2380  227.0720 C   0  0  0  0  0  0  0  0  0  0  0  0
  140.0800   69.6570  228.2750 C   0  0  0  0  0  0  0  0  0  0  0  0
  140.7920   70.8210  228.3450 C   0  0  0  0  0  0  0  0  0  0  0  0
  141.0040   71.6030  227.2140 C   0  0  0  0  0  0  0  0  0  0  0  0
  140.4860   71.1980  226.0000 C   0  0  0  0  0  0  0  0  0  0  0  0
  140.6530   71.9070  224.8630 N   0  0  0  0  0  0  0  0  0  0  0  0
  138.8600   73.7640  223.0400 H   0  0  0  0  0  0  0  0  0  0  0  0
  140.3420   73.7493  220.3784 H   0  0  0  0  0  0  0  0  0  0  0  0
  138.7382   74.5330  220.6989 H   0  0  0  0  0  0  0  0  0  0  0  0
  138.9073   78.3254  220.2614 H   0  0  0  0  0  0  0  0  0  0  0  0
  139.0955   76.7708  219.4291 H   0  0  0  0  0  0  0  0  0  0  0  0
  136.6803   77.4753  220.0563 H   0  0  0  0  0  0  0  0  0  0  0  0
  137.1854   75.8261  220.5628 H   0  0  0  0  0  0  0  0  0  0  0  0
  136.0955   77.7476  222.1747 H   0  0  0  0  0  0  0  0  0  0  0  0
  137.1161   76.3089  222.6931 H   0  0  0  0  0  0  0  0  0  0  0  0
  138.1013   79.1306  222.2351 H   0  0  0  0  0  0  0  0  0  0  0  0
  137.8171   78.3207  223.8249 H   0  0  0  0  0  0  0  0  0  0  0  0
  139.6928   76.8847  223.5622 H   0  0  0  0  0  0  0  0  0  0  0  0
  141.8865   77.6982  224.0249 H   0  0  0  0  0  0  0  0  0  0  0  0
  143.4664   79.5659  224.1052 H   0  0  0  0  0  0  0  0  0  0  0  0
  142.9996   81.6866  222.8939 H   0  0  0  0  0  0  0  0  0  0  0  0
  139.2900   79.9786  221.5085 H   0  0  0  0  0  0  0  0  0  0  0  0
  139.0222   70.0198  222.6626 H   0  0  0  0  0  0  0  0  0  0  0  0
  138.6524   68.6261  224.7056 H   0  0  0  0  0  0  0  0  0  0  0  0
  138.9794   68.3028  227.0077 H   0  0  0  0  0  0  0  0  0  0  0  0
  139.9255   69.0529  229.1812 H   0  0  0  0  0  0  0  0  0  0  0  0
  141.2045   71.1453  229.3118 H   0  0  0  0  0  0  0  0  0  0  0  0
  141.5802   72.5372  227.2865 H   0  0  0  0  0  0  0  0  0  0  0  0
  1  2  2  0
  2  3  1  0
  3  4  1  0
  4  5  1  0
  5  6  2  0
  5  7  1  0
  7  8  1  0
  8  9  1  0
  9 10  1  0
 10 11  1  0
 11 12  1  0
 12 13  1  0
 13 14  2  0
 14 15  1  0
 15 16  2  0
 16 17  1  0
 17 18  1  0
 17 19  2  0
  2 20  1  0
 20 21  2  0
 21 22  1  0
 22 23  2  0
 23 24  1  0
 24 25  2  0
 25 26  1  0
 26 27  2  0
 27 28  1  0
 28 29  2  0
 12  7  1  0
 19 13  1  0
 29 20  1  0
 28 23  1  0
  3 30  1  0
  4 31  1  0
  4 32  1  0
  8 33  1  0
  8 34  1  0
  9 35  1  0
  9 36  1  0
 10 37  1  0
 10 38  1  0
 11 39  1  0
 11 40  1  0
 12 41  1  1
 14 42  1  0
 15 43  1  0
 16 44  1  0
 19 45  1  0
 21 46  1  0
 22 47  1  0
 24 48  1  0
 25 49  1  0
 26 50  1  0
 27 51  1  0
M  END
>  <smiles>  (2) 
O=C(NCC(=O)N1CCCCC1c1cccc(Br)c1)c1ccc2ccccc2n1

>  <score_type>  (2) 
oracle

>  <origin>  (2) 
autodockgpu

>  <m_score__min__energy>  (2) 
-10.01

>  <m_primary>  (2) 
energy

>  <rmsd>  (2) 
2.8669493637914627

>  <m_score__min__rmsd>  (2) 
2.8669493637914627

>  <meeko>  (2) 
{"free_energy": -9.32, "intermolecular_energy": -10.81, "internal_energy": -1.42, "cluster_size": 20, "cluster_id": 2, "rank_in_cluster": 3}

>  <energy>  (2) 
-9.8

>  <cluster_rmsd>  (2) 
0.99

>  <cluster>  (2) 
1

$$$$

     RDKit          3D

 51 54  0  0  0  0  0  0  0  0999 V2000
  139.0960   71.0570  221.3720 O   0  0  0  0  0  0  0  0  0  0  0  0
  139.7150   71.6690  222.2610 C   0  0  0  0  0  0  0  0  0  0  0  0
  140.3240   72.9400  222.0310 N   0  0  0  0  0  0  0  0  0  0  0  0
  140.2240   73.5490  220.7210 C   0  0  0  0  0  0  0  0  0  0  0  0
  140.7550   74.9340  220.7170 C   0  0  0  0  0  0  0  0  0  0  0  0
  141.9570   75.1060  220.3950 O   0  0  0  0  0  0  0  0  0  0  0  0
  139.8660   75.9760  221.0790 N   0  0  0  0  0  0  0  0  0  0  0  0
  138.7900   76.4400  220.1880 C   0  0  0  0  0  0  0  0  0  0  0  0
  137.5000   75.9120  220.7710 C   0  0  0  0  0  0  0  0  0  0  0  0
  137.4920   76.1240  222.2420 C   0  0  0  0  0  0  0  0  0  0  0  0
  138.5200   77.1090  222.7510 C   0  0  0  0  0  0  0  0  0  0  0  0
  139.9280   76.6750  222.3600 C   0  0  2  0  0  0  0  0  0  0  0  0
  140.7620   77.8980  222.3170 C   0  0  0  0  0  0  0  0  0  0  0  0
  141.4630   78.3740  223.4180 C   0  0  0  0  0  0  0  0  0  0  0  0
  142.2300   79.5200  223.3760 C   0  0  0  0  0  0  0  0  0  0  0  0
  142.3390   80.2600  222.2220 C   0  0  0  0  0  0  0  0  0  0  0  0
  141.6570   79.8130  221.1160 C   0  0  0  0  0  0  0  0  0  0  0  0
  141.7810   80.8170  219.4830 Br  0  0  0  0  0  0  0  0  0  0  0  0
  140.8800   78.6530  221.1590 C   0  0  0  0  0  0  0  0  0  0  0  0
  139.8380   71.0780  223.6070 C   0  0  0  0  0  0  0  0  0  0  0  0
  139.4200   69.7850  223.8330 C   0  0  0  0  0  0  0  0  0  0  0  0
  139.5180   69.1930  225.0860 C   0  0  0  0  0  0  0  0  0  0  0  0
  140.0540   69.9610  226.0990 C   0  0  0  0  0  0  0  0  0  0  0  0
  140.1530   69.3710  227.3560 C   0  0  0  0  0  0  0  0  0  0  0  0
  140.6830   70.1060  228.3940 C   0  0  0  0  0  0  0  0  0  0  0  0
  141.0990   71.3890  228.1840 C   0  0  0  0  0  0  0  0  0  0  0  0
  141.0010   71.9810  226.9280 C   0  0  0  0  0  0  0  0  0  0  0  0
  140.4730   71.2600  225.8760 C   0  0  0  0  0  0  0  0  0  0  0  0
  140.3480   71.7700  224.6330 N   0  0  0  0  0  0  0  0  0  0  0  0
  140.8410   73.4230  222.8200 H   0  0  0  0  0  0  0  0  0  0  0  0
  140.7979   72.9453  220.0026 H   0  0  0  0  0  0  0  0  0  0  0  0
  139.1607   73.5890  220.4421 H   0  0  0  0  0  0  0  0  0  0  0  0
  138.7709   77.5393  220.1541 H   0  0  0  0  0  0  0  0  0  0  0  0
  138.9402   76.0814  219.1590 H   0  0  0  0  0  0  0  0  0  0  0  0
  136.6498   76.4447  220.3201 H   0  0  0  0  0  0  0  0  0  0  0  0
  137.4168   74.8362  220.5573 H   0  0  0  0  0  0  0  0  0  0  0  0
  136.4957   76.4919  222.5284 H   0  0  0  0  0  0  0  0  0  0  0  0
  137.7456   75.1537  222.6939 H   0  0  0  0  0  0  0  0  0  0  0  0
  138.3151   78.0995  222.3185 H   0  0  0  0  0  0  0  0  0  0  0  0
  138.4561   77.1488  223.8484 H   0  0  0  0  0  0  0  0  0  0  0  0
  140.3749   75.9741  223.0804 H   0  0  0  0  0  0  0  0  0  0  0  0
  141.4040   77.8137  224.3628 H   0  0  0  0  0  0  0  0  0  0  0  0
  142.7633   79.8473  224.2807 H   0  0  0  0  0  0  0  0  0  0  0  0
  142.9488   81.1748  222.1857 H   0  0  0  0  0  0  0  0  0  0  0  0
  140.3483   78.3300  220.2519 H   0  0  0  0  0  0  0  0  0  0  0  0
  138.9973   69.2057  222.9989 H   0  0  0  0  0  0  0  0  0  0  0  0
  139.1838   68.1599  225.2622 H   0  0  0  0  0  0  0  0  0  0  0  0
  139.8143   68.3370  227.5176 H   0  0  0  0  0  0  0  0  0  0  0  0
  140.7711   69.6576  229.3946 H   0  0  0  0  0  0  0  0  0  0  0  0
  141.5189   71.9650  229.0218 H   0  0  0  0  0  0  0  0  0  0  0  0
  141.3418   73.0156  226.7749 H   0  0  0  0  0  0  0  0  0  0  0  0
  1  2  2  0
  2  3  1  0
  3  4  1  0
  4  5  1  0
  5  6  2  0
  5  7  1  0
  7  8  1  0
  8  9  1  0
  9 10  1  0
 10 11  1  0
 11 12  1  0
 12 13  1  0
 13 14  2  0
 14 15  1  0
 15 16  2  0
 16 17  1  0
 17 18  1  0
 17 19  2  0
  2 20  1  0
 20 21  2  0
 21 22  1  0
 22 23  2  0
 23 24  1  0
 24 25  2  0
 25 26  1  0
 26 27  2  0
 27 28  1  0
 28 29  2  0
 12  7  1  0
 19 13  1  0
 29 20  1  0
 28 23  1  0
  3 30  1  0
  4 31  1  0
  4 32  1  0
  8 33  1  0
  8 34  1  0
  9 35  1  0
  9 36  1  0
 10 37  1  0
 10 38  1  0
 11 39  1  0
 11 40  1  0
 12 41  1  1
 14 42  1  0
 15 43  1  0
 16 44  1  0
 19 45  1  0
 21 46  1  0
 22 47  1  0
 24 48  1  0
 25 49  1  0
 26 50  1  0
 27 51  1  0
M  END
>  <smiles>  (3) 
O=C(NCC(=O)N1CCCCC1c1cccc(Br)c1)c1ccc2ccccc2n1

>  <score_type>  (3) 
oracle

>  <origin>  (3) 
autodockgpu

>  <m_score__min__energy>  (3) 
-10.01

>  <m_primary>  (3) 
energy

>  <rmsd>  (3) 
2.662706260477206

>  <m_score__min__rmsd>  (3) 
2.662706260477206

>  <meeko>  (3) 
{"free_energy": -8.4, "intermolecular_energy": -9.89, "internal_energy": -1.77, "cluster_size": 20, "cluster_id": 2, "rank_in_cluster": 20}

>  <energy>  (3) 
-9.75

>  <cluster_rmsd>  (3) 
1.11

>  <cluster>  (3) 
1

$$$$

     RDKit          3D

 51 54  0  0  0  0  0  0  0  0999 V2000
  141.1800   71.5660  221.4600 O   0  0  0  0  0  0  0  0  0  0  0  0
  140.5190   72.0740  222.3840 C   0  0  0  0  0  0  0  0  0  0  0  0
  139.9730   73.3910  222.2980 N   0  0  0  0  0  0  0  0  0  0  0  0
  140.1900   74.1730  221.0980 C   0  0  0  0  0  0  0  0  0  0  0  0
  139.6050   75.5310  221.2140 C   0  0  0  0  0  0  0  0  0  0  0  0
  138.4630   75.6420  221.7250 O   0  0  0  0  0  0  0  0  0  0  0  0
  140.3780   76.6180  220.7380 N   0  0  0  0  0  0  0  0  0  0  0  0
  141.8210   76.5020  220.4710 C   0  0  0  0  0  0  0  0  0  0  0  0
  141.9750   76.4770  218.9680 C   0  0  0  0  0  0  0  0  0  0  0  0
  141.1120   77.5240  218.3610 C   0  0  0  0  0  0  0  0  0  0  0  0
  140.6110   78.5770  219.3240 C   0  0  0  0  0  0  0  0  0  0  0  0
  139.8210   77.9400  220.4610 C   0  0  2  0  0  0  0  0  0  0  0  0
  139.9070   78.8610  221.6180 C   0  0  0  0  0  0  0  0  0  0  0  0
  138.7870   79.3580  222.2730 C   0  0  0  0  0  0  0  0  0  0  0  0
  138.8710   80.2260  223.3420 C   0  0  0  0  0  0  0  0  0  0  0  0
  140.0890   80.6480  223.8200 C   0  0  0  0  0  0  0  0  0  0  0  0
  141.2150   80.1720  223.1920 C   0  0  0  0  0  0  0  0  0  0  0  0
  142.9380   80.7370  223.8280 Br  0  0  0  0  0  0  0  0  0  0  0  0
  141.1290   79.2940  222.1090 C   0  0  0  0  0  0  0  0  0  0  0  0
  140.2790   71.3070  223.6210 C   0  0  0  0  0  0  0  0  0  0  0  0
  139.6280   70.0940  223.5640 C   0  0  0  0  0  0  0  0  0  0  0  0
  139.3820   69.3410  224.7050 C   0  0  0  0  0  0  0  0  0  0  0  0
  139.8200   69.8650  225.9050 C   0  0  0  0  0  0  0  0  0  0  0  0
  139.5750   69.1140  227.0500 C   0  0  0  0  0  0  0  0  0  0  0  0
  139.9970   69.6030  228.2670 C   0  0  0  0  0  0  0  0  0  0  0  0
  140.6420   70.8040  228.3370 C   0  0  0  0  0  0  0  0  0  0  0  0
  140.8880   71.5570  227.1930 C   0  0  0  0  0  0  0  0  0  0  0  0
  140.4730   71.0830  225.9650 C   0  0  0  0  0  0  0  0  0  0  0  0
  140.6780   71.7590  224.8150 N   0  0  0  0  0  0  0  0  0  0  0  0
  139.4170   73.7800  223.1110 H   0  0  0  0  0  0  0  0  0  0  0  0
  141.2722   74.2649  220.9234 H   0  0  0  0  0  0  0  0  0  0  0  0
  139.6974   73.6582  220.2599 H   0  0  0  0  0  0  0  0  0  0  0  0
  142.3569   77.3644  220.8942 H   0  0  0  0  0  0  0  0  0  0  0  0
  142.2403   75.5948  220.9304 H   0  0  0  0  0  0  0  0  0  0  0  0
  143.0253   76.6701  218.7043 H   0  0  0  0  0  0  0  0  0  0  0  0
  141.6751   75.4899  218.5864 H   0  0  0  0  0  0  0  0  0  0  0  0
  141.6909   78.0293  217.5739 H   0  0  0  0  0  0  0  0  0  0  0  0
  140.2195   77.0048  217.9817 H   0  0  0  0  0  0  0  0  0  0  0  0
  141.4706   79.1207  219.7428 H   0  0  0  0  0  0  0  0  0  0  0  0
  139.9497   79.2667  218.7789 H   0  0  0  0  0  0  0  0  0  0  0  0
  138.7600   77.7906  220.2122 H   0  0  0  0  0  0  0  0  0  0  0  0
  137.7913   79.0462  221.9245 H   0  0  0  0  0  0  0  0  0  0  0  0
  137.9481   80.5864  223.8198 H   0  0  0  0  0  0  0  0  0  0  0  0
  140.1596   81.3399  224.6722 H   0  0  0  0  0  0  0  0  0  0  0  0
  142.0545   78.9371  221.6336 H   0  0  0  0  0  0  0  0  0  0  0  0
  139.2940   69.7115  222.5883 H   0  0  0  0  0  0  0  0  0  0  0  0
  138.8626   68.3726  224.6549 H   0  0  0  0  0  0  0  0  0  0  0  0
  139.0539   68.1474  226.9850 H   0  0  0  0  0  0  0  0  0  0  0  0
  139.8137   69.0243  229.1843 H   0  0  0  0  0  0  0  0  0  0  0  0
  140.9731   71.1832  229.3150 H   0  0  0  0  0  0  0  0  0  0  0  0
  141.4093   72.5228  227.2668 H   0  0  0  0  0  0  0  0  0  0  0  0
  1  2  2  0
  2  3  1  0
  3  4  1  0
  4  5  1  0
  5  6  2  0
  5  7  1  0
  7  8  1  0
  8  9  1  0
  9 10  1  0
 10 11  1  0
 11 12  1  0
 12 13  1  0
 13 14  2  0
 14 15  1  0
 15 16  2  0
 16 17  1  0
 17 18  1  0
 17 19  2  0
  2 20  1  0
 20 21  2  0
 21 22  1  0
 22 23  2  0
 23 24  1  0
 24 25  2  0
 25 26  1  0
 26 27  2  0
 27 28  1  0
 28 29  2  0
 12  7  1  0
 19 13  1  0
 29 20  1  0
 28 23  1  0
  3 30  1  0
  4 31  1  0
  4 32  1  0
  8 33  1  0
  8 34  1  0
  9 35  1  0
  9 36  1  0
 10 37  1  0
 10 38  1  0
 11 39  1  0
 11 40  1  0
 12 41  1  6
 14 42  1  0
 15 43  1  0
 16 44  1  0
 19 45  1  0
 21 46  1  0
 22 47  1  0
 24 48  1  0
 25 49  1  0
 26 50  1  0
 27 51  1  0
M  END
>  <smiles>  (4) 
O=C(NCC(=O)N1CCCCC1c1cccc(Br)c1)c1ccc2ccccc2n1

>  <score_type>  (4) 
oracle

>  <origin>  (4) 
autodockgpu

>  <m_score__min__energy>  (4) 
-10.01

>  <m_primary>  (4) 
energy

>  <rmsd>  (4) 
2.1702229839381224

>  <m_score__min__rmsd>  (4) 
2.1702229839381224

>  <meeko>  (4) 
{"free_energy": -8.83, "intermolecular_energy": -10.32, "internal_energy": -1.61, "cluster_size": 20, "cluster_id": 2, "rank_in_cluster": 18}

>  <energy>  (4) 
-9.75

>  <cluster_rmsd>  (4) 
1.1

>  <cluster>  (4) 
1

$$$$

     RDKit          3D

 51 54  0  0  0  0  0  0  0  0999 V2000
  138.8820   70.8970  221.6100 O   0  0  0  0  0  0  0  0  0  0  0  0
  139.3060   71.4180  222.6580 C   0  0  0  0  0  0  0  0  0  0  0  0
  139.6030   72.8110  222.7530 N   0  0  0  0  0  0  0  0  0  0  0  0
  139.4080   73.6590  221.5960 C   0  0  0  0  0  0  0  0  0  0  0  0
  140.1700   74.9270  221.7090 C   0  0  0  0  0  0  0  0  0  0  0  0
  141.4150   74.8580  221.8640 O   0  0  0  0  0  0  0  0  0  0  0  0
  139.4390   76.1380  221.6350 N   0  0  0  0  0  0  0  0  0  0  0  0
  138.5820   76.4730  220.4860 C   0  0  0  0  0  0  0  0  0  0  0  0
  137.1560   76.3070  220.9570 C   0  0  0  0  0  0  0  0  0  0  0  0
  137.0000   76.9230  222.3010 C   0  0  0  0  0  0  0  0  0  0  0  0
  138.1110   77.8650  222.7050 C   0  0  0  0  0  0  0  0  0  0  0  0
  139.4600   77.1540  222.6840 C   0  0  2  0  0  0  0  0  0  0  0  0
  140.4940   78.1930  222.4690 C   0  0  0  0  0  0  0  0  0  0  0  0
  141.3340   78.6420  223.4800 C   0  0  0  0  0  0  0  0  0  0  0  0
  142.2880   79.6180  223.2780 C   0  0  0  0  0  0  0  0  0  0  0  0
  142.4570   80.2030  222.0450 C   0  0  0  0  0  0  0  0  0  0  0  0
  141.6390   79.7770  221.0250 C   0  0  0  0  0  0  0  0  0  0  0  0
  141.8410   80.5680  219.2860 Br  0  0  0  0  0  0  0  0  0  0  0  0
  140.6730   78.7900  221.2310 C   0  0  0  0  0  0  0  0  0  0  0  0
  139.5160   70.5840  223.8570 C   0  0  0  0  0  0  0  0  0  0  0  0
  139.1260   69.2630  223.8550 C   0  0  0  0  0  0  0  0  0  0  0  0
  139.3050   68.4440  224.9630 C   0  0  0  0  0  0  0  0  0  0  0  0
  139.8950   69.0160  226.0720 C   0  0  0  0  0  0  0  0  0  0  0  0
  140.0770   68.1990  227.1830 C   0  0  0  0  0  0  0  0  0  0  0  0
  140.6620   68.7330  228.3110 C   0  0  0  0  0  0  0  0  0  0  0  0
  141.0530   70.0420  228.3270 C   0  0  0  0  0  0  0  0  0  0  0  0
  140.8720   70.8600  227.2160 C   0  0  0  0  0  0  0  0  0  0  0  0
  140.2880   70.3420  226.0780 C   0  0  0  0  0  0  0  0  0  0  0  0
  140.0820   71.0780  224.9640 N   0  0  0  0  0  0  0  0  0  0  0  0
  139.9610   73.2080  223.6680 H   0  0  0  0  0  0  0  0  0  0  0  0
  139.7447   73.1198  220.6983 H   0  0  0  0  0  0  0  0  0  0  0  0
  138.3384   73.9070  221.5296 H   0  0  0  0  0  0  0  0  0  0  0  0
  138.7597   77.5110  220.1683 H   0  0  0  0  0  0  0  0  0  0  0  0
  138.7965   75.8232  219.6247 H   0  0  0  0  0  0  0  0  0  0  0  0
  136.4761   76.8005  220.2469 H   0  0  0  0  0  0  0  0  0  0  0  0
  136.9129   75.2358  221.0156 H   0  0  0  0  0  0  0  0  0  0  0  0
  136.0550   77.4859  222.3107 H   0  0  0  0  0  0  0  0  0  0  0  0
  137.0221   76.0939  223.0235 H   0  0  0  0  0  0  0  0  0  0  0  0
  138.1388   78.7115  222.0031 H   0  0  0  0  0  0  0  0  0  0  0  0
  137.9165   78.2208  223.7275 H   0  0  0  0  0  0  0  0  0  0  0  0
  139.6828   76.6310  223.6257 H   0  0  0  0  0  0  0  0  0  0  0  0
  141.2345   78.2013  224.4829 H   0  0  0  0  0  0  0  0  0  0  0  0
  142.9245   79.9337  224.1178 H   0  0  0  0  0  0  0  0  0  0  0  0
  143.2168   80.9813  221.8810 H   0  0  0  0  0  0  0  0  0  0  0  0
  140.0376   78.4782  220.3890 H   0  0  0  0  0  0  0  0  0  0  0  0
  138.6597   68.8447  222.9508 H   0  0  0  0  0  0  0  0  0  0  0  0
  138.9913   67.3897  224.9567 H   0  0  0  0  0  0  0  0  0  0  0  0
  139.7598   67.1459  227.1617 H   0  0  0  0  0  0  0  0  0  0  0  0
  140.8144   68.1038  229.2003 H   0  0  0  0  0  0  0  0  0  0  0  0
  141.5187   70.4562  229.2334 H   0  0  0  0  0  0  0  0  0  0  0  0
  141.1921   71.9120  227.2446 H   0  0  0  0  0  0  0  0  0  0  0  0
  1  2  2  0
  2  3  1  0
  3  4  1  0
  4  5  1  0
  5  6  2  0
  5  7  1  0
  7  8  1  0
  8  9  1  0
  9 10  1  0
 10 11  1  0
 11 12  1  0
 12 13  1  0
 13 14  2  0
 14 15  1  0
 15 16  2  0
 16 17  1  0
 17 18  1  0
 17 19  2  0
  2 20  1  0
 20 21  2  0
 21 22  1  0
 22 23  2  0
 23 24  1  0
 24 25  2  0
 25 26  1  0
 26 27  2  0
 27 28  1  0
 28 29  2  0
 12  7  1  0
 19 13  1  0
 29 20  1  0
 28 23  1  0
  3 30  1  0
  4 31  1  0
  4 32  1  0
  8 33  1  0
  8 34  1  0
  9 35  1  0
  9 36  1  0
 10 37  1  0
 10 38  1  0
 11 39  1  0
 11 40  1  0
 12 41  1  1
 14 42  1  0
 15 43  1  0
 16 44  1  0
 19 45  1  0
 21 46  1  0
 22 47  1  0
 24 48  1  0
 25 49  1  0
 26 50  1  0
 27 51  1  0
M  END
>  <smiles>  (5) 
O=C(NCC(=O)N1CCCCC1c1cccc(Br)c1)c1ccc2ccccc2n1

>  <score_type>  (5) 
oracle

>  <origin>  (5) 
autodockgpu

>  <m_score__min__energy>  (5) 
-10.01

>  <m_primary>  (5) 
energy

>  <rmsd>  (5) 
2.6782504470903223

>  <m_score__min__rmsd>  (5) 
2.6782504470903223

>  <meeko>  (5) 
{"free_energy": -8.87, "intermolecular_energy": -10.36, "internal_energy": -1.67, "cluster_size": 20, "cluster_id": 2, "rank_in_cluster": 17}

>  <energy>  (5) 
-9.74

>  <cluster_rmsd>  (5) 
1.11

>  <cluster>  (5) 
1

$$$$

     RDKit          3D

 51 54  0  0  0  0  0  0  0  0999 V2000
  141.8840   73.0250  221.0550 O   0  0  0  0  0  0  0  0  0  0  0  0
  141.0570   73.7980  221.5740 C   0  0  0  0  0  0  0  0  0  0  0  0
  139.9430   73.3280  222.3330 N   0  0  0  0  0  0  0  0  0  0  0  0
  139.7580   71.9030  222.5150 C   0  0  0  0  0  0  0  0  0  0  0  0
  138.3440   71.5650  222.8100 C   0  0  0  0  0  0  0  0  0  0  0  0
  137.4800   72.4670  222.6760 O   0  0  0  0  0  0  0  0  0  0  0  0
  138.0610   70.2420  223.2250 N   0  0  0  0  0  0  0  0  0  0  0  0
  136.6900   69.7670  223.4710 C   0  0  0  0  0  0  0  0  0  0  0  0
  136.3370   68.8680  222.3090 C   0  0  0  0  0  0  0  0  0  0  0  0
  137.4760   67.9590  222.0180 C   0  0  0  0  0  0  0  0  0  0  0  0
  138.5110   67.8590  223.1160 C   0  0  0  0  0  0  0  0  0  0  0  0
  139.0930   69.2300  223.4400 C   0  0  2  0  0  0  0  0  0  0  0  0
  139.5750   69.1760  224.8400 C   0  0  0  0  0  0  0  0  0  0  0  0
  139.6040   68.0030  225.5840 C   0  0  0  0  0  0  0  0  0  0  0  0
  140.0430   67.9600  226.8910 C   0  0  0  0  0  0  0  0  0  0  0  0
  140.4800   69.0960  227.5320 C   0  0  0  0  0  0  0  0  0  0  0  0
  140.4630   70.2710  226.8200 C   0  0  0  0  0  0  0  0  0  0  0  0
  141.0650   71.8810  227.6780 Br  0  0  0  0  0  0  0  0  0  0  0  0
  140.0180   70.3140  225.4970 C   0  0  0  0  0  0  0  0  0  0  0  0
  141.2140   75.2560  221.4100 C   0  0  0  0  0  0  0  0  0  0  0  0
  141.9250   75.7560  220.3410 C   0  0  0  0  0  0  0  0  0  0  0  0
  142.0970   77.1220  220.1510 C   0  0  0  0  0  0  0  0  0  0  0  0
  141.5220   77.9590  221.0850 C   0  0  0  0  0  0  0  0  0  0  0  0
  141.6910   79.3270  220.8980 C   0  0  0  0  0  0  0  0  0  0  0  0
  141.1320   80.1960  221.8090 C   0  0  0  0  0  0  0  0  0  0  0  0
  140.4260   79.7130  222.8740 C   0  0  0  0  0  0  0  0  0  0  0  0
  140.2550   78.3450  223.0630 C   0  0  0  0  0  0  0  0  0  0  0  0
  140.8080   77.4600  222.1600 C   0  0  0  0  0  0  0  0  0  0  0  0
  140.6820   76.1210  222.2800 N   0  0  0  0  0  0  0  0  0  0  0  0
  139.2670   74.0250  222.7560 H   0  0  0  0  0  0  0  0  0  0  0  0
  140.0638   71.3837  221.5948 H   0  0  0  0  0  0  0  0  0  0  0  0
  140.3716   71.5848  223.3707 H   0  0  0  0  0  0  0  0  0  0  0  0
  136.6457   69.2041  224.4150 H   0  0  0  0  0  0  0  0  0  0  0  0
  135.9850   70.6073  223.5546 H   0  0  0  0  0  0  0  0  0  0  0  0
  135.4487   68.2716  222.5643 H   0  0  0  0  0  0  0  0  0  0  0  0
  136.1250   69.4834  221.4223 H   0  0  0  0  0  0  0  0  0  0  0  0
  137.0715   66.9521  221.8378 H   0  0  0  0  0  0  0  0  0  0  0  0
  137.9936   68.3846  221.1457 H   0  0  0  0  0  0  0  0  0  0  0  0
  138.0391   67.4452  224.0194 H   0  0  0  0  0  0  0  0  0  0  0  0
  139.3250   67.2032  222.7736 H   0  0  0  0  0  0  0  0  0  0  0  0
  139.9390   69.5000  222.7909 H   0  0  0  0  0  0  0  0  0  0  0  0
  139.2628   67.0702  225.1113 H   0  0  0  0  0  0  0  0  0  0  0  0
  140.0436   67.0010  227.4299 H   0  0  0  0  0  0  0  0  0  0  0  0
  140.8296   69.0649  228.5745 H   0  0  0  0  0  0  0  0  0  0  0  0
  140.0189   71.2753  224.9623 H   0  0  0  0  0  0  0  0  0  0  0  0
  142.3685   75.0551  219.6184 H   0  0  0  0  0  0  0  0  0  0  0  0
  142.6650   77.5173  219.2960 H   0  0  0  0  0  0  0  0  0  0  0  0
  142.2609   79.7081  220.0378 H   0  0  0  0  0  0  0  0  0  0  0  0
  141.2544   81.2814  221.6786 H   0  0  0  0  0  0  0  0  0  0  0  0
  139.9851   80.4175  223.5946 H   0  0  0  0  0  0  0  0  0  0  0  0
  139.6834   77.9719  223.9256 H   0  0  0  0  0  0  0  0  0  0  0  0
  1  2  2  0
  2  3  1  0
  3  4  1  0
  4  5  1  0
  5  6  2  0
  5  7  1  0
  7  8  1  0
  8  9  1  0
  9 10  1  0
 10 11  1  0
 11 12  1  0
 12 13  1  0
 13 14  2  0
 14 15  1  0
 15 16  2  0
 16 17  1  0
 17 18  1  0
 17 19  2  0
  2 20  1  0
 20 21  2  0
 21 22  1  0
 22 23  2  0
 23 24  1  0
 24 25  2  0
 25 26  1  0
 26 27  2  0
 27 28  1  0
 28 29  2  0
 12  7  1  0
 19 13  1  0
 29 20  1  0
 28 23  1  0
  3 30  1  0
  4 31  1  0
  4 32  1  0
  8 33  1  0
  8 34  1  0
  9 35  1  0
  9 36  1  0
 10 37  1  0
 10 38  1  0
 11 39  1  0
 11 40  1  0
 12 41  1  6
 14 42  1  0
 15 43  1  0
 16 44  1  0
 19 45  1  0
 21 46  1  0
 22 47  1  0
 24 48  1  0
 25 49  1  0
 26 50  1  0
 27 51  1  0
M  END
>  <smiles>  (6) 
O=C(NCC(=O)N1CCCCC1c1cccc(Br)c1)c1ccc2ccccc2n1

>  <score_type>  (6) 
oracle

>  <origin>  (6) 
autodockgpu

>  <m_score__min__energy>  (6) 
-10.01

>  <m_primary>  (6) 
energy

>  <rmsd>  (6) 
8.416935118556669

>  <m_score__min__rmsd>  (6) 
8.416935118556669

>  <meeko>  (6) 
{"free_energy": -8.86, "intermolecular_energy": -10.35, "internal_energy": -2.0, "cluster_size": 22, "cluster_id": 1, "rank_in_cluster": 19}

>  <energy>  (6) 
-9.74

>  <cluster_rmsd>  (6) 
1.11

>  <cluster>  (6) 
1

$$$$

     RDKit          3D

 51 54  0  0  0  0  0  0  0  0999 V2000
  137.3710   76.3170  222.0600 O   0  0  0  0  0  0  0  0  0  0  0  0
  138.5890   76.3390  222.3170 C   0  0  0  0  0  0  0  0  0  0  0  0
  139.4060   75.1700  222.2510 N   0  0  0  0  0  0  0  0  0  0  0  0
  138.8080   73.9060  221.8720 C   0  0  0  0  0  0  0  0  0  0  0  0
  139.5580   72.7540  222.4290 C   0  0  0  0  0  0  0  0  0  0  0  0
  140.7670   72.9230  222.7260 O   0  0  0  0  0  0  0  0  0  0  0  0
  138.8580   71.5340  222.5880 N   0  0  0  0  0  0  0  0  0  0  0  0
  137.3900   71.4510  222.5160 C   0  0  0  0  0  0  0  0  0  0  0  0
  137.0660   70.8030  221.1900 C   0  0  0  0  0  0  0  0  0  0  0  0
  137.9620   69.6370  220.9720 C   0  0  0  0  0  0  0  0  0  0  0  0
  138.6790   69.1430  222.2080 C   0  0  0  0  0  0  0  0  0  0  0  0
  139.5190   70.2530  222.8280 C   0  0  2  0  0  0  0  0  0  0  0  0
  139.6640   69.9340  224.2670 C   0  0  0  0  0  0  0  0  0  0  0  0
  139.2810   68.7150  224.8130 C   0  0  0  0  0  0  0  0  0  0  0  0
  139.4070   68.4260  226.1560 C   0  0  0  0  0  0  0  0  0  0  0  0
  139.9290   69.3460  227.0350 C   0  0  0  0  0  0  0  0  0  0  0  0
  140.3180   70.5600  226.5230 C   0  0  0  0  0  0  0  0  0  0  0  0
  141.0520   71.8750  227.7160 Br  0  0  0  0  0  0  0  0  0  0  0  0
  140.1890   70.8530  225.1630 C   0  0  0  0  0  0  0  0  0  0  0  0
  139.2320   77.6090  222.7060 C   0  0  0  0  0  0  0  0  0  0  0  0
  138.4600   78.6830  223.0880 C   0  0  0  0  0  0  0  0  0  0  0  0
  139.0260   79.8960  223.4610 C   0  0  0  0  0  0  0  0  0  0  0  0
  140.4030   79.9770  223.4300 C   0  0  0  0  0  0  0  0  0  0  0  0
  140.9740   81.1900  223.8030 C   0  0  0  0  0  0  0  0  0  0  0  0
  142.3470   81.3110  223.7860 C   0  0  0  0  0  0  0  0  0  0  0  0
  143.1240   80.2540  223.4070 C   0  0  0  0  0  0  0  0  0  0  0  0
  142.5550   79.0400  223.0340 C   0  0  0  0  0  0  0  0  0  0  0  0
  141.1820   78.9000  223.0460 C   0  0  0  0  0  0  0  0  0  0  0  0
  140.5620   77.7520  222.6970 N   0  0  0  0  0  0  0  0  0  0  0  0
  140.4380   75.2390  222.4780 H   0  0  0  0  0  0  0  0  0  0  0  0
  137.7747   73.8738  222.2480 H   0  0  0  0  0  0  0  0  0  0  0  0
  138.8314   73.8315  220.7748 H   0  0  0  0  0  0  0  0  0  0  0  0
  137.0021   70.8391  223.3437 H   0  0  0  0  0  0  0  0  0  0  0  0
  136.9290   72.4464  222.5976 H   0  0  0  0  0  0  0  0  0  0  0  0
  136.0194   70.4646  221.1941 H   0  0  0  0  0  0  0  0  0  0  0  0
  137.2139   71.5334  220.3809 H   0  0  0  0  0  0  0  0  0  0  0  0
  137.3551   68.8095  220.5758 H   0  0  0  0  0  0  0  0  0  0  0  0
  138.7445   69.9760  220.2772 H   0  0  0  0  0  0  0  0  0  0  0  0
  137.9358   68.8002  222.9429 H   0  0  0  0  0  0  0  0  0  0  0  0
  139.3451   68.3158  221.9215 H   0  0  0  0  0  0  0  0  0  0  0  0
  140.5227   70.3275  222.3841 H   0  0  0  0  0  0  0  0  0  0  0  0
  138.8596   67.9482  224.1463 H   0  0  0  0  0  0  0  0  0  0  0  0
  139.0845   67.4431  226.5302 H   0  0  0  0  0  0  0  0  0  0  0  0
  140.0311   69.1186  228.1064 H   0  0  0  0  0  0  0  0  0  0  0  0
  140.5120   71.8375  224.7937 H   0  0  0  0  0  0  0  0  0  0  0  0
  137.3651   78.5780  223.0982 H   0  0  0  0  0  0  0  0  0  0  0  0
  138.4055   80.7513  223.7666 H   0  0  0  0  0  0  0  0  0  0  0  0
  140.3410   82.0371  224.1060 H   0  0  0  0  0  0  0  0  0  0  0  0
  142.8178   82.2612  224.0784 H   0  0  0  0  0  0  0  0  0  0  0  0
  144.2184   80.3640  223.3963 H   0  0  0  0  0  0  0  0  0  0  0  0
  143.1950   78.1980  222.7317 H   0  0  0  0  0  0  0  0  0  0  0  0
  1  2  2  0
  2  3  1  0
  3  4  1  0
  4  5  1  0
  5  6  2  0
  5  7  1  0
  7  8  1  0
  8  9  1  0
  9 10  1  0
 10 11  1  0
 11 12  1  0
 12 13  1  0
 13 14  2  0
 14 15  1  0
 15 16  2  0
 16 17  1  0
 17 18  1  0
 17 19  2  0
  2 20  1  0
 20 21  2  0
 21 22  1  0
 22 23  2  0
 23 24  1  0
 24 25  2  0
 25 26  1  0
 26 27  2  0
 27 28  1  0
 28 29  2  0
 12  7  1  0
 19 13  1  0
 29 20  1  0
 28 23  1  0
  3 30  1  0
  4 31  1  0
  4 32  1  0
  8 33  1  0
  8 34  1  0
  9 35  1  0
  9 36  1  0
 10 37  1  0
 10 38  1  0
 11 39  1  0
 11 40  1  0
 12 41  1  6
 14 42  1  0
 15 43  1  0
 16 44  1  0
 19 45  1  0
 21 46  1  0
 22 47  1  0
 24 48  1  0
 25 49  1  0
 26 50  1  0
 27 51  1  0
M  END
>  <smiles>  (7) 
O=C(NCC(=O)N1CCCCC1c1cccc(Br)c1)c1ccc2ccccc2n1

>  <score_type>  (7) 
oracle

>  <origin>  (7) 
autodockgpu

>  <m_score__min__energy>  (7) 
-10.01

>  <m_primary>  (7) 
energy

>  <rmsd>  (7) 
8.316362876639298

>  <m_score__min__rmsd>  (7) 
8.316362876639298

>  <meeko>  (7) 
{"free_energy": -8.95, "intermolecular_energy": -10.44, "internal_energy": -2.01, "cluster_size": 22, "cluster_id": 1, "rank_in_cluster": 15}

>  <energy>  (7) 
-9.72

>  <cluster_rmsd>  (7) 
0.45

>  <cluster>  (7) 
1

$$$$

     RDKit          3D

 51 54  0  0  0  0  0  0  0  0999 V2000
  140.9910   74.9600  220.9530 O   0  0  0  0  0  0  0  0  0  0  0  0
  140.1130   75.3510  221.7440 C   0  0  0  0  0  0  0  0  0  0  0  0
  139.0550   74.5030  222.1910 N   0  0  0  0  0  0  0  0  0  0  0  0
  138.9900   73.1370  221.7160 C   0  0  0  0  0  0  0  0  0  0  0  0
  139.5560   72.1840  222.7030 C   0  0  0  0  0  0  0  0  0  0  0  0
  140.7380   72.3640  223.0880 O   0  0  0  0  0  0  0  0  0  0  0  0
  138.7210   71.1300  223.1460 N   0  0  0  0  0  0  0  0  0  0  0  0
  137.2820   71.3150  223.3950 C   0  0  0  0  0  0  0  0  0  0  0  0
  136.5630   70.6380  222.2510 C   0  0  0  0  0  0  0  0  0  0  0  0
  137.1840   69.3130  221.9870 C   0  0  0  0  0  0  0  0  0  0  0  0
  138.0730   68.7910  223.0930 C   0  0  0  0  0  0  0  0  0  0  0  0
  139.2020   69.7720  223.3890 C   0  0  2  0  0  0  0  0  0  0  0  0
  139.6170   69.5440  224.7930 C   0  0  0  0  0  0  0  0  0  0  0  0
  139.5690   68.2960  225.4000 C   0  0  0  0  0  0  0  0  0  0  0  0
  139.9460   68.0890  226.7120 C   0  0  0  0  0  0  0  0  0  0  0  0
  140.3950   69.1270  227.4940 C   0  0  0  0  0  0  0  0  0  0  0  0
  140.4540   70.3740  226.9180 C   0  0  0  0  0  0  0  0  0  0  0  0
  141.0760   71.8520  227.9760 Br  0  0  0  0  0  0  0  0  0  0  0  0
  140.0720   70.5820  225.5910 C   0  0  0  0  0  0  0  0  0  0  0  0
  140.1480   76.7370  222.2490 C   0  0  0  0  0  0  0  0  0  0  0  0
  138.9750   77.3810  222.5760 C   0  0  0  0  0  0  0  0  0  0  0  0
  138.9640   78.6850  223.0540 C   0  0  0  0  0  0  0  0  0  0  0  0
  140.1870   79.3110  223.1870 C   0  0  0  0  0  0  0  0  0  0  0  0
  140.1810   80.6170  223.6650 C   0  0  0  0  0  0  0  0  0  0  0  0
  141.3820   81.2760  223.8130 C   0  0  0  0  0  0  0  0  0  0  0  0
  142.5520   80.6490  223.4910 C   0  0  0  0  0  0  0  0  0  0  0  0
  142.5610   79.3430  223.0130 C   0  0  0  0  0  0  0  0  0  0  0  0
  141.3670   78.6670  222.8590 C   0  0  0  0  0  0  0  0  0  0  0  0
  141.3000   77.3990  222.4010 N   0  0  0  0  0  0  0  0  0  0  0  0
  138.3310   74.8820  222.8660 H   0  0  0  0  0  0  0  0  0  0  0  0
  137.9382   72.8742  221.5297 H   0  0  0  0  0  0  0  0  0  0  0  0
  139.5839   73.0669  220.7928 H   0  0  0  0  0  0  0  0  0  0  0  0
  136.9982   70.8510  224.3511 H   0  0  0  0  0  0  0  0  0  0  0  0
  137.0208   72.3818  223.4560 H   0  0  0  0  0  0  0  0  0  0  0  0
  135.5039   70.5002  222.5144 H   0  0  0  0  0  0  0  0  0  0  0  0
  136.6394   71.2638  221.3496 H   0  0  0  0  0  0  0  0  0  0  0  0
  136.3763   68.5839  221.8259 H   0  0  0  0  0  0  0  0  0  0  0  0
  137.8331   69.4477  221.1092 H   0  0  0  0  0  0  0  0  0  0  0  0
  137.4711   68.6488  224.0027 H   0  0  0  0  0  0  0  0  0  0  0  0
  138.5120   67.8352  222.7709 H   0  0  0  0  0  0  0  0  0  0  0  0
  140.0769   69.6255  222.7385 H   0  0  0  0  0  0  0  0  0  0  0  0
  139.2160   67.4366  224.8111 H   0  0  0  0  0  0  0  0  0  0  0  0
  139.8862   67.0769  227.1387 H   0  0  0  0  0  0  0  0  0  0  0  0
  140.6954   68.9660  228.5399 H   0  0  0  0  0  0  0  0  0  0  0  0
  140.1338   71.5956  225.1682 H   0  0  0  0  0  0  0  0  0  0  0  0
  138.0206   76.8477  222.4552 H   0  0  0  0  0  0  0  0  0  0  0  0
  138.0248   79.1949  223.3144 H   0  0  0  0  0  0  0  0  0  0  0  0
  139.2341   81.1151  223.9204 H   0  0  0  0  0  0  0  0  0  0  0  0
  141.3986   82.3088  224.1911 H   0  0  0  0  0  0  0  0  0  0  0  0
  143.5040   81.1866  223.6119 H   0  0  0  0  0  0  0  0  0  0  0  0
  143.5123   78.8523  222.7595 H   0  0  0  0  0  0  0  0  0  0  0  0
  1  2  2  0
  2  3  1  0
  3  4  1  0
  4  5  1  0
  5  6  2  0
  5  7  1  0
  7  8  1  0
  8  9  1  0
  9 10  1  0
 10 11  1  0
 11 12  1  0
 12 13  1  0
 13 14  2  0
 14 15  1  0
 15 16  2  0
 16 17  1  0
 17 18  1  0
 17 19  2  0
  2 20  1  0
 20 21  2  0
 21 22  1  0
 22 23  2  0
 23 24  1  0
 24 25  2  0
 25 26  1  0
 26 27  2  0
 27 28  1  0
 28 29  2  0
 12  7  1  0
 19 13  1  0
 29 20  1  0
 28 23  1  0
  3 30  1  0
  4 31  1  0
  4 32  1  0
  8 33  1  0
  8 34  1  0
  9 35  1  0
  9 36  1  0
 10 37  1  0
 10 38  1  0
 11 39  1  0
 11 40  1  0
 12 41  1  6
 14 42  1  0
 15 43  1  0
 16 44  1  0
 19 45  1  0
 21 46  1  0
 22 47  1  0
 24 48  1  0
 25 49  1  0
 26 50  1  0
 27 51  1  0
M  END
>  <smiles>  (8) 
O=C(NCC(=O)N1CCCCC1c1cccc(Br)c1)c1ccc2ccccc2n1

>  <score_type>  (8) 
oracle

>  <origin>  (8) 
autodockgpu

>  <m_score__min__energy>  (8) 
-10.01

>  <m_primary>  (8) 
energy

>  <rmsd>  (8) 
8.29743423878248

>  <m_score__min__rmsd>  (8) 
8.29743423878248

>  <meeko>  (8) 
{"free_energy": -9.8, "intermolecular_energy": -11.29, "internal_energy": -1.34, "cluster_size": 22, "cluster_id": 1, "rank_in_cluster": 2}

>  <energy>  (8) 
-9.36

>  <cluster_rmsd>  (8) 
1.35

>  <cluster>  (8) 
1

$$$$

     RDKit          3D

 51 54  0  0  0  0  0  0  0  0999 V2000
  140.3770   70.8820  221.5370 O   0  0  0  0  0  0  0  0  0  0  0  0
  140.1380   71.5940  222.5290 C   0  0  0  0  0  0  0  0  0  0  0  0
  139.7770   72.9710  222.4120 N   0  0  0  0  0  0  0  0  0  0  0  0
  139.6820   73.5710  221.0980 C   0  0  0  0  0  0  0  0  0  0  0  0
  140.1980   74.9620  221.0900 C   0  0  0  0  0  0  0  0  0  0  0  0
  139.7620   75.7600  221.9580 O   0  0  0  0  0  0  0  0  0  0  0  0
  141.1510   75.3000  220.1000 N   0  0  0  0  0  0  0  0  0  0  0  0
  140.8100   75.3760  218.6700 C   0  0  0  0  0  0  0  0  0  0  0  0
  140.7740   76.8460  218.3200 C   0  0  0  0  0  0  0  0  0  0  0  0
  141.9490   77.5300  218.9180 C   0  0  0  0  0  0  0  0  0  0  0  0
  143.0600   76.6120  219.3750 C   0  0  0  0  0  0  0  0  0  0  0  0
  142.5470   75.6080  220.4010 C   0  0  2  0  0  0  0  0  0  0  0  0
  143.4340   74.4240  220.3300 C   0  0  0  0  0  0  0  0  0  0  0  0
  144.8070   74.4960  220.5270 C   0  0  0  0  0  0  0  0  0  0  0  0
  145.6310   73.3920  220.4480 C   0  0  0  0  0  0  0  0  0  0  0  0
  145.1240   72.1460  220.1660 C   0  0  0  0  0  0  0  0  0  0  0  0
  143.7690   72.0440  219.9670 C   0  0  0  0  0  0  0  0  0  0  0  0
  143.0180   70.3210  219.5700 Br  0  0  0  0  0  0  0  0  0  0  0  0
  142.9350   73.1620  220.0460 C   0  0  0  0  0  0  0  0  0  0  0  0
  140.2250   71.0160  223.8840 C   0  0  0  0  0  0  0  0  0  0  0  0
  140.6980   71.7770  224.9290 C   0  0  0  0  0  0  0  0  0  0  0  0
  140.7950   71.2700  226.2190 C   0  0  0  0  0  0  0  0  0  0  0  0
  140.3970   69.9630  226.4070 C   0  0  0  0  0  0  0  0  0  0  0  0
  140.4930   69.4510  227.6970 C   0  0  0  0  0  0  0  0  0  0  0  0
  140.1040   68.1490  227.9260 C   0  0  0  0  0  0  0  0  0  0  0  0
  139.6350   67.3830  226.8980 C   0  0  0  0  0  0  0  0  0  0  0  0
  139.5370   67.8920  225.6070 C   0  0  0  0  0  0  0  0  0  0  0  0
  139.9220   69.1940  225.3590 C   0  0  0  0  0  0  0  0  0  0  0  0
  139.8540   69.7540  224.1320 N   0  0  0  0  0  0  0  0  0  0  0  0
  139.5820   73.5360  223.2870 H   0  0  0  0  0  0  0  0  0  0  0  0
  140.2688   72.9693  220.3883 H   0  0  0  0  0  0  0  0  0  0  0  0
  138.6208   73.5978  220.8098 H   0  0  0  0  0  0  0  0  0  0  0  0
  141.5728   74.8599  218.0686 H   0  0  0  0  0  0  0  0  0  0  0  0
  139.8441   74.8920  218.4630 H   0  0  0  0  0  0  0  0  0  0  0  0
  140.8000   76.9626  217.2265 H   0  0  0  0  0  0  0  0  0  0  0  0
  139.8505   77.2932  218.7164 H   0  0  0  0  0  0  0  0  0  0  0  0
  142.3626   78.2177  218.1657 H   0  0  0  0  0  0  0  0  0  0  0  0
  141.5809   78.0394  219.8208 H   0  0  0  0  0  0  0  0  0  0  0  0
  143.4581   76.0677  218.5060 H   0  0  0  0  0  0  0  0  0  0  0  0
  143.8493   77.2198  219.8415 H   0  0  0  0  0  0  0  0  0  0  0  0
  142.5694   75.9980  221.4293 H   0  0  0  0  0  0  0  0  0  0  0  0
  145.2562   75.4738  220.7555 H   0  0  0  0  0  0  0  0  0  0  0  0
  146.7119   73.5111  220.6135 H   0  0  0  0  0  0  0  0  0  0  0  0
  145.7785   71.2642  220.1022 H   0  0  0  0  0  0  0  0  0  0  0  0
  141.8549   73.0379  219.8786 H   0  0  0  0  0  0  0  0  0  0  0  0
  141.0077   72.8150  224.7375 H   0  0  0  0  0  0  0  0  0  0  0  0
  141.1717   71.8825  227.0515 H   0  0  0  0  0  0  0  0  0  0  0  0
  140.8728   70.0746  228.5198 H   0  0  0  0  0  0  0  0  0  0  0  0
  140.1716   67.7261  228.9392 H   0  0  0  0  0  0  0  0  0  0  0  0
  139.3291   66.3447  227.0939 H   0  0  0  0  0  0  0  0  0  0  0  0
  139.1556   67.2616  224.7902 H   0  0  0  0  0  0  0  0  0  0  0  0
  1  2  2  0
  2  3  1  0
  3  4  1  0
  4  5  1  0
  5  6  2  0
  5  7  1  0
  7  8  1  0
  8  9  1  0
  9 10  1  0
 10 11  1  0
 11 12  1  0
 12 13  1  0
 13 14  2  0
 14 15  1  0
 15 16  2  0
 16 17  1  0
 17 18  1  0
 17 19  2  0
  2 20  1  0
 20 21  2  0
 21 22  1  0
 22 23  2  0
 23 24  1  0
 24 25  2  0
 25 26  1  0
 26 27  2  0
 27 28  1  0
 28 29  2  0
 12  7  1  0
 19 13  1  0
 29 20  1  0
 28 23  1  0
  3 30  1  0
  4 31  1  0
  4 32  1  0
  8 33  1  0
  8 34  1  0
  9 35  1  0
  9 36  1  0
 10 37  1  0
 10 38  1  0
 11 39  1  0
 11 40  1  0
 12 41  1  1
 14 42  1  0
 15 43  1  0
 16 44  1  0
 19 45  1  0
 21 46  1  0
 22 47  1  0
 24 48  1  0
 25 49  1  0
 26 50  1  0
 27 51  1  0
M  END
>  <smiles>  (9) 
O=C(NCC(=O)N1CCCCC1c1cccc(Br)c1)c1ccc2ccccc2n1

>  <score_type>  (9) 
oracle

>  <origin>  (9) 
autodockgpu

>  <m_score__min__energy>  (9) 
-10.01

>  <m_primary>  (9) 
energy

>  <rmsd>  (9) 
2.7809825711820264

>  <m_score__min__rmsd>  (9) 
2.7809825711820264

>  <meeko>  (9) 
{"free_energy": -8.48, "intermolecular_energy": -9.98, "internal_energy": -1.94, "cluster_size": 8, "cluster_id": 3, "rank_in_cluster": 8}

>  <energy>  (9) 
-9.35

>  <cluster_rmsd>  (9) 
1.35

>  <cluster>  (9) 
1

$$$$

     RDKit          3D

 51 54  0  0  0  0  0  0  0  0999 V2000
  141.2080   71.5810  221.4810 O   0  0  0  0  0  0  0  0  0  0  0  0
  140.3860   71.9920  222.3210 C   0  0  0  0  0  0  0  0  0  0  0  0
  139.5620   73.1340  222.0890 N   0  0  0  0  0  0  0  0  0  0  0  0
  139.6750   73.8480  220.8340 C   0  0  0  0  0  0  0  0  0  0  0  0
  140.5780   75.0200  220.9470 C   0  0  0  0  0  0  0  0  0  0  0  0
  140.4830   75.7440  221.9690 O   0  0  0  0  0  0  0  0  0  0  0  0
  141.4920   75.2450  219.8890 N   0  0  0  0  0  0  0  0  0  0  0  0
  141.1160   75.0850  218.4740 C   0  0  0  0  0  0  0  0  0  0  0  0
  140.9990   76.4800  217.9070 C   0  0  0  0  0  0  0  0  0  0  0  0
  142.1520   77.3010  218.3590 C   0  0  0  0  0  0  0  0  0  0  0  0
  143.3170   76.5160  218.9170 C   0  0  0  0  0  0  0  0  0  0  0  0
  142.8770   75.6590  220.0980 C   0  0  2  0  0  0  0  0  0  0  0  0
  143.8200   74.5200  220.1820 C   0  0  0  0  0  0  0  0  0  0  0  0
  145.1620   74.6730  220.5040 C   0  0  0  0  0  0  0  0  0  0  0  0
  146.0400   73.6090  220.5690 C   0  0  0  0  0  0  0  0  0  0  0  0
  145.6200   72.3250  220.3150 C   0  0  0  0  0  0  0  0  0  0  0  0
  144.2960   72.1430  219.9960 C   0  0  0  0  0  0  0  0  0  0  0  0
  143.6680   70.3650  219.6330 Br  0  0  0  0  0  0  0  0  0  0  0  0
  143.4090   73.2200  219.9280 C   0  0  0  0  0  0  0  0  0  0  0  0
  140.2440   71.2890  223.6110 C   0  0  0  0  0  0  0  0  0  0  0  0
  139.6190   70.0640  223.6620 C   0  0  0  0  0  0  0  0  0  0  0  0
  139.4640   69.3700  224.8560 C   0  0  0  0  0  0  0  0  0  0  0  0
  139.9670   69.9670  225.9940 C   0  0  0  0  0  0  0  0  0  0  0  0
  139.8150   69.2750  227.1920 C   0  0  0  0  0  0  0  0  0  0  0  0
  140.3040   69.8380  228.3500 C   0  0  0  0  0  0  0  0  0  0  0  0
  140.9250   71.0540  228.3130 C   0  0  0  0  0  0  0  0  0  0  0  0
  141.0790   71.7470  227.1170 C   0  0  0  0  0  0  0  0  0  0  0  0
  140.5960   71.1980  225.9460 C   0  0  0  0  0  0  0  0  0  0  0  0
  140.7100   71.8140  224.7500 N   0  0  0  0  0  0  0  0  0  0  0  0
  138.8770   73.4460  222.8350 H   0  0  0  0  0  0  0  0  0  0  0  0
  140.0729   73.1642  220.0697 H   0  0  0  0  0  0  0  0  0  0  0  0
  138.6749   74.2121  220.5561 H   0  0  0  0  0  0  0  0  0  0  0  0
  141.8902   74.5186  217.9357 H   0  0  0  0  0  0  0  0  0  0  0  0
  140.1714   74.5307  218.3712 H   0  0  0  0  0  0  0  0  0  0  0  0
  140.9944   76.4292  216.8082 H   0  0  0  0  0  0  0  0  0  0  0  0
  140.0636   76.9396  218.2587 H   0  0  0  0  0  0  0  0  0  0  0  0
  142.5140   77.8834  217.4988 H   0  0  0  0  0  0  0  0  0  0  0  0
  141.7793   77.9254  219.1843 H   0  0  0  0  0  0  0  0  0  0  0  0
  143.7224   75.8637  218.1295 H   0  0  0  0  0  0  0  0  0  0  0  0
  144.0855   77.2234  219.2620 H   0  0  0  0  0  0  0  0  0  0  0  0
  142.9024   76.2029  221.0538 H   0  0  0  0  0  0  0  0  0  0  0  0
  145.5415   75.6835  220.7161 H   0  0  0  0  0  0  0  0  0  0  0  0
  147.0932   73.7921  220.8284 H   0  0  0  0  0  0  0  0  0  0  0  0
  146.3172   71.4757  220.3652 H   0  0  0  0  0  0  0  0  0  0  0  0
  142.3573   73.0321  219.6662 H   0  0  0  0  0  0  0  0  0  0  0  0
  139.2315   69.6221  222.7322 H   0  0  0  0  0  0  0  0  0  0  0  0
  138.9639   68.3909  224.8923 H   0  0  0  0  0  0  0  0  0  0  0  0
  139.3135   68.2962  227.2136 H   0  0  0  0  0  0  0  0  0  0  0  0
  140.1941   69.3070  229.3071 H   0  0  0  0  0  0  0  0  0  0  0  0
  141.3100   71.4928  229.2453 H   0  0  0  0  0  0  0  0  0  0  0  0
  141.5819   72.7252  227.1042 H   0  0  0  0  0  0  0  0  0  0  0  0
  1  2  2  0
  2  3  1  0
  3  4  1  0
  4  5  1  0
  5  6  2  0
  5  7  1  0
  7  8  1  0
  8  9  1  0
  9 10  1  0
 10 11  1  0
 11 12  1  0
 12 13  1  0
 13 14  2  0
 14 15  1  0
 15 16  2  0
 16 17  1  0
 17 18  1  0
 17 19  2  0
  2 20  1  0
 20 21  2  0
 21 22  1  0
 22 23  2  0
 23 24  1  0
 24 25  2  0
 25 26  1  0
 26 27  2  0
 27 28  1  0
 28 29  2  0
 12  7  1  0
 19 13  1  0
 29 20  1  0
 28 23  1  0
  3 30  1  0
  4 31  1  0
  4 32  1  0
  8 33  1  0
  8 34  1  0
  9 35  1  0
  9 36  1  0
 10 37  1  0
 10 38  1  0
 11 39  1  0
 11 40  1  0
 12 41  1  1
 14 42  1  0
 15 43  1  0
 16 44  1  0
 19 45  1  0
 21 46  1  0
 22 47  1  0
 24 48  1  0
 25 49  1  0
 26 50  1  0
 27 51  1  0
M  END
>  <smiles>  (10) 
O=C(NCC(=O)N1CCCCC1c1cccc(Br)c1)c1ccc2ccccc2n1

>  <score_type>  (10) 
oracle

>  <origin>  (10) 
autodockgpu

>  <m_score__min__energy>  (10) 
-10.01

>  <m_primary>  (10) 
energy

>  <rmsd>  (10) 
1.7930837939973587

>  <m_score__min__rmsd>  (10) 
1.7930837939973587

>  <meeko>  (10) 
{"free_energy": -9.08, "intermolecular_energy": -10.57, "internal_energy": -1.89, "cluster_size": 8, "cluster_id": 3, "rank_in_cluster": 3}

>  <energy>  (10) 
-9.33

>  <cluster_rmsd>  (10) 
0.99

>  <cluster>  (10) 
1

$$$$

     RDKit          3D

 51 54  0  0  0  0  0  0  0  0999 V2000
  140.9950   71.4300  221.3700 O   0  0  0  0  0  0  0  0  0  0  0  0
  140.4540   72.0150  222.3260 C   0  0  0  0  0  0  0  0  0  0  0  0
  140.0290   73.3760  222.2480 N   0  0  0  0  0  0  0  0  0  0  0  0
  140.2290   74.1120  221.0170 C   0  0  0  0  0  0  0  0  0  0  0  0
  140.6930   75.4970  221.2740 C   0  0  0  0  0  0  0  0  0  0  0  0
  140.3480   76.0480  222.3490 O   0  0  0  0  0  0  0  0  0  0  0  0
  141.4980   76.1100  220.2830 N   0  0  0  0  0  0  0  0  0  0  0  0
  142.8970   75.7150  220.0480 C   0  0  0  0  0  0  0  0  0  0  0  0
  142.9050   74.9330  218.7550 C   0  0  0  0  0  0  0  0  0  0  0  0
  142.0710   75.6340  217.7430 C   0  0  0  0  0  0  0  0  0  0  0  0
  141.7460   77.0740  218.0690 C   0  0  0  0  0  0  0  0  0  0  0  0
  141.0210   77.1770  219.4060 C   0  0  2  0  0  0  0  0  0  0  0  0
  141.2860   78.5330  219.9400 C   0  0  0  0  0  0  0  0  0  0  0  0
  141.2460   79.6760  219.1510 C   0  0  0  0  0  0  0  0  0  0  0  0
  141.5060   80.9360  219.6500 C   0  0  0  0  0  0  0  0  0  0  0  0
  141.8210   81.1250  220.9750 C   0  0  0  0  0  0  0  0  0  0  0  0
  141.8670   80.0120  221.7800 C   0  0  0  0  0  0  0  0  0  0  0  0
  142.3040   80.2300  223.6380 Br  0  0  0  0  0  0  0  0  0  0  0  0
  141.6050   78.7360  221.2740 C   0  0  0  0  0  0  0  0  0  0  0  0
  140.2340   71.2960  223.5960 C   0  0  0  0  0  0  0  0  0  0  0  0
  139.5860   70.0800  223.5960 C   0  0  0  0  0  0  0  0  0  0  0  0
  139.3600   69.3720  224.7690 C   0  0  0  0  0  0  0  0  0  0  0  0
  139.8140   69.9430  225.9410 C   0  0  0  0  0  0  0  0  0  0  0  0
  139.5890   69.2360  227.1180 C   0  0  0  0  0  0  0  0  0  0  0  0
  140.0270   69.7730  228.3090 C   0  0  0  0  0  0  0  0  0  0  0  0
  140.6700   70.9780  228.3220 C   0  0  0  0  0  0  0  0  0  0  0  0
  140.8960   71.6860  227.1460 C   0  0  0  0  0  0  0  0  0  0  0  0
  140.4640   71.1640  225.9440 C   0  0  0  0  0  0  0  0  0  0  0  0
  140.6500   71.7950  224.7650 N   0  0  0  0  0  0  0  0  0  0  0  0
  139.5720   73.8300  223.0880 H   0  0  0  0  0  0  0  0  0  0  0  0
  140.9829   73.5908  220.4087 H   0  0  0  0  0  0  0  0  0  0  0  0
  139.2651   74.1660  220.4898 H   0  0  0  0  0  0  0  0  0  0  0  0
  143.5346   76.6068  219.9578 H   0  0  0  0  0  0  0  0  0  0  0  0
  143.2882   75.1134  220.8817 H   0  0  0  0  0  0  0  0  0  0  0  0
  143.9372   74.8492  218.3842 H   0  0  0  0  0  0  0  0  0  0  0  0
  142.4951   73.9279  218.9334 H   0  0  0  0  0  0  0  0  0  0  0  0
  142.6098   75.6145  216.7842 H   0  0  0  0  0  0  0  0  0  0  0  0
  141.1093   75.1008  217.7147 H   0  0  0  0  0  0  0  0  0  0  0  0
  142.6807   77.6517  218.1203 H   0  0  0  0  0  0  0  0  0  0  0  0
  141.0907   77.4742  217.2813 H   0  0  0  0  0  0  0  0  0  0  0  0
  139.9327   77.0465  219.3132 H   0  0  0  0  0  0  0  0  0  0  0  0
  140.9968   79.5722  218.0846 H   0  0  0  0  0  0  0  0  0  0  0  0
  141.4605   81.8042  218.9761 H   0  0  0  0  0  0  0  0  0  0  0  0
  142.0282   82.1284  221.3753 H   0  0  0  0  0  0  0  0  0  0  0  0
  141.6531   77.8706  221.9513 H   0  0  0  0  0  0  0  0  0  0  0  0
  139.2384   69.6588  222.6412 H   0  0  0  0  0  0  0  0  0  0  0  0
  138.8431   68.4010  224.7645 H   0  0  0  0  0  0  0  0  0  0  0  0
  139.0708   68.2659  227.0981 H   0  0  0  0  0  0  0  0  0  0  0  0
  139.8585   69.2304  229.2509 H   0  0  0  0  0  0  0  0  0  0  0  0
  141.0152   71.3959  229.2792 H   0  0  0  0  0  0  0  0  0  0  0  0
  141.4155   72.6552  227.1742 H   0  0  0  0  0  0  0  0  0  0  0  0
  1  2  2  0
  2  3  1  0
  3  4  1  0
  4  5  1  0
  5  6  2  0
  5  7  1  0
  7  8  1  0
  8  9  1  0
  9 10  1  0
 10 11  1  0
 11 12  1  0
 12 13  1  0
 13 14  2  0
 14 15  1  0
 15 16  2  0
 16 17  1  0
 17 18  1  0
 17 19  2  0
  2 20  1  0
 20 21  2  0
 21 22  1  0
 22 23  2  0
 23 24  1  0
 24 25  2  0
 25 26  1  0
 26 27  2  0
 27 28  1  0
 28 29  2  0
 12  7  1  0
 19 13  1  0
 29 20  1  0
 28 23  1  0
  3 30  1  0
  4 31  1  0
  4 32  1  0
  8 33  1  0
  8 34  1  0
  9 35  1  0
  9 36  1  0
 10 37  1  0
 10 38  1  0
 11 39  1  0
 11 40  1  0
 12 41  1  6
 14 42  1  0
 15 43  1  0
 16 44  1  0
 19 45  1  0
 21 46  1  0
 22 47  1  0
 24 48  1  0
 25 49  1  0
 26 50  1  0
 27 51  1  0
M  END
>  <smiles>  (11) 
O=C(NCC(=O)N1CCCCC1c1cccc(Br)c1)c1ccc2ccccc2n1

>  <score_type>  (11) 
oracle

>  <origin>  (11) 
autodockgpu

>  <m_score__min__energy>  (11) 
-10.01

>  <m_primary>  (11) 
energy

>  <rmsd>  (11) 
2.123775961695624

>  <m_score__min__rmsd>  (11) 
2.123775961695624

>  <meeko>  (11) 
{"free_energy": -9.13, "intermolecular_energy": -10.62, "internal_energy": -1.75, "cluster_size": 20, "cluster_id": 2, "rank_in_cluster": 10}

>  <energy>  (11) 
-9.28

>  <cluster_rmsd>  (11) 
1.02

>  <cluster>  (11) 
1

$$$$

     RDKit          3D

 51 54  0  0  0  0  0  0  0  0999 V2000
  141.1520   71.7400  221.4870 O   0  0  0  0  0  0  0  0  0  0  0  0
  140.3980   72.1700  222.3790 C   0  0  0  0  0  0  0  0  0  0  0  0
  139.6650   73.3880  222.2400 N   0  0  0  0  0  0  0  0  0  0  0  0
  139.7950   74.1580  221.0200 C   0  0  0  0  0  0  0  0  0  0  0  0
  140.9950   75.0300  221.0450 C   0  0  0  0  0  0  0  0  0  0  0  0
  141.2920   75.5980  222.1260 O   0  0  0  0  0  0  0  0  0  0  0  0
  141.7300   75.1640  219.8420 N   0  0  0  0  0  0  0  0  0  0  0  0
  141.1500   74.8540  218.5250 C   0  0  0  0  0  0  0  0  0  0  0  0
  140.8990   76.1820  217.8490 C   0  0  0  0  0  0  0  0  0  0  0  0
  142.0780   77.0670  218.0350 C   0  0  0  0  0  0  0  0  0  0  0  0
  143.3410   76.3650  218.4810 C   0  0  0  0  0  0  0  0  0  0  0  0
  143.1150   75.6250  219.7940 C   0  0  2  0  0  0  0  0  0  0  0  0
  144.0990   74.5180  219.8420 C   0  0  0  0  0  0  0  0  0  0  0  0
  145.0600   74.4050  220.8390 C   0  0  0  0  0  0  0  0  0  0  0  0
  145.9820   73.3790  220.8740 C   0  0  0  0  0  0  0  0  0  0  0  0
  145.9950   72.4020  219.9060 C   0  0  0  0  0  0  0  0  0  0  0  0
  145.0540   72.4880  218.9070 C   0  0  0  0  0  0  0  0  0  0  0  0
  145.0370   71.1440  217.5350 Br  0  0  0  0  0  0  0  0  0  0  0  0
  144.1220   73.5270  218.8730 C   0  0  0  0  0  0  0  0  0  0  0  0
  140.2420   71.4110  223.6350 C   0  0  0  0  0  0  0  0  0  0  0  0
  139.5950   70.1950  223.6290 C   0  0  0  0  0  0  0  0  0  0  0  0
  139.4270   69.4500  224.7890 C   0  0  0  0  0  0  0  0  0  0  0  0
  139.9390   69.9840  225.9540 C   0  0  0  0  0  0  0  0  0  0  0  0
  139.7720   69.2410  227.1180 C   0  0  0  0  0  0  0  0  0  0  0  0
  140.2700   69.7400  228.3020 C   0  0  0  0  0  0  0  0  0  0  0  0
  140.9120   70.9460  228.3220 C   0  0  0  0  0  0  0  0  0  0  0  0
  141.0800   71.6910  227.1590 C   0  0  0  0  0  0  0  0  0  0  0  0
  140.5880   71.2050  225.9640 C   0  0  0  0  0  0  0  0  0  0  0  0
  140.7150   71.8740  224.7980 N   0  0  0  0  0  0  0  0  0  0  0  0
  139.0350   73.7120  223.0270 H   0  0  0  0  0  0  0  0  0  0  0  0
  139.8753   73.4659  220.1688 H   0  0  0  0  0  0  0  0  0  0  0  0
  138.9071   74.8003  220.9244 H   0  0  0  0  0  0  0  0  0  0  0  0
  141.8532   74.2513  217.9314 H   0  0  0  0  0  0  0  0  0  0  0  0
  140.2208   74.2737  218.6239 H   0  0  0  0  0  0  0  0  0  0  0  0
  140.7293   76.0194  216.7744 H   0  0  0  0  0  0  0  0  0  0  0  0
  140.0122   76.6566  218.2943 H   0  0  0  0  0  0  0  0  0  0  0  0
  142.2851   77.5653  217.0764 H   0  0  0  0  0  0  0  0  0  0  0  0
  141.8133   77.7654  218.8426 H   0  0  0  0  0  0  0  0  0  0  0  0
  143.6445   75.6435  217.7082 H   0  0  0  0  0  0  0  0  0  0  0  0
  144.1281   77.1184  218.6322 H   0  0  0  0  0  0  0  0  0  0  0  0
  143.2657   76.2644  220.6763 H   0  0  0  0  0  0  0  0  0  0  0  0
  145.0870   75.1652  221.6336 H   0  0  0  0  0  0  0  0  0  0  0  0
  146.7190   73.3418  221.6898 H   0  0  0  0  0  0  0  0  0  0  0  0
  146.7296   71.5836  219.9301 H   0  0  0  0  0  0  0  0  0  0  0  0
  143.3865   73.5601  218.0557 H   0  0  0  0  0  0  0  0  0  0  0  0
  139.2007   69.8034  222.6797 H   0  0  0  0  0  0  0  0  0  0  0  0
  138.9098   68.4792  224.7796 H   0  0  0  0  0  0  0  0  0  0  0  0
  139.2516   68.2722  227.0938 H   0  0  0  0  0  0  0  0  0  0  0  0
  140.1505   69.1663  229.2329 H   0  0  0  0  0  0  0  0  0  0  0  0
  141.3028   71.3346  229.2740 H   0  0  0  0  0  0  0  0  0  0  0  0
  141.6006   72.6595  227.1913 H   0  0  0  0  0  0  0  0  0  0  0  0
  1  2  2  0
  2  3  1  0
  3  4  1  0
  4  5  1  0
  5  6  2  0
  5  7  1  0
  7  8  1  0
  8  9  1  0
  9 10  1  0
 10 11  1  0
 11 12  1  0
 12 13  1  0
 13 14  2  0
 14 15  1  0
 15 16  2  0
 16 17  1  0
 17 18  1  0
 17 19  2  0
  2 20  1  0
 20 21  2  0
 21 22  1  0
 22 23  2  0
 23 24  1  0
 24 25  2  0
 25 26  1  0
 26 27  2  0
 27 28  1  0
 28 29  2  0
 12  7  1  0
 19 13  1  0
 29 20  1  0
 28 23  1  0
  3 30  1  0
  4 31  1  0
  4 32  1  0
  8 33  1  0
  8 34  1  0
  9 35  1  0
  9 36  1  0
 10 37  1  0
 10 38  1  0
 11 39  1  0
 11 40  1  0
 12 41  1  1
 14 42  1  0
 15 43  1  0
 16 44  1  0
 19 45  1  0
 21 46  1  0
 22 47  1  0
 24 48  1  0
 25 49  1  0
 26 50  1  0
 27 51  1  0
M  END
>  <smiles>  (12) 
O=C(NCC(=O)N1CCCCC1c1cccc(Br)c1)c1ccc2ccccc2n1

>  <score_type>  (12) 
oracle

>  <origin>  (12) 
autodockgpu

>  <m_score__min__energy>  (12) 
-10.01

>  <m_primary>  (12) 
energy

>  <rmsd>  (12) 
1.837061677417268

>  <m_score__min__rmsd>  (12) 
1.837061677417268

>  <meeko>  (12) 
{"free_energy": -8.98, "intermolecular_energy": -10.47, "internal_energy": -1.65, "cluster_size": 8, "cluster_id": 3, "rank_in_cluster": 7}

>  <energy>  (12) 
-9.22

>  <cluster_rmsd>  (12) 
1.0

>  <cluster>  (12) 
1

$$$$

     RDKit          3D

 51 54  0  0  0  0  0  0  0  0999 V2000
  139.6360   71.1720  221.2730 O   0  0  0  0  0  0  0  0  0  0  0  0
  139.6790   71.8630  222.3070 C   0  0  0  0  0  0  0  0  0  0  0  0
  139.5390   73.2840  222.2830 N   0  0  0  0  0  0  0  0  0  0  0  0
  139.3390   73.9560  221.0160 C   0  0  0  0  0  0  0  0  0  0  0  0
  140.5100   73.8000  220.1190 C   0  0  0  0  0  0  0  0  0  0  0  0
  140.4920   72.8660  219.2790 O   0  0  0  0  0  0  0  0  0  0  0  0
  141.5760   74.7190  220.2710 N   0  0  0  0  0  0  0  0  0  0  0  0
  142.8820   74.3280  220.8280 C   0  0  0  0  0  0  0  0  0  0  0  0
  143.8430   74.2840  219.6640 C   0  0  0  0  0  0  0  0  0  0  0  0
  143.6460   75.4820  218.8070 C   0  0  0  0  0  0  0  0  0  0  0  0
  142.8640   76.6060  219.4500 C   0  0  0  0  0  0  0  0  0  0  0  0
  141.4850   76.1260  219.8880 C   0  0  2  0  0  0  0  0  0  0  0  0
  141.0520   77.0060  220.9980 C   0  0  0  0  0  0  0  0  0  0  0  0
  139.8520   76.8320  221.6760 C   0  0  0  0  0  0  0  0  0  0  0  0
  139.4480   77.6610  222.7020 C   0  0  0  0  0  0  0  0  0  0  0  0
  140.2270   78.7180  223.1110 C   0  0  0  0  0  0  0  0  0  0  0  0
  141.4210   78.9130  222.4590 C   0  0  0  0  0  0  0  0  0  0  0  0
  142.5400   80.3780  222.9990 Br  0  0  0  0  0  0  0  0  0  0  0  0
  141.8290   78.0740  221.4200 C   0  0  0  0  0  0  0  0  0  0  0  0
  139.8820   71.2120  223.6150 C   0  0  0  0  0  0  0  0  0  0  0  0
  139.5640   69.8820  223.7800 C   0  0  0  0  0  0  0  0  0  0  0  0
  139.7400   69.2310  224.9950 C   0  0  0  0  0  0  0  0  0  0  0  0
  140.2480   69.9810  226.0350 C   0  0  0  0  0  0  0  0  0  0  0  0
  140.4260   69.3340  227.2540 C   0  0  0  0  0  0  0  0  0  0  0  0
  140.9320   70.0480  228.3180 C   0  0  0  0  0  0  0  0  0  0  0  0
  141.2500   71.3680  228.1690 C   0  0  0  0  0  0  0  0  0  0  0  0
  141.0730   72.0180  226.9510 C   0  0  0  0  0  0  0  0  0  0  0  0
  140.5680   71.3180  225.8740 C   0  0  0  0  0  0  0  0  0  0  0  0
  140.3710   71.8830  224.6640 N   0  0  0  0  0  0  0  0  0  0  0  0
  139.5830   73.8290  223.1900 H   0  0  0  0  0  0  0  0  0  0  0  0
  138.4532   73.5295  220.5226 H   0  0  0  0  0  0  0  0  0  0  0  0
  139.2019   75.0290  221.2159 H   0  0  0  0  0  0  0  0  0  0  0  0
  143.2164   75.0677  221.5703 H   0  0  0  0  0  0  0  0  0  0  0  0
  142.8246   73.3541  221.3362 H   0  0  0  0  0  0  0  0  0  0  0  0
  144.8757   74.2709  220.0426 H   0  0  0  0  0  0  0  0  0  0  0  0
  143.6558   73.3767  219.0709 H   0  0  0  0  0  0  0  0  0  0  0  0
  144.6372   75.8705  218.5304 H   0  0  0  0  0  0  0  0  0  0  0  0
  143.0515   75.1483  217.9438 H   0  0  0  0  0  0  0  0  0  0  0  0
  143.4147   76.9711  220.3294 H   0  0  0  0  0  0  0  0  0  0  0  0
  142.7383   77.4136  218.7138 H   0  0  0  0  0  0  0  0  0  0  0  0
  140.7364   76.1860  219.0843 H   0  0  0  0  0  0  0  0  0  0  0  0
  139.1968   75.9986  221.3826 H   0  0  0  0  0  0  0  0  0  0  0  0
  138.4861   77.4733  223.2016 H   0  0  0  0  0  0  0  0  0  0  0  0
  139.9069   79.3814  223.9280 H   0  0  0  0  0  0  0  0  0  0  0  0
  142.7917   78.2653  220.9235 H   0  0  0  0  0  0  0  0  0  0  0  0
  139.1593   69.3193  222.9259 H   0  0  0  0  0  0  0  0  0  0  0  0
  139.4863   68.1681  225.1213 H   0  0  0  0  0  0  0  0  0  0  0  0
  140.1671   68.2708  227.3661 H   0  0  0  0  0  0  0  0  0  0  0  0
  141.0803   69.5540  229.2896 H   0  0  0  0  0  0  0  0  0  0  0  0
  141.6529   71.9270  229.0264 H   0  0  0  0  0  0  0  0  0  0  0  0
  141.3337   73.0817  226.8476 H   0  0  0  0  0  0  0  0  0  0  0  0
  1  2  2  0
  2  3  1  0
  3  4  1  0
  4  5  1  0
  5  6  2  0
  5  7  1  0
  7  8  1  0
  8  9  1  0
  9 10  1  0
 10 11  1  0
 11 12  1  0
 12 13  1  0
 13 14  2  0
 14 15  1  0
 15 16  2  0
 16 17  1  0
 17 18  1  0
 17 19  2  0
  2 20  1  0
 20 21  2  0
 21 22  1  0
 22 23  2  0
 23 24  1  0
 24 25  2  0
 25 26  1  0
 26 27  2  0
 27 28  1  0
 28 29  2  0
 12  7  1  0
 19 13  1  0
 29 20  1  0
 28 23  1  0
  3 30  1  0
  4 31  1  0
  4 32  1  0
  8 33  1  0
  8 34  1  0
  9 35  1  0
  9 36  1  0
 10 37  1  0
 10 38  1  0
 11 39  1  0
 11 40  1  0
 12 41  1  6
 14 42  1  0
 15 43  1  0
 16 44  1  0
 19 45  1  0
 21 46  1  0
 22 47  1  0
 24 48  1  0
 25 49  1  0
 26 50  1  0
 27 51  1  0
M  END
>  <smiles>  (13) 
O=C(NCC(=O)N1CCCCC1c1cccc(Br)c1)c1ccc2ccccc2n1

>  <score_type>  (13) 
oracle

>  <origin>  (13) 
autodockgpu

>  <m_score__min__energy>  (13) 
-10.01

>  <m_primary>  (13) 
energy

>  <rmsd>  (13) 
2.399705660090475

>  <m_score__min__rmsd>  (13) 
2.399705660090475

>  <meeko>  (13) 
{"free_energy": -9.1, "intermolecular_energy": -10.59, "internal_energy": -1.62, "cluster_size": 20, "cluster_id": 2, "rank_in_cluster": 13}

>  <energy>  (13) 
-9.14

>  <cluster_rmsd>  (13) 
1.09

>  <cluster>  (13) 
1

$$$$

     RDKit          3D

 51 54  0  0  0  0  0  0  0  0999 V2000
  137.3800   75.7340  222.5360 O   0  0  0  0  0  0  0  0  0  0  0  0
  138.5950   75.9600  222.3900 C   0  0  0  0  0  0  0  0  0  0  0  0
  139.5220   74.9400  222.0150 N   0  0  0  0  0  0  0  0  0  0  0  0
  139.0420   73.5920  221.7910 C   0  0  0  0  0  0  0  0  0  0  0  0
  139.8660   72.5890  222.5090 C   0  0  0  0  0  0  0  0  0  0  0  0
  141.1160   72.6880  222.4350 O   0  0  0  0  0  0  0  0  0  0  0  0
  139.1840   71.5820  223.2340 N   0  0  0  0  0  0  0  0  0  0  0  0
  137.7280   71.6130  223.4480 C   0  0  0  0  0  0  0  0  0  0  0  0
  137.1430   70.5560  222.5410 C   0  0  0  0  0  0  0  0  0  0  0  0
  137.9560   69.3150  222.6310 C   0  0  0  0  0  0  0  0  0  0  0  0
  138.8860   69.2450  223.8210 C   0  0  0  0  0  0  0  0  0  0  0  0
  139.8520   70.4240  223.8240 C   0  0  2  0  0  0  0  0  0  0  0  0
  140.2640   70.6440  225.2300 C   0  0  0  0  0  0  0  0  0  0  0  0
  140.6470   71.8860  225.7200 C   0  0  0  0  0  0  0  0  0  0  0  0
  141.0410   72.0830  227.0270 C   0  0  0  0  0  0  0  0  0  0  0  0
  141.0730   71.0420  227.9250 C   0  0  0  0  0  0  0  0  0  0  0  0
  140.6980   69.8010  227.4690 C   0  0  0  0  0  0  0  0  0  0  0  0
  140.7290   68.3180  228.6890 Br  0  0  0  0  0  0  0  0  0  0  0  0
  140.3010   69.6020  226.1440 C   0  0  0  0  0  0  0  0  0  0  0  0
  139.1190   77.3210  222.6100 C   0  0  0  0  0  0  0  0  0  0  0  0
  138.2500   78.3840  222.7210 C   0  0  0  0  0  0  0  0  0  0  0  0
  138.7030   79.6810  222.9280 C   0  0  0  0  0  0  0  0  0  0  0  0
  140.0680   79.8590  223.0160 C   0  0  0  0  0  0  0  0  0  0  0  0
  140.5250   81.1570  223.2230 C   0  0  0  0  0  0  0  0  0  0  0  0
  141.8830   81.3750  223.3170 C   0  0  0  0  0  0  0  0  0  0  0  0
  142.7550   80.3300  223.2080 C   0  0  0  0  0  0  0  0  0  0  0  0
  142.3000   79.0320  223.0010 C   0  0  0  0  0  0  0  0  0  0  0  0
  140.9440   78.7940  222.9050 C   0  0  0  0  0  0  0  0  0  0  0  0
  140.4320   77.5600  222.7050 N   0  0  0  0  0  0  0  0  0  0  0  0
  140.5480   75.1810  221.9030 H   0  0  0  0  0  0  0  0  0  0  0  0
  138.0034   73.5200  222.1461 H   0  0  0  0  0  0  0  0  0  0  0  0
  139.1062   73.3801  220.7135 H   0  0  0  0  0  0  0  0  0  0  0  0
  137.4926   71.3862  224.4983 H   0  0  0  0  0  0  0  0  0  0  0  0
  137.3122   72.6065  223.2239 H   0  0  0  0  0  0  0  0  0  0  0  0
  136.1097   70.3397  222.8500 H   0  0  0  0  0  0  0  0  0  0  0  0
  137.1487   70.9215  221.5035 H   0  0  0  0  0  0  0  0  0  0  0  0
  137.2672   68.4591  222.6855 H   0  0  0  0  0  0  0  0  0  0  0  0
  138.5982   69.3029  221.7380 H   0  0  0  0  0  0  0  0  0  0  0  0
  138.2904   69.2646  224.7456 H   0  0  0  0  0  0  0  0  0  0  0  0
  139.4675   68.3133  223.7593 H   0  0  0  0  0  0  0  0  0  0  0  0
  140.7534   70.2383  223.2215 H   0  0  0  0  0  0  0  0  0  0  0  0
  140.6356   72.7484  225.0372 H   0  0  0  0  0  0  0  0  0  0  0  0
  141.3348   73.0904  227.3568 H   0  0  0  0  0  0  0  0  0  0  0  0
  141.3866   71.1966  228.9679 H   0  0  0  0  0  0  0  0  0  0  0  0
  140.0103   68.5925  225.8177 H   0  0  0  0  0  0  0  0  0  0  0  0
  137.1681   78.2010  222.6436 H   0  0  0  0  0  0  0  0  0  0  0  0
  138.0054   80.5268  223.0176 H   0  0  0  0  0  0  0  0  0  0  0  0
  139.8159   81.9934  223.3100 H   0  0  0  0  0  0  0  0  0  0  0  0
  142.2651   82.3935  223.4803 H   0  0  0  0  0  0  0  0  0  0  0  0
  143.8361   80.5179  223.2852 H   0  0  0  0  0  0  0  0  0  0  0  0
  143.0158   78.2012  222.9145 H   0  0  0  0  0  0  0  0  0  0  0  0
  1  2  2  0
  2  3  1  0
  3  4  1  0
  4  5  1  0
  5  6  2  0
  5  7  1  0
  7  8  1  0
  8  9  1  0
  9 10  1  0
 10 11  1  0
 11 12  1  0
 12 13  1  0
 13 14  2  0
 14 15  1  0
 15 16  2  0
 16 17  1  0
 17 18  1  0
 17 19  2  0
  2 20  1  0
 20 21  2  0
 21 22  1  0
 22 23  2  0
 23 24  1  0
 24 25  2  0
 25 26  1  0
 26 27  2  0
 27 28  1  0
 28 29  2  0
 12  7  1  0
 19 13  1  0
 29 20  1  0
 28 23  1  0
  3 30  1  0
  4 31  1  0
  4 32  1  0
  8 33  1  0
  8 34  1  0
  9 35  1  0
  9 36  1  0
 10 37  1  0
 10 38  1  0
 11 39  1  0
 11 40  1  0
 12 41  1  6
 14 42  1  0
 15 43  1  0
 16 44  1  0
 19 45  1  0
 21 46  1  0
 22 47  1  0
 24 48  1  0
 25 49  1  0
 26 50  1  0
 27 51  1  0
M  END
>  <smiles>  (14) 
O=C(NCC(=O)N1CCCCC1c1cccc(Br)c1)c1ccc2ccccc2n1

>  <score_type>  (14) 
oracle

>  <origin>  (14) 
autodockgpu

>  <m_score__min__energy>  (14) 
-10.01

>  <m_primary>  (14) 
energy

>  <rmsd>  (14) 
8.466123369207498

>  <m_score__min__rmsd>  (14) 
8.466123369207498

>  <meeko>  (14) 
{"free_energy": -9.22, "intermolecular_energy": -10.72, "internal_energy": -1.84, "cluster_size": 22, "cluster_id": 1, "rank_in_cluster": 12}

>  <energy>  (14) 
-9.04

>  <cluster_rmsd>  (14) 
1.44

>  <cluster>  (14) 
1

$$$$

     RDKit          3D

 51 54  0  0  0  0  0  0  0  0999 V2000
  137.3370   76.3980  222.0680 O   0  0  0  0  0  0  0  0  0  0  0  0
  138.5570   76.3990  222.3130 C   0  0  0  0  0  0  0  0  0  0  0  0
  139.3540   75.2170  222.2280 N   0  0  0  0  0  0  0  0  0  0  0  0
  138.7320   73.9670  221.8440 C   0  0  0  0  0  0  0  0  0  0  0  0
  139.4670   72.7980  222.3860 C   0  0  0  0  0  0  0  0  0  0  0  0
  140.7110   72.8940  222.5280 O   0  0  0  0  0  0  0  0  0  0  0  0
  138.7120   71.6440  222.7090 N   0  0  0  0  0  0  0  0  0  0  0  0
  137.2500   71.6810  222.8790 C   0  0  0  0  0  0  0  0  0  0  0  0
  136.6640   71.0210  221.6530 C   0  0  0  0  0  0  0  0  0  0  0  0
  137.4200   69.7800  221.3440 C   0  0  0  0  0  0  0  0  0  0  0  0
  138.2920   69.2660  222.4670 C   0  0  0  0  0  0  0  0  0  0  0  0
  139.3040   70.3220  222.8950 C   0  0  2  0  0  0  0  0  0  0  0  0
  139.6600   70.0360  224.3040 C   0  0  0  0  0  0  0  0  0  0  0  0
  139.5230   68.7770  224.8770 C   0  0  0  0  0  0  0  0  0  0  0  0
  139.8440   68.5180  226.1930 C   0  0  0  0  0  0  0  0  0  0  0  0
  140.3250   69.5090  227.0160 C   0  0  0  0  0  0  0  0  0  0  0  0
  140.4730   70.7640  226.4760 C   0  0  0  0  0  0  0  0  0  0  0  0
  141.1420   72.1780  227.5910 Br  0  0  0  0  0  0  0  0  0  0  0  0
  140.1460   71.0270  225.1430 C   0  0  0  0  0  0  0  0  0  0  0  0
  139.2240   77.6540  222.7070 C   0  0  0  0  0  0  0  0  0  0  0  0
  138.4730   78.7440  223.0870 C   0  0  0  0  0  0  0  0  0  0  0  0
  139.0620   79.9440  223.4650 C   0  0  0  0  0  0  0  0  0  0  0  0
  140.4410   79.9970  223.4410 C   0  0  0  0  0  0  0  0  0  0  0  0
  141.0340   81.1970  223.8180 C   0  0  0  0  0  0  0  0  0  0  0  0
  142.4090   81.2900  223.8080 C   0  0  0  0  0  0  0  0  0  0  0  0
  143.1660   80.2170  223.4310 C   0  0  0  0  0  0  0  0  0  0  0  0
  142.5740   79.0160  223.0540 C   0  0  0  0  0  0  0  0  0  0  0  0
  141.1990   78.9050  223.0580 C   0  0  0  0  0  0  0  0  0  0  0  0
  140.5570   77.7700  222.7050 N   0  0  0  0  0  0  0  0  0  0  0  0
  140.3900   75.2680  222.4450 H   0  0  0  0  0  0  0  0  0  0  0  0
  137.7013   73.9492  222.2280 H   0  0  0  0  0  0  0  0  0  0  0  0
  138.7454   73.9009  220.7461 H   0  0  0  0  0  0  0  0  0  0  0  0
  136.9578   71.1296  223.7849 H   0  0  0  0  0  0  0  0  0  0  0  0
  136.8863   72.7132  222.9899 H   0  0  0  0  0  0  0  0  0  0  0  0
  135.6098   70.7698  221.8413 H   0  0  0  0  0  0  0  0  0  0  0  0
  136.7319   71.7115  220.7994 H   0  0  0  0  0  0  0  0  0  0  0  0
  136.6947   68.9936  221.0880 H   0  0  0  0  0  0  0  0  0  0  0  0
  138.1006   70.0327  220.5176 H   0  0  0  0  0  0  0  0  0  0  0  0
  137.6567   69.0064  223.3266 H   0  0  0  0  0  0  0  0  0  0  0  0
  138.8375   68.3794  222.1115 H   0  0  0  0  0  0  0  0  0  0  0  0
  140.2240   70.3007  222.2924 H   0  0  0  0  0  0  0  0  0  0  0  0
  139.1428   67.9532  224.2551 H   0  0  0  0  0  0  0  0  0  0  0  0
  139.7130   67.5010  226.5912 H   0  0  0  0  0  0  0  0  0  0  0  0
  140.5814   69.3051  228.0661 H   0  0  0  0  0  0  0  0  0  0  0  0
  140.2775   72.0458  224.7496 H   0  0  0  0  0  0  0  0  0  0  0  0
  137.3761   78.6622  223.0914 H   0  0  0  0  0  0  0  0  0  0  0  0
  138.4577   80.8113  223.7692 H   0  0  0  0  0  0  0  0  0  0  0  0
  140.4168   82.0564  224.1187 H   0  0  0  0  0  0  0  0  0  0  0  0
  142.8978   82.2299  224.1041 H   0  0  0  0  0  0  0  0  0  0  0  0
  144.2625   80.3043  223.4255 H   0  0  0  0  0  0  0  0  0  0  0  0
  143.1979   78.1609  222.7548 H   0  0  0  0  0  0  0  0  0  0  0  0
  1  2  2  0
  2  3  1  0
  3  4  1  0
  4  5  1  0
  5  6  2  0
  5  7  1  0
  7  8  1  0
  8  9  1  0
  9 10  1  0
 10 11  1  0
 11 12  1  0
 12 13  1  0
 13 14  2  0
 14 15  1  0
 15 16  2  0
 16 17  1  0
 17 18  1  0
 17 19  2  0
  2 20  1  0
 20 21  2  0
 21 22  1  0
 22 23  2  0
 23 24  1  0
 24 25  2  0
 25 26  1  0
 26 27  2  0
 27 28  1  0
 28 29  2  0
 12  7  1  0
 19 13  1  0
 29 20  1  0
 28 23  1  0
  3 30  1  0
  4 31  1  0
  4 32  1  0
  8 33  1  0
  8 34  1  0
  9 35  1  0
  9 36  1  0
 10 37  1  0
 10 38  1  0
 11 39  1  0
 11 40  1  0
 12 41  1  6
 14 42  1  0
 15 43  1  0
 16 44  1  0
 19 45  1  0
 21 46  1  0
 22 47  1  0
 24 48  1  0
 25 49  1  0
 26 50  1  0
 27 51  1  0
M  END
>  <smiles>  (15) 
O=C(NCC(=O)N1CCCCC1c1cccc(Br)c1)c1ccc2ccccc2n1

>  <score_type>  (15) 
oracle

>  <origin>  (15) 
autodockgpu

>  <m_score__min__energy>  (15) 
-10.01

>  <m_primary>  (15) 
energy

>  <rmsd>  (15) 
8.371816222075662

>  <m_score__min__rmsd>  (15) 
8.371816222075662

>  <meeko>  (15) 
{"free_energy": -8.93, "intermolecular_energy": -10.42, "internal_energy": -1.98, "cluster_size": 22, "cluster_id": 1, "rank_in_cluster": 17}

>  <energy>  (15) 
-8.95

>  <cluster_rmsd>  (15) 
1.43

>  <cluster>  (15) 
1

$$$$

     RDKit          3D

 51 54  0  0  0  0  0  0  0  0999 V2000
  141.8300   73.0550  221.1020 O   0  0  0  0  0  0  0  0  0  0  0  0
  140.9830   73.8260  221.5890 C   0  0  0  0  0  0  0  0  0  0  0  0
  139.8600   73.3550  222.3350 N   0  0  0  0  0  0  0  0  0  0  0  0
  139.6910   71.9320  222.5410 C   0  0  0  0  0  0  0  0  0  0  0  0
  138.3010   71.5950  222.9360 C   0  0  0  0  0  0  0  0  0  0  0  0
  137.4380   72.5070  222.9000 O   0  0  0  0  0  0  0  0  0  0  0  0
  138.0390   70.2600  223.3290 N   0  0  0  0  0  0  0  0  0  0  0  0
  136.6740   69.7560  223.5530 C   0  0  0  0  0  0  0  0  0  0  0  0
  136.3520   68.8670  222.3740 C   0  0  0  0  0  0  0  0  0  0  0  0
  137.5120   67.9850  222.0830 C   0  0  0  0  0  0  0  0  0  0  0  0
  138.5360   67.8880  223.1910 C   0  0  0  0  0  0  0  0  0  0  0  0
  139.0880   69.2650  223.5410 C   0  0  2  0  0  0  0  0  0  0  0  0
  139.5550   69.2000  224.9460 C   0  0  0  0  0  0  0  0  0  0  0  0
  139.5750   68.0220  225.6810 C   0  0  0  0  0  0  0  0  0  0  0  0
  140.0000   67.9680  226.9930 C   0  0  0  0  0  0  0  0  0  0  0  0
  140.4320   69.0980  227.6470 C   0  0  0  0  0  0  0  0  0  0  0  0
  140.4240   70.2790  226.9430 C   0  0  0  0  0  0  0  0  0  0  0  0
  141.0190   71.8820  227.8190 Br  0  0  0  0  0  0  0  0  0  0  0  0
  139.9920   70.3330  225.6160 C   0  0  0  0  0  0  0  0  0  0  0  0
  141.1230   75.2820  221.3990 C   0  0  0  0  0  0  0  0  0  0  0  0
  141.4160   75.7890  220.1520 C   0  0  0  0  0  0  0  0  0  0  0  0
  141.5570   77.1540  219.9310 C   0  0  0  0  0  0  0  0  0  0  0  0
  141.3910   77.9830  221.0220 C   0  0  0  0  0  0  0  0  0  0  0  0
  141.5320   79.3500  220.8050 C   0  0  0  0  0  0  0  0  0  0  0  0
  141.3730   80.2110  221.8690 C   0  0  0  0  0  0  0  0  0  0  0  0
  141.0840   79.7210  223.1110 C   0  0  0  0  0  0  0  0  0  0  0  0
  140.9430   78.3540  223.3300 C   0  0  0  0  0  0  0  0  0  0  0  0
  141.0980   77.4770  222.2760 C   0  0  0  0  0  0  0  0  0  0  0  0
  140.9750   76.1390  222.4150 N   0  0  0  0  0  0  0  0  0  0  0  0
  139.1660   74.0510  222.7300 H   0  0  0  0  0  0  0  0  0  0  0  0
  139.9334   71.4054  221.6062 H   0  0  0  0  0  0  0  0  0  0  0  0
  140.3631   71.6215  223.3546 H   0  0  0  0  0  0  0  0  0  0  0  0
  136.6296   69.1791  224.4885 H   0  0  0  0  0  0  0  0  0  0  0  0
  135.9521   70.5814  223.6406 H   0  0  0  0  0  0  0  0  0  0  0  0
  135.4729   68.2495  222.6105 H   0  0  0  0  0  0  0  0  0  0  0  0
  136.1378   69.4910  221.4938 H   0  0  0  0  0  0  0  0  0  0  0  0
  137.1294   66.9733  221.8827 H   0  0  0  0  0  0  0  0  0  0  0  0
  138.0312   68.4343  221.2236 H   0  0  0  0  0  0  0  0  0  0  0  0
  138.0619   67.4523  224.0829 H   0  0  0  0  0  0  0  0  0  0  0  0
  139.3660   67.2523  222.8489 H   0  0  0  0  0  0  0  0  0  0  0  0
  139.9359   69.5602  222.9055 H   0  0  0  0  0  0  0  0  0  0  0  0
  139.2381   67.0932  225.1974 H   0  0  0  0  0  0  0  0  0  0  0  0
  139.9931   67.0049  227.5245 H   0  0  0  0  0  0  0  0  0  0  0  0
  140.7708   69.0585  228.6928 H   0  0  0  0  0  0  0  0  0  0  0  0
  139.9985   71.2985  225.0889 H   0  0  0  0  0  0  0  0  0  0  0  0
  141.5418   75.0946  219.3082 H   0  0  0  0  0  0  0  0  0  0  0  0
  141.7900   77.5548  218.9334 H   0  0  0  0  0  0  0  0  0  0  0  0
  141.7662   79.7365  219.8021 H   0  0  0  0  0  0  0  0  0  0  0  0
  141.4790   81.2954  221.7180 H   0  0  0  0  0  0  0  0  0  0  0  0
  140.9606   80.4189  223.9523 H   0  0  0  0  0  0  0  0  0  0  0  0
  140.7097   77.9753  224.3361 H   0  0  0  0  0  0  0  0  0  0  0  0
  1  2  2  0
  2  3  1  0
  3  4  1  0
  4  5  1  0
  5  6  2  0
  5  7  1  0
  7  8  1  0
  8  9  1  0
  9 10  1  0
 10 11  1  0
 11 12  1  0
 12 13  1  0
 13 14  2  0
 14 15  1  0
 15 16  2  0
 16 17  1  0
 17 18  1  0
 17 19  2  0
  2 20  1  0
 20 21  2  0
 21 22  1  0
 22 23  2  0
 23 24  1  0
 24 25  2  0
 25 26  1  0
 26 27  2  0
 27 28  1  0
 28 29  2  0
 12  7  1  0
 19 13  1  0
 29 20  1  0
 28 23  1  0
  3 30  1  0
  4 31  1  0
  4 32  1  0
  8 33  1  0
  8 34  1  0
  9 35  1  0
  9 36  1  0
 10 37  1  0
 10 38  1  0
 11 39  1  0
 11 40  1  0
 12 41  1  6
 14 42  1  0
 15 43  1  0
 16 44  1  0
 19 45  1  0
 21 46  1  0
 22 47  1  0
 24 48  1  0
 25 49  1  0
 26 50  1  0
 27 51  1  0
M  END
>  <smiles>  (16) 
O=C(NCC(=O)N1CCCCC1c1cccc(Br)c1)c1ccc2ccccc2n1

>  <score_type>  (16) 
oracle

>  <origin>  (16) 
autodockgpu

>  <m_score__min__energy>  (16) 
-10.01

>  <m_primary>  (16) 
energy

>  <rmsd>  (16) 
8.401042588262952

>  <m_score__min__rmsd>  (16) 
8.401042588262952

>  <meeko>  (16) 
{"free_energy": -8.84, "intermolecular_energy": -10.33, "internal_energy": -1.94, "cluster_size": 22, "cluster_id": 1, "rank_in_cluster": 20}

>  <energy>  (16) 
-8.94

>  <cluster_rmsd>  (16) 
1.47

>  <cluster>  (16) 
1

$$$$

     RDKit          3D

 51 54  0  0  0  0  0  0  0  0999 V2000
  141.0350   74.5260  221.3290 O   0  0  0  0  0  0  0  0  0  0  0  0
  140.0380   74.9770  221.9220 C   0  0  0  0  0  0  0  0  0  0  0  0
  138.8960   74.1730  222.2180 N   0  0  0  0  0  0  0  0  0  0  0  0
  138.8850   72.7810  221.8190 C   0  0  0  0  0  0  0  0  0  0  0  0
  139.4960   71.9080  222.8510 C   0  0  0  0  0  0  0  0  0  0  0  0
  140.6830   72.1370  223.1920 O   0  0  0  0  0  0  0  0  0  0  0  0
  138.6950   70.8700  223.3860 N   0  0  0  0  0  0  0  0  0  0  0  0
  137.2730   71.0600  223.7140 C   0  0  0  0  0  0  0  0  0  0  0  0
  136.4900   70.3350  222.6450 C   0  0  0  0  0  0  0  0  0  0  0  0
  137.1010   69.0030  222.3950 C   0  0  0  0  0  0  0  0  0  0  0  0
  138.0590   68.5290  223.4640 C   0  0  0  0  0  0  0  0  0  0  0  0
  139.1980   69.5240  223.6520 C   0  0  2  0  0  0  0  0  0  0  0  0
  139.6990   69.3530  225.0350 C   0  0  0  0  0  0  0  0  0  0  0  0
  139.8030   68.1120  225.6520 C   0  0  0  0  0  0  0  0  0  0  0  0
  140.2590   67.9580  226.9460 C   0  0  0  0  0  0  0  0  0  0  0  0
  140.6410   69.0440  227.6990 C   0  0  0  0  0  0  0  0  0  0  0  0
  140.5500   70.2840  227.1130 C   0  0  0  0  0  0  0  0  0  0  0  0
  141.0730   71.8270  228.1300 Br  0  0  0  0  0  0  0  0  0  0  0  0
  140.0870   70.4390  225.8050 C   0  0  0  0  0  0  0  0  0  0  0  0
  140.0140   76.3910  222.3440 C   0  0  0  0  0  0  0  0  0  0  0  0
  138.8110   77.0380  222.5180 C   0  0  0  0  0  0  0  0  0  0  0  0
  138.7460   78.3690  222.9130 C   0  0  0  0  0  0  0  0  0  0  0  0
  139.9460   79.0160  223.1250 C   0  0  0  0  0  0  0  0  0  0  0  0
  139.8840   80.3480  223.5210 C   0  0  0  0  0  0  0  0  0  0  0  0
  141.0610   81.0300  223.7420 C   0  0  0  0  0  0  0  0  0  0  0  0
  142.2610   80.4000  223.5730 C   0  0  0  0  0  0  0  0  0  0  0  0
  142.3250   79.0680  223.1770 C   0  0  0  0  0  0  0  0  0  0  0  0
  141.1560   78.3690  222.9510 C   0  0  0  0  0  0  0  0  0  0  0  0
  141.1430   77.0750  222.5650 N   0  0  0  0  0  0  0  0  0  0  0  0
  138.0710   74.6020  222.7260 H   0  0  0  0  0  0  0  0  0  0  0  0
  137.8439   72.4653  221.6564 H   0  0  0  0  0  0  0  0  0  0  0  0
  139.4757   72.6849  220.8960 H   0  0  0  0  0  0  0  0  0  0  0  0
  137.0504   70.6345  224.7036 H   0  0  0  0  0  0  0  0  0  0  0  0
  137.0099   72.1275  223.7472 H   0  0  0  0  0  0  0  0  0  0  0  0
  135.4501   70.2038  222.9787 H   0  0  0  0  0  0  0  0  0  0  0  0
  136.5076   70.9246  221.7166 H   0  0  0  0  0  0  0  0  0  0  0  0
  136.2893   68.2652  222.3127 H   0  0  0  0  0  0  0  0  0  0  0  0
  137.6938   69.1046  221.4740 H   0  0  0  0  0  0  0  0  0  0  0  0
  137.5145   68.4210  224.4137 H   0  0  0  0  0  0  0  0  0  0  0  0
  138.4834   67.5630  223.1530 H   0  0  0  0  0  0  0  0  0  0  0  0
  140.0325   69.3548  222.9556 H   0  0  0  0  0  0  0  0  0  0  0  0
  139.5099   67.2155  225.0860 H   0  0  0  0  0  0  0  0  0  0  0  0
  140.3179   66.9499  227.3822 H   0  0  0  0  0  0  0  0  0  0  0  0
  141.0052   68.9247  228.7301 H   0  0  0  0  0  0  0  0  0  0  0  0
  140.0285   71.4493  225.3739 H   0  0  0  0  0  0  0  0  0  0  0  0
  137.8761   76.4865  222.3396 H   0  0  0  0  0  0  0  0  0  0  0  0
  137.7829   78.8825  223.0501 H   0  0  0  0  0  0  0  0  0  0  0  0
  138.9134   80.8478  223.6553 H   0  0  0  0  0  0  0  0  0  0  0  0
  141.0339   82.0841  224.0552 H   0  0  0  0  0  0  0  0  0  0  0  0
  143.1931   80.9556  223.7532 H   0  0  0  0  0  0  0  0  0  0  0  0
  143.2996   78.5754  223.0449 H   0  0  0  0  0  0  0  0  0  0  0  0
  1  2  2  0
  2  3  1  0
  3  4  1  0
  4  5  1  0
  5  6  2  0
  5  7  1  0
  7  8  1  0
  8  9  1  0
  9 10  1  0
 10 11  1  0
 11 12  1  0
 12 13  1  0
 13 14  2  0
 14 15  1  0
 15 16  2  0
 16 17  1  0
 17 18  1  0
 17 19  2  0
  2 20  1  0
 20 21  2  0
 21 22  1  0
 22 23  2  0
 23 24  1  0
 24 25  2  0
 25 26  1  0
 26 27  2  0
 27 28  1  0
 28 29  2  0
 12  7  1  0
 19 13  1  0
 29 20  1  0
 28 23  1  0
  3 30  1  0
  4 31  1  0
  4 32  1  0
  8 33  1  0
  8 34  1  0
  9 35  1  0
  9 36  1  0
 10 37  1  0
 10 38  1  0
 11 39  1  0
 11 40  1  0
 12 41  1  6
 14 42  1  0
 15 43  1  0
 16 44  1  0
 19 45  1  0
 21 46  1  0
 22 47  1  0
 24 48  1  0
 25 49  1  0
 26 50  1  0
 27 51  1  0
M  END
>  <smiles>  (17) 
O=C(NCC(=O)N1CCCCC1c1cccc(Br)c1)c1ccc2ccccc2n1

>  <score_type>  (17) 
oracle

>  <origin>  (17) 
autodockgpu

>  <m_score__min__energy>  (17) 
-10.01

>  <m_primary>  (17) 
energy

>  <rmsd>  (17) 
8.291166801337114

>  <m_score__min__rmsd>  (17) 
8.291166801337114

>  <meeko>  (17) 
{"free_energy": -9.75, "intermolecular_energy": -11.24, "internal_energy": -1.35, "cluster_size": 22, "cluster_id": 1, "rank_in_cluster": 4}

>  <energy>  (17) 
-8.93

>  <cluster_rmsd>  (17) 
1.41

>  <cluster>  (17) 
1

$$$$

     RDKit          3D

 51 54  0  0  0  0  0  0  0  0999 V2000
  137.3060   76.3370  222.1750 O   0  0  0  0  0  0  0  0  0  0  0  0
  138.5390   76.3660  222.3440 C   0  0  0  0  0  0  0  0  0  0  0  0
  139.3590   75.2070  222.1930 N   0  0  0  0  0  0  0  0  0  0  0  0
  138.7460   73.9470  221.8280 C   0  0  0  0  0  0  0  0  0  0  0  0
  139.5200   72.7900  222.3410 C   0  0  0  0  0  0  0  0  0  0  0  0
  140.7330   72.9650  222.6180 O   0  0  0  0  0  0  0  0  0  0  0  0
  138.8360   71.5590  222.4850 N   0  0  0  0  0  0  0  0  0  0  0  0
  137.3710   71.4550  222.3950 C   0  0  0  0  0  0  0  0  0  0  0  0
  137.0720   70.8090  221.0620 C   0  0  0  0  0  0  0  0  0  0  0  0
  137.9880   69.6580  220.8490 C   0  0  0  0  0  0  0  0  0  0  0  0
  138.6980   69.1670  222.0910 C   0  0  0  0  0  0  0  0  0  0  0  0
  139.5140   70.2870  222.7270 C   0  0  2  0  0  0  0  0  0  0  0  0
  139.6470   69.9620  224.1660 C   0  0  0  0  0  0  0  0  0  0  0  0
  139.2270   68.7540  224.7090 C   0  0  0  0  0  0  0  0  0  0  0  0
  139.3420   68.4600  226.0530 C   0  0  0  0  0  0  0  0  0  0  0  0
  139.8880   69.3630  226.9330 C   0  0  0  0  0  0  0  0  0  0  0  0
  140.3140   70.5670  226.4240 C   0  0  0  0  0  0  0  0  0  0  0  0
  141.0830   71.8580  227.6200 Br  0  0  0  0  0  0  0  0  0  0  0  0
  140.1960   70.8640  225.0640 C   0  0  0  0  0  0  0  0  0  0  0  0
  139.1980   77.6330  222.7160 C   0  0  0  0  0  0  0  0  0  0  0  0
  138.4380   78.7270  223.0670 C   0  0  0  0  0  0  0  0  0  0  0  0
  139.0190   79.9380  223.4230 C   0  0  0  0  0  0  0  0  0  0  0  0
  140.3980   79.9970  223.4090 C   0  0  0  0  0  0  0  0  0  0  0  0
  140.9830   81.2080  223.7650 C   0  0  0  0  0  0  0  0  0  0  0  0
  142.3570   81.3060  223.7640 C   0  0  0  0  0  0  0  0  0  0  0  0
  143.1220   80.2290  223.4170 C   0  0  0  0  0  0  0  0  0  0  0  0
  142.5390   79.0170  223.0610 C   0  0  0  0  0  0  0  0  0  0  0  0
  141.1640   78.9000  223.0570 C   0  0  0  0  0  0  0  0  0  0  0  0
  140.5300   77.7550  222.7230 N   0  0  0  0  0  0  0  0  0  0  0  0
  140.4050   75.2820  222.3470 H   0  0  0  0  0  0  0  0  0  0  0  0
  137.7300   73.9103  222.2479 H   0  0  0  0  0  0  0  0  0  0  0  0
  138.7220   73.8832  220.7301 H   0  0  0  0  0  0  0  0  0  0  0  0
  136.9823   70.8334  223.2151 H   0  0  0  0  0  0  0  0  0  0  0  0
  136.8946   72.4432  222.4759 H   0  0  0  0  0  0  0  0  0  0  0  0
  136.0306   70.4548  221.0522 H   0  0  0  0  0  0  0  0  0  0  0  0
  137.2180   71.5456  220.2582 H   0  0  0  0  0  0  0  0  0  0  0  0
  137.3985   68.8238  220.4408 H   0  0  0  0  0  0  0  0  0  0  0  0
  138.7738   70.0131  220.1661 H   0  0  0  0  0  0  0  0  0  0  0  0
  137.9515   68.8087  222.8152 H   0  0  0  0  0  0  0  0  0  0  0  0
  139.3796   68.3512  221.8081 H   0  0  0  0  0  0  0  0  0  0  0  0
  140.5218   70.3798  222.2961 H   0  0  0  0  0  0  0  0  0  0  0  0
  138.7846   68.0008  224.0404 H   0  0  0  0  0  0  0  0  0  0  0  0
  138.9906   67.4865  226.4256 H   0  0  0  0  0  0  0  0  0  0  0  0
  139.9808   69.1313  228.0043 H   0  0  0  0  0  0  0  0  0  0  0  0
  140.5479   71.8391  224.6962 H   0  0  0  0  0  0  0  0  0  0  0  0
  137.3415   78.6395  223.0654 H   0  0  0  0  0  0  0  0  0  0  0  0
  138.4084   80.8091  223.7030 H   0  0  0  0  0  0  0  0  0  0  0  0
  140.3600   82.0712  224.0421 H   0  0  0  0  0  0  0  0  0  0  0  0
  142.8394   82.2542  224.0434 H   0  0  0  0  0  0  0  0  0  0  0  0
  144.2181   80.3215  223.4191 H   0  0  0  0  0  0  0  0  0  0  0  0
  143.1692   78.1587  222.7849 H   0  0  0  0  0  0  0  0  0  0  0  0
  1  2  2  0
  2  3  1  0
  3  4  1  0
  4  5  1  0
  5  6  2  0
  5  7  1  0
  7  8  1  0
  8  9  1  0
  9 10  1  0
 10 11  1  0
 11 12  1  0
 12 13  1  0
 13 14  2  0
 14 15  1  0
 15 16  2  0
 16 17  1  0
 17 18  1  0
 17 19  2  0
  2 20  1  0
 20 21  2  0
 21 22  1  0
 22 23  2  0
 23 24  1  0
 24 25  2  0
 25 26  1  0
 26 27  2  0
 27 28  1  0
 28 29  2  0
 12  7  1  0
 19 13  1  0
 29 20  1  0
 28 23  1  0
  3 30  1  0
  4 31  1  0
  4 32  1  0
  8 33  1  0
  8 34  1  0
  9 35  1  0
  9 36  1  0
 10 37  1  0
 10 38  1  0
 11 39  1  0
 11 40  1  0
 12 41  1  6
 14 42  1  0
 15 43  1  0
 16 44  1  0
 19 45  1  0
 21 46  1  0
 22 47  1  0
 24 48  1  0
 25 49  1  0
 26 50  1  0
 27 51  1  0
M  END
>  <smiles>  (18) 
O=C(NCC(=O)N1CCCCC1c1cccc(Br)c1)c1ccc2ccccc2n1

>  <score_type>  (18) 
oracle

>  <origin>  (18) 
autodockgpu

>  <m_score__min__energy>  (18) 
-10.01

>  <m_primary>  (18) 
energy

>  <rmsd>  (18) 
8.300460390930805

>  <m_score__min__rmsd>  (18) 
8.300460390930805

>  <meeko>  (18) 
{"free_energy": -8.94, "intermolecular_energy": -10.43, "internal_energy": -2.03, "cluster_size": 22, "cluster_id": 1, "rank_in_cluster": 16}

>  <energy>  (18) 
-8.87

>  <cluster_rmsd>  (18) 
1.82

>  <cluster>  (18) 
1

$$$$

     RDKit          3D

 51 54  0  0  0  0  0  0  0  0999 V2000
  140.4880   71.1730  221.2330 O   0  0  0  0  0  0  0  0  0  0  0  0
  139.9030   71.7600  222.1620 C   0  0  0  0  0  0  0  0  0  0  0  0
  139.1910   72.9820  221.9660 N   0  0  0  0  0  0  0  0  0  0  0  0
  139.1390   73.5680  220.6430 C   0  0  0  0  0  0  0  0  0  0  0  0
  139.1780   75.0500  220.6970 C   0  0  0  0  0  0  0  0  0  0  0  0
  138.0920   75.6750  220.6020 O   0  0  0  0  0  0  0  0  0  0  0  0
  140.4440   75.6650  220.8530 N   0  0  0  0  0  0  0  0  0  0  0  0
  141.6190   74.9350  221.3580 C   0  0  0  0  0  0  0  0  0  0  0  0
  142.5170   74.6990  220.1670 C   0  0  0  0  0  0  0  0  0  0  0  0
  142.6130   75.9440  219.3600 C   0  0  0  0  0  0  0  0  0  0  0  0
  142.1520   77.1990  220.0650 C   0  0  0  0  0  0  0  0  0  0  0  0
  140.7040   77.0640  220.5230 C   0  0  2  0  0  0  0  0  0  0  0  0
  140.5280   77.9770  221.6760 C   0  0  0  0  0  0  0  0  0  0  0  0
  139.3200   78.1210  222.3470 C   0  0  0  0  0  0  0  0  0  0  0  0
  139.1570   78.9820  223.4140 C   0  0  0  0  0  0  0  0  0  0  0  0
  140.2010   79.7500  223.8720 C   0  0  0  0  0  0  0  0  0  0  0  0
  141.4090   79.6270  223.2290 C   0  0  0  0  0  0  0  0  0  0  0  0
  142.8940   80.6830  223.8370 Br  0  0  0  0  0  0  0  0  0  0  0  0
  141.5730   78.7570  222.1480 C   0  0  0  0  0  0  0  0  0  0  0  0
  139.9360   71.1900  223.5230 C   0  0  0  0  0  0  0  0  0  0  0  0
  139.4070   69.9410  223.7600 C   0  0  0  0  0  0  0  0  0  0  0  0
  139.4180   69.3700  225.0270 C   0  0  0  0  0  0  0  0  0  0  0  0
  139.9830   70.1140  226.0420 C   0  0  0  0  0  0  0  0  0  0  0  0
  139.9960   69.5450  227.3110 C   0  0  0  0  0  0  0  0  0  0  0  0
  140.5520   70.2570  228.3520 C   0  0  0  0  0  0  0  0  0  0  0  0
  141.0790   71.4970  228.1310 C   0  0  0  0  0  0  0  0  0  0  0  0
  141.0680   72.0670  226.8620 C   0  0  0  0  0  0  0  0  0  0  0  0
  140.5150   71.3690  225.8070 C   0  0  0  0  0  0  0  0  0  0  0  0
  140.4700   71.8610  224.5510 N   0  0  0  0  0  0  0  0  0  0  0  0
  138.7090   73.4430  222.7890 H   0  0  0  0  0  0  0  0  0  0  0  0
  140.0006   73.2098  220.0604 H   0  0  0  0  0  0  0  0  0  0  0  0
  138.1917   73.2670  220.1718 H   0  0  0  0  0  0  0  0  0  0  0  0
  142.1428   75.5350  222.1167 H   0  0  0  0  0  0  0  0  0  0  0  0
  141.3264   73.9863  221.8317 H   0  0  0  0  0  0  0  0  0  0  0  0
  143.5196   74.4107  220.5159 H   0  0  0  0  0  0  0  0  0  0  0  0
  142.0970   73.8933  219.5469 H   0  0  0  0  0  0  0  0  0  0  0  0
  143.6650   76.0824  219.0699 H   0  0  0  0  0  0  0  0  0  0  0  0
  141.9379   75.8074  218.5023 H   0  0  0  0  0  0  0  0  0  0  0  0
  142.7923   77.3756  220.9419 H   0  0  0  0  0  0  0  0  0  0  0  0
  142.2217   78.0428  219.3628 H   0  0  0  0  0  0  0  0  0  0  0  0
  139.9806   77.3441  219.7431 H   0  0  0  0  0  0  0  0  0  0  0  0
  138.4578   77.5244  222.0144 H   0  0  0  0  0  0  0  0  0  0  0  0
  138.1756   79.0546  223.9056 H   0  0  0  0  0  0  0  0  0  0  0  0
  140.0741   80.4373  224.7214 H   0  0  0  0  0  0  0  0  0  0  0  0
  142.5560   78.6891  221.6589 H   0  0  0  0  0  0  0  0  0  0  0  0
  138.9638   69.3801  222.9240 H   0  0  0  0  0  0  0  0  0  0  0  0
  138.9958   68.3712  225.2119 H   0  0  0  0  0  0  0  0  0  0  0  0
  139.5703   68.5450  227.4808 H   0  0  0  0  0  0  0  0  0  0  0  0
  140.5712   69.8251  229.3635 H   0  0  0  0  0  0  0  0  0  0  0  0
  141.5197   72.0547  228.9705 H   0  0  0  0  0  0  0  0  0  0  0  0
  141.4969   73.0669  226.7003 H   0  0  0  0  0  0  0  0  0  0  0  0
  1  2  2  0
  2  3  1  0
  3  4  1  0
  4  5  1  0
  5  6  2  0
  5  7  1  0
  7  8  1  0
  8  9  1  0
  9 10  1  0
 10 11  1  0
 11 12  1  0
 12 13  1  0
 13 14  2  0
 14 15  1  0
 15 16  2  0
 16 17  1  0
 17 18  1  0
 17 19  2  0
  2 20  1  0
 20 21  2  0
 21 22  1  0
 22 23  2  0
 23 24  1  0
 24 25  2  0
 25 26  1  0
 26 27  2  0
 27 28  1  0
 28 29  2  0
 12  7  1  0
 19 13  1  0
 29 20  1  0
 28 23  1  0
  3 30  1  0
  4 31  1  0
  4 32  1  0
  8 33  1  0
  8 34  1  0
  9 35  1  0
  9 36  1  0
 10 37  1  0
 10 38  1  0
 11 39  1  0
 11 40  1  0
 12 41  1  6
 14 42  1  0
 15 43  1  0
 16 44  1  0
 19 45  1  0
 21 46  1  0
 22 47  1  0
 24 48  1  0
 25 49  1  0
 26 50  1  0
 27 51  1  0
M  END
>  <smiles>  (19) 
O=C(NCC(=O)N1CCCCC1c1cccc(Br)c1)c1ccc2ccccc2n1

>  <score_type>  (19) 
oracle

>  <origin>  (19) 
autodockgpu

>  <m_score__min__energy>  (19) 
-10.01

>  <m_primary>  (19) 
energy

>  <rmsd>  (19) 
2.1729827932159784

>  <m_score__min__rmsd>  (19) 
2.1729827932159784

>  <meeko>  (19) 
{"free_energy": -9.34, "intermolecular_energy": -10.83, "internal_energy": -1.58, "cluster_size": 20, "cluster_id": 2, "rank_in_cluster": 2}

>  <energy>  (19) 
-8.86

>  <cluster_rmsd>  (19) 
1.84

>  <cluster>  (19) 
1

$$$$

     RDKit          3D

 51 54  0  0  0  0  0  0  0  0999 V2000
  141.1890   71.5340  221.4180 O   0  0  0  0  0  0  0  0  0  0  0  0
  140.5680   72.0510  222.3640 C   0  0  0  0  0  0  0  0  0  0  0  0
  140.0830   73.3930  222.3170 N   0  0  0  0  0  0  0  0  0  0  0  0
  140.3150   74.1910  221.1310 C   0  0  0  0  0  0  0  0  0  0  0  0
  140.3500   75.6410  221.4430 C   0  0  0  0  0  0  0  0  0  0  0  0
  139.6570   76.0570  222.4050 O   0  0  0  0  0  0  0  0  0  0  0  0
  141.1660   76.4640  220.6290 N   0  0  0  0  0  0  0  0  0  0  0  0
  142.4930   76.0380  220.1560 C   0  0  0  0  0  0  0  0  0  0  0  0
  142.3370   75.7210  218.6860 C   0  0  0  0  0  0  0  0  0  0  0  0
  141.5370   76.7870  218.0280 C   0  0  0  0  0  0  0  0  0  0  0  0
  141.4020   78.0670  218.8220 C   0  0  0  0  0  0  0  0  0  0  0  0
  140.7690   77.7970  220.1820 C   0  0  2  0  0  0  0  0  0  0  0  0
  141.2210   78.8760  221.0920 C   0  0  0  0  0  0  0  0  0  0  0  0
  141.8970   78.6280  222.2790 C   0  0  0  0  0  0  0  0  0  0  0  0
  142.3060   79.6350  223.1290 C   0  0  0  0  0  0  0  0  0  0  0  0
  142.0610   80.9560  222.8360 C   0  0  0  0  0  0  0  0  0  0  0  0
  141.3940   81.2310  221.6660 C   0  0  0  0  0  0  0  0  0  0  0  0
  141.0310   83.0640  221.2180 Br  0  0  0  0  0  0  0  0  0  0  0  0
  140.9790   80.2110  220.8070 C   0  0  0  0  0  0  0  0  0  0  0  0
  140.3130   71.2670  223.5880 C   0  0  0  0  0  0  0  0  0  0  0  0
  139.6540   70.0600  223.5080 C   0  0  0  0  0  0  0  0  0  0  0  0
  139.3940   69.2920  224.6360 C   0  0  0  0  0  0  0  0  0  0  0  0
  139.8260   69.7950  225.8460 C   0  0  0  0  0  0  0  0  0  0  0  0
  139.5680   69.0290  226.9790 C   0  0  0  0  0  0  0  0  0  0  0  0
  139.9850   69.4960  228.2060 C   0  0  0  0  0  0  0  0  0  0  0  0
  140.6380   70.6920  228.2990 C   0  0  0  0  0  0  0  0  0  0  0  0
  140.8980   71.4600  227.1680 C   0  0  0  0  0  0  0  0  0  0  0  0
  140.4880   71.0070  225.9300 C   0  0  0  0  0  0  0  0  0  0  0  0
  140.7070   71.6990  224.7910 N   0  0  0  0  0  0  0  0  0  0  0  0
  139.5580   73.7890  223.1480 H   0  0  0  0  0  0  0  0  0  0  0  0
  141.2782   73.8985  220.6874 H   0  0  0  0  0  0  0  0  0  0  0  0
  139.4870   74.0112  220.4296 H   0  0  0  0  0  0  0  0  0  0  0  0
  143.2251   76.8470  220.2957 H   0  0  0  0  0  0  0  0  0  0  0  0
  142.8565   75.1646  220.7173 H   0  0  0  0  0  0  0  0  0  0  0  0
  143.3300   75.6658  218.2161 H   0  0  0  0  0  0  0  0  0  0  0  0
  141.8219   74.7556  218.5732 H   0  0  0  0  0  0  0  0  0  0  0  0
  142.0161   77.0298  217.0681 H   0  0  0  0  0  0  0  0  0  0  0  0
  140.5192   76.3843  217.9186 H   0  0  0  0  0  0  0  0  0  0  0  0
  142.3995   78.5066  218.9695 H   0  0  0  0  0  0  0  0  0  0  0  0
  140.7560   78.7610  218.2643 H   0  0  0  0  0  0  0  0  0  0  0  0
  139.6695   77.8051  220.1513 H   0  0  0  0  0  0  0  0  0  0  0  0
  142.1156   77.5854  222.5532 H   0  0  0  0  0  0  0  0  0  0  0  0
  142.8372   79.3766  224.0570 H   0  0  0  0  0  0  0  0  0  0  0  0
  142.3861   81.7611  223.5114 H   0  0  0  0  0  0  0  0  0  0  0  0
  140.4467   80.4735  219.8809 H   0  0  0  0  0  0  0  0  0  0  0  0
  139.3247   69.6943  222.5242 H   0  0  0  0  0  0  0  0  0  0  0  0
  138.8684   68.3281  224.5677 H   0  0  0  0  0  0  0  0  0  0  0  0
  139.0403   68.0674  226.8961 H   0  0  0  0  0  0  0  0  0  0  0  0
  139.7917   68.9044  229.1130 H   0  0  0  0  0  0  0  0  0  0  0  0
  140.9641   71.0545  229.2850 H   0  0  0  0  0  0  0  0  0  0  0  0
  141.4261   72.4206  227.2597 H   0  0  0  0  0  0  0  0  0  0  0  0
  1  2  2  0
  2  3  1  0
  3  4  1  0
  4  5  1  0
  5  6  2  0
  5  7  1  0
  7  8  1  0
  8  9  1  0
  9 10  1  0
 10 11  1  0
 11 12  1  0
 12 13  1  0
 13 14  2  0
 14 15  1  0
 15 16  2  0
 16 17  1  0
 17 18  1  0
 17 19  2  0
  2 20  1  0
 20 21  2  0
 21 22  1  0
 22 23  2  0
 23 24  1  0
 24 25  2  0
 25 26  1  0
 26 27  2  0
 27 28  1  0
 28 29  2  0
 12  7  1  0
 19 13  1  0
 29 20  1  0
 28 23  1  0
  3 30  1  0
  4 31  1  0
  4 32  1  0
  8 33  1  0
  8 34  1  0
  9 35  1  0
  9 36  1  0
 10 37  1  0
 10 38  1  0
 11 39  1  0
 11 40  1  0
 12 41  1  6
 14 42  1  0
 15 43  1  0
 16 44  1  0
 19 45  1  0
 21 46  1  0
 22 47  1  0
 24 48  1  0
 25 49  1  0
 26 50  1  0
 27 51  1  0
M  END
>  <smiles>  (20) 
O=C(NCC(=O)N1CCCCC1c1cccc(Br)c1)c1ccc2ccccc2n1

>  <score_type>  (20) 
oracle

>  <origin>  (20) 
autodockgpu

>  <m_score__min__energy>  (20) 
-10.01

>  <m_primary>  (20) 
energy

>  <rmsd>  (20) 
2.0880043223641636

>  <m_score__min__rmsd>  (20) 
2.0880043223641636

>  <meeko>  (20) 
{"free_energy": -9.05, "intermolecular_energy": -10.55, "internal_energy": -1.74, "cluster_size": 20, "cluster_id": 2, "rank_in_cluster": 14}

>  <energy>  (20) 
-8.84

>  <cluster_rmsd>  (20) 
1.81

>  <cluster>  (20) 
1

$$$$

     RDKit          3D

 51 54  0  0  0  0  0  0  0  0999 V2000
  141.4260   72.1620  221.7940 O   0  0  0  0  0  0  0  0  0  0  0  0
  140.4200   72.3180  222.5120 C   0  0  0  0  0  0  0  0  0  0  0  0
  139.4250   73.3020  222.2300 N   0  0  0  0  0  0  0  0  0  0  0  0
  139.5780   74.1550  221.0700 C   0  0  0  0  0  0  0  0  0  0  0  0
  140.7740   75.0270  221.1830 C   0  0  0  0  0  0  0  0  0  0  0  0
  140.9830   75.6060  222.2770 O   0  0  0  0  0  0  0  0  0  0  0  0
  141.6030   75.1480  220.0410 N   0  0  0  0  0  0  0  0  0  0  0  0
  141.1190   74.8610  218.6810 C   0  0  0  0  0  0  0  0  0  0  0  0
  140.9570   76.1990  217.9970 C   0  0  0  0  0  0  0  0  0  0  0  0
  142.1410   77.0510  218.2820 C   0  0  0  0  0  0  0  0  0  0  0  0
  143.3460   76.3130  218.8190 C   0  0  0  0  0  0  0  0  0  0  0  0
  143.0000   75.5720  220.1050 C   0  0  2  0  0  0  0  0  0  0  0  0
  143.9470   74.4390  220.2200 C   0  0  0  0  0  0  0  0  0  0  0  0
  145.2570   74.5920  220.6590 C   0  0  0  0  0  0  0  0  0  0  0  0
  146.1400   73.5360  220.7540 C   0  0  0  0  0  0  0  0  0  0  0  0
  145.7600   72.2590  220.4140 C   0  0  0  0  0  0  0  0  0  0  0  0
  144.4690   72.0780  219.9770 C   0  0  0  0  0  0  0  0  0  0  0  0
  143.8970   70.3090  219.4910 Br  0  0  0  0  0  0  0  0  0  0  0  0
  143.5760   73.1470  219.8800 C   0  0  0  0  0  0  0  0  0  0  0  0
  140.2320   71.4660  223.7020 C   0  0  0  0  0  0  0  0  0  0  0  0
  139.5520   70.2730  223.5940 C   0  0  0  0  0  0  0  0  0  0  0  0
  139.3530   69.4420  224.6900 C   0  0  0  0  0  0  0  0  0  0  0  0
  139.8680   69.8690  225.8970 C   0  0  0  0  0  0  0  0  0  0  0  0
  139.6700   69.0400  226.9970 C   0  0  0  0  0  0  0  0  0  0  0  0
  140.1700   69.4300  228.2210 C   0  0  0  0  0  0  0  0  0  0  0  0
  140.8440   70.6110  228.3410 C   0  0  0  0  0  0  0  0  0  0  0  0
  141.0430   71.4420  227.2420 C   0  0  0  0  0  0  0  0  0  0  0  0
  140.5500   71.0670  226.0090 C   0  0  0  0  0  0  0  0  0  0  0  0
  140.7060   71.8220  224.9010 N   0  0  0  0  0  0  0  0  0  0  0  0
  138.5870   73.3960  222.8710 H   0  0  0  0  0  0  0  0  0  0  0  0
  139.6802   73.5241  220.1747 H   0  0  0  0  0  0  0  0  0  0  0  0
  138.6895   74.7995  220.9990 H   0  0  0  0  0  0  0  0  0  0  0  0
  141.8497   74.2424  218.1394 H   0  0  0  0  0  0  0  0  0  0  0  0
  140.1696   74.3060  218.7034 H   0  0  0  0  0  0  0  0  0  0  0  0
  140.8683   76.0468  216.9112 H   0  0  0  0  0  0  0  0  0  0  0  0
  140.0506   76.6949  218.3744 H   0  0  0  0  0  0  0  0  0  0  0  0
  142.4354   77.5497  217.3468 H   0  0  0  0  0  0  0  0  0  0  0  0
  141.8324   77.7510  219.0724 H   0  0  0  0  0  0  0  0  0  0  0  0
  143.6892   75.5878  218.0665 H   0  0  0  0  0  0  0  0  0  0  0  0
  144.1384   77.0443  219.0366 H   0  0  0  0  0  0  0  0  0  0  0  0
  143.0991   76.2016  221.0015 H   0  0  0  0  0  0  0  0  0  0  0  0
  145.6041   75.5966  220.9424 H   0  0  0  0  0  0  0  0  0  0  0  0
  147.1654   73.7188  221.1077 H   0  0  0  0  0  0  0  0  0  0  0  0
  146.4616   71.4151  220.4887 H   0  0  0  0  0  0  0  0  0  0  0  0
  142.5520   72.9594  219.5248 H   0  0  0  0  0  0  0  0  0  0  0  0
  139.1557   69.9698  222.6137 H   0  0  0  0  0  0  0  0  0  0  0  0
  138.8108   68.4892  224.5997 H   0  0  0  0  0  0  0  0  0  0  0  0
  139.1244   68.0907  226.8917 H   0  0  0  0  0  0  0  0  0  0  0  0
  140.0256   68.7883  229.1027 H   0  0  0  0  0  0  0  0  0  0  0  0
  141.2368   70.9114  229.3236 H   0  0  0  0  0  0  0  0  0  0  0  0
  141.5890   72.3901  227.3557 H   0  0  0  0  0  0  0  0  0  0  0  0
  1  2  2  0
  2  3  1  0
  3  4  1  0
  4  5  1  0
  5  6  2  0
  5  7  1  0
  7  8  1  0
  8  9  1  0
  9 10  1  0
 10 11  1  0
 11 12  1  0
 12 13  1  0
 13 14  2  0
 14 15  1  0
 15 16  2  0
 16 17  1  0
 17 18  1  0
 17 19  2  0
  2 20  1  0
 20 21  2  0
 21 22  1  0
 22 23  2  0
 23 24  1  0
 24 25  2  0
 25 26  1  0
 26 27  2  0
 27 28  1  0
 28 29  2  0
 12  7  1  0
 19 13  1  0
 29 20  1  0
 28 23  1  0
  3 30  1  0
  4 31  1  0
  4 32  1  0
  8 33  1  0
  8 34  1  0
  9 35  1  0
  9 36  1  0
 10 37  1  0
 10 38  1  0
 11 39  1  0
 11 40  1  0
 12 41  1  1
 14 42  1  0
 15 43  1  0
 16 44  1  0
 19 45  1  0
 21 46  1  0
 22 47  1  0
 24 48  1  0
 25 49  1  0
 26 50  1  0
 27 51  1  0
M  END
>  <smiles>  (21) 
O=C(NCC(=O)N1CCCCC1c1cccc(Br)c1)c1ccc2ccccc2n1

>  <score_type>  (21) 
oracle

>  <origin>  (21) 
autodockgpu

>  <m_score__min__energy>  (21) 
-10.01

>  <m_primary>  (21) 
energy

>  <rmsd>  (21) 
1.8222665569415453

>  <m_score__min__rmsd>  (21) 
1.8222665569415453

>  <meeko>  (21) 
{"free_energy": -9.12, "intermolecular_energy": -10.61, "internal_energy": -1.83, "cluster_size": 8, "cluster_id": 3, "rank_in_cluster": 1}

>  <energy>  (21) 
-8.84

>  <cluster_rmsd>  (21) 
1.82

>  <cluster>  (21) 
1

$$$$

     RDKit          3D

 51 54  0  0  0  0  0  0  0  0999 V2000
  141.0830   71.5720  221.4140 O   0  0  0  0  0  0  0  0  0  0  0  0
  140.5070   72.1330  222.3640 C   0  0  0  0  0  0  0  0  0  0  0  0
  140.0610   73.4870  222.2950 N   0  0  0  0  0  0  0  0  0  0  0  0
  140.2790   74.2460  221.0810 C   0  0  0  0  0  0  0  0  0  0  0  0
  140.7820   75.6110  221.3690 C   0  0  0  0  0  0  0  0  0  0  0  0
  140.4960   76.1260  222.4790 O   0  0  0  0  0  0  0  0  0  0  0  0
  141.5550   76.2480  220.3670 N   0  0  0  0  0  0  0  0  0  0  0  0
  142.9520   75.8730  220.0920 C   0  0  0  0  0  0  0  0  0  0  0  0
  142.9360   75.1090  218.7880 C   0  0  0  0  0  0  0  0  0  0  0  0
  142.0690   75.8120  217.8070 C   0  0  0  0  0  0  0  0  0  0  0  0
  141.7350   77.2440  218.1610 C   0  0  0  0  0  0  0  0  0  0  0  0
  141.0420   77.3190  219.5170 C   0  0  2  0  0  0  0  0  0  0  0  0
  141.3040   78.6720  220.0620 C   0  0  0  0  0  0  0  0  0  0  0  0
  141.1800   79.8290  219.3040 C   0  0  0  0  0  0  0  0  0  0  0  0
  141.4370   81.0850  219.8120 C   0  0  0  0  0  0  0  0  0  0  0  0
  141.8340   81.2560  221.1180 C   0  0  0  0  0  0  0  0  0  0  0  0
  141.9640   80.1290  221.8920 C   0  0  0  0  0  0  0  0  0  0  0  0
  142.5180   80.3220  223.7220 Br  0  0  0  0  0  0  0  0  0  0  0  0
  141.7060   78.8570  221.3770 C   0  0  0  0  0  0  0  0  0  0  0  0
  140.2670   71.3900  223.6160 C   0  0  0  0  0  0  0  0  0  0  0  0
  139.5880   70.1920  223.5880 C   0  0  0  0  0  0  0  0  0  0  0  0
  139.3420   69.4620  224.7440 C   0  0  0  0  0  0  0  0  0  0  0  0
  139.8090   69.9940  225.9290 C   0  0  0  0  0  0  0  0  0  0  0  0
  139.5640   69.2660  227.0890 C   0  0  0  0  0  0  0  0  0  0  0  0
  140.0150   69.7640  228.2920 C   0  0  0  0  0  0  0  0  0  0  0  0
  140.6890   70.9510  228.3350 C   0  0  0  0  0  0  0  0  0  0  0  0
  140.9350   71.6810  227.1750 C   0  0  0  0  0  0  0  0  0  0  0  0
  140.4910   71.1970  225.9610 C   0  0  0  0  0  0  0  0  0  0  0  0
  140.6940   71.8510  224.7980 N   0  0  0  0  0  0  0  0  0  0  0  0
  139.5740   73.9210  223.1300 H   0  0  0  0  0  0  0  0  0  0  0  0
  141.0168   73.7184  220.4586 H   0  0  0  0  0  0  0  0  0  0  0  0
  139.3158   74.3393  220.5579 H   0  0  0  0  0  0  0  0  0  0  0  0
  143.5769   76.7734  219.9985 H   0  0  0  0  0  0  0  0  0  0  0  0
  143.3711   75.2648  220.9071 H   0  0  0  0  0  0  0  0  0  0  0  0
  143.9594   75.0429  218.3902 H   0  0  0  0  0  0  0  0  0  0  0  0
  142.5421   74.0970  218.9632 H   0  0  0  0  0  0  0  0  0  0  0  0
  142.5838   75.8118  216.8349 H   0  0  0  0  0  0  0  0  0  0  0  0
  141.1135   75.2672  217.7950 H   0  0  0  0  0  0  0  0  0  0  0  0
  142.6637   77.8325  218.1976 H   0  0  0  0  0  0  0  0  0  0  0  0
  141.0560   77.6473  217.3953 H   0  0  0  0  0  0  0  0  0  0  0  0
  139.9536   77.1745  219.4501 H   0  0  0  0  0  0  0  0  0  0  0  0
  140.8635   79.7398  218.2543 H   0  0  0  0  0  0  0  0  0  0  0  0
  141.3226   81.9650  219.1620 H   0  0  0  0  0  0  0  0  0  0  0  0
  142.0393   82.2565  221.5265 H   0  0  0  0  0  0  0  0  0  0  0  0
  141.8244   77.9798  222.0301 H   0  0  0  0  0  0  0  0  0  0  0  0
  139.2306   69.8024  222.6234 H   0  0  0  0  0  0  0  0  0  0  0  0
  138.8005   68.5049  224.7163 H   0  0  0  0  0  0  0  0  0  0  0  0
  139.0204   68.3107  227.0466 H   0  0  0  0  0  0  0  0  0  0  0  0
  139.8316   69.2037  229.2207 H   0  0  0  0  0  0  0  0  0  0  0  0
  141.0435   71.3369  229.3022 H   0  0  0  0  0  0  0  0  0  0  0  0
  141.4788   72.6358  227.2257 H   0  0  0  0  0  0  0  0  0  0  0  0
  1  2  2  0
  2  3  1  0
  3  4  1  0
  4  5  1  0
  5  6  2  0
  5  7  1  0
  7  8  1  0
  8  9  1  0
  9 10  1  0
 10 11  1  0
 11 12  1  0
 12 13  1  0
 13 14  2  0
 14 15  1  0
 15 16  2  0
 16 17  1  0
 17 18  1  0
 17 19  2  0
  2 20  1  0
 20 21  2  0
 21 22  1  0
 22 23  2  0
 23 24  1  0
 24 25  2  0
 25 26  1  0
 26 27  2  0
 27 28  1  0
 28 29  2  0
 12  7  1  0
 19 13  1  0
 29 20  1  0
 28 23  1  0
  3 30  1  0
  4 31  1  0
  4 32  1  0
  8 33  1  0
  8 34  1  0
  9 35  1  0
  9 36  1  0
 10 37  1  0
 10 38  1  0
 11 39  1  0
 11 40  1  0
 12 41  1  6
 14 42  1  0
 15 43  1  0
 16 44  1  0
 19 45  1  0
 21 46  1  0
 22 47  1  0
 24 48  1  0
 25 49  1  0
 26 50  1  0
 27 51  1  0
M  END
>  <smiles>  (22) 
O=C(NCC(=O)N1CCCCC1c1cccc(Br)c1)c1ccc2ccccc2n1

>  <score_type>  (22) 
oracle

>  <origin>  (22) 
autodockgpu

>  <m_score__min__energy>  (22) 
-10.01

>  <m_primary>  (22) 
energy

>  <rmsd>  (22) 
2.1744193578370683

>  <m_score__min__rmsd>  (22) 
2.1744193578370683

>  <meeko>  (22) 
{"free_energy": -9.16, "intermolecular_energy": -10.66, "internal_energy": -1.72, "cluster_size": 20, "cluster_id": 2, "rank_in_cluster": 7}

>  <energy>  (22) 
-8.84

>  <cluster_rmsd>  (22) 
1.81

>  <cluster>  (22) 
1

$$$$

     RDKit          3D

 51 54  0  0  0  0  0  0  0  0999 V2000
  141.3730   72.1630  221.9480 O   0  0  0  0  0  0  0  0  0  0  0  0
  140.3290   72.1790  222.6260 C   0  0  0  0  0  0  0  0  0  0  0  0
  139.2460   73.0630  222.3410 N   0  0  0  0  0  0  0  0  0  0  0  0
  139.3520   73.9790  221.2250 C   0  0  0  0  0  0  0  0  0  0  0  0
  140.1800   75.1630  221.5620 C   0  0  0  0  0  0  0  0  0  0  0  0
  139.9100   75.7940  222.6140 O   0  0  0  0  0  0  0  0  0  0  0  0
  141.2250   75.5050  220.6690 N   0  0  0  0  0  0  0  0  0  0  0  0
  142.5700   74.9140  220.7660 C   0  0  0  0  0  0  0  0  0  0  0  0
  142.6860   73.9340  219.6220 C   0  0  0  0  0  0  0  0  0  0  0  0
  142.1510   74.5500  218.3800 C   0  0  0  0  0  0  0  0  0  0  0  0
  141.9880   76.0530  218.4310 C   0  0  0  0  0  0  0  0  0  0  0  0
  141.0660   76.4600  219.5750 C   0  0  2  0  0  0  0  0  0  0  0  0
  141.4310   77.8450  219.9530 C   0  0  0  0  0  0  0  0  0  0  0  0
  141.6970   78.8370  219.0180 C   0  0  0  0  0  0  0  0  0  0  0  0
  142.0480   80.1230  219.3740 C   0  0  0  0  0  0  0  0  0  0  0  0
  142.1520   80.4910  220.6950 C   0  0  0  0  0  0  0  0  0  0  0  0
  141.8920   79.5300  221.6430 C   0  0  0  0  0  0  0  0  0  0  0  0
  142.0250   80.0020  223.5000 Br  0  0  0  0  0  0  0  0  0  0  0  0
  141.5380   78.2280  221.2810 C   0  0  0  0  0  0  0  0  0  0  0  0
  140.1870   71.2590  223.7710 C   0  0  0  0  0  0  0  0  0  0  0  0
  139.5310   70.0580  223.6130 C   0  0  0  0  0  0  0  0  0  0  0  0
  139.3750   69.1640  224.6650 C   0  0  0  0  0  0  0  0  0  0  0  0
  139.9080   69.5360  225.8830 C   0  0  0  0  0  0  0  0  0  0  0  0
  139.7540   68.6430  226.9390 C   0  0  0  0  0  0  0  0  0  0  0  0
  140.2720   68.9780  228.1710 C   0  0  0  0  0  0  0  0  0  0  0  0
  140.9230   70.1660  228.3420 C   0  0  0  0  0  0  0  0  0  0  0  0
  141.0790   71.0590  227.2870 C   0  0  0  0  0  0  0  0  0  0  0  0
  140.5660   70.7410  226.0460 C   0  0  0  0  0  0  0  0  0  0  0  0
  140.6810   71.5600  224.9780 N   0  0  0  0  0  0  0  0  0  0  0  0
  138.3770   73.0380  222.9470 H   0  0  0  0  0  0  0  0  0  0  0  0
  139.8115   73.4532  220.3750 H   0  0  0  0  0  0  0  0  0  0  0  0
  138.3404   74.3294  220.9724 H   0  0  0  0  0  0  0  0  0  0  0  0
  143.3374   75.6969  220.6762 H   0  0  0  0  0  0  0  0  0  0  0  0
  142.7190   74.4162  221.7356 H   0  0  0  0  0  0  0  0  0  0  0  0
  143.7432   73.6691  219.4729 H   0  0  0  0  0  0  0  0  0  0  0  0
  142.1084   73.0280  219.8578 H   0  0  0  0  0  0  0  0  0  0  0  0
  142.8387   74.3091  217.5560 H   0  0  0  0  0  0  0  0  0  0  0  0
  141.1414   74.1357  218.2415 H   0  0  0  0  0  0  0  0  0  0  0  0
  142.9739   76.5176  218.5799 H   0  0  0  0  0  0  0  0  0  0  0  0
  141.5439   76.3915  217.4833 H   0  0  0  0  0  0  0  0  0  0  0  0
  140.0026   76.4442  219.2940 H   0  0  0  0  0  0  0  0  0  0  0  0
  141.6249   78.5870  217.9492 H   0  0  0  0  0  0  0  0  0  0  0  0
  142.2480   80.8663  218.5881 H   0  0  0  0  0  0  0  0  0  0  0  0
  142.4325   81.5152  220.9821 H   0  0  0  0  0  0  0  0  0  0  0  0
  141.3391   77.4877  222.0699 H   0  0  0  0  0  0  0  0  0  0  0  0
  139.1192   69.7996  222.6263 H   0  0  0  0  0  0  0  0  0  0  0  0
  138.8517   68.2054  224.5337 H   0  0  0  0  0  0  0  0  0  0  0  0
  139.2286   67.6877  226.7929 H   0  0  0  0  0  0  0  0  0  0  0  0
  140.1608   68.2865  229.0192 H   0  0  0  0  0  0  0  0  0  0  0  0
  141.3311   70.4213  229.3311 H   0  0  0  0  0  0  0  0  0  0  0  0
  141.6073   72.0115  227.4407 H   0  0  0  0  0  0  0  0  0  0  0  0
  1  2  2  0
  2  3  1  0
  3  4  1  0
  4  5  1  0
  5  6  2  0
  5  7  1  0
  7  8  1  0
  8  9  1  0
  9 10  1  0
 10 11  1  0
 11 12  1  0
 12 13  1  0
 13 14  2  0
 14 15  1  0
 15 16  2  0
 16 17  1  0
 17 18  1  0
 17 19  2  0
  2 20  1  0
 20 21  2  0
 21 22  1  0
 22 23  2  0
 23 24  1  0
 24 25  2  0
 25 26  1  0
 26 27  2  0
 27 28  1  0
 28 29  2  0
 12  7  1  0
 19 13  1  0
 29 20  1  0
 28 23  1  0
  3 30  1  0
  4 31  1  0
  4 32  1  0
  8 33  1  0
  8 34  1  0
  9 35  1  0
  9 36  1  0
 10 37  1  0
 10 38  1  0
 11 39  1  0
 11 40  1  0
 12 41  1  6
 14 42  1  0
 15 43  1  0
 16 44  1  0
 19 45  1  0
 21 46  1  0
 22 47  1  0
 24 48  1  0
 25 49  1  0
 26 50  1  0
 27 51  1  0
M  END
>  <smiles>  (23) 
O=C(NCC(=O)N1CCCCC1c1cccc(Br)c1)c1ccc2ccccc2n1

>  <score_type>  (23) 
oracle

>  <origin>  (23) 
autodockgpu

>  <m_score__min__energy>  (23) 
-10.01

>  <m_primary>  (23) 
energy

>  <rmsd>  (23) 
2.116606944358385

>  <m_score__min__rmsd>  (23) 
2.116606944358385

>  <meeko>  (23) 
{"free_energy": -9.02, "intermolecular_energy": -10.51, "internal_energy": -1.59, "cluster_size": 20, "cluster_id": 2, "rank_in_cluster": 16}

>  <energy>  (23) 
-9.34

>  <cluster_rmsd>  (23) 
0.0

>  <cluster>  (23) 
2

$$$$

     RDKit          3D

 51 54  0  0  0  0  0  0  0  0999 V2000
  140.6060   71.1520  221.2750 O   0  0  0  0  0  0  0  0  0  0  0  0
  140.1690   71.7590  222.2710 C   0  0  0  0  0  0  0  0  0  0  0  0
  139.7040   73.1070  222.2010 N   0  0  0  0  0  0  0  0  0  0  0  0
  139.7350   73.8040  220.9320 C   0  0  0  0  0  0  0  0  0  0  0  0
  140.5980   75.0100  220.9880 C   0  0  0  0  0  0  0  0  0  0  0  0
  140.4820   75.7750  221.9780 O   0  0  0  0  0  0  0  0  0  0  0  0
  141.4980   75.2190  219.9160 N   0  0  0  0  0  0  0  0  0  0  0  0
  141.1000   75.0530  218.5080 C   0  0  0  0  0  0  0  0  0  0  0  0
  140.9870   76.4450  217.9320 C   0  0  0  0  0  0  0  0  0  0  0  0
  142.1540   77.2600  218.3610 C   0  0  0  0  0  0  0  0  0  0  0  0
  143.3200   76.4680  218.9080 C   0  0  0  0  0  0  0  0  0  0  0  0
  142.8900   75.6230  220.1020 C   0  0  2  0  0  0  0  0  0  0  0  0
  143.8240   74.4760  220.1810 C   0  0  0  0  0  0  0  0  0  0  0  0
  145.1670   74.6170  220.5050 C   0  0  0  0  0  0  0  0  0  0  0  0
  146.0360   73.5470  220.5650 C   0  0  0  0  0  0  0  0  0  0  0  0
  145.6070   72.2670  220.3030 C   0  0  0  0  0  0  0  0  0  0  0  0
  144.2820   72.0970  219.9810 C   0  0  0  0  0  0  0  0  0  0  0  0
  143.6400   70.3250  219.6070 Br  0  0  0  0  0  0  0  0  0  0  0  0
  143.4030   73.1810  219.9190 C   0  0  0  0  0  0  0  0  0  0  0  0
  140.1220   71.0800  223.5800 C   0  0  0  0  0  0  0  0  0  0  0  0
  139.5670   69.8230  223.6850 C   0  0  0  0  0  0  0  0  0  0  0  0
  139.5030   69.1500  224.8980 C   0  0  0  0  0  0  0  0  0  0  0  0
  140.0220   69.8000  226.0000 C   0  0  0  0  0  0  0  0  0  0  0  0
  139.9600   69.1290  227.2170 C   0  0  0  0  0  0  0  0  0  0  0  0
  140.4680   69.7440  228.3410 C   0  0  0  0  0  0  0  0  0  0  0  0
  141.0200   70.9900  228.2510 C   0  0  0  0  0  0  0  0  0  0  0  0
  141.0840   71.6620  227.0340 C   0  0  0  0  0  0  0  0  0  0  0  0
  140.5800   71.0610  225.8980 C   0  0  0  0  0  0  0  0  0  0  0  0
  140.6080   71.6550  224.6860 N   0  0  0  0  0  0  0  0  0  0  0  0
  139.3400   73.5810  223.0760 H   0  0  0  0  0  0  0  0  0  0  0  0
  140.1241   73.1229  220.1608 H   0  0  0  0  0  0  0  0  0  0  0  0
  138.7108   74.1266  220.6933 H   0  0  0  0  0  0  0  0  0  0  0  0
  141.8612   74.4758  217.9626 H   0  0  0  0  0  0  0  0  0  0  0  0
  140.1489   74.5070  218.4232 H   0  0  0  0  0  0  0  0  0  0  0  0
  140.9660   76.3859  216.8338 H   0  0  0  0  0  0  0  0  0  0  0  0
  140.0609   76.9154  218.2940 H   0  0  0  0  0  0  0  0  0  0  0  0
  142.5085   77.8326  217.4913 H   0  0  0  0  0  0  0  0  0  0  0  0
  141.7991   77.8945  219.1865 H   0  0  0  0  0  0  0  0  0  0  0  0
  143.7079   75.8065  218.1194 H   0  0  0  0  0  0  0  0  0  0  0  0
  144.0995   77.1710  219.2369 H   0  0  0  0  0  0  0  0  0  0  0  0
  142.9344   76.1740  221.0530 H   0  0  0  0  0  0  0  0  0  0  0  0
  145.5540   75.6234  220.7228 H   0  0  0  0  0  0  0  0  0  0  0  0
  147.0901   73.7208  220.8269 H   0  0  0  0  0  0  0  0  0  0  0  0
  146.2978   71.4122  220.3494 H   0  0  0  0  0  0  0  0  0  0  0  0
  142.3500   73.0027  219.6556 H   0  0  0  0  0  0  0  0  0  0  0  0
  139.1636   69.3394  222.7831 H   0  0  0  0  0  0  0  0  0  0  0  0
  139.0597   68.1464  224.9771 H   0  0  0  0  0  0  0  0  0  0  0  0
  139.5136   68.1257  227.2811 H   0  0  0  0  0  0  0  0  0  0  0  0
  140.4287   69.2301  229.3128 H   0  0  0  0  0  0  0  0  0  0  0  0
  141.4208   71.4705  229.1557 H   0  0  0  0  0  0  0  0  0  0  0  0
  141.5329   72.6647  226.9777 H   0  0  0  0  0  0  0  0  0  0  0  0
  1  2  2  0
  2  3  1  0
  3  4  1  0
  4  5  1  0
  5  6  2  0
  5  7  1  0
  7  8  1  0
  8  9  1  0
  9 10  1  0
 10 11  1  0
 11 12  1  0
 12 13  1  0
 13 14  2  0
 14 15  1  0
 15 16  2  0
 16 17  1  0
 17 18  1  0
 17 19  2  0
  2 20  1  0
 20 21  2  0
 21 22  1  0
 22 23  2  0
 23 24  1  0
 24 25  2  0
 25 26  1  0
 26 27  2  0
 27 28  1  0
 28 29  2  0
 12  7  1  0
 19 13  1  0
 29 20  1  0
 28 23  1  0
  3 30  1  0
  4 31  1  0
  4 32  1  0
  8 33  1  0
  8 34  1  0
  9 35  1  0
  9 36  1  0
 10 37  1  0
 10 38  1  0
 11 39  1  0
 11 40  1  0
 12 41  1  1
 14 42  1  0
 15 43  1  0
 16 44  1  0
 19 45  1  0
 21 46  1  0
 22 47  1  0
 24 48  1  0
 25 49  1  0
 26 50  1  0
 27 51  1  0
M  END
>  <smiles>  (24) 
O=C(NCC(=O)N1CCCCC1c1cccc(Br)c1)c1ccc2ccccc2n1

>  <score_type>  (24) 
oracle

>  <origin>  (24) 
autodockgpu

>  <m_score__min__energy>  (24) 
-10.01

>  <m_primary>  (24) 
energy

>  <rmsd>  (24) 
1.7435885394786472

>  <m_score__min__rmsd>  (24) 
1.7435885394786472

>  <meeko>  (24) 
{"free_energy": -9.02, "intermolecular_energy": -10.51, "internal_energy": -1.97, "cluster_size": 8, "cluster_id": 3, "rank_in_cluster": 4}

>  <energy>  (24) 
-9.34

>  <cluster_rmsd>  (24) 
0.17

>  <cluster>  (24) 
2

$$$$

     RDKit          3D

 51 54  0  0  0  0  0  0  0  0999 V2000
  141.1360   71.5720  221.4050 O   0  0  0  0  0  0  0  0  0  0  0  0
  140.5610   72.1420  222.3500 C   0  0  0  0  0  0  0  0  0  0  0  0
  140.1290   73.5010  222.2750 N   0  0  0  0  0  0  0  0  0  0  0  0
  140.3620   74.2540  221.0600 C   0  0  0  0  0  0  0  0  0  0  0  0
  140.7760   75.6490  221.3480 C   0  0  0  0  0  0  0  0  0  0  0  0
  140.4160   76.1600  222.4380 O   0  0  0  0  0  0  0  0  0  0  0  0
  141.5530   76.3150  220.3700 N   0  0  0  0  0  0  0  0  0  0  0  0
  142.9520   75.9500  220.0910 C   0  0  0  0  0  0  0  0  0  0  0  0
  142.9450   75.2240  218.7660 C   0  0  0  0  0  0  0  0  0  0  0  0
  142.0820   75.9550  217.8010 C   0  0  0  0  0  0  0  0  0  0  0  0
  141.7440   77.3750  218.1940 C   0  0  0  0  0  0  0  0  0  0  0  0
  141.0440   77.4100  219.5480 C   0  0  2  0  0  0  0  0  0  0  0  0
  141.3010   78.7460  220.1340 C   0  0  0  0  0  0  0  0  0  0  0  0
  141.1760   79.9250  219.4100 C   0  0  0  0  0  0  0  0  0  0  0  0
  141.4280   81.1670  219.9560 C   0  0  0  0  0  0  0  0  0  0  0  0
  141.8220   81.3000  221.2670 C   0  0  0  0  0  0  0  0  0  0  0  0
  141.9520   80.1500  222.0090 C   0  0  0  0  0  0  0  0  0  0  0  0
  142.5000   80.2910  223.8450 Br  0  0  0  0  0  0  0  0  0  0  0  0
  141.6980   78.8930  221.4550 C   0  0  0  0  0  0  0  0  0  0  0  0
  140.3070   71.4060  223.6030 C   0  0  0  0  0  0  0  0  0  0  0  0
  139.6340   70.2040  223.5720 C   0  0  0  0  0  0  0  0  0  0  0  0
  139.3750   69.4800  224.7290 C   0  0  0  0  0  0  0  0  0  0  0  0
  139.8230   70.0210  225.9170 C   0  0  0  0  0  0  0  0  0  0  0  0
  139.5650   69.2990  227.0780 C   0  0  0  0  0  0  0  0  0  0  0  0
  139.9960   69.8060  228.2850 C   0  0  0  0  0  0  0  0  0  0  0  0
  140.6630   70.9970  228.3300 C   0  0  0  0  0  0  0  0  0  0  0  0
  140.9230   71.7200  227.1700 C   0  0  0  0  0  0  0  0  0  0  0  0
  140.4980   71.2280  225.9520 C   0  0  0  0  0  0  0  0  0  0  0  0
  140.7150   71.8760  224.7880 N   0  0  0  0  0  0  0  0  0  0  0  0
  139.6430   73.9420  223.1060 H   0  0  0  0  0  0  0  0  0  0  0  0
  141.1557   73.7592  220.4810 H   0  0  0  0  0  0  0  0  0  0  0  0
  139.4206   74.2868  220.4919 H   0  0  0  0  0  0  0  0  0  0  0  0
  143.5758   76.8537  220.0268 H   0  0  0  0  0  0  0  0  0  0  0  0
  143.3674   75.3188  220.8904 H   0  0  0  0  0  0  0  0  0  0  0  0
  143.9708   75.1709  218.3723 H   0  0  0  0  0  0  0  0  0  0  0  0
  142.5522   74.2065  218.9092 H   0  0  0  0  0  0  0  0  0  0  0  0
  142.6021   75.9838  216.8321 H   0  0  0  0  0  0  0  0  0  0  0  0
  141.1272   75.4097  217.7685 H   0  0  0  0  0  0  0  0  0  0  0  0
  142.6715   77.9636  218.2522 H   0  0  0  0  0  0  0  0  0  0  0  0
  141.0683   77.7991  217.4367 H   0  0  0  0  0  0  0  0  0  0  0  0
  139.9562   77.2666  219.4701 H   0  0  0  0  0  0  0  0  0  0  0  0
  140.8630   79.8660  218.3571 H   0  0  0  0  0  0  0  0  0  0  0  0
  141.3118   82.0656  219.3323 H   0  0  0  0  0  0  0  0  0  0  0  0
  142.0253   82.2884  221.7049 H   0  0  0  0  0  0  0  0  0  0  0  0
  141.8158   77.9970  222.0822 H   0  0  0  0  0  0  0  0  0  0  0  0
  139.2925   69.8069  222.6047 H   0  0  0  0  0  0  0  0  0  0  0  0
  138.8380   68.5204  224.6996 H   0  0  0  0  0  0  0  0  0  0  0  0
  139.0267   68.3407  227.0334 H   0  0  0  0  0  0  0  0  0  0  0  0
  139.8023   69.2501  229.2142 H   0  0  0  0  0  0  0  0  0  0  0  0
  141.0004   71.3914  229.2999 H   0  0  0  0  0  0  0  0  0  0  0  0
  141.4633   72.6767  227.2229 H   0  0  0  0  0  0  0  0  0  0  0  0
  1  2  2  0
  2  3  1  0
  3  4  1  0
  4  5  1  0
  5  6  2  0
  5  7  1  0
  7  8  1  0
  8  9  1  0
  9 10  1  0
 10 11  1  0
 11 12  1  0
 12 13  1  0
 13 14  2  0
 14 15  1  0
 15 16  2  0
 16 17  1  0
 17 18  1  0
 17 19  2  0
  2 20  1  0
 20 21  2  0
 21 22  1  0
 22 23  2  0
 23 24  1  0
 24 25  2  0
 25 26  1  0
 26 27  2  0
 27 28  1  0
 28 29  2  0
 12  7  1  0
 19 13  1  0
 29 20  1  0
 28 23  1  0
  3 30  1  0
  4 31  1  0
  4 32  1  0
  8 33  1  0
  8 34  1  0
  9 35  1  0
  9 36  1  0
 10 37  1  0
 10 38  1  0
 11 39  1  0
 11 40  1  0
 12 41  1  6
 14 42  1  0
 15 43  1  0
 16 44  1  0
 19 45  1  0
 21 46  1  0
 22 47  1  0
 24 48  1  0
 25 49  1  0
 26 50  1  0
 27 51  1  0
M  END
>  <smiles>  (25) 
O=C(NCC(=O)N1CCCCC1c1cccc(Br)c1)c1ccc2ccccc2n1

>  <score_type>  (25) 
oracle

>  <origin>  (25) 
autodockgpu

>  <m_score__min__energy>  (25) 
-10.01

>  <m_primary>  (25) 
energy

>  <rmsd>  (25) 
2.2007678236743096

>  <m_score__min__rmsd>  (25) 
2.2007678236743096

>  <meeko>  (25) 
{"free_energy": -9.15, "intermolecular_energy": -10.64, "internal_energy": -1.75, "cluster_size": 20, "cluster_id": 2, "rank_in_cluster": 9}

>  <energy>  (25) 
-9.32

>  <cluster_rmsd>  (25) 
1.72

>  <cluster>  (25) 
2

$$$$

     RDKit          3D

 51 54  0  0  0  0  0  0  0  0999 V2000
  140.6400   71.4370  221.3290 O   0  0  0  0  0  0  0  0  0  0  0  0
  139.9100   71.8820  222.2340 C   0  0  0  0  0  0  0  0  0  0  0  0
  139.0240   72.9830  222.0290 N   0  0  0  0  0  0  0  0  0  0  0  0
  138.9630   73.6130  220.7270 C   0  0  0  0  0  0  0  0  0  0  0  0
  139.0520   75.0900  220.8260 C   0  0  0  0  0  0  0  0  0  0  0  0
  137.9890   75.7540  220.7440 O   0  0  0  0  0  0  0  0  0  0  0  0
  140.3370   75.6570  221.0070 N   0  0  0  0  0  0  0  0  0  0  0  0
  141.4590   74.8980  221.5840 C   0  0  0  0  0  0  0  0  0  0  0  0
  142.3900   74.5790  220.4370 C   0  0  0  0  0  0  0  0  0  0  0  0
  142.5690   75.7850  219.5890 C   0  0  0  0  0  0  0  0  0  0  0  0
  142.1370   77.0860  220.2270 C   0  0  0  0  0  0  0  0  0  0  0  0
  140.6690   77.0300  220.6340 C   0  0  2  0  0  0  0  0  0  0  0  0
  140.4910   77.9940  221.7450 C   0  0  0  0  0  0  0  0  0  0  0  0
  139.2740   78.1900  222.3860 C   0  0  0  0  0  0  0  0  0  0  0  0
  139.1090   79.0980  223.4120 C   0  0  0  0  0  0  0  0  0  0  0  0
  140.1600   79.8650  223.8580 C   0  0  0  0  0  0  0  0  0  0  0  0
  141.3760   79.6910  223.2420 C   0  0  0  0  0  0  0  0  0  0  0  0
  142.8710   80.7430  223.8340 Br  0  0  0  0  0  0  0  0  0  0  0  0
  141.5420   78.7730  222.2030 C   0  0  0  0  0  0  0  0  0  0  0  0
  139.9460   71.2640  223.5730 C   0  0  0  0  0  0  0  0  0  0  0  0
  139.4080   70.0110  223.7690 C   0  0  0  0  0  0  0  0  0  0  0  0
  139.4210   69.3950  225.0140 C   0  0  0  0  0  0  0  0  0  0  0  0
  139.9990   70.0980  226.0520 C   0  0  0  0  0  0  0  0  0  0  0  0
  140.0140   69.4850  227.3000 C   0  0  0  0  0  0  0  0  0  0  0  0
  140.5830   70.1540  228.3620 C   0  0  0  0  0  0  0  0  0  0  0  0
  141.1180   71.3980  228.1820 C   0  0  0  0  0  0  0  0  0  0  0  0
  141.1050   72.0130  226.9340 C   0  0  0  0  0  0  0  0  0  0  0  0
  140.5400   71.3570  225.8590 C   0  0  0  0  0  0  0  0  0  0  0  0
  140.4910   71.8930  224.6200 N   0  0  0  0  0  0  0  0  0  0  0  0
  138.4220   73.3250  222.8310 H   0  0  0  0  0  0  0  0  0  0  0  0
  139.7995   73.2460  220.1142 H   0  0  0  0  0  0  0  0  0  0  0  0
  137.9961   73.3584  220.2685 H   0  0  0  0  0  0  0  0  0  0  0  0
  141.9798   75.5039  222.3400 H   0  0  0  0  0  0  0  0  0  0  0  0
  141.1081   73.9814  222.0807 H   0  0  0  0  0  0  0  0  0  0  0  0
  143.3658   74.2633  220.8347 H   0  0  0  0  0  0  0  0  0  0  0  0
  141.9586   73.7681  219.8317 H   0  0  0  0  0  0  0  0  0  0  0  0
  143.6360   75.8677  219.3346 H   0  0  0  0  0  0  0  0  0  0  0  0
  141.9201   75.6428  218.7123 H   0  0  0  0  0  0  0  0  0  0  0  0
  142.7518   77.2709  221.1202 H   0  0  0  0  0  0  0  0  0  0  0  0
  142.2687   77.8972  219.4959 H   0  0  0  0  0  0  0  0  0  0  0  0
  139.9876   77.3094  219.8169 H   0  0  0  0  0  0  0  0  0  0  0  0
  138.4061   77.5968  222.0623 H   0  0  0  0  0  0  0  0  0  0  0  0
  138.1203   79.2103  223.8810 H   0  0  0  0  0  0  0  0  0  0  0  0
  140.0322   80.5894  224.6759 H   0  0  0  0  0  0  0  0  0  0  0  0
  142.5321   78.6653  221.7361 H   0  0  0  0  0  0  0  0  0  0  0  0
  138.9557   69.4838  222.9161 H   0  0  0  0  0  0  0  0  0  0  0  0
  138.9909   68.3940  225.1657 H   0  0  0  0  0  0  0  0  0  0  0  0
  139.5794   68.4838  227.4371 H   0  0  0  0  0  0  0  0  0  0  0  0
  140.6064   69.6852  229.3568 H   0  0  0  0  0  0  0  0  0  0  0  0
  141.5668   71.9225  229.0384 H   0  0  0  0  0  0  0  0  0  0  0  0
  141.5417   73.0144  226.8050 H   0  0  0  0  0  0  0  0  0  0  0  0
  1  2  2  0
  2  3  1  0
  3  4  1  0
  4  5  1  0
  5  6  2  0
  5  7  1  0
  7  8  1  0
  8  9  1  0
  9 10  1  0
 10 11  1  0
 11 12  1  0
 12 13  1  0
 13 14  2  0
 14 15  1  0
 15 16  2  0
 16 17  1  0
 17 18  1  0
 17 19  2  0
  2 20  1  0
 20 21  2  0
 21 22  1  0
 22 23  2  0
 23 24  1  0
 24 25  2  0
 25 26  1  0
 26 27  2  0
 27 28  1  0
 28 29  2  0
 12  7  1  0
 19 13  1  0
 29 20  1  0
 28 23  1  0
  3 30  1  0
  4 31  1  0
  4 32  1  0
  8 33  1  0
  8 34  1  0
  9 35  1  0
  9 36  1  0
 10 37  1  0
 10 38  1  0
 11 39  1  0
 11 40  1  0
 12 41  1  6
 14 42  1  0
 15 43  1  0
 16 44  1  0
 19 45  1  0
 21 46  1  0
 22 47  1  0
 24 48  1  0
 25 49  1  0
 26 50  1  0
 27 51  1  0
M  END
>  <smiles>  (26) 
O=C(NCC(=O)N1CCCCC1c1cccc(Br)c1)c1ccc2ccccc2n1

>  <score_type>  (26) 
oracle

>  <origin>  (26) 
autodockgpu

>  <m_score__min__energy>  (26) 
-10.01

>  <m_primary>  (26) 
energy

>  <rmsd>  (26) 
2.2147604355208372

>  <m_score__min__rmsd>  (26) 
2.2147604355208372

>  <meeko>  (26) 
{"free_energy": -9.34, "intermolecular_energy": -10.83, "internal_energy": -1.59, "cluster_size": 20, "cluster_id": 2, "rank_in_cluster": 1}

>  <energy>  (26) 
-9.28

>  <cluster_rmsd>  (26) 
0.19

>  <cluster>  (26) 
2

$$$$

     RDKit          3D

 51 54  0  0  0  0  0  0  0  0999 V2000
  139.7040   70.7210  221.5090 O   0  0  0  0  0  0  0  0  0  0  0  0
  139.6520   71.5240  222.4590 C   0  0  0  0  0  0  0  0  0  0  0  0
  139.2730   72.8890  222.2850 N   0  0  0  0  0  0  0  0  0  0  0  0
  138.9340   73.3700  220.9620 C   0  0  0  0  0  0  0  0  0  0  0  0
  139.0500   74.8460  220.8660 C   0  0  0  0  0  0  0  0  0  0  0  0
  138.0050   75.5100  220.6580 O   0  0  0  0  0  0  0  0  0  0  0  0
  140.3400   75.4100  221.0170 N   0  0  0  0  0  0  0  0  0  0  0  0
  141.4710   74.6540  221.5800 C   0  0  0  0  0  0  0  0  0  0  0  0
  142.3790   74.3220  220.4190 C   0  0  0  0  0  0  0  0  0  0  0  0
  142.5450   75.5200  219.5560 C   0  0  0  0  0  0  0  0  0  0  0  0
  142.1290   76.8280  220.1910 C   0  0  0  0  0  0  0  0  0  0  0  0
  140.6690   76.7790  220.6270 C   0  0  2  0  0  0  0  0  0  0  0  0
  140.5130   77.7540  221.7310 C   0  0  0  0  0  0  0  0  0  0  0  0
  139.3170   77.9400  222.4110 C   0  0  0  0  0  0  0  0  0  0  0  0
  139.1730   78.8570  223.4320 C   0  0  0  0  0  0  0  0  0  0  0  0
  140.2270   79.6450  223.8330 C   0  0  0  0  0  0  0  0  0  0  0  0
  141.4240   79.4810  223.1790 C   0  0  0  0  0  0  0  0  0  0  0  0
  142.9230   80.5610  223.7070 Br  0  0  0  0  0  0  0  0  0  0  0  0
  141.5680   78.5530  222.1450 C   0  0  0  0  0  0  0  0  0  0  0  0
  139.9910   71.0690  223.8210 C   0  0  0  0  0  0  0  0  0  0  0  0
  140.7080   71.8890  224.6630 C   0  0  0  0  0  0  0  0  0  0  0  0
  141.0470   71.4980  225.9520 C   0  0  0  0  0  0  0  0  0  0  0  0
  140.6330   70.2450  226.3530 C   0  0  0  0  0  0  0  0  0  0  0  0
  140.9710   69.8500  227.6440 C   0  0  0  0  0  0  0  0  0  0  0  0
  140.5750   68.6050  228.0820 C   0  0  0  0  0  0  0  0  0  0  0  0
  139.8640   67.7810  227.2570 C   0  0  0  0  0  0  0  0  0  0  0  0
  139.5250   68.1740  225.9660 C   0  0  0  0  0  0  0  0  0  0  0  0
  139.9130   69.4180  225.5100 C   0  0  0  0  0  0  0  0  0  0  0  0
  139.6180   69.8650  224.2700 N   0  0  0  0  0  0  0  0  0  0  0  0
  139.2430   73.5340  223.1250 H   0  0  0  0  0  0  0  0  0  0  0  0
  139.6156   72.9110  220.2308 H   0  0  0  0  0  0  0  0  0  0  0  0
  137.8892   73.0950  220.7555 H   0  0  0  0  0  0  0  0  0  0  0  0
  142.0074   75.2659  222.3202 H   0  0  0  0  0  0  0  0  0  0  0  0
  141.1276   73.7431  222.0922 H   0  0  0  0  0  0  0  0  0  0  0  0
  143.3613   74.0074  220.8012 H   0  0  0  0  0  0  0  0  0  0  0  0
  141.9342   73.5067  219.8296 H   0  0  0  0  0  0  0  0  0  0  0  0
  143.6070   75.5972  219.2801 H   0  0  0  0  0  0  0  0  0  0  0  0
  141.8791   75.3718  218.6931 H   0  0  0  0  0  0  0  0  0  0  0  0
  142.7616   77.0190  221.0704 H   0  0  0  0  0  0  0  0  0  0  0  0
  142.2486   77.6327  219.4506 H   0  0  0  0  0  0  0  0  0  0  0  0
  139.9727   77.0528  219.8206 H   0  0  0  0  0  0  0  0  0  0  0  0
  138.4474   77.3306  222.1237 H   0  0  0  0  0  0  0  0  0  0  0  0
  138.1994   78.9596  223.9336 H   0  0  0  0  0  0  0  0  0  0  0  0
  140.1157   80.3779  224.6457 H   0  0  0  0  0  0  0  0  0  0  0  0
  142.5434   78.4535  221.6463 H   0  0  0  0  0  0  0  0  0  0  0  0
  141.0210   72.8810  224.3051 H   0  0  0  0  0  0  0  0  0  0  0  0
  141.6190   72.1570  226.6218 H   0  0  0  0  0  0  0  0  0  0  0  0
  141.5438   70.5194  228.3026 H   0  0  0  0  0  0  0  0  0  0  0  0
  140.8323   68.2739  229.0990 H   0  0  0  0  0  0  0  0  0  0  0  0
  139.5540   66.7897  227.6193 H   0  0  0  0  0  0  0  0  0  0  0  0
  138.9521   67.4986  225.3136 H   0  0  0  0  0  0  0  0  0  0  0  0
  1  2  2  0
  2  3  1  0
  3  4  1  0
  4  5  1  0
  5  6  2  0
  5  7  1  0
  7  8  1  0
  8  9  1  0
  9 10  1  0
 10 11  1  0
 11 12  1  0
 12 13  1  0
 13 14  2  0
 14 15  1  0
 15 16  2  0
 16 17  1  0
 17 18  1  0
 17 19  2  0
  2 20  1  0
 20 21  2  0
 21 22  1  0
 22 23  2  0
 23 24  1  0
 24 25  2  0
 25 26  1  0
 26 27  2  0
 27 28  1  0
 28 29  2  0
 12  7  1  0
 19 13  1  0
 29 20  1  0
 28 23  1  0
  3 30  1  0
  4 31  1  0
  4 32  1  0
  8 33  1  0
  8 34  1  0
  9 35  1  0
  9 36  1  0
 10 37  1  0
 10 38  1  0
 11 39  1  0
 11 40  1  0
 12 41  1  6
 14 42  1  0
 15 43  1  0
 16 44  1  0
 19 45  1  0
 21 46  1  0
 22 47  1  0
 24 48  1  0
 25 49  1  0
 26 50  1  0
 27 51  1  0
M  END
>  <smiles>  (27) 
O=C(NCC(=O)N1CCCCC1c1cccc(Br)c1)c1ccc2ccccc2n1

>  <score_type>  (27) 
oracle

>  <origin>  (27) 
autodockgpu

>  <m_score__min__energy>  (27) 
-10.01

>  <m_primary>  (27) 
energy

>  <rmsd>  (27) 
3.047829952654312

>  <m_score__min__rmsd>  (27) 
3.047829952654312

>  <meeko>  (27) 
{"free_energy": -9.16, "intermolecular_energy": -10.65, "internal_energy": -1.44, "cluster_size": 20, "cluster_id": 2, "rank_in_cluster": 8}

>  <energy>  (27) 
-9.23

>  <cluster_rmsd>  (27) 
1.05

>  <cluster>  (27) 
2

$$$$

     RDKit          3D

 51 54  0  0  0  0  0  0  0  0999 V2000
  141.1390   72.1890  221.9510 O   0  0  0  0  0  0  0  0  0  0  0  0
  140.1270   72.1340  222.6740 C   0  0  0  0  0  0  0  0  0  0  0  0
  138.9840   72.9600  222.4540 N   0  0  0  0  0  0  0  0  0  0  0  0
  138.9890   73.9000  221.3520 C   0  0  0  0  0  0  0  0  0  0  0  0
  139.3850   75.2610  221.7920 C   0  0  0  0  0  0  0  0  0  0  0  0
  138.6590   75.8460  222.6330 O   0  0  0  0  0  0  0  0  0  0  0  0
  140.5630   75.8110  221.2310 N   0  0  0  0  0  0  0  0  0  0  0  0
  141.8400   75.0780  221.2000 C   0  0  0  0  0  0  0  0  0  0  0  0
  142.0450   74.6450  219.7680 C   0  0  0  0  0  0  0  0  0  0  0  0
  141.7280   75.7730  218.8540 C   0  0  0  0  0  0  0  0  0  0  0  0
  141.6600   77.1320  219.5150 C   0  0  0  0  0  0  0  0  0  0  0  0
  140.6200   77.1410  220.6300 C   0  0  2  0  0  0  0  0  0  0  0  0
  141.0220   78.1970  221.5880 C   0  0  0  0  0  0  0  0  0  0  0  0
  141.4380   77.9220  222.8840 C   0  0  0  0  0  0  0  0  0  0  0  0
  141.8000   78.9100  223.7770 C   0  0  0  0  0  0  0  0  0  0  0  0
  141.7670   80.2380  223.4200 C   0  0  0  0  0  0  0  0  0  0  0  0
  141.3610   80.5400  222.1420 C   0  0  0  0  0  0  0  0  0  0  0  0
  141.3000   82.3820  221.6020 Br  0  0  0  0  0  0  0  0  0  0  0  0
  140.9930   79.5390  221.2390 C   0  0  0  0  0  0  0  0  0  0  0  0
  140.0870   71.1870  223.8050 C   0  0  0  0  0  0  0  0  0  0  0  0
  139.5170   69.9440  223.6440 C   0  0  0  0  0  0  0  0  0  0  0  0
  139.4580   69.0240  224.6830 C   0  0  0  0  0  0  0  0  0  0  0  0
  139.9980   69.4140  225.8920 C   0  0  0  0  0  0  0  0  0  0  0  0
  139.9420   68.4960  226.9360 C   0  0  0  0  0  0  0  0  0  0  0  0
  140.4710   68.8470  228.1580 C   0  0  0  0  0  0  0  0  0  0  0  0
  141.0380   70.0780  228.3330 C   0  0  0  0  0  0  0  0  0  0  0  0
  141.0960   70.9970  227.2900 C   0  0  0  0  0  0  0  0  0  0  0  0
  140.5710   70.6620  226.0580 C   0  0  0  0  0  0  0  0  0  0  0  0
  140.5930   71.5040  225.0030 N   0  0  0  0  0  0  0  0  0  0  0  0
  138.1460   72.8760  223.0960 H   0  0  0  0  0  0  0  0  0  0  0  0
  139.7006   73.5510  220.5892 H   0  0  0  0  0  0  0  0  0  0  0  0
  137.9689   73.9552  220.9443 H   0  0  0  0  0  0  0  0  0  0  0  0
  142.6631   75.7331  221.5215 H   0  0  0  0  0  0  0  0  0  0  0  0
  141.8218   74.2139  221.8804 H   0  0  0  0  0  0  0  0  0  0  0  0
  143.0923   74.3410  219.6242 H   0  0  0  0  0  0  0  0  0  0  0  0
  141.3806   73.7972  219.5448 H   0  0  0  0  0  0  0  0  0  0  0  0
  142.5048   75.8104  218.0761 H   0  0  0  0  0  0  0  0  0  0  0  0
  140.7216   75.5735  218.4572 H   0  0  0  0  0  0  0  0  0  0  0  0
  142.6452   77.3764  219.9389 H   0  0  0  0  0  0  0  0  0  0  0  0
  141.3725   77.8775  218.7590 H   0  0  0  0  0  0  0  0  0  0  0  0
  139.6062   77.3668  220.2676 H   0  0  0  0  0  0  0  0  0  0  0  0
  141.4808   76.8731  223.2125 H   0  0  0  0  0  0  0  0  0  0  0  0
  142.1204   78.6307  224.7916 H   0  0  0  0  0  0  0  0  0  0  0  0
  142.0544   81.0277  224.1298 H   0  0  0  0  0  0  0  0  0  0  0  0
  140.6722   79.8226  220.2258 H   0  0  0  0  0  0  0  0  0  0  0  0
  139.0964   69.6718  222.6647 H   0  0  0  0  0  0  0  0  0  0  0  0
  139.0026   68.0318  224.5487 H   0  0  0  0  0  0  0  0  0  0  0  0
  139.4832   67.5073  226.7879 H   0  0  0  0  0  0  0  0  0  0  0  0
  140.4371   68.1346  228.9955 H   0  0  0  0  0  0  0  0  0  0  0  0
  141.4554   70.3467  229.3146 H   0  0  0  0  0  0  0  0  0  0  0  0
  141.5569   71.9835  227.4460 H   0  0  0  0  0  0  0  0  0  0  0  0
  1  2  2  0
  2  3  1  0
  3  4  1  0
  4  5  1  0
  5  6  2  0
  5  7  1  0
  7  8  1  0
  8  9  1  0
  9 10  1  0
 10 11  1  0
 11 12  1  0
 12 13  1  0
 13 14  2  0
 14 15  1  0
 15 16  2  0
 16 17  1  0
 17 18  1  0
 17 19  2  0
  2 20  1  0
 20 21  2  0
 21 22  1  0
 22 23  2  0
 23 24  1  0
 24 25  2  0
 25 26  1  0
 26 27  2  0
 27 28  1  0
 28 29  2  0
 12  7  1  0
 19 13  1  0
 29 20  1  0
 28 23  1  0
  3 30  1  0
  4 31  1  0
  4 32  1  0
  8 33  1  0
  8 34  1  0
  9 35  1  0
  9 36  1  0
 10 37  1  0
 10 38  1  0
 11 39  1  0
 11 40  1  0
 12 41  1  6
 14 42  1  0
 15 43  1  0
 16 44  1  0
 19 45  1  0
 21 46  1  0
 22 47  1  0
 24 48  1  0
 25 49  1  0
 26 50  1  0
 27 51  1  0
M  END
>  <smiles>  (28) 
O=C(NCC(=O)N1CCCCC1c1cccc(Br)c1)c1ccc2ccccc2n1

>  <score_type>  (28) 
oracle

>  <origin>  (28) 
autodockgpu

>  <m_score__min__energy>  (28) 
-10.01

>  <m_primary>  (28) 
energy

>  <rmsd>  (28) 
2.0009558265500385

>  <m_score__min__rmsd>  (28) 
2.0009558265500385

>  <meeko>  (28) 
{"free_energy": -9.23, "intermolecular_energy": -10.72, "internal_energy": -1.53, "cluster_size": 20, "cluster_id": 2, "rank_in_cluster": 5}

>  <energy>  (28) 
-9.17

>  <cluster_rmsd>  (28) 
0.95

>  <cluster>  (28) 
2

$$$$

     RDKit          3D

 51 54  0  0  0  0  0  0  0  0999 V2000
  141.8450   72.9880  221.0810 O   0  0  0  0  0  0  0  0  0  0  0  0
  141.0060   73.7540  221.5900 C   0  0  0  0  0  0  0  0  0  0  0  0
  139.8770   73.2740  222.3190 N   0  0  0  0  0  0  0  0  0  0  0  0
  139.6900   71.8470  222.4810 C   0  0  0  0  0  0  0  0  0  0  0  0
  138.3180   71.5210  222.9430 C   0  0  0  0  0  0  0  0  0  0  0  0
  137.4600   72.4380  222.9440 O   0  0  0  0  0  0  0  0  0  0  0  0
  138.0670   70.1890  223.3540 N   0  0  0  0  0  0  0  0  0  0  0  0
  136.7050   69.6740  223.5710 C   0  0  0  0  0  0  0  0  0  0  0  0
  136.4040   68.7640  222.4040 C   0  0  0  0  0  0  0  0  0  0  0  0
  137.5760   67.8900  222.1370 C   0  0  0  0  0  0  0  0  0  0  0  0
  138.5900   67.8210  223.2570 C   0  0  0  0  0  0  0  0  0  0  0  0
  139.1240   69.2090  223.5910 C   0  0  2  0  0  0  0  0  0  0  0  0
  139.5770   69.1710  225.0010 C   0  0  0  0  0  0  0  0  0  0  0  0
  139.5730   68.0100  225.7640 C   0  0  0  0  0  0  0  0  0  0  0  0
  139.9850   67.9810  227.0810 C   0  0  0  0  0  0  0  0  0  0  0  0
  140.4290   69.1200  227.7120 C   0  0  0  0  0  0  0  0  0  0  0  0
  140.4450   70.2830  226.9800 C   0  0  0  0  0  0  0  0  0  0  0  0
  141.0580   71.8970  227.8230 Br  0  0  0  0  0  0  0  0  0  0  0  0
  140.0270   70.3120  225.6480 C   0  0  0  0  0  0  0  0  0  0  0  0
  141.1650   75.2140  221.4460 C   0  0  0  0  0  0  0  0  0  0  0  0
  141.9180   75.7260  220.4130 C   0  0  0  0  0  0  0  0  0  0  0  0
  142.0930   77.0940  220.2420 C   0  0  0  0  0  0  0  0  0  0  0  0
  141.4750   77.9210  221.1590 C   0  0  0  0  0  0  0  0  0  0  0  0
  141.6470   79.2910  220.9910 C   0  0  0  0  0  0  0  0  0  0  0  0
  141.0470   80.1500  221.8860 C   0  0  0  0  0  0  0  0  0  0  0  0
  140.2980   79.6550  222.9150 C   0  0  0  0  0  0  0  0  0  0  0  0
  140.1240   78.2850  223.0840 C   0  0  0  0  0  0  0  0  0  0  0  0
  140.7180   77.4100  222.1980 C   0  0  0  0  0  0  0  0  0  0  0  0
  140.5920   76.0690  222.3010 N   0  0  0  0  0  0  0  0  0  0  0  0
  139.1900   73.9660  222.7350 H   0  0  0  0  0  0  0  0  0  0  0  0
  139.8674   71.3525  221.5146 H   0  0  0  0  0  0  0  0  0  0  0  0
  140.4008   71.4928  223.2421 H   0  0  0  0  0  0  0  0  0  0  0  0
  136.6567   69.1113  224.5149 H   0  0  0  0  0  0  0  0  0  0  0  0
  135.9741   70.4933  223.6375 H   0  0  0  0  0  0  0  0  0  0  0  0
  135.5294   68.1407  222.6421 H   0  0  0  0  0  0  0  0  0  0  0  0
  136.1916   69.3721  221.5123 H   0  0  0  0  0  0  0  0  0  0  0  0
  137.2061   66.8714  221.9483 H   0  0  0  0  0  0  0  0  0  0  0  0
  138.0988   68.3313  221.2756 H   0  0  0  0  0  0  0  0  0  0  0  0
  138.1114   67.3942  224.1508 H   0  0  0  0  0  0  0  0  0  0  0  0
  139.4300   67.1889  222.9332 H   0  0  0  0  0  0  0  0  0  0  0  0
  139.9750   69.5030  222.9591 H   0  0  0  0  0  0  0  0  0  0  0  0
  139.2271   67.0750  225.2992 H   0  0  0  0  0  0  0  0  0  0  0  0
  139.9579   67.0313  227.6353 H   0  0  0  0  0  0  0  0  0  0  0  0
  140.7583   69.1006  228.7614 H   0  0  0  0  0  0  0  0  0  0  0  0
  140.0554   71.2642  225.0979 H   0  0  0  0  0  0  0  0  0  0  0  0
  142.3941   75.0331  219.7036 H   0  0  0  0  0  0  0  0  0  0  0  0
  142.6953   77.4988  219.4153 H   0  0  0  0  0  0  0  0  0  0  0  0
  142.2510   79.6817  220.1588 H   0  0  0  0  0  0  0  0  0  0  0  0
  141.1716   81.2369  221.7713 H   0  0  0  0  0  0  0  0  0  0  0  0
  139.8241   80.3514  223.6224 H   0  0  0  0  0  0  0  0  0  0  0  0
  139.5173   77.9023  223.9179 H   0  0  0  0  0  0  0  0  0  0  0  0
  1  2  2  0
  2  3  1  0
  3  4  1  0
  4  5  1  0
  5  6  2  0
  5  7  1  0
  7  8  1  0
  8  9  1  0
  9 10  1  0
 10 11  1  0
 11 12  1  0
 12 13  1  0
 13 14  2  0
 14 15  1  0
 15 16  2  0
 16 17  1  0
 17 18  1  0
 17 19  2  0
  2 20  1  0
 20 21  2  0
 21 22  1  0
 22 23  2  0
 23 24  1  0
 24 25  2  0
 25 26  1  0
 26 27  2  0
 27 28  1  0
 28 29  2  0
 12  7  1  0
 19 13  1  0
 29 20  1  0
 28 23  1  0
  3 30  1  0
  4 31  1  0
  4 32  1  0
  8 33  1  0
  8 34  1  0
  9 35  1  0
  9 36  1  0
 10 37  1  0
 10 38  1  0
 11 39  1  0
 11 40  1  0
 12 41  1  6
 14 42  1  0
 15 43  1  0
 16 44  1  0
 19 45  1  0
 21 46  1  0
 22 47  1  0
 24 48  1  0
 25 49  1  0
 26 50  1  0
 27 51  1  0
M  END
>  <smiles>  (29) 
O=C(NCC(=O)N1CCCCC1c1cccc(Br)c1)c1ccc2ccccc2n1

>  <score_type>  (29) 
oracle

>  <origin>  (29) 
autodockgpu

>  <m_score__min__energy>  (29) 
-10.01

>  <m_primary>  (29) 
energy

>  <rmsd>  (29) 
8.421967285725481

>  <m_score__min__rmsd>  (29) 
8.421967285725481

>  <meeko>  (29) 
{"free_energy": -8.87, "intermolecular_energy": -10.36, "internal_energy": -2.06, "cluster_size": 22, "cluster_id": 1, "rank_in_cluster": 18}

>  <energy>  (29) 
-9.16

>  <cluster_rmsd>  (29) 
1.49

>  <cluster>  (29) 
2

$$$$

     RDKit          3D

 51 54  0  0  0  0  0  0  0  0999 V2000
  140.3040   71.4120  221.2730 O   0  0  0  0  0  0  0  0  0  0  0  0
  140.0460   72.0300  222.3220 C   0  0  0  0  0  0  0  0  0  0  0  0
  139.8020   73.4370  222.3400 N   0  0  0  0  0  0  0  0  0  0  0  0
  139.8520   74.1820  221.0990 C   0  0  0  0  0  0  0  0  0  0  0  0
  141.2420   74.3220  220.5980 C   0  0  0  0  0  0  0  0  0  0  0  0
  141.9510   73.2880  220.5210 O   0  0  0  0  0  0  0  0  0  0  0  0
  141.6780   75.6200  220.2380 N   0  0  0  0  0  0  0  0  0  0  0  0
  143.1010   75.9510  220.0520 C   0  0  0  0  0  0  0  0  0  0  0  0
  143.3130   76.0890  218.5630 C   0  0  0  0  0  0  0  0  0  0  0  0
  142.2050   76.8830  217.9710 C   0  0  0  0  0  0  0  0  0  0  0  0
  141.3780   77.6660  218.9660 C   0  0  0  0  0  0  0  0  0  0  0  0
  140.7670   76.7400  220.0120 C   0  0  2  0  0  0  0  0  0  0  0  0
  140.5320   77.5540  221.2260 C   0  0  0  0  0  0  0  0  0  0  0  0
  139.3580   77.4840  221.9670 C   0  0  0  0  0  0  0  0  0  0  0  0
  139.1390   78.2530  223.0910 C   0  0  0  0  0  0  0  0  0  0  0  0
  140.0870   79.1410  223.5420 C   0  0  0  0  0  0  0  0  0  0  0  0
  141.2590   79.2300  222.8300 C   0  0  0  0  0  0  0  0  0  0  0  0
  142.6120   80.4580  223.4240 Br  0  0  0  0  0  0  0  0  0  0  0  0
  141.4810   78.4520  221.6910 C   0  0  0  0  0  0  0  0  0  0  0  0
  139.9860   71.3030  223.6050 C   0  0  0  0  0  0  0  0  0  0  0  0
  139.4900   70.0190  223.6460 C   0  0  0  0  0  0  0  0  0  0  0  0
  139.4160   69.3010  224.8330 C   0  0  0  0  0  0  0  0  0  0  0  0
  139.8640   69.9340  225.9750 C   0  0  0  0  0  0  0  0  0  0  0  0
  139.7920   69.2180  227.1650 C   0  0  0  0  0  0  0  0  0  0  0  0
  140.2300   69.8160  228.3270 C   0  0  0  0  0  0  0  0  0  0  0  0
  140.7230   71.0890  228.3000 C   0  0  0  0  0  0  0  0  0  0  0  0
  140.7970   71.8070  227.1100 C   0  0  0  0  0  0  0  0  0  0  0  0
  140.3630   71.2240  225.9360 C   0  0  0  0  0  0  0  0  0  0  0  0
  140.4050   71.8610  224.7470 N   0  0  0  0  0  0  0  0  0  0  0  0
  139.5860   73.9190  223.2580 H   0  0  0  0  0  0  0  0  0  0  0  0
  139.2519   73.6551  220.3425 H   0  0  0  0  0  0  0  0  0  0  0  0
  139.4526   75.1894  221.2877 H   0  0  0  0  0  0  0  0  0  0  0  0
  143.3417   76.8964  220.5602 H   0  0  0  0  0  0  0  0  0  0  0  0
  143.7515   75.1729  220.4780 H   0  0  0  0  0  0  0  0  0  0  0  0
  144.2693   76.5992  218.3755 H   0  0  0  0  0  0  0  0  0  0  0  0
  143.3313   75.0898  218.1034 H   0  0  0  0  0  0  0  0  0  0  0  0
  142.6402   77.5946  217.2539 H   0  0  0  0  0  0  0  0  0  0  0  0
  141.5212   76.1578  217.5057 H   0  0  0  0  0  0  0  0  0  0  0  0
  142.0217   78.4028  219.4689 H   0  0  0  0  0  0  0  0  0  0  0  0
  140.5644   78.1725  218.4261 H   0  0  0  0  0  0  0  0  0  0  0  0
  139.8078   76.3069  219.6920 H   0  0  0  0  0  0  0  0  0  0  0  0
  138.5712   76.7866  221.6437 H   0  0  0  0  0  0  0  0  0  0  0  0
  138.1889   78.1541  223.6364 H   0  0  0  0  0  0  0  0  0  0  0  0
  139.9141   79.7560  224.4375 H   0  0  0  0  0  0  0  0  0  0  0  0
  142.4328   78.5543  221.1492 H   0  0  0  0  0  0  0  0  0  0  0  0
  139.1431   69.5492  222.7138 H   0  0  0  0  0  0  0  0  0  0  0  0
  139.0188   68.2756  224.8615 H   0  0  0  0  0  0  0  0  0  0  0  0
  139.3928   68.1931  227.1786 H   0  0  0  0  0  0  0  0  0  0  0  0
  140.1822   69.2663  229.2786 H   0  0  0  0  0  0  0  0  0  0  0  0
  141.0676   71.5551  229.2349 H   0  0  0  0  0  0  0  0  0  0  0  0
  141.1982   72.8312  227.1048 H   0  0  0  0  0  0  0  0  0  0  0  0
  1  2  2  0
  2  3  1  0
  3  4  1  0
  4  5  1  0
  5  6  2  0
  5  7  1  0
  7  8  1  0
  8  9  1  0
  9 10  1  0
 10 11  1  0
 11 12  1  0
 12 13  1  0
 13 14  2  0
 14 15  1  0
 15 16  2  0
 16 17  1  0
 17 18  1  0
 17 19  2  0
  2 20  1  0
 20 21  2  0
 21 22  1  0
 22 23  2  0
 23 24  1  0
 24 25  2  0
 25 26  1  0
 26 27  2  0
 27 28  1  0
 28 29  2  0
 12  7  1  0
 19 13  1  0
 29 20  1  0
 28 23  1  0
  3 30  1  0
  4 31  1  0
  4 32  1  0
  8 33  1  0
  8 34  1  0
  9 35  1  0
  9 36  1  0
 10 37  1  0
 10 38  1  0
 11 39  1  0
 11 40  1  0
 12 41  1  6
 14 42  1  0
 15 43  1  0
 16 44  1  0
 19 45  1  0
 21 46  1  0
 22 47  1  0
 24 48  1  0
 25 49  1  0
 26 50  1  0
 27 51  1  0
M  END
>  <smiles>  (30) 
O=C(NCC(=O)N1CCCCC1c1cccc(Br)c1)c1ccc2ccccc2n1

>  <score_type>  (30) 
oracle

>  <origin>  (30) 
autodockgpu

>  <m_score__min__energy>  (30) 
-10.01

>  <m_primary>  (30) 
energy

>  <rmsd>  (30) 
2.1604821019447646

>  <m_score__min__rmsd>  (30) 
2.1604821019447646

>  <meeko>  (30) 
{"free_energy": -9.17, "intermolecular_energy": -10.66, "internal_energy": -1.51, "cluster_size": 20, "cluster_id": 2, "rank_in_cluster": 6}

>  <energy>  (30) 
-9.16

>  <cluster_rmsd>  (30) 
0.81

>  <cluster>  (30) 
2

$$$$

     RDKit          3D

 51 54  0  0  0  0  0  0  0  0999 V2000
  140.2660   71.1690  221.2720 O   0  0  0  0  0  0  0  0  0  0  0  0
  140.0330   71.8020  222.3180 C   0  0  0  0  0  0  0  0  0  0  0  0
  139.7470   73.2010  222.3170 N   0  0  0  0  0  0  0  0  0  0  0  0
  139.7230   73.9200  221.0610 C   0  0  0  0  0  0  0  0  0  0  0  0
  140.6670   75.0650  221.0650 C   0  0  0  0  0  0  0  0  0  0  0  0
  140.6510   75.8420  222.0510 O   0  0  0  0  0  0  0  0  0  0  0  0
  141.5270   75.2060  219.9490 N   0  0  0  0  0  0  0  0  0  0  0  0
  141.0770   74.9590  218.5690 C   0  0  0  0  0  0  0  0  0  0  0  0
  140.9470   76.3150  217.9160 C   0  0  0  0  0  0  0  0  0  0  0  0
  142.1320   77.1470  218.2540 C   0  0  0  0  0  0  0  0  0  0  0  0
  143.3150   76.3820  218.8030 C   0  0  0  0  0  0  0  0  0  0  0  0
  142.9260   75.6120  220.0600 C   0  0  2  0  0  0  0  0  0  0  0  0
  143.8590   74.4660  220.1710 C   0  0  0  0  0  0  0  0  0  0  0  0
  145.1950   74.6110  220.5240 C   0  0  0  0  0  0  0  0  0  0  0  0
  146.0630   73.5430  220.6150 C   0  0  0  0  0  0  0  0  0  0  0  0
  145.6400   72.2600  220.3570 C   0  0  0  0  0  0  0  0  0  0  0  0
  144.3230   72.0860  220.0070 C   0  0  0  0  0  0  0  0  0  0  0  0
  143.6900   70.3100  219.6380 Br  0  0  0  0  0  0  0  0  0  0  0  0
  143.4450   73.1680  219.9130 C   0  0  0  0  0  0  0  0  0  0  0  0
  140.0480   71.1010  223.6160 C   0  0  0  0  0  0  0  0  0  0  0  0
  139.5740   69.8110  223.7090 C   0  0  0  0  0  0  0  0  0  0  0  0
  139.5710   69.1170  224.9120 C   0  0  0  0  0  0  0  0  0  0  0  0
  140.0650   69.7810  226.0170 C   0  0  0  0  0  0  0  0  0  0  0  0
  140.0640   69.0890  227.2240 C   0  0  0  0  0  0  0  0  0  0  0  0
  140.5500   69.7170  228.3500 C   0  0  0  0  0  0  0  0  0  0  0  0
  141.0210   70.9960  228.2720 C   0  0  0  0  0  0  0  0  0  0  0  0
  141.0240   71.6900  227.0660 C   0  0  0  0  0  0  0  0  0  0  0  0
  140.5420   71.0760  225.9270 C   0  0  0  0  0  0  0  0  0  0  0  0
  140.5140   71.6890  224.7240 N   0  0  0  0  0  0  0  0  0  0  0  0
  139.5540   73.6950  223.2340 H   0  0  0  0  0  0  0  0  0  0  0  0
  140.0023   73.2308  220.2505 H   0  0  0  0  0  0  0  0  0  0  0  0
  138.7070   74.3142  220.9113 H   0  0  0  0  0  0  0  0  0  0  0  0
  141.8159   74.3467  218.0313 H   0  0  0  0  0  0  0  0  0  0  0  0
  140.1218   74.4138  218.5516 H   0  0  0  0  0  0  0  0  0  0  0  0
  140.8857   76.1914  216.8247 H   0  0  0  0  0  0  0  0  0  0  0  0
  140.0360   76.8110  218.2822 H   0  0  0  0  0  0  0  0  0  0  0  0
  142.4560   77.6664  217.3401 H   0  0  0  0  0  0  0  0  0  0  0  0
  141.8098   77.8299  219.0539 H   0  0  0  0  0  0  0  0  0  0  0  0
  143.6707   75.6727  218.0412 H   0  0  0  0  0  0  0  0  0  0  0  0
  144.1093   77.0982  219.0600 H   0  0  0  0  0  0  0  0  0  0  0  0
  143.0067   76.2173  220.9749 H   0  0  0  0  0  0  0  0  0  0  0  0
  145.5765   75.6199  220.7399 H   0  0  0  0  0  0  0  0  0  0  0  0
  147.1109   73.7203  220.8986 H   0  0  0  0  0  0  0  0  0  0  0  0
  146.3297   71.4060  220.4281 H   0  0  0  0  0  0  0  0  0  0  0  0
  142.3985   72.9859  219.6270 H   0  0  0  0  0  0  0  0  0  0  0  0
  139.1872   69.3169  222.8055 H   0  0  0  0  0  0  0  0  0  0  0  0
  139.1927   68.0864  224.9812 H   0  0  0  0  0  0  0  0  0  0  0  0
  139.6820   68.0589  227.2784 H   0  0  0  0  0  0  0  0  0  0  0  0
  140.5585   69.1868  229.3137 H   0  0  0  0  0  0  0  0  0  0  0  0
  141.4049   71.4866  229.1786 H   0  0  0  0  0  0  0  0  0  0  0  0
  141.4075   72.7200  227.0203 H   0  0  0  0  0  0  0  0  0  0  0  0
  1  2  2  0
  2  3  1  0
  3  4  1  0
  4  5  1  0
  5  6  2  0
  5  7  1  0
  7  8  1  0
  8  9  1  0
  9 10  1  0
 10 11  1  0
 11 12  1  0
 12 13  1  0
 13 14  2  0
 14 15  1  0
 15 16  2  0
 16 17  1  0
 17 18  1  0
 17 19  2  0
  2 20  1  0
 20 21  2  0
 21 22  1  0
 22 23  2  0
 23 24  1  0
 24 25  2  0
 25 26  1  0
 26 27  2  0
 27 28  1  0
 28 29  2  0
 12  7  1  0
 19 13  1  0
 29 20  1  0
 28 23  1  0
  3 30  1  0
  4 31  1  0
  4 32  1  0
  8 33  1  0
  8 34  1  0
  9 35  1  0
  9 36  1  0
 10 37  1  0
 10 38  1  0
 11 39  1  0
 11 40  1  0
 12 41  1  1
 14 42  1  0
 15 43  1  0
 16 44  1  0
 19 45  1  0
 21 46  1  0
 22 47  1  0
 24 48  1  0
 25 49  1  0
 26 50  1  0
 27 51  1  0
M  END
>  <smiles>  (31) 
O=C(NCC(=O)N1CCCCC1c1cccc(Br)c1)c1ccc2ccccc2n1

>  <score_type>  (31) 
oracle

>  <origin>  (31) 
autodockgpu

>  <m_score__min__energy>  (31) 
-10.01

>  <m_primary>  (31) 
energy

>  <rmsd>  (31) 
1.7290150077135427

>  <m_score__min__rmsd>  (31) 
1.7290150077135427

>  <meeko>  (31) 
{"free_energy": -8.99, "intermolecular_energy": -10.48, "internal_energy": -1.99, "cluster_size": 8, "cluster_id": 3, "rank_in_cluster": 6}

>  <energy>  (31) 
-9.15

>  <cluster_rmsd>  (31) 
1.47

>  <cluster>  (31) 
2

$$$$

     RDKit          3D

 51 54  0  0  0  0  0  0  0  0999 V2000
  139.4460   75.8540  220.2450 O   0  0  0  0  0  0  0  0  0  0  0  0
  139.4870   75.9630  221.4840 C   0  0  0  0  0  0  0  0  0  0  0  0
  139.2270   74.8640  222.3570 N   0  0  0  0  0  0  0  0  0  0  0  0
  138.9050   73.5690  221.7930 C   0  0  0  0  0  0  0  0  0  0  0  0
  139.7590   72.4960  222.3570 C   0  0  0  0  0  0  0  0  0  0  0  0
  140.9940   72.5410  222.1300 O   0  0  0  0  0  0  0  0  0  0  0  0
  139.1220   71.4850  223.1170 N   0  0  0  0  0  0  0  0  0  0  0  0
  137.6680   71.4720  223.3500 C   0  0  0  0  0  0  0  0  0  0  0  0
  137.1090   70.3710  222.4800 C   0  0  0  0  0  0  0  0  0  0  0  0
  137.9660   69.1620  222.5920 C   0  0  0  0  0  0  0  0  0  0  0  0
  138.9130   69.1570  223.7710 C   0  0  0  0  0  0  0  0  0  0  0  0
  139.8380   70.3680  223.7290 C   0  0  2  0  0  0  0  0  0  0  0  0
  140.2590   70.6400  225.1230 C   0  0  0  0  0  0  0  0  0  0  0  0
  140.6700   71.8940  225.5570 C   0  0  0  0  0  0  0  0  0  0  0  0
  141.0730   72.1400  226.8540 C   0  0  0  0  0  0  0  0  0  0  0  0
  141.0870   71.1380  227.7950 C   0  0  0  0  0  0  0  0  0  0  0  0
  140.6840   69.8870  227.3950 C   0  0  0  0  0  0  0  0  0  0  0  0
  140.6890   68.4580  228.6790 Br  0  0  0  0  0  0  0  0  0  0  0  0
  140.2780   69.6380  226.0810 C   0  0  0  0  0  0  0  0  0  0  0  0
  139.8120   77.2670  222.0940 C   0  0  0  0  0  0  0  0  0  0  0  0
  138.8050   78.0700  222.5800 C   0  0  0  0  0  0  0  0  0  0  0  0
  139.0690   79.3050  223.1610 C   0  0  0  0  0  0  0  0  0  0  0  0
  140.3920   79.6920  223.2290 C   0  0  0  0  0  0  0  0  0  0  0  0
  140.6600   80.9270  223.8100 C   0  0  0  0  0  0  0  0  0  0  0  0
  141.9690   81.3500  223.8960 C   0  0  0  0  0  0  0  0  0  0  0  0
  142.9770   80.5630  223.4160 C   0  0  0  0  0  0  0  0  0  0  0  0
  142.7110   79.3270  222.8350 C   0  0  0  0  0  0  0  0  0  0  0  0
  141.4060   78.8880  222.7410 C   0  0  0  0  0  0  0  0  0  0  0  0
  141.0740   77.7000  222.1900 N   0  0  0  0  0  0  0  0  0  0  0  0
  139.2740   75.0060  223.4060 H   0  0  0  0  0  0  0  0  0  0  0  0
  137.8519   73.3375  222.0107 H   0  0  0  0  0  0  0  0  0  0  0  0
  139.0834   73.6140  220.7085 H   0  0  0  0  0  0  0  0  0  0  0  0
  137.4538   71.2663  224.4092 H   0  0  0  0  0  0  0  0  0  0  0  0
  137.2151   72.4440  223.1049 H   0  0  0  0  0  0  0  0  0  0  0  0
  136.0880   70.1275  222.8089 H   0  0  0  0  0  0  0  0  0  0  0  0
  137.0886   70.7081  221.4331 H   0  0  0  0  0  0  0  0  0  0  0  0
  137.3085   68.2844  222.6787 H   0  0  0  0  0  0  0  0  0  0  0  0
  138.5968   69.1477  221.6909 H   0  0  0  0  0  0  0  0  0  0  0  0
  138.3287   69.1819  224.7027 H   0  0  0  0  0  0  0  0  0  0  0  0
  139.5255   68.2444  223.7267 H   0  0  0  0  0  0  0  0  0  0  0  0
  140.7381   70.1977  223.1201 H   0  0  0  0  0  0  0  0  0  0  0  0
  140.6745   72.7256  224.8370 H   0  0  0  0  0  0  0  0  0  0  0  0
  141.3881   73.1545  227.1393 H   0  0  0  0  0  0  0  0  0  0  0  0
  141.4087   71.3306  228.8291 H   0  0  0  0  0  0  0  0  0  0  0  0
  139.9657   68.6214  225.7998 H   0  0  0  0  0  0  0  0  0  0  0  0
  137.7631   77.7250  222.5066 H   0  0  0  0  0  0  0  0  0  0  0  0
  138.2615   79.9437  223.5483 H   0  0  0  0  0  0  0  0  0  0  0  0
  139.8422   81.5546  224.1938 H   0  0  0  0  0  0  0  0  0  0  0  0
  142.2024   82.3234  224.3521 H   0  0  0  0  0  0  0  0  0  0  0  0
  144.0174   80.9125  223.4901 H   0  0  0  0  0  0  0  0  0  0  0  0
  143.5341   78.7049  222.4537 H   0  0  0  0  0  0  0  0  0  0  0  0
  1  2  2  0
  2  3  1  0
  3  4  1  0
  4  5  1  0
  5  6  2  0
  5  7  1  0
  7  8  1  0
  8  9  1  0
  9 10  1  0
 10 11  1  0
 11 12  1  0
 12 13  1  0
 13 14  2  0
 14 15  1  0
 15 16  2  0
 16 17  1  0
 17 18  1  0
 17 19  2  0
  2 20  1  0
 20 21  2  0
 21 22  1  0
 22 23  2  0
 23 24  1  0
 24 25  2  0
 25 26  1  0
 26 27  2  0
 27 28  1  0
 28 29  2  0
 12  7  1  0
 19 13  1  0
 29 20  1  0
 28 23  1  0
  3 30  1  0
  4 31  1  0
  4 32  1  0
  8 33  1  0
  8 34  1  0
  9 35  1  0
  9 36  1  0
 10 37  1  0
 10 38  1  0
 11 39  1  0
 11 40  1  0
 12 41  1  6
 14 42  1  0
 15 43  1  0
 16 44  1  0
 19 45  1  0
 21 46  1  0
 22 47  1  0
 24 48  1  0
 25 49  1  0
 26 50  1  0
 27 51  1  0
M  END
>  <smiles>  (32) 
O=C(NCC(=O)N1CCCCC1c1cccc(Br)c1)c1ccc2ccccc2n1

>  <score_type>  (32) 
oracle

>  <origin>  (32) 
autodockgpu

>  <m_score__min__energy>  (32) 
-10.01

>  <m_primary>  (32) 
energy

>  <rmsd>  (32) 
8.395098440371367

>  <m_score__min__rmsd>  (32) 
8.395098440371367

>  <meeko>  (32) 
{"free_energy": -9.72, "intermolecular_energy": -11.21, "internal_energy": -1.33, "cluster_size": 22, "cluster_id": 1, "rank_in_cluster": 7}

>  <energy>  (32) 
-9.13

>  <cluster_rmsd>  (32) 
1.48

>  <cluster>  (32) 
2

$$$$

     RDKit          3D

 51 54  0  0  0  0  0  0  0  0999 V2000
  140.7830   75.0750  220.4810 O   0  0  0  0  0  0  0  0  0  0  0  0
  140.2660   75.6360  221.4650 C   0  0  0  0  0  0  0  0  0  0  0  0
  139.2790   74.9980  222.2770 N   0  0  0  0  0  0  0  0  0  0  0  0
  138.8570   73.6500  221.9550 C   0  0  0  0  0  0  0  0  0  0  0  0
  139.7680   72.6350  222.5390 C   0  0  0  0  0  0  0  0  0  0  0  0
  141.0050   72.7980  222.3960 O   0  0  0  0  0  0  0  0  0  0  0  0
  139.1770   71.5440  223.2210 N   0  0  0  0  0  0  0  0  0  0  0  0
  137.7240   71.4340  223.4260 C   0  0  0  0  0  0  0  0  0  0  0  0
  137.2420   70.3620  222.4770 C   0  0  0  0  0  0  0  0  0  0  0  0
  138.1650   69.1980  222.5290 C   0  0  0  0  0  0  0  0  0  0  0  0
  139.0920   69.1700  223.7220 C   0  0  0  0  0  0  0  0  0  0  0  0
  139.9460   70.4320  223.7750 C   0  0  2  0  0  0  0  0  0  0  0  0
  140.3300   70.6370  225.1910 C   0  0  0  0  0  0  0  0  0  0  0  0
  140.6840   71.8770  225.7060 C   0  0  0  0  0  0  0  0  0  0  0  0
  141.0520   72.0610  227.0230 C   0  0  0  0  0  0  0  0  0  0  0  0
  141.0860   71.0070  227.9050 C   0  0  0  0  0  0  0  0  0  0  0  0
  140.7400   69.7670  227.4240 C   0  0  0  0  0  0  0  0  0  0  0  0
  140.7750   68.2670  228.6220 Br  0  0  0  0  0  0  0  0  0  0  0  0
  140.3690   69.5820  226.0900 C   0  0  0  0  0  0  0  0  0  0  0  0
  140.6720   77.0080  221.8230 C   0  0  0  0  0  0  0  0  0  0  0  0
  141.1040   77.2880  223.1000 C   0  0  0  0  0  0  0  0  0  0  0  0
  141.4950   78.5670  223.4770 C   0  0  0  0  0  0  0  0  0  0  0  0
  141.4290   79.5500  222.5100 C   0  0  0  0  0  0  0  0  0  0  0  0
  141.8190   80.8320  222.8840 C   0  0  0  0  0  0  0  0  0  0  0  0
  141.7680   81.8410  221.9470 C   0  0  0  0  0  0  0  0  0  0  0  0
  141.3390   81.5770  220.6770 C   0  0  0  0  0  0  0  0  0  0  0  0
  140.9490   80.2950  220.3020 C   0  0  0  0  0  0  0  0  0  0  0  0
  140.9940   79.2720  221.2270 C   0  0  0  0  0  0  0  0  0  0  0  0
  140.6310   78.0060  220.9320 N   0  0  0  0  0  0  0  0  0  0  0  0
  138.8690   75.5160  223.1050 H   0  0  0  0  0  0  0  0  0  0  0  0
  137.8436   73.4895  222.3516 H   0  0  0  0  0  0  0  0  0  0  0  0
  138.8749   73.5375  220.8609 H   0  0  0  0  0  0  0  0  0  0  0  0
  137.5066   71.1481  224.4657 H   0  0  0  0  0  0  0  0  0  0  0  0
  137.2196   72.3928  223.2356 H   0  0  0  0  0  0  0  0  0  0  0  0
  136.2314   70.0412  222.7700 H   0  0  0  0  0  0  0  0  0  0  0  0
  137.2186   70.7641  221.4534 H   0  0  0  0  0  0  0  0  0  0  0  0
  137.5572   68.2813  222.5477 H   0  0  0  0  0  0  0  0  0  0  0  0
  138.8095   69.2772  221.6411 H   0  0  0  0  0  0  0  0  0  0  0  0
  138.4933   69.1010  224.6422 H   0  0  0  0  0  0  0  0  0  0  0  0
  139.7569   68.2984  223.6310 H   0  0  0  0  0  0  0  0  0  0  0  0
  140.8637   70.3524  223.1738 H   0  0  0  0  0  0  0  0  0  0  0  0
  140.6705   72.7492  225.0359 H   0  0  0  0  0  0  0  0  0  0  0  0
  141.3227   73.0680  227.3731 H   0  0  0  0  0  0  0  0  0  0  0  0
  141.3789   71.1507  228.9555 H   0  0  0  0  0  0  0  0  0  0  0  0
  140.1008   68.5730  225.7437 H   0  0  0  0  0  0  0  0  0  0  0  0
  141.1406   76.4769  223.8422 H   0  0  0  0  0  0  0  0  0  0  0  0
  141.8409   78.7859  224.4980 H   0  0  0  0  0  0  0  0  0  0  0  0
  142.1618   81.0364  223.9090 H   0  0  0  0  0  0  0  0  0  0  0  0
  142.0734   82.8613  222.2221 H   0  0  0  0  0  0  0  0  0  0  0  0
  141.3013   82.3915  219.9386 H   0  0  0  0  0  0  0  0  0  0  0  0
  140.6071   80.0984  219.2751 H   0  0  0  0  0  0  0  0  0  0  0  0
  1  2  2  0
  2  3  1  0
  3  4  1  0
  4  5  1  0
  5  6  2  0
  5  7  1  0
  7  8  1  0
  8  9  1  0
  9 10  1  0
 10 11  1  0
 11 12  1  0
 12 13  1  0
 13 14  2  0
 14 15  1  0
 15 16  2  0
 16 17  1  0
 17 18  1  0
 17 19  2  0
  2 20  1  0
 20 21  2  0
 21 22  1  0
 22 23  2  0
 23 24  1  0
 24 25  2  0
 25 26  1  0
 26 27  2  0
 27 28  1  0
 28 29  2  0
 12  7  1  0
 19 13  1  0
 29 20  1  0
 28 23  1  0
  3 30  1  0
  4 31  1  0
  4 32  1  0
  8 33  1  0
  8 34  1  0
  9 35  1  0
  9 36  1  0
 10 37  1  0
 10 38  1  0
 11 39  1  0
 11 40  1  0
 12 41  1  6
 14 42  1  0
 15 43  1  0
 16 44  1  0
 19 45  1  0
 21 46  1  0
 22 47  1  0
 24 48  1  0
 25 49  1  0
 26 50  1  0
 27 51  1  0
M  END
>  <smiles>  (33) 
O=C(NCC(=O)N1CCCCC1c1cccc(Br)c1)c1ccc2ccccc2n1

>  <score_type>  (33) 
oracle

>  <origin>  (33) 
autodockgpu

>  <m_score__min__energy>  (33) 
-10.01

>  <m_primary>  (33) 
energy

>  <rmsd>  (33) 
8.71695143972402

>  <m_score__min__rmsd>  (33) 
8.71695143972402

>  <meeko>  (33) 
{"free_energy": -9.14, "intermolecular_energy": -10.63, "internal_energy": -1.34, "cluster_size": 22, "cluster_id": 1, "rank_in_cluster": 13}

>  <energy>  (33) 
-9.11

>  <cluster_rmsd>  (33) 
1.48

>  <cluster>  (33) 
2

$$$$

     RDKit          3D

 51 54  0  0  0  0  0  0  0  0999 V2000
  137.4010   76.1110  222.3250 O   0  0  0  0  0  0  0  0  0  0  0  0
  138.6410   76.2230  222.3380 C   0  0  0  0  0  0  0  0  0  0  0  0
  139.5100   75.1420  221.9990 N   0  0  0  0  0  0  0  0  0  0  0  0
  138.9410   73.8640  221.6240 C   0  0  0  0  0  0  0  0  0  0  0  0
  139.5660   72.7440  222.3690 C   0  0  0  0  0  0  0  0  0  0  0  0
  140.7530   72.8800  222.7580 O   0  0  0  0  0  0  0  0  0  0  0  0
  138.7770   71.5890  222.5940 N   0  0  0  0  0  0  0  0  0  0  0  0
  137.3060   71.6330  222.6320 C   0  0  0  0  0  0  0  0  0  0  0  0
  136.8300   71.0080  221.3420 C   0  0  0  0  0  0  0  0  0  0  0  0
  137.6040   69.7690  221.0720 C   0  0  0  0  0  0  0  0  0  0  0  0
  138.3670   69.2210  222.2560 C   0  0  0  0  0  0  0  0  0  0  0  0
  139.3430   70.2580  222.8000 C   0  0  2  0  0  0  0  0  0  0  0  0
  139.5680   69.9350  224.2280 C   0  0  0  0  0  0  0  0  0  0  0  0
  139.2480   68.7020  224.7820 C   0  0  0  0  0  0  0  0  0  0  0  0
  139.4490   68.4090  226.1160 C   0  0  0  0  0  0  0  0  0  0  0  0
  139.9850   69.3390  226.9750 C   0  0  0  0  0  0  0  0  0  0  0  0
  140.3130   70.5680  226.4530 C   0  0  0  0  0  0  0  0  0  0  0  0
  141.0650   71.8970  227.6190 Br  0  0  0  0  0  0  0  0  0  0  0  0
  140.1090   70.8640  225.1040 C   0  0  0  0  0  0  0  0  0  0  0  0
  139.2560   77.5100  222.7150 C   0  0  0  0  0  0  0  0  0  0  0  0
  138.4600   78.5700  223.0890 C   0  0  0  0  0  0  0  0  0  0  0  0
  138.9990   79.7990  223.4510 C   0  0  0  0  0  0  0  0  0  0  0  0
  140.3740   79.9110  223.4170 C   0  0  0  0  0  0  0  0  0  0  0  0
  140.9170   81.1390  223.7790 C   0  0  0  0  0  0  0  0  0  0  0  0
  142.2870   81.2910  223.7590 C   0  0  0  0  0  0  0  0  0  0  0  0
  143.0870   80.2480  223.3880 C   0  0  0  0  0  0  0  0  0  0  0  0
  142.5460   79.0190  223.0270 C   0  0  0  0  0  0  0  0  0  0  0  0
  141.1760   78.8480  223.0420 C   0  0  0  0  0  0  0  0  0  0  0  0
  140.5820   77.6840  222.7030 N   0  0  0  0  0  0  0  0  0  0  0  0
  140.5590   75.2870  222.0240 H   0  0  0  0  0  0  0  0  0  0  0  0
  137.8624   73.8773  221.8395 H   0  0  0  0  0  0  0  0  0  0  0  0
  139.1274   73.7078  220.5512 H   0  0  0  0  0  0  0  0  0  0  0  0
  136.9299   71.0617  223.4935 H   0  0  0  0  0  0  0  0  0  0  0  0
  136.9393   72.6649  222.7356 H   0  0  0  0  0  0  0  0  0  0  0  0
  135.7616   70.7606  221.4277 H   0  0  0  0  0  0  0  0  0  0  0  0
  136.9789   71.7186  220.5156 H   0  0  0  0  0  0  0  0  0  0  0  0
  136.9007   68.9948  220.7315 H   0  0  0  0  0  0  0  0  0  0  0  0
  138.3585   70.0365  220.3175 H   0  0  0  0  0  0  0  0  0  0  0  0
  137.6547   68.9463  223.0479 H   0  0  0  0  0  0  0  0  0  0  0  0
  138.9369   68.3386  221.9296 H   0  0  0  0  0  0  0  0  0  0  0  0
  140.3139   70.2439  222.2832 H   0  0  0  0  0  0  0  0  0  0  0  0
  138.8167   67.9273  224.1310 H   0  0  0  0  0  0  0  0  0  0  0  0
  139.1756   67.4144  226.4982 H   0  0  0  0  0  0  0  0  0  0  0  0
  140.1452   69.1088  228.0387 H   0  0  0  0  0  0  0  0  0  0  0  0
  140.3845   71.8597  224.7263 H   0  0  0  0  0  0  0  0  0  0  0  0
  137.3677   78.4404  223.1016 H   0  0  0  0  0  0  0  0  0  0  0  0
  138.3597   80.6426  223.7505 H   0  0  0  0  0  0  0  0  0  0  0  0
  140.2652   81.9739  224.0759 H   0  0  0  0  0  0  0  0  0  0  0  0
  142.7367   82.2541  224.0424 H   0  0  0  0  0  0  0  0  0  0  0  0
  144.1787   80.3826  223.3746 H   0  0  0  0  0  0  0  0  0  0  0  0
  143.2047   78.1890  222.7316 H   0  0  0  0  0  0  0  0  0  0  0  0
  1  2  2  0
  2  3  1  0
  3  4  1  0
  4  5  1  0
  5  6  2  0
  5  7  1  0
  7  8  1  0
  8  9  1  0
  9 10  1  0
 10 11  1  0
 11 12  1  0
 12 13  1  0
 13 14  2  0
 14 15  1  0
 15 16  2  0
 16 17  1  0
 17 18  1  0
 17 19  2  0
  2 20  1  0
 20 21  2  0
 21 22  1  0
 22 23  2  0
 23 24  1  0
 24 25  2  0
 25 26  1  0
 26 27  2  0
 27 28  1  0
 28 29  2  0
 12  7  1  0
 19 13  1  0
 29 20  1  0
 28 23  1  0
  3 30  1  0
  4 31  1  0
  4 32  1  0
  8 33  1  0
  8 34  1  0
  9 35  1  0
  9 36  1  0
 10 37  1  0
 10 38  1  0
 11 39  1  0
 11 40  1  0
 12 41  1  6
 14 42  1  0
 15 43  1  0
 16 44  1  0
 19 45  1  0
 21 46  1  0
 22 47  1  0
 24 48  1  0
 25 49  1  0
 26 50  1  0
 27 51  1  0
M  END
>  <smiles>  (34) 
O=C(NCC(=O)N1CCCCC1c1cccc(Br)c1)c1ccc2ccccc2n1

>  <score_type>  (34) 
oracle

>  <origin>  (34) 
autodockgpu

>  <m_score__min__energy>  (34) 
-10.01

>  <m_primary>  (34) 
energy

>  <rmsd>  (34) 
8.295418979162086

>  <m_score__min__rmsd>  (34) 
8.295418979162086

>  <meeko>  (34) 
{"free_energy": -9.04, "intermolecular_energy": -10.53, "internal_energy": -1.91, "cluster_size": 22, "cluster_id": 1, "rank_in_cluster": 14}

>  <energy>  (34) 
-9.1

>  <cluster_rmsd>  (34) 
1.19

>  <cluster>  (34) 
2

$$$$

     RDKit          3D

 51 54  0  0  0  0  0  0  0  0999 V2000
  139.9740   74.6630  219.8730 O   0  0  0  0  0  0  0  0  0  0  0  0
  140.0070   75.1420  221.0220 C   0  0  0  0  0  0  0  0  0  0  0  0
  139.4520   74.4630  222.1490 N   0  0  0  0  0  0  0  0  0  0  0  0
  138.8260   73.1700  221.9610 C   0  0  0  0  0  0  0  0  0  0  0  0
  139.5060   72.1110  222.7470 C   0  0  0  0  0  0  0  0  0  0  0  0
  140.7210   72.2690  223.0250 O   0  0  0  0  0  0  0  0  0  0  0  0
  138.7360   70.9870  223.1310 N   0  0  0  0  0  0  0  0  0  0  0  0
  137.2710   71.0430  223.2660 C   0  0  0  0  0  0  0  0  0  0  0  0
  136.7070   70.3030  222.0750 C   0  0  0  0  0  0  0  0  0  0  0  0
  137.4620   69.0400  221.8690 C   0  0  0  0  0  0  0  0  0  0  0  0
  138.3050   68.6000  223.0450 C   0  0  0  0  0  0  0  0  0  0  0  0
  139.3150   69.6770  223.4210 C   0  0  2  0  0  0  0  0  0  0  0  0
  139.6380   69.4870  224.8540 C   0  0  0  0  0  0  0  0  0  0  0  0
  139.4800   68.2720  225.5090 C   0  0  0  0  0  0  0  0  0  0  0  0
  139.7700   68.1020  226.8470 C   0  0  0  0  0  0  0  0  0  0  0  0
  140.2400   69.1450  227.6100 C   0  0  0  0  0  0  0  0  0  0  0  0
  140.4080   70.3590  226.9880 C   0  0  0  0  0  0  0  0  0  0  0  0
  141.0620   71.8430  228.0180 Br  0  0  0  0  0  0  0  0  0  0  0  0
  140.1120   70.5310  225.6340 C   0  0  0  0  0  0  0  0  0  0  0  0
  140.6370   76.4560  221.2500 C   0  0  0  0  0  0  0  0  0  0  0  0
  141.0640   77.2110  220.1800 C   0  0  0  0  0  0  0  0  0  0  0  0
  141.6620   78.4530  220.3520 C   0  0  0  0  0  0  0  0  0  0  0  0
  141.8100   78.8990  221.6490 C   0  0  0  0  0  0  0  0  0  0  0  0
  142.4090   80.1430  221.8250 C   0  0  0  0  0  0  0  0  0  0  0  0
  142.5750   80.6240  223.1060 C   0  0  0  0  0  0  0  0  0  0  0  0
  142.1580   79.8850  224.1760 C   0  0  0  0  0  0  0  0  0  0  0  0
  141.5590   78.6410  224.0020 C   0  0  0  0  0  0  0  0  0  0  0  0
  141.3830   78.1440  222.7260 C   0  0  0  0  0  0  0  0  0  0  0  0
  140.8100   76.9460  222.4830 N   0  0  0  0  0  0  0  0  0  0  0  0
  139.5050   74.9100  223.1070 H   0  0  0  0  0  0  0  0  0  0  0  0
  137.7756   73.2326  222.2814 H   0  0  0  0  0  0  0  0  0  0  0  0
  138.8984   72.9059  220.8956 H   0  0  0  0  0  0  0  0  0  0  0  0
  136.9557   70.5566  224.2009 H   0  0  0  0  0  0  0  0  0  0  0  0
  136.9117   72.0822  223.2980 H   0  0  0  0  0  0  0  0  0  0  0  0
  135.6474   70.0704  222.2569 H   0  0  0  0  0  0  0  0  0  0  0  0
  136.7973   70.9328  221.1777 H   0  0  0  0  0  0  0  0  0  0  0  0
  136.7378   68.2414  221.6505 H   0  0  0  0  0  0  0  0  0  0  0  0
  138.1629   69.2321  221.0432 H   0  0  0  0  0  0  0  0  0  0  0  0
  137.6487   68.4049  223.9060 H   0  0  0  0  0  0  0  0  0  0  0  0
  138.8513   67.6873  222.7648 H   0  0  0  0  0  0  0  0  0  0  0  0
  140.2477   69.6090  222.8419 H   0  0  0  0  0  0  0  0  0  0  0  0
  139.1080   67.4094  224.9367 H   0  0  0  0  0  0  0  0  0  0  0  0
  139.6228   67.1157  227.3112 H   0  0  0  0  0  0  0  0  0  0  0  0
  140.4725   69.0128  228.6770 H   0  0  0  0  0  0  0  0  0  0  0  0
  140.2586   71.5197  225.1746 H   0  0  0  0  0  0  0  0  0  0  0  0
  140.9277   76.8196  219.1610 H   0  0  0  0  0  0  0  0  0  0  0  0
  142.0015   79.0525  219.4945 H   0  0  0  0  0  0  0  0  0  0  0  0
  142.7437   80.7313  220.9579 H   0  0  0  0  0  0  0  0  0  0  0  0
  143.0446   81.6057  223.2668 H   0  0  0  0  0  0  0  0  0  0  0  0
  142.2980   80.2799  225.1931 H   0  0  0  0  0  0  0  0  0  0  0  0
  141.2283   78.0582  224.8743 H   0  0  0  0  0  0  0  0  0  0  0  0
  1  2  2  0
  2  3  1  0
  3  4  1  0
  4  5  1  0
  5  6  2  0
  5  7  1  0
  7  8  1  0
  8  9  1  0
  9 10  1  0
 10 11  1  0
 11 12  1  0
 12 13  1  0
 13 14  2  0
 14 15  1  0
 15 16  2  0
 16 17  1  0
 17 18  1  0
 17 19  2  0
  2 20  1  0
 20 21  2  0
 21 22  1  0
 22 23  2  0
 23 24  1  0
 24 25  2  0
 25 26  1  0
 26 27  2  0
 27 28  1  0
 28 29  2  0
 12  7  1  0
 19 13  1  0
 29 20  1  0
 28 23  1  0
  3 30  1  0
  4 31  1  0
  4 32  1  0
  8 33  1  0
  8 34  1  0
  9 35  1  0
  9 36  1  0
 10 37  1  0
 10 38  1  0
 11 39  1  0
 11 40  1  0
 12 41  1  6
 14 42  1  0
 15 43  1  0
 16 44  1  0
 19 45  1  0
 21 46  1  0
 22 47  1  0
 24 48  1  0
 25 49  1  0
 26 50  1  0
 27 51  1  0
M  END
>  <smiles>  (35) 
O=C(NCC(=O)N1CCCCC1c1cccc(Br)c1)c1ccc2ccccc2n1

>  <score_type>  (35) 
oracle

>  <origin>  (35) 
autodockgpu

>  <m_score__min__energy>  (35) 
-10.01

>  <m_primary>  (35) 
energy

>  <rmsd>  (35) 
8.292881466676834

>  <m_score__min__rmsd>  (35) 
8.292881466676834

>  <meeko>  (35) 
{"free_energy": -9.35, "intermolecular_energy": -10.84, "internal_energy": -1.68, "cluster_size": 22, "cluster_id": 1, "rank_in_cluster": 9}

>  <energy>  (35) 
-9.1

>  <cluster_rmsd>  (35) 
1.02

>  <cluster>  (35) 
2

$$$$

     RDKit          3D

 51 54  0  0  0  0  0  0  0  0999 V2000
  141.0640   71.4430  221.4030 O   0  0  0  0  0  0  0  0  0  0  0  0
  140.4730   72.0200  222.3350 C   0  0  0  0  0  0  0  0  0  0  0  0
  139.9770   73.3530  222.2160 N   0  0  0  0  0  0  0  0  0  0  0  0
  140.1590   74.0710  220.9710 C   0  0  0  0  0  0  0  0  0  0  0  0
  139.8650   75.5170  221.1220 C   0  0  0  0  0  0  0  0  0  0  0  0
  138.7710   75.8480  221.6440 O   0  0  0  0  0  0  0  0  0  0  0  0
  140.8430   76.4330  220.6650 N   0  0  0  0  0  0  0  0  0  0  0  0
  142.2470   76.0460  220.4470 C   0  0  0  0  0  0  0  0  0  0  0  0
  142.4400   75.9730  218.9500 C   0  0  0  0  0  0  0  0  0  0  0  0
  141.8090   77.1560  218.3080 C   0  0  0  0  0  0  0  0  0  0  0  0
  141.4840   78.2960  219.2470 C   0  0  0  0  0  0  0  0  0  0  0  0
  140.5530   77.8330  220.3610 C   0  0  2  0  0  0  0  0  0  0  0  0
  140.7740   78.7370  221.5140 C   0  0  0  0  0  0  0  0  0  0  0  0
  142.0390   79.0680  221.9820 C   0  0  0  0  0  0  0  0  0  0  0  0
  142.2400   79.9010  223.0630 C   0  0  0  0  0  0  0  0  0  0  0  0
  141.1790   80.4540  223.7410 C   0  0  0  0  0  0  0  0  0  0  0  0
  139.9150   80.1450  223.2990 C   0  0  0  0  0  0  0  0  0  0  0  0
  138.4050   80.8970  224.2170 Br  0  0  0  0  0  0  0  0  0  0  0  0
  139.7130   79.3010  222.2050 C   0  0  0  0  0  0  0  0  0  0  0  0
  140.2700   71.3190  223.6170 C   0  0  0  0  0  0  0  0  0  0  0  0
  139.6120   70.1090  223.6440 C   0  0  0  0  0  0  0  0  0  0  0  0
  139.4000   69.4180  224.8300 C   0  0  0  0  0  0  0  0  0  0  0  0
  139.8780   70.0010  225.9860 C   0  0  0  0  0  0  0  0  0  0  0  0
  139.6670   69.3110  227.1760 C   0  0  0  0  0  0  0  0  0  0  0  0
  140.1300   69.8600  228.3520 C   0  0  0  0  0  0  0  0  0  0  0  0
  140.7820   71.0600  228.3390 C   0  0  0  0  0  0  0  0  0  0  0  0
  140.9950   71.7510  227.1500 C   0  0  0  0  0  0  0  0  0  0  0  0
  140.5380   71.2160  225.9630 C   0  0  0  0  0  0  0  0  0  0  0  0
  140.7090   71.8310  224.7730 N   0  0  0  0  0  0  0  0  0  0  0  0
  139.4800   73.8010  223.0370 H   0  0  0  0  0  0  0  0  0  0  0  0
  141.2013   73.9520  220.6403 H   0  0  0  0  0  0  0  0  0  0  0  0
  139.4598   73.6550  220.2306 H   0  0  0  0  0  0  0  0  0  0  0  0
  142.9213   76.7986  220.8816 H   0  0  0  0  0  0  0  0  0  0  0  0
  142.4750   75.0827  220.9267 H   0  0  0  0  0  0  0  0  0  0  0  0
  143.5155   75.9615  218.7196 H   0  0  0  0  0  0  0  0  0  0  0  0
  141.9714   75.0551  218.5654 H   0  0  0  0  0  0  0  0  0  0  0  0
  142.4976   77.5340  217.5380 H   0  0  0  0  0  0  0  0  0  0  0  0
  140.8474   76.8088  217.9020 H   0  0  0  0  0  0  0  0  0  0  0  0
  142.4167   78.6743  219.6908 H   0  0  0  0  0  0  0  0  0  0  0  0
  140.9812   79.0901  218.6755 H   0  0  0  0  0  0  0  0  0  0  0  0
  139.4910   77.8816  220.0784 H   0  0  0  0  0  0  0  0  0  0  0  0
  142.9172   78.6485  221.4693 H   0  0  0  0  0  0  0  0  0  0  0  0
  143.2663   80.1267  223.3882 H   0  0  0  0  0  0  0  0  0  0  0  0
  141.3360   81.1180  224.6038 H   0  0  0  0  0  0  0  0  0  0  0  0
  138.6851   79.0779  221.8832 H   0  0  0  0  0  0  0  0  0  0  0  0
  139.2446   69.6785  222.7008 H   0  0  0  0  0  0  0  0  0  0  0  0
  138.8756   68.4512  224.8471 H   0  0  0  0  0  0  0  0  0  0  0  0
  139.1404   68.3452  227.1778 H   0  0  0  0  0  0  0  0  0  0  0  0
  139.9741   69.3305  229.3035 H   0  0  0  0  0  0  0  0  0  0  0  0
  141.1452   71.4878  229.2851 H   0  0  0  0  0  0  0  0  0  0  0  0
  141.5233   72.7158  227.1563 H   0  0  0  0  0  0  0  0  0  0  0  0
  1  2  2  0
  2  3  1  0
  3  4  1  0
  4  5  1  0
  5  6  2  0
  5  7  1  0
  7  8  1  0
  8  9  1  0
  9 10  1  0
 10 11  1  0
 11 12  1  0
 12 13  1  0
 13 14  2  0
 14 15  1  0
 15 16  2  0
 16 17  1  0
 17 18  1  0
 17 19  2  0
  2 20  1  0
 20 21  2  0
 21 22  1  0
 22 23  2  0
 23 24  1  0
 24 25  2  0
 25 26  1  0
 26 27  2  0
 27 28  1  0
 28 29  2  0
 12  7  1  0
 19 13  1  0
 29 20  1  0
 28 23  1  0
  3 30  1  0
  4 31  1  0
  4 32  1  0
  8 33  1  0
  8 34  1  0
  9 35  1  0
  9 36  1  0
 10 37  1  0
 10 38  1  0
 11 39  1  0
 11 40  1  0
 12 41  1  6
 14 42  1  0
 15 43  1  0
 16 44  1  0
 19 45  1  0
 21 46  1  0
 22 47  1  0
 24 48  1  0
 25 49  1  0
 26 50  1  0
 27 51  1  0
M  END
>  <smiles>  (36) 
O=C(NCC(=O)N1CCCCC1c1cccc(Br)c1)c1ccc2ccccc2n1

>  <score_type>  (36) 
oracle

>  <origin>  (36) 
autodockgpu

>  <m_score__min__energy>  (36) 
-10.01

>  <m_primary>  (36) 
energy

>  <rmsd>  (36) 
2.1525703854197227

>  <m_score__min__rmsd>  (36) 
2.1525703854197227

>  <meeko>  (36) 
{"free_energy": -9.1, "intermolecular_energy": -10.59, "internal_energy": -1.56, "cluster_size": 20, "cluster_id": 2, "rank_in_cluster": 12}

>  <energy>  (36) 
-9.05

>  <cluster_rmsd>  (36) 
1.38

>  <cluster>  (36) 
2

$$$$

     RDKit          3D

 51 54  0  0  0  0  0  0  0  0999 V2000
  141.0250   74.5210  221.3700 O   0  0  0  0  0  0  0  0  0  0  0  0
  140.0180   74.9710  221.9460 C   0  0  0  0  0  0  0  0  0  0  0  0
  138.8810   74.1600  222.2430 N   0  0  0  0  0  0  0  0  0  0  0  0
  138.8890   72.7610  221.8670 C   0  0  0  0  0  0  0  0  0  0  0  0
  139.4770   71.9100  222.9310 C   0  0  0  0  0  0  0  0  0  0  0  0
  140.6420   72.1710  223.3210 O   0  0  0  0  0  0  0  0  0  0  0  0
  138.6800   70.8540  223.4370 N   0  0  0  0  0  0  0  0  0  0  0  0
  137.2590   71.0320  223.7780 C   0  0  0  0  0  0  0  0  0  0  0  0
  136.4730   70.3390  222.6900 C   0  0  0  0  0  0  0  0  0  0  0  0
  137.0840   69.0160  222.3960 C   0  0  0  0  0  0  0  0  0  0  0  0
  138.0480   68.5110  223.4460 C   0  0  0  0  0  0  0  0  0  0  0  0
  139.1860   69.5020  223.6590 C   0  0  2  0  0  0  0  0  0  0  0  0
  139.6940   69.2890  225.0340 C   0  0  0  0  0  0  0  0  0  0  0  0
  139.8120   68.0290  225.6090 C   0  0  0  0  0  0  0  0  0  0  0  0
  140.2750   67.8360  226.8950 C   0  0  0  0  0  0  0  0  0  0  0  0
  140.6490   68.9000  227.6830 C   0  0  0  0  0  0  0  0  0  0  0  0
  140.5440   70.1580  227.1400 C   0  0  0  0  0  0  0  0  0  0  0  0
  141.0550   71.6710  228.2060 Br  0  0  0  0  0  0  0  0  0  0  0  0
  140.0740   70.3530  225.8390 C   0  0  0  0  0  0  0  0  0  0  0  0
  139.9750   76.3920  222.3430 C   0  0  0  0  0  0  0  0  0  0  0  0
  138.7640   77.0380  222.4580 C   0  0  0  0  0  0  0  0  0  0  0  0
  138.6800   78.3750  222.8290 C   0  0  0  0  0  0  0  0  0  0  0  0
  139.8700   79.0290  223.0770 C   0  0  0  0  0  0  0  0  0  0  0  0
  139.7900   80.3670  223.4490 C   0  0  0  0  0  0  0  0  0  0  0  0
  140.9560   81.0550  223.7060 C   0  0  0  0  0  0  0  0  0  0  0  0
  142.1630   80.4260  223.5940 C   0  0  0  0  0  0  0  0  0  0  0  0
  142.2450   79.0870  223.2220 C   0  0  0  0  0  0  0  0  0  0  0  0
  141.0870   78.3820  222.9620 C   0  0  0  0  0  0  0  0  0  0  0  0
  141.0920   77.0820  222.5970 N   0  0  0  0  0  0  0  0  0  0  0  0
  138.0460   74.5890  222.7350 H   0  0  0  0  0  0  0  0  0  0  0  0
  137.8547   72.4358  221.6814 H   0  0  0  0  0  0  0  0  0  0  0  0
  139.5047   72.6527  220.9619 H   0  0  0  0  0  0  0  0  0  0  0  0
  137.0415   70.5756  224.7549 H   0  0  0  0  0  0  0  0  0  0  0  0
  136.9942   72.0975  223.8463 H   0  0  0  0  0  0  0  0  0  0  0  0
  135.4345   70.1962  223.0234 H   0  0  0  0  0  0  0  0  0  0  0  0
  136.4871   70.9571  221.7802 H   0  0  0  0  0  0  0  0  0  0  0  0
  136.2727   68.2801  222.2951 H   0  0  0  0  0  0  0  0  0  0  0  0
  137.6718   69.1460  221.4754 H   0  0  0  0  0  0  0  0  0  0  0  0
  137.5081   68.3730  224.3944 H   0  0  0  0  0  0  0  0  0  0  0  0
  138.4725   67.5557  223.1038 H   0  0  0  0  0  0  0  0  0  0  0  0
  140.0174   69.3562  222.9536 H   0  0  0  0  0  0  0  0  0  0  0  0
  139.5245   67.1492  225.0146 H   0  0  0  0  0  0  0  0  0  0  0  0
  140.3461   66.8144  227.2965 H   0  0  0  0  0  0  0  0  0  0  0  0
  141.0179   68.7495  228.7083 H   0  0  0  0  0  0  0  0  0  0  0  0
  140.0034   71.3767  225.4426 H   0  0  0  0  0  0  0  0  0  0  0  0
  137.8384   76.4809  222.2507 H   0  0  0  0  0  0  0  0  0  0  0  0
  137.7110   78.8876  222.9206 H   0  0  0  0  0  0  0  0  0  0  0  0
  138.8139   80.8667  223.5364 H   0  0  0  0  0  0  0  0  0  0  0  0
  140.9144   82.1136  224.0021 H   0  0  0  0  0  0  0  0  0  0  0  0
  143.0862   80.9870  223.8013 H   0  0  0  0  0  0  0  0  0  0  0  0
  143.2249   78.5946  223.1359 H   0  0  0  0  0  0  0  0  0  0  0  0
  1  2  2  0
  2  3  1  0
  3  4  1  0
  4  5  1  0
  5  6  2  0
  5  7  1  0
  7  8  1  0
  8  9  1  0
  9 10  1  0
 10 11  1  0
 11 12  1  0
 12 13  1  0
 13 14  2  0
 14 15  1  0
 15 16  2  0
 16 17  1  0
 17 18  1  0
 17 19  2  0
  2 20  1  0
 20 21  2  0
 21 22  1  0
 22 23  2  0
 23 24  1  0
 24 25  2  0
 25 26  1  0
 26 27  2  0
 27 28  1  0
 28 29  2  0
 12  7  1  0
 19 13  1  0
 29 20  1  0
 28 23  1  0
  3 30  1  0
  4 31  1  0
  4 32  1  0
  8 33  1  0
  8 34  1  0
  9 35  1  0
  9 36  1  0
 10 37  1  0
 10 38  1  0
 11 39  1  0
 11 40  1  0
 12 41  1  6
 14 42  1  0
 15 43  1  0
 16 44  1  0
 19 45  1  0
 21 46  1  0
 22 47  1  0
 24 48  1  0
 25 49  1  0
 26 50  1  0
 27 51  1  0
M  END
>  <smiles>  (37) 
O=C(NCC(=O)N1CCCCC1c1cccc(Br)c1)c1ccc2ccccc2n1

>  <score_type>  (37) 
oracle

>  <origin>  (37) 
autodockgpu

>  <m_score__min__energy>  (37) 
-10.01

>  <m_primary>  (37) 
energy

>  <rmsd>  (37) 
8.309554310530496

>  <m_score__min__rmsd>  (37) 
8.309554310530496

>  <meeko>  (37) 
{"free_energy": -9.74, "intermolecular_energy": -11.23, "internal_energy": -1.34, "cluster_size": 22, "cluster_id": 1, "rank_in_cluster": 6}

>  <energy>  (37) 
-9.03

>  <cluster_rmsd>  (37) 
0.86

>  <cluster>  (37) 
2

$$$$

     RDKit          3D

 51 54  0  0  0  0  0  0  0  0999 V2000
  140.9580   74.6290  221.0010 O   0  0  0  0  0  0  0  0  0  0  0  0
  140.0190   75.0200  221.7190 C   0  0  0  0  0  0  0  0  0  0  0  0
  138.9540   74.1590  222.1210 N   0  0  0  0  0  0  0  0  0  0  0  0
  138.9540   72.7780  221.6850 C   0  0  0  0  0  0  0  0  0  0  0  0
  139.5320   71.8770  222.7120 C   0  0  0  0  0  0  0  0  0  0  0  0
  140.7380   72.0360  223.0280 O   0  0  0  0  0  0  0  0  0  0  0  0
  138.6810   70.8920  223.2700 N   0  0  0  0  0  0  0  0  0  0  0  0
  137.2670   71.1570  223.5830 C   0  0  0  0  0  0  0  0  0  0  0  0
  136.4580   70.4390  222.5290 C   0  0  0  0  0  0  0  0  0  0  0  0
  137.0070   69.0740  222.3210 C   0  0  0  0  0  0  0  0  0  0  0  0
  137.9360   68.5860  223.4100 C   0  0  0  0  0  0  0  0  0  0  0  0
  139.1190   69.5330  223.5780 C   0  0  2  0  0  0  0  0  0  0  0  0
  139.6040   69.3780  224.9690 C   0  0  0  0  0  0  0  0  0  0  0  0
  139.6440   68.1530  225.6230 C   0  0  0  0  0  0  0  0  0  0  0  0
  140.0850   68.0150  226.9230 C   0  0  0  0  0  0  0  0  0  0  0  0
  140.5140   69.1020  227.6470 C   0  0  0  0  0  0  0  0  0  0  0  0
  140.4870   70.3270  227.0260 C   0  0  0  0  0  0  0  0  0  0  0  0
  141.0770   71.8730  228.0010 Br  0  0  0  0  0  0  0  0  0  0  0  0
  140.0390   70.4670  225.7100 C   0  0  0  0  0  0  0  0  0  0  0  0
  139.9860   76.4210  222.1830 C   0  0  0  0  0  0  0  0  0  0  0  0
  138.7790   77.0540  222.3780 C   0  0  0  0  0  0  0  0  0  0  0  0
  138.7050   78.3710  222.8130 C   0  0  0  0  0  0  0  0  0  0  0  0
  139.9010   79.0210  223.0410 C   0  0  0  0  0  0  0  0  0  0  0  0
  139.8310   80.3410  223.4770 C   0  0  0  0  0  0  0  0  0  0  0  0
  141.0030   81.0240  223.7150 C   0  0  0  0  0  0  0  0  0  0  0  0
  142.2070   80.4080  223.5240 C   0  0  0  0  0  0  0  0  0  0  0  0
  142.2800   79.0890  223.0890 C   0  0  0  0  0  0  0  0  0  0  0  0
  141.1150   78.3890  222.8450 C   0  0  0  0  0  0  0  0  0  0  0  0
  141.1100   77.1070  222.4210 N   0  0  0  0  0  0  0  0  0  0  0  0
  138.1780   74.5380  222.7340 H   0  0  0  0  0  0  0  0  0  0  0  0
  137.9181   72.4685  221.4819 H   0  0  0  0  0  0  0  0  0  0  0  0
  139.5728   72.7052  220.7785 H   0  0  0  0  0  0  0  0  0  0  0  0
  137.0192   70.7703  224.5825 H   0  0  0  0  0  0  0  0  0  0  0  0
  137.0533   72.2360  223.5850 H   0  0  0  0  0  0  0  0  0  0  0  0
  135.4110   70.3659  222.8583 H   0  0  0  0  0  0  0  0  0  0  0  0
  136.5094   71.0005  221.5845 H   0  0  0  0  0  0  0  0  0  0  0  0
  136.1620   68.3729  222.2538 H   0  0  0  0  0  0  0  0  0  0  0  0
  137.6092   69.1216  221.4017 H   0  0  0  0  0  0  0  0  0  0  0  0
  137.3816   68.5299  224.3584 H   0  0  0  0  0  0  0  0  0  0  0  0
  138.3168   67.5929  223.1294 H   0  0  0  0  0  0  0  0  0  0  0  0
  139.9489   69.3061  222.8926 H   0  0  0  0  0  0  0  0  0  0  0  0
  139.3101   67.2555  225.0817 H   0  0  0  0  0  0  0  0  0  0  0  0
  140.0935   67.0182  227.3881 H   0  0  0  0  0  0  0  0  0  0  0  0
  140.8654   68.9950  228.6838 H   0  0  0  0  0  0  0  0  0  0  0  0
  140.0310   71.4661  225.2499 H   0  0  0  0  0  0  0  0  0  0  0  0
  137.8478   76.5016  222.1840 H   0  0  0  0  0  0  0  0  0  0  0  0
  137.7384   78.8725  222.9685 H   0  0  0  0  0  0  0  0  0  0  0  0
  138.8573   80.8298  223.6287 H   0  0  0  0  0  0  0  0  0  0  0  0
  140.9694   82.0681  224.0597 H   0  0  0  0  0  0  0  0  0  0  0  0
  143.1355   80.9651  223.7177 H   0  0  0  0  0  0  0  0  0  0  0  0
  143.2577   78.6074  222.9406 H   0  0  0  0  0  0  0  0  0  0  0  0
  1  2  2  0
  2  3  1  0
  3  4  1  0
  4  5  1  0
  5  6  2  0
  5  7  1  0
  7  8  1  0
  8  9  1  0
  9 10  1  0
 10 11  1  0
 11 12  1  0
 12 13  1  0
 13 14  2  0
 14 15  1  0
 15 16  2  0
 16 17  1  0
 17 18  1  0
 17 19  2  0
  2 20  1  0
 20 21  2  0
 21 22  1  0
 22 23  2  0
 23 24  1  0
 24 25  2  0
 25 26  1  0
 26 27  2  0
 27 28  1  0
 28 29  2  0
 12  7  1  0
 19 13  1  0
 29 20  1  0
 28 23  1  0
  3 30  1  0
  4 31  1  0
  4 32  1  0
  8 33  1  0
  8 34  1  0
  9 35  1  0
  9 36  1  0
 10 37  1  0
 10 38  1  0
 11 39  1  0
 11 40  1  0
 12 41  1  6
 14 42  1  0
 15 43  1  0
 16 44  1  0
 19 45  1  0
 21 46  1  0
 22 47  1  0
 24 48  1  0
 25 49  1  0
 26 50  1  0
 27 51  1  0
M  END
>  <smiles>  (38) 
O=C(NCC(=O)N1CCCCC1c1cccc(Br)c1)c1ccc2ccccc2n1

>  <score_type>  (38) 
oracle

>  <origin>  (38) 
autodockgpu

>  <m_score__min__energy>  (38) 
-10.01

>  <m_primary>  (38) 
energy

>  <rmsd>  (38) 
8.273944333473093

>  <m_score__min__rmsd>  (38) 
8.273944333473093

>  <meeko>  (38) 
{"free_energy": -9.74, "intermolecular_energy": -11.23, "internal_energy": -1.35, "cluster_size": 22, "cluster_id": 1, "rank_in_cluster": 5}

>  <energy>  (38) 
-9.02

>  <cluster_rmsd>  (38) 
1.39

>  <cluster>  (38) 
2

$$$$

     RDKit          3D

 51 54  0  0  0  0  0  0  0  0999 V2000
  140.9090   74.5280  221.3750 O   0  0  0  0  0  0  0  0  0  0  0  0
  139.9190   75.0280  221.9400 C   0  0  0  0  0  0  0  0  0  0  0  0
  138.7350   74.2780  222.2110 N   0  0  0  0  0  0  0  0  0  0  0  0
  138.6710   72.8850  221.8200 C   0  0  0  0  0  0  0  0  0  0  0  0
  139.3250   72.0040  222.8190 C   0  0  0  0  0  0  0  0  0  0  0  0
  140.4860   72.2970  223.1970 O   0  0  0  0  0  0  0  0  0  0  0  0
  138.5920   70.8840  223.2810 N   0  0  0  0  0  0  0  0  0  0  0  0
  137.1450   70.9420  223.5430 C   0  0  0  0  0  0  0  0  0  0  0  0
  136.4780   70.1910  222.4140 C   0  0  0  0  0  0  0  0  0  0  0  0
  137.2120   68.9250  222.1540 C   0  0  0  0  0  0  0  0  0  0  0  0
  138.1550   68.4960  223.2550 C   0  0  0  0  0  0  0  0  0  0  0  0
  139.1950   69.5770  223.5300 C   0  0  2  0  0  0  0  0  0  0  0  0
  139.6430   69.4000  224.9310 C   0  0  0  0  0  0  0  0  0  0  0  0
  139.6510   68.1670  225.5710 C   0  0  0  0  0  0  0  0  0  0  0  0
  140.0580   68.0080  226.8800 C   0  0  0  0  0  0  0  0  0  0  0  0
  140.4840   69.0820  227.6270 C   0  0  0  0  0  0  0  0  0  0  0  0
  140.4880   70.3140  227.0190 C   0  0  0  0  0  0  0  0  0  0  0  0
  141.0750   71.8410  228.0260 Br  0  0  0  0  0  0  0  0  0  0  0  0
  140.0740   70.4740  225.6940 C   0  0  0  0  0  0  0  0  0  0  0  0
  139.9490   76.4440  222.3520 C   0  0  0  0  0  0  0  0  0  0  0  0
  138.7700   77.1310  222.5450 C   0  0  0  0  0  0  0  0  0  0  0  0
  138.7550   78.4650  222.9320 C   0  0  0  0  0  0  0  0  0  0  0  0
  139.9790   79.0750  223.1150 C   0  0  0  0  0  0  0  0  0  0  0  0
  139.9680   80.4110  223.5030 C   0  0  0  0  0  0  0  0  0  0  0  0
  141.1700   81.0560  223.6970 C   0  0  0  0  0  0  0  0  0  0  0  0
  142.3460   80.3880  223.5080 C   0  0  0  0  0  0  0  0  0  0  0  0
  142.3590   79.0510  223.1200 C   0  0  0  0  0  0  0  0  0  0  0  0
  141.1650   78.3890  222.9220 C   0  0  0  0  0  0  0  0  0  0  0  0
  141.1030   77.0940  222.5460 N   0  0  0  0  0  0  0  0  0  0  0  0
  137.9180   74.7480  222.6950 H   0  0  0  0  0  0  0  0  0  0  0  0
  137.6157   72.5905  221.7216 H   0  0  0  0  0  0  0  0  0  0  0  0
  139.2025   72.7725  220.8635 H   0  0  0  0  0  0  0  0  0  0  0  0
  136.9132   70.4651  224.5067 H   0  0  0  0  0  0  0  0  0  0  0  0
  136.7900   71.9818  223.5955 H   0  0  0  0  0  0  0  0  0  0  0  0
  135.4386   69.9611  222.6912 H   0  0  0  0  0  0  0  0  0  0  0  0
  136.4886   70.8120  221.5062 H   0  0  0  0  0  0  0  0  0  0  0  0
  136.4714   68.1249  222.0079 H   0  0  0  0  0  0  0  0  0  0  0  0
  137.8371   69.1083  221.2677 H   0  0  0  0  0  0  0  0  0  0  0  0
  137.5772   68.3099  224.1724 H   0  0  0  0  0  0  0  0  0  0  0  0
  138.6745   67.5801  222.9369 H   0  0  0  0  0  0  0  0  0  0  0  0
  140.0727   69.5034  222.8710 H   0  0  0  0  0  0  0  0  0  0  0  0
  139.3190   67.2804  225.0109 H   0  0  0  0  0  0  0  0  0  0  0  0
  140.0416   67.0060  227.3337 H   0  0  0  0  0  0  0  0  0  0  0  0
  140.8088   68.9590  228.6707 H   0  0  0  0  0  0  0  0  0  0  0  0
  140.0906   71.4780  225.2449 H   0  0  0  0  0  0  0  0  0  0  0  0
  137.8147   76.6087  222.3883 H   0  0  0  0  0  0  0  0  0  0  0  0
  137.8116   79.0095  223.0854 H   0  0  0  0  0  0  0  0  0  0  0  0
  139.0168   80.9429  223.6522 H   0  0  0  0  0  0  0  0  0  0  0  0
  141.1824   82.1119  224.0050 H   0  0  0  0  0  0  0  0  0  0  0  0
  143.2987   80.9150  223.6649 H   0  0  0  0  0  0  0  0  0  0  0  0
  143.3144   78.5263  222.9724 H   0  0  0  0  0  0  0  0  0  0  0  0
  1  2  2  0
  2  3  1  0
  3  4  1  0
  4  5  1  0
  5  6  2  0
  5  7  1  0
  7  8  1  0
  8  9  1  0
  9 10  1  0
 10 11  1  0
 11 12  1  0
 12 13  1  0
 13 14  2  0
 14 15  1  0
 15 16  2  0
 16 17  1  0
 17 18  1  0
 17 19  2  0
  2 20  1  0
 20 21  2  0
 21 22  1  0
 22 23  2  0
 23 24  1  0
 24 25  2  0
 25 26  1  0
 26 27  2  0
 27 28  1  0
 28 29  2  0
 12  7  1  0
 19 13  1  0
 29 20  1  0
 28 23  1  0
  3 30  1  0
  4 31  1  0
  4 32  1  0
  8 33  1  0
  8 34  1  0
  9 35  1  0
  9 36  1  0
 10 37  1  0
 10 38  1  0
 11 39  1  0
 11 40  1  0
 12 41  1  6
 14 42  1  0
 15 43  1  0
 16 44  1  0
 19 45  1  0
 21 46  1  0
 22 47  1  0
 24 48  1  0
 25 49  1  0
 26 50  1  0
 27 51  1  0
M  END
>  <smiles>  (39) 
O=C(NCC(=O)N1CCCCC1c1cccc(Br)c1)c1ccc2ccccc2n1

>  <score_type>  (39) 
oracle

>  <origin>  (39) 
autodockgpu

>  <m_score__min__energy>  (39) 
-10.01

>  <m_primary>  (39) 
energy

>  <rmsd>  (39) 
8.286319775482898

>  <m_score__min__rmsd>  (39) 
8.286319775482898

>  <meeko>  (39) 
{"free_energy": -9.75, "intermolecular_energy": -11.25, "internal_energy": -1.33, "cluster_size": 22, "cluster_id": 1, "rank_in_cluster": 3}

>  <energy>  (39) 
-8.87

>  <cluster_rmsd>  (39) 
1.82

>  <cluster>  (39) 
2

$$$$

     RDKit          3D

 51 54  0  0  0  0  0  0  0  0999 V2000
  140.8610   71.3020  221.3720 O   0  0  0  0  0  0  0  0  0  0  0  0
  140.3670   71.9060  222.3420 C   0  0  0  0  0  0  0  0  0  0  0  0
  139.9890   73.2810  222.2740 N   0  0  0  0  0  0  0  0  0  0  0  0
  140.1790   74.0090  221.0370 C   0  0  0  0  0  0  0  0  0  0  0  0
  140.6940   75.3790  221.2790 C   0  0  0  0  0  0  0  0  0  0  0  0
  140.3530   75.9610  222.3390 O   0  0  0  0  0  0  0  0  0  0  0  0
  141.5390   75.9420  220.2920 N   0  0  0  0  0  0  0  0  0  0  0  0
  142.9320   75.5030  220.1020 C   0  0  0  0  0  0  0  0  0  0  0  0
  142.9490   74.6860  218.8320 C   0  0  0  0  0  0  0  0  0  0  0  0
  142.1600   75.3800  217.7810 C   0  0  0  0  0  0  0  0  0  0  0  0
  141.8660   76.8370  218.0600 C   0  0  0  0  0  0  0  0  0  0  0  0
  141.1120   76.9960  219.3750 C   0  0  2  0  0  0  0  0  0  0  0  0
  141.4020   78.3590  219.8780 C   0  0  0  0  0  0  0  0  0  0  0  0
  141.4850   79.4690  219.0460 C   0  0  0  0  0  0  0  0  0  0  0  0
  141.7660   80.7350  219.5180 C   0  0  0  0  0  0  0  0  0  0  0  0
  141.9820   80.9630  220.8570 C   0  0  0  0  0  0  0  0  0  0  0  0
  141.9050   79.8840  221.7030 C   0  0  0  0  0  0  0  0  0  0  0  0
  142.1990   80.1580  223.5820 Br  0  0  0  0  0  0  0  0  0  0  0  0
  141.6210   78.6020  221.2250 C   0  0  0  0  0  0  0  0  0  0  0  0
  140.1590   71.1950  223.6190 C   0  0  0  0  0  0  0  0  0  0  0  0
  139.5140   69.9790  223.6320 C   0  0  0  0  0  0  0  0  0  0  0  0
  139.2980   69.2780  224.8130 C   0  0  0  0  0  0  0  0  0  0  0  0
  139.7600   69.8590  225.9760 C   0  0  0  0  0  0  0  0  0  0  0  0
  139.5450   69.1600  227.1600 C   0  0  0  0  0  0  0  0  0  0  0  0
  139.9920   69.7060  228.3440 C   0  0  0  0  0  0  0  0  0  0  0  0
  140.6320   70.9130  228.3440 C   0  0  0  0  0  0  0  0  0  0  0  0
  140.8480   71.6130  227.1610 C   0  0  0  0  0  0  0  0  0  0  0  0
  140.4080   71.0810  225.9660 C   0  0  0  0  0  0  0  0  0  0  0  0
  140.5830   71.7040  224.7810 N   0  0  0  0  0  0  0  0  0  0  0  0
  139.5720   73.7520  223.1270 H   0  0  0  0  0  0  0  0  0  0  0  0
  140.8991   73.4634  220.4095 H   0  0  0  0  0  0  0  0  0  0  0  0
  139.2034   74.0934  220.5360 H   0  0  0  0  0  0  0  0  0  0  0  0
  143.5960   76.3744  220.0033 H   0  0  0  0  0  0  0  0  0  0  0  0
  143.2866   74.9144  220.9610 H   0  0  0  0  0  0  0  0  0  0  0  0
  143.9871   74.5638  218.4894 H   0  0  0  0  0  0  0  0  0  0  0  0
  142.5066   73.6981  219.0277 H   0  0  0  0  0  0  0  0  0  0  0  0
  142.7217   75.3199  216.8371 H   0  0  0  0  0  0  0  0  0  0  0  0
  141.1853   74.8716  217.7424 H   0  0  0  0  0  0  0  0  0  0  0  0
  142.8144   77.3912  218.1190 H   0  0  0  0  0  0  0  0  0  0  0  0
  141.2409   77.2323  217.2457 H   0  0  0  0  0  0  0  0  0  0  0  0
  140.0231   76.8916  219.2593 H   0  0  0  0  0  0  0  0  0  0  0  0
  141.3200   79.3329  217.9670 H   0  0  0  0  0  0  0  0  0  0  0  0
  141.8181   81.5762  218.8111 H   0  0  0  0  0  0  0  0  0  0  0  0
  142.2077   81.9708  221.2357 H   0  0  0  0  0  0  0  0  0  0  0  0
  141.5699   77.7641  221.9359 H   0  0  0  0  0  0  0  0  0  0  0  0
  139.1601   69.5505  222.6827 H   0  0  0  0  0  0  0  0  0  0  0  0
  138.7831   68.3060  224.8199 H   0  0  0  0  0  0  0  0  0  0  0  0
  139.0277   68.1893  227.1511 H   0  0  0  0  0  0  0  0  0  0  0  0
  139.8331   69.1689  229.2907 H   0  0  0  0  0  0  0  0  0  0  0  0
  140.9826   71.3388  229.2957 H   0  0  0  0  0  0  0  0  0  0  0  0
  141.3657   72.5834  227.1781 H   0  0  0  0  0  0  0  0  0  0  0  0
  1  2  2  0
  2  3  1  0
  3  4  1  0
  4  5  1  0
  5  6  2  0
  5  7  1  0
  7  8  1  0
  8  9  1  0
  9 10  1  0
 10 11  1  0
 11 12  1  0
 12 13  1  0
 13 14  2  0
 14 15  1  0
 15 16  2  0
 16 17  1  0
 17 18  1  0
 17 19  2  0
  2 20  1  0
 20 21  2  0
 21 22  1  0
 22 23  2  0
 23 24  1  0
 24 25  2  0
 25 26  1  0
 26 27  2  0
 27 28  1  0
 28 29  2  0
 12  7  1  0
 19 13  1  0
 29 20  1  0
 28 23  1  0
  3 30  1  0
  4 31  1  0
  4 32  1  0
  8 33  1  0
  8 34  1  0
  9 35  1  0
  9 36  1  0
 10 37  1  0
 10 38  1  0
 11 39  1  0
 11 40  1  0
 12 41  1  6
 14 42  1  0
 15 43  1  0
 16 44  1  0
 19 45  1  0
 21 46  1  0
 22 47  1  0
 24 48  1  0
 25 49  1  0
 26 50  1  0
 27 51  1  0
M  END
>  <smiles>  (40) 
O=C(NCC(=O)N1CCCCC1c1cccc(Br)c1)c1ccc2ccccc2n1

>  <score_type>  (40) 
oracle

>  <origin>  (40) 
autodockgpu

>  <m_score__min__energy>  (40) 
-10.01

>  <m_primary>  (40) 
energy

>  <rmsd>  (40) 
2.114273728940234

>  <m_score__min__rmsd>  (40) 
2.114273728940234

>  <meeko>  (40) 
{"free_energy": -9.11, "intermolecular_energy": -10.61, "internal_energy": -1.75, "cluster_size": 20, "cluster_id": 2, "rank_in_cluster": 11}

>  <energy>  (40) 
-8.83

>  <cluster_rmsd>  (40) 
0.96

>  <cluster>  (40) 
2

$$$$

     RDKit          3D

 51 54  0  0  0  0  0  0  0  0999 V2000
  141.7900   72.9520  221.0440 O   0  0  0  0  0  0  0  0  0  0  0  0
  140.9760   73.7210  221.5880 C   0  0  0  0  0  0  0  0  0  0  0  0
  139.8650   73.2440  222.3480 N   0  0  0  0  0  0  0  0  0  0  0  0
  139.6680   71.8180  222.4990 C   0  0  0  0  0  0  0  0  0  0  0  0
  138.2900   71.4980  222.9440 C   0  0  0  0  0  0  0  0  0  0  0  0
  137.4310   72.4140  222.9190 O   0  0  0  0  0  0  0  0  0  0  0  0
  138.0330   70.1720  223.3710 N   0  0  0  0  0  0  0  0  0  0  0  0
  136.6720   69.6820  223.6470 C   0  0  0  0  0  0  0  0  0  0  0  0
  136.3080   68.7730  222.4970 C   0  0  0  0  0  0  0  0  0  0  0  0
  137.4530   67.8770  222.1860 C   0  0  0  0  0  0  0  0  0  0  0  0
  138.5110   67.7950  223.2640 C   0  0  0  0  0  0  0  0  0  0  0  0
  139.0820   69.1750  223.5700 C   0  0  2  0  0  0  0  0  0  0  0  0
  139.5920   69.1340  224.9600 C   0  0  0  0  0  0  0  0  0  0  0  0
  139.6860   67.9590  225.6950 C   0  0  0  0  0  0  0  0  0  0  0  0
  140.1510   67.9270  226.9940 C   0  0  0  0  0  0  0  0  0  0  0  0
  140.5510   69.0770  227.6340 C   0  0  0  0  0  0  0  0  0  0  0  0
  140.4700   70.2540  226.9300 C   0  0  0  0  0  0  0  0  0  0  0  0
  141.0180   71.8840  227.7870 Br  0  0  0  0  0  0  0  0  0  0  0  0
  139.9980   70.2860  225.6160 C   0  0  0  0  0  0  0  0  0  0  0  0
  141.1460   75.1800  221.4550 C   0  0  0  0  0  0  0  0  0  0  0  0
  141.9390   75.6930  220.4510 C   0  0  0  0  0  0  0  0  0  0  0  0
  142.1250   77.0610  220.2920 C   0  0  0  0  0  0  0  0  0  0  0  0
  141.4790   77.8870  221.1890 C   0  0  0  0  0  0  0  0  0  0  0  0
  141.6630   79.2570  221.0330 C   0  0  0  0  0  0  0  0  0  0  0  0
  141.0340   80.1150  221.9080 C   0  0  0  0  0  0  0  0  0  0  0  0
  140.2460   79.6200  222.9080 C   0  0  0  0  0  0  0  0  0  0  0  0
  140.0610   78.2500  223.0660 C   0  0  0  0  0  0  0  0  0  0  0  0
  140.6830   77.3750  222.1980 C   0  0  0  0  0  0  0  0  0  0  0  0
  140.5470   76.0350  222.2920 N   0  0  0  0  0  0  0  0  0  0  0  0
  139.2000   73.9390  222.7930 H   0  0  0  0  0  0  0  0  0  0  0  0
  139.8528   71.3283  221.5315 H   0  0  0  0  0  0  0  0  0  0  0  0
  140.3685   71.4546  223.2653 H   0  0  0  0  0  0  0  0  0  0  0  0
  136.6529   69.1238  224.5946 H   0  0  0  0  0  0  0  0  0  0  0  0
  135.9586   70.5140  223.7406 H   0  0  0  0  0  0  0  0  0  0  0  0
  135.4331   68.1662  222.7731 H   0  0  0  0  0  0  0  0  0  0  0  0
  136.0703   69.3817  221.6121 H   0  0  0  0  0  0  0  0  0  0  0  0
  137.0580   66.8643  222.0177 H   0  0  0  0  0  0  0  0  0  0  0  0
  137.9474   68.3052  221.3016 H   0  0  0  0  0  0  0  0  0  0  0  0
  138.0623   67.3797  224.1785 H   0  0  0  0  0  0  0  0  0  0  0  0
  139.3262   67.1476  222.9087 H   0  0  0  0  0  0  0  0  0  0  0  0
  139.9116   69.4526  222.9032 H   0  0  0  0  0  0  0  0  0  0  0  0
  139.3771   67.0151  225.2221 H   0  0  0  0  0  0  0  0  0  0  0  0
  140.2026   66.9658  227.5264 H   0  0  0  0  0  0  0  0  0  0  0  0
  140.9214   69.0551  228.6695 H   0  0  0  0  0  0  0  0  0  0  0  0
  139.9471   71.2497  225.0881 H   0  0  0  0  0  0  0  0  0  0  0  0
  142.4381   75.0008  219.7569 H   0  0  0  0  0  0  0  0  0  0  0  0
  142.7576   77.4664  219.4886 H   0  0  0  0  0  0  0  0  0  0  0  0
  142.2993   79.6481  220.2255 H   0  0  0  0  0  0  0  0  0  0  0  0
  141.1666   81.2017  221.8012 H   0  0  0  0  0  0  0  0  0  0  0  0
  139.7494   80.3161  223.6000 H   0  0  0  0  0  0  0  0  0  0  0  0
  139.4238   77.8669  223.8766 H   0  0  0  0  0  0  0  0  0  0  0  0
  1  2  2  0
  2  3  1  0
  3  4  1  0
  4  5  1  0
  5  6  2  0
  5  7  1  0
  7  8  1  0
  8  9  1  0
  9 10  1  0
 10 11  1  0
 11 12  1  0
 12 13  1  0
 13 14  2  0
 14 15  1  0
 15 16  2  0
 16 17  1  0
 17 18  1  0
 17 19  2  0
  2 20  1  0
 20 21  2  0
 21 22  1  0
 22 23  2  0
 23 24  1  0
 24 25  2  0
 25 26  1  0
 26 27  2  0
 27 28  1  0
 28 29  2  0
 12  7  1  0
 19 13  1  0
 29 20  1  0
 28 23  1  0
  3 30  1  0
  4 31  1  0
  4 32  1  0
  8 33  1  0
  8 34  1  0
  9 35  1  0
  9 36  1  0
 10 37  1  0
 10 38  1  0
 11 39  1  0
 11 40  1  0
 12 41  1  6
 14 42  1  0
 15 43  1  0
 16 44  1  0
 19 45  1  0
 21 46  1  0
 22 47  1  0
 24 48  1  0
 25 49  1  0
 26 50  1  0
 27 51  1  0
M  END
>  <smiles>  (41) 
O=C(NCC(=O)N1CCCCC1c1cccc(Br)c1)c1ccc2ccccc2n1

>  <score_type>  (41) 
oracle

>  <origin>  (41) 
autodockgpu

>  <m_score__min__energy>  (41) 
-10.01

>  <m_primary>  (41) 
energy

>  <rmsd>  (41) 
8.426854993219887

>  <m_score__min__rmsd>  (41) 
8.426854993219887

>  <meeko>  (41) 
{"free_energy": -8.84, "intermolecular_energy": -10.33, "internal_energy": -2.06, "cluster_size": 22, "cluster_id": 1, "rank_in_cluster": 21}

>  <energy>  (41) 
-8.81

>  <cluster_rmsd>  (41) 
1.36

>  <cluster>  (41) 
2

$$$$

     RDKit          3D

 51 54  0  0  0  0  0  0  0  0999 V2000
  137.3240   75.8690  222.7500 O   0  0  0  0  0  0  0  0  0  0  0  0
  138.5400   76.0530  222.5550 C   0  0  0  0  0  0  0  0  0  0  0  0
  139.4180   74.9980  222.1600 N   0  0  0  0  0  0  0  0  0  0  0  0
  138.8880   73.6640  221.9760 C   0  0  0  0  0  0  0  0  0  0  0  0
  139.7880   72.6310  222.5440 C   0  0  0  0  0  0  0  0  0  0  0  0
  141.0260   72.7740  222.3880 O   0  0  0  0  0  0  0  0  0  0  0  0
  139.1880   71.5460  223.2280 N   0  0  0  0  0  0  0  0  0  0  0  0
  137.7330   71.4480  223.4300 C   0  0  0  0  0  0  0  0  0  0  0  0
  137.2440   70.3770  222.4830 C   0  0  0  0  0  0  0  0  0  0  0  0
  138.1570   69.2070  222.5400 C   0  0  0  0  0  0  0  0  0  0  0  0
  139.0830   69.1740  223.7350 C   0  0  0  0  0  0  0  0  0  0  0  0
  139.9470   70.4290  223.7860 C   0  0  2  0  0  0  0  0  0  0  0  0
  140.3290   70.6340  225.2020 C   0  0  0  0  0  0  0  0  0  0  0  0
  140.7130   71.8690  225.7100 C   0  0  0  0  0  0  0  0  0  0  0  0
  141.0800   72.0530  227.0270 C   0  0  0  0  0  0  0  0  0  0  0  0
  141.0820   71.0050  227.9170 C   0  0  0  0  0  0  0  0  0  0  0  0
  140.7050   69.7720  227.4440 C   0  0  0  0  0  0  0  0  0  0  0  0
  140.6950   68.2800  228.6540 Br  0  0  0  0  0  0  0  0  0  0  0  0
  140.3350   69.5850  226.1090 C   0  0  0  0  0  0  0  0  0  0  0  0
  139.1150   77.4000  222.7330 C   0  0  0  0  0  0  0  0  0  0  0  0
  138.2860   78.4950  222.8290 C   0  0  0  0  0  0  0  0  0  0  0  0
  138.7870   79.7800  222.9970 C   0  0  0  0  0  0  0  0  0  0  0  0
  140.1600   79.9110  223.0630 C   0  0  0  0  0  0  0  0  0  0  0  0
  140.6660   81.1960  223.2310 C   0  0  0  0  0  0  0  0  0  0  0  0
  142.0310   81.3680  223.3010 C   0  0  0  0  0  0  0  0  0  0  0  0
  142.8640   80.2900  223.2050 C   0  0  0  0  0  0  0  0  0  0  0  0
  142.3600   79.0040  223.0380 C   0  0  0  0  0  0  0  0  0  0  0  0
  140.9950   78.8130  222.9660 C   0  0  0  0  0  0  0  0  0  0  0  0
  140.4370   77.5940  222.8040 N   0  0  0  0  0  0  0  0  0  0  0  0
  140.4460   75.2040  222.0060 H   0  0  0  0  0  0  0  0  0  0  0  0
  137.9099   73.5975  222.4749 H   0  0  0  0  0  0  0  0  0  0  0  0
  138.7940   73.4792  220.8957 H   0  0  0  0  0  0  0  0  0  0  0  0
  137.5110   71.1669  224.4700 H   0  0  0  0  0  0  0  0  0  0  0  0
  137.2369   72.4103  223.2354 H   0  0  0  0  0  0  0  0  0  0  0  0
  136.2304   70.0650  222.7751 H   0  0  0  0  0  0  0  0  0  0  0  0
  137.2253   70.7763  221.4582 H   0  0  0  0  0  0  0  0  0  0  0  0
  137.5418   68.2953  222.5602 H   0  0  0  0  0  0  0  0  0  0  0  0
  138.8036   69.2794  221.6531 H   0  0  0  0  0  0  0  0  0  0  0  0
  138.4827   69.1120  224.6547 H   0  0  0  0  0  0  0  0  0  0  0  0
  139.7408   68.2968  223.6469 H   0  0  0  0  0  0  0  0  0  0  0  0
  140.8650   70.3407  223.1865 H   0  0  0  0  0  0  0  0  0  0  0  0
  140.7248   72.7364  225.0336 H   0  0  0  0  0  0  0  0  0  0  0  0
  141.3760   73.0550  227.3709 H   0  0  0  0  0  0  0  0  0  0  0  0
  141.3744   71.1486  228.9677 H   0  0  0  0  0  0  0  0  0  0  0  0
  140.0413   68.5808  225.7695 H   0  0  0  0  0  0  0  0  0  0  0  0
  137.1973   78.3485  222.7711 H   0  0  0  0  0  0  0  0  0  0  0  0
  138.1211   80.6521  223.0738 H   0  0  0  0  0  0  0  0  0  0  0  0
  139.9883   82.0591  223.3066 H   0  0  0  0  0  0  0  0  0  0  0  0
  142.4510   82.3759  223.4345 H   0  0  0  0  0  0  0  0  0  0  0  0
  143.9521   80.4411  223.2607 H   0  0  0  0  0  0  0  0  0  0  0  0
  143.0443   78.1459  222.9639 H   0  0  0  0  0  0  0  0  0  0  0  0
  1  2  2  0
  2  3  1  0
  3  4  1  0
  4  5  1  0
  5  6  2  0
  5  7  1  0
  7  8  1  0
  8  9  1  0
  9 10  1  0
 10 11  1  0
 11 12  1  0
 12 13  1  0
 13 14  2  0
 14 15  1  0
 15 16  2  0
 16 17  1  0
 17 18  1  0
 17 19  2  0
  2 20  1  0
 20 21  2  0
 21 22  1  0
 22 23  2  0
 23 24  1  0
 24 25  2  0
 25 26  1  0
 26 27  2  0
 27 28  1  0
 28 29  2  0
 12  7  1  0
 19 13  1  0
 29 20  1  0
 28 23  1  0
  3 30  1  0
  4 31  1  0
  4 32  1  0
  8 33  1  0
  8 34  1  0
  9 35  1  0
  9 36  1  0
 10 37  1  0
 10 38  1  0
 11 39  1  0
 11 40  1  0
 12 41  1  6
 14 42  1  0
 15 43  1  0
 16 44  1  0
 19 45  1  0
 21 46  1  0
 22 47  1  0
 24 48  1  0
 25 49  1  0
 26 50  1  0
 27 51  1  0
M  END
>  <smiles>  (42) 
O=C(NCC(=O)N1CCCCC1c1cccc(Br)c1)c1ccc2ccccc2n1

>  <score_type>  (42) 
oracle

>  <origin>  (42) 
autodockgpu

>  <m_score__min__energy>  (42) 
-10.01

>  <m_primary>  (42) 
energy

>  <rmsd>  (42) 
8.491618648361024

>  <m_score__min__rmsd>  (42) 
8.491618648361024

>  <meeko>  (42) 
{"free_energy": -9.28, "intermolecular_energy": -10.77, "internal_energy": -1.86, "cluster_size": 22, "cluster_id": 1, "rank_in_cluster": 11}

>  <energy>  (42) 
-8.4

>  <cluster_rmsd>  (42) 
1.64

>  <cluster>  (42) 
2

$$$$

     RDKit          3D

 51 54  0  0  0  0  0  0  0  0999 V2000
  137.3390   75.9610  222.5070 O   0  0  0  0  0  0  0  0  0  0  0  0
  138.5740   76.1200  222.4720 C   0  0  0  0  0  0  0  0  0  0  0  0
  139.4750   75.0450  222.2060 N   0  0  0  0  0  0  0  0  0  0  0  0
  138.9460   73.7180  221.9650 C   0  0  0  0  0  0  0  0  0  0  0  0
  139.8220   72.6650  222.5360 C   0  0  0  0  0  0  0  0  0  0  0  0
  141.0640   72.7810  222.3830 O   0  0  0  0  0  0  0  0  0  0  0  0
  139.1960   71.5940  223.2180 N   0  0  0  0  0  0  0  0  0  0  0  0
  137.7390   71.5270  223.4140 C   0  0  0  0  0  0  0  0  0  0  0  0
  137.2320   70.4660  222.4660 C   0  0  0  0  0  0  0  0  0  0  0  0
  138.1210   69.2760  222.5280 C   0  0  0  0  0  0  0  0  0  0  0  0
  139.0390   69.2260  223.7270 C   0  0  0  0  0  0  0  0  0  0  0  0
  139.9290   70.4620  223.7810 C   0  0  2  0  0  0  0  0  0  0  0  0
  140.3100   70.6610  225.1980 C   0  0  0  0  0  0  0  0  0  0  0  0
  140.6870   71.8950  225.7130 C   0  0  0  0  0  0  0  0  0  0  0  0
  141.0520   72.0730  227.0320 C   0  0  0  0  0  0  0  0  0  0  0  0
  141.0590   71.0200  227.9160 C   0  0  0  0  0  0  0  0  0  0  0  0
  140.6890   69.7870  227.4350 C   0  0  0  0  0  0  0  0  0  0  0  0
  140.6860   68.2880  228.6360 Br  0  0  0  0  0  0  0  0  0  0  0  0
  140.3210   69.6070  226.0990 C   0  0  0  0  0  0  0  0  0  0  0  0
  139.1470   77.4580  222.7120 C   0  0  0  0  0  0  0  0  0  0  0  0
  138.3160   78.5420  222.8870 C   0  0  0  0  0  0  0  0  0  0  0  0
  138.8160   79.8180  223.1150 C   0  0  0  0  0  0  0  0  0  0  0  0
  140.1890   79.9520  223.1580 C   0  0  0  0  0  0  0  0  0  0  0  0
  140.6930   81.2280  223.3860 C   0  0  0  0  0  0  0  0  0  0  0  0
  142.0590   81.4030  223.4360 C   0  0  0  0  0  0  0  0  0  0  0  0
  142.8940   80.3360  223.2620 C   0  0  0  0  0  0  0  0  0  0  0  0
  142.3920   79.0590  223.0340 C   0  0  0  0  0  0  0  0  0  0  0  0
  141.0260   78.8650  222.9820 C   0  0  0  0  0  0  0  0  0  0  0  0
  140.4700   77.6540  222.7650 N   0  0  0  0  0  0  0  0  0  0  0  0
  140.5180   75.2290  222.1860 H   0  0  0  0  0  0  0  0  0  0  0  0
  137.9503   73.6421  222.4264 H   0  0  0  0  0  0  0  0  0  0  0  0
  138.8896   73.5640  220.8773 H   0  0  0  0  0  0  0  0  0  0  0  0
  137.5068   71.2515  224.4533 H   0  0  0  0  0  0  0  0  0  0  0  0
  137.2640   72.4993  223.2168 H   0  0  0  0  0  0  0  0  0  0  0  0
  136.2108   70.1755  222.7539 H   0  0  0  0  0  0  0  0  0  0  0  0
  137.2261   70.8647  221.4408 H   0  0  0  0  0  0  0  0  0  0  0  0
  137.4871   68.3772  222.5459 H   0  0  0  0  0  0  0  0  0  0  0  0
  138.7731   69.3333  221.6440 H   0  0  0  0  0  0  0  0  0  0  0  0
  138.4325   69.1783  224.6435 H   0  0  0  0  0  0  0  0  0  0  0  0
  139.6787   68.3350  223.6435 H   0  0  0  0  0  0  0  0  0  0  0  0
  140.8478   70.3533  223.1861 H   0  0  0  0  0  0  0  0  0  0  0  0
  140.6949   72.7663  225.0416 H   0  0  0  0  0  0  0  0  0  0  0  0
  141.3423   73.0746  227.3821 H   0  0  0  0  0  0  0  0  0  0  0  0
  141.3496   71.1591  228.9678 H   0  0  0  0  0  0  0  0  0  0  0  0
  140.0326   68.6034  225.7532 H   0  0  0  0  0  0  0  0  0  0  0  0
  137.2269   78.3936  222.8451 H   0  0  0  0  0  0  0  0  0  0  0  0
  138.1487   80.6813  223.2548 H   0  0  0  0  0  0  0  0  0  0  0  0
  140.0136   82.0820  223.5239 H   0  0  0  0  0  0  0  0  0  0  0  0
  142.4779   82.4040  223.6164 H   0  0  0  0  0  0  0  0  0  0  0  0
  143.9825   80.4894  223.3029 H   0  0  0  0  0  0  0  0  0  0  0  0
  143.0780   78.2102  222.8962 H   0  0  0  0  0  0  0  0  0  0  0  0
  1  2  2  0
  2  3  1  0
  3  4  1  0
  4  5  1  0
  5  6  2  0
  5  7  1  0
  7  8  1  0
  8  9  1  0
  9 10  1  0
 10 11  1  0
 11 12  1  0
 12 13  1  0
 13 14  2  0
 14 15  1  0
 15 16  2  0
 16 17  1  0
 17 18  1  0
 17 19  2  0
  2 20  1  0
 20 21  2  0
 21 22  1  0
 22 23  2  0
 23 24  1  0
 24 25  2  0
 25 26  1  0
 26 27  2  0
 27 28  1  0
 28 29  2  0
 12  7  1  0
 19 13  1  0
 29 20  1  0
 28 23  1  0
  3 30  1  0
  4 31  1  0
  4 32  1  0
  8 33  1  0
  8 34  1  0
  9 35  1  0
  9 36  1  0
 10 37  1  0
 10 38  1  0
 11 39  1  0
 11 40  1  0
 12 41  1  6
 14 42  1  0
 15 43  1  0
 16 44  1  0
 19 45  1  0
 21 46  1  0
 22 47  1  0
 24 48  1  0
 25 49  1  0
 26 50  1  0
 27 51  1  0
M  END
>  <smiles>  (43) 
O=C(NCC(=O)N1CCCCC1c1cccc(Br)c1)c1ccc2ccccc2n1

>  <score_type>  (43) 
oracle

>  <origin>  (43) 
autodockgpu

>  <m_score__min__energy>  (43) 
-10.01

>  <m_primary>  (43) 
energy

>  <rmsd>  (43) 
8.490741904608242

>  <m_score__min__rmsd>  (43) 
8.490741904608242

>  <meeko>  (43) 
{"free_energy": -9.33, "intermolecular_energy": -10.82, "internal_energy": -1.89, "cluster_size": 22, "cluster_id": 1, "rank_in_cluster": 10}

>  <energy>  (43) 
-9.12

>  <cluster_rmsd>  (43) 
0.0

>  <cluster>  (43) 
3

$$$$

     RDKit          3D

 51 54  0  0  0  0  0  0  0  0999 V2000
  139.8750   74.6950  219.8420 O   0  0  0  0  0  0  0  0  0  0  0  0
  139.9450   75.1600  220.9950 C   0  0  0  0  0  0  0  0  0  0  0  0
  139.4460   74.4590  222.1340 N   0  0  0  0  0  0  0  0  0  0  0  0
  138.8340   73.1580  221.9550 C   0  0  0  0  0  0  0  0  0  0  0  0
  139.4890   72.1230  222.7910 C   0  0  0  0  0  0  0  0  0  0  0  0
  140.7020   72.2750  223.0800 O   0  0  0  0  0  0  0  0  0  0  0  0
  138.6990   71.0250  223.2100 N   0  0  0  0  0  0  0  0  0  0  0  0
  137.2460   71.1350  223.4250 C   0  0  0  0  0  0  0  0  0  0  0  0
  136.5910   70.4270  222.2610 C   0  0  0  0  0  0  0  0  0  0  0  0
  137.2850   69.1380  222.0070 C   0  0  0  0  0  0  0  0  0  0  0  0
  138.1730   68.6570  223.1320 C   0  0  0  0  0  0  0  0  0  0  0  0
  139.2430   69.6920  223.4600 C   0  0  2  0  0  0  0  0  0  0  0  0
  139.6350   69.4780  224.8720 C   0  0  0  0  0  0  0  0  0  0  0  0
  139.5660   68.2380  225.4950 C   0  0  0  0  0  0  0  0  0  0  0  0
  139.9210   68.0460  226.8150 C   0  0  0  0  0  0  0  0  0  0  0  0
  140.3700   69.0890  227.5890 C   0  0  0  0  0  0  0  0  0  0  0  0
  140.4500   70.3270  226.9990 C   0  0  0  0  0  0  0  0  0  0  0  0
  141.0720   71.8130  228.0460 Br  0  0  0  0  0  0  0  0  0  0  0  0
  140.0890   70.5220  225.6630 C   0  0  0  0  0  0  0  0  0  0  0  0
  140.5630   76.4820  221.2140 C   0  0  0  0  0  0  0  0  0  0  0  0
  140.9590   77.2440  220.1380 C   0  0  0  0  0  0  0  0  0  0  0  0
  141.5450   78.4940  220.3010 C   0  0  0  0  0  0  0  0  0  0  0  0
  141.7130   78.9380  221.5970 C   0  0  0  0  0  0  0  0  0  0  0  0
  142.2990   80.1890  221.7650 C   0  0  0  0  0  0  0  0  0  0  0  0
  142.4840   80.6690  223.0430 C   0  0  0  0  0  0  0  0  0  0  0  0
  142.0970   79.9230  224.1190 C   0  0  0  0  0  0  0  0  0  0  0  0
  141.5100   78.6720  223.9530 C   0  0  0  0  0  0  0  0  0  0  0  0
  141.3170   78.1750  222.6800 C   0  0  0  0  0  0  0  0  0  0  0  0
  140.7540   76.9700  222.4450 N   0  0  0  0  0  0  0  0  0  0  0  0
  139.5300   74.8960  223.0950 H   0  0  0  0  0  0  0  0  0  0  0  0
  137.7721   73.2223  222.2346 H   0  0  0  0  0  0  0  0  0  0  0  0
  138.9475   72.8683  220.8999 H   0  0  0  0  0  0  0  0  0  0  0  0
  136.9634   70.6526  224.3723 H   0  0  0  0  0  0  0  0  0  0  0  0
  136.9286   72.1866  223.4837 H   0  0  0  0  0  0  0  0  0  0  0  0
  135.5344   70.2334  222.4979 H   0  0  0  0  0  0  0  0  0  0  0  0
  136.6573   71.0604  221.3641 H   0  0  0  0  0  0  0  0  0  0  0  0
  136.5200   68.3691  221.8237 H   0  0  0  0  0  0  0  0  0  0  0  0
  137.9470   69.3102  221.1455 H   0  0  0  0  0  0  0  0  0  0  0  0
  137.5574   68.4794  224.0262 H   0  0  0  0  0  0  0  0  0  0  0  0
  138.6683   67.7270  222.8161 H   0  0  0  0  0  0  0  0  0  0  0  0
  140.1403   69.5936  222.8313 H   0  0  0  0  0  0  0  0  0  0  0  0
  139.2140   67.3739  224.9124 H   0  0  0  0  0  0  0  0  0  0  0  0
  139.8432   67.0408  227.2550 H   0  0  0  0  0  0  0  0  0  0  0  0
  140.6545   68.9383  228.6408 H   0  0  0  0  0  0  0  0  0  0  0  0
  140.1671   71.5294  225.2281 H   0  0  0  0  0  0  0  0  0  0  0  0
  140.8075   76.8529  219.1211 H   0  0  0  0  0  0  0  0  0  0  0  0
  141.8596   79.1001  219.4386 H   0  0  0  0  0  0  0  0  0  0  0  0
  142.6089   80.7838  220.8931 H   0  0  0  0  0  0  0  0  0  0  0  0
  142.9447   81.6559  223.1969 H   0  0  0  0  0  0  0  0  0  0  0  0
  142.2517   80.3173  225.1342 H   0  0  0  0  0  0  0  0  0  0  0  0
  141.2021   78.0837  224.8300 H   0  0  0  0  0  0  0  0  0  0  0  0
  1  2  2  0
  2  3  1  0
  3  4  1  0
  4  5  1  0
  5  6  2  0
  5  7  1  0
  7  8  1  0
  8  9  1  0
  9 10  1  0
 10 11  1  0
 11 12  1  0
 12 13  1  0
 13 14  2  0
 14 15  1  0
 15 16  2  0
 16 17  1  0
 17 18  1  0
 17 19  2  0
  2 20  1  0
 20 21  2  0
 21 22  1  0
 22 23  2  0
 23 24  1  0
 24 25  2  0
 25 26  1  0
 26 27  2  0
 27 28  1  0
 28 29  2  0
 12  7  1  0
 19 13  1  0
 29 20  1  0
 28 23  1  0
  3 30  1  0
  4 31  1  0
  4 32  1  0
  8 33  1  0
  8 34  1  0
  9 35  1  0
  9 36  1  0
 10 37  1  0
 10 38  1  0
 11 39  1  0
 11 40  1  0
 12 41  1  6
 14 42  1  0
 15 43  1  0
 16 44  1  0
 19 45  1  0
 21 46  1  0
 22 47  1  0
 24 48  1  0
 25 49  1  0
 26 50  1  0
 27 51  1  0
M  END
>  <smiles>  (44) 
O=C(NCC(=O)N1CCCCC1c1cccc(Br)c1)c1ccc2ccccc2n1

>  <score_type>  (44) 
oracle

>  <origin>  (44) 
autodockgpu

>  <m_score__min__energy>  (44) 
-10.01

>  <m_primary>  (44) 
energy

>  <rmsd>  (44) 
8.328651332075971

>  <m_score__min__rmsd>  (44) 
8.328651332075971

>  <meeko>  (44) 
{"free_energy": -9.36, "intermolecular_energy": -10.85, "internal_energy": -1.69, "cluster_size": 22, "cluster_id": 1, "rank_in_cluster": 8}

>  <energy>  (44) 
-9.12

>  <cluster_rmsd>  (44) 
0.05

>  <cluster>  (44) 
3

$$$$

     RDKit          3D

 51 54  0  0  0  0  0  0  0  0999 V2000
  141.4540   72.2680  221.8350 O   0  0  0  0  0  0  0  0  0  0  0  0
  140.4270   72.3830  222.5290 C   0  0  0  0  0  0  0  0  0  0  0  0
  139.4050   73.3340  222.2280 N   0  0  0  0  0  0  0  0  0  0  0  0
  139.5570   74.2000  221.0780 C   0  0  0  0  0  0  0  0  0  0  0  0
  140.7670   75.0510  221.1860 C   0  0  0  0  0  0  0  0  0  0  0  0
  141.0000   75.6110  222.2860 O   0  0  0  0  0  0  0  0  0  0  0  0
  141.5830   75.1750  220.0360 N   0  0  0  0  0  0  0  0  0  0  0  0
  141.0820   74.8990  218.6790 C   0  0  0  0  0  0  0  0  0  0  0  0
  140.9190   76.2420  218.0070 C   0  0  0  0  0  0  0  0  0  0  0  0
  142.1100   77.0870  218.2820 C   0  0  0  0  0  0  0  0  0  0  0  0
  143.3180   76.3390  218.8000 C   0  0  0  0  0  0  0  0  0  0  0  0
  142.9830   75.5910  220.0850 C   0  0  2  0  0  0  0  0  0  0  0  0
  143.9260   74.4530  220.1820 C   0  0  0  0  0  0  0  0  0  0  0  0
  145.2510   74.6010  220.5710 C   0  0  0  0  0  0  0  0  0  0  0  0
  146.1300   73.5390  220.6490 C   0  0  0  0  0  0  0  0  0  0  0  0
  145.7280   72.2610  220.3400 C   0  0  0  0  0  0  0  0  0  0  0  0
  144.4220   72.0840  219.9520 C   0  0  0  0  0  0  0  0  0  0  0  0
  143.8200   70.3140  219.5110 Br  0  0  0  0  0  0  0  0  0  0  0  0
  143.5340   73.1590  219.8730 C   0  0  0  0  0  0  0  0  0  0  0  0
  140.2380   71.5160  223.7080 C   0  0  0  0  0  0  0  0  0  0  0  0
  139.5540   70.3270  223.5870 C   0  0  0  0  0  0  0  0  0  0  0  0
  139.3550   69.4830  224.6730 C   0  0  0  0  0  0  0  0  0  0  0  0
  139.8750   69.8930  225.8840 C   0  0  0  0  0  0  0  0  0  0  0  0
  139.6770   69.0500  226.9740 C   0  0  0  0  0  0  0  0  0  0  0  0
  140.1810   69.4230  228.2010 C   0  0  0  0  0  0  0  0  0  0  0  0
  140.8600   70.6010  228.3350 C   0  0  0  0  0  0  0  0  0  0  0  0
  141.0590   71.4440  227.2460 C   0  0  0  0  0  0  0  0  0  0  0  0
  140.5620   71.0870  226.0090 C   0  0  0  0  0  0  0  0  0  0  0  0
  140.7170   71.8560  224.9110 N   0  0  0  0  0  0  0  0  0  0  0  0
  138.5480   73.3930  222.8480 H   0  0  0  0  0  0  0  0  0  0  0  0
  139.6375   73.5797  220.1732 H   0  0  0  0  0  0  0  0  0  0  0  0
  138.6782   74.8596  221.0279 H   0  0  0  0  0  0  0  0  0  0  0  0
  141.8035   74.2807  218.1249 H   0  0  0  0  0  0  0  0  0  0  0  0
  140.1304   74.3479  218.7081 H   0  0  0  0  0  0  0  0  0  0  0  0
  140.8158   76.0976  216.9214 H   0  0  0  0  0  0  0  0  0  0  0  0
  140.0203   76.7397  218.4003 H   0  0  0  0  0  0  0  0  0  0  0  0
  142.3953   77.5897  217.3461 H   0  0  0  0  0  0  0  0  0  0  0  0
  141.8147   77.7845  219.0797 H   0  0  0  0  0  0  0  0  0  0  0  0
  143.6487   75.6172  218.0386 H   0  0  0  0  0  0  0  0  0  0  0  0
  144.1167   77.0647  219.0131 H   0  0  0  0  0  0  0  0  0  0  0  0
  143.0956   76.2144  220.9843 H   0  0  0  0  0  0  0  0  0  0  0  0
  145.6155   75.6066  220.8278 H   0  0  0  0  0  0  0  0  0  0  0  0
  147.1687   73.7183  220.9635 H   0  0  0  0  0  0  0  0  0  0  0  0
  146.4255   71.4126  220.4011 H   0  0  0  0  0  0  0  0  0  0  0  0
  142.4965   72.9746  219.5574 H   0  0  0  0  0  0  0  0  0  0  0  0
  139.1542   70.0374  222.6040 H   0  0  0  0  0  0  0  0  0  0  0  0
  138.8090   68.5334  224.5723 H   0  0  0  0  0  0  0  0  0  0  0  0
  139.1284   68.1037  226.8579 H   0  0  0  0  0  0  0  0  0  0  0  0
  140.0363   68.7707  229.0748 H   0  0  0  0  0  0  0  0  0  0  0  0
  141.2560   70.8878  229.3204 H   0  0  0  0  0  0  0  0  0  0  0  0
  141.6088   72.3886  227.3702 H   0  0  0  0  0  0  0  0  0  0  0  0
  1  2  2  0
  2  3  1  0
  3  4  1  0
  4  5  1  0
  5  6  2  0
  5  7  1  0
  7  8  1  0
  8  9  1  0
  9 10  1  0
 10 11  1  0
 11 12  1  0
 12 13  1  0
 13 14  2  0
 14 15  1  0
 15 16  2  0
 16 17  1  0
 17 18  1  0
 17 19  2  0
  2 20  1  0
 20 21  2  0
 21 22  1  0
 22 23  2  0
 23 24  1  0
 24 25  2  0
 25 26  1  0
 26 27  2  0
 27 28  1  0
 28 29  2  0
 12  7  1  0
 19 13  1  0
 29 20  1  0
 28 23  1  0
  3 30  1  0
  4 31  1  0
  4 32  1  0
  8 33  1  0
  8 34  1  0
  9 35  1  0
  9 36  1  0
 10 37  1  0
 10 38  1  0
 11 39  1  0
 11 40  1  0
 12 41  1  1
 14 42  1  0
 15 43  1  0
 16 44  1  0
 19 45  1  0
 21 46  1  0
 22 47  1  0
 24 48  1  0
 25 49  1  0
 26 50  1  0
 27 51  1  0
M  END
>  <smiles>  (45) 
O=C(NCC(=O)N1CCCCC1c1cccc(Br)c1)c1ccc2ccccc2n1

>  <score_type>  (45) 
oracle

>  <origin>  (45) 
autodockgpu

>  <m_score__min__energy>  (45) 
-10.01

>  <m_primary>  (45) 
energy

>  <rmsd>  (45) 
1.8195395531397178

>  <m_score__min__rmsd>  (45) 
1.8195395531397178

>  <meeko>  (45) 
{"free_energy": -9.12, "intermolecular_energy": -10.61, "internal_energy": -1.81, "cluster_size": 8, "cluster_id": 3, "rank_in_cluster": 2}

>  <energy>  (45) 
-9.08

>  <cluster_rmsd>  (45) 
0.31

>  <cluster>  (45) 
3

$$$$

     RDKit          3D

 51 54  0  0  0  0  0  0  0  0999 V2000
  139.4640   71.0630  221.3120 O   0  0  0  0  0  0  0  0  0  0  0  0
  139.5340   71.7940  222.3180 C   0  0  0  0  0  0  0  0  0  0  0  0
  139.3590   73.2090  222.2460 N   0  0  0  0  0  0  0  0  0  0  0  0
  139.0890   73.8280  220.9650 C   0  0  0  0  0  0  0  0  0  0  0  0
  139.3460   75.2890  220.9950 C   0  0  0  0  0  0  0  0  0  0  0  0
  138.3620   76.0610  221.0990 O   0  0  0  0  0  0  0  0  0  0  0  0
  140.6930   75.7160  220.9030 N   0  0  0  0  0  0  0  0  0  0  0  0
  141.8210   74.8630  221.3120 C   0  0  0  0  0  0  0  0  0  0  0  0
  142.4830   74.3940  220.0370 C   0  0  0  0  0  0  0  0  0  0  0  0
  142.6210   75.5370  219.0980 C   0  0  0  0  0  0  0  0  0  0  0  0
  142.4510   76.9030  219.7230 C   0  0  0  0  0  0  0  0  0  0  0  0
  141.0870   77.0270  220.3930 C   0  0  2  0  0  0  0  0  0  0  0  0
  141.2180   78.0510  221.4560 C   0  0  0  0  0  0  0  0  0  0  0  0
  141.3220   77.7310  222.8030 C   0  0  0  0  0  0  0  0  0  0  0  0
  141.4320   78.6880  223.7910 C   0  0  0  0  0  0  0  0  0  0  0  0
  141.4460   80.0280  223.4830 C   0  0  0  0  0  0  0  0  0  0  0  0
  141.3460   80.3740  222.1570 C   0  0  0  0  0  0  0  0  0  0  0  0
  141.3610   82.2360  221.6830 Br  0  0  0  0  0  0  0  0  0  0  0  0
  141.2330   79.4050  221.1580 C   0  0  0  0  0  0  0  0  0  0  0  0
  139.8070   71.1980  223.6390 C   0  0  0  0  0  0  0  0  0  0  0  0
  139.5530   69.8620  223.8580 C   0  0  0  0  0  0  0  0  0  0  0  0
  139.7960   69.2620  225.0880 C   0  0  0  0  0  0  0  0  0  0  0  0
  140.3040   70.0690  226.0850 C   0  0  0  0  0  0  0  0  0  0  0  0
  140.5490   69.4720  227.3180 C   0  0  0  0  0  0  0  0  0  0  0  0
  141.0570   70.2450  228.3400 C   0  0  0  0  0  0  0  0  0  0  0  0
  141.3110   71.5710  228.1370 C   0  0  0  0  0  0  0  0  0  0  0  0
  141.0670   72.1690  226.9050 C   0  0  0  0  0  0  0  0  0  0  0  0
  140.5590   71.4110  225.8690 C   0  0  0  0  0  0  0  0  0  0  0  0
  140.2990   71.9250  224.6480 N   0  0  0  0  0  0  0  0  0  0  0  0
  139.4260   73.7890  223.1300 H   0  0  0  0  0  0  0  0  0  0  0  0
  139.7361   73.3680  220.2036 H   0  0  0  0  0  0  0  0  0  0  0  0
  138.0265   73.6721  220.7266 H   0  0  0  0  0  0  0  0  0  0  0  0
  142.5330   75.4394  221.9210 H   0  0  0  0  0  0  0  0  0  0  0  0
  141.4790   74.0130  221.9207 H   0  0  0  0  0  0  0  0  0  0  0  0
  143.4789   73.9886  220.2692 H   0  0  0  0  0  0  0  0  0  0  0  0
  141.8663   73.6110  219.5716 H   0  0  0  0  0  0  0  0  0  0  0  0
  143.6240   75.4900  218.6487 H   0  0  0  0  0  0  0  0  0  0  0  0
  141.8078   75.4317  218.3648 H   0  0  0  0  0  0  0  0  0  0  0  0
  143.2379   77.0551  220.4765 H   0  0  0  0  0  0  0  0  0  0  0  0
  142.5253   77.6639  218.9321 H   0  0  0  0  0  0  0  0  0  0  0  0
  140.2963   77.3459  219.6979 H   0  0  0  0  0  0  0  0  0  0  0  0
  141.3165   76.6704  223.0948 H   0  0  0  0  0  0  0  0  0  0  0  0
  141.5098   78.3737  224.8423 H   0  0  0  0  0  0  0  0  0  0  0  0
  141.5339   80.7936  224.2680 H   0  0  0  0  0  0  0  0  0  0  0  0
  141.1539   79.7239  220.1082 H   0  0  0  0  0  0  0  0  0  0  0  0
  139.1466   69.2532  223.0369 H   0  0  0  0  0  0  0  0  0  0  0  0
  139.5929   68.1944  225.2584 H   0  0  0  0  0  0  0  0  0  0  0  0
  140.3411   68.4032  227.4741 H   0  0  0  0  0  0  0  0  0  0  0  0
  141.2584   69.7922  229.3220 H   0  0  0  0  0  0  0  0  0  0  0  0
  141.7154   72.1766  228.9615 H   0  0  0  0  0  0  0  0  0  0  0  0
  141.2774   73.2385  226.7572 H   0  0  0  0  0  0  0  0  0  0  0  0
  1  2  2  0
  2  3  1  0
  3  4  1  0
  4  5  1  0
  5  6  2  0
  5  7  1  0
  7  8  1  0
  8  9  1  0
  9 10  1  0
 10 11  1  0
 11 12  1  0
 12 13  1  0
 13 14  2  0
 14 15  1  0
 15 16  2  0
 16 17  1  0
 17 18  1  0
 17 19  2  0
  2 20  1  0
 20 21  2  0
 21 22  1  0
 22 23  2  0
 23 24  1  0
 24 25  2  0
 25 26  1  0
 26 27  2  0
 27 28  1  0
 28 29  2  0
 12  7  1  0
 19 13  1  0
 29 20  1  0
 28 23  1  0
  3 30  1  0
  4 31  1  0
  4 32  1  0
  8 33  1  0
  8 34  1  0
  9 35  1  0
  9 36  1  0
 10 37  1  0
 10 38  1  0
 11 39  1  0
 11 40  1  0
 12 41  1  6
 14 42  1  0
 15 43  1  0
 16 44  1  0
 19 45  1  0
 21 46  1  0
 22 47  1  0
 24 48  1  0
 25 49  1  0
 26 50  1  0
 27 51  1  0
M  END
>  <smiles>  (46) 
O=C(NCC(=O)N1CCCCC1c1cccc(Br)c1)c1ccc2ccccc2n1

>  <score_type>  (46) 
oracle

>  <origin>  (46) 
autodockgpu

>  <m_score__min__energy>  (46) 
-10.01

>  <m_primary>  (46) 
energy

>  <rmsd>  (46) 
2.1582977770134115

>  <m_score__min__rmsd>  (46) 
2.1582977770134115

>  <meeko>  (46) 
{"free_energy": -9.03, "intermolecular_energy": -10.52, "internal_energy": -1.68, "cluster_size": 20, "cluster_id": 2, "rank_in_cluster": 15}

>  <energy>  (46) 
-9.02

>  <cluster_rmsd>  (46) 
0.43

>  <cluster>  (46) 
3

$$$$

     RDKit          3D

 51 54  0  0  0  0  0  0  0  0999 V2000
  140.8560   75.2870  220.8470 O   0  0  0  0  0  0  0  0  0  0  0  0
  140.1160   75.6730  221.7710 C   0  0  0  0  0  0  0  0  0  0  0  0
  139.1220   74.8310  222.3560 N   0  0  0  0  0  0  0  0  0  0  0  0
  138.9590   73.4780  221.8650 C   0  0  0  0  0  0  0  0  0  0  0  0
  139.8350   72.5230  222.5880 C   0  0  0  0  0  0  0  0  0  0  0  0
  141.0780   72.6870  222.5130 O   0  0  0  0  0  0  0  0  0  0  0  0
  139.2060   71.4830  223.3150 N   0  0  0  0  0  0  0  0  0  0  0  0
  137.7540   71.4540  223.5560 C   0  0  0  0  0  0  0  0  0  0  0  0
  137.1960   70.3810  222.6510 C   0  0  0  0  0  0  0  0  0  0  0  0
  138.0600   69.1740  222.7160 C   0  0  0  0  0  0  0  0  0  0  0  0
  139.0140   69.1330  223.8890 C   0  0  0  0  0  0  0  0  0  0  0  0
  139.9310   70.3500  223.8840 C   0  0  2  0  0  0  0  0  0  0  0  0
  140.3590   70.5750  225.2850 C   0  0  0  0  0  0  0  0  0  0  0  0
  140.6550   71.8340  225.7910 C   0  0  0  0  0  0  0  0  0  0  0  0
  141.0640   72.0380  227.0930 C   0  0  0  0  0  0  0  0  0  0  0  0
  141.2000   70.9860  227.9680 C   0  0  0  0  0  0  0  0  0  0  0  0
  140.9120   69.7280  227.4950 C   0  0  0  0  0  0  0  0  0  0  0  0
  141.0890   68.2300  228.6850 Br  0  0  0  0  0  0  0  0  0  0  0  0
  140.4990   69.5220  226.1770 C   0  0  0  0  0  0  0  0  0  0  0  0
  140.2550   77.0450  222.2950 C   0  0  0  0  0  0  0  0  0  0  0  0
  139.1350   77.7600  222.6580 C   0  0  0  0  0  0  0  0  0  0  0  0
  139.2220   79.0540  223.1550 C   0  0  0  0  0  0  0  0  0  0  0  0
  140.4870   79.5950  223.2700 C   0  0  0  0  0  0  0  0  0  0  0  0
  140.5790   80.8910  223.7670 C   0  0  0  0  0  0  0  0  0  0  0  0
  141.8240   81.4660  223.8970 C   0  0  0  0  0  0  0  0  0  0  0  0
  142.9430   80.7680  223.5390 C   0  0  0  0  0  0  0  0  0  0  0  0
  142.8530   79.4710  223.0420 C   0  0  0  0  0  0  0  0  0  0  0  0
  141.6140   78.8800  222.9060 C   0  0  0  0  0  0  0  0  0  0  0  0
  141.4530   77.6260  222.4300 N   0  0  0  0  0  0  0  0  0  0  0  0
  138.5170   75.2050  223.1410 H   0  0  0  0  0  0  0  0  0  0  0  0
  137.9108   73.1733  222.0007 H   0  0  0  0  0  0  0  0  0  0  0  0
  139.2391   73.4629  220.8014 H   0  0  0  0  0  0  0  0  0  0  0  0
  137.5473   71.2101  224.6085 H   0  0  0  0  0  0  0  0  0  0  0  0
  137.2944   72.4315  223.3481 H   0  0  0  0  0  0  0  0  0  0  0  0
  136.1782   70.1204  222.9768 H   0  0  0  0  0  0  0  0  0  0  0  0
  137.1678   70.7543  221.6167 H   0  0  0  0  0  0  0  0  0  0  0  0
  137.4077   68.2903  222.7757 H   0  0  0  0  0  0  0  0  0  0  0  0
  138.6857   69.1949  221.8115 H   0  0  0  0  0  0  0  0  0  0  0  0
  138.4352   69.1216  224.8243 H   0  0  0  0  0  0  0  0  0  0  0  0
  139.6315   68.2261  223.8095 H   0  0  0  0  0  0  0  0  0  0  0  0
  140.8285   70.2071  223.2642 H   0  0  0  0  0  0  0  0  0  0  0  0
  140.5594   72.7050  225.1260 H   0  0  0  0  0  0  0  0  0  0  0  0
  141.2849   73.0593  227.4367 H   0  0  0  0  0  0  0  0  0  0  0  0
  141.5266   71.1451  229.0063 H   0  0  0  0  0  0  0  0  0  0  0  0
  140.2792   68.4990  225.8377 H   0  0  0  0  0  0  0  0  0  0  0  0
  138.1446   77.2934  222.5514 H   0  0  0  0  0  0  0  0  0  0  0  0
  138.3249   79.6214  223.4435 H   0  0  0  0  0  0  0  0  0  0  0  0
  139.6734   81.4469  224.0512 H   0  0  0  0  0  0  0  0  0  0  0  0
  141.9177   82.4892  224.2898 H   0  0  0  0  0  0  0  0  0  0  0  0
  143.9313   81.2390  223.6454 H   0  0  0  0  0  0  0  0  0  0  0  0
  143.7631   78.9214  222.7598 H   0  0  0  0  0  0  0  0  0  0  0  0
  1  2  2  0
  2  3  1  0
  3  4  1  0
  4  5  1  0
  5  6  2  0
  5  7  1  0
  7  8  1  0
  8  9  1  0
  9 10  1  0
 10 11  1  0
 11 12  1  0
 12 13  1  0
 13 14  2  0
 14 15  1  0
 15 16  2  0
 16 17  1  0
 17 18  1  0
 17 19  2  0
  2 20  1  0
 20 21  2  0
 21 22  1  0
 22 23  2  0
 23 24  1  0
 24 25  2  0
 25 26  1  0
 26 27  2  0
 27 28  1  0
 28 29  2  0
 12  7  1  0
 19 13  1  0
 29 20  1  0
 28 23  1  0
  3 30  1  0
  4 31  1  0
  4 32  1  0
  8 33  1  0
  8 34  1  0
  9 35  1  0
  9 36  1  0
 10 37  1  0
 10 38  1  0
 11 39  1  0
 11 40  1  0
 12 41  1  6
 14 42  1  0
 15 43  1  0
 16 44  1  0
 19 45  1  0
 21 46  1  0
 22 47  1  0
 24 48  1  0
 25 49  1  0
 26 50  1  0
 27 51  1  0
M  END
>  <smiles>  (47) 
O=C(NCC(=O)N1CCCCC1c1cccc(Br)c1)c1ccc2ccccc2n1

>  <score_type>  (47) 
oracle

>  <origin>  (47) 
autodockgpu

>  <m_score__min__energy>  (47) 
-10.01

>  <m_primary>  (47) 
energy

>  <rmsd>  (47) 
8.384735195312693

>  <m_score__min__rmsd>  (47) 
8.384735195312693

>  <meeko>  (47) 
{"free_energy": -10.01, "intermolecular_energy": -11.51, "internal_energy": -1.33, "cluster_size": 22, "cluster_id": 1, "rank_in_cluster": 1}

>  <energy>  (47) 
-9.0

>  <cluster_rmsd>  (47) 
0.48

>  <cluster>  (47) 
3

$$$$

     RDKit          3D

 51 54  0  0  0  0  0  0  0  0999 V2000
  140.2720   71.0670  221.2740 O   0  0  0  0  0  0  0  0  0  0  0  0
  140.0390   71.7090  222.3150 C   0  0  0  0  0  0  0  0  0  0  0  0
  139.7690   73.1110  222.3030 N   0  0  0  0  0  0  0  0  0  0  0  0
  139.7610   73.8230  221.0420 C   0  0  0  0  0  0  0  0  0  0  0  0
  140.6700   74.9950  221.0670 C   0  0  0  0  0  0  0  0  0  0  0  0
  140.6250   75.7570  222.0650 O   0  0  0  0  0  0  0  0  0  0  0  0
  141.5300   75.1780  219.9570 N   0  0  0  0  0  0  0  0  0  0  0  0
  141.0860   74.9640  218.5700 C   0  0  0  0  0  0  0  0  0  0  0  0
  140.9390   76.3360  217.9550 C   0  0  0  0  0  0  0  0  0  0  0  0
  142.1120   77.1740  218.3180 C   0  0  0  0  0  0  0  0  0  0  0  0
  143.3040   76.4100  218.8490 C   0  0  0  0  0  0  0  0  0  0  0  0
  142.9240   75.6000  220.0830 C   0  0  2  0  0  0  0  0  0  0  0  0
  143.8710   74.4640  220.1640 C   0  0  0  0  0  0  0  0  0  0  0  0
  145.2140   74.6220  220.4840 C   0  0  0  0  0  0  0  0  0  0  0  0
  146.0950   73.5620  220.5470 C   0  0  0  0  0  0  0  0  0  0  0  0
  145.6800   72.2760  220.2940 C   0  0  0  0  0  0  0  0  0  0  0  0
  144.3560   72.0890  219.9770 C   0  0  0  0  0  0  0  0  0  0  0  0
  143.7330   70.3080  219.6150 Br  0  0  0  0  0  0  0  0  0  0  0  0
  143.4640   73.1630  219.9110 C   0  0  0  0  0  0  0  0  0  0  0  0
  140.0380   71.0170  223.6170 C   0  0  0  0  0  0  0  0  0  0  0  0
  139.5330   69.7390  223.7180 C   0  0  0  0  0  0  0  0  0  0  0  0
  139.5130   69.0530  224.9260 C   0  0  0  0  0  0  0  0  0  0  0  0
  140.0240   69.7120  226.0260 C   0  0  0  0  0  0  0  0  0  0  0  0
  140.0060   69.0280  227.2380 C   0  0  0  0  0  0  0  0  0  0  0  0
  140.5080   69.6510  228.3590 C   0  0  0  0  0  0  0  0  0  0  0  0
  141.0110   70.9180  228.2730 C   0  0  0  0  0  0  0  0  0  0  0  0
  141.0300   71.6040  227.0620 C   0  0  0  0  0  0  0  0  0  0  0  0
  140.5320   70.9950  225.9280 C   0  0  0  0  0  0  0  0  0  0  0  0
  140.5190   71.6000  224.7210 N   0  0  0  0  0  0  0  0  0  0  0  0
  139.5750   73.6140  223.2150 H   0  0  0  0  0  0  0  0  0  0  0  0
  140.0843   73.1383  220.2441 H   0  0  0  0  0  0  0  0  0  0  0  0
  138.7387   74.1862  220.8602 H   0  0  0  0  0  0  0  0  0  0  0  0
  141.8340   74.3769  218.0170 H   0  0  0  0  0  0  0  0  0  0  0  0
  140.1382   74.4068  218.5352 H   0  0  0  0  0  0  0  0  0  0  0  0
  140.8809   76.2422  216.8606 H   0  0  0  0  0  0  0  0  0  0  0  0
  140.0210   76.8093  218.3335 H   0  0  0  0  0  0  0  0  0  0  0  0
  142.4309   77.7221  217.4192 H   0  0  0  0  0  0  0  0  0  0  0  0
  141.7792   77.8308  219.1352 H   0  0  0  0  0  0  0  0  0  0  0  0
  143.6710   75.7271  218.0687 H   0  0  0  0  0  0  0  0  0  0  0  0
  144.0874   77.1300  219.1283 H   0  0  0  0  0  0  0  0  0  0  0  0
  142.9958   76.1806  221.0145 H   0  0  0  0  0  0  0  0  0  0  0  0
  145.5902   75.6337  220.6958 H   0  0  0  0  0  0  0  0  0  0  0  0
  147.1480   73.7492  220.8042 H   0  0  0  0  0  0  0  0  0  0  0  0
  146.3807   71.4295  220.3434 H   0  0  0  0  0  0  0  0  0  0  0  0
  142.4123   72.9712  219.6517 H   0  0  0  0  0  0  0  0  0  0  0  0
  139.1348   69.2484  222.8176 H   0  0  0  0  0  0  0  0  0  0  0  0
  139.1090   68.0327  225.0022 H   0  0  0  0  0  0  0  0  0  0  0  0
  139.5982   68.0082  227.2994 H   0  0  0  0  0  0  0  0  0  0  0  0
  140.5039   69.1269  229.3261 H   0  0  0  0  0  0  0  0  0  0  0  0
  141.4079   71.4045  229.1762 H   0  0  0  0  0  0  0  0  0  0  0  0
  141.4388   72.6238  227.0092 H   0  0  0  0  0  0  0  0  0  0  0  0
  1  2  2  0
  2  3  1  0
  3  4  1  0
  4  5  1  0
  5  6  2  0
  5  7  1  0
  7  8  1  0
  8  9  1  0
  9 10  1  0
 10 11  1  0
 11 12  1  0
 12 13  1  0
 13 14  2  0
 14 15  1  0
 15 16  2  0
 16 17  1  0
 17 18  1  0
 17 19  2  0
  2 20  1  0
 20 21  2  0
 21 22  1  0
 22 23  2  0
 23 24  1  0
 24 25  2  0
 25 26  1  0
 26 27  2  0
 27 28  1  0
 28 29  2  0
 12  7  1  0
 19 13  1  0
 29 20  1  0
 28 23  1  0
  3 30  1  0
  4 31  1  0
  4 32  1  0
  8 33  1  0
  8 34  1  0
  9 35  1  0
  9 36  1  0
 10 37  1  0
 10 38  1  0
 11 39  1  0
 11 40  1  0
 12 41  1  1
 14 42  1  0
 15 43  1  0
 16 44  1  0
 19 45  1  0
 21 46  1  0
 22 47  1  0
 24 48  1  0
 25 49  1  0
 26 50  1  0
 27 51  1  0
M  END
>  <smiles>  (48) 
O=C(NCC(=O)N1CCCCC1c1cccc(Br)c1)c1ccc2ccccc2n1

>  <score_type>  (48) 
oracle

>  <origin>  (48) 
autodockgpu

>  <m_score__min__energy>  (48) 
-10.01

>  <m_primary>  (48) 
energy

>  <rmsd>  (48) 
1.722881383170557

>  <m_score__min__rmsd>  (48) 
1.722881383170557

>  <meeko>  (48) 
{"free_energy": -9.0, "intermolecular_energy": -10.49, "internal_energy": -1.99, "cluster_size": 8, "cluster_id": 3, "rank_in_cluster": 5}

>  <energy>  (48) 
-8.99

>  <cluster_rmsd>  (48) 
0.46

>  <cluster>  (48) 
3

$$$$

     RDKit          3D

 51 54  0  0  0  0  0  0  0  0999 V2000
  140.2700   71.1620  221.2240 O   0  0  0  0  0  0  0  0  0  0  0  0
  139.7640   71.7570  222.1930 C   0  0  0  0  0  0  0  0  0  0  0  0
  139.0350   72.9750  222.0460 N   0  0  0  0  0  0  0  0  0  0  0  0
  138.8700   73.5490  220.7260 C   0  0  0  0  0  0  0  0  0  0  0  0
  139.0150   75.0250  220.7460 C   0  0  0  0  0  0  0  0  0  0  0  0
  137.9860   75.7240  220.5740 O   0  0  0  0  0  0  0  0  0  0  0  0
  140.3130   75.5500  220.9590 N   0  0  0  0  0  0  0  0  0  0  0  0
  141.3980   74.7550  221.5570 C   0  0  0  0  0  0  0  0  0  0  0  0
  142.3440   74.4130  220.4290 C   0  0  0  0  0  0  0  0  0  0  0  0
  142.5790   75.6180  219.5920 C   0  0  0  0  0  0  0  0  0  0  0  0
  142.1730   76.9280  220.2290 C   0  0  0  0  0  0  0  0  0  0  0  0
  140.6950   76.9150  220.6030 C   0  0  2  0  0  0  0  0  0  0  0  0
  140.5210   77.8780  221.7150 C   0  0  0  0  0  0  0  0  0  0  0  0
  139.3060   78.0770  222.3580 C   0  0  0  0  0  0  0  0  0  0  0  0
  139.1450   78.9840  223.3860 C   0  0  0  0  0  0  0  0  0  0  0  0
  140.1990   79.7460  223.8320 C   0  0  0  0  0  0  0  0  0  0  0  0
  141.4140   79.5690  223.2150 C   0  0  0  0  0  0  0  0  0  0  0  0
  142.9130   80.6140  223.8070 Br  0  0  0  0  0  0  0  0  0  0  0  0
  141.5760   78.6520  222.1740 C   0  0  0  0  0  0  0  0  0  0  0  0
  139.9120   71.2010  223.5520 C   0  0  0  0  0  0  0  0  0  0  0  0
  139.5040   69.9130  223.8180 C   0  0  0  0  0  0  0  0  0  0  0  0
  139.6260   69.3530  225.0840 C   0  0  0  0  0  0  0  0  0  0  0  0
  140.1750   70.1490  226.0680 C   0  0  0  0  0  0  0  0  0  0  0  0
  140.2990   69.5910  227.3370 C   0  0  0  0  0  0  0  0  0  0  0  0
  140.8430   70.3540  228.3470 C   0  0  0  0  0  0  0  0  0  0  0  0
  141.2500   71.6340  228.0970 C   0  0  0  0  0  0  0  0  0  0  0  0
  141.1280   72.1930  226.8280 C   0  0  0  0  0  0  0  0  0  0  0  0
  140.5850   71.4430  225.8040 C   0  0  0  0  0  0  0  0  0  0  0  0
  140.4370   71.9210  224.5500 N   0  0  0  0  0  0  0  0  0  0  0  0
  138.6220   73.4440  222.9010 H   0  0  0  0  0  0  0  0  0  0  0  0
  139.6321   73.1253  220.0555 H   0  0  0  0  0  0  0  0  0  0  0  0
  137.8561   73.3094  220.3729 H   0  0  0  0  0  0  0  0  0  0  0  0
  141.9200   75.3415  222.3274 H   0  0  0  0  0  0  0  0  0  0  0  0
  141.0086   73.8475  222.0416 H   0  0  0  0  0  0  0  0  0  0  0  0
  143.3005   74.0651  220.8463 H   0  0  0  0  0  0  0  0  0  0  0  0
  141.9015   73.6189  219.8096 H   0  0  0  0  0  0  0  0  0  0  0  0
  143.6534   75.6692  219.3616 H   0  0  0  0  0  0  0  0  0  0  0  0
  141.9460   75.5008  218.7000 H   0  0  0  0  0  0  0  0  0  0  0  0
  142.7730   77.0884  221.1369 H   0  0  0  0  0  0  0  0  0  0  0  0
  142.3460   77.7391  219.5064 H   0  0  0  0  0  0  0  0  0  0  0  0
  140.0407   77.2201  219.7731 H   0  0  0  0  0  0  0  0  0  0  0  0
  138.4357   77.4872  222.0345 H   0  0  0  0  0  0  0  0  0  0  0  0
  138.1572   79.0991  223.8561 H   0  0  0  0  0  0  0  0  0  0  0  0
  140.0744   80.4695  224.6512 H   0  0  0  0  0  0  0  0  0  0  0  0
  142.5655   78.5410  221.7065 H   0  0  0  0  0  0  0  0  0  0  0  0
  139.0697   69.3110  223.0063 H   0  0  0  0  0  0  0  0  0  0  0  0
  139.3001   68.3232  225.2918 H   0  0  0  0  0  0  0  0  0  0  0  0
  139.9687   68.5597  227.5300 H   0  0  0  0  0  0  0  0  0  0  0  0
  140.9499   69.9316  229.3570 H   0  0  0  0  0  0  0  0  0  0  0  0
  141.6815   72.2331  228.9124 H   0  0  0  0  0  0  0  0  0  0  0  0
  141.4618   73.2246  226.6425 H   0  0  0  0  0  0  0  0  0  0  0  0
  1  2  2  0
  2  3  1  0
  3  4  1  0
  4  5  1  0
  5  6  2  0
  5  7  1  0
  7  8  1  0
  8  9  1  0
  9 10  1  0
 10 11  1  0
 11 12  1  0
 12 13  1  0
 13 14  2  0
 14 15  1  0
 15 16  2  0
 16 17  1  0
 17 18  1  0
 17 19  2  0
  2 20  1  0
 20 21  2  0
 21 22  1  0
 22 23  2  0
 23 24  1  0
 24 25  2  0
 25 26  1  0
 26 27  2  0
 27 28  1  0
 28 29  2  0
 12  7  1  0
 19 13  1  0
 29 20  1  0
 28 23  1  0
  3 30  1  0
  4 31  1  0
  4 32  1  0
  8 33  1  0
  8 34  1  0
  9 35  1  0
  9 36  1  0
 10 37  1  0
 10 38  1  0
 11 39  1  0
 11 40  1  0
 12 41  1  6
 14 42  1  0
 15 43  1  0
 16 44  1  0
 19 45  1  0
 21 46  1  0
 22 47  1  0
 24 48  1  0
 25 49  1  0
 26 50  1  0
 27 51  1  0
M  END
>  <smiles>  (49) 
O=C(NCC(=O)N1CCCCC1c1cccc(Br)c1)c1ccc2ccccc2n1

>  <score_type>  (49) 
oracle

>  <origin>  (49) 
autodockgpu

>  <m_score__min__energy>  (49) 
-10.01

>  <m_primary>  (49) 
energy

>  <rmsd>  (49) 
2.2144498446300163

>  <m_score__min__rmsd>  (49) 
2.2144498446300163

>  <meeko>  (49) 
{"free_energy": -9.28, "intermolecular_energy": -10.77, "internal_energy": -1.62, "cluster_size": 20, "cluster_id": 2, "rank_in_cluster": 4}

>  <energy>  (49) 
-8.98

>  <cluster_rmsd>  (49) 
0.62

>  <cluster>  (49) 
3

$$$$

     RDKit          3D

 51 54  0  0  0  0  0  0  0  0999 V2000
  141.8010   72.9940  221.0300 O   0  0  0  0  0  0  0  0  0  0  0  0
  140.9850   73.7560  221.5800 C   0  0  0  0  0  0  0  0  0  0  0  0
  139.8790   73.2710  222.3410 N   0  0  0  0  0  0  0  0  0  0  0  0
  139.6890   71.8430  222.4860 C   0  0  0  0  0  0  0  0  0  0  0  0
  138.3250   71.5170  222.9720 C   0  0  0  0  0  0  0  0  0  0  0  0
  137.4690   72.4360  222.9960 O   0  0  0  0  0  0  0  0  0  0  0  0
  138.0790   70.1830  223.3790 N   0  0  0  0  0  0  0  0  0  0  0  0
  136.7200   69.6670  223.6110 C   0  0  0  0  0  0  0  0  0  0  0  0
  136.4050   68.7630  222.4420 C   0  0  0  0  0  0  0  0  0  0  0  0
  137.5730   67.8900  222.1570 C   0  0  0  0  0  0  0  0  0  0  0  0
  138.6010   67.8150  223.2640 C   0  0  0  0  0  0  0  0  0  0  0  0
  139.1390   69.2010  223.5980 C   0  0  2  0  0  0  0  0  0  0  0  0
  139.6100   69.1560  225.0020 C   0  0  0  0  0  0  0  0  0  0  0  0
  139.6460   67.9850  225.7490 C   0  0  0  0  0  0  0  0  0  0  0  0
  140.0740   67.9490  227.0600 C   0  0  0  0  0  0  0  0  0  0  0  0
  140.4940   69.0900  227.7020 C   0  0  0  0  0  0  0  0  0  0  0  0
  140.4700   70.2640  226.9870 C   0  0  0  0  0  0  0  0  0  0  0  0
  141.0480   71.8820  227.8460 Br  0  0  0  0  0  0  0  0  0  0  0  0
  140.0350   70.3000  225.6600 C   0  0  0  0  0  0  0  0  0  0  0  0
  141.1480   75.2170  221.4530 C   0  0  0  0  0  0  0  0  0  0  0  0
  141.9480   75.7380  220.4600 C   0  0  0  0  0  0  0  0  0  0  0  0
  142.1280   77.1070  220.3060 C   0  0  0  0  0  0  0  0  0  0  0  0
  141.4670   77.9260  221.1990 C   0  0  0  0  0  0  0  0  0  0  0  0
  141.6440   79.2980  221.0480 C   0  0  0  0  0  0  0  0  0  0  0  0
  141.0010   80.1500  221.9190 C   0  0  0  0  0  0  0  0  0  0  0  0
  140.2060   79.6470  222.9100 C   0  0  0  0  0  0  0  0  0  0  0  0
  140.0270   78.2750  223.0610 C   0  0  0  0  0  0  0  0  0  0  0  0
  140.6630   77.4070  222.1980 C   0  0  0  0  0  0  0  0  0  0  0  0
  140.5350   76.0660  222.2860 N   0  0  0  0  0  0  0  0  0  0  0  0
  139.2110   73.9600  222.7900 H   0  0  0  0  0  0  0  0  0  0  0  0
  139.8437   71.3618  221.5090 H   0  0  0  0  0  0  0  0  0  0  0  0
  140.4140   71.4742  223.2265 H   0  0  0  0  0  0  0  0  0  0  0  0
  136.6836   69.0991  224.5524 H   0  0  0  0  0  0  0  0  0  0  0  0
  135.9897   70.4856  223.6919 H   0  0  0  0  0  0  0  0  0  0  0  0
  135.5328   68.1390  222.6866 H   0  0  0  0  0  0  0  0  0  0  0  0
  136.1828   69.3761  221.5561 H   0  0  0  0  0  0  0  0  0  0  0  0
  137.2003   66.8725  221.9681 H   0  0  0  0  0  0  0  0  0  0  0  0
  138.0855   68.3355  221.2916 H   0  0  0  0  0  0  0  0  0  0  0  0
  138.1336   67.3837  224.1615 H   0  0  0  0  0  0  0  0  0  0  0  0
  139.4368   67.1843  222.9268 H   0  0  0  0  0  0  0  0  0  0  0  0
  139.9819   69.4981  222.9567 H   0  0  0  0  0  0  0  0  0  0  0  0
  139.3196   67.0474  225.2752 H   0  0  0  0  0  0  0  0  0  0  0  0
  140.0794   66.9912  227.6009 H   0  0  0  0  0  0  0  0  0  0  0  0
  140.8360   69.0645  228.7472 H   0  0  0  0  0  0  0  0  0  0  0  0
  140.0295   71.2603  225.1235 H   0  0  0  0  0  0  0  0  0  0  0  0
  142.4587   75.0507  219.7695 H   0  0  0  0  0  0  0  0  0  0  0  0
  142.7667   77.5185  219.5105 H   0  0  0  0  0  0  0  0  0  0  0  0
  142.2857   79.6951  220.2477 H   0  0  0  0  0  0  0  0  0  0  0  0
  141.1279   81.2378  221.8164 H   0  0  0  0  0  0  0  0  0  0  0  0
  139.6991   80.3378  223.5998 H   0  0  0  0  0  0  0  0  0  0  0  0
  139.3828   77.8855  223.8631 H   0  0  0  0  0  0  0  0  0  0  0  0
  1  2  2  0
  2  3  1  0
  3  4  1  0
  4  5  1  0
  5  6  2  0
  5  7  1  0
  7  8  1  0
  8  9  1  0
  9 10  1  0
 10 11  1  0
 11 12  1  0
 12 13  1  0
 13 14  2  0
 14 15  1  0
 15 16  2  0
 16 17  1  0
 17 18  1  0
 17 19  2  0
  2 20  1  0
 20 21  2  0
 21 22  1  0
 22 23  2  0
 23 24  1  0
 24 25  2  0
 25 26  1  0
 26 27  2  0
 27 28  1  0
 28 29  2  0
 12  7  1  0
 19 13  1  0
 29 20  1  0
 28 23  1  0
  3 30  1  0
  4 31  1  0
  4 32  1  0
  8 33  1  0
  8 34  1  0
  9 35  1  0
  9 36  1  0
 10 37  1  0
 10 38  1  0
 11 39  1  0
 11 40  1  0
 12 41  1  6
 14 42  1  0
 15 43  1  0
 16 44  1  0
 19 45  1  0
 21 46  1  0
 22 47  1  0
 24 48  1  0
 25 49  1  0
 26 50  1  0
 27 51  1  0
M  END
>  <smiles>  (50) 
O=C(NCC(=O)N1CCCCC1c1cccc(Br)c1)c1ccc2ccccc2n1

>  <score_type>  (50) 
oracle

>  <origin>  (50) 
autodockgpu

>  <m_score__min__energy>  (50) 
-10.01

>  <m_primary>  (50) 
energy

>  <rmsd>  (50) 
8.425987985237168

>  <m_score__min__rmsd>  (50) 
8.425987985237168

>  <meeko>  (50) 
{"free_energy": -8.84, "intermolecular_energy": -10.33, "internal_energy": -2.08, "cluster_size": 22, "cluster_id": 1, "rank_in_cluster": 22}

>  <energy>  (50) 
-8.48

>  <cluster_rmsd>  (50) 
1.0

>  <cluster>  (50) 
3

$$$$

     RDKit          3D

 51 54  0  0  0  0  0  0  0  0999 V2000
  140.3240   74.0250  220.3320 O   0  0  0  0  0  0  0  0  0  0  0  0
  140.0450   74.7810  221.3120 C   0  0  0  0  0  0  0  0  0  0  0  0
  139.1710   74.3000  222.3280 N   0  0  0  0  0  0  0  0  0  0  0  0
  138.6460   72.9700  222.1900 C   0  0  0  0  0  0  0  0  0  0  0  0
  139.6190   71.9700  222.6960 C   0  0  0  0  0  0  0  0  0  0  0  0
  140.6800   72.2790  223.3060 O   0  0  0  0  0  0  0  0  0  0  0  0
  139.3820   70.5810  222.5050 N   0  0  0  0  0  0  0  0  0  0  0  0
  139.9340   69.9140  221.3410 C   0  0  0  0  0  0  0  0  0  0  0  0
  138.7490   69.4070  220.5260 C   0  0  0  0  0  0  0  0  0  0  0  0
  137.7740   68.6550  221.4050 C   0  0  0  0  0  0  0  0  0  0  0  0
  138.4110   68.4160  222.7540 C   0  0  0  0  0  0  0  0  0  0  0  0
  138.6030   69.7730  223.4240 C   0  0  1  0  0  0  0  0  0  0  0  0
  139.2650   69.5900  224.7400 C   0  0  0  0  0  0  0  0  0  0  0  0
  139.3960   68.3310  225.3230 C   0  0  0  0  0  0  0  0  0  0  0  0
  140.0110   68.1620  226.5470 C   0  0  0  0  0  0  0  0  0  0  0  0
  140.5200   69.2520  227.2360 C   0  0  0  0  0  0  0  0  0  0  0  0
  140.3970   70.5190  226.6690 C   0  0  0  0  0  0  0  0  0  0  0  0
  141.0870   72.0600  227.5890 Br  0  0  0  0  0  0  0  0  0  0  0  0
  139.7710   70.6730  225.4280 C   0  0  0  0  0  0  0  0  0  0  0  0
  140.6040   76.1270  221.4060 C   0  0  0  0  0  0  0  0  0  0  0  0
  140.9770   76.7750  220.2500 C   0  0  0  0  0  0  0  0  0  0  0  0
  141.5120   78.0460  220.2590 C   0  0  0  0  0  0  0  0  0  0  0  0
  141.6730   78.6790  221.4750 C   0  0  0  0  0  0  0  0  0  0  0  0
  142.2080   79.9570  221.5270 C   0  0  0  0  0  0  0  0  0  0  0  0
  142.3570   80.5630  222.7480 C   0  0  0  0  0  0  0  0  0  0  0  0
  141.9730   79.8880  223.8970 C   0  0  0  0  0  0  0  0  0  0  0  0
  141.4380   78.6060  223.8400 C   0  0  0  0  0  0  0  0  0  0  0  0
  141.2870   77.9950  222.6120 C   0  0  0  0  0  0  0  0  0  0  0  0
  140.7670   76.7580  222.5880 N   0  0  0  0  0  0  0  0  0  0  0  0
  138.9370   74.9270  223.1430 H   0  0  0  0  0  0  0  0  0  0  0  0
  137.7117   72.8885  222.7649 H   0  0  0  0  0  0  0  0  0  0  0  0
  138.4554   72.7724  221.1248 H   0  0  0  0  0  0  0  0  0  0  0  0
  140.5295   70.6214  220.7451 H   0  0  0  0  0  0  0  0  0  0  0  0
  140.5961   69.0863  221.6351 H   0  0  0  0  0  0  0  0  0  0  0  0
  138.2339   70.2639  220.0673 H   0  0  0  0  0  0  0  0  0  0  0  0
  139.1223   68.7236  219.7491 H   0  0  0  0  0  0  0  0  0  0  0  0
  136.8567   69.2490  221.5304 H   0  0  0  0  0  0  0  0  0  0  0  0
  137.5196   67.6919  220.9384 H   0  0  0  0  0  0  0  0  0  0  0  0
  137.7558   67.7832  223.3707 H   0  0  0  0  0  0  0  0  0  0  0  0
  139.3775   67.9037  222.6380 H   0  0  0  0  0  0  0  0  0  0  0  0
  137.6492   70.2802  223.6312 H   0  0  0  0  0  0  0  0  0  0  0  0
  138.9998   67.4510  224.7951 H   0  0  0  0  0  0  0  0  0  0  0  0
  140.0980   67.1543  226.9793 H   0  0  0  0  0  0  0  0  0  0  0  0
  141.0114   69.1193  228.2112 H   0  0  0  0  0  0  0  0  0  0  0  0
  139.6803   71.6786  224.9915 H   0  0  0  0  0  0  0  0  0  0  0  0
  140.8438   76.2615  219.2864 H   0  0  0  0  0  0  0  0  0  0  0  0
  141.8029   78.5425  219.3215 H   0  0  0  0  0  0  0  0  0  0  0  0
  142.5078   80.4759  220.6046 H   0  0  0  0  0  0  0  0  0  0  0  0
  142.7780   81.5770  222.8156 H   0  0  0  0  0  0  0  0  0  0  0  0
  142.0943   80.3775  224.8746 H   0  0  0  0  0  0  0  0  0  0  0  0
  141.1390   78.0856  224.7618 H   0  0  0  0  0  0  0  0  0  0  0  0
  1  2  2  0
  2  3  1  0
  3  4  1  0
  4  5  1  0
  5  6  2  0
  5  7  1  0
  7  8  1  0
  8  9  1  0
  9 10  1  0
 10 11  1  0
 11 12  1  0
 12 13  1  0
 13 14  2  0
 14 15  1  0
 15 16  2  0
 16 17  1  0
 17 18  1  0
 17 19  2  0
  2 20  1  0
 20 21  2  0
 21 22  1  0
 22 23  2  0
 23 24  1  0
 24 25  2  0
 25 26  1  0
 26 27  2  0
 27 28  1  0
 28 29  2  0
 12  7  1  0
 19 13  1  0
 29 20  1  0
 28 23  1  0
  3 30  1  0
  4 31  1  0
  4 32  1  0
  8 33  1  0
  8 34  1  0
  9 35  1  0
  9 36  1  0
 10 37  1  0
 10 38  1  0
 11 39  1  0
 11 40  1  0
 12 41  1  1
 14 42  1  0
 15 43  1  0
 16 44  1  0
 19 45  1  0
 21 46  1  0
 22 47  1  0
 24 48  1  0
 25 49  1  0
 26 50  1  0
 27 51  1  0
M  END
>  <smiles>  (51) 
O=C(NCC(=O)N1CCCCC1c1cccc(Br)c1)c1ccc2ccccc2n1

>  <score_type>  (51) 
oracle

>  <origin>  (51) 
autodockgpu

>  <m_score__min__energy>  (51) 
-9.4100000000000001

>  <m_primary>  (51) 
energy

>  <rmsd>  (51) 
8.09495294232354

>  <m_score__min__rmsd>  (51) 
8.09495294232354

>  <meeko>  (51) 
{"free_energy": -9.19, "intermolecular_energy": -10.68, "internal_energy": -1.52, "cluster_size": 7, "cluster_id": 3, "rank_in_cluster": 1}

>  <energy>  (51) 
-9.41

>  <cluster_rmsd>  (51) 
0.0

>  <cluster>  (51) 
1

$$$$

     RDKit          3D

 51 54  0  0  0  0  0  0  0  0999 V2000
  134.2060   69.3500  226.4710 O   0  0  0  0  0  0  0  0  0  0  0  0
  134.4790   70.4700  225.9410 C   0  0  0  0  0  0  0  0  0  0  0  0
  135.4600   70.5250  224.9100 N   0  0  0  0  0  0  0  0  0  0  0  0
  136.0950   69.2980  224.5180 C   0  0  0  0  0  0  0  0  0  0  0  0
  137.5490   69.3480  224.8030 C   0  0  0  0  0  0  0  0  0  0  0  0
  138.1440   68.5060  225.5300 O   0  0  0  0  0  0  0  0  0  0  0  0
  138.3520   70.3840  224.2490 N   0  0  0  0  0  0  0  0  0  0  0  0
  137.7160   71.4880  223.5560 C   0  0  0  0  0  0  0  0  0  0  0  0
  138.2070   71.4370  222.1130 C   0  0  0  0  0  0  0  0  0  0  0  0
  139.7140   71.3120  222.0630 C   0  0  0  0  0  0  0  0  0  0  0  0
  140.2750   71.5440  223.4460 C   0  0  0  0  0  0  0  0  0  0  0  0
  139.7990   70.4010  224.3380 C   0  0  1  0  0  0  0  0  0  0  0  0
  140.2950   70.6100  225.7210 C   0  0  0  0  0  0  0  0  0  0  0  0
  140.5350   71.8850  226.2270 C   0  0  0  0  0  0  0  0  0  0  0  0
  140.9960   72.0770  227.5130 C   0  0  0  0  0  0  0  0  0  0  0  0
  141.2360   70.9940  228.3450 C   0  0  0  0  0  0  0  0  0  0  0  0
  141.0020   69.7100  227.8560 C   0  0  0  0  0  0  0  0  0  0  0  0
  141.3210   68.1780  228.9730 Br  0  0  0  0  0  0  0  0  0  0  0  0
  140.5350   69.5330  226.5490 C   0  0  0  0  0  0  0  0  0  0  0  0
  133.8060   71.6920  226.3750 C   0  0  0  0  0  0  0  0  0  0  0  0
  132.6670   71.5880  227.1410 C   0  0  0  0  0  0  0  0  0  0  0  0
  131.9760   72.6950  227.5870 C   0  0  0  0  0  0  0  0  0  0  0  0
  132.4560   73.9440  227.2490 C   0  0  0  0  0  0  0  0  0  0  0  0
  131.7910   75.0820  227.6780 C   0  0  0  0  0  0  0  0  0  0  0  0
  132.2870   76.3110  227.3270 C   0  0  0  0  0  0  0  0  0  0  0  0
  133.4370   76.3890  226.5560 C   0  0  0  0  0  0  0  0  0  0  0  0
  134.1010   75.2440  226.1280 C   0  0  0  0  0  0  0  0  0  0  0  0
  133.6010   74.0070  226.4800 C   0  0  0  0  0  0  0  0  0  0  0  0
  134.2630   72.9200  226.0520 N   0  0  0  0  0  0  0  0  0  0  0  0
  135.6890   71.4560  224.4680 H   0  0  0  0  0  0  0  0  0  0  0  0
  135.6457   68.4639  225.0769 H   0  0  0  0  0  0  0  0  0  0  0  0
  135.9505   69.1538  223.4371 H   0  0  0  0  0  0  0  0  0  0  0  0
  136.6221   71.3772  223.5889 H   0  0  0  0  0  0  0  0  0  0  0  0
  137.9674   72.4498  224.0270 H   0  0  0  0  0  0  0  0  0  0  0  0
  137.7561   70.5694  221.6090 H   0  0  0  0  0  0  0  0  0  0  0  0
  137.9132   72.3686  221.6072 H   0  0  0  0  0  0  0  0  0  0  0  0
  139.9888   70.3042  221.7182 H   0  0  0  0  0  0  0  0  0  0  0  0
  140.1249   72.0576  221.3664 H   0  0  0  0  0  0  0  0  0  0  0  0
  141.3742   71.5560  223.4072 H   0  0  0  0  0  0  0  0  0  0  0  0
  139.9324   72.5108  223.8433 H   0  0  0  0  0  0  0  0  0  0  0  0
  140.1907   69.4236  224.0197 H   0  0  0  0  0  0  0  0  0  0  0  0
  140.3526   72.7601  225.5859 H   0  0  0  0  0  0  0  0  0  0  0  0
  141.1747   73.0979  227.8815 H   0  0  0  0  0  0  0  0  0  0  0  0
  141.6038   71.1452  229.3706 H   0  0  0  0  0  0  0  0  0  0  0  0
  140.3556   68.5145  226.1741 H   0  0  0  0  0  0  0  0  0  0  0  0
  132.2952   70.5874  227.4065 H   0  0  0  0  0  0  0  0  0  0  0  0
  131.0665   72.5854  228.1959 H   0  0  0  0  0  0  0  0  0  0  0  0
  130.8805   75.0004  228.2898 H   0  0  0  0  0  0  0  0  0  0  0  0
  131.7764   77.2286  227.6546 H   0  0  0  0  0  0  0  0  0  0  0  0
  133.8324   77.3769  226.2770 H   0  0  0  0  0  0  0  0  0  0  0  0
  135.0124   75.3236  225.5172 H   0  0  0  0  0  0  0  0  0  0  0  0
  1  2  2  0
  2  3  1  0
  3  4  1  0
  4  5  1  0
  5  6  2  0
  5  7  1  0
  7  8  1  0
  8  9  1  0
  9 10  1  0
 10 11  1  0
 11 12  1  0
 12 13  1  0
 13 14  2  0
 14 15  1  0
 15 16  2  0
 16 17  1  0
 17 18  1  0
 17 19  2  0
  2 20  1  0
 20 21  2  0
 21 22  1  0
 22 23  2  0
 23 24  1  0
 24 25  2  0
 25 26  1  0
 26 27  2  0
 27 28  1  0
 28 29  2  0
 12  7  1  0
 19 13  1  0
 29 20  1  0
 28 23  1  0
  3 30  1  0
  4 31  1  0
  4 32  1  0
  8 33  1  0
  8 34  1  0
  9 35  1  0
  9 36  1  0
 10 37  1  0
 10 38  1  0
 11 39  1  0
 11 40  1  0
 12 41  1  6
 14 42  1  0
 15 43  1  0
 16 44  1  0
 19 45  1  0
 21 46  1  0
 22 47  1  0
 24 48  1  0
 25 49  1  0
 26 50  1  0
 27 51  1  0
M  END
>  <smiles>  (52) 
O=C(NCC(=O)N1CCCCC1c1cccc(Br)c1)c1ccc2ccccc2n1

>  <score_type>  (52) 
oracle

>  <origin>  (52) 
autodockgpu

>  <m_score__min__energy>  (52) 
-9.4100000000000001

>  <m_primary>  (52) 
energy

>  <rmsd>  (52) 
7.763249834490338

>  <m_score__min__rmsd>  (52) 
7.763249834490338

>  <meeko>  (52) 
{"free_energy": -9.07, "intermolecular_energy": -10.56, "internal_energy": -1.47, "cluster_size": 1, "cluster_id": 4, "rank_in_cluster": 1}

>  <energy>  (52) 
-9.33

>  <cluster_rmsd>  (52) 
0.9

>  <cluster>  (52) 
1

$$$$

     RDKit          3D

 51 54  0  0  0  0  0  0  0  0999 V2000
  139.8500   71.7790  221.0750 O   0  0  0  0  0  0  0  0  0  0  0  0
  139.7610   72.2680  222.2430 C   0  0  0  0  0  0  0  0  0  0  0  0
  139.6450   73.6790  222.3930 N   0  0  0  0  0  0  0  0  0  0  0  0
  139.6350   74.4840  221.2030 C   0  0  0  0  0  0  0  0  0  0  0  0
  140.4990   75.6780  221.3730 C   0  0  0  0  0  0  0  0  0  0  0  0
  140.4520   76.4310  222.3850 O   0  0  0  0  0  0  0  0  0  0  0  0
  141.4430   76.0270  220.3680 N   0  0  0  0  0  0  0  0  0  0  0  0
  142.0480   77.3460  220.3810 C   0  0  0  0  0  0  0  0  0  0  0  0
  141.6250   78.0320  219.0870 C   0  0  0  0  0  0  0  0  0  0  0  0
  141.8650   77.1290  217.8970 C   0  0  0  0  0  0  0  0  0  0  0  0
  142.6910   75.9430  218.3370 C   0  0  0  0  0  0  0  0  0  0  0  0
  141.8470   75.1230  219.3080 C   0  0  1  0  0  0  0  0  0  0  0  0
  142.6350   73.9660  219.7990 C   0  0  0  0  0  0  0  0  0  0  0  0
  142.1520   72.6620  219.7110 C   0  0  0  0  0  0  0  0  0  0  0  0
  142.8860   71.5870  220.1670 C   0  0  0  0  0  0  0  0  0  0  0  0
  144.1380   71.7770  220.7320 C   0  0  0  0  0  0  0  0  0  0  0  0
  144.6380   73.0750  220.8290 C   0  0  0  0  0  0  0  0  0  0  0  0
  146.3690   73.3870  221.6050 Br  0  0  0  0  0  0  0  0  0  0  0  0
  143.8810   74.1540  220.3610 C   0  0  0  0  0  0  0  0  0  0  0  0
  139.7760   71.4070  223.4230 C   0  0  0  0  0  0  0  0  0  0  0  0
  139.2360   70.1430  223.3310 C   0  0  0  0  0  0  0  0  0  0  0  0
  139.2140   69.2740  224.4010 C   0  0  0  0  0  0  0  0  0  0  0  0
  139.7560   69.6960  225.5980 C   0  0  0  0  0  0  0  0  0  0  0  0
  139.7530   68.8520  226.6970 C   0  0  0  0  0  0  0  0  0  0  0  0
  140.2970   69.2960  227.8750 C   0  0  0  0  0  0  0  0  0  0  0  0
  140.8350   70.5730  227.9400 C   0  0  0  0  0  0  0  0  0  0  0  0
  140.8360   71.4160  226.8350 C   0  0  0  0  0  0  0  0  0  0  0  0
  140.2880   70.9700  225.6490 C   0  0  0  0  0  0  0  0  0  0  0  0
  140.3030   71.8060  224.5990 N   0  0  0  0  0  0  0  0  0  0  0  0
  139.5720   74.0880  223.3620 H   0  0  0  0  0  0  0  0  0  0  0  0
  140.0075   73.8855  220.3586 H   0  0  0  0  0  0  0  0  0  0  0  0
  138.6047   74.8166  221.0085 H   0  0  0  0  0  0  0  0  0  0  0  0
  141.6901   77.9192  221.2490 H   0  0  0  0  0  0  0  0  0  0  0  0
  143.1435   77.2792  220.4548 H   0  0  0  0  0  0  0  0  0  0  0  0
  140.5544   78.2783  219.1427 H   0  0  0  0  0  0  0  0  0  0  0  0
  142.2224   78.9471  218.9614 H   0  0  0  0  0  0  0  0  0  0  0  0
  140.9009   76.7795  217.4991 H   0  0  0  0  0  0  0  0  0  0  0  0
  142.4003   77.6835  217.1122 H   0  0  0  0  0  0  0  0  0  0  0  0
  142.9599   75.3296  217.4644 H   0  0  0  0  0  0  0  0  0  0  0  0
  143.6188   76.2793  218.8229 H   0  0  0  0  0  0  0  0  0  0  0  0
  140.9494   74.6989  218.8343 H   0  0  0  0  0  0  0  0  0  0  0  0
  141.1611   72.4856  219.2670 H   0  0  0  0  0  0  0  0  0  0  0  0
  142.4747   70.5703  220.0818 H   0  0  0  0  0  0  0  0  0  0  0  0
  144.7249   70.9210  221.0963 H   0  0  0  0  0  0  0  0  0  0  0  0
  144.2872   75.1730  220.4426 H   0  0  0  0  0  0  0  0  0  0  0  0
  138.8081   69.8162  222.3718 H   0  0  0  0  0  0  0  0  0  0  0  0
  138.7756   68.2699  224.3032 H   0  0  0  0  0  0  0  0  0  0  0  0
  139.3215   67.8427  226.6257 H   0  0  0  0  0  0  0  0  0  0  0  0
  140.3066   68.6446  228.7614 H   0  0  0  0  0  0  0  0  0  0  0  0
  141.2702   70.9260  228.8865 H   0  0  0  0  0  0  0  0  0  0  0  0
  141.2678   72.4253  226.9046 H   0  0  0  0  0  0  0  0  0  0  0  0
  1  2  2  0
  2  3  1  0
  3  4  1  0
  4  5  1  0
  5  6  2  0
  5  7  1  0
  7  8  1  0
  8  9  1  0
  9 10  1  0
 10 11  1  0
 11 12  1  0
 12 13  1  0
 13 14  2  0
 14 15  1  0
 15 16  2  0
 16 17  1  0
 17 18  1  0
 17 19  2  0
  2 20  1  0
 20 21  2  0
 21 22  1  0
 22 23  2  0
 23 24  1  0
 24 25  2  0
 25 26  1  0
 26 27  2  0
 27 28  1  0
 28 29  2  0
 12  7  1  0
 19 13  1  0
 29 20  1  0
 28 23  1  0
  3 30  1  0
  4 31  1  0
  4 32  1  0
  8 33  1  0
  8 34  1  0
  9 35  1  0
  9 36  1  0
 10 37  1  0
 10 38  1  0
 11 39  1  0
 11 40  1  0
 12 41  1  6
 14 42  1  0
 15 43  1  0
 16 44  1  0
 19 45  1  0
 21 46  1  0
 22 47  1  0
 24 48  1  0
 25 49  1  0
 26 50  1  0
 27 51  1  0
M  END
>  <smiles>  (53) 
O=C(NCC(=O)N1CCCCC1c1cccc(Br)c1)c1ccc2ccccc2n1

>  <score_type>  (53) 
oracle

>  <origin>  (53) 
autodockgpu

>  <m_score__min__energy>  (53) 
-9.4100000000000001

>  <m_primary>  (53) 
energy

>  <rmsd>  (53) 
2.2179478204762675

>  <m_score__min__rmsd>  (53) 
2.2179478204762675

>  <meeko>  (53) 
{"free_energy": -8.63, "intermolecular_energy": -10.12, "internal_energy": -2.09, "cluster_size": 25, "cluster_id": 2, "rank_in_cluster": 25}

>  <energy>  (53) 
-9.29

>  <cluster_rmsd>  (53) 
1.22

>  <cluster>  (53) 
1

$$$$

     RDKit          3D

 51 54  0  0  0  0  0  0  0  0999 V2000
  141.3300   71.7190  221.5660 O   0  0  0  0  0  0  0  0  0  0  0  0
  140.5470   72.1700  222.4570 C   0  0  0  0  0  0  0  0  0  0  0  0
  139.9230   73.4340  222.2530 N   0  0  0  0  0  0  0  0  0  0  0  0
  140.2140   74.1400  221.0360 C   0  0  0  0  0  0  0  0  0  0  0  0
  140.7070   75.5070  221.3320 C   0  0  0  0  0  0  0  0  0  0  0  0
  140.3850   76.1530  222.3680 O   0  0  0  0  0  0  0  0  0  0  0  0
  141.5880   76.1620  220.4280 N   0  0  0  0  0  0  0  0  0  0  0  0
  141.8550   77.5790  220.5870 C   0  0  0  0  0  0  0  0  0  0  0  0
  141.3460   78.2630  219.3240 C   0  0  0  0  0  0  0  0  0  0  0  0
  141.8560   77.5580  218.0870 C   0  0  0  0  0  0  0  0  0  0  0  0
  142.9210   76.5640  218.4900 C   0  0  0  0  0  0  0  0  0  0  0  0
  142.2500   75.4810  219.3310 C   0  0  1  0  0  0  0  0  0  0  0  0
  143.2690   74.5020  219.7840 C   0  0  0  0  0  0  0  0  0  0  0  0
  144.4390   74.9060  220.4220 C   0  0  0  0  0  0  0  0  0  0  0  0
  145.3860   73.9940  220.8420 C   0  0  0  0  0  0  0  0  0  0  0  0
  145.1940   72.6350  220.6400 C   0  0  0  0  0  0  0  0  0  0  0  0
  144.0290   72.2120  220.0020 C   0  0  0  0  0  0  0  0  0  0  0  0
  143.7210   70.3390  219.6990 Br  0  0  0  0  0  0  0  0  0  0  0  0
  143.0800   73.1500  219.5820 C   0  0  0  0  0  0  0  0  0  0  0  0
  140.2830   71.4140  223.6790 C   0  0  0  0  0  0  0  0  0  0  0  0
  139.5930   70.2260  223.5900 C   0  0  0  0  0  0  0  0  0  0  0  0
  139.3060   69.4570  224.6980 C   0  0  0  0  0  0  0  0  0  0  0  0
  139.7310   69.9050  225.9320 C   0  0  0  0  0  0  0  0  0  0  0  0
  139.4620   69.1620  227.0710 C   0  0  0  0  0  0  0  0  0  0  0  0
  139.8950   69.6290  228.2850 C   0  0  0  0  0  0  0  0  0  0  0  0
  140.5890   70.8290  228.3470 C   0  0  0  0  0  0  0  0  0  0  0  0
  140.8560   71.5710  227.2020 C   0  0  0  0  0  0  0  0  0  0  0  0
  140.4200   71.1020  225.9800 C   0  0  0  0  0  0  0  0  0  0  0  0
  140.6930   71.8400  224.8920 N   0  0  0  0  0  0  0  0  0  0  0  0
  139.2720   73.8110  222.9930 H   0  0  0  0  0  0  0  0  0  0  0  0
  140.9847   73.5912  220.4749 H   0  0  0  0  0  0  0  0  0  0  0  0
  139.2923   74.2161  220.4405 H   0  0  0  0  0  0  0  0  0  0  0  0
  141.3254   77.9683  221.4690 H   0  0  0  0  0  0  0  0  0  0  0  0
  142.9290   77.7660  220.7338 H   0  0  0  0  0  0  0  0  0  0  0  0
  140.2462   78.2438  219.3221 H   0  0  0  0  0  0  0  0  0  0  0  0
  141.7116   79.3004  219.3138 H   0  0  0  0  0  0  0  0  0  0  0  0
  141.0259   77.0298  217.5951 H   0  0  0  0  0  0  0  0  0  0  0  0
  142.2804   78.2941  217.3885 H   0  0  0  0  0  0  0  0  0  0  0  0
  143.3735   76.1155  217.5933 H   0  0  0  0  0  0  0  0  0  0  0  0
  143.7152   77.0621  219.0654 H   0  0  0  0  0  0  0  0  0  0  0  0
  141.5051   74.9039  218.7635 H   0  0  0  0  0  0  0  0  0  0  0  0
  144.6127   75.9782  220.5955 H   0  0  0  0  0  0  0  0  0  0  0  0
  146.3004   74.3476  221.3409 H   0  0  0  0  0  0  0  0  0  0  0  0
  145.9459   71.9060  220.9765 H   0  0  0  0  0  0  0  0  0  0  0  0
  142.1645   72.8029  219.0806 H   0  0  0  0  0  0  0  0  0  0  0  0
  139.2592   69.8784  222.6012 H   0  0  0  0  0  0  0  0  0  0  0  0
  138.7528   68.5112  224.6007 H   0  0  0  0  0  0  0  0  0  0  0  0
  138.9100   68.2130  227.0018 H   0  0  0  0  0  0  0  0  0  0  0  0
  139.6939   69.0569  229.2028 H   0  0  0  0  0  0  0  0  0  0  0  0
  140.9352   71.2010  229.3226 H   0  0  0  0  0  0  0  0  0  0  0  0
  141.4080   72.5201  227.2695 H   0  0  0  0  0  0  0  0  0  0  0  0
  1  2  2  0
  2  3  1  0
  3  4  1  0
  4  5  1  0
  5  6  2  0
  5  7  1  0
  7  8  1  0
  8  9  1  0
  9 10  1  0
 10 11  1  0
 11 12  1  0
 12 13  1  0
 13 14  2  0
 14 15  1  0
 15 16  2  0
 16 17  1  0
 17 18  1  0
 17 19  2  0
  2 20  1  0
 20 21  2  0
 21 22  1  0
 22 23  2  0
 23 24  1  0
 24 25  2  0
 25 26  1  0
 26 27  2  0
 27 28  1  0
 28 29  2  0
 12  7  1  0
 19 13  1  0
 29 20  1  0
 28 23  1  0
  3 30  1  0
  4 31  1  0
  4 32  1  0
  8 33  1  0
  8 34  1  0
  9 35  1  0
  9 36  1  0
 10 37  1  0
 10 38  1  0
 11 39  1  0
 11 40  1  0
 12 41  1  6
 14 42  1  0
 15 43  1  0
 16 44  1  0
 19 45  1  0
 21 46  1  0
 22 47  1  0
 24 48  1  0
 25 49  1  0
 26 50  1  0
 27 51  1  0
M  END
>  <smiles>  (54) 
O=C(NCC(=O)N1CCCCC1c1cccc(Br)c1)c1ccc2ccccc2n1

>  <score_type>  (54) 
oracle

>  <origin>  (54) 
autodockgpu

>  <m_score__min__energy>  (54) 
-9.4100000000000001

>  <m_primary>  (54) 
energy

>  <rmsd>  (54) 
2.374452318243006

>  <m_score__min__rmsd>  (54) 
2.374452318243006

>  <meeko>  (54) 
{"free_energy": -9.18, "intermolecular_energy": -10.67, "internal_energy": -1.97, "cluster_size": 25, "cluster_id": 2, "rank_in_cluster": 8}

>  <energy>  (54) 
-9.23

>  <cluster_rmsd>  (54) 
0.22

>  <cluster>  (54) 
1

$$$$

     RDKit          3D

 51 54  0  0  0  0  0  0  0  0999 V2000
  139.3540   74.5280  220.8860 O   0  0  0  0  0  0  0  0  0  0  0  0
  140.5360   74.8340  221.2300 C   0  0  0  0  0  0  0  0  0  0  0  0
  140.7490   76.0160  221.9960 N   0  0  0  0  0  0  0  0  0  0  0  0
  139.6020   76.8080  222.3430 C   0  0  0  0  0  0  0  0  0  0  0  0
  139.7560   78.1960  221.8440 C   0  0  0  0  0  0  0  0  0  0  0  0
  138.8630   78.8030  221.1910 O   0  0  0  0  0  0  0  0  0  0  0  0
  140.9570   78.9170  222.0930 N   0  0  0  0  0  0  0  0  0  0  0  0
  141.7940   78.5450  223.2180 C   0  0  0  0  0  0  0  0  0  0  0  0
  141.8280   79.7500  224.1530 C   0  0  0  0  0  0  0  0  0  0  0  0
  142.1490   81.0140  223.3880 C   0  0  0  0  0  0  0  0  0  0  0  0
  142.5970   80.6460  221.9930 C   0  0  0  0  0  0  0  0  0  0  0  0
  141.4040   80.0250  221.2720 C   0  0  1  0  0  0  0  0  0  0  0  0
  141.8090   79.6110  219.9050 C   0  0  0  0  0  0  0  0  0  0  0  0
  141.8810   80.5230  218.8560 C   0  0  0  0  0  0  0  0  0  0  0  0
  142.2580   80.1370  217.5860 C   0  0  0  0  0  0  0  0  0  0  0  0
  142.5780   78.8140  217.3180 C   0  0  0  0  0  0  0  0  0  0  0  0
  142.5100   77.8860  218.3560 C   0  0  0  0  0  0  0  0  0  0  0  0
  142.9440   76.0410  218.0310 Br  0  0  0  0  0  0  0  0  0  0  0  0
  142.1260   78.2950  219.6370 C   0  0  0  0  0  0  0  0  0  0  0  0
  141.6710   73.9950  220.8520 C   0  0  0  0  0  0  0  0  0  0  0  0
  141.4390   72.6890  220.4840 C   0  0  0  0  0  0  0  0  0  0  0  0
  142.4590   71.8370  220.1150 C   0  0  0  0  0  0  0  0  0  0  0  0
  143.7500   72.3230  220.1170 C   0  0  0  0  0  0  0  0  0  0  0  0
  144.8030   71.4980  219.7520 C   0  0  0  0  0  0  0  0  0  0  0  0
  146.0760   72.0060  219.7640 C   0  0  0  0  0  0  0  0  0  0  0  0
  146.2830   73.3260  220.1370 C   0  0  0  0  0  0  0  0  0  0  0  0
  145.2230   74.1490  220.5020 C   0  0  0  0  0  0  0  0  0  0  0  0
  143.9410   73.6390  220.4920 C   0  0  0  0  0  0  0  0  0  0  0  0
  142.9390   74.4580  220.8490 N   0  0  0  0  0  0  0  0  0  0  0  0
  141.7310   76.2730  222.2830 H   0  0  0  0  0  0  0  0  0  0  0  0
  138.7037   76.3597  221.8934 H   0  0  0  0  0  0  0  0  0  0  0  0
  139.5068   76.8335  223.4386 H   0  0  0  0  0  0  0  0  0  0  0  0
  141.3674   77.6739  223.7368 H   0  0  0  0  0  0  0  0  0  0  0  0
  142.8065   78.2717  222.8860 H   0  0  0  0  0  0  0  0  0  0  0  0
  140.8456   79.8600  224.6354 H   0  0  0  0  0  0  0  0  0  0  0  0
  142.6098   79.5874  224.9095 H   0  0  0  0  0  0  0  0  0  0  0  0
  141.2522   81.6485  223.3317 H   0  0  0  0  0  0  0  0  0  0  0  0
  142.9504   81.5652  223.9017 H   0  0  0  0  0  0  0  0  0  0  0  0
  142.9315   81.5465  221.4571 H   0  0  0  0  0  0  0  0  0  0  0  0
  143.4361   79.9358  222.0323 H   0  0  0  0  0  0  0  0  0  0  0  0
  140.5730   80.7336  221.1405 H   0  0  0  0  0  0  0  0  0  0  0  0
  141.6312   81.5776  219.0441 H   0  0  0  0  0  0  0  0  0  0  0  0
  142.3052   80.8840  216.7799 H   0  0  0  0  0  0  0  0  0  0  0  0
  142.8794   78.5035  216.3067 H   0  0  0  0  0  0  0  0  0  0  0  0
  142.0757   77.5527  220.4473 H   0  0  0  0  0  0  0  0  0  0  0  0
  140.4055   72.3122  220.4842 H   0  0  0  0  0  0  0  0  0  0  0  0
  142.2484   70.7966  219.8265 H   0  0  0  0  0  0  0  0  0  0  0  0
  144.6199   70.4540  219.4579 H   0  0  0  0  0  0  0  0  0  0  0  0
  146.9280   71.3710  219.4797 H   0  0  0  0  0  0  0  0  0  0  0  0
  147.3062   73.7299  220.1442 H   0  0  0  0  0  0  0  0  0  0  0  0
  145.4044   75.1936  220.7950 H   0  0  0  0  0  0  0  0  0  0  0  0
  1  2  2  0
  2  3  1  0
  3  4  1  0
  4  5  1  0
  5  6  2  0
  5  7  1  0
  7  8  1  0
  8  9  1  0
  9 10  1  0
 10 11  1  0
 11 12  1  0
 12 13  1  0
 13 14  2  0
 14 15  1  0
 15 16  2  0
 16 17  1  0
 17 18  1  0
 17 19  2  0
  2 20  1  0
 20 21  2  0
 21 22  1  0
 22 23  2  0
 23 24  1  0
 24 25  2  0
 25 26  1  0
 26 27  2  0
 27 28  1  0
 28 29  2  0
 12  7  1  0
 19 13  1  0
 29 20  1  0
 28 23  1  0
  3 30  1  0
  4 31  1  0
  4 32  1  0
  8 33  1  0
  8 34  1  0
  9 35  1  0
  9 36  1  0
 10 37  1  0
 10 38  1  0
 11 39  1  0
 11 40  1  0
 12 41  1  6
 14 42  1  0
 15 43  1  0
 16 44  1  0
 19 45  1  0
 21 46  1  0
 22 47  1  0
 24 48  1  0
 25 49  1  0
 26 50  1  0
 27 51  1  0
M  END
>  <smiles>  (55) 
O=C(NCC(=O)N1CCCCC1c1cccc(Br)c1)c1ccc2ccccc2n1

>  <score_type>  (55) 
oracle

>  <origin>  (55) 
autodockgpu

>  <m_score__min__energy>  (55) 
-9.4100000000000001

>  <m_primary>  (55) 
energy

>  <rmsd>  (55) 
6.432744465045093

>  <m_score__min__rmsd>  (55) 
6.432744465045093

>  <meeko>  (55) 
{"free_energy": -7.6, "intermolecular_energy": -9.09, "internal_energy": -2.4, "cluster_size": 1, "cluster_id": 7, "rank_in_cluster": 1}

>  <energy>  (55) 
-9.22

>  <cluster_rmsd>  (55) 
0.19

>  <cluster>  (55) 
1

$$$$

     RDKit          3D

 51 54  0  0  0  0  0  0  0  0999 V2000
  141.0880   71.4240  221.4260 O   0  0  0  0  0  0  0  0  0  0  0  0
  140.5360   72.0040  222.4100 C   0  0  0  0  0  0  0  0  0  0  0  0
  140.1520   73.3690  222.2790 N   0  0  0  0  0  0  0  0  0  0  0  0
  140.4120   74.0250  221.0280 C   0  0  0  0  0  0  0  0  0  0  0  0
  140.6020   75.4820  221.2330 C   0  0  0  0  0  0  0  0  0  0  0  0
  139.9610   76.1530  222.0880 O   0  0  0  0  0  0  0  0  0  0  0  0
  141.5450   76.1990  220.4450 N   0  0  0  0  0  0  0  0  0  0  0  0
  141.8020   77.5970  220.7330 C   0  0  0  0  0  0  0  0  0  0  0  0
  141.3820   78.3810  219.4950 C   0  0  0  0  0  0  0  0  0  0  0  0
  141.9750   77.7710  218.2450 C   0  0  0  0  0  0  0  0  0  0  0  0
  143.0080   76.7420  218.6410 C   0  0  0  0  0  0  0  0  0  0  0  0
  142.2800   75.6010  219.3460 C   0  0  1  0  0  0  0  0  0  0  0  0
  143.2630   74.5820  219.7900 C   0  0  0  0  0  0  0  0  0  0  0  0
  144.4410   74.9380  220.4430 C   0  0  0  0  0  0  0  0  0  0  0  0
  145.3540   73.9890  220.8550 C   0  0  0  0  0  0  0  0  0  0  0  0
  145.1210   72.6410  220.6270 C   0  0  0  0  0  0  0  0  0  0  0  0
  143.9490   72.2660  219.9740 C   0  0  0  0  0  0  0  0  0  0  0  0
  143.5830   70.4090  219.6370 Br  0  0  0  0  0  0  0  0  0  0  0  0
  143.0330   73.2410  219.5640 C   0  0  0  0  0  0  0  0  0  0  0  0
  140.2920   71.2930  223.6630 C   0  0  0  0  0  0  0  0  0  0  0  0
  139.6440   70.0790  223.6240 C   0  0  0  0  0  0  0  0  0  0  0  0
  139.3780   69.3510  224.7640 C   0  0  0  0  0  0  0  0  0  0  0  0
  139.7830   69.8660  225.9780 C   0  0  0  0  0  0  0  0  0  0  0  0
  139.5340   69.1640  227.1480 C   0  0  0  0  0  0  0  0  0  0  0  0
  139.9460   69.6990  228.3410 C   0  0  0  0  0  0  0  0  0  0  0  0
  140.5980   70.9230  228.3530 C   0  0  0  0  0  0  0  0  0  0  0  0
  140.8440   71.6240  227.1770 C   0  0  0  0  0  0  0  0  0  0  0  0
  140.4300   71.0860  225.9750 C   0  0  0  0  0  0  0  0  0  0  0  0
  140.6820   71.7860  224.8570 N   0  0  0  0  0  0  0  0  0  0  0  0
  139.6920   73.8540  223.0960 H   0  0  0  0  0  0  0  0  0  0  0  0
  141.3227   73.6011  220.5797 H   0  0  0  0  0  0  0  0  0  0  0  0
  139.5518   73.8697  220.3602 H   0  0  0  0  0  0  0  0  0  0  0  0
  141.2132   77.9195  221.6043 H   0  0  0  0  0  0  0  0  0  0  0  0
  142.8634   77.7651  220.9678 H   0  0  0  0  0  0  0  0  0  0  0  0
  140.2849   78.3695  219.4161 H   0  0  0  0  0  0  0  0  0  0  0  0
  141.7487   79.4136  219.5910 H   0  0  0  0  0  0  0  0  0  0  0  0
  141.1801   77.2882  217.6576 H   0  0  0  0  0  0  0  0  0  0  0  0
  142.4476   78.5564  217.6369 H   0  0  0  0  0  0  0  0  0  0  0  0
  143.5210   76.3622  217.7451 H   0  0  0  0  0  0  0  0  0  0  0  0
  143.7608   77.1885  219.3073 H   0  0  0  0  0  0  0  0  0  0  0  0
  141.5759   75.0748  218.6846 H   0  0  0  0  0  0  0  0  0  0  0  0
  144.6482   76.0011  220.6347 H   0  0  0  0  0  0  0  0  0  0  0  0
  146.2743   74.3042  221.3685 H   0  0  0  0  0  0  0  0  0  0  0  0
  145.8473   71.8829  220.9553 H   0  0  0  0  0  0  0  0  0  0  0  0
  142.1105   72.9316  219.0509 H   0  0  0  0  0  0  0  0  0  0  0  0
  139.3278   69.6763  222.6504 H   0  0  0  0  0  0  0  0  0  0  0  0
  138.8562   68.3843  224.7071 H   0  0  0  0  0  0  0  0  0  0  0  0
  139.0148   68.1946  227.1191 H   0  0  0  0  0  0  0  0  0  0  0  0
  139.7607   69.1611  229.2825 H   0  0  0  0  0  0  0  0  0  0  0  0
  140.9275   71.3483  229.3125 H   0  0  0  0  0  0  0  0  0  0  0  0
  141.3616   72.5942  227.2045 H   0  0  0  0  0  0  0  0  0  0  0  0
  1  2  2  0
  2  3  1  0
  3  4  1  0
  4  5  1  0
  5  6  2  0
  5  7  1  0
  7  8  1  0
  8  9  1  0
  9 10  1  0
 10 11  1  0
 11 12  1  0
 12 13  1  0
 13 14  2  0
 14 15  1  0
 15 16  2  0
 16 17  1  0
 17 18  1  0
 17 19  2  0
  2 20  1  0
 20 21  2  0
 21 22  1  0
 22 23  2  0
 23 24  1  0
 24 25  2  0
 25 26  1  0
 26 27  2  0
 27 28  1  0
 28 29  2  0
 12  7  1  0
 19 13  1  0
 29 20  1  0
 28 23  1  0
  3 30  1  0
  4 31  1  0
  4 32  1  0
  8 33  1  0
  8 34  1  0
  9 35  1  0
  9 36  1  0
 10 37  1  0
 10 38  1  0
 11 39  1  0
 11 40  1  0
 12 41  1  6
 14 42  1  0
 15 43  1  0
 16 44  1  0
 19 45  1  0
 21 46  1  0
 22 47  1  0
 24 48  1  0
 25 49  1  0
 26 50  1  0
 27 51  1  0
M  END
>  <smiles>  (56) 
O=C(NCC(=O)N1CCCCC1c1cccc(Br)c1)c1ccc2ccccc2n1

>  <score_type>  (56) 
oracle

>  <origin>  (56) 
autodockgpu

>  <m_score__min__energy>  (56) 
-9.4100000000000001

>  <m_primary>  (56) 
energy

>  <rmsd>  (56) 
2.4134815762578947

>  <m_score__min__rmsd>  (56) 
2.4134815762578947

>  <meeko>  (56) 
{"free_energy": -9.0, "intermolecular_energy": -10.49, "internal_energy": -1.98, "cluster_size": 25, "cluster_id": 2, "rank_in_cluster": 17}

>  <energy>  (56) 
-8.34

>  <cluster_rmsd>  (56) 
1.72

>  <cluster>  (56) 
1

$$$$

     RDKit          3D

 51 54  0  0  0  0  0  0  0  0999 V2000
  140.3880   74.0760  220.3330 O   0  0  0  0  0  0  0  0  0  0  0  0
  140.1140   74.8020  221.3370 C   0  0  0  0  0  0  0  0  0  0  0  0
  139.2460   74.2910  222.3430 N   0  0  0  0  0  0  0  0  0  0  0  0
  138.7180   72.9660  222.1670 C   0  0  0  0  0  0  0  0  0  0  0  0
  139.6590   71.9540  222.7070 C   0  0  0  0  0  0  0  0  0  0  0  0
  140.6870   72.2490  223.3760 O   0  0  0  0  0  0  0  0  0  0  0  0
  139.4270   70.5690  222.4810 N   0  0  0  0  0  0  0  0  0  0  0  0
  139.9670   69.9380  221.2920 C   0  0  0  0  0  0  0  0  0  0  0  0
  138.7750   69.4460  220.4790 C   0  0  0  0  0  0  0  0  0  0  0  0
  137.8160   68.6650  221.3510 C   0  0  0  0  0  0  0  0  0  0  0  0
  138.4720   68.3930  222.6840 C   0  0  0  0  0  0  0  0  0  0  0  0
  138.6660   69.7330  223.3880 C   0  0  1  0  0  0  0  0  0  0  0  0
  139.3450   69.5170  224.6900 C   0  0  0  0  0  0  0  0  0  0  0  0
  139.5400   68.2400  225.2100 C   0  0  0  0  0  0  0  0  0  0  0  0
  140.1720   68.0410  226.4200 C   0  0  0  0  0  0  0  0  0  0  0  0
  140.6360   69.1190  227.1590 C   0  0  0  0  0  0  0  0  0  0  0  0
  140.4490   70.4050  226.6550 C   0  0  0  0  0  0  0  0  0  0  0  0
  141.0740   71.9300  227.6440 Br  0  0  0  0  0  0  0  0  0  0  0  0
  139.8060   70.5890  225.4260 C   0  0  0  0  0  0  0  0  0  0  0  0
  140.6760   76.1450  221.4710 C   0  0  0  0  0  0  0  0  0  0  0  0
  141.4510   76.6460  220.4490 C   0  0  0  0  0  0  0  0  0  0  0  0
  142.0150   77.9030  220.5030 C   0  0  0  0  0  0  0  0  0  0  0  0
  141.7860   78.6750  221.6230 C   0  0  0  0  0  0  0  0  0  0  0  0
  142.3350   79.9440  221.7160 C   0  0  0  0  0  0  0  0  0  0  0  0
  142.0930   80.6900  222.8400 C   0  0  0  0  0  0  0  0  0  0  0  0
  141.3080   80.1630  223.8540 C   0  0  0  0  0  0  0  0  0  0  0  0
  140.7590   78.8890  223.7570 C   0  0  0  0  0  0  0  0  0  0  0  0
  141.0030   78.1360  222.6260 C   0  0  0  0  0  0  0  0  0  0  0  0
  140.4600   76.9110  222.5600 N   0  0  0  0  0  0  0  0  0  0  0  0
  139.0160   74.8930  223.1790 H   0  0  0  0  0  0  0  0  0  0  0  0
  137.7575   72.8860  222.6971 H   0  0  0  0  0  0  0  0  0  0  0  0
  138.5754   72.7805  221.0922 H   0  0  0  0  0  0  0  0  0  0  0  0
  140.5501   70.6654  220.7081 H   0  0  0  0  0  0  0  0  0  0  0  0
  140.6378   69.1067  221.5546 H   0  0  0  0  0  0  0  0  0  0  0  0
  138.2491   70.3116  220.0499 H   0  0  0  0  0  0  0  0  0  0  0  0
  139.1418   68.7860  219.6791 H   0  0  0  0  0  0  0  0  0  0  0  0
  136.8975   69.2504  221.5048 H   0  0  0  0  0  0  0  0  0  0  0  0
  137.5606   67.7134  220.8619 H   0  0  0  0  0  0  0  0  0  0  0  0
  137.8284   67.7402  223.2920 H   0  0  0  0  0  0  0  0  0  0  0  0
  139.4394   67.8892  222.5415 H   0  0  0  0  0  0  0  0  0  0  0  0
  137.7133   70.2306  223.6218 H   0  0  0  0  0  0  0  0  0  0  0  0
  139.1814   67.3688  224.6422 H   0  0  0  0  0  0  0  0  0  0  0  0
  140.3091   67.0186  226.8020 H   0  0  0  0  0  0  0  0  0  0  0  0
  141.1414   68.9623  228.1234 H   0  0  0  0  0  0  0  0  0  0  0  0
  139.6652   71.6089  225.0388 H   0  0  0  0  0  0  0  0  0  0  0  0
  141.6260   76.0226  219.5598 H   0  0  0  0  0  0  0  0  0  0  0  0
  142.6318   78.2806  219.6742 H   0  0  0  0  0  0  0  0  0  0  0  0
  142.9549   80.3460  220.9010 H   0  0  0  0  0  0  0  0  0  0  0  0
  142.5186   81.6997  222.9369 H   0  0  0  0  0  0  0  0  0  0  0  0
  141.1154   80.7652  224.7541 H   0  0  0  0  0  0  0  0  0  0  0  0
  140.1383   78.4864  224.5710 H   0  0  0  0  0  0  0  0  0  0  0  0
  1  2  2  0
  2  3  1  0
  3  4  1  0
  4  5  1  0
  5  6  2  0
  5  7  1  0
  7  8  1  0
  8  9  1  0
  9 10  1  0
 10 11  1  0
 11 12  1  0
 12 13  1  0
 13 14  2  0
 14 15  1  0
 15 16  2  0
 16 17  1  0
 17 18  1  0
 17 19  2  0
  2 20  1  0
 20 21  2  0
 21 22  1  0
 22 23  2  0
 23 24  1  0
 24 25  2  0
 25 26  1  0
 26 27  2  0
 27 28  1  0
 28 29  2  0
 12  7  1  0
 19 13  1  0
 29 20  1  0
 28 23  1  0
  3 30  1  0
  4 31  1  0
  4 32  1  0
  8 33  1  0
  8 34  1  0
  9 35  1  0
  9 36  1  0
 10 37  1  0
 10 38  1  0
 11 39  1  0
 11 40  1  0
 12 41  1  1
 14 42  1  0
 15 43  1  0
 16 44  1  0
 19 45  1  0
 21 46  1  0
 22 47  1  0
 24 48  1  0
 25 49  1  0
 26 50  1  0
 27 51  1  0
M  END
>  <smiles>  (57) 
O=C(NCC(=O)N1CCCCC1c1cccc(Br)c1)c1ccc2ccccc2n1

>  <score_type>  (57) 
oracle

>  <origin>  (57) 
autodockgpu

>  <m_score__min__energy>  (57) 
-9.4100000000000001

>  <m_primary>  (57) 
energy

>  <rmsd>  (57) 
8.108582402845785

>  <m_score__min__rmsd>  (57) 
8.108582402845785

>  <meeko>  (57) 
{"free_energy": -9.13, "intermolecular_energy": -10.62, "internal_energy": -1.57, "cluster_size": 7, "cluster_id": 3, "rank_in_cluster": 5}

>  <energy>  (57) 
-9.22

>  <cluster_rmsd>  (57) 
0.0

>  <cluster>  (57) 
2

$$$$

     RDKit          3D

 51 54  0  0  0  0  0  0  0  0999 V2000
  139.8650   71.1530  221.2250 O   0  0  0  0  0  0  0  0  0  0  0  0
  139.5410   71.7810  222.2790 C   0  0  0  0  0  0  0  0  0  0  0  0
  138.9530   73.0720  222.1600 N   0  0  0  0  0  0  0  0  0  0  0  0
  138.7550   73.6030  220.8400 C   0  0  0  0  0  0  0  0  0  0  0  0
  140.0580   73.8850  220.1900 C   0  0  0  0  0  0  0  0  0  0  0  0
  140.5540   73.1610  219.2830 O   0  0  0  0  0  0  0  0  0  0  0  0
  140.8210   75.0210  220.5800 N   0  0  0  0  0  0  0  0  0  0  0  0
  140.6520   75.5740  221.9100 C   0  0  0  0  0  0  0  0  0  0  0  0
  140.1280   76.9940  221.7280 C   0  0  0  0  0  0  0  0  0  0  0  0
  140.9650   77.7520  220.7220 C   0  0  0  0  0  0  0  0  0  0  0  0
  142.2100   76.9530  220.4160 C   0  0  0  0  0  0  0  0  0  0  0  0
  141.7780   75.6730  219.7070 C   0  0  1  0  0  0  0  0  0  0  0  0
  142.9700   74.8360  219.4210 C   0  0  0  0  0  0  0  0  0  0  0  0
  143.2140   74.3200  218.1500 C   0  0  0  0  0  0  0  0  0  0  0  0
  144.3220   73.5420  217.8860 C   0  0  0  0  0  0  0  0  0  0  0  0
  145.2330   73.2490  218.8900 C   0  0  0  0  0  0  0  0  0  0  0  0
  145.0050   73.7550  220.1680 C   0  0  0  0  0  0  0  0  0  0  0  0
  146.2400   73.3750  221.5920 Br  0  0  0  0  0  0  0  0  0  0  0  0
  143.8760   74.5430  220.4190 C   0  0  0  0  0  0  0  0  0  0  0  0
  139.7640   71.1980  223.6000 C   0  0  0  0  0  0  0  0  0  0  0  0
  139.4140   69.8840  223.8150 C   0  0  0  0  0  0  0  0  0  0  0  0
  139.5930   69.2650  225.0340 C   0  0  0  0  0  0  0  0  0  0  0  0
  140.1440   69.9990  226.0650 C   0  0  0  0  0  0  0  0  0  0  0  0
  140.3410   69.4140  227.3060 C   0  0  0  0  0  0  0  0  0  0  0  0
  140.8900   70.1640  228.3130 C   0  0  0  0  0  0  0  0  0  0  0  0
  141.2350   71.4860  228.0700 C   0  0  0  0  0  0  0  0  0  0  0  0
  141.0360   72.0690  226.8230 C   0  0  0  0  0  0  0  0  0  0  0  0
  140.4830   71.3140  225.8090 C   0  0  0  0  0  0  0  0  0  0  0  0
  140.3020   71.9040  224.6170 N   0  0  0  0  0  0  0  0  0  0  0  0
  138.6840   73.5960  223.0350 H   0  0  0  0  0  0  0  0  0  0  0  0
  138.2003   72.8706  220.2351 H   0  0  0  0  0  0  0  0  0  0  0  0
  138.1865   74.5416  220.9168 H   0  0  0  0  0  0  0  0  0  0  0  0
  139.9295   74.9732  222.4818 H   0  0  0  0  0  0  0  0  0  0  0  0
  141.6017   75.5697  222.4650 H   0  0  0  0  0  0  0  0  0  0  0  0
  139.0879   76.9515  221.3724 H   0  0  0  0  0  0  0  0  0  0  0  0
  140.1818   77.5157  222.6949 H   0  0  0  0  0  0  0  0  0  0  0  0
  140.3863   77.9011  219.7985 H   0  0  0  0  0  0  0  0  0  0  0  0
  141.2449   78.7323  221.1350 H   0  0  0  0  0  0  0  0  0  0  0  0
  142.8778   77.5352  219.7640 H   0  0  0  0  0  0  0  0  0  0  0  0
  142.7524   76.7153  221.3430 H   0  0  0  0  0  0  0  0  0  0  0  0
  141.3034   75.8673  218.7339 H   0  0  0  0  0  0  0  0  0  0  0  0
  142.5057   74.5384  217.3372 H   0  0  0  0  0  0  0  0  0  0  0  0
  144.4845   73.1507  216.8709 H   0  0  0  0  0  0  0  0  0  0  0  0
  146.1178   72.6296  218.6815 H   0  0  0  0  0  0  0  0  0  0  0  0
  143.7078   74.9365  221.4323 H   0  0  0  0  0  0  0  0  0  0  0  0
  138.9766   69.3083  222.9860 H   0  0  0  0  0  0  0  0  0  0  0  0
  139.3043   68.2138  225.1810 H   0  0  0  0  0  0  0  0  0  0  0  0
  140.0612   68.3645  227.4798 H   0  0  0  0  0  0  0  0  0  0  0  0
  141.0559   69.7215  229.3063 H   0  0  0  0  0  0  0  0  0  0  0  0
  141.6751   72.0854  228.8806 H   0  0  0  0  0  0  0  0  0  0  0  0
  141.3158   73.1182  226.6474 H   0  0  0  0  0  0  0  0  0  0  0  0
  1  2  2  0
  2  3  1  0
  3  4  1  0
  4  5  1  0
  5  6  2  0
  5  7  1  0
  7  8  1  0
  8  9  1  0
  9 10  1  0
 10 11  1  0
 11 12  1  0
 12 13  1  0
 13 14  2  0
 14 15  1  0
 15 16  2  0
 16 17  1  0
 17 18  1  0
 17 19  2  0
  2 20  1  0
 20 21  2  0
 21 22  1  0
 22 23  2  0
 23 24  1  0
 24 25  2  0
 25 26  1  0
 26 27  2  0
 27 28  1  0
 28 29  2  0
 12  7  1  0
 19 13  1  0
 29 20  1  0
 28 23  1  0
  3 30  1  0
  4 31  1  0
  4 32  1  0
  8 33  1  0
  8 34  1  0
  9 35  1  0
  9 36  1  0
 10 37  1  0
 10 38  1  0
 11 39  1  0
 11 40  1  0
 12 41  1  6
 14 42  1  0
 15 43  1  0
 16 44  1  0
 19 45  1  0
 21 46  1  0
 22 47  1  0
 24 48  1  0
 25 49  1  0
 26 50  1  0
 27 51  1  0
M  END
>  <smiles>  (58) 
O=C(NCC(=O)N1CCCCC1c1cccc(Br)c1)c1ccc2ccccc2n1

>  <score_type>  (58) 
oracle

>  <origin>  (58) 
autodockgpu

>  <m_score__min__energy>  (58) 
-9.4100000000000001

>  <m_primary>  (58) 
energy

>  <rmsd>  (58) 
2.335472134663454

>  <m_score__min__rmsd>  (58) 
2.335472134663454

>  <meeko>  (58) 
{"free_energy": -8.72, "intermolecular_energy": -10.21, "internal_energy": -1.64, "cluster_size": 25, "cluster_id": 2, "rank_in_cluster": 22}

>  <energy>  (58) 
-9.2

>  <cluster_rmsd>  (58) 
0.05

>  <cluster>  (58) 
2

$$$$

     RDKit          3D

 51 54  0  0  0  0  0  0  0  0999 V2000
  140.6250   71.8920  221.1230 O   0  0  0  0  0  0  0  0  0  0  0  0
  140.2190   72.3400  222.2390 C   0  0  0  0  0  0  0  0  0  0  0  0
  139.8760   73.7180  222.3460 N   0  0  0  0  0  0  0  0  0  0  0  0
  140.0090   74.5380  221.1740 C   0  0  0  0  0  0  0  0  0  0  0  0
  140.2220   75.9570  221.5510 C   0  0  0  0  0  0  0  0  0  0  0  0
  140.0270   76.4030  222.7150 O   0  0  0  0  0  0  0  0  0  0  0  0
  140.6690   76.8960  220.5810 N   0  0  0  0  0  0  0  0  0  0  0  0
  139.9700   77.0050  219.3140 C   0  0  0  0  0  0  0  0  0  0  0  0
  140.9710   76.6230  218.2300 C   0  0  0  0  0  0  0  0  0  0  0  0
  142.2740   77.3700  218.4130 C   0  0  0  0  0  0  0  0  0  0  0  0
  142.0790   78.4520  219.4490 C   0  0  0  0  0  0  0  0  0  0  0  0
  141.8080   77.7700  220.7870 C   0  0  1  0  0  0  0  0  0  0  0  0
  141.5710   78.7980  221.8310 C   0  0  0  0  0  0  0  0  0  0  0  0
  142.6240   79.4000  222.5160 C   0  0  0  0  0  0  0  0  0  0  0  0
  142.4020   80.3560  223.4860 C   0  0  0  0  0  0  0  0  0  0  0  0
  141.1110   80.7470  223.8080 C   0  0  0  0  0  0  0  0  0  0  0  0
  140.0450   80.1550  223.1330 C   0  0  0  0  0  0  0  0  0  0  0  0
  138.2380   80.6660  223.5460 Br  0  0  0  0  0  0  0  0  0  0  0  0
  140.2880   79.1880  222.1520 C   0  0  0  0  0  0  0  0  0  0  0  0
  140.1010   71.4660  223.4030 C   0  0  0  0  0  0  0  0  0  0  0  0
  139.5650   70.2080  223.2380 C   0  0  0  0  0  0  0  0  0  0  0  0
  139.4220   69.3270  224.2890 C   0  0  0  0  0  0  0  0  0  0  0  0
  139.8340   69.7310  225.5420 C   0  0  0  0  0  0  0  0  0  0  0  0
  139.7070   68.8750  226.6250 C   0  0  0  0  0  0  0  0  0  0  0  0
  140.1230   69.3010  227.8590 C   0  0  0  0  0  0  0  0  0  0  0  0
  140.6600   70.5720  227.9980 C   0  0  0  0  0  0  0  0  0  0  0  0
  140.7860   71.4280  226.9090 C   0  0  0  0  0  0  0  0  0  0  0  0
  140.3660   71.0000  225.6660 C   0  0  0  0  0  0  0  0  0  0  0  0
  140.5000   71.8480  224.6340 N   0  0  0  0  0  0  0  0  0  0  0  0
  139.5380   74.0930  223.2720 H   0  0  0  0  0  0  0  0  0  0  0  0
  140.8685   74.1879  220.5835 H   0  0  0  0  0  0  0  0  0  0  0  0
  139.0849   74.4632  220.5821 H   0  0  0  0  0  0  0  0  0  0  0  0
  139.1099   76.3196  219.2949 H   0  0  0  0  0  0  0  0  0  0  0  0
  139.5870   78.0244  219.1587 H   0  0  0  0  0  0  0  0  0  0  0  0
  141.1649   75.5416  218.2834 H   0  0  0  0  0  0  0  0  0  0  0  0
  140.5474   76.8887  217.2502 H   0  0  0  0  0  0  0  0  0  0  0  0
  143.0548   76.6725  218.7506 H   0  0  0  0  0  0  0  0  0  0  0  0
  142.5813   77.8209  217.4579 H   0  0  0  0  0  0  0  0  0  0  0  0
  142.9861   79.0701  219.5205 H   0  0  0  0  0  0  0  0  0  0  0  0
  141.2375   79.1039  219.1715 H   0  0  0  0  0  0  0  0  0  0  0  0
  142.6622   77.1724  221.1381 H   0  0  0  0  0  0  0  0  0  0  0  0
  143.6570   79.1063  222.2780 H   0  0  0  0  0  0  0  0  0  0  0  0
  143.2562   80.8118  224.0082 H   0  0  0  0  0  0  0  0  0  0  0  0
  140.9319   81.5091  224.5807 H   0  0  0  0  0  0  0  0  0  0  0  0
  139.4380   78.7292  221.6257 H   0  0  0  0  0  0  0  0  0  0  0  0
  139.2402   69.8958  222.2345 H   0  0  0  0  0  0  0  0  0  0  0  0
  138.9904   68.3274  224.1323 H   0  0  0  0  0  0  0  0  0  0  0  0
  139.2791   67.8699  226.4957 H   0  0  0  0  0  0  0  0  0  0  0  0
  140.0317   68.6396  228.7332 H   0  0  0  0  0  0  0  0  0  0  0  0
  140.9933   70.9102  228.9902 H   0  0  0  0  0  0  0  0  0  0  0  0
  141.2148   72.4329  227.0368 H   0  0  0  0  0  0  0  0  0  0  0  0
  1  2  2  0
  2  3  1  0
  3  4  1  0
  4  5  1  0
  5  6  2  0
  5  7  1  0
  7  8  1  0
  8  9  1  0
  9 10  1  0
 10 11  1  0
 11 12  1  0
 12 13  1  0
 13 14  2  0
 14 15  1  0
 15 16  2  0
 16 17  1  0
 17 18  1  0
 17 19  2  0
  2 20  1  0
 20 21  2  0
 21 22  1  0
 22 23  2  0
 23 24  1  0
 24 25  2  0
 25 26  1  0
 26 27  2  0
 27 28  1  0
 28 29  2  0
 12  7  1  0
 19 13  1  0
 29 20  1  0
 28 23  1  0
  3 30  1  0
  4 31  1  0
  4 32  1  0
  8 33  1  0
  8 34  1  0
  9 35  1  0
  9 36  1  0
 10 37  1  0
 10 38  1  0
 11 39  1  0
 11 40  1  0
 12 41  1  1
 14 42  1  0
 15 43  1  0
 16 44  1  0
 19 45  1  0
 21 46  1  0
 22 47  1  0
 24 48  1  0
 25 49  1  0
 26 50  1  0
 27 51  1  0
M  END
>  <smiles>  (59) 
O=C(NCC(=O)N1CCCCC1c1cccc(Br)c1)c1ccc2ccccc2n1

>  <score_type>  (59) 
oracle

>  <origin>  (59) 
autodockgpu

>  <m_score__min__energy>  (59) 
-9.4100000000000001

>  <m_primary>  (59) 
energy

>  <rmsd>  (59) 
1.7230598832217667

>  <m_score__min__rmsd>  (59) 
1.7230598832217667

>  <meeko>  (59) 
{"free_energy": -9.23, "intermolecular_energy": -10.72, "internal_energy": -1.7, "cluster_size": 6, "cluster_id": 1, "rank_in_cluster": 4}

>  <energy>  (59) 
-9.2

>  <cluster_rmsd>  (59) 
0.05

>  <cluster>  (59) 
2

$$$$

     RDKit          3D

 51 54  0  0  0  0  0  0  0  0999 V2000
  141.1630   71.6380  221.4220 O   0  0  0  0  0  0  0  0  0  0  0  0
  140.5520   72.1590  222.4050 C   0  0  0  0  0  0  0  0  0  0  0  0
  140.0840   73.4990  222.2940 N   0  0  0  0  0  0  0  0  0  0  0  0
  140.3300   74.1990  221.0640 C   0  0  0  0  0  0  0  0  0  0  0  0
  140.8850   75.5480  221.3330 C   0  0  0  0  0  0  0  0  0  0  0  0
  140.6310   76.2080  222.3790 O   0  0  0  0  0  0  0  0  0  0  0  0
  141.7520   76.1660  220.3900 N   0  0  0  0  0  0  0  0  0  0  0  0
  142.0140   77.5900  220.4860 C   0  0  0  0  0  0  0  0  0  0  0  0
  141.4860   78.2170  219.2010 C   0  0  0  0  0  0  0  0  0  0  0  0
  141.9830   77.4610  217.9890 C   0  0  0  0  0  0  0  0  0  0  0  0
  143.0570   76.4910  218.4210 C   0  0  0  0  0  0  0  0  0  0  0  0
  142.4030   75.4420  219.3160 C   0  0  1  0  0  0  0  0  0  0  0  0
  143.4320   74.4870  219.7970 C   0  0  0  0  0  0  0  0  0  0  0  0
  144.5750   74.9190  220.4650 C   0  0  0  0  0  0  0  0  0  0  0  0
  145.5310   74.0290  220.9120 C   0  0  0  0  0  0  0  0  0  0  0  0
  145.3760   72.6670  220.7060 C   0  0  0  0  0  0  0  0  0  0  0  0
  144.2390   72.2160  220.0390 C   0  0  0  0  0  0  0  0  0  0  0  0
  143.9820   70.3350  219.7300 Br  0  0  0  0  0  0  0  0  0  0  0  0
  143.2800   73.1310  219.5920 C   0  0  0  0  0  0  0  0  0  0  0  0
  140.3270   71.4060  223.6360 C   0  0  0  0  0  0  0  0  0  0  0  0
  139.7030   70.1810  223.5620 C   0  0  0  0  0  0  0  0  0  0  0  0
  139.4560   69.4120  224.6800 C   0  0  0  0  0  0  0  0  0  0  0  0
  139.8540   69.8980  225.9080 C   0  0  0  0  0  0  0  0  0  0  0  0
  139.6240   69.1560  227.0560 C   0  0  0  0  0  0  0  0  0  0  0  0
  140.0290   69.6620  228.2640 C   0  0  0  0  0  0  0  0  0  0  0  0
  140.6560   70.8980  228.3120 C   0  0  0  0  0  0  0  0  0  0  0  0
  140.8850   71.6390  227.1570 C   0  0  0  0  0  0  0  0  0  0  0  0
  140.4770   71.1310  225.9410 C   0  0  0  0  0  0  0  0  0  0  0  0
  140.7110   71.8690  224.8440 N   0  0  0  0  0  0  0  0  0  0  0  0
  139.5760   73.9350  223.1100 H   0  0  0  0  0  0  0  0  0  0  0  0
  141.0489   73.6263  220.4596 H   0  0  0  0  0  0  0  0  0  0  0  0
  139.3791   74.3084  220.5219 H   0  0  0  0  0  0  0  0  0  0  0  0
  141.4931   78.0140  221.3572 H   0  0  0  0  0  0  0  0  0  0  0  0
  143.0886   77.7882  220.6119 H   0  0  0  0  0  0  0  0  0  0  0  0
  140.3863   78.1939  219.2142 H   0  0  0  0  0  0  0  0  0  0  0  0
  141.8472   79.2543  219.1413 H   0  0  0  0  0  0  0  0  0  0  0  0
  141.1492   76.9083  217.5316 H   0  0  0  0  0  0  0  0  0  0  0  0
  142.3945   78.1676  217.2532 H   0  0  0  0  0  0  0  0  0  0  0  0
  143.5009   76.0065  217.5389 H   0  0  0  0  0  0  0  0  0  0  0  0
  143.8552   77.0175  218.9648 H   0  0  0  0  0  0  0  0  0  0  0  0
  141.6541   74.8374  218.7834 H   0  0  0  0  0  0  0  0  0  0  0  0
  144.7196   75.9952  220.6407 H   0  0  0  0  0  0  0  0  0  0  0  0
  146.4228   74.4036  221.4358 H   0  0  0  0  0  0  0  0  0  0  0  0
  146.1360   71.9560  221.0622 H   0  0  0  0  0  0  0  0  0  0  0  0
  142.3868   72.7621  219.0665 H   0  0  0  0  0  0  0  0  0  0  0  0
  139.3907   69.8026  222.5775 H   0  0  0  0  0  0  0  0  0  0  0  0
  138.9547   68.4366  224.5946 H   0  0  0  0  0  0  0  0  0  0  0  0
  139.1248   68.1775  226.9987 H   0  0  0  0  0  0  0  0  0  0  0  0
  139.8578   69.0916  229.1888 H   0  0  0  0  0  0  0  0  0  0  0  0
  140.9790   71.3008  229.2833 H   0  0  0  0  0  0  0  0  0  0  0  0
  141.3849   72.6173  227.2126 H   0  0  0  0  0  0  0  0  0  0  0  0
  1  2  2  0
  2  3  1  0
  3  4  1  0
  4  5  1  0
  5  6  2  0
  5  7  1  0
  7  8  1  0
  8  9  1  0
  9 10  1  0
 10 11  1  0
 11 12  1  0
 12 13  1  0
 13 14  2  0
 14 15  1  0
 15 16  2  0
 16 17  1  0
 17 18  1  0
 17 19  2  0
  2 20  1  0
 20 21  2  0
 21 22  1  0
 22 23  2  0
 23 24  1  0
 24 25  2  0
 25 26  1  0
 26 27  2  0
 27 28  1  0
 28 29  2  0
 12  7  1  0
 19 13  1  0
 29 20  1  0
 28 23  1  0
  3 30  1  0
  4 31  1  0
  4 32  1  0
  8 33  1  0
  8 34  1  0
  9 35  1  0
  9 36  1  0
 10 37  1  0
 10 38  1  0
 11 39  1  0
 11 40  1  0
 12 41  1  6
 14 42  1  0
 15 43  1  0
 16 44  1  0
 19 45  1  0
 21 46  1  0
 22 47  1  0
 24 48  1  0
 25 49  1  0
 26 50  1  0
 27 51  1  0
M  END
>  <smiles>  (60) 
O=C(NCC(=O)N1CCCCC1c1cccc(Br)c1)c1ccc2ccccc2n1

>  <score_type>  (60) 
oracle

>  <origin>  (60) 
autodockgpu

>  <m_score__min__energy>  (60) 
-9.4100000000000001

>  <m_primary>  (60) 
energy

>  <rmsd>  (60) 
2.4097261356767943

>  <m_score__min__rmsd>  (60) 
2.4097261356767943

>  <meeko>  (60) 
{"free_energy": -9.17, "intermolecular_energy": -10.66, "internal_energy": -2.04, "cluster_size": 25, "cluster_id": 2, "rank_in_cluster": 9}

>  <energy>  (60) 
-9.2

>  <cluster_rmsd>  (60) 
0.17

>  <cluster>  (60) 
2

$$$$

     RDKit          3D

 51 54  0  0  0  0  0  0  0  0999 V2000
  141.1640   71.6580  221.4410 O   0  0  0  0  0  0  0  0  0  0  0  0
  140.5350   72.1680  222.4190 C   0  0  0  0  0  0  0  0  0  0  0  0
  140.0520   73.5030  222.3080 N   0  0  0  0  0  0  0  0  0  0  0  0
  140.3020   74.2100  221.0830 C   0  0  0  0  0  0  0  0  0  0  0  0
  140.9230   75.5290  221.3590 C   0  0  0  0  0  0  0  0  0  0  0  0
  140.7440   76.1700  222.4320 O   0  0  0  0  0  0  0  0  0  0  0  0
  141.7710   76.1370  220.3930 N   0  0  0  0  0  0  0  0  0  0  0  0
  142.0290   77.5630  220.4640 C   0  0  0  0  0  0  0  0  0  0  0  0
  141.4750   78.1710  219.1800 C   0  0  0  0  0  0  0  0  0  0  0  0
  141.9540   77.4000  217.9700 C   0  0  0  0  0  0  0  0  0  0  0  0
  143.0400   76.4400  218.3960 C   0  0  0  0  0  0  0  0  0  0  0  0
  142.4060   75.4010  219.3170 C   0  0  1  0  0  0  0  0  0  0  0  0
  143.4470   74.4560  219.7930 C   0  0  0  0  0  0  0  0  0  0  0  0
  144.5890   74.9000  220.4550 C   0  0  0  0  0  0  0  0  0  0  0  0
  145.5560   74.0210  220.8970 C   0  0  0  0  0  0  0  0  0  0  0  0
  145.4140   72.6570  220.6920 C   0  0  0  0  0  0  0  0  0  0  0  0
  144.2790   72.1940  220.0300 C   0  0  0  0  0  0  0  0  0  0  0  0
  144.0400   70.3110  219.7220 Br  0  0  0  0  0  0  0  0  0  0  0  0
  143.3080   73.0990  219.5880 C   0  0  0  0  0  0  0  0  0  0  0  0
  140.3060   71.4080  223.6450 C   0  0  0  0  0  0  0  0  0  0  0  0
  139.6780   70.1850  223.5620 C   0  0  0  0  0  0  0  0  0  0  0  0
  139.4270   69.4100  224.6750 C   0  0  0  0  0  0  0  0  0  0  0  0
  139.8250   69.8880  225.9070 C   0  0  0  0  0  0  0  0  0  0  0  0
  139.5910   69.1390  227.0500 C   0  0  0  0  0  0  0  0  0  0  0  0
  139.9960   69.6360  228.2610 C   0  0  0  0  0  0  0  0  0  0  0  0
  140.6270   70.8700  228.3180 C   0  0  0  0  0  0  0  0  0  0  0  0
  140.8600   71.6170  227.1680 C   0  0  0  0  0  0  0  0  0  0  0  0
  140.4520   71.1180  225.9480 C   0  0  0  0  0  0  0  0  0  0  0  0
  140.6900   71.8620  224.8560 N   0  0  0  0  0  0  0  0  0  0  0  0
  139.5300   73.9290  223.1200 H   0  0  0  0  0  0  0  0  0  0  0  0
  140.9809   73.6152  220.4543 H   0  0  0  0  0  0  0  0  0  0  0  0
  139.3453   74.3699  220.5641 H   0  0  0  0  0  0  0  0  0  0  0  0
  141.5226   77.9971  221.3387 H   0  0  0  0  0  0  0  0  0  0  0  0
  143.1051   77.7666  220.5669 H   0  0  0  0  0  0  0  0  0  0  0  0
  140.3758   78.1436  219.2131 H   0  0  0  0  0  0  0  0  0  0  0  0
  141.8301   79.2090  219.0997 H   0  0  0  0  0  0  0  0  0  0  0  0
  141.1146   76.8376  217.5351 H   0  0  0  0  0  0  0  0  0  0  0  0
  142.3496   78.0981  217.2175 H   0  0  0  0  0  0  0  0  0  0  0  0
  143.4700   75.9450  217.5128 H   0  0  0  0  0  0  0  0  0  0  0  0
  143.8458   76.9769  218.9180 H   0  0  0  0  0  0  0  0  0  0  0  0
  141.6502   74.7868  218.8056 H   0  0  0  0  0  0  0  0  0  0  0  0
  144.7232   75.9777  220.6297 H   0  0  0  0  0  0  0  0  0  0  0  0
  146.4465   74.4051  221.4161 H   0  0  0  0  0  0  0  0  0  0  0  0
  146.1828   71.9540  221.0453 H   0  0  0  0  0  0  0  0  0  0  0  0
  142.4161   72.7210  219.0667 H   0  0  0  0  0  0  0  0  0  0  0  0
  139.3660   69.8138  222.5746 H   0  0  0  0  0  0  0  0  0  0  0  0
  138.9229   68.4366  224.5831 H   0  0  0  0  0  0  0  0  0  0  0  0
  139.0888   68.1624  226.9858 H   0  0  0  0  0  0  0  0  0  0  0  0
  139.8219   69.0602  229.1819 H   0  0  0  0  0  0  0  0  0  0  0  0
  140.9496   71.2658  229.2923 H   0  0  0  0  0  0  0  0  0  0  0  0
  141.3632   72.5932  227.2304 H   0  0  0  0  0  0  0  0  0  0  0  0
  1  2  2  0
  2  3  1  0
  3  4  1  0
  4  5  1  0
  5  6  2  0
  5  7  1  0
  7  8  1  0
  8  9  1  0
  9 10  1  0
 10 11  1  0
 11 12  1  0
 12 13  1  0
 13 14  2  0
 14 15  1  0
 15 16  2  0
 16 17  1  0
 17 18  1  0
 17 19  2  0
  2 20  1  0
 20 21  2  0
 21 22  1  0
 22 23  2  0
 23 24  1  0
 24 25  2  0
 25 26  1  0
 26 27  2  0
 27 28  1  0
 28 29  2  0
 12  7  1  0
 19 13  1  0
 29 20  1  0
 28 23  1  0
  3 30  1  0
  4 31  1  0
  4 32  1  0
  8 33  1  0
  8 34  1  0
  9 35  1  0
  9 36  1  0
 10 37  1  0
 10 38  1  0
 11 39  1  0
 11 40  1  0
 12 41  1  6
 14 42  1  0
 15 43  1  0
 16 44  1  0
 19 45  1  0
 21 46  1  0
 22 47  1  0
 24 48  1  0
 25 49  1  0
 26 50  1  0
 27 51  1  0
M  END
>  <smiles>  (61) 
O=C(NCC(=O)N1CCCCC1c1cccc(Br)c1)c1ccc2ccccc2n1

>  <score_type>  (61) 
oracle

>  <origin>  (61) 
autodockgpu

>  <m_score__min__energy>  (61) 
-9.4100000000000001

>  <m_primary>  (61) 
energy

>  <rmsd>  (61) 
2.39996602030453

>  <m_score__min__rmsd>  (61) 
2.39996602030453

>  <meeko>  (61) 
{"free_energy": -9.19, "intermolecular_energy": -10.68, "internal_energy": -2.02, "cluster_size": 25, "cluster_id": 2, "rank_in_cluster": 6}

>  <energy>  (61) 
-9.19

>  <cluster_rmsd>  (61) 
0.08

>  <cluster>  (61) 
2

$$$$

     RDKit          3D

 51 54  0  0  0  0  0  0  0  0999 V2000
  140.9920   77.0850  217.8710 O   0  0  0  0  0  0  0  0  0  0  0  0
  142.0290   77.0700  218.6020 C   0  0  0  0  0  0  0  0  0  0  0  0
  142.4360   78.2720  219.2480 N   0  0  0  0  0  0  0  0  0  0  0  0
  141.6440   79.4520  219.0370 C   0  0  0  0  0  0  0  0  0  0  0  0
  140.5370   79.5190  220.0210 C   0  0  0  0  0  0  0  0  0  0  0  0
  139.3250   79.6530  219.6960 O   0  0  0  0  0  0  0  0  0  0  0  0
  140.8110   79.4320  221.4140 N   0  0  0  0  0  0  0  0  0  0  0  0
  140.4480   80.5340  222.2850 C   0  0  0  0  0  0  0  0  0  0  0  0
  141.7470   81.0640  222.8820 C   0  0  0  0  0  0  0  0  0  0  0  0
  142.5820   79.9340  223.4410 C   0  0  0  0  0  0  0  0  0  0  0  0
  141.7490   78.6740  223.4720 C   0  0  0  0  0  0  0  0  0  0  0  0
  141.4460   78.2830  222.0290 C   0  0  1  0  0  0  0  0  0  0  0  0
  140.5930   77.0680  222.0120 C   0  0  0  0  0  0  0  0  0  0  0  0
  139.2380   77.1210  222.3300 C   0  0  0  0  0  0  0  0  0  0  0  0
  138.4470   75.9910  222.3140 C   0  0  0  0  0  0  0  0  0  0  0  0
  138.9850   74.7590  221.9750 C   0  0  0  0  0  0  0  0  0  0  0  0
  140.3390   74.6860  221.6550 C   0  0  0  0  0  0  0  0  0  0  0  0
  141.1290   72.9980  221.1800 Br  0  0  0  0  0  0  0  0  0  0  0  0
  141.1280   75.8410  221.6760 C   0  0  0  0  0  0  0  0  0  0  0  0
  142.8030   75.8440  218.7850 C   0  0  0  0  0  0  0  0  0  0  0  0
  142.5520   74.7700  217.9610 C   0  0  0  0  0  0  0  0  0  0  0  0
  143.2400   73.5810  218.0730 C   0  0  0  0  0  0  0  0  0  0  0  0
  144.2120   73.4770  219.0480 C   0  0  0  0  0  0  0  0  0  0  0  0
  144.9260   72.2980  219.1930 C   0  0  0  0  0  0  0  0  0  0  0  0
  145.8850   72.2210  220.1690 C   0  0  0  0  0  0  0  0  0  0  0  0
  146.1190   73.3180  220.9860 C   0  0  0  0  0  0  0  0  0  0  0  0
  145.4000   74.4990  220.8360 C   0  0  0  0  0  0  0  0  0  0  0  0
  144.4340   74.5770  219.8540 C   0  0  0  0  0  0  0  0  0  0  0  0
  143.7560   75.7290  219.7340 N   0  0  0  0  0  0  0  0  0  0  0  0
  143.2990   78.2620  219.8560 H   0  0  0  0  0  0  0  0  0  0  0  0
  142.2822   80.3409  219.1494 H   0  0  0  0  0  0  0  0  0  0  0  0
  141.2169   79.4166  218.0239 H   0  0  0  0  0  0  0  0  0  0  0  0
  139.9454   81.3242  221.7079 H   0  0  0  0  0  0  0  0  0  0  0  0
  139.7547   80.2048  223.0730 H   0  0  0  0  0  0  0  0  0  0  0  0
  142.3193   81.5816  222.0980 H   0  0  0  0  0  0  0  0  0  0  0  0
  141.5017   81.7585  223.6990 H   0  0  0  0  0  0  0  0  0  0  0  0
  143.4642   79.7770  222.8029 H   0  0  0  0  0  0  0  0  0  0  0  0
  142.9126   80.1855  224.4595 H   0  0  0  0  0  0  0  0  0  0  0  0
  142.3078   77.8675  223.9693 H   0  0  0  0  0  0  0  0  0  0  0  0
  140.8159   78.8425  224.0296 H   0  0  0  0  0  0  0  0  0  0  0  0
  142.3523   78.0263  221.4608 H   0  0  0  0  0  0  0  0  0  0  0  0
  138.7877   78.0875  222.6005 H   0  0  0  0  0  0  0  0  0  0  0  0
  137.3805   76.0680  222.5723 H   0  0  0  0  0  0  0  0  0  0  0  0
  138.3554   73.8572  221.9590 H   0  0  0  0  0  0  0  0  0  0  0  0
  142.1954   75.7699  221.4198 H   0  0  0  0  0  0  0  0  0  0  0  0
  141.7761   74.8640  217.1870 H   0  0  0  0  0  0  0  0  0  0  0  0
  143.0204   72.7368  217.4029 H   0  0  0  0  0  0  0  0  0  0  0  0
  144.7264   71.4387  218.5359 H   0  0  0  0  0  0  0  0  0  0  0  0
  146.4651   71.2962  220.3038 H   0  0  0  0  0  0  0  0  0  0  0  0
  146.8892   73.2521  221.7686 H   0  0  0  0  0  0  0  0  0  0  0  0
  145.5989   75.3596  221.4917 H   0  0  0  0  0  0  0  0  0  0  0  0
  1  2  2  0
  2  3  1  0
  3  4  1  0
  4  5  1  0
  5  6  2  0
  5  7  1  0
  7  8  1  0
  8  9  1  0
  9 10  1  0
 10 11  1  0
 11 12  1  0
 12 13  1  0
 13 14  2  0
 14 15  1  0
 15 16  2  0
 16 17  1  0
 17 18  1  0
 17 19  2  0
  2 20  1  0
 20 21  2  0
 21 22  1  0
 22 23  2  0
 23 24  1  0
 24 25  2  0
 25 26  1  0
 26 27  2  0
 27 28  1  0
 28 29  2  0
 12  7  1  0
 19 13  1  0
 29 20  1  0
 28 23  1  0
  3 30  1  0
  4 31  1  0
  4 32  1  0
  8 33  1  0
  8 34  1  0
  9 35  1  0
  9 36  1  0
 10 37  1  0
 10 38  1  0
 11 39  1  0
 11 40  1  0
 12 41  1  6
 14 42  1  0
 15 43  1  0
 16 44  1  0
 19 45  1  0
 21 46  1  0
 22 47  1  0
 24 48  1  0
 25 49  1  0
 26 50  1  0
 27 51  1  0
M  END
>  <smiles>  (62) 
O=C(NCC(=O)N1CCCCC1c1cccc(Br)c1)c1ccc2ccccc2n1

>  <score_type>  (62) 
oracle

>  <origin>  (62) 
autodockgpu

>  <m_score__min__energy>  (62) 
-9.4100000000000001

>  <m_primary>  (62) 
energy

>  <rmsd>  (62) 
7.531618176628827

>  <m_score__min__rmsd>  (62) 
7.531618176628827

>  <meeko>  (62) 
{"free_energy": -7.57, "intermolecular_energy": -9.06, "internal_energy": -3.02, "cluster_size": 3, "cluster_id": 8, "rank_in_cluster": 1}

>  <energy>  (62) 
-9.19

>  <cluster_rmsd>  (62) 
0.05

>  <cluster>  (62) 
2

$$$$

     RDKit          3D

 51 54  0  0  0  0  0  0  0  0999 V2000
  141.6050   71.8660  222.1890 O   0  0  0  0  0  0  0  0  0  0  0  0
  140.6380   72.0210  222.9950 C   0  0  0  0  0  0  0  0  0  0  0  0
  139.5780   72.9050  222.6410 N   0  0  0  0  0  0  0  0  0  0  0  0
  139.6610   73.5810  221.3760 C   0  0  0  0  0  0  0  0  0  0  0  0
  139.4930   75.0440  221.5560 C   0  0  0  0  0  0  0  0  0  0  0  0
  138.4140   75.5790  221.9330 O   0  0  0  0  0  0  0  0  0  0  0  0
  140.5790   75.9260  221.3000 N   0  0  0  0  0  0  0  0  0  0  0  0
  140.9510   76.9120  222.2970 C   0  0  0  0  0  0  0  0  0  0  0  0
  140.7410   78.2790  221.6560 C   0  0  0  0  0  0  0  0  0  0  0  0
  141.3900   78.3390  220.2910 C   0  0  0  0  0  0  0  0  0  0  0  0
  142.2650   77.1210  220.1080 C   0  0  0  0  0  0  0  0  0  0  0  0
  141.3550   75.8970  220.0750 C   0  0  1  0  0  0  0  0  0  0  0  0
  142.1770   74.6690  219.9360 C   0  0  0  0  0  0  0  0  0  0  0  0
  141.7170   73.5560  219.2360 C   0  0  0  0  0  0  0  0  0  0  0  0
  142.4820   72.4150  219.1080 C   0  0  0  0  0  0  0  0  0  0  0  0
  143.7450   72.3460  219.6770 C   0  0  0  0  0  0  0  0  0  0  0  0
  144.2220   73.4500  220.3820 C   0  0  0  0  0  0  0  0  0  0  0  0
  145.9670   73.4000  221.1890 Br  0  0  0  0  0  0  0  0  0  0  0  0
  143.4330   74.5990  220.5020 C   0  0  0  0  0  0  0  0  0  0  0  0
  140.6000   71.3110  224.2710 C   0  0  0  0  0  0  0  0  0  0  0  0
  141.0810   71.9400  225.3970 C   0  0  0  0  0  0  0  0  0  0  0  0
  141.0800   71.3330  226.6360 C   0  0  0  0  0  0  0  0  0  0  0  0
  140.5750   70.0530  226.7360 C   0  0  0  0  0  0  0  0  0  0  0  0
  140.5550   69.4080  227.9630 C   0  0  0  0  0  0  0  0  0  0  0  0
  140.0490   68.1360  228.0350 C   0  0  0  0  0  0  0  0  0  0  0  0
  139.5700   67.5250  226.8850 C   0  0  0  0  0  0  0  0  0  0  0  0
  139.5920   68.1760  225.6570 C   0  0  0  0  0  0  0  0  0  0  0  0
  140.1020   69.4560  225.5830 C   0  0  0  0  0  0  0  0  0  0  0  0
  140.1090   70.0590  224.3830 N   0  0  0  0  0  0  0  0  0  0  0  0
  138.7730   73.0360  223.3100 H   0  0  0  0  0  0  0  0  0  0  0  0
  140.6438   73.3826  220.9234 H   0  0  0  0  0  0  0  0  0  0  0  0
  138.8594   73.2091  220.7209 H   0  0  0  0  0  0  0  0  0  0  0  0
  140.3151   76.8090  223.1886 H   0  0  0  0  0  0  0  0  0  0  0  0
  141.9953   76.7794  222.6162 H   0  0  0  0  0  0  0  0  0  0  0  0
  139.6621   78.4657  221.5506 H   0  0  0  0  0  0  0  0  0  0  0  0
  141.2016   79.0437  222.2987 H   0  0  0  0  0  0  0  0  0  0  0  0
  140.6122   78.3545  219.5133 H   0  0  0  0  0  0  0  0  0  0  0  0
  142.0004   79.2505  220.2096 H   0  0  0  0  0  0  0  0  0  0  0  0
  142.8226   77.1989  219.1630 H   0  0  0  0  0  0  0  0  0  0  0  0
  142.9899   77.0401  220.9314 H   0  0  0  0  0  0  0  0  0  0  0  0
  140.6697   75.9026  219.2145 H   0  0  0  0  0  0  0  0  0  0  0  0
  140.7193   73.5876  218.7739 H   0  0  0  0  0  0  0  0  0  0  0  0
  142.0871   71.5531  218.5502 H   0  0  0  0  0  0  0  0  0  0  0  0
  144.3579   71.4384  219.5741 H   0  0  0  0  0  0  0  0  0  0  0  0
  143.8221   75.4641  221.0590 H   0  0  0  0  0  0  0  0  0  0  0  0
  141.4796   72.9612  225.3059 H   0  0  0  0  0  0  0  0  0  0  0  0
  141.4716   71.8559  227.5210 H   0  0  0  0  0  0  0  0  0  0  0  0
  140.9389   69.9087  228.8641 H   0  0  0  0  0  0  0  0  0  0  0  0
  140.0229   67.6037  228.9973 H   0  0  0  0  0  0  0  0  0  0  0  0
  139.1645   66.5043  226.9463 H   0  0  0  0  0  0  0  0  0  0  0  0
  139.2075   67.6769  224.7553 H   0  0  0  0  0  0  0  0  0  0  0  0
  1  2  2  0
  2  3  1  0
  3  4  1  0
  4  5  1  0
  5  6  2  0
  5  7  1  0
  7  8  1  0
  8  9  1  0
  9 10  1  0
 10 11  1  0
 11 12  1  0
 12 13  1  0
 13 14  2  0
 14 15  1  0
 15 16  2  0
 16 17  1  0
 17 18  1  0
 17 19  2  0
  2 20  1  0
 20 21  2  0
 21 22  1  0
 22 23  2  0
 23 24  1  0
 24 25  2  0
 25 26  1  0
 26 27  2  0
 27 28  1  0
 28 29  2  0
 12  7  1  0
 19 13  1  0
 29 20  1  0
 28 23  1  0
  3 30  1  0
  4 31  1  0
  4 32  1  0
  8 33  1  0
  8 34  1  0
  9 35  1  0
  9 36  1  0
 10 37  1  0
 10 38  1  0
 11 39  1  0
 11 40  1  0
 12 41  1  6
 14 42  1  0
 15 43  1  0
 16 44  1  0
 19 45  1  0
 21 46  1  0
 22 47  1  0
 24 48  1  0
 25 49  1  0
 26 50  1  0
 27 51  1  0
M  END
>  <smiles>  (63) 
O=C(NCC(=O)N1CCCCC1c1cccc(Br)c1)c1ccc2ccccc2n1

>  <score_type>  (63) 
oracle

>  <origin>  (63) 
autodockgpu

>  <m_score__min__energy>  (63) 
-9.4100000000000001

>  <m_primary>  (63) 
energy

>  <rmsd>  (63) 
3.423103930704849

>  <m_score__min__rmsd>  (63) 
3.423103930704849

>  <meeko>  (63) 
{"free_energy": -8.85, "intermolecular_energy": -10.34, "internal_energy": -1.69, "cluster_size": 25, "cluster_id": 2, "rank_in_cluster": 21}

>  <energy>  (63) 
-9.18

>  <cluster_rmsd>  (63) 
0.07

>  <cluster>  (63) 
2

$$$$

     RDKit          3D

 51 54  0  0  0  0  0  0  0  0999 V2000
  141.2200   72.0580  221.6480 O   0  0  0  0  0  0  0  0  0  0  0  0
  140.3600   72.3470  222.5360 C   0  0  0  0  0  0  0  0  0  0  0  0
  139.5330   73.4910  222.3500 N   0  0  0  0  0  0  0  0  0  0  0  0
  139.7180   74.2680  221.1560 C   0  0  0  0  0  0  0  0  0  0  0  0
  140.0700   75.6690  221.4940 C   0  0  0  0  0  0  0  0  0  0  0  0
  139.9000   76.1710  222.6390 O   0  0  0  0  0  0  0  0  0  0  0  0
  140.6320   76.5240  220.5050 N   0  0  0  0  0  0  0  0  0  0  0  0
  140.0320   76.5830  219.1860 C   0  0  0  0  0  0  0  0  0  0  0  0
  141.0890   76.0890  218.2040 C   0  0  0  0  0  0  0  0  0  0  0  0
  142.4100   76.7880  218.4400 C   0  0  0  0  0  0  0  0  0  0  0  0
  142.1940   77.9410  219.3920 C   0  0  0  0  0  0  0  0  0  0  0  0
  141.7940   77.3580  220.7440 C   0  0  1  0  0  0  0  0  0  0  0  0
  141.5320   78.4600  221.7040 C   0  0  0  0  0  0  0  0  0  0  0  0
  141.6600   78.2770  223.0780 C   0  0  0  0  0  0  0  0  0  0  0  0
  141.4160   79.3020  223.9690 C   0  0  0  0  0  0  0  0  0  0  0  0
  141.0340   80.5550  223.5140 C   0  0  0  0  0  0  0  0  0  0  0  0
  140.9000   80.7560  222.1420 C   0  0  0  0  0  0  0  0  0  0  0  0
  140.3720   82.4770  221.4650 Br  0  0  0  0  0  0  0  0  0  0  0  0
  141.1510   79.7060  221.2520 C   0  0  0  0  0  0  0  0  0  0  0  0
  140.2110   71.5250  223.7340 C   0  0  0  0  0  0  0  0  0  0  0  0
  139.5440   70.3240  223.6390 C   0  0  0  0  0  0  0  0  0  0  0  0
  139.3640   69.4950  224.7260 C   0  0  0  0  0  0  0  0  0  0  0  0
  139.8750   69.8930  225.9440 C   0  0  0  0  0  0  0  0  0  0  0  0
  139.7150   69.0880  227.0610 C   0  0  0  0  0  0  0  0  0  0  0  0
  140.2310   69.5070  228.2590 C   0  0  0  0  0  0  0  0  0  0  0  0
  140.9000   70.7200  228.3280 C   0  0  0  0  0  0  0  0  0  0  0  0
  141.0580   71.5250  227.2050 C   0  0  0  0  0  0  0  0  0  0  0  0
  140.5380   71.1040  225.9980 C   0  0  0  0  0  0  0  0  0  0  0  0
  140.7060   71.9020  224.9320 N   0  0  0  0  0  0  0  0  0  0  0  0
  138.8180   73.7330  223.0860 H   0  0  0  0  0  0  0  0  0  0  0  0
  140.5289   73.8255  220.5588 H   0  0  0  0  0  0  0  0  0  0  0  0
  138.7790   74.2666  220.5830 H   0  0  0  0  0  0  0  0  0  0  0  0
  139.1432   75.9362  219.1441 H   0  0  0  0  0  0  0  0  0  0  0  0
  139.7110   77.6063  218.9417 H   0  0  0  0  0  0  0  0  0  0  0  0
  141.2256   75.0055  218.3360 H   0  0  0  0  0  0  0  0  0  0  0  0
  140.7508   76.3103  217.1810 H   0  0  0  0  0  0  0  0  0  0  0  0
  143.1293   76.0794  218.8764 H   0  0  0  0  0  0  0  0  0  0  0  0
  142.8069   77.1639  217.4855 H   0  0  0  0  0  0  0  0  0  0  0  0
  143.1228   78.5213  219.4943 H   0  0  0  0  0  0  0  0  0  0  0  0
  141.4077   78.6108  219.0136 H   0  0  0  0  0  0  0  0  0  0  0  0
  142.5903   76.7469  221.1940 H   0  0  0  0  0  0  0  0  0  0  0  0
  141.9629   77.2919  223.4626 H   0  0  0  0  0  0  0  0  0  0  0  0
  141.5254   79.1237  225.0489 H   0  0  0  0  0  0  0  0  0  0  0  0
  140.8406   81.3740  224.2224 H   0  0  0  0  0  0  0  0  0  0  0  0
  141.0424   79.8776  220.1709 H   0  0  0  0  0  0  0  0  0  0  0  0
  139.1412   70.0156  222.6630 H   0  0  0  0  0  0  0  0  0  0  0  0
  138.8266   68.5406  224.6245 H   0  0  0  0  0  0  0  0  0  0  0  0
  139.1824   68.1284  226.9868 H   0  0  0  0  0  0  0  0  0  0  0  0
  140.1156   68.8859  229.1595 H   0  0  0  0  0  0  0  0  0  0  0  0
  141.3143   71.0523  229.2913 H   0  0  0  0  0  0  0  0  0  0  0  0
  141.5905   72.4848  227.2779 H   0  0  0  0  0  0  0  0  0  0  0  0
  1  2  2  0
  2  3  1  0
  3  4  1  0
  4  5  1  0
  5  6  2  0
  5  7  1  0
  7  8  1  0
  8  9  1  0
  9 10  1  0
 10 11  1  0
 11 12  1  0
 12 13  1  0
 13 14  2  0
 14 15  1  0
 15 16  2  0
 16 17  1  0
 17 18  1  0
 17 19  2  0
  2 20  1  0
 20 21  2  0
 21 22  1  0
 22 23  2  0
 23 24  1  0
 24 25  2  0
 25 26  1  0
 26 27  2  0
 27 28  1  0
 28 29  2  0
 12  7  1  0
 19 13  1  0
 29 20  1  0
 28 23  1  0
  3 30  1  0
  4 31  1  0
  4 32  1  0
  8 33  1  0
  8 34  1  0
  9 35  1  0
  9 36  1  0
 10 37  1  0
 10 38  1  0
 11 39  1  0
 11 40  1  0
 12 41  1  1
 14 42  1  0
 15 43  1  0
 16 44  1  0
 19 45  1  0
 21 46  1  0
 22 47  1  0
 24 48  1  0
 25 49  1  0
 26 50  1  0
 27 51  1  0
M  END
>  <smiles>  (64) 
O=C(NCC(=O)N1CCCCC1c1cccc(Br)c1)c1ccc2ccccc2n1

>  <score_type>  (64) 
oracle

>  <origin>  (64) 
autodockgpu

>  <m_score__min__energy>  (64) 
-9.4100000000000001

>  <m_primary>  (64) 
energy

>  <rmsd>  (64) 
1.621555042111903

>  <m_score__min__rmsd>  (64) 
1.621555042111903

>  <meeko>  (64) 
{"free_energy": -9.33, "intermolecular_energy": -10.82, "internal_energy": -1.4, "cluster_size": 6, "cluster_id": 1, "rank_in_cluster": 2}

>  <energy>  (64) 
-9.18

>  <cluster_rmsd>  (64) 
0.17

>  <cluster>  (64) 
2

$$$$

     RDKit          3D

 51 54  0  0  0  0  0  0  0  0999 V2000
  138.7590   75.5460  221.8180 O   0  0  0  0  0  0  0  0  0  0  0  0
  139.9370   75.9460  222.0680 C   0  0  0  0  0  0  0  0  0  0  0  0
  141.0210   75.0330  221.9240 N   0  0  0  0  0  0  0  0  0  0  0  0
  140.7220   73.6940  221.5000 C   0  0  0  0  0  0  0  0  0  0  0  0
  141.2430   73.4510  220.1330 C   0  0  0  0  0  0  0  0  0  0  0  0
  140.5010   73.2410  219.1330 O   0  0  0  0  0  0  0  0  0  0  0  0
  142.6450   73.4470  219.8910 N   0  0  0  0  0  0  0  0  0  0  0  0
  143.2750   72.2540  219.3570 C   0  0  0  0  0  0  0  0  0  0  0  0
  144.2690   71.7780  220.4110 C   0  0  0  0  0  0  0  0  0  0  0  0
  145.1430   72.9200  220.8800 C   0  0  0  0  0  0  0  0  0  0  0  0
  144.9360   74.1060  219.9680 C   0  0  0  0  0  0  0  0  0  0  0  0
  143.5000   74.5880  220.1530 C   0  0  1  0  0  0  0  0  0  0  0  0
  143.2380   75.7320  219.2450 C   0  0  0  0  0  0  0  0  0  0  0  0
  143.6010   75.6970  217.9010 C   0  0  0  0  0  0  0  0  0  0  0  0
  143.3570   76.7610  217.0570 C   0  0  0  0  0  0  0  0  0  0  0  0
  142.7370   77.9070  217.5310 C   0  0  0  0  0  0  0  0  0  0  0  0
  142.3680   77.9620  218.8730 C   0  0  0  0  0  0  0  0  0  0  0  0
  141.5050   79.5310  219.5750 Br  0  0  0  0  0  0  0  0  0  0  0  0
  142.6220   76.8740  219.7150 C   0  0  0  0  0  0  0  0  0  0  0  0
  140.1900   77.3190  222.4970 C   0  0  0  0  0  0  0  0  0  0  0  0
  139.1180   78.1470  222.7450 C   0  0  0  0  0  0  0  0  0  0  0  0
  139.2770   79.4540  223.1520 C   0  0  0  0  0  0  0  0  0  0  0  0
  140.5600   79.9360  223.3160 C   0  0  0  0  0  0  0  0  0  0  0  0
  140.7620   81.2450  223.7250 C   0  0  0  0  0  0  0  0  0  0  0  0
  142.0460   81.7000  223.8790 C   0  0  0  0  0  0  0  0  0  0  0  0
  143.1090   80.8450  223.6240 C   0  0  0  0  0  0  0  0  0  0  0  0
  142.9010   79.5330  223.2140 C   0  0  0  0  0  0  0  0  0  0  0  0
  141.6080   79.0750  223.0580 C   0  0  0  0  0  0  0  0  0  0  0  0
  141.4390   77.8040  222.6610 N   0  0  0  0  0  0  0  0  0  0  0  0
  142.0010   75.3640  222.1320 H   0  0  0  0  0  0  0  0  0  0  0  0
  141.1882   72.9816  222.1965 H   0  0  0  0  0  0  0  0  0  0  0  0
  139.6303   73.5597  221.4926 H   0  0  0  0  0  0  0  0  0  0  0  0
  142.5192   71.4770  219.1696 H   0  0  0  0  0  0  0  0  0  0  0  0
  143.7792   72.4648  218.4024 H   0  0  0  0  0  0  0  0  0  0  0  0
  143.7160   71.3707  221.2703 H   0  0  0  0  0  0  0  0  0  0  0  0
  144.9104   71.0030  219.9661 H   0  0  0  0  0  0  0  0  0  0  0  0
  144.8696   73.1946  221.9095 H   0  0  0  0  0  0  0  0  0  0  0  0
  146.1991   72.6132  220.8559 H   0  0  0  0  0  0  0  0  0  0  0  0
  145.6382   74.9100  220.2336 H   0  0  0  0  0  0  0  0  0  0  0  0
  145.1155   73.8226  218.9204 H   0  0  0  0  0  0  0  0  0  0  0  0
  143.3055   74.9576  221.1706 H   0  0  0  0  0  0  0  0  0  0  0  0
  144.0947   74.7985  217.5022 H   0  0  0  0  0  0  0  0  0  0  0  0
  143.6566   76.6996  216.0004 H   0  0  0  0  0  0  0  0  0  0  0  0
  142.5403   78.7563  216.8602 H   0  0  0  0  0  0  0  0  0  0  0  0
  142.3248   76.9299  220.7726 H   0  0  0  0  0  0  0  0  0  0  0  0
  138.0999   77.7516  222.6137 H   0  0  0  0  0  0  0  0  0  0  0  0
  138.4043   80.0963  223.3412 H   0  0  0  0  0  0  0  0  0  0  0  0
  139.9064   81.9075  223.9227 H   0  0  0  0  0  0  0  0  0  0  0  0
  142.2323   82.7348  224.2022 H   0  0  0  0  0  0  0  0  0  0  0  0
  144.1380   81.2132  223.7489 H   0  0  0  0  0  0  0  0  0  0  0  0
  143.7552   78.8687  223.0165 H   0  0  0  0  0  0  0  0  0  0  0  0
  1  2  2  0
  2  3  1  0
  3  4  1  0
  4  5  1  0
  5  6  2  0
  5  7  1  0
  7  8  1  0
  8  9  1  0
  9 10  1  0
 10 11  1  0
 11 12  1  0
 12 13  1  0
 13 14  2  0
 14 15  1  0
 15 16  2  0
 16 17  1  0
 17 18  1  0
 17 19  2  0
  2 20  1  0
 20 21  2  0
 21 22  1  0
 22 23  2  0
 23 24  1  0
 24 25  2  0
 25 26  1  0
 26 27  2  0
 27 28  1  0
 28 29  2  0
 12  7  1  0
 19 13  1  0
 29 20  1  0
 28 23  1  0
  3 30  1  0
  4 31  1  0
  4 32  1  0
  8 33  1  0
  8 34  1  0
  9 35  1  0
  9 36  1  0
 10 37  1  0
 10 38  1  0
 11 39  1  0
 11 40  1  0
 12 41  1  1
 14 42  1  0
 15 43  1  0
 16 44  1  0
 19 45  1  0
 21 46  1  0
 22 47  1  0
 24 48  1  0
 25 49  1  0
 26 50  1  0
 27 51  1  0
M  END
>  <smiles>  (65) 
O=C(NCC(=O)N1CCCCC1c1cccc(Br)c1)c1ccc2ccccc2n1

>  <score_type>  (65) 
oracle

>  <origin>  (65) 
autodockgpu

>  <m_score__min__energy>  (65) 
-9.4100000000000001

>  <m_primary>  (65) 
energy

>  <rmsd>  (65) 
7.669373073004867

>  <m_score__min__rmsd>  (65) 
7.669373073004867

>  <meeko>  (65) 
{"free_energy": -7.84, "intermolecular_energy": -9.33, "internal_energy": -2.77, "cluster_size": 6, "cluster_id": 6, "rank_in_cluster": 5}

>  <energy>  (65) 
-9.17

>  <cluster_rmsd>  (65) 
0.06

>  <cluster>  (65) 
2

$$$$

     RDKit          3D

 51 54  0  0  0  0  0  0  0  0999 V2000
  138.7220   75.5800  221.7020 O   0  0  0  0  0  0  0  0  0  0  0  0
  139.9090   75.9490  221.9590 C   0  0  0  0  0  0  0  0  0  0  0  0
  140.9750   75.0220  221.7810 N   0  0  0  0  0  0  0  0  0  0  0  0
  140.6480   73.7020  221.3170 C   0  0  0  0  0  0  0  0  0  0  0  0
  141.3160   73.4240  220.0230 C   0  0  0  0  0  0  0  0  0  0  0  0
  140.6960   73.0620  218.9840 O   0  0  0  0  0  0  0  0  0  0  0  0
  142.7270   73.5600  219.9020 N   0  0  0  0  0  0  0  0  0  0  0  0
  143.5160   72.4390  219.4270 C   0  0  0  0  0  0  0  0  0  0  0  0
  144.4590   72.0590  220.5620 C   0  0  0  0  0  0  0  0  0  0  0  0
  145.1720   73.2790  221.1010 C   0  0  0  0  0  0  0  0  0  0  0  0
  144.9260   74.4440  220.1710 C   0  0  0  0  0  0  0  0  0  0  0  0
  143.4390   74.7800  220.2320 C   0  0  1  0  0  0  0  0  0  0  0  0
  143.1420   75.8970  219.3010 C   0  0  0  0  0  0  0  0  0  0  0  0
  143.4210   75.8070  217.9390 C   0  0  0  0  0  0  0  0  0  0  0  0
  143.1450   76.8470  217.0750 C   0  0  0  0  0  0  0  0  0  0  0  0
  142.5770   78.0210  217.5440 C   0  0  0  0  0  0  0  0  0  0  0  0
  142.2920   78.1300  218.9040 C   0  0  0  0  0  0  0  0  0  0  0  0
  141.5050   79.7400  219.6000 Br  0  0  0  0  0  0  0  0  0  0  0  0
  142.5780   77.0660  219.7670 C   0  0  0  0  0  0  0  0  0  0  0  0
  140.1900   77.3040  222.4290 C   0  0  0  0  0  0  0  0  0  0  0  0
  139.1350   78.1320  222.7410 C   0  0  0  0  0  0  0  0  0  0  0  0
  139.3210   79.4220  223.1910 C   0  0  0  0  0  0  0  0  0  0  0  0
  140.6130   79.8860  223.3290 C   0  0  0  0  0  0  0  0  0  0  0  0
  140.8430   81.1770  223.7780 C   0  0  0  0  0  0  0  0  0  0  0  0
  142.1360   81.6140  223.9070 C   0  0  0  0  0  0  0  0  0  0  0  0
  143.1810   80.7590  223.5870 C   0  0  0  0  0  0  0  0  0  0  0  0
  142.9460   79.4650  223.1360 C   0  0  0  0  0  0  0  0  0  0  0  0
  141.6440   79.0250  223.0060 C   0  0  0  0  0  0  0  0  0  0  0  0
  141.4480   77.7700  222.5700 N   0  0  0  0  0  0  0  0  0  0  0  0
  141.9620   75.3270  221.9940 H   0  0  0  0  0  0  0  0  0  0  0  0
  140.9810   72.9641  222.0617 H   0  0  0  0  0  0  0  0  0  0  0  0
  139.5591   73.6351  221.1759 H   0  0  0  0  0  0  0  0  0  0  0  0
  142.8603   71.5915  219.1784 H   0  0  0  0  0  0  0  0  0  0  0  0
  144.0757   72.7045  218.5180 H   0  0  0  0  0  0  0  0  0  0  0  0
  143.8786   71.5935  221.3722 H   0  0  0  0  0  0  0  0  0  0  0  0
  145.2101   71.3548  220.1747 H   0  0  0  0  0  0  0  0  0  0  0  0
  144.7861   73.5190  222.1027 H   0  0  0  0  0  0  0  0  0  0  0  0
  146.2516   73.0789  221.1681 H   0  0  0  0  0  0  0  0  0  0  0  0
  145.5198   75.3122  220.4929 H   0  0  0  0  0  0  0  0  0  0  0  0
  145.2208   74.1856  219.1432 H   0  0  0  0  0  0  0  0  0  0  0  0
  143.1232   75.1236  221.2281 H   0  0  0  0  0  0  0  0  0  0  0  0
  143.8720   74.8851  217.5430 H   0  0  0  0  0  0  0  0  0  0  0  0
  143.3778   76.7434  216.0049 H   0  0  0  0  0  0  0  0  0  0  0  0
  142.3554   78.8505  216.8564 H   0  0  0  0  0  0  0  0  0  0  0  0
  142.3484   77.1641  220.8383 H   0  0  0  0  0  0  0  0  0  0  0  0
  138.1092   77.7515  222.6274 H   0  0  0  0  0  0  0  0  0  0  0  0
  138.4617   80.0644  223.4336 H   0  0  0  0  0  0  0  0  0  0  0  0
  140.0015   81.8403  224.0269 H   0  0  0  0  0  0  0  0  0  0  0  0
  142.3434   82.6345  224.2614 H   0  0  0  0  0  0  0  0  0  0  0  0
  144.2173   81.1125  223.6924 H   0  0  0  0  0  0  0  0  0  0  0  0
  143.7864   78.8007  222.8861 H   0  0  0  0  0  0  0  0  0  0  0  0
  1  2  2  0
  2  3  1  0
  3  4  1  0
  4  5  1  0
  5  6  2  0
  5  7  1  0
  7  8  1  0
  8  9  1  0
  9 10  1  0
 10 11  1  0
 11 12  1  0
 12 13  1  0
 13 14  2  0
 14 15  1  0
 15 16  2  0
 16 17  1  0
 17 18  1  0
 17 19  2  0
  2 20  1  0
 20 21  2  0
 21 22  1  0
 22 23  2  0
 23 24  1  0
 24 25  2  0
 25 26  1  0
 26 27  2  0
 27 28  1  0
 28 29  2  0
 12  7  1  0
 19 13  1  0
 29 20  1  0
 28 23  1  0
  3 30  1  0
  4 31  1  0
  4 32  1  0
  8 33  1  0
  8 34  1  0
  9 35  1  0
  9 36  1  0
 10 37  1  0
 10 38  1  0
 11 39  1  0
 11 40  1  0
 12 41  1  1
 14 42  1  0
 15 43  1  0
 16 44  1  0
 19 45  1  0
 21 46  1  0
 22 47  1  0
 24 48  1  0
 25 49  1  0
 26 50  1  0
 27 51  1  0
M  END
>  <smiles>  (66) 
O=C(NCC(=O)N1CCCCC1c1cccc(Br)c1)c1ccc2ccccc2n1

>  <score_type>  (66) 
oracle

>  <origin>  (66) 
autodockgpu

>  <m_score__min__energy>  (66) 
-9.4100000000000001

>  <m_primary>  (66) 
energy

>  <rmsd>  (66) 
7.64153413008892

>  <m_score__min__rmsd>  (66) 
7.64153413008892

>  <meeko>  (66) 
{"free_energy": -7.91, "intermolecular_energy": -9.4, "internal_energy": -2.79, "cluster_size": 6, "cluster_id": 6, "rank_in_cluster": 1}

>  <energy>  (66) 
-9.17

>  <cluster_rmsd>  (66) 
0.2

>  <cluster>  (66) 
2

$$$$

     RDKit          3D

 51 54  0  0  0  0  0  0  0  0999 V2000
  138.7870   72.2420  221.9860 O   0  0  0  0  0  0  0  0  0  0  0  0
  139.8850   71.9190  222.5340 C   0  0  0  0  0  0  0  0  0  0  0  0
  141.1070   72.3290  221.9290 N   0  0  0  0  0  0  0  0  0  0  0  0
  141.0330   73.0960  220.7160 C   0  0  0  0  0  0  0  0  0  0  0  0
  141.0770   74.5480  221.0140 C   0  0  0  0  0  0  0  0  0  0  0  0
  140.4340   75.0840  221.9580 O   0  0  0  0  0  0  0  0  0  0  0  0
  141.8740   75.4180  220.2180 N   0  0  0  0  0  0  0  0  0  0  0  0
  141.8610   76.8440  220.4840 C   0  0  0  0  0  0  0  0  0  0  0  0
  141.3100   77.5160  219.2320 C   0  0  0  0  0  0  0  0  0  0  0  0
  142.0170   77.0090  217.9940 C   0  0  0  0  0  0  0  0  0  0  0  0
  143.2220   76.1990  218.4120 C   0  0  0  0  0  0  0  0  0  0  0  0
  142.7160   74.9530  219.1330 C   0  0  1  0  0  0  0  0  0  0  0  0
  143.8710   74.1450  219.5980 C   0  0  0  0  0  0  0  0  0  0  0  0
  144.8100   74.6560  220.4900 C   0  0  0  0  0  0  0  0  0  0  0  0
  145.8830   73.9040  220.9210 C   0  0  0  0  0  0  0  0  0  0  0  0
  146.0570   72.6030  220.4730 C   0  0  0  0  0  0  0  0  0  0  0  0
  145.1280   72.0740  219.5780 C   0  0  0  0  0  0  0  0  0  0  0  0
  145.3280   70.2750  218.9290 Br  0  0  0  0  0  0  0  0  0  0  0  0
  144.0460   72.8510  219.1520 C   0  0  0  0  0  0  0  0  0  0  0  0
  139.9080   71.1370  223.7680 C   0  0  0  0  0  0  0  0  0  0  0  0
  139.3280   69.8880  223.7750 C   0  0  0  0  0  0  0  0  0  0  0  0
  139.3100   69.0920  224.9010 C   0  0  0  0  0  0  0  0  0  0  0  0
  139.8980   69.5750  226.0520 C   0  0  0  0  0  0  0  0  0  0  0  0
  139.9010   68.8050  227.2050 C   0  0  0  0  0  0  0  0  0  0  0  0
  140.4910   69.3080  228.3360 C   0  0  0  0  0  0  0  0  0  0  0  0
  141.0690   70.5680  228.3020 C   0  0  0  0  0  0  0  0  0  0  0  0
  141.0640   71.3370  227.1430 C   0  0  0  0  0  0  0  0  0  0  0  0
  140.4690   70.8310  226.0040 C   0  0  0  0  0  0  0  0  0  0  0  0
  140.4800   71.5960  224.9010 N   0  0  0  0  0  0  0  0  0  0  0  0
  142.0210   72.0610  222.3830 H   0  0  0  0  0  0  0  0  0  0  0  0
  141.8835   72.8335  220.0697 H   0  0  0  0  0  0  0  0  0  0  0  0
  140.0846   72.8664  220.2082 H   0  0  0  0  0  0  0  0  0  0  0  0
  141.2157   77.0631  221.3475 H   0  0  0  0  0  0  0  0  0  0  0  0
  142.8702   77.2125  220.7203 H   0  0  0  0  0  0  0  0  0  0  0  0
  140.2353   77.2970  219.1486 H   0  0  0  0  0  0  0  0  0  0  0  0
  141.4749   78.6006  219.3127 H   0  0  0  0  0  0  0  0  0  0  0  0
  141.3316   76.3763  217.4111 H   0  0  0  0  0  0  0  0  0  0  0  0
  142.3379   77.8597  217.3749 H   0  0  0  0  0  0  0  0  0  0  0  0
  143.8040   75.9082  217.5250 H   0  0  0  0  0  0  0  0  0  0  0  0
  143.8725   76.7896  219.0738 H   0  0  0  0  0  0  0  0  0  0  0  0
  142.1277   74.2937  218.4779 H   0  0  0  0  0  0  0  0  0  0  0  0
  144.6932   75.6852  220.8603 H   0  0  0  0  0  0  0  0  0  0  0  0
  146.6065   74.3397  221.6257 H   0  0  0  0  0  0  0  0  0  0  0  0
  146.9108   72.0006  220.8169 H   0  0  0  0  0  0  0  0  0  0  0  0
  143.3193   72.4216  218.4466 H   0  0  0  0  0  0  0  0  0  0  0  0
  138.8634   69.5126  222.8513 H   0  0  0  0  0  0  0  0  0  0  0  0
  138.8392   68.0980  224.8820 H   0  0  0  0  0  0  0  0  0  0  0  0
  139.4378   67.8073  227.2124 H   0  0  0  0  0  0  0  0  0  0  0  0
  140.5057   68.7164  229.2633 H   0  0  0  0  0  0  0  0  0  0  0  0
  141.5416   70.9680  229.2112 H   0  0  0  0  0  0  0  0  0  0  0  0
  141.5276   72.3345  227.1337 H   0  0  0  0  0  0  0  0  0  0  0  0
  1  2  2  0
  2  3  1  0
  3  4  1  0
  4  5  1  0
  5  6  2  0
  5  7  1  0
  7  8  1  0
  8  9  1  0
  9 10  1  0
 10 11  1  0
 11 12  1  0
 12 13  1  0
 13 14  2  0
 14 15  1  0
 15 16  2  0
 16 17  1  0
 17 18  1  0
 17 19  2  0
  2 20  1  0
 20 21  2  0
 21 22  1  0
 22 23  2  0
 23 24  1  0
 24 25  2  0
 25 26  1  0
 26 27  2  0
 27 28  1  0
 28 29  2  0
 12  7  1  0
 19 13  1  0
 29 20  1  0
 28 23  1  0
  3 30  1  0
  4 31  1  0
  4 32  1  0
  8 33  1  0
  8 34  1  0
  9 35  1  0
  9 36  1  0
 10 37  1  0
 10 38  1  0
 11 39  1  0
 11 40  1  0
 12 41  1  6
 14 42  1  0
 15 43  1  0
 16 44  1  0
 19 45  1  0
 21 46  1  0
 22 47  1  0
 24 48  1  0
 25 49  1  0
 26 50  1  0
 27 51  1  0
M  END
>  <smiles>  (67) 
O=C(NCC(=O)N1CCCCC1c1cccc(Br)c1)c1ccc2ccccc2n1

>  <score_type>  (67) 
oracle

>  <origin>  (67) 
autodockgpu

>  <m_score__min__energy>  (67) 
-9.4100000000000001

>  <m_primary>  (67) 
energy

>  <rmsd>  (67) 
2.4469109749476377

>  <m_score__min__rmsd>  (67) 
2.4469109749476377

>  <meeko>  (67) 
{"free_energy": -9.03, "intermolecular_energy": -10.52, "internal_energy": -1.5, "cluster_size": 25, "cluster_id": 2, "rank_in_cluster": 15}

>  <energy>  (67) 
-9.15

>  <cluster_rmsd>  (67) 
0.1

>  <cluster>  (67) 
2

$$$$

     RDKit          3D

 51 54  0  0  0  0  0  0  0  0999 V2000
  140.3220   74.0950  220.3210 O   0  0  0  0  0  0  0  0  0  0  0  0
  140.0560   74.8380  221.3150 C   0  0  0  0  0  0  0  0  0  0  0  0
  139.2060   74.3380  222.3420 N   0  0  0  0  0  0  0  0  0  0  0  0
  138.6860   73.0070  222.1980 C   0  0  0  0  0  0  0  0  0  0  0  0
  139.7220   72.0030  222.5420 C   0  0  0  0  0  0  0  0  0  0  0  0
  140.8690   72.3070  222.9730 O   0  0  0  0  0  0  0  0  0  0  0  0
  139.4500   70.6140  222.3950 N   0  0  0  0  0  0  0  0  0  0  0  0
  139.9700   69.9020  221.2430 C   0  0  0  0  0  0  0  0  0  0  0  0
  138.7610   69.4000  220.4600 C   0  0  0  0  0  0  0  0  0  0  0  0
  137.7830   68.6970  221.3750 C   0  0  0  0  0  0  0  0  0  0  0  0
  138.4340   68.4810  222.7210 C   0  0  0  0  0  0  0  0  0  0  0  0
  138.6680   69.8520  223.3490 C   0  0  1  0  0  0  0  0  0  0  0  0
  139.3450   69.6910  224.6600 C   0  0  0  0  0  0  0  0  0  0  0  0
  139.5250   68.4370  225.2400 C   0  0  0  0  0  0  0  0  0  0  0  0
  140.1530   68.2880  226.4590 C   0  0  0  0  0  0  0  0  0  0  0  0
  140.6290   69.3950  227.1460 C   0  0  0  0  0  0  0  0  0  0  0  0
  140.4570   70.6570  226.5820 C   0  0  0  0  0  0  0  0  0  0  0  0
  141.0990   72.2210  227.4980 Br  0  0  0  0  0  0  0  0  0  0  0  0
  139.8170   70.7910  225.3450 C   0  0  0  0  0  0  0  0  0  0  0  0
  140.6090   76.1870  221.4160 C   0  0  0  0  0  0  0  0  0  0  0  0
  140.9740   76.8440  220.2620 C   0  0  0  0  0  0  0  0  0  0  0  0
  141.5030   78.1170  220.2770 C   0  0  0  0  0  0  0  0  0  0  0  0
  141.6650   78.7430  221.4960 C   0  0  0  0  0  0  0  0  0  0  0  0
  142.1930   80.0240  221.5540 C   0  0  0  0  0  0  0  0  0  0  0  0
  142.3440   80.6230  222.7780 C   0  0  0  0  0  0  0  0  0  0  0  0
  141.9680   79.9390  223.9250 C   0  0  0  0  0  0  0  0  0  0  0  0
  141.4390   78.6550  223.8620 C   0  0  0  0  0  0  0  0  0  0  0  0
  141.2870   78.0510  222.6300 C   0  0  0  0  0  0  0  0  0  0  0  0
  140.7730   76.8110  222.6010 N   0  0  0  0  0  0  0  0  0  0  0  0
  138.9830   74.9540  223.1690 H   0  0  0  0  0  0  0  0  0  0  0  0
  137.8234   72.8811  222.8689 H   0  0  0  0  0  0  0  0  0  0  0  0
  138.3792   72.8568  221.1524 H   0  0  0  0  0  0  0  0  0  0  0  0
  140.5725   70.5783  220.6188 H   0  0  0  0  0  0  0  0  0  0  0  0
  140.6179   69.0681  221.5508 H   0  0  0  0  0  0  0  0  0  0  0  0
  138.2589   70.2553  219.9842 H   0  0  0  0  0  0  0  0  0  0  0  0
  139.1062   68.6862  219.6975 H   0  0  0  0  0  0  0  0  0  0  0  0
  136.8819   69.3161  221.4966 H   0  0  0  0  0  0  0  0  0  0  0  0
  137.4998   67.7271  220.9401 H   0  0  0  0  0  0  0  0  0  0  0  0
  137.7733   67.8819  223.3648 H   0  0  0  0  0  0  0  0  0  0  0  0
  139.3862   67.9424  222.6062 H   0  0  0  0  0  0  0  0  0  0  0  0
  137.7301   70.3881  223.5564 H   0  0  0  0  0  0  0  0  0  0  0  0
  139.1574   67.5442  224.7130 H   0  0  0  0  0  0  0  0  0  0  0  0
  140.2773   67.2835  226.8897 H   0  0  0  0  0  0  0  0  0  0  0  0
  141.1324   69.2786  228.1171 H   0  0  0  0  0  0  0  0  0  0  0  0
  139.6878   71.7932  224.9104 H   0  0  0  0  0  0  0  0  0  0  0  0
  140.8389   76.3359  219.2957 H   0  0  0  0  0  0  0  0  0  0  0  0
  141.7885   78.6206  219.3416 H   0  0  0  0  0  0  0  0  0  0  0  0
  142.4857   80.5506  220.6336 H   0  0  0  0  0  0  0  0  0  0  0  0
  142.7603   81.6386  222.8501 H   0  0  0  0  0  0  0  0  0  0  0  0
  142.0911   80.4230  224.9051 H   0  0  0  0  0  0  0  0  0  0  0  0
  141.1455   78.1274  224.7815 H   0  0  0  0  0  0  0  0  0  0  0  0
  1  2  2  0
  2  3  1  0
  3  4  1  0
  4  5  1  0
  5  6  2  0
  5  7  1  0
  7  8  1  0
  8  9  1  0
  9 10  1  0
 10 11  1  0
 11 12  1  0
 12 13  1  0
 13 14  2  0
 14 15  1  0
 15 16  2  0
 16 17  1  0
 17 18  1  0
 17 19  2  0
  2 20  1  0
 20 21  2  0
 21 22  1  0
 22 23  2  0
 23 24  1  0
 24 25  2  0
 25 26  1  0
 26 27  2  0
 27 28  1  0
 28 29  2  0
 12  7  1  0
 19 13  1  0
 29 20  1  0
 28 23  1  0
  3 30  1  0
  4 31  1  0
  4 32  1  0
  8 33  1  0
  8 34  1  0
  9 35  1  0
  9 36  1  0
 10 37  1  0
 10 38  1  0
 11 39  1  0
 11 40  1  0
 12 41  1  1
 14 42  1  0
 15 43  1  0
 16 44  1  0
 19 45  1  0
 21 46  1  0
 22 47  1  0
 24 48  1  0
 25 49  1  0
 26 50  1  0
 27 51  1  0
M  END
>  <smiles>  (68) 
O=C(NCC(=O)N1CCCCC1c1cccc(Br)c1)c1ccc2ccccc2n1

>  <score_type>  (68) 
oracle

>  <origin>  (68) 
autodockgpu

>  <m_score__min__energy>  (68) 
-9.4100000000000001

>  <m_primary>  (68) 
energy

>  <rmsd>  (68) 
8.092934541408393

>  <m_score__min__rmsd>  (68) 
8.092934541408393

>  <meeko>  (68) 
{"free_energy": -9.03, "intermolecular_energy": -10.52, "internal_energy": -1.59, "cluster_size": 7, "cluster_id": 3, "rank_in_cluster": 6}

>  <energy>  (68) 
-9.14

>  <cluster_rmsd>  (68) 
0.21

>  <cluster>  (68) 
2

$$$$

     RDKit          3D

 51 54  0  0  0  0  0  0  0  0999 V2000
  138.7450   75.5880  221.6400 O   0  0  0  0  0  0  0  0  0  0  0  0
  139.9250   75.9580  221.9240 C   0  0  0  0  0  0  0  0  0  0  0  0
  140.9930   75.0260  221.7830 N   0  0  0  0  0  0  0  0  0  0  0  0
  140.6750   73.7030  221.3230 C   0  0  0  0  0  0  0  0  0  0  0  0
  141.3160   73.4390  220.0120 C   0  0  0  0  0  0  0  0  0  0  0  0
  140.6690   73.1490  218.9680 O   0  0  0  0  0  0  0  0  0  0  0  0
  142.7310   73.5050  219.8800 N   0  0  0  0  0  0  0  0  0  0  0  0
  143.4610   72.3440  219.4080 C   0  0  0  0  0  0  0  0  0  0  0  0
  144.3920   71.9240  220.5400 C   0  0  0  0  0  0  0  0  0  0  0  0
  145.1680   73.1120  221.0660 C   0  0  0  0  0  0  0  0  0  0  0  0
  144.9720   74.2820  220.1300 C   0  0  0  0  0  0  0  0  0  0  0  0
  143.5040   74.6900  220.1980 C   0  0  1  0  0  0  0  0  0  0  0  0
  143.2560   75.8150  219.2620 C   0  0  0  0  0  0  0  0  0  0  0  0
  143.6100   75.7380  217.9170 C   0  0  0  0  0  0  0  0  0  0  0  0
  143.3790   76.7840  217.0470 C   0  0  0  0  0  0  0  0  0  0  0  0
  142.7820   77.9530  217.4950 C   0  0  0  0  0  0  0  0  0  0  0  0
  142.4220   78.0490  218.8370 C   0  0  0  0  0  0  0  0  0  0  0  0
  141.5910   79.6500  219.5030 Br  0  0  0  0  0  0  0  0  0  0  0  0
  142.6630   76.9780  219.7050 C   0  0  0  0  0  0  0  0  0  0  0  0
  140.1970   77.3150  222.3900 C   0  0  0  0  0  0  0  0  0  0  0  0
  139.1370   78.1350  222.7060 C   0  0  0  0  0  0  0  0  0  0  0  0
  139.3150   79.4280  223.1510 C   0  0  0  0  0  0  0  0  0  0  0  0
  140.6040   79.9040  223.2810 C   0  0  0  0  0  0  0  0  0  0  0  0
  140.8250   81.1980  223.7250 C   0  0  0  0  0  0  0  0  0  0  0  0
  142.1150   81.6460  223.8440 C   0  0  0  0  0  0  0  0  0  0  0  0
  143.1650   80.8000  223.5190 C   0  0  0  0  0  0  0  0  0  0  0  0
  142.9380   79.5030  223.0740 C   0  0  0  0  0  0  0  0  0  0  0  0
  141.6400   79.0510  222.9530 C   0  0  0  0  0  0  0  0  0  0  0  0
  141.4520   77.7940  222.5210 N   0  0  0  0  0  0  0  0  0  0  0  0
  141.9750   75.3300  222.0190 H   0  0  0  0  0  0  0  0  0  0  0  0
  141.0370   72.9681  222.0571 H   0  0  0  0  0  0  0  0  0  0  0  0
  139.5842   73.6198  221.2080 H   0  0  0  0  0  0  0  0  0  0  0  0
  142.7628   71.5284  219.1686 H   0  0  0  0  0  0  0  0  0  0  0  0
  144.0277   72.5766  218.4944 H   0  0  0  0  0  0  0  0  0  0  0  0
  143.7948   71.4929  221.3570 H   0  0  0  0  0  0  0  0  0  0  0  0
  145.1045   71.1806  220.1532 H   0  0  0  0  0  0  0  0  0  0  0  0
  144.8018   73.3768  222.0689 H   0  0  0  0  0  0  0  0  0  0  0  0
  146.2370   72.8599  221.1266 H   0  0  0  0  0  0  0  0  0  0  0  0
  145.6092   75.1224  220.4425 H   0  0  0  0  0  0  0  0  0  0  0  0
  145.2469   74.0030  219.1021 H   0  0  0  0  0  0  0  0  0  0  0  0
  143.2118   75.0539  221.1941 H   0  0  0  0  0  0  0  0  0  0  0  0
  144.0854   74.8209  217.5391 H   0  0  0  0  0  0  0  0  0  0  0  0
  143.6705   76.6899  215.9905 H   0  0  0  0  0  0  0  0  0  0  0  0
  142.5964   78.7883  216.8037 H   0  0  0  0  0  0  0  0  0  0  0  0
  142.3733   77.0660  220.7625 H   0  0  0  0  0  0  0  0  0  0  0  0
  138.1137   77.7456  222.5999 H   0  0  0  0  0  0  0  0  0  0  0  0
  138.4516   80.0639  223.3962 H   0  0  0  0  0  0  0  0  0  0  0  0
  139.9794   81.8546  223.9777 H   0  0  0  0  0  0  0  0  0  0  0  0
  142.3160   82.6690  224.1947 H   0  0  0  0  0  0  0  0  0  0  0  0
  144.1988   81.1631  223.6154 H   0  0  0  0  0  0  0  0  0  0  0  0
  143.7826   78.8451  222.8214 H   0  0  0  0  0  0  0  0  0  0  0  0
  1  2  2  0
  2  3  1  0
  3  4  1  0
  4  5  1  0
  5  6  2  0
  5  7  1  0
  7  8  1  0
  8  9  1  0
  9 10  1  0
 10 11  1  0
 11 12  1  0
 12 13  1  0
 13 14  2  0
 14 15  1  0
 15 16  2  0
 16 17  1  0
 17 18  1  0
 17 19  2  0
  2 20  1  0
 20 21  2  0
 21 22  1  0
 22 23  2  0
 23 24  1  0
 24 25  2  0
 25 26  1  0
 26 27  2  0
 27 28  1  0
 28 29  2  0
 12  7  1  0
 19 13  1  0
 29 20  1  0
 28 23  1  0
  3 30  1  0
  4 31  1  0
  4 32  1  0
  8 33  1  0
  8 34  1  0
  9 35  1  0
  9 36  1  0
 10 37  1  0
 10 38  1  0
 11 39  1  0
 11 40  1  0
 12 41  1  1
 14 42  1  0
 15 43  1  0
 16 44  1  0
 19 45  1  0
 21 46  1  0
 22 47  1  0
 24 48  1  0
 25 49  1  0
 26 50  1  0
 27 51  1  0
M  END
>  <smiles>  (69) 
O=C(NCC(=O)N1CCCCC1c1cccc(Br)c1)c1ccc2ccccc2n1

>  <score_type>  (69) 
oracle

>  <origin>  (69) 
autodockgpu

>  <m_score__min__energy>  (69) 
-9.4100000000000001

>  <m_primary>  (69) 
energy

>  <rmsd>  (69) 
7.672279046292415

>  <m_score__min__rmsd>  (69) 
7.672279046292415

>  <meeko>  (69) 
{"free_energy": -7.9, "intermolecular_energy": -9.4, "internal_energy": -2.78, "cluster_size": 6, "cluster_id": 6, "rank_in_cluster": 3}

>  <energy>  (69) 
-9.05

>  <cluster_rmsd>  (69) 
0.9

>  <cluster>  (69) 
2

$$$$

     RDKit          3D

 51 54  0  0  0  0  0  0  0  0999 V2000
  141.0820   71.4570  221.4300 O   0  0  0  0  0  0  0  0  0  0  0  0
  140.4960   72.0180  222.4060 C   0  0  0  0  0  0  0  0  0  0  0  0
  140.0900   73.3770  222.2790 N   0  0  0  0  0  0  0  0  0  0  0  0
  140.3660   74.0490  221.0390 C   0  0  0  0  0  0  0  0  0  0  0  0
  140.6270   75.4900  221.2740 C   0  0  0  0  0  0  0  0  0  0  0  0
  140.0610   76.1600  222.1820 O   0  0  0  0  0  0  0  0  0  0  0  0
  141.5550   76.1920  220.4560 N   0  0  0  0  0  0  0  0  0  0  0  0
  141.8270   77.5920  220.7220 C   0  0  0  0  0  0  0  0  0  0  0  0
  141.3830   78.3640  219.4840 C   0  0  0  0  0  0  0  0  0  0  0  0
  141.9440   77.7350  218.2280 C   0  0  0  0  0  0  0  0  0  0  0  0
  142.9800   76.7050  218.6130 C   0  0  0  0  0  0  0  0  0  0  0  0
  142.2620   75.5780  219.3490 C   0  0  1  0  0  0  0  0  0  0  0  0
  143.2500   74.5580  219.7820 C   0  0  0  0  0  0  0  0  0  0  0  0
  144.4340   74.9140  220.4230 C   0  0  0  0  0  0  0  0  0  0  0  0
  145.3520   73.9650  220.8250 C   0  0  0  0  0  0  0  0  0  0  0  0
  145.1160   72.6170  220.6000 C   0  0  0  0  0  0  0  0  0  0  0  0
  143.9370   72.2420  219.9600 C   0  0  0  0  0  0  0  0  0  0  0  0
  143.5670   70.3850  219.6260 Br  0  0  0  0  0  0  0  0  0  0  0  0
  143.0170   73.2170  219.5580 C   0  0  0  0  0  0  0  0  0  0  0  0
  140.2380   71.2920  223.6470 C   0  0  0  0  0  0  0  0  0  0  0  0
  139.5890   70.0790  223.5860 C   0  0  0  0  0  0  0  0  0  0  0  0
  139.3100   69.3370  224.7130 C   0  0  0  0  0  0  0  0  0  0  0  0
  139.7010   69.8360  225.9390 C   0  0  0  0  0  0  0  0  0  0  0  0
  139.4390   69.1200  227.0960 C   0  0  0  0  0  0  0  0  0  0  0  0
  139.8380   69.6390  228.3000 C   0  0  0  0  0  0  0  0  0  0  0  0
  140.4910   70.8620  228.3350 C   0  0  0  0  0  0  0  0  0  0  0  0
  140.7510   71.5770  227.1720 C   0  0  0  0  0  0  0  0  0  0  0  0
  140.3500   71.0560  225.9580 C   0  0  0  0  0  0  0  0  0  0  0  0
  140.6150   71.7690  224.8520 N   0  0  0  0  0  0  0  0  0  0  0  0
  139.6030   73.8460  223.0890 H   0  0  0  0  0  0  0  0  0  0  0  0
  141.2502   73.5931  220.5696 H   0  0  0  0  0  0  0  0  0  0  0  0
  139.4916   73.9496  220.3791 H   0  0  0  0  0  0  0  0  0  0  0  0
  141.2602   77.9283  221.6027 H   0  0  0  0  0  0  0  0  0  0  0  0
  142.8944   77.7564  220.9309 H   0  0  0  0  0  0  0  0  0  0  0  0
  140.2843   78.3582  219.4303 H   0  0  0  0  0  0  0  0  0  0  0  0
  141.7576   79.3955  219.5590 H   0  0  0  0  0  0  0  0  0  0  0  0
  141.1332   77.2497  217.6650 H   0  0  0  0  0  0  0  0  0  0  0  0
  142.4069   78.5101  217.5995 H   0  0  0  0  0  0  0  0  0  0  0  0
  143.4698   76.3107  217.7104 H   0  0  0  0  0  0  0  0  0  0  0  0
  143.7508   77.1553  219.2557 H   0  0  0  0  0  0  0  0  0  0  0  0
  141.5393   75.0485  218.7108 H   0  0  0  0  0  0  0  0  0  0  0  0
  144.6426   75.9771  220.6135 H   0  0  0  0  0  0  0  0  0  0  0  0
  146.2782   74.2803  221.3278 H   0  0  0  0  0  0  0  0  0  0  0  0
  145.8456   71.8588  220.9207 H   0  0  0  0  0  0  0  0  0  0  0  0
  142.0897   72.9078  219.0534 H   0  0  0  0  0  0  0  0  0  0  0  0
  139.2829   69.6891  222.6040 H   0  0  0  0  0  0  0  0  0  0  0  0
  138.7888   68.3713  224.6375 H   0  0  0  0  0  0  0  0  0  0  0  0
  138.9196   68.1515  227.0489 H   0  0  0  0  0  0  0  0  0  0  0  0
  139.6416   69.0892  229.2323 H   0  0  0  0  0  0  0  0  0  0  0  0
  140.8098   71.2747  229.3035 H   0  0  0  0  0  0  0  0  0  0  0  0
  141.2698   72.5459  227.2182 H   0  0  0  0  0  0  0  0  0  0  0  0
  1  2  2  0
  2  3  1  0
  3  4  1  0
  4  5  1  0
  5  6  2  0
  5  7  1  0
  7  8  1  0
  8  9  1  0
  9 10  1  0
 10 11  1  0
 11 12  1  0
 12 13  1  0
 13 14  2  0
 14 15  1  0
 15 16  2  0
 16 17  1  0
 17 18  1  0
 17 19  2  0
  2 20  1  0
 20 21  2  0
 21 22  1  0
 22 23  2  0
 23 24  1  0
 24 25  2  0
 25 26  1  0
 26 27  2  0
 27 28  1  0
 28 29  2  0
 12  7  1  0
 19 13  1  0
 29 20  1  0
 28 23  1  0
  3 30  1  0
  4 31  1  0
  4 32  1  0
  8 33  1  0
  8 34  1  0
  9 35  1  0
  9 36  1  0
 10 37  1  0
 10 38  1  0
 11 39  1  0
 11 40  1  0
 12 41  1  6
 14 42  1  0
 15 43  1  0
 16 44  1  0
 19 45  1  0
 21 46  1  0
 22 47  1  0
 24 48  1  0
 25 49  1  0
 26 50  1  0
 27 51  1  0
M  END
>  <smiles>  (70) 
O=C(NCC(=O)N1CCCCC1c1cccc(Br)c1)c1ccc2ccccc2n1

>  <score_type>  (70) 
oracle

>  <origin>  (70) 
autodockgpu

>  <m_score__min__energy>  (70) 
-9.4100000000000001

>  <m_primary>  (70) 
energy

>  <rmsd>  (70) 
2.3992293567839496

>  <m_score__min__rmsd>  (70) 
2.3992293567839496

>  <meeko>  (70) 
{"free_energy": -9.04, "intermolecular_energy": -10.53, "internal_energy": -2.0, "cluster_size": 25, "cluster_id": 2, "rank_in_cluster": 14}

>  <energy>  (70) 
-9.04

>  <cluster_rmsd>  (70) 
0.28

>  <cluster>  (70) 
2

$$$$

     RDKit          3D

 51 54  0  0  0  0  0  0  0  0999 V2000
  140.9550   77.1030  217.8640 O   0  0  0  0  0  0  0  0  0  0  0  0
  142.0120   77.0980  218.5660 C   0  0  0  0  0  0  0  0  0  0  0  0
  142.4380   78.3100  219.1810 N   0  0  0  0  0  0  0  0  0  0  0  0
  141.6410   79.4870  218.9720 C   0  0  0  0  0  0  0  0  0  0  0  0
  140.5390   79.5540  219.9620 C   0  0  0  0  0  0  0  0  0  0  0  0
  139.3230   79.6650  219.6420 O   0  0  0  0  0  0  0  0  0  0  0  0
  140.8230   79.4920  221.3540 N   0  0  0  0  0  0  0  0  0  0  0  0
  140.4700   80.6110  222.2070 C   0  0  0  0  0  0  0  0  0  0  0  0
  141.7750   81.1470  222.7840 C   0  0  0  0  0  0  0  0  0  0  0  0
  142.6100   80.0250  223.3590 C   0  0  0  0  0  0  0  0  0  0  0  0
  141.7720   78.7690  223.4190 C   0  0  0  0  0  0  0  0  0  0  0  0
  141.4580   78.3510  221.9860 C   0  0  1  0  0  0  0  0  0  0  0  0
  140.6010   77.1400  221.9970 C   0  0  0  0  0  0  0  0  0  0  0  0
  139.2520   77.2010  222.3390 C   0  0  0  0  0  0  0  0  0  0  0  0
  138.4560   76.0740  222.3500 C   0  0  0  0  0  0  0  0  0  0  0  0
  138.9840   74.8370  222.0150 C   0  0  0  0  0  0  0  0  0  0  0  0
  140.3320   74.7550  221.6700 C   0  0  0  0  0  0  0  0  0  0  0  0
  141.1070   73.0600  221.1990 Br  0  0  0  0  0  0  0  0  0  0  0  0
  141.1240   75.9080  221.6650 C   0  0  0  0  0  0  0  0  0  0  0  0
  142.7890   75.8750  218.7490 C   0  0  0  0  0  0  0  0  0  0  0  0
  142.5640   74.8120  217.9030 C   0  0  0  0  0  0  0  0  0  0  0  0
  143.2570   73.6250  218.0130 C   0  0  0  0  0  0  0  0  0  0  0  0
  144.2060   73.5120  219.0080 C   0  0  0  0  0  0  0  0  0  0  0  0
  144.9250   72.3350  219.1520 C   0  0  0  0  0  0  0  0  0  0  0  0
  145.8620   72.2490  220.1490 C   0  0  0  0  0  0  0  0  0  0  0  0
  146.0700   73.3350  220.9870 C   0  0  0  0  0  0  0  0  0  0  0  0
  145.3470   74.5130  220.8390 C   0  0  0  0  0  0  0  0  0  0  0  0
  144.4030   74.6010  219.8360 C   0  0  0  0  0  0  0  0  0  0  0  0
  143.7200   75.7510  219.7170 N   0  0  0  0  0  0  0  0  0  0  0  0
  143.3160   78.3090  219.7650 H   0  0  0  0  0  0  0  0  0  0  0  0
  142.2773   80.3780  219.0785 H   0  0  0  0  0  0  0  0  0  0  0  0
  141.2079   79.4471  217.9616 H   0  0  0  0  0  0  0  0  0  0  0  0
  139.9657   81.3921  221.6192 H   0  0  0  0  0  0  0  0  0  0  0  0
  139.7814   80.2991  223.0060 H   0  0  0  0  0  0  0  0  0  0  0  0
  142.3435   81.6469  221.9859 H   0  0  0  0  0  0  0  0  0  0  0  0
  141.5382   81.8580  223.5892 H   0  0  0  0  0  0  0  0  0  0  0  0
  143.4874   79.8527  222.7184 H   0  0  0  0  0  0  0  0  0  0  0  0
  142.9487   80.2945  224.3703 H   0  0  0  0  0  0  0  0  0  0  0  0
  142.3308   77.9700  223.9283 H   0  0  0  0  0  0  0  0  0  0  0  0
  140.8430   78.9525  223.9788 H   0  0  0  0  0  0  0  0  0  0  0  0
  142.3592   78.0790  221.4169 H   0  0  0  0  0  0  0  0  0  0  0  0
  138.8102   78.1721  222.6071 H   0  0  0  0  0  0  0  0  0  0  0  0
  137.3947   76.1578  222.6267 H   0  0  0  0  0  0  0  0  0  0  0  0
  138.3513   73.9372  222.0213 H   0  0  0  0  0  0  0  0  0  0  0  0
  142.1863   75.8303  221.3904 H   0  0  0  0  0  0  0  0  0  0  0  0
  141.8057   74.9132  217.1126 H   0  0  0  0  0  0  0  0  0  0  0  0
  143.0583   72.7898  217.3252 H   0  0  0  0  0  0  0  0  0  0  0  0
  144.7465   71.4846  218.4775 H   0  0  0  0  0  0  0  0  0  0  0  0
  146.4446   71.3257  220.2836 H   0  0  0  0  0  0  0  0  0  0  0  0
  146.8231   73.2623  221.7855 H   0  0  0  0  0  0  0  0  0  0  0  0
  145.5250   75.3642  221.5127 H   0  0  0  0  0  0  0  0  0  0  0  0
  1  2  2  0
  2  3  1  0
  3  4  1  0
  4  5  1  0
  5  6  2  0
  5  7  1  0
  7  8  1  0
  8  9  1  0
  9 10  1  0
 10 11  1  0
 11 12  1  0
 12 13  1  0
 13 14  2  0
 14 15  1  0
 15 16  2  0
 16 17  1  0
 17 18  1  0
 17 19  2  0
  2 20  1  0
 20 21  2  0
 21 22  1  0
 22 23  2  0
 23 24  1  0
 24 25  2  0
 25 26  1  0
 26 27  2  0
 27 28  1  0
 28 29  2  0
 12  7  1  0
 19 13  1  0
 29 20  1  0
 28 23  1  0
  3 30  1  0
  4 31  1  0
  4 32  1  0
  8 33  1  0
  8 34  1  0
  9 35  1  0
  9 36  1  0
 10 37  1  0
 10 38  1  0
 11 39  1  0
 11 40  1  0
 12 41  1  6
 14 42  1  0
 15 43  1  0
 16 44  1  0
 19 45  1  0
 21 46  1  0
 22 47  1  0
 24 48  1  0
 25 49  1  0
 26 50  1  0
 27 51  1  0
M  END
>  <smiles>  (71) 
O=C(NCC(=O)N1CCCCC1c1cccc(Br)c1)c1ccc2ccccc2n1

>  <score_type>  (71) 
oracle

>  <origin>  (71) 
autodockgpu

>  <m_score__min__energy>  (71) 
-9.4100000000000001

>  <m_primary>  (71) 
energy

>  <rmsd>  (71) 
7.555434215922412

>  <m_score__min__rmsd>  (71) 
7.555434215922412

>  <meeko>  (71) 
{"free_energy": -7.55, "intermolecular_energy": -9.05, "internal_energy": -3.02, "cluster_size": 3, "cluster_id": 8, "rank_in_cluster": 2}

>  <energy>  (71) 
-9.03

>  <cluster_rmsd>  (71) 
1.05

>  <cluster>  (71) 
2

$$$$

     RDKit          3D

 51 54  0  0  0  0  0  0  0  0999 V2000
  140.8020   75.5470  219.3790 O   0  0  0  0  0  0  0  0  0  0  0  0
  141.3190   75.9350  220.4710 C   0  0  0  0  0  0  0  0  0  0  0  0
  141.7840   74.9610  221.4000 N   0  0  0  0  0  0  0  0  0  0  0  0
  141.6430   73.5750  221.0490 C   0  0  0  0  0  0  0  0  0  0  0  0
  140.4720   72.9790  221.7380 C   0  0  0  0  0  0  0  0  0  0  0  0
  139.6600   73.6490  222.4340 O   0  0  0  0  0  0  0  0  0  0  0  0
  140.2160   71.5840  221.6360 N   0  0  0  0  0  0  0  0  0  0  0  0
  140.8190   70.8220  220.5590 C   0  0  0  0  0  0  0  0  0  0  0  0
  139.6720   70.2770  219.7150 C   0  0  0  0  0  0  0  0  0  0  0  0
  138.6320   69.6110  220.5880 C   0  0  0  0  0  0  0  0  0  0  0  0
  139.1840   69.4610  221.9860 C   0  0  0  0  0  0  0  0  0  0  0  0
  139.3680   70.8610  222.5650 C   0  0  1  0  0  0  0  0  0  0  0  0
  139.9480   70.7640  223.9270 C   0  0  0  0  0  0  0  0  0  0  0  0
  140.5610   71.8540  224.5400 C   0  0  0  0  0  0  0  0  0  0  0  0
  141.1010   71.7620  225.8070 C   0  0  0  0  0  0  0  0  0  0  0  0
  141.0450   70.5690  226.5120 C   0  0  0  0  0  0  0  0  0  0  0  0
  140.4350   69.4680  225.9140 C   0  0  0  0  0  0  0  0  0  0  0  0
  140.3350   67.7930  226.8530 Br  0  0  0  0  0  0  0  0  0  0  0  0
  139.8940   69.5780  224.6290 C   0  0  0  0  0  0  0  0  0  0  0  0
  141.4390   77.3570  220.7820 C   0  0  0  0  0  0  0  0  0  0  0  0
  141.5420   78.2590  219.7460 C   0  0  0  0  0  0  0  0  0  0  0  0
  141.6600   79.6160  219.9610 C   0  0  0  0  0  0  0  0  0  0  0  0
  141.6720   80.0730  221.2630 C   0  0  0  0  0  0  0  0  0  0  0  0
  141.7880   81.4300  221.5210 C   0  0  0  0  0  0  0  0  0  0  0  0
  141.7980   81.8570  222.8230 C   0  0  0  0  0  0  0  0  0  0  0  0
  141.6920   80.9290  223.8490 C   0  0  0  0  0  0  0  0  0  0  0  0
  141.5760   79.5690  223.5850 C   0  0  0  0  0  0  0  0  0  0  0  0
  141.5660   79.1370  222.2740 C   0  0  0  0  0  0  0  0  0  0  0  0
  141.4520   77.8180  222.0500 N   0  0  0  0  0  0  0  0  0  0  0  0
  142.2130   75.2820  222.3080 H   0  0  0  0  0  0  0  0  0  0  0  0
  141.5045   73.4897  219.9611 H   0  0  0  0  0  0  0  0  0  0  0  0
  142.5500   73.0360  221.3601 H   0  0  0  0  0  0  0  0  0  0  0  0
  141.4635   71.4719  219.9489 H   0  0  0  0  0  0  0  0  0  0  0  0
  141.4443   70.0068  220.9519 H   0  0  0  0  0  0  0  0  0  0  0  0
  139.2035   71.1063  219.1648 H   0  0  0  0  0  0  0  0  0  0  0  0
  140.0739   69.5308  219.0138 H   0  0  0  0  0  0  0  0  0  0  0  0
  137.7228   70.2296  220.6152 H   0  0  0  0  0  0  0  0  0  0  0  0
  138.3836   68.6205  220.1790 H   0  0  0  0  0  0  0  0  0  0  0  0
  138.4799   68.8882  222.6073 H   0  0  0  0  0  0  0  0  0  0  0  0
  140.1435   68.9234  221.9657 H   0  0  0  0  0  0  0  0  0  0  0  0
  138.4160   71.4004  222.6782 H   0  0  0  0  0  0  0  0  0  0  0  0
  140.6162   72.8115  224.0014 H   0  0  0  0  0  0  0  0  0  0  0  0
  141.5796   72.6421  226.2612 H   0  0  0  0  0  0  0  0  0  0  0  0
  141.4733   70.4934  227.5224 H   0  0  0  0  0  0  0  0  0  0  0  0
  139.4157   68.7008  224.1688 H   0  0  0  0  0  0  0  0  0  0  0  0
  141.5297   77.8840  218.7120 H   0  0  0  0  0  0  0  0  0  0  0  0
  141.7424   80.3160  219.1165 H   0  0  0  0  0  0  0  0  0  0  0  0
  141.8706   82.1516  220.6948 H   0  0  0  0  0  0  0  0  0  0  0  0
  141.8895   82.9287  223.0533 H   0  0  0  0  0  0  0  0  0  0  0  0
  141.6999   81.2765  224.8926 H   0  0  0  0  0  0  0  0  0  0  0  0
  141.4933   78.8464  224.4103 H   0  0  0  0  0  0  0  0  0  0  0  0
  1  2  2  0
  2  3  1  0
  3  4  1  0
  4  5  1  0
  5  6  2  0
  5  7  1  0
  7  8  1  0
  8  9  1  0
  9 10  1  0
 10 11  1  0
 11 12  1  0
 12 13  1  0
 13 14  2  0
 14 15  1  0
 15 16  2  0
 16 17  1  0
 17 18  1  0
 17 19  2  0
  2 20  1  0
 20 21  2  0
 21 22  1  0
 22 23  2  0
 23 24  1  0
 24 25  2  0
 25 26  1  0
 26 27  2  0
 27 28  1  0
 28 29  2  0
 12  7  1  0
 19 13  1  0
 29 20  1  0
 28 23  1  0
  3 30  1  0
  4 31  1  0
  4 32  1  0
  8 33  1  0
  8 34  1  0
  9 35  1  0
  9 36  1  0
 10 37  1  0
 10 38  1  0
 11 39  1  0
 11 40  1  0
 12 41  1  1
 14 42  1  0
 15 43  1  0
 16 44  1  0
 19 45  1  0
 21 46  1  0
 22 47  1  0
 24 48  1  0
 25 49  1  0
 26 50  1  0
 27 51  1  0
M  END
>  <smiles>  (72) 
O=C(NCC(=O)N1CCCCC1c1cccc(Br)c1)c1ccc2ccccc2n1

>  <score_type>  (72) 
oracle

>  <origin>  (72) 
autodockgpu

>  <m_score__min__energy>  (72) 
-9.4100000000000001

>  <m_primary>  (72) 
energy

>  <rmsd>  (72) 
8.482146055472718

>  <m_score__min__rmsd>  (72) 
8.482146055472718

>  <meeko>  (72) 
{"free_energy": -8.67, "intermolecular_energy": -10.16, "internal_energy": -1.43, "cluster_size": 7, "cluster_id": 3, "rank_in_cluster": 7}

>  <energy>  (72) 
-9.03

>  <cluster_rmsd>  (72) 
0.25

>  <cluster>  (72) 
2

$$$$

     RDKit          3D

 51 54  0  0  0  0  0  0  0  0999 V2000
  141.2770   71.9890  221.4260 O   0  0  0  0  0  0  0  0  0  0  0  0
  140.5520   72.3860  222.3890 C   0  0  0  0  0  0  0  0  0  0  0  0
  139.9710   73.6840  222.3260 N   0  0  0  0  0  0  0  0  0  0  0  0
  140.2370   74.4850  221.1640 C   0  0  0  0  0  0  0  0  0  0  0  0
  140.2590   75.9260  221.5170 C   0  0  0  0  0  0  0  0  0  0  0  0
  139.9470   76.3660  222.6570 O   0  0  0  0  0  0  0  0  0  0  0  0
  140.6480   76.8930  220.5490 N   0  0  0  0  0  0  0  0  0  0  0  0
  139.8950   77.0140  219.3150 C   0  0  0  0  0  0  0  0  0  0  0  0
  140.8580   76.6750  218.1830 C   0  0  0  0  0  0  0  0  0  0  0  0
  142.1510   77.4450  218.3280 C   0  0  0  0  0  0  0  0  0  0  0  0
  141.9780   78.5020  219.3940 C   0  0  0  0  0  0  0  0  0  0  0  0
  141.7760   77.7870  220.7270 C   0  0  1  0  0  0  0  0  0  0  0  0
  141.5620   78.7880  221.8020 C   0  0  0  0  0  0  0  0  0  0  0  0
  142.6290   79.3960  222.4580 C   0  0  0  0  0  0  0  0  0  0  0  0
  142.4280   80.3270  223.4570 C   0  0  0  0  0  0  0  0  0  0  0  0
  141.1440   80.6860  223.8370 C   0  0  0  0  0  0  0  0  0  0  0  0
  140.0640   80.0880  223.1920 C   0  0  0  0  0  0  0  0  0  0  0  0
  138.2650   80.5550  223.6860 Br  0  0  0  0  0  0  0  0  0  0  0  0
  140.2850   79.1460  222.1810 C   0  0  0  0  0  0  0  0  0  0  0  0
  140.3120   71.5340  223.5510 C   0  0  0  0  0  0  0  0  0  0  0  0
  139.6570   70.3360  223.3730 C   0  0  0  0  0  0  0  0  0  0  0  0
  139.3930   69.4790  224.4210 C   0  0  0  0  0  0  0  0  0  0  0  0
  139.8080   69.8460  225.6850 C   0  0  0  0  0  0  0  0  0  0  0  0
  139.5630   69.0120  226.7650 C   0  0  0  0  0  0  0  0  0  0  0  0
  139.9840   69.4000  228.0100 C   0  0  0  0  0  0  0  0  0  0  0  0
  140.6430   70.6110  228.1630 C   0  0  0  0  0  0  0  0  0  0  0  0
  140.8870   71.4440  227.0760 C   0  0  0  0  0  0  0  0  0  0  0  0
  140.4620   71.0540  225.8220 C   0  0  0  0  0  0  0  0  0  0  0  0
  140.7120   71.8790  224.7930 N   0  0  0  0  0  0  0  0  0  0  0  0
  139.3690   74.0170  223.1260 H   0  0  0  0  0  0  0  0  0  0  0  0
  141.2133   74.2006  220.7446 H   0  0  0  0  0  0  0  0  0  0  0  0
  139.4407   74.3130  220.4248 H   0  0  0  0  0  0  0  0  0  0  0  0
  139.0484   76.3117  219.3164 H   0  0  0  0  0  0  0  0  0  0  0  0
  139.4856   78.0282  219.1976 H   0  0  0  0  0  0  0  0  0  0  0  0
  141.0759   75.5970  218.2058 H   0  0  0  0  0  0  0  0  0  0  0  0
  140.3890   76.9512  217.2271 H   0  0  0  0  0  0  0  0  0  0  0  0
  142.9590   76.7574  218.6183 H   0  0  0  0  0  0  0  0  0  0  0  0
  142.4087   77.9217  217.3707 H   0  0  0  0  0  0  0  0  0  0  0  0
  142.8751   79.1368  219.4414 H   0  0  0  0  0  0  0  0  0  0  0  0
  141.1134   79.1425  219.1651 H   0  0  0  0  0  0  0  0  0  0  0  0
  142.6558   77.2004  221.0301 H   0  0  0  0  0  0  0  0  0  0  0  0
  143.6571   79.1279  222.1732 H   0  0  0  0  0  0  0  0  0  0  0  0
  143.2935   80.7878  223.9556 H   0  0  0  0  0  0  0  0  0  0  0  0
  140.9813   81.4284  224.6322 H   0  0  0  0  0  0  0  0  0  0  0  0
  139.4234   78.6819  221.6787 H   0  0  0  0  0  0  0  0  0  0  0  0
  139.3333   70.0528  222.3606 H   0  0  0  0  0  0  0  0  0  0  0  0
  138.8657   68.5282  224.2538 H   0  0  0  0  0  0  0  0  0  0  0  0
  139.0394   68.0548  226.6249 H   0  0  0  0  0  0  0  0  0  0  0  0
  139.8006   68.7554  228.8823 H   0  0  0  0  0  0  0  0  0  0  0  0
  140.9794   70.9188  229.1640 H   0  0  0  0  0  0  0  0  0  0  0  0
  141.4117   72.4009  227.2140 H   0  0  0  0  0  0  0  0  0  0  0  0
  1  2  2  0
  2  3  1  0
  3  4  1  0
  4  5  1  0
  5  6  2  0
  5  7  1  0
  7  8  1  0
  8  9  1  0
  9 10  1  0
 10 11  1  0
 11 12  1  0
 12 13  1  0
 13 14  2  0
 14 15  1  0
 15 16  2  0
 16 17  1  0
 17 18  1  0
 17 19  2  0
  2 20  1  0
 20 21  2  0
 21 22  1  0
 22 23  2  0
 23 24  1  0
 24 25  2  0
 25 26  1  0
 26 27  2  0
 27 28  1  0
 28 29  2  0
 12  7  1  0
 19 13  1  0
 29 20  1  0
 28 23  1  0
  3 30  1  0
  4 31  1  0
  4 32  1  0
  8 33  1  0
  8 34  1  0
  9 35  1  0
  9 36  1  0
 10 37  1  0
 10 38  1  0
 11 39  1  0
 11 40  1  0
 12 41  1  1
 14 42  1  0
 15 43  1  0
 16 44  1  0
 19 45  1  0
 21 46  1  0
 22 47  1  0
 24 48  1  0
 25 49  1  0
 26 50  1  0
 27 51  1  0
M  END
>  <smiles>  (73) 
O=C(NCC(=O)N1CCCCC1c1cccc(Br)c1)c1ccc2ccccc2n1

>  <score_type>  (73) 
oracle

>  <origin>  (73) 
autodockgpu

>  <m_score__min__energy>  (73) 
-9.4100000000000001

>  <m_primary>  (73) 
energy

>  <rmsd>  (73) 
1.8034834282643384

>  <m_score__min__rmsd>  (73) 
1.8034834282643384

>  <meeko>  (73) 
{"free_energy": -9.41, "intermolecular_energy": -10.9, "internal_energy": -1.61, "cluster_size": 6, "cluster_id": 1, "rank_in_cluster": 1}

>  <energy>  (73) 
-9.0

>  <cluster_rmsd>  (73) 
0.29

>  <cluster>  (73) 
2

$$$$

     RDKit          3D

 51 54  0  0  0  0  0  0  0  0999 V2000
  139.4640   70.9980  221.2910 O   0  0  0  0  0  0  0  0  0  0  0  0
  139.5620   71.7340  222.3200 C   0  0  0  0  0  0  0  0  0  0  0  0
  139.3990   73.1420  222.1810 N   0  0  0  0  0  0  0  0  0  0  0  0
  139.1290   73.6620  220.8690 C   0  0  0  0  0  0  0  0  0  0  0  0
  140.3900   73.8400  220.1090 C   0  0  0  0  0  0  0  0  0  0  0  0
  140.8020   73.0190  219.2440 O   0  0  0  0  0  0  0  0  0  0  0  0
  141.2080   74.9810  220.3370 N   0  0  0  0  0  0  0  0  0  0  0  0
  140.8320   75.9380  221.3600 C   0  0  0  0  0  0  0  0  0  0  0  0
  140.5800   77.2610  220.6460 C   0  0  0  0  0  0  0  0  0  0  0  0
  141.7250   77.5970  219.7160 C   0  0  0  0  0  0  0  0  0  0  0  0
  142.8730   76.6530  219.9870 C   0  0  0  0  0  0  0  0  0  0  0  0
  142.4230   75.2500  219.5920 C   0  0  1  0  0  0  0  0  0  0  0  0
  143.5090   74.2800  219.8780 C   0  0  0  0  0  0  0  0  0  0  0  0
  144.7110   74.6790  220.4580 C   0  0  0  0  0  0  0  0  0  0  0  0
  145.7200   73.7760  220.7240 C   0  0  0  0  0  0  0  0  0  0  0  0
  145.5620   72.4330  220.4180 C   0  0  0  0  0  0  0  0  0  0  0  0
  144.3670   72.0150  219.8370 C   0  0  0  0  0  0  0  0  0  0  0  0
  144.1030   70.1620  219.3940 Br  0  0  0  0  0  0  0  0  0  0  0  0
  143.3540   72.9430  219.5740 C   0  0  0  0  0  0  0  0  0  0  0  0
  139.8380   71.1570  223.6340 C   0  0  0  0  0  0  0  0  0  0  0  0
  139.5780   69.8210  223.8420 C   0  0  0  0  0  0  0  0  0  0  0  0
  139.8120   69.2070  225.0540 C   0  0  0  0  0  0  0  0  0  0  0  0
  140.3250   69.9670  226.0840 C   0  0  0  0  0  0  0  0  0  0  0  0
  140.5750   69.3860  227.3180 C   0  0  0  0  0  0  0  0  0  0  0  0
  141.0850   70.1640  228.3250 C   0  0  0  0  0  0  0  0  0  0  0  0
  141.3390   71.5070  228.0900 C   0  0  0  0  0  0  0  0  0  0  0  0
  141.0870   72.0850  226.8500 C   0  0  0  0  0  0  0  0  0  0  0  0
  140.5730   71.3030  225.8360 C   0  0  0  0  0  0  0  0  0  0  0  0
  140.3400   71.8890  224.6510 N   0  0  0  0  0  0  0  0  0  0  0  0
  139.4800   73.7560  223.0350 H   0  0  0  0  0  0  0  0  0  0  0  0
  138.4772   72.9597  220.3287 H   0  0  0  0  0  0  0  0  0  0  0  0
  138.6343   74.6393  220.9695 H   0  0  0  0  0  0  0  0  0  0  0  0
  139.9189   75.6044  221.8748 H   0  0  0  0  0  0  0  0  0  0  0  0
  141.6226   76.0402  222.1179 H   0  0  0  0  0  0  0  0  0  0  0  0
  139.6514   77.1840  220.0614 H   0  0  0  0  0  0  0  0  0  0  0  0
  140.4933   78.0573  221.3999 H   0  0  0  0  0  0  0  0  0  0  0  0
  141.3963   77.4875  218.6720 H   0  0  0  0  0  0  0  0  0  0  0  0
  142.0492   78.6343  219.8859 H   0  0  0  0  0  0  0  0  0  0  0  0
  143.7489   76.9474  219.3903 H   0  0  0  0  0  0  0  0  0  0  0  0
  143.1533   76.6826  221.0503 H   0  0  0  0  0  0  0  0  0  0  0  0
  142.2122   75.1602  218.5161 H   0  0  0  0  0  0  0  0  0  0  0  0
  144.8594   75.7394  220.7100 H   0  0  0  0  0  0  0  0  0  0  0  0
  146.6572   74.1245  221.1825 H   0  0  0  0  0  0  0  0  0  0  0  0
  146.3648   71.7115  220.6299 H   0  0  0  0  0  0  0  0  0  0  0  0
  142.4148   72.6000  219.1155 H   0  0  0  0  0  0  0  0  0  0  0  0
  139.1699   69.2236  223.0134 H   0  0  0  0  0  0  0  0  0  0  0  0
  139.5950   68.1380  225.1958 H   0  0  0  0  0  0  0  0  0  0  0  0
  140.3676   68.3189  227.4861 H   0  0  0  0  0  0  0  0  0  0  0  0
  141.2914   69.7260  229.3127 H   0  0  0  0  0  0  0  0  0  0  0  0
  141.7481   72.1279  228.9007 H   0  0  0  0  0  0  0  0  0  0  0  0
  141.2948   73.1517  226.6800 H   0  0  0  0  0  0  0  0  0  0  0  0
  1  2  2  0
  2  3  1  0
  3  4  1  0
  4  5  1  0
  5  6  2  0
  5  7  1  0
  7  8  1  0
  8  9  1  0
  9 10  1  0
 10 11  1  0
 11 12  1  0
 12 13  1  0
 13 14  2  0
 14 15  1  0
 15 16  2  0
 16 17  1  0
 17 18  1  0
 17 19  2  0
  2 20  1  0
 20 21  2  0
 21 22  1  0
 22 23  2  0
 23 24  1  0
 24 25  2  0
 25 26  1  0
 26 27  2  0
 27 28  1  0
 28 29  2  0
 12  7  1  0
 19 13  1  0
 29 20  1  0
 28 23  1  0
  3 30  1  0
  4 31  1  0
  4 32  1  0
  8 33  1  0
  8 34  1  0
  9 35  1  0
  9 36  1  0
 10 37  1  0
 10 38  1  0
 11 39  1  0
 11 40  1  0
 12 41  1  6
 14 42  1  0
 15 43  1  0
 16 44  1  0
 19 45  1  0
 21 46  1  0
 22 47  1  0
 24 48  1  0
 25 49  1  0
 26 50  1  0
 27 51  1  0
M  END
>  <smiles>  (74) 
O=C(NCC(=O)N1CCCCC1c1cccc(Br)c1)c1ccc2ccccc2n1

>  <score_type>  (74) 
oracle

>  <origin>  (74) 
autodockgpu

>  <m_score__min__energy>  (74) 
-9.4100000000000001

>  <m_primary>  (74) 
energy

>  <rmsd>  (74) 
2.2761700269332126

>  <m_score__min__rmsd>  (74) 
2.2761700269332126

>  <meeko>  (74) 
{"free_energy": -8.64, "intermolecular_energy": -10.13, "internal_energy": -1.49, "cluster_size": 25, "cluster_id": 2, "rank_in_cluster": 24}

>  <energy>  (74) 
-8.94

>  <cluster_rmsd>  (74) 
1.14

>  <cluster>  (74) 
2

$$$$

     RDKit          3D

 51 54  0  0  0  0  0  0  0  0999 V2000
  141.1010   71.5840  221.4440 O   0  0  0  0  0  0  0  0  0  0  0  0
  140.4910   72.1320  222.4120 C   0  0  0  0  0  0  0  0  0  0  0  0
  140.0420   73.4770  222.2730 N   0  0  0  0  0  0  0  0  0  0  0  0
  140.3080   74.1500  221.0320 C   0  0  0  0  0  0  0  0  0  0  0  0
  141.0130   75.4320  221.2750 C   0  0  0  0  0  0  0  0  0  0  0  0
  140.9530   76.0630  222.3660 O   0  0  0  0  0  0  0  0  0  0  0  0
  141.8080   76.0160  220.2500 N   0  0  0  0  0  0  0  0  0  0  0  0
  142.0270   77.4500  220.2440 C   0  0  0  0  0  0  0  0  0  0  0  0
  141.4120   77.9790  218.9530 C   0  0  0  0  0  0  0  0  0  0  0  0
  141.8720   77.1630  217.7650 C   0  0  0  0  0  0  0  0  0  0  0  0
  142.9990   76.2550  218.1970 C   0  0  0  0  0  0  0  0  0  0  0  0
  142.4280   75.2460  219.1890 C   0  0  1  0  0  0  0  0  0  0  0  0
  143.5120   74.3550  219.6730 C   0  0  0  0  0  0  0  0  0  0  0  0
  144.5560   74.8350  220.4590 C   0  0  0  0  0  0  0  0  0  0  0  0
  145.5640   74.0060  220.9080 C   0  0  0  0  0  0  0  0  0  0  0  0
  145.5620   72.6570  220.5840 C   0  0  0  0  0  0  0  0  0  0  0  0
  144.5260   72.1590  219.7970 C   0  0  0  0  0  0  0  0  0  0  0  0
  144.4830   70.2960  219.3230 Br  0  0  0  0  0  0  0  0  0  0  0  0
  143.5120   73.0140  219.3510 C   0  0  0  0  0  0  0  0  0  0  0  0
  140.2460   71.4050  223.6560 C   0  0  0  0  0  0  0  0  0  0  0  0
  139.5800   70.2010  223.6020 C   0  0  0  0  0  0  0  0  0  0  0  0
  139.3120   69.4580  224.7320 C   0  0  0  0  0  0  0  0  0  0  0  0
  139.7320   69.9490  225.9520 C   0  0  0  0  0  0  0  0  0  0  0  0
  139.4810   69.2320  227.1120 C   0  0  0  0  0  0  0  0  0  0  0  0
  139.9080   69.7420  228.3100 C   0  0  0  0  0  0  0  0  0  0  0  0
  140.5770   70.9570  228.3370 C   0  0  0  0  0  0  0  0  0  0  0  0
  140.8260   71.6720  227.1710 C   0  0  0  0  0  0  0  0  0  0  0  0
  140.3960   71.1600  225.9630 C   0  0  0  0  0  0  0  0  0  0  0  0
  140.6500   71.8730  224.8550 N   0  0  0  0  0  0  0  0  0  0  0  0
  139.5350   73.9350  223.0770 H   0  0  0  0  0  0  0  0  0  0  0  0
  140.9362   73.5062  220.3988 H   0  0  0  0  0  0  0  0  0  0  0  0
  139.3520   74.3602  220.5302 H   0  0  0  0  0  0  0  0  0  0  0  0
  141.5384   77.9122  221.1144 H   0  0  0  0  0  0  0  0  0  0  0  0
  143.0996   77.6878  220.2991 H   0  0  0  0  0  0  0  0  0  0  0  0
  140.3159   77.9230  219.0263 H   0  0  0  0  0  0  0  0  0  0  0  0
  141.7335   79.0213  218.8106 H   0  0  0  0  0  0  0  0  0  0  0  0
  141.0349   76.5574  217.3875 H   0  0  0  0  0  0  0  0  0  0  0  0
  142.2216   77.8343  216.9668 H   0  0  0  0  0  0  0  0  0  0  0  0
  143.4120   75.7290  217.3236 H   0  0  0  0  0  0  0  0  0  0  0  0
  143.8066   76.8385  218.6631 H   0  0  0  0  0  0  0  0  0  0  0  0
  141.6738   74.5865  218.7349 H   0  0  0  0  0  0  0  0  0  0  0  0
  144.5781   75.9012  220.7288 H   0  0  0  0  0  0  0  0  0  0  0  0
  146.3746   74.4178  221.5271 H   0  0  0  0  0  0  0  0  0  0  0  0
  146.3631   71.9934  220.9417 H   0  0  0  0  0  0  0  0  0  0  0  0
  142.6987   72.6084  218.7312 H   0  0  0  0  0  0  0  0  0  0  0  0
  139.2507   69.8191  222.6244 H   0  0  0  0  0  0  0  0  0  0  0  0
  138.7775   68.4990  224.6633 H   0  0  0  0  0  0  0  0  0  0  0  0
  138.9483   68.2704  227.0712 H   0  0  0  0  0  0  0  0  0  0  0  0
  139.7216   69.1917  229.2440 H   0  0  0  0  0  0  0  0  0  0  0  0
  140.9175   71.3631  229.3009 H   0  0  0  0  0  0  0  0  0  0  0  0
  141.3589   72.6335  227.2104 H   0  0  0  0  0  0  0  0  0  0  0  0
  1  2  2  0
  2  3  1  0
  3  4  1  0
  4  5  1  0
  5  6  2  0
  5  7  1  0
  7  8  1  0
  8  9  1  0
  9 10  1  0
 10 11  1  0
 11 12  1  0
 12 13  1  0
 13 14  2  0
 14 15  1  0
 15 16  2  0
 16 17  1  0
 17 18  1  0
 17 19  2  0
  2 20  1  0
 20 21  2  0
 21 22  1  0
 22 23  2  0
 23 24  1  0
 24 25  2  0
 25 26  1  0
 26 27  2  0
 27 28  1  0
 28 29  2  0
 12  7  1  0
 19 13  1  0
 29 20  1  0
 28 23  1  0
  3 30  1  0
  4 31  1  0
  4 32  1  0
  8 33  1  0
  8 34  1  0
  9 35  1  0
  9 36  1  0
 10 37  1  0
 10 38  1  0
 11 39  1  0
 11 40  1  0
 12 41  1  6
 14 42  1  0
 15 43  1  0
 16 44  1  0
 19 45  1  0
 21 46  1  0
 22 47  1  0
 24 48  1  0
 25 49  1  0
 26 50  1  0
 27 51  1  0
M  END
>  <smiles>  (75) 
O=C(NCC(=O)N1CCCCC1c1cccc(Br)c1)c1ccc2ccccc2n1

>  <score_type>  (75) 
oracle

>  <origin>  (75) 
autodockgpu

>  <m_score__min__energy>  (75) 
-9.4100000000000001

>  <m_primary>  (75) 
energy

>  <rmsd>  (75) 
2.3635472912948345

>  <m_score__min__rmsd>  (75) 
2.3635472912948345

>  <meeko>  (75) 
{"free_energy": -9.17, "intermolecular_energy": -10.66, "internal_energy": -1.93, "cluster_size": 25, "cluster_id": 2, "rank_in_cluster": 10}

>  <energy>  (75) 
-8.93

>  <cluster_rmsd>  (75) 
1.1

>  <cluster>  (75) 
2

$$$$

     RDKit          3D

 51 54  0  0  0  0  0  0  0  0999 V2000
  140.2080   74.1430  220.2030 O   0  0  0  0  0  0  0  0  0  0  0  0
  140.0360   74.8370  221.2510 C   0  0  0  0  0  0  0  0  0  0  0  0
  139.2760   74.2910  222.3240 N   0  0  0  0  0  0  0  0  0  0  0  0
  138.7390   72.9680  222.1630 C   0  0  0  0  0  0  0  0  0  0  0  0
  139.6580   71.9580  222.7410 C   0  0  0  0  0  0  0  0  0  0  0  0
  140.6640   72.2540  223.4430 O   0  0  0  0  0  0  0  0  0  0  0  0
  139.4310   70.5720  222.5170 N   0  0  0  0  0  0  0  0  0  0  0  0
  139.9790   69.9390  221.3320 C   0  0  0  0  0  0  0  0  0  0  0  0
  138.7920   69.4430  220.5140 C   0  0  0  0  0  0  0  0  0  0  0  0
  137.8310   68.6610  221.3820 C   0  0  0  0  0  0  0  0  0  0  0  0
  138.4800   68.3930  222.7190 C   0  0  0  0  0  0  0  0  0  0  0  0
  138.6670   69.7350  223.4220 C   0  0  1  0  0  0  0  0  0  0  0  0
  139.3400   69.5230  224.7280 C   0  0  0  0  0  0  0  0  0  0  0  0
  139.5280   68.2480  225.2550 C   0  0  0  0  0  0  0  0  0  0  0  0
  140.1540   68.0530  226.4690 C   0  0  0  0  0  0  0  0  0  0  0  0
  140.6180   69.1330  227.2040 C   0  0  0  0  0  0  0  0  0  0  0  0
  140.4380   70.4170  226.6930 C   0  0  0  0  0  0  0  0  0  0  0  0
  141.0650   71.9450  227.6770 Br  0  0  0  0  0  0  0  0  0  0  0  0
  139.8010   70.5970  225.4600 C   0  0  0  0  0  0  0  0  0  0  0  0
  140.6020   76.1790  221.3660 C   0  0  0  0  0  0  0  0  0  0  0  0
  141.1570   76.7650  220.2500 C   0  0  0  0  0  0  0  0  0  0  0  0
  141.7110   78.0270  220.2810 C   0  0  0  0  0  0  0  0  0  0  0  0
  141.7020   78.7160  221.4770 C   0  0  0  0  0  0  0  0  0  0  0  0
  142.2490   79.9880  221.5500 C   0  0  0  0  0  0  0  0  0  0  0  0
  142.2270   80.6500  222.7490 C   0  0  0  0  0  0  0  0  0  0  0  0
  141.6620   80.0380  223.8580 C   0  0  0  0  0  0  0  0  0  0  0  0
  141.1140   78.7620  223.7800 C   0  0  0  0  0  0  0  0  0  0  0  0
  141.1360   78.0940  222.5730 C   0  0  0  0  0  0  0  0  0  0  0  0
  140.6000   76.8640  222.5290 N   0  0  0  0  0  0  0  0  0  0  0  0
  139.1310   74.8660  223.1960 H   0  0  0  0  0  0  0  0  0  0  0  0
  137.7672   72.9075  222.6748 H   0  0  0  0  0  0  0  0  0  0  0  0
  138.6168   72.7631  221.0892 H   0  0  0  0  0  0  0  0  0  0  0  0
  140.5639   70.6661  220.7495 H   0  0  0  0  0  0  0  0  0  0  0  0
  140.6501   69.1096  221.5999 H   0  0  0  0  0  0  0  0  0  0  0  0
  138.2660   70.3068  220.0813 H   0  0  0  0  0  0  0  0  0  0  0  0
  139.1643   68.7828  219.7168 H   0  0  0  0  0  0  0  0  0  0  0  0
  136.9100   69.2440  221.5297 H   0  0  0  0  0  0  0  0  0  0  0  0
  137.5813   67.7077  220.8932 H   0  0  0  0  0  0  0  0  0  0  0  0
  137.8345   67.7397  223.3245 H   0  0  0  0  0  0  0  0  0  0  0  0
  139.4494   67.8913  222.5828 H   0  0  0  0  0  0  0  0  0  0  0  0
  137.7117   70.2305  223.6501 H   0  0  0  0  0  0  0  0  0  0  0  0
  139.1688   67.3753  224.6899 H   0  0  0  0  0  0  0  0  0  0  0  0
  140.2860   67.0322  226.8569 H   0  0  0  0  0  0  0  0  0  0  0  0
  141.1184   68.9795  228.1715 H   0  0  0  0  0  0  0  0  0  0  0  0
  139.6653   71.6154  225.0669 H   0  0  0  0  0  0  0  0  0  0  0  0
  141.1583   76.2072  219.3019 H   0  0  0  0  0  0  0  0  0  0  0  0
  142.1489   78.4733  219.3760 H   0  0  0  0  0  0  0  0  0  0  0  0
  142.6932   80.4576  220.6600 H   0  0  0  0  0  0  0  0  0  0  0  0
  142.6545   81.6601  222.8317 H   0  0  0  0  0  0  0  0  0  0  0  0
  141.6470   80.5728  224.8191 H   0  0  0  0  0  0  0  0  0  0  0  0
  140.6688   78.2915  224.6691 H   0  0  0  0  0  0  0  0  0  0  0  0
  1  2  2  0
  2  3  1  0
  3  4  1  0
  4  5  1  0
  5  6  2  0
  5  7  1  0
  7  8  1  0
  8  9  1  0
  9 10  1  0
 10 11  1  0
 11 12  1  0
 12 13  1  0
 13 14  2  0
 14 15  1  0
 15 16  2  0
 16 17  1  0
 17 18  1  0
 17 19  2  0
  2 20  1  0
 20 21  2  0
 21 22  1  0
 22 23  2  0
 23 24  1  0
 24 25  2  0
 25 26  1  0
 26 27  2  0
 27 28  1  0
 28 29  2  0
 12  7  1  0
 19 13  1  0
 29 20  1  0
 28 23  1  0
  3 30  1  0
  4 31  1  0
  4 32  1  0
  8 33  1  0
  8 34  1  0
  9 35  1  0
  9 36  1  0
 10 37  1  0
 10 38  1  0
 11 39  1  0
 11 40  1  0
 12 41  1  1
 14 42  1  0
 15 43  1  0
 16 44  1  0
 19 45  1  0
 21 46  1  0
 22 47  1  0
 24 48  1  0
 25 49  1  0
 26 50  1  0
 27 51  1  0
M  END
>  <smiles>  (76) 
O=C(NCC(=O)N1CCCCC1c1cccc(Br)c1)c1ccc2ccccc2n1

>  <score_type>  (76) 
oracle

>  <origin>  (76) 
autodockgpu

>  <m_score__min__energy>  (76) 
-9.4100000000000001

>  <m_primary>  (76) 
energy

>  <rmsd>  (76) 
8.125892170114755

>  <m_score__min__rmsd>  (76) 
8.125892170114755

>  <meeko>  (76) 
{"free_energy": -9.17, "intermolecular_energy": -10.66, "internal_energy": -1.53, "cluster_size": 7, "cluster_id": 3, "rank_in_cluster": 3}

>  <energy>  (76) 
-8.89

>  <cluster_rmsd>  (76) 
0.91

>  <cluster>  (76) 
2

$$$$

     RDKit          3D

 51 54  0  0  0  0  0  0  0  0999 V2000
  141.5760   71.9660  221.6870 O   0  0  0  0  0  0  0  0  0  0  0  0
  140.6300   72.2950  222.4660 C   0  0  0  0  0  0  0  0  0  0  0  0
  139.8500   73.4470  222.1570 N   0  0  0  0  0  0  0  0  0  0  0  0
  140.1800   74.1830  220.9680 C   0  0  0  0  0  0  0  0  0  0  0  0
  140.8680   75.4510  221.3140 C   0  0  0  0  0  0  0  0  0  0  0  0
  140.7470   76.0250  222.4310 O   0  0  0  0  0  0  0  0  0  0  0  0
  141.7180   76.0850  220.3660 N   0  0  0  0  0  0  0  0  0  0  0  0
  141.9570   77.5120  220.4610 C   0  0  0  0  0  0  0  0  0  0  0  0
  141.4090   78.1320  219.1810 C   0  0  0  0  0  0  0  0  0  0  0  0
  141.9120   77.3870  217.9650 C   0  0  0  0  0  0  0  0  0  0  0  0
  143.0050   76.4340  218.3880 C   0  0  0  0  0  0  0  0  0  0  0  0
  142.3740   75.3730  219.2860 C   0  0  1  0  0  0  0  0  0  0  0  0
  143.4220   74.4350  219.7590 C   0  0  0  0  0  0  0  0  0  0  0  0
  144.5590   74.8850  220.4270 C   0  0  0  0  0  0  0  0  0  0  0  0
  145.5330   74.0110  220.8660 C   0  0  0  0  0  0  0  0  0  0  0  0
  145.4030   72.6470  220.6520 C   0  0  0  0  0  0  0  0  0  0  0  0
  144.2730   72.1780  219.9850 C   0  0  0  0  0  0  0  0  0  0  0  0
  144.0510   70.2950  219.6660 Br  0  0  0  0  0  0  0  0  0  0  0  0
  143.2960   73.0780  219.5470 C   0  0  0  0  0  0  0  0  0  0  0  0
  140.3340   71.5130  223.6640 C   0  0  0  0  0  0  0  0  0  0  0  0
  139.5970   70.3570  223.5390 C   0  0  0  0  0  0  0  0  0  0  0  0
  139.2780   69.5680  224.6230 C   0  0  0  0  0  0  0  0  0  0  0  0
  139.7210   69.9600  225.8700 C   0  0  0  0  0  0  0  0  0  0  0  0
  139.4220   69.1930  226.9860 C   0  0  0  0  0  0  0  0  0  0  0  0
  139.8720   69.6060  228.2130 C   0  0  0  0  0  0  0  0  0  0  0  0
  140.6140   70.7740  228.3120 C   0  0  0  0  0  0  0  0  0  0  0  0
  140.9120   71.5400  227.1900 C   0  0  0  0  0  0  0  0  0  0  0  0
  140.4580   71.1260  225.9540 C   0  0  0  0  0  0  0  0  0  0  0  0
  140.7610   71.8850  224.8890 N   0  0  0  0  0  0  0  0  0  0  0  0
  139.0630   73.7230  222.8030 H   0  0  0  0  0  0  0  0  0  0  0  0
  140.8426   73.5725  220.3369 H   0  0  0  0  0  0  0  0  0  0  0  0
  139.2515   74.4189  220.4273 H   0  0  0  0  0  0  0  0  0  0  0  0
  141.4360   77.9265  221.3367 H   0  0  0  0  0  0  0  0  0  0  0  0
  143.0293   77.7275  220.5784 H   0  0  0  0  0  0  0  0  0  0  0  0
  140.3100   78.0889  219.2012 H   0  0  0  0  0  0  0  0  0  0  0  0
  141.7503   79.1760  219.1209 H   0  0  0  0  0  0  0  0  0  0  0  0
  141.0850   76.8213  217.5111 H   0  0  0  0  0  0  0  0  0  0  0  0
  142.3076   78.1023  217.2289 H   0  0  0  0  0  0  0  0  0  0  0  0
  143.4507   75.9581  217.5020 H   0  0  0  0  0  0  0  0  0  0  0  0
  143.7984   76.9726  218.9270 H   0  0  0  0  0  0  0  0  0  0  0  0
  141.6316   74.7569  218.7575 H   0  0  0  0  0  0  0  0  0  0  0  0
  144.6834   75.9627  220.6089 H   0  0  0  0  0  0  0  0  0  0  0  0
  146.4190   74.3994  221.3896 H   0  0  0  0  0  0  0  0  0  0  0  0
  146.1773   71.9485  221.0022 H   0  0  0  0  0  0  0  0  0  0  0  0
  142.4082   72.6954  219.0222 H   0  0  0  0  0  0  0  0  0  0  0  0
  139.2510   70.0528  222.5401 H   0  0  0  0  0  0  0  0  0  0  0  0
  138.6857   68.6496  224.4976 H   0  0  0  0  0  0  0  0  0  0  0  0
  138.8336   68.2688  226.8881 H   0  0  0  0  0  0  0  0  0  0  0  0
  139.6463   69.0154  229.1131 H   0  0  0  0  0  0  0  0  0  0  0  0
  140.9742   71.1011  229.2985 H   0  0  0  0  0  0  0  0  0  0  0  0
  141.5017   72.4636  227.2864 H   0  0  0  0  0  0  0  0  0  0  0  0
  1  2  2  0
  2  3  1  0
  3  4  1  0
  4  5  1  0
  5  6  2  0
  5  7  1  0
  7  8  1  0
  8  9  1  0
  9 10  1  0
 10 11  1  0
 11 12  1  0
 12 13  1  0
 13 14  2  0
 14 15  1  0
 15 16  2  0
 16 17  1  0
 17 18  1  0
 17 19  2  0
  2 20  1  0
 20 21  2  0
 21 22  1  0
 22 23  2  0
 23 24  1  0
 24 25  2  0
 25 26  1  0
 26 27  2  0
 27 28  1  0
 28 29  2  0
 12  7  1  0
 19 13  1  0
 29 20  1  0
 28 23  1  0
  3 30  1  0
  4 31  1  0
  4 32  1  0
  8 33  1  0
  8 34  1  0
  9 35  1  0
  9 36  1  0
 10 37  1  0
 10 38  1  0
 11 39  1  0
 11 40  1  0
 12 41  1  6
 14 42  1  0
 15 43  1  0
 16 44  1  0
 19 45  1  0
 21 46  1  0
 22 47  1  0
 24 48  1  0
 25 49  1  0
 26 50  1  0
 27 51  1  0
M  END
>  <smiles>  (77) 
O=C(NCC(=O)N1CCCCC1c1cccc(Br)c1)c1ccc2ccccc2n1

>  <score_type>  (77) 
oracle

>  <origin>  (77) 
autodockgpu

>  <m_score__min__energy>  (77) 
-9.4100000000000001

>  <m_primary>  (77) 
energy

>  <rmsd>  (77) 
2.3920183936307997

>  <m_score__min__rmsd>  (77) 
2.3920183936307997

>  <meeko>  (77) 
{"free_energy": -9.2, "intermolecular_energy": -10.69, "internal_energy": -1.9, "cluster_size": 25, "cluster_id": 2, "rank_in_cluster": 4}

>  <energy>  (77) 
-8.85

>  <cluster_rmsd>  (77) 
1.45

>  <cluster>  (77) 
2

$$$$

     RDKit          3D

 51 54  0  0  0  0  0  0  0  0999 V2000
  141.1480   71.5360  221.4500 O   0  0  0  0  0  0  0  0  0  0  0  0
  140.5450   72.0690  222.4320 C   0  0  0  0  0  0  0  0  0  0  0  0
  140.0940   73.4150  222.3160 N   0  0  0  0  0  0  0  0  0  0  0  0
  140.3470   74.1070  221.0830 C   0  0  0  0  0  0  0  0  0  0  0  0
  140.8740   75.4680  221.3470 C   0  0  0  0  0  0  0  0  0  0  0  0
  140.6080   76.1260  222.3900 O   0  0  0  0  0  0  0  0  0  0  0  0
  141.7290   76.1000  220.4010 N   0  0  0  0  0  0  0  0  0  0  0  0
  141.9740   77.5260  220.5000 C   0  0  0  0  0  0  0  0  0  0  0  0
  141.4310   78.1510  219.2200 C   0  0  0  0  0  0  0  0  0  0  0  0
  141.9320   77.4060  218.0030 C   0  0  0  0  0  0  0  0  0  0  0  0
  143.0200   76.4470  218.4260 C   0  0  0  0  0  0  0  0  0  0  0  0
  142.3830   75.3870  219.3210 C   0  0  1  0  0  0  0  0  0  0  0  0
  143.4260   74.4430  219.7940 C   0  0  0  0  0  0  0  0  0  0  0  0
  144.5690   74.8870  220.4550 C   0  0  0  0  0  0  0  0  0  0  0  0
  145.5380   74.0080  220.8940 C   0  0  0  0  0  0  0  0  0  0  0  0
  145.3980   72.6440  220.6860 C   0  0  0  0  0  0  0  0  0  0  0  0
  144.2620   72.1820  220.0250 C   0  0  0  0  0  0  0  0  0  0  0  0
  144.0250   70.2990  219.7140 Br  0  0  0  0  0  0  0  0  0  0  0  0
  143.2890   73.0860  219.5870 C   0  0  0  0  0  0  0  0  0  0  0  0
  140.3120   71.3240  223.6660 C   0  0  0  0  0  0  0  0  0  0  0  0
  139.6670   70.1100  223.5980 C   0  0  0  0  0  0  0  0  0  0  0  0
  139.4110   69.3490  224.7200 C   0  0  0  0  0  0  0  0  0  0  0  0
  139.8220   69.8330  225.9450 C   0  0  0  0  0  0  0  0  0  0  0  0
  139.5830   69.0980  227.0970 C   0  0  0  0  0  0  0  0  0  0  0  0
  140.0010   69.6010  228.3010 C   0  0  0  0  0  0  0  0  0  0  0  0
  140.6500   70.8270  228.3420 C   0  0  0  0  0  0  0  0  0  0  0  0
  140.8860   71.5600  227.1850 C   0  0  0  0  0  0  0  0  0  0  0  0
  140.4660   71.0550  225.9710 C   0  0  0  0  0  0  0  0  0  0  0  0
  140.7080   71.7850  224.8710 N   0  0  0  0  0  0  0  0  0  0  0  0
  139.5930   73.8600  223.1310 H   0  0  0  0  0  0  0  0  0  0  0  0
  141.0852   73.5411  220.4957 H   0  0  0  0  0  0  0  0  0  0  0  0
  139.4030   74.1942  220.5251 H   0  0  0  0  0  0  0  0  0  0  0  0
  141.4530   77.9407  221.3755 H   0  0  0  0  0  0  0  0  0  0  0  0
  143.0469   77.7368  220.6203 H   0  0  0  0  0  0  0  0  0  0  0  0
  140.3318   78.1132  219.2386 H   0  0  0  0  0  0  0  0  0  0  0  0
  141.7778   79.1933  219.1624 H   0  0  0  0  0  0  0  0  0  0  0  0
  141.1029   76.8451  217.5469 H   0  0  0  0  0  0  0  0  0  0  0  0
  142.3318   78.1207  217.2686 H   0  0  0  0  0  0  0  0  0  0  0  0
  143.4649   75.9708  217.5398 H   0  0  0  0  0  0  0  0  0  0  0  0
  143.8148   76.9810  218.9674 H   0  0  0  0  0  0  0  0  0  0  0  0
  141.6388   74.7752  218.7901 H   0  0  0  0  0  0  0  0  0  0  0  0
  144.7024   75.9645  220.6313 H   0  0  0  0  0  0  0  0  0  0  0  0
  146.4285   74.3923  221.4130 H   0  0  0  0  0  0  0  0  0  0  0  0
  146.1684   71.9411  221.0359 H   0  0  0  0  0  0  0  0  0  0  0  0
  142.3966   72.7074  219.0671 H   0  0  0  0  0  0  0  0  0  0  0  0
  139.3447   69.7338  222.6159 H   0  0  0  0  0  0  0  0  0  0  0  0
  138.8929   68.3819  224.6401 H   0  0  0  0  0  0  0  0  0  0  0  0
  139.0668   68.1281  227.0448 H   0  0  0  0  0  0  0  0  0  0  0  0
  139.8234   69.0370  229.2286 H   0  0  0  0  0  0  0  0  0  0  0  0
  140.9846   71.2270  229.3105 H   0  0  0  0  0  0  0  0  0  0  0  0
  141.4011   72.5306  227.2361 H   0  0  0  0  0  0  0  0  0  0  0  0
  1  2  2  0
  2  3  1  0
  3  4  1  0
  4  5  1  0
  5  6  2  0
  5  7  1  0
  7  8  1  0
  8  9  1  0
  9 10  1  0
 10 11  1  0
 11 12  1  0
 12 13  1  0
 13 14  2  0
 14 15  1  0
 15 16  2  0
 16 17  1  0
 17 18  1  0
 17 19  2  0
  2 20  1  0
 20 21  2  0
 21 22  1  0
 22 23  2  0
 23 24  1  0
 24 25  2  0
 25 26  1  0
 26 27  2  0
 27 28  1  0
 28 29  2  0
 12  7  1  0
 19 13  1  0
 29 20  1  0
 28 23  1  0
  3 30  1  0
  4 31  1  0
  4 32  1  0
  8 33  1  0
  8 34  1  0
  9 35  1  0
  9 36  1  0
 10 37  1  0
 10 38  1  0
 11 39  1  0
 11 40  1  0
 12 41  1  6
 14 42  1  0
 15 43  1  0
 16 44  1  0
 19 45  1  0
 21 46  1  0
 22 47  1  0
 24 48  1  0
 25 49  1  0
 26 50  1  0
 27 51  1  0
M  END
>  <smiles>  (78) 
O=C(NCC(=O)N1CCCCC1c1cccc(Br)c1)c1ccc2ccccc2n1

>  <score_type>  (78) 
oracle

>  <origin>  (78) 
autodockgpu

>  <m_score__min__energy>  (78) 
-9.4100000000000001

>  <m_primary>  (78) 
energy

>  <rmsd>  (78) 
2.385316828580519

>  <m_score__min__rmsd>  (78) 
2.385316828580519

>  <meeko>  (78) 
{"free_energy": -9.19, "intermolecular_energy": -10.68, "internal_energy": -2.03, "cluster_size": 25, "cluster_id": 2, "rank_in_cluster": 5}

>  <energy>  (78) 
-8.72

>  <cluster_rmsd>  (78) 
1.39

>  <cluster>  (78) 
2

$$$$

     RDKit          3D

 51 54  0  0  0  0  0  0  0  0999 V2000
  140.0120   74.2300  220.1000 O   0  0  0  0  0  0  0  0  0  0  0  0
  139.9500   74.8630  221.1980 C   0  0  0  0  0  0  0  0  0  0  0  0
  139.3010   74.2540  222.3100 N   0  0  0  0  0  0  0  0  0  0  0  0
  138.7440   72.9420  222.1290 C   0  0  0  0  0  0  0  0  0  0  0  0
  139.6590   71.9080  222.6710 C   0  0  0  0  0  0  0  0  0  0  0  0
  140.7040   72.1780  223.3240 O   0  0  0  0  0  0  0  0  0  0  0  0
  139.3800   70.5280  222.4670 N   0  0  0  0  0  0  0  0  0  0  0  0
  139.9050   69.8570  221.2930 C   0  0  0  0  0  0  0  0  0  0  0  0
  138.7010   69.3930  220.4810 C   0  0  0  0  0  0  0  0  0  0  0  0
  137.7100   68.6620  221.3590 C   0  0  0  0  0  0  0  0  0  0  0  0
  138.3470   68.3900  222.7010 C   0  0  0  0  0  0  0  0  0  0  0  0
  138.5830   69.7350  223.3840 C   0  0  1  0  0  0  0  0  0  0  0  0
  139.2460   69.5180  224.6940 C   0  0  0  0  0  0  0  0  0  0  0  0
  139.3740   68.2470  225.2470 C   0  0  0  0  0  0  0  0  0  0  0  0
  139.9900   68.0470  226.4660 C   0  0  0  0  0  0  0  0  0  0  0  0
  140.5050   69.1180  227.1790 C   0  0  0  0  0  0  0  0  0  0  0  0
  140.3860   70.3990  226.6410 C   0  0  0  0  0  0  0  0  0  0  0  0
  141.0860   71.9150  227.5940 Br  0  0  0  0  0  0  0  0  0  0  0  0
  139.7580   70.5840  225.4050 C   0  0  0  0  0  0  0  0  0  0  0  0
  140.5320   76.1960  221.3330 C   0  0  0  0  0  0  0  0  0  0  0  0
  140.9710   76.8470  220.2020 C   0  0  0  0  0  0  0  0  0  0  0  0
  141.5320   78.1060  220.2490 C   0  0  0  0  0  0  0  0  0  0  0  0
  141.6480   78.7240  221.4770 C   0  0  0  0  0  0  0  0  0  0  0  0
  142.2050   79.9900  221.5670 C   0  0  0  0  0  0  0  0  0  0  0  0
  142.3100   80.5820  222.7990 C   0  0  0  0  0  0  0  0  0  0  0  0
  141.8580   79.9060  223.9230 C   0  0  0  0  0  0  0  0  0  0  0  0
  141.3000   78.6350  223.8280 C   0  0  0  0  0  0  0  0  0  0  0  0
  141.1950   78.0390  222.5880 C   0  0  0  0  0  0  0  0  0  0  0  0
  140.6510   76.8130  222.5270 N   0  0  0  0  0  0  0  0  0  0  0  0
  139.2480   74.7780  223.2240 H   0  0  0  0  0  0  0  0  0  0  0  0
  137.7795   72.8829  222.6546 H   0  0  0  0  0  0  0  0  0  0  0  0
  138.6022   72.7618  221.0532 H   0  0  0  0  0  0  0  0  0  0  0  0
  140.5171   70.5527  220.7003 H   0  0  0  0  0  0  0  0  0  0  0  0
  140.5445   69.0075  221.5746 H   0  0  0  0  0  0  0  0  0  0  0  0
  138.2086   70.2690  220.0335 H   0  0  0  0  0  0  0  0  0  0  0  0
  139.0493   68.7063  219.6954 H   0  0  0  0  0  0  0  0  0  0  0  0
  136.8118   69.2820  221.4963 H   0  0  0  0  0  0  0  0  0  0  0  0
  137.4244   67.7116  220.8844 H   0  0  0  0  0  0  0  0  0  0  0  0
  137.6769   67.7705  223.3151 H   0  0  0  0  0  0  0  0  0  0  0  0
  139.2971   67.8504  222.5742 H   0  0  0  0  0  0  0  0  0  0  0  0
  137.6469   70.2696  223.6029 H   0  0  0  0  0  0  0  0  0  0  0  0
  138.9745   67.3808  224.6992 H   0  0  0  0  0  0  0  0  0  0  0  0
  140.0728   67.0292  226.8748 H   0  0  0  0  0  0  0  0  0  0  0  0
  140.9978   68.9607  228.1498 H   0  0  0  0  0  0  0  0  0  0  0  0
  139.6705   71.5996  224.9915 H   0  0  0  0  0  0  0  0  0  0  0  0
  140.8709   76.3459  219.2279 H   0  0  0  0  0  0  0  0  0  0  0  0
  141.8779   78.6044  219.3314 H   0  0  0  0  0  0  0  0  0  0  0  0
  142.5571   80.5112  220.6646 H   0  0  0  0  0  0  0  0  0  0  0  0
  142.7495   81.5858  222.8956 H   0  0  0  0  0  0  0  0  0  0  0  0
  141.9425   80.3848  224.9097 H   0  0  0  0  0  0  0  0  0  0  0  0
  140.9473   78.1123  224.7293 H   0  0  0  0  0  0  0  0  0  0  0  0
  1  2  2  0
  2  3  1  0
  3  4  1  0
  4  5  1  0
  5  6  2  0
  5  7  1  0
  7  8  1  0
  8  9  1  0
  9 10  1  0
 10 11  1  0
 11 12  1  0
 12 13  1  0
 13 14  2  0
 14 15  1  0
 15 16  2  0
 16 17  1  0
 17 18  1  0
 17 19  2  0
  2 20  1  0
 20 21  2  0
 21 22  1  0
 22 23  2  0
 23 24  1  0
 24 25  2  0
 25 26  1  0
 26 27  2  0
 27 28  1  0
 28 29  2  0
 12  7  1  0
 19 13  1  0
 29 20  1  0
 28 23  1  0
  3 30  1  0
  4 31  1  0
  4 32  1  0
  8 33  1  0
  8 34  1  0
  9 35  1  0
  9 36  1  0
 10 37  1  0
 10 38  1  0
 11 39  1  0
 11 40  1  0
 12 41  1  1
 14 42  1  0
 15 43  1  0
 16 44  1  0
 19 45  1  0
 21 46  1  0
 22 47  1  0
 24 48  1  0
 25 49  1  0
 26 50  1  0
 27 51  1  0
M  END
>  <smiles>  (79) 
O=C(NCC(=O)N1CCCCC1c1cccc(Br)c1)c1ccc2ccccc2n1

>  <score_type>  (79) 
oracle

>  <origin>  (79) 
autodockgpu

>  <m_score__min__energy>  (79) 
-9.4100000000000001

>  <m_primary>  (79) 
energy

>  <rmsd>  (79) 
8.119661191842964

>  <m_score__min__rmsd>  (79) 
8.119661191842964

>  <meeko>  (79) 
{"free_energy": -9.16, "intermolecular_energy": -10.65, "internal_energy": -1.55, "cluster_size": 7, "cluster_id": 3, "rank_in_cluster": 4}

>  <energy>  (79) 
-8.7

>  <cluster_rmsd>  (79) 
1.03

>  <cluster>  (79) 
2

$$$$

     RDKit          3D

 51 54  0  0  0  0  0  0  0  0999 V2000
  138.7410   75.5200  221.7400 O   0  0  0  0  0  0  0  0  0  0  0  0
  139.9250   75.8920  222.0070 C   0  0  0  0  0  0  0  0  0  0  0  0
  140.9890   74.9540  221.8760 N   0  0  0  0  0  0  0  0  0  0  0  0
  140.6640   73.6230  221.4450 C   0  0  0  0  0  0  0  0  0  0  0  0
  141.3220   73.3180  220.1520 C   0  0  0  0  0  0  0  0  0  0  0  0
  140.7020   72.8820  219.1430 O   0  0  0  0  0  0  0  0  0  0  0  0
  142.7220   73.5140  219.9970 N   0  0  0  0  0  0  0  0  0  0  0  0
  143.5510   72.4190  219.5310 C   0  0  0  0  0  0  0  0  0  0  0  0
  144.5340   72.1070  220.6540 C   0  0  0  0  0  0  0  0  0  0  0  0
  145.2020   73.3700  221.1500 C   0  0  0  0  0  0  0  0  0  0  0  0
  144.8850   74.5010  220.2000 C   0  0  0  0  0  0  0  0  0  0  0  0
  143.3850   74.7710  220.2850 C   0  0  1  0  0  0  0  0  0  0  0  0
  143.0200   75.8530  219.3360 C   0  0  0  0  0  0  0  0  0  0  0  0
  143.0880   75.6680  217.9570 C   0  0  0  0  0  0  0  0  0  0  0  0
  142.7490   76.6740  217.0760 C   0  0  0  0  0  0  0  0  0  0  0  0
  142.3260   77.9090  217.5450 C   0  0  0  0  0  0  0  0  0  0  0  0
  142.2530   78.1120  218.9210 C   0  0  0  0  0  0  0  0  0  0  0  0
  141.6730   79.8080  219.6180 Br  0  0  0  0  0  0  0  0  0  0  0  0
  142.6010   77.0810  219.8010 C   0  0  0  0  0  0  0  0  0  0  0  0
  140.2040   77.2580  222.4420 C   0  0  0  0  0  0  0  0  0  0  0  0
  139.1480   78.1030  222.6990 C   0  0  0  0  0  0  0  0  0  0  0  0
  139.3330   79.4060  223.1130 C   0  0  0  0  0  0  0  0  0  0  0  0
  140.6250   79.8640  223.2720 C   0  0  0  0  0  0  0  0  0  0  0  0
  140.8530   81.1670  223.6870 C   0  0  0  0  0  0  0  0  0  0  0  0
  142.1450   81.5980  223.8370 C   0  0  0  0  0  0  0  0  0  0  0  0
  143.1910   80.7260  223.5730 C   0  0  0  0  0  0  0  0  0  0  0  0
  142.9580   79.4200  223.1570 C   0  0  0  0  0  0  0  0  0  0  0  0
  141.6560   78.9860  223.0050 C   0  0  0  0  0  0  0  0  0  0  0  0
  141.4620   77.7200  222.6030 N   0  0  0  0  0  0  0  0  0  0  0  0
  141.9740   75.2610  222.0980 H   0  0  0  0  0  0  0  0  0  0  0  0
  141.0065   72.9037  222.2035 H   0  0  0  0  0  0  0  0  0  0  0  0
  139.5743   73.5486  221.3146 H   0  0  0  0  0  0  0  0  0  0  0  0
  142.9292   71.5376  219.3153 H   0  0  0  0  0  0  0  0  0  0  0  0
  144.0799   72.6886  218.6049 H   0  0  0  0  0  0  0  0  0  0  0  0
  143.9921   71.6349  221.4867 H   0  0  0  0  0  0  0  0  0  0  0  0
  145.3078   71.4280  220.2665 H   0  0  0  0  0  0  0  0  0  0  0  0
  144.8262   73.6158  222.1542 H   0  0  0  0  0  0  0  0  0  0  0  0
  146.2906   73.2198  221.1981 H   0  0  0  0  0  0  0  0  0  0  0  0
  145.4450   75.4022  220.4901 H   0  0  0  0  0  0  0  0  0  0  0  0
  145.1708   74.2327  219.1722 H   0  0  0  0  0  0  0  0  0  0  0  0
  143.0736   75.1218  221.2800 H   0  0  0  0  0  0  0  0  0  0  0  0
  143.4198   74.6968  217.5612 H   0  0  0  0  0  0  0  0  0  0  0  0
  142.8147   76.4953  215.9926 H   0  0  0  0  0  0  0  0  0  0  0  0
  142.0537   78.7120  216.8442 H   0  0  0  0  0  0  0  0  0  0  0  0
  142.5389   77.2541  220.8855 H   0  0  0  0  0  0  0  0  0  0  0  0
  138.1224   77.7267  222.5700 H   0  0  0  0  0  0  0  0  0  0  0  0
  138.4730   80.0627  223.3112 H   0  0  0  0  0  0  0  0  0  0  0  0
  140.0105   81.8438  223.8925 H   0  0  0  0  0  0  0  0  0  0  0  0
  142.3512   82.6277  224.1643 H   0  0  0  0  0  0  0  0  0  0  0  0
  144.2269   81.0752  223.6954 H   0  0  0  0  0  0  0  0  0  0  0  0
  143.7993   78.7417  222.9518 H   0  0  0  0  0  0  0  0  0  0  0  0
  1  2  2  0
  2  3  1  0
  3  4  1  0
  4  5  1  0
  5  6  2  0
  5  7  1  0
  7  8  1  0
  8  9  1  0
  9 10  1  0
 10 11  1  0
 11 12  1  0
 12 13  1  0
 13 14  2  0
 14 15  1  0
 15 16  2  0
 16 17  1  0
 17 18  1  0
 17 19  2  0
  2 20  1  0
 20 21  2  0
 21 22  1  0
 22 23  2  0
 23 24  1  0
 24 25  2  0
 25 26  1  0
 26 27  2  0
 27 28  1  0
 28 29  2  0
 12  7  1  0
 19 13  1  0
 29 20  1  0
 28 23  1  0
  3 30  1  0
  4 31  1  0
  4 32  1  0
  8 33  1  0
  8 34  1  0
  9 35  1  0
  9 36  1  0
 10 37  1  0
 10 38  1  0
 11 39  1  0
 11 40  1  0
 12 41  1  1
 14 42  1  0
 15 43  1  0
 16 44  1  0
 19 45  1  0
 21 46  1  0
 22 47  1  0
 24 48  1  0
 25 49  1  0
 26 50  1  0
 27 51  1  0
M  END
>  <smiles>  (80) 
O=C(NCC(=O)N1CCCCC1c1cccc(Br)c1)c1ccc2ccccc2n1

>  <score_type>  (80) 
oracle

>  <origin>  (80) 
autodockgpu

>  <m_score__min__energy>  (80) 
-9.4100000000000001

>  <m_primary>  (80) 
energy

>  <rmsd>  (80) 
7.633826304602927

>  <m_score__min__rmsd>  (80) 
7.633826304602927

>  <meeko>  (80) 
{"free_energy": -7.74, "intermolecular_energy": -9.23, "internal_energy": -2.82, "cluster_size": 6, "cluster_id": 6, "rank_in_cluster": 6}

>  <energy>  (80) 
-8.64

>  <cluster_rmsd>  (80) 
0.94

>  <cluster>  (80) 
2

$$$$

     RDKit          3D

 51 54  0  0  0  0  0  0  0  0999 V2000
  141.2410   71.6660  221.4940 O   0  0  0  0  0  0  0  0  0  0  0  0
  140.5680   72.1690  222.4440 C   0  0  0  0  0  0  0  0  0  0  0  0
  140.0420   73.4840  222.2980 N   0  0  0  0  0  0  0  0  0  0  0  0
  140.3050   74.1810  221.0700 C   0  0  0  0  0  0  0  0  0  0  0  0
  140.9060   75.5090  221.3420 C   0  0  0  0  0  0  0  0  0  0  0  0
  140.7100   76.1550  222.4080 O   0  0  0  0  0  0  0  0  0  0  0  0
  141.7530   76.1230  220.3780 N   0  0  0  0  0  0  0  0  0  0  0  0
  142.0080   77.5490  220.4530 C   0  0  0  0  0  0  0  0  0  0  0  0
  141.4530   78.1590  219.1700 C   0  0  0  0  0  0  0  0  0  0  0  0
  141.9360   77.3930  217.9580 C   0  0  0  0  0  0  0  0  0  0  0  0
  143.0230   76.4330  218.3830 C   0  0  0  0  0  0  0  0  0  0  0  0
  142.3910   75.3910  219.3000 C   0  0  1  0  0  0  0  0  0  0  0  0
  143.4340   74.4470  219.7750 C   0  0  0  0  0  0  0  0  0  0  0  0
  144.5780   74.8930  220.4320 C   0  0  0  0  0  0  0  0  0  0  0  0
  145.5470   74.0150  220.8720 C   0  0  0  0  0  0  0  0  0  0  0  0
  145.4050   72.6500  220.6710 C   0  0  0  0  0  0  0  0  0  0  0  0
  144.2670   72.1860  220.0140 C   0  0  0  0  0  0  0  0  0  0  0  0
  144.0270   70.3020  219.7120 Br  0  0  0  0  0  0  0  0  0  0  0  0
  143.2940   73.0900  219.5740 C   0  0  0  0  0  0  0  0  0  0  0  0
  140.3280   71.4190  223.6750 C   0  0  0  0  0  0  0  0  0  0  0  0
  139.6580   70.2180  223.6030 C   0  0  0  0  0  0  0  0  0  0  0  0
  139.3950   69.4550  224.7210 C   0  0  0  0  0  0  0  0  0  0  0  0
  139.8240   69.9210  225.9470 C   0  0  0  0  0  0  0  0  0  0  0  0
  139.5790   69.1840  227.0950 C   0  0  0  0  0  0  0  0  0  0  0  0
  140.0160   69.6690  228.3000 C   0  0  0  0  0  0  0  0  0  0  0  0
  140.6890   70.8810  228.3450 C   0  0  0  0  0  0  0  0  0  0  0  0
  140.9320   71.6180  227.1910 C   0  0  0  0  0  0  0  0  0  0  0  0
  140.4930   71.1300  225.9770 C   0  0  0  0  0  0  0  0  0  0  0  0
  140.7420   71.8630  224.8800 N   0  0  0  0  0  0  0  0  0  0  0  0
  139.4820   73.9040  223.0870 H   0  0  0  0  0  0  0  0  0  0  0  0
  141.0012   73.5874  220.4593 H   0  0  0  0  0  0  0  0  0  0  0  0
  139.3555   74.3246  220.5334 H   0  0  0  0  0  0  0  0  0  0  0  0
  141.5003   77.9798  221.3286 H   0  0  0  0  0  0  0  0  0  0  0  0
  143.0836   77.7547  220.5571 H   0  0  0  0  0  0  0  0  0  0  0  0
  140.3539   78.1277  219.2019 H   0  0  0  0  0  0  0  0  0  0  0  0
  141.8045   79.1985  219.0931 H   0  0  0  0  0  0  0  0  0  0  0  0
  141.0985   76.8308  217.5193 H   0  0  0  0  0  0  0  0  0  0  0  0
  142.3321   78.0944  217.2089 H   0  0  0  0  0  0  0  0  0  0  0  0
  143.4547   75.9411  217.4989 H   0  0  0  0  0  0  0  0  0  0  0  0
  143.8269   76.9701  218.9076 H   0  0  0  0  0  0  0  0  0  0  0  0
  141.6372   74.7765  218.7860 H   0  0  0  0  0  0  0  0  0  0  0  0
  144.7123   75.9711  220.6043 H   0  0  0  0  0  0  0  0  0  0  0  0
  146.4395   74.4007  221.3864 H   0  0  0  0  0  0  0  0  0  0  0  0
  146.1751   71.9479  221.0231 H   0  0  0  0  0  0  0  0  0  0  0  0
  142.3998   72.7108  219.0576 H   0  0  0  0  0  0  0  0  0  0  0  0
  139.3214   69.8552  222.6206 H   0  0  0  0  0  0  0  0  0  0  0  0
  138.8569   68.4992  224.6377 H   0  0  0  0  0  0  0  0  0  0  0  0
  139.0425   68.2253  227.0398 H   0  0  0  0  0  0  0  0  0  0  0  0
  139.8344   69.1014  229.2246 H   0  0  0  0  0  0  0  0  0  0  0  0
  141.0379   71.2674  229.3140 H   0  0  0  0  0  0  0  0  0  0  0  0
  141.4672   72.5775  227.2451 H   0  0  0  0  0  0  0  0  0  0  0  0
  1  2  2  0
  2  3  1  0
  3  4  1  0
  4  5  1  0
  5  6  2  0
  5  7  1  0
  7  8  1  0
  8  9  1  0
  9 10  1  0
 10 11  1  0
 11 12  1  0
 12 13  1  0
 13 14  2  0
 14 15  1  0
 15 16  2  0
 16 17  1  0
 17 18  1  0
 17 19  2  0
  2 20  1  0
 20 21  2  0
 21 22  1  0
 22 23  2  0
 23 24  1  0
 24 25  2  0
 25 26  1  0
 26 27  2  0
 27 28  1  0
 28 29  2  0
 12  7  1  0
 19 13  1  0
 29 20  1  0
 28 23  1  0
  3 30  1  0
  4 31  1  0
  4 32  1  0
  8 33  1  0
  8 34  1  0
  9 35  1  0
  9 36  1  0
 10 37  1  0
 10 38  1  0
 11 39  1  0
 11 40  1  0
 12 41  1  6
 14 42  1  0
 15 43  1  0
 16 44  1  0
 19 45  1  0
 21 46  1  0
 22 47  1  0
 24 48  1  0
 25 49  1  0
 26 50  1  0
 27 51  1  0
M  END
>  <smiles>  (81) 
O=C(NCC(=O)N1CCCCC1c1cccc(Br)c1)c1ccc2ccccc2n1

>  <score_type>  (81) 
oracle

>  <origin>  (81) 
autodockgpu

>  <m_score__min__energy>  (81) 
-9.4100000000000001

>  <m_primary>  (81) 
energy

>  <rmsd>  (81) 
2.4006539392483357

>  <m_score__min__rmsd>  (81) 
2.4006539392483357

>  <meeko>  (81) 
{"free_energy": -9.22, "intermolecular_energy": -10.71, "internal_energy": -2.0, "cluster_size": 25, "cluster_id": 2, "rank_in_cluster": 1}

>  <energy>  (81) 
-8.63

>  <cluster_rmsd>  (81) 
1.05

>  <cluster>  (81) 
2

$$$$

     RDKit          3D

 51 54  0  0  0  0  0  0  0  0999 V2000
  141.0440   71.4730  221.4330 O   0  0  0  0  0  0  0  0  0  0  0  0
  140.4660   72.0130  222.4250 C   0  0  0  0  0  0  0  0  0  0  0  0
  140.0460   73.3700  222.3250 N   0  0  0  0  0  0  0  0  0  0  0  0
  140.3010   74.0650  221.0940 C   0  0  0  0  0  0  0  0  0  0  0  0
  140.7010   75.4680  221.3610 C   0  0  0  0  0  0  0  0  0  0  0  0
  140.3020   76.1260  222.3610 O   0  0  0  0  0  0  0  0  0  0  0  0
  141.5770   76.1440  220.4670 N   0  0  0  0  0  0  0  0  0  0  0  0
  141.8250   77.5620  220.6450 C   0  0  0  0  0  0  0  0  0  0  0  0
  141.3110   78.2560  219.3890 C   0  0  0  0  0  0  0  0  0  0  0  0
  141.8350   77.5720  218.1450 C   0  0  0  0  0  0  0  0  0  0  0  0
  142.9110   76.5880  218.5400 C   0  0  0  0  0  0  0  0  0  0  0  0
  142.2510   75.4860  219.3650 C   0  0  1  0  0  0  0  0  0  0  0  0
  143.2810   74.5140  219.8100 C   0  0  0  0  0  0  0  0  0  0  0  0
  144.4470   74.9250  220.4500 C   0  0  0  0  0  0  0  0  0  0  0  0
  145.4030   74.0200  220.8630 C   0  0  0  0  0  0  0  0  0  0  0  0
  145.2260   72.6620  220.6490 C   0  0  0  0  0  0  0  0  0  0  0  0
  144.0660   72.2310  220.0080 C   0  0  0  0  0  0  0  0  0  0  0  0
  143.7780   70.3570  219.6890 Br  0  0  0  0  0  0  0  0  0  0  0  0
  143.1070   73.1620  219.5960 C   0  0  0  0  0  0  0  0  0  0  0  0
  140.2300   71.2630  223.6570 C   0  0  0  0  0  0  0  0  0  0  0  0
  139.5700   70.0570  223.5850 C   0  0  0  0  0  0  0  0  0  0  0  0
  139.3100   69.2930  224.7040 C   0  0  0  0  0  0  0  0  0  0  0  0
  139.7320   69.7660  225.9300 C   0  0  0  0  0  0  0  0  0  0  0  0
  139.4900   69.0280  227.0780 C   0  0  0  0  0  0  0  0  0  0  0  0
  139.9190   69.5200  228.2840 C   0  0  0  0  0  0  0  0  0  0  0  0
  140.5810   70.7380  228.3290 C   0  0  0  0  0  0  0  0  0  0  0  0
  140.8220   71.4740  227.1740 C   0  0  0  0  0  0  0  0  0  0  0  0
  140.3900   70.9800  225.9600 C   0  0  0  0  0  0  0  0  0  0  0  0
  140.6360   71.7130  224.8620 N   0  0  0  0  0  0  0  0  0  0  0  0
  139.5660   73.8200  223.1490 H   0  0  0  0  0  0  0  0  0  0  0  0
  141.1108   73.5550  220.5517 H   0  0  0  0  0  0  0  0  0  0  0  0
  139.3815   74.0667  220.4902 H   0  0  0  0  0  0  0  0  0  0  0  0
  141.2876   77.9329  221.5303 H   0  0  0  0  0  0  0  0  0  0  0  0
  142.8961   77.7609  220.7976 H   0  0  0  0  0  0  0  0  0  0  0  0
  140.2115   78.2229  219.3829 H   0  0  0  0  0  0  0  0  0  0  0  0
  141.6624   79.2983  219.3930 H   0  0  0  0  0  0  0  0  0  0  0  0
  141.0137   77.0387  217.6438 H   0  0  0  0  0  0  0  0  0  0  0  0
  142.2522   78.3219  217.4568 H   0  0  0  0  0  0  0  0  0  0  0  0
  143.3730   76.1565  217.6398 H   0  0  0  0  0  0  0  0  0  0  0  0
  143.6963   77.0895  219.1246 H   0  0  0  0  0  0  0  0  0  0  0  0
  141.5157   74.9067  218.7873 H   0  0  0  0  0  0  0  0  0  0  0  0
  144.6101   75.9977  220.6309 H   0  0  0  0  0  0  0  0  0  0  0  0
  146.3129   74.3790  221.3661 H   0  0  0  0  0  0  0  0  0  0  0  0
  145.9863   71.9386  220.9787 H   0  0  0  0  0  0  0  0  0  0  0  0
  142.1956   72.8093  219.0911 H   0  0  0  0  0  0  0  0  0  0  0  0
  139.2388   69.6902  222.6023 H   0  0  0  0  0  0  0  0  0  0  0  0
  138.7804   68.3324  224.6212 H   0  0  0  0  0  0  0  0  0  0  0  0
  138.9628   68.0641  227.0227 H   0  0  0  0  0  0  0  0  0  0  0  0
  139.7394   68.9527  229.2091 H   0  0  0  0  0  0  0  0  0  0  0  0
  140.9224   71.1299  229.2984 H   0  0  0  0  0  0  0  0  0  0  0  0
  141.3501   72.4374  227.2273 H   0  0  0  0  0  0  0  0  0  0  0  0
  1  2  2  0
  2  3  1  0
  3  4  1  0
  4  5  1  0
  5  6  2  0
  5  7  1  0
  7  8  1  0
  8  9  1  0
  9 10  1  0
 10 11  1  0
 11 12  1  0
 12 13  1  0
 13 14  2  0
 14 15  1  0
 15 16  2  0
 16 17  1  0
 17 18  1  0
 17 19  2  0
  2 20  1  0
 20 21  2  0
 21 22  1  0
 22 23  2  0
 23 24  1  0
 24 25  2  0
 25 26  1  0
 26 27  2  0
 27 28  1  0
 28 29  2  0
 12  7  1  0
 19 13  1  0
 29 20  1  0
 28 23  1  0
  3 30  1  0
  4 31  1  0
  4 32  1  0
  8 33  1  0
  8 34  1  0
  9 35  1  0
  9 36  1  0
 10 37  1  0
 10 38  1  0
 11 39  1  0
 11 40  1  0
 12 41  1  6
 14 42  1  0
 15 43  1  0
 16 44  1  0
 19 45  1  0
 21 46  1  0
 22 47  1  0
 24 48  1  0
 25 49  1  0
 26 50  1  0
 27 51  1  0
M  END
>  <smiles>  (82) 
O=C(NCC(=O)N1CCCCC1c1cccc(Br)c1)c1ccc2ccccc2n1

>  <score_type>  (82) 
oracle

>  <origin>  (82) 
autodockgpu

>  <m_score__min__energy>  (82) 
-9.4100000000000001

>  <m_primary>  (82) 
energy

>  <rmsd>  (82) 
2.353538074763469

>  <m_score__min__rmsd>  (82) 
2.353538074763469

>  <meeko>  (82) 
{"free_energy": -9.14, "intermolecular_energy": -10.63, "internal_energy": -2.04, "cluster_size": 25, "cluster_id": 2, "rank_in_cluster": 12}

>  <energy>  (82) 
-9.19

>  <cluster_rmsd>  (82) 
0.0

>  <cluster>  (82) 
3

$$$$

     RDKit          3D

 51 54  0  0  0  0  0  0  0  0999 V2000
  140.6020   71.6260  221.3100 O   0  0  0  0  0  0  0  0  0  0  0  0
  140.1520   72.1630  222.3680 C   0  0  0  0  0  0  0  0  0  0  0  0
  139.6690   73.5010  222.3120 N   0  0  0  0  0  0  0  0  0  0  0  0
  139.7160   74.1810  221.0470 C   0  0  0  0  0  0  0  0  0  0  0  0
  141.0960   74.6350  220.7500 C   0  0  0  0  0  0  0  0  0  0  0  0
  142.1270   74.0820  221.2230 O   0  0  0  0  0  0  0  0  0  0  0  0
  141.3140   75.7490  219.8930 N   0  0  0  0  0  0  0  0  0  0  0  0
  140.7410   75.7490  218.5600 C   0  0  0  0  0  0  0  0  0  0  0  0
  141.9100   75.7920  217.5830 C   0  0  0  0  0  0  0  0  0  0  0  0
  142.8850   76.8860  217.9590 C   0  0  0  0  0  0  0  0  0  0  0  0
  142.2600   77.7580  219.0230 C   0  0  0  0  0  0  0  0  0  0  0  0
  142.0920   76.9100  220.2800 C   0  0  1  0  0  0  0  0  0  0  0  0
  141.4430   77.7180  221.3420 C   0  0  0  0  0  0  0  0  0  0  0  0
  140.1260   77.4900  221.7320 C   0  0  0  0  0  0  0  0  0  0  0  0
  139.5240   78.2420  222.7200 C   0  0  0  0  0  0  0  0  0  0  0  0
  140.2220   79.2550  223.3580 C   0  0  0  0  0  0  0  0  0  0  0  0
  141.5420   79.4990  222.9810 C   0  0  0  0  0  0  0  0  0  0  0  0
  142.5500   80.8940  223.8380 Br  0  0  0  0  0  0  0  0  0  0  0  0
  142.1370   78.7270  221.9770 C   0  0  0  0  0  0  0  0  0  0  0  0
  140.1260   71.4290  223.6310 C   0  0  0  0  0  0  0  0  0  0  0  0
  139.5730   70.1680  223.6570 C   0  0  0  0  0  0  0  0  0  0  0  0
  139.5120   69.4160  224.8110 C   0  0  0  0  0  0  0  0  0  0  0  0
  140.0280   69.9560  225.9720 C   0  0  0  0  0  0  0  0  0  0  0  0
  139.9860   69.2310  227.1530 C   0  0  0  0  0  0  0  0  0  0  0  0
  140.5040   69.7900  228.2920 C   0  0  0  0  0  0  0  0  0  0  0  0
  141.0560   71.0620  228.2390 C   0  0  0  0  0  0  0  0  0  0  0  0
  141.0960   71.7850  227.0520 C   0  0  0  0  0  0  0  0  0  0  0  0
  140.5740   71.2230  225.9040 C   0  0  0  0  0  0  0  0  0  0  0  0
  140.6270   71.9450  224.7740 N   0  0  0  0  0  0  0  0  0  0  0  0
  139.2950   73.9490  223.1900 H   0  0  0  0  0  0  0  0  0  0  0  0
  139.3829   73.4944  220.2548 H   0  0  0  0  0  0  0  0  0  0  0  0
  139.0554   75.0594  221.0916 H   0  0  0  0  0  0  0  0  0  0  0  0
  140.1478   74.8363  218.4020 H   0  0  0  0  0  0  0  0  0  0  0  0
  140.0720   76.6102  218.4160 H   0  0  0  0  0  0  0  0  0  0  0  0
  142.4307   74.8232  217.6009 H   0  0  0  0  0  0  0  0  0  0  0  0
  141.5198   75.9987  216.5755 H   0  0  0  0  0  0  0  0  0  0  0  0
  143.8111   76.4371  218.3473 H   0  0  0  0  0  0  0  0  0  0  0  0
  143.1219   77.4932  217.0729 H   0  0  0  0  0  0  0  0  0  0  0  0
  142.9141   78.6166  219.2352 H   0  0  0  0  0  0  0  0  0  0  0  0
  141.2859   78.1403  218.6838 H   0  0  0  0  0  0  0  0  0  0  0  0
  143.0534   76.5763  220.6975 H   0  0  0  0  0  0  0  0  0  0  0  0
  139.5515   76.6910  221.2406 H   0  0  0  0  0  0  0  0  0  0  0  0
  138.4814   78.0357  223.0035 H   0  0  0  0  0  0  0  0  0  0  0  0
  139.7440   79.8549  224.1465 H   0  0  0  0  0  0  0  0  0  0  0  0
  143.1791   78.9288  221.6883 H   0  0  0  0  0  0  0  0  0  0  0  0
  139.1663   69.7466  222.7258 H   0  0  0  0  0  0  0  0  0  0  0  0
  139.0637   68.4115  224.8067 H   0  0  0  0  0  0  0  0  0  0  0  0
  139.5442   68.2239  227.1754 H   0  0  0  0  0  0  0  0  0  0  0  0
  140.4824   69.2345  229.2412 H   0  0  0  0  0  0  0  0  0  0  0  0
  141.4706   71.5077  229.1552 H   0  0  0  0  0  0  0  0  0  0  0  0
  141.5379   72.7920  227.0279 H   0  0  0  0  0  0  0  0  0  0  0  0
  1  2  2  0
  2  3  1  0
  3  4  1  0
  4  5  1  0
  5  6  2  0
  5  7  1  0
  7  8  1  0
  8  9  1  0
  9 10  1  0
 10 11  1  0
 11 12  1  0
 12 13  1  0
 13 14  2  0
 14 15  1  0
 15 16  2  0
 16 17  1  0
 17 18  1  0
 17 19  2  0
  2 20  1  0
 20 21  2  0
 21 22  1  0
 22 23  2  0
 23 24  1  0
 24 25  2  0
 25 26  1  0
 26 27  2  0
 27 28  1  0
 28 29  2  0
 12  7  1  0
 19 13  1  0
 29 20  1  0
 28 23  1  0
  3 30  1  0
  4 31  1  0
  4 32  1  0
  8 33  1  0
  8 34  1  0
  9 35  1  0
  9 36  1  0
 10 37  1  0
 10 38  1  0
 11 39  1  0
 11 40  1  0
 12 41  1  1
 14 42  1  0
 15 43  1  0
 16 44  1  0
 19 45  1  0
 21 46  1  0
 22 47  1  0
 24 48  1  0
 25 49  1  0
 26 50  1  0
 27 51  1  0
M  END
>  <smiles>  (83) 
O=C(NCC(=O)N1CCCCC1c1cccc(Br)c1)c1ccc2ccccc2n1

>  <score_type>  (83) 
oracle

>  <origin>  (83) 
autodockgpu

>  <m_score__min__energy>  (83) 
-9.4100000000000001

>  <m_primary>  (83) 
energy

>  <rmsd>  (83) 
1.5273878164193642

>  <m_score__min__rmsd>  (83) 
1.5273878164193642

>  <meeko>  (83) 
{"free_energy": -9.29, "intermolecular_energy": -10.78, "internal_energy": -1.43, "cluster_size": 6, "cluster_id": 1, "rank_in_cluster": 3}

>  <energy>  (83) 
-9.18

>  <cluster_rmsd>  (83) 
1.3

>  <cluster>  (83) 
3

$$$$

     RDKit          3D

 51 54  0  0  0  0  0  0  0  0999 V2000
  140.8840   77.1340  217.9680 O   0  0  0  0  0  0  0  0  0  0  0  0
  141.9620   77.1210  218.6380 C   0  0  0  0  0  0  0  0  0  0  0  0
  142.4190   78.3310  219.2340 N   0  0  0  0  0  0  0  0  0  0  0  0
  141.6290   79.5150  219.0440 C   0  0  0  0  0  0  0  0  0  0  0  0
  140.5420   79.5850  220.0510 C   0  0  0  0  0  0  0  0  0  0  0  0
  139.3260   79.7400  219.7510 O   0  0  0  0  0  0  0  0  0  0  0  0
  140.8420   79.4740  221.4370 N   0  0  0  0  0  0  0  0  0  0  0  0
  140.5100   80.5680  222.3300 C   0  0  0  0  0  0  0  0  0  0  0  0
  141.8270   81.0730  222.9080 C   0  0  0  0  0  0  0  0  0  0  0  0
  142.6580   79.9240  223.4360 C   0  0  0  0  0  0  0  0  0  0  0  0
  141.8090   78.6750  223.4650 C   0  0  0  0  0  0  0  0  0  0  0  0
  141.4730   78.3080  222.0230 C   0  0  1  0  0  0  0  0  0  0  0  0
  140.6040   77.1050  222.0050 C   0  0  0  0  0  0  0  0  0  0  0  0
  139.2490   77.1770  222.3170 C   0  0  0  0  0  0  0  0  0  0  0  0
  138.4420   76.0580  222.3000 C   0  0  0  0  0  0  0  0  0  0  0  0
  138.9650   74.8170  221.9680 C   0  0  0  0  0  0  0  0  0  0  0  0
  140.3200   74.7250  221.6550 C   0  0  0  0  0  0  0  0  0  0  0  0
  141.0900   73.0260  221.1890 Br  0  0  0  0  0  0  0  0  0  0  0  0
  141.1240   75.8700  221.6760 C   0  0  0  0  0  0  0  0  0  0  0  0
  142.7300   75.8900  218.8020 C   0  0  0  0  0  0  0  0  0  0  0  0
  142.4640   74.8240  217.9720 C   0  0  0  0  0  0  0  0  0  0  0  0
  143.1470   73.6290  218.0670 C   0  0  0  0  0  0  0  0  0  0  0  0
  144.1290   73.5130  219.0300 C   0  0  0  0  0  0  0  0  0  0  0  0
  144.8390   72.3290  219.1570 C   0  0  0  0  0  0  0  0  0  0  0  0
  145.8090   72.2390  220.1220 C   0  0  0  0  0  0  0  0  0  0  0  0
  146.0580   73.3280  220.9440 C   0  0  0  0  0  0  0  0  0  0  0  0
  145.3440   74.5130  220.8130 C   0  0  0  0  0  0  0  0  0  0  0  0
  144.3670   74.6050  219.8420 C   0  0  0  0  0  0  0  0  0  0  0  0
  143.6940   75.7620  219.7390 N   0  0  0  0  0  0  0  0  0  0  0  0
  143.3140   78.3220  219.7910 H   0  0  0  0  0  0  0  0  0  0  0  0
  142.2740   80.4002  219.1463 H   0  0  0  0  0  0  0  0  0  0  0  0
  141.1806   79.4846  218.0400 H   0  0  0  0  0  0  0  0  0  0  0  0
  140.0063   81.3724  221.7739 H   0  0  0  0  0  0  0  0  0  0  0  0
  139.8280   80.2367  223.1269 H   0  0  0  0  0  0  0  0  0  0  0  0
  142.3908   81.5934  222.1197 H   0  0  0  0  0  0  0  0  0  0  0  0
  141.6071   81.7598  223.7386 H   0  0  0  0  0  0  0  0  0  0  0  0
  143.5261   79.7646  222.7795 H   0  0  0  0  0  0  0  0  0  0  0  0
  143.0110   80.1568  224.4515 H   0  0  0  0  0  0  0  0  0  0  0  0
  142.3664   77.8543  223.9402 H   0  0  0  0  0  0  0  0  0  0  0  0
  140.8889   78.8483  224.0424 H   0  0  0  0  0  0  0  0  0  0  0  0
  142.3646   78.0469  221.4340 H   0  0  0  0  0  0  0  0  0  0  0  0
  138.8110   78.1502  222.5837 H   0  0  0  0  0  0  0  0  0  0  0  0
  137.3752   76.1508  222.5518 H   0  0  0  0  0  0  0  0  0  0  0  0
  138.3234   73.9236  221.9521 H   0  0  0  0  0  0  0  0  0  0  0  0
  142.1916   75.7839  221.4253 H   0  0  0  0  0  0  0  0  0  0  0  0
  141.6803   74.9287  217.2072 H   0  0  0  0  0  0  0  0  0  0  0  0
  142.9151   72.7910  217.3932 H   0  0  0  0  0  0  0  0  0  0  0  0
  144.6278   71.4763  218.4949 H   0  0  0  0  0  0  0  0  0  0  0  0
  146.3854   71.3100  220.2433 H   0  0  0  0  0  0  0  0  0  0  0  0
  146.8375   73.2521  221.7164 H   0  0  0  0  0  0  0  0  0  0  0  0
  145.5545   75.3664  221.4743 H   0  0  0  0  0  0  0  0  0  0  0  0
  1  2  2  0
  2  3  1  0
  3  4  1  0
  4  5  1  0
  5  6  2  0
  5  7  1  0
  7  8  1  0
  8  9  1  0
  9 10  1  0
 10 11  1  0
 11 12  1  0
 12 13  1  0
 13 14  2  0
 14 15  1  0
 15 16  2  0
 16 17  1  0
 17 18  1  0
 17 19  2  0
  2 20  1  0
 20 21  2  0
 21 22  1  0
 22 23  2  0
 23 24  1  0
 24 25  2  0
 25 26  1  0
 26 27  2  0
 27 28  1  0
 28 29  2  0
 12  7  1  0
 19 13  1  0
 29 20  1  0
 28 23  1  0
  3 30  1  0
  4 31  1  0
  4 32  1  0
  8 33  1  0
  8 34  1  0
  9 35  1  0
  9 36  1  0
 10 37  1  0
 10 38  1  0
 11 39  1  0
 11 40  1  0
 12 41  1  6
 14 42  1  0
 15 43  1  0
 16 44  1  0
 19 45  1  0
 21 46  1  0
 22 47  1  0
 24 48  1  0
 25 49  1  0
 26 50  1  0
 27 51  1  0
M  END
>  <smiles>  (84) 
O=C(NCC(=O)N1CCCCC1c1cccc(Br)c1)c1ccc2ccccc2n1

>  <score_type>  (84) 
oracle

>  <origin>  (84) 
autodockgpu

>  <m_score__min__energy>  (84) 
-9.4100000000000001

>  <m_primary>  (84) 
energy

>  <rmsd>  (84) 
7.545322143650884

>  <m_score__min__rmsd>  (84) 
7.545322143650884

>  <meeko>  (84) 
{"free_energy": -7.53, "intermolecular_energy": -9.02, "internal_energy": -3.04, "cluster_size": 3, "cluster_id": 8, "rank_in_cluster": 3}

>  <energy>  (84) 
-9.17

>  <cluster_rmsd>  (84) 
0.16

>  <cluster>  (84) 
3

$$$$

     RDKit          3D

 51 54  0  0  0  0  0  0  0  0999 V2000
  140.8760   71.5270  221.3410 O   0  0  0  0  0  0  0  0  0  0  0  0
  140.3550   72.0690  222.3640 C   0  0  0  0  0  0  0  0  0  0  0  0
  139.9280   73.4250  222.2840 N   0  0  0  0  0  0  0  0  0  0  0  0
  140.1110   74.1160  221.0380 C   0  0  0  0  0  0  0  0  0  0  0  0
  140.7780   75.4230  221.2600 C   0  0  0  0  0  0  0  0  0  0  0  0
  140.6640   76.0890  222.3260 O   0  0  0  0  0  0  0  0  0  0  0  0
  141.5970   75.9890  220.2440 N   0  0  0  0  0  0  0  0  0  0  0  0
  142.1190   77.3320  220.4120 C   0  0  0  0  0  0  0  0  0  0  0  0
  141.5320   78.1720  219.2830 C   0  0  0  0  0  0  0  0  0  0  0  0
  141.7090   77.4800  217.9500 C   0  0  0  0  0  0  0  0  0  0  0  0
  142.6440   76.3060  218.1250 C   0  0  0  0  0  0  0  0  0  0  0  0
  141.9490   75.2890  219.0240 C   0  0  1  0  0  0  0  0  0  0  0  0
  142.8500   74.1320  219.2560 C   0  0  0  0  0  0  0  0  0  0  0  0
  142.6440   72.9070  218.6260 C   0  0  0  0  0  0  0  0  0  0  0  0
  143.4820   71.8330  218.8430 C   0  0  0  0  0  0  0  0  0  0  0  0
  144.5640   71.9450  219.7030 C   0  0  0  0  0  0  0  0  0  0  0  0
  144.7850   73.1630  220.3440 C   0  0  0  0  0  0  0  0  0  0  0  0
  146.2730   73.3660  221.5460 Br  0  0  0  0  0  0  0  0  0  0  0  0
  143.9260   74.2430  220.1130 C   0  0  0  0  0  0  0  0  0  0  0  0
  140.1910   71.3230  223.6090 C   0  0  0  0  0  0  0  0  0  0  0  0
  139.6130   70.0740  223.5650 C   0  0  0  0  0  0  0  0  0  0  0  0
  139.4240   69.3110  224.6980 C   0  0  0  0  0  0  0  0  0  0  0  0
  139.8350   69.8280  225.9100 C   0  0  0  0  0  0  0  0  0  0  0  0
  139.6630   69.0920  227.0730 C   0  0  0  0  0  0  0  0  0  0  0  0
  140.0800   69.6280  228.2630 C   0  0  0  0  0  0  0  0  0  0  0  0
  140.6600   70.8880  228.2800 C   0  0  0  0  0  0  0  0  0  0  0  0
  140.8300   71.6220  227.1110 C   0  0  0  0  0  0  0  0  0  0  0  0
  140.4110   71.0830  225.9120 C   0  0  0  0  0  0  0  0  0  0  0  0
  140.5880   71.8160  224.8010 N   0  0  0  0  0  0  0  0  0  0  0  0
  139.4950   73.8780  223.1330 H   0  0  0  0  0  0  0  0  0  0  0  0
  140.7332   73.5010  220.3713 H   0  0  0  0  0  0  0  0  0  0  0  0
  139.1257   74.2930  220.5820 H   0  0  0  0  0  0  0  0  0  0  0  0
  141.8125   77.7391  221.3868 H   0  0  0  0  0  0  0  0  0  0  0  0
  143.2185   77.3371  220.3798 H   0  0  0  0  0  0  0  0  0  0  0  0
  140.4590   78.3268  219.4692 H   0  0  0  0  0  0  0  0  0  0  0  0
  142.0586   79.1372  219.2516 H   0  0  0  0  0  0  0  0  0  0  0  0
  140.7336   77.1237  217.5872 H   0  0  0  0  0  0  0  0  0  0  0  0
  142.1309   78.1850  217.2186 H   0  0  0  0  0  0  0  0  0  0  0  0
  142.8635   75.8530  217.1469 H   0  0  0  0  0  0  0  0  0  0  0  0
  143.5927   76.6332  218.5755 H   0  0  0  0  0  0  0  0  0  0  0  0
  141.0361   74.8766  218.5695 H   0  0  0  0  0  0  0  0  0  0  0  0
  141.7926   72.7932  217.9389 H   0  0  0  0  0  0  0  0  0  0  0  0
  143.2903   70.8794  218.3293 H   0  0  0  0  0  0  0  0  0  0  0  0
  145.2343   71.0901  219.8759 H   0  0  0  0  0  0  0  0  0  0  0  0
  144.1119   75.1990  220.6244 H   0  0  0  0  0  0  0  0  0  0  0  0
  139.2912   69.6713  222.5933 H   0  0  0  0  0  0  0  0  0  0  0  0
  138.9579   68.3165  224.6375 H   0  0  0  0  0  0  0  0  0  0  0  0
  139.1996   68.0949  227.0405 H   0  0  0  0  0  0  0  0  0  0  0  0
  139.9557   69.0630  229.1986 H   0  0  0  0  0  0  0  0  0  0  0  0
  140.9922   71.3153  229.2376 H   0  0  0  0  0  0  0  0  0  0  0  0
  141.2926   72.6195  227.1419 H   0  0  0  0  0  0  0  0  0  0  0  0
  1  2  2  0
  2  3  1  0
  3  4  1  0
  4  5  1  0
  5  6  2  0
  5  7  1  0
  7  8  1  0
  8  9  1  0
  9 10  1  0
 10 11  1  0
 11 12  1  0
 12 13  1  0
 13 14  2  0
 14 15  1  0
 15 16  2  0
 16 17  1  0
 17 18  1  0
 17 19  2  0
  2 20  1  0
 20 21  2  0
 21 22  1  0
 22 23  2  0
 23 24  1  0
 24 25  2  0
 25 26  1  0
 26 27  2  0
 27 28  1  0
 28 29  2  0
 12  7  1  0
 19 13  1  0
 29 20  1  0
 28 23  1  0
  3 30  1  0
  4 31  1  0
  4 32  1  0
  8 33  1  0
  8 34  1  0
  9 35  1  0
  9 36  1  0
 10 37  1  0
 10 38  1  0
 11 39  1  0
 11 40  1  0
 12 41  1  6
 14 42  1  0
 15 43  1  0
 16 44  1  0
 19 45  1  0
 21 46  1  0
 22 47  1  0
 24 48  1  0
 25 49  1  0
 26 50  1  0
 27 51  1  0
M  END
>  <smiles>  (85) 
O=C(NCC(=O)N1CCCCC1c1cccc(Br)c1)c1ccc2ccccc2n1

>  <score_type>  (85) 
oracle

>  <origin>  (85) 
autodockgpu

>  <m_score__min__energy>  (85) 
-9.4100000000000001

>  <m_primary>  (85) 
energy

>  <rmsd>  (85) 
2.314959672771355

>  <m_score__min__rmsd>  (85) 
2.314959672771355

>  <meeko>  (85) 
{"free_energy": -8.89, "intermolecular_energy": -10.38, "internal_energy": -1.99, "cluster_size": 25, "cluster_id": 2, "rank_in_cluster": 20}

>  <energy>  (85) 
-9.16

>  <cluster_rmsd>  (85) 
0.15

>  <cluster>  (85) 
3

$$$$

     RDKit          3D

 51 54  0  0  0  0  0  0  0  0999 V2000
  140.0680   70.7220  221.4570 O   0  0  0  0  0  0  0  0  0  0  0  0
  139.9510   71.2850  222.5880 C   0  0  0  0  0  0  0  0  0  0  0  0
  139.8480   72.7040  222.6450 N   0  0  0  0  0  0  0  0  0  0  0  0
  139.8830   73.4320  221.4070 C   0  0  0  0  0  0  0  0  0  0  0  0
  141.0560   74.3390  221.3680 C   0  0  0  0  0  0  0  0  0  0  0  0
  141.0840   75.4640  221.9400 O   0  0  0  0  0  0  0  0  0  0  0  0
  142.2310   73.9610  220.6610 N   0  0  0  0  0  0  0  0  0  0  0  0
  142.3370   72.6210  220.1160 C   0  0  0  0  0  0  0  0  0  0  0  0
  143.5170   71.9570  220.8170 C   0  0  0  0  0  0  0  0  0  0  0  0
  144.7330   72.8560  220.7910 C   0  0  0  0  0  0  0  0  0  0  0  0
  144.4730   74.0090  219.8500 C   0  0  0  0  0  0  0  0  0  0  0  0
  143.3530   74.8540  220.4490 C   0  0  1  0  0  0  0  0  0  0  0  0
  143.0370   75.9800  219.5360 C   0  0  0  0  0  0  0  0  0  0  0  0
  142.4590   77.1590  220.0020 C   0  0  0  0  0  0  0  0  0  0  0  0
  142.1650   78.2050  219.1510 C   0  0  0  0  0  0  0  0  0  0  0  0
  142.4400   78.1100  217.7960 C   0  0  0  0  0  0  0  0  0  0  0  0
  143.0170   76.9380  217.3110 C   0  0  0  0  0  0  0  0  0  0  0  0
  143.4160   76.7600  215.4380 Br  0  0  0  0  0  0  0  0  0  0  0  0
  143.3090   75.8860  218.1870 C   0  0  0  0  0  0  0  0  0  0  0  0
  139.9200   70.5010  223.8200 C   0  0  0  0  0  0  0  0  0  0  0  0
  139.2760   69.2840  223.8180 C   0  0  0  0  0  0  0  0  0  0  0  0
  139.2050   68.4870  224.9410 C   0  0  0  0  0  0  0  0  0  0  0  0
  139.8060   68.9370  226.1000 C   0  0  0  0  0  0  0  0  0  0  0  0
  139.7570   68.1650  227.2510 C   0  0  0  0  0  0  0  0  0  0  0  0
  140.3610   68.6350  228.3880 C   0  0  0  0  0  0  0  0  0  0  0  0
  141.0040   69.8640  228.3640 C   0  0  0  0  0  0  0  0  0  0  0  0
  141.0500   70.6340  227.2070 C   0  0  0  0  0  0  0  0  0  0  0  0
  140.4420   70.1620  226.0610 C   0  0  0  0  0  0  0  0  0  0  0  0
  140.5030   70.9270  224.9600 N   0  0  0  0  0  0  0  0  0  0  0  0
  139.7510   73.1750  223.5840 H   0  0  0  0  0  0  0  0  0  0  0  0
  139.9483   72.7203  220.5708 H   0  0  0  0  0  0  0  0  0  0  0  0
  138.9662   74.0340  221.3234 H   0  0  0  0  0  0  0  0  0  0  0  0
  141.4130   72.0574  220.3123 H   0  0  0  0  0  0  0  0  0  0  0  0
  142.4866   72.6468  219.0265 H   0  0  0  0  0  0  0  0  0  0  0  0
  143.2448   71.7489  221.8623 H   0  0  0  0  0  0  0  0  0  0  0  0
  143.7588   71.0219  220.2906 H   0  0  0  0  0  0  0  0  0  0  0  0
  144.9277   73.2422  221.8024 H   0  0  0  0  0  0  0  0  0  0  0  0
  145.6088   72.2862  220.4471 H   0  0  0  0  0  0  0  0  0  0  0  0
  145.3835   74.6166  219.7416 H   0  0  0  0  0  0  0  0  0  0  0  0
  144.1849   73.6370  218.8557 H   0  0  0  0  0  0  0  0  0  0  0  0
  143.6346   75.3118  221.4088 H   0  0  0  0  0  0  0  0  0  0  0  0
  142.2316   77.2585  221.0736 H   0  0  0  0  0  0  0  0  0  0  0  0
  141.7084   79.1221  219.5517 H   0  0  0  0  0  0  0  0  0  0  0  0
  142.2074   78.9434  217.1168 H   0  0  0  0  0  0  0  0  0  0  0  0
  143.7645   74.9660  217.7917 H   0  0  0  0  0  0  0  0  0  0  0  0
  138.8019   68.9356  222.8886 H   0  0  0  0  0  0  0  0  0  0  0  0
  138.6836   67.5188  224.9143 H   0  0  0  0  0  0  0  0  0  0  0  0
  139.2425   67.1927  227.2514 H   0  0  0  0  0  0  0  0  0  0  0  0
  140.3360   68.0414  229.3138 H   0  0  0  0  0  0  0  0  0  0  0  0
  141.4874   70.2371  229.2790 H   0  0  0  0  0  0  0  0  0  0  0  0
  141.5641   71.6065  227.2049 H   0  0  0  0  0  0  0  0  0  0  0  0
  1  2  2  0
  2  3  1  0
  3  4  1  0
  4  5  1  0
  5  6  2  0
  5  7  1  0
  7  8  1  0
  8  9  1  0
  9 10  1  0
 10 11  1  0
 11 12  1  0
 12 13  1  0
 13 14  2  0
 14 15  1  0
 15 16  2  0
 16 17  1  0
 17 18  1  0
 17 19  2  0
  2 20  1  0
 20 21  2  0
 21 22  1  0
 22 23  2  0
 23 24  1  0
 24 25  2  0
 25 26  1  0
 26 27  2  0
 27 28  1  0
 28 29  2  0
 12  7  1  0
 19 13  1  0
 29 20  1  0
 28 23  1  0
  3 30  1  0
  4 31  1  0
  4 32  1  0
  8 33  1  0
  8 34  1  0
  9 35  1  0
  9 36  1  0
 10 37  1  0
 10 38  1  0
 11 39  1  0
 11 40  1  0
 12 41  1  1
 14 42  1  0
 15 43  1  0
 16 44  1  0
 19 45  1  0
 21 46  1  0
 22 47  1  0
 24 48  1  0
 25 49  1  0
 26 50  1  0
 27 51  1  0
M  END
>  <smiles>  (86) 
O=C(NCC(=O)N1CCCCC1c1cccc(Br)c1)c1ccc2ccccc2n1

>  <score_type>  (86) 
oracle

>  <origin>  (86) 
autodockgpu

>  <m_score__min__energy>  (86) 
-9.4100000000000001

>  <m_primary>  (86) 
energy

>  <rmsd>  (86) 
2.9533633443395706

>  <m_score__min__rmsd>  (86) 
2.9533633443395706

>  <meeko>  (86) 
{"free_energy": -8.66, "intermolecular_energy": -10.15, "internal_energy": -1.69, "cluster_size": 1, "cluster_id": 5, "rank_in_cluster": 1}

>  <energy>  (86) 
-9.13

>  <cluster_rmsd>  (86) 
0.28

>  <cluster>  (86) 
3

$$$$

     RDKit          3D

 51 54  0  0  0  0  0  0  0  0999 V2000
  141.2410   71.6460  221.4940 O   0  0  0  0  0  0  0  0  0  0  0  0
  140.5820   72.1700  222.4440 C   0  0  0  0  0  0  0  0  0  0  0  0
  140.1270   73.5120  222.3100 N   0  0  0  0  0  0  0  0  0  0  0  0
  140.4400   74.2110  221.0940 C   0  0  0  0  0  0  0  0  0  0  0  0
  140.6060   75.6620  221.3550 C   0  0  0  0  0  0  0  0  0  0  0  0
  140.0990   76.2520  222.3480 O   0  0  0  0  0  0  0  0  0  0  0  0
  141.3700   76.4660  220.4640 N   0  0  0  0  0  0  0  0  0  0  0  0
  141.8610   77.7570  220.9080 C   0  0  0  0  0  0  0  0  0  0  0  0
  141.2090   78.8030  220.0120 C   0  0  0  0  0  0  0  0  0  0  0  0
  141.3530   78.4280  218.5540 C   0  0  0  0  0  0  0  0  0  0  0  0
  142.3260   77.2780  218.4350 C   0  0  0  0  0  0  0  0  0  0  0  0
  141.6940   76.0640  219.1090 C   0  0  1  0  0  0  0  0  0  0  0  0
  142.6340   74.9170  219.0520 C   0  0  0  0  0  0  0  0  0  0  0  0
  142.5190   73.9250  218.0800 C   0  0  0  0  0  0  0  0  0  0  0  0
  143.3940   72.8590  218.0280 C   0  0  0  0  0  0  0  0  0  0  0  0
  144.4220   72.7460  218.9510 C   0  0  0  0  0  0  0  0  0  0  0  0
  144.5530   73.7280  219.9310 C   0  0  0  0  0  0  0  0  0  0  0  0
  145.9640   73.6130  221.2320 Br  0  0  0  0  0  0  0  0  0  0  0  0
  143.6570   74.8020  219.9700 C   0  0  0  0  0  0  0  0  0  0  0  0
  140.2890   71.4170  223.6610 C   0  0  0  0  0  0  0  0  0  0  0  0
  139.6200   70.2180  223.5570 C   0  0  0  0  0  0  0  0  0  0  0  0
  139.3080   69.4520  224.6610 C   0  0  0  0  0  0  0  0  0  0  0  0
  139.6860   69.9140  225.9050 C   0  0  0  0  0  0  0  0  0  0  0  0
  139.3920   69.1730  227.0390 C   0  0  0  0  0  0  0  0  0  0  0  0
  139.7780   69.6540  228.2630 C   0  0  0  0  0  0  0  0  0  0  0  0
  140.4520   70.8640  228.3400 C   0  0  0  0  0  0  0  0  0  0  0  0
  140.7450   71.6040  227.2000 C   0  0  0  0  0  0  0  0  0  0  0  0
  140.3560   71.1200  225.9670 C   0  0  0  0  0  0  0  0  0  0  0  0
  140.6530   71.8560  224.8840 N   0  0  0  0  0  0  0  0  0  0  0  0
  139.5800   73.9500  223.0980 H   0  0  0  0  0  0  0  0  0  0  0  0
  141.3750   73.8093  220.6763 H   0  0  0  0  0  0  0  0  0  0  0  0
  139.6142   74.0706  220.3811 H   0  0  0  0  0  0  0  0  0  0  0  0
  141.5809   77.9289  221.9578 H   0  0  0  0  0  0  0  0  0  0  0  0
  142.9579   77.8077  220.8432 H   0  0  0  0  0  0  0  0  0  0  0  0
  140.1402   78.8756  220.2616 H   0  0  0  0  0  0  0  0  0  0  0  0
  141.7081   79.7691  220.1780 H   0  0  0  0  0  0  0  0  0  0  0  0
  140.3744   78.1260  218.1526 H   0  0  0  0  0  0  0  0  0  0  0  0
  141.7267   79.2912  217.9837 H   0  0  0  0  0  0  0  0  0  0  0  0
  142.5196   77.0592  217.3745 H   0  0  0  0  0  0  0  0  0  0  0  0
  143.2824   77.5312  218.9159 H   0  0  0  0  0  0  0  0  0  0  0  0
  140.7762   75.7298  218.6031 H   0  0  0  0  0  0  0  0  0  0  0  0
  141.7114   73.9933  217.3363 H   0  0  0  0  0  0  0  0  0  0  0  0
  143.2747   72.0928  217.2478 H   0  0  0  0  0  0  0  0  0  0  0  0
  145.1209   71.8975  218.9106 H   0  0  0  0  0  0  0  0  0  0  0  0
  143.7708   75.5704  220.7488 H   0  0  0  0  0  0  0  0  0  0  0  0
  139.3244   69.8589  222.5602 H   0  0  0  0  0  0  0  0  0  0  0  0
  138.7718   68.4977  224.5524 H   0  0  0  0  0  0  0  0  0  0  0  0
  138.8578   68.2149  226.9579 H   0  0  0  0  0  0  0  0  0  0  0  0
  139.5550   69.0848  229.1775 H   0  0  0  0  0  0  0  0  0  0  0  0
  140.7612   71.2462  229.3240 H   0  0  0  0  0  0  0  0  0  0  0  0
  141.2795   72.5621  227.2794 H   0  0  0  0  0  0  0  0  0  0  0  0
  1  2  2  0
  2  3  1  0
  3  4  1  0
  4  5  1  0
  5  6  2  0
  5  7  1  0
  7  8  1  0
  8  9  1  0
  9 10  1  0
 10 11  1  0
 11 12  1  0
 12 13  1  0
 13 14  2  0
 14 15  1  0
 15 16  2  0
 16 17  1  0
 17 18  1  0
 17 19  2  0
  2 20  1  0
 20 21  2  0
 21 22  1  0
 22 23  2  0
 23 24  1  0
 24 25  2  0
 25 26  1  0
 26 27  2  0
 27 28  1  0
 28 29  2  0
 12  7  1  0
 19 13  1  0
 29 20  1  0
 28 23  1  0
  3 30  1  0
  4 31  1  0
  4 32  1  0
  8 33  1  0
  8 34  1  0
  9 35  1  0
  9 36  1  0
 10 37  1  0
 10 38  1  0
 11 39  1  0
 11 40  1  0
 12 41  1  6
 14 42  1  0
 15 43  1  0
 16 44  1  0
 19 45  1  0
 21 46  1  0
 22 47  1  0
 24 48  1  0
 25 49  1  0
 26 50  1  0
 27 51  1  0
M  END
>  <smiles>  (87) 
O=C(NCC(=O)N1CCCCC1c1cccc(Br)c1)c1ccc2ccccc2n1

>  <score_type>  (87) 
oracle

>  <origin>  (87) 
autodockgpu

>  <m_score__min__energy>  (87) 
-9.4100000000000001

>  <m_primary>  (87) 
energy

>  <rmsd>  (87) 
2.4724859262039556

>  <m_score__min__rmsd>  (87) 
2.4724859262039556

>  <meeko>  (87) 
{"free_energy": -8.7, "intermolecular_energy": -10.19, "internal_energy": -1.91, "cluster_size": 25, "cluster_id": 2, "rank_in_cluster": 23}

>  <energy>  (87) 
-9.03

>  <cluster_rmsd>  (87) 
0.13

>  <cluster>  (87) 
3

$$$$

     RDKit          3D

 51 54  0  0  0  0  0  0  0  0999 V2000
  141.1200   71.7560  221.4020 O   0  0  0  0  0  0  0  0  0  0  0  0
  140.4920   72.2460  222.3900 C   0  0  0  0  0  0  0  0  0  0  0  0
  140.0020   73.5800  222.3030 N   0  0  0  0  0  0  0  0  0  0  0  0
  140.2480   74.3100  221.0900 C   0  0  0  0  0  0  0  0  0  0  0  0
  140.9890   75.5630  221.3760 C   0  0  0  0  0  0  0  0  0  0  0  0
  140.9310   76.1680  222.4820 O   0  0  0  0  0  0  0  0  0  0  0  0
  141.8200   76.1460  220.3800 N   0  0  0  0  0  0  0  0  0  0  0  0
  142.0930   77.5700  220.4200 C   0  0  0  0  0  0  0  0  0  0  0  0
  141.5150   78.1610  219.1390 C   0  0  0  0  0  0  0  0  0  0  0  0
  141.9590   77.3650  217.9320 C   0  0  0  0  0  0  0  0  0  0  0  0
  143.0450   76.4010  218.3500 C   0  0  0  0  0  0  0  0  0  0  0  0
  142.4230   75.3850  219.3030 C   0  0  1  0  0  0  0  0  0  0  0  0
  143.4660   74.4390  219.7720 C   0  0  0  0  0  0  0  0  0  0  0  0
  144.6040   74.8790  220.4430 C   0  0  0  0  0  0  0  0  0  0  0  0
  145.5730   73.9980  220.8780 C   0  0  0  0  0  0  0  0  0  0  0  0
  145.4370   72.6360  220.6570 C   0  0  0  0  0  0  0  0  0  0  0  0
  144.3050   72.1770  219.9860 C   0  0  0  0  0  0  0  0  0  0  0  0
  144.0740   70.2970  219.6560 Br  0  0  0  0  0  0  0  0  0  0  0  0
  143.3320   73.0840  219.5520 C   0  0  0  0  0  0  0  0  0  0  0  0
  140.2680   71.4630  223.6020 C   0  0  0  0  0  0  0  0  0  0  0  0
  139.6080   70.2580  223.5040 C   0  0  0  0  0  0  0  0  0  0  0  0
  139.3590   69.4640  224.6040 C   0  0  0  0  0  0  0  0  0  0  0  0
  139.7940   69.9030  225.8380 C   0  0  0  0  0  0  0  0  0  0  0  0
  139.5640   69.1340  226.9680 C   0  0  0  0  0  0  0  0  0  0  0  0
  140.0050   69.5920  228.1820 C   0  0  0  0  0  0  0  0  0  0  0  0
  140.6680   70.8080  228.2540 C   0  0  0  0  0  0  0  0  0  0  0  0
  140.8960   71.5760  227.1180 C   0  0  0  0  0  0  0  0  0  0  0  0
  140.4520   71.1160  225.8950 C   0  0  0  0  0  0  0  0  0  0  0  0
  140.6870   71.8790  224.8160 N   0  0  0  0  0  0  0  0  0  0  0  0
  139.4800   73.9900  223.1230 H   0  0  0  0  0  0  0  0  0  0  0  0
  140.8430   73.6860  220.4069 H   0  0  0  0  0  0  0  0  0  0  0  0
  139.2830   74.5661  220.6282 H   0  0  0  0  0  0  0  0  0  0  0  0
  141.6113   78.0242  221.2985 H   0  0  0  0  0  0  0  0  0  0  0  0
  143.1731   77.7647  220.4943 H   0  0  0  0  0  0  0  0  0  0  0  0
  140.4167   78.1445  219.1978 H   0  0  0  0  0  0  0  0  0  0  0  0
  141.8773   79.1942  219.0327 H   0  0  0  0  0  0  0  0  0  0  0  0
  141.1045   76.8041  217.5256 H   0  0  0  0  0  0  0  0  0  0  0  0
  142.3444   78.0463  217.1591 H   0  0  0  0  0  0  0  0  0  0  0  0
  143.4495   75.8864  217.4660 H   0  0  0  0  0  0  0  0  0  0  0  0
  143.8677   76.9387  218.8441 H   0  0  0  0  0  0  0  0  0  0  0  0
  141.6500   74.7692  218.8200 H   0  0  0  0  0  0  0  0  0  0  0  0
  144.7338   75.9550  220.6309 H   0  0  0  0  0  0  0  0  0  0  0  0
  146.4604   74.3794  221.4043 H   0  0  0  0  0  0  0  0  0  0  0  0
  146.2073   71.9317  221.0044 H   0  0  0  0  0  0  0  0  0  0  0  0
  142.4424   72.7089  219.0248 H   0  0  0  0  0  0  0  0  0  0  0  0
  139.2680   69.9173  222.5149 H   0  0  0  0  0  0  0  0  0  0  0  0
  138.8278   68.5063  224.5005 H   0  0  0  0  0  0  0  0  0  0  0  0
  139.0362   68.1719  226.8916 H   0  0  0  0  0  0  0  0  0  0  0  0
  139.8343   68.9994  229.0929 H   0  0  0  0  0  0  0  0  0  0  0  0
  141.0207   71.1722  229.2302 H   0  0  0  0  0  0  0  0  0  0  0  0
  141.4237   72.5383  227.1929 H   0  0  0  0  0  0  0  0  0  0  0  0
  1  2  2  0
  2  3  1  0
  3  4  1  0
  4  5  1  0
  5  6  2  0
  5  7  1  0
  7  8  1  0
  8  9  1  0
  9 10  1  0
 10 11  1  0
 11 12  1  0
 12 13  1  0
 13 14  2  0
 14 15  1  0
 15 16  2  0
 16 17  1  0
 17 18  1  0
 17 19  2  0
  2 20  1  0
 20 21  2  0
 21 22  1  0
 22 23  2  0
 23 24  1  0
 24 25  2  0
 25 26  1  0
 26 27  2  0
 27 28  1  0
 28 29  2  0
 12  7  1  0
 19 13  1  0
 29 20  1  0
 28 23  1  0
  3 30  1  0
  4 31  1  0
  4 32  1  0
  8 33  1  0
  8 34  1  0
  9 35  1  0
  9 36  1  0
 10 37  1  0
 10 38  1  0
 11 39  1  0
 11 40  1  0
 12 41  1  6
 14 42  1  0
 15 43  1  0
 16 44  1  0
 19 45  1  0
 21 46  1  0
 22 47  1  0
 24 48  1  0
 25 49  1  0
 26 50  1  0
 27 51  1  0
M  END
>  <smiles>  (88) 
O=C(NCC(=O)N1CCCCC1c1cccc(Br)c1)c1ccc2ccccc2n1

>  <score_type>  (88) 
oracle

>  <origin>  (88) 
autodockgpu

>  <m_score__min__energy>  (88) 
-9.4100000000000001

>  <m_primary>  (88) 
energy

>  <rmsd>  (88) 
2.4021318352539023

>  <m_score__min__rmsd>  (88) 
2.4021318352539023

>  <meeko>  (88) 
{"free_energy": -9.15, "intermolecular_energy": -10.64, "internal_energy": -1.99, "cluster_size": 25, "cluster_id": 2, "rank_in_cluster": 11}

>  <energy>  (88) 
-8.67

>  <cluster_rmsd>  (88) 
1.72

>  <cluster>  (88) 
3

$$$$

     RDKit          3D

 51 54  0  0  0  0  0  0  0  0999 V2000
  141.2040   71.6280  221.4570 O   0  0  0  0  0  0  0  0  0  0  0  0
  140.5590   72.1460  222.4190 C   0  0  0  0  0  0  0  0  0  0  0  0
  140.0710   73.4770  222.2870 N   0  0  0  0  0  0  0  0  0  0  0  0
  140.3360   74.1720  221.0580 C   0  0  0  0  0  0  0  0  0  0  0  0
  140.8850   75.5230  221.3300 C   0  0  0  0  0  0  0  0  0  0  0  0
  140.6280   76.1790  222.3770 O   0  0  0  0  0  0  0  0  0  0  0  0
  141.7480   76.1480  220.3880 N   0  0  0  0  0  0  0  0  0  0  0  0
  142.0080   77.5710  220.4900 C   0  0  0  0  0  0  0  0  0  0  0  0
  141.4750   78.2040  219.2100 C   0  0  0  0  0  0  0  0  0  0  0  0
  141.9720   77.4560  217.9930 C   0  0  0  0  0  0  0  0  0  0  0  0
  143.0490   76.4850  218.4170 C   0  0  0  0  0  0  0  0  0  0  0  0
  142.3980   75.4310  219.3080 C   0  0  1  0  0  0  0  0  0  0  0  0
  143.4300   74.4750  219.7820 C   0  0  0  0  0  0  0  0  0  0  0  0
  144.5720   74.9050  220.4540 C   0  0  0  0  0  0  0  0  0  0  0  0
  145.5300   74.0150  220.8940 C   0  0  0  0  0  0  0  0  0  0  0  0
  145.3800   72.6530  220.6770 C   0  0  0  0  0  0  0  0  0  0  0  0
  144.2440   72.2040  220.0060 C   0  0  0  0  0  0  0  0  0  0  0  0
  143.9930   70.3260  219.6820 Br  0  0  0  0  0  0  0  0  0  0  0  0
  143.2820   73.1200  219.5660 C   0  0  0  0  0  0  0  0  0  0  0  0
  140.3160   71.3980  223.6510 C   0  0  0  0  0  0  0  0  0  0  0  0
  139.6690   70.1850  223.5750 C   0  0  0  0  0  0  0  0  0  0  0  0
  139.4040   69.4220  224.6930 C   0  0  0  0  0  0  0  0  0  0  0  0
  139.8070   69.9020  225.9220 C   0  0  0  0  0  0  0  0  0  0  0  0
  139.5590   69.1650  227.0700 C   0  0  0  0  0  0  0  0  0  0  0  0
  139.9690   69.6650  228.2790 C   0  0  0  0  0  0  0  0  0  0  0  0
  140.6200   70.8890  228.3280 C   0  0  0  0  0  0  0  0  0  0  0  0
  140.8660   71.6240  227.1730 C   0  0  0  0  0  0  0  0  0  0  0  0
  140.4530   71.1230  225.9560 C   0  0  0  0  0  0  0  0  0  0  0  0
  140.7050   71.8550  224.8590 N   0  0  0  0  0  0  0  0  0  0  0  0
  139.5350   73.9100  223.0860 H   0  0  0  0  0  0  0  0  0  0  0  0
  141.0652   73.5976  220.4678 H   0  0  0  0  0  0  0  0  0  0  0  0
  139.3938   74.2778  220.5002 H   0  0  0  0  0  0  0  0  0  0  0  0
  141.4894   77.9898  221.3650 H   0  0  0  0  0  0  0  0  0  0  0  0
  143.0828   77.7700  220.6132 H   0  0  0  0  0  0  0  0  0  0  0  0
  140.3754   78.1774  219.2254 H   0  0  0  0  0  0  0  0  0  0  0  0
  141.8324   79.2429  219.1554 H   0  0  0  0  0  0  0  0  0  0  0  0
  141.1385   76.9044  217.5335 H   0  0  0  0  0  0  0  0  0  0  0  0
  142.3813   78.1680  217.2612 H   0  0  0  0  0  0  0  0  0  0  0  0
  143.4912   76.0056  217.5312 H   0  0  0  0  0  0  0  0  0  0  0  0
  143.8483   77.0094  218.9612 H   0  0  0  0  0  0  0  0  0  0  0  0
  141.6484   74.8288  218.7737 H   0  0  0  0  0  0  0  0  0  0  0  0
  144.7134   75.9802  220.6383 H   0  0  0  0  0  0  0  0  0  0  0  0
  146.4202   74.3885  221.4213 H   0  0  0  0  0  0  0  0  0  0  0  0
  146.1424   71.9417  221.0275 H   0  0  0  0  0  0  0  0  0  0  0  0
  142.3900   72.7527  219.0374 H   0  0  0  0  0  0  0  0  0  0  0  0
  139.3529   69.8119  222.5897 H   0  0  0  0  0  0  0  0  0  0  0  0
  138.8849   68.4560  224.6070 H   0  0  0  0  0  0  0  0  0  0  0  0
  139.0422   68.1957  227.0118 H   0  0  0  0  0  0  0  0  0  0  0  0
  139.7830   69.0994  229.2039 H   0  0  0  0  0  0  0  0  0  0  0  0
  140.9483   71.2863  229.2998 H   0  0  0  0  0  0  0  0  0  0  0  0
  141.3836   72.5930  227.2294 H   0  0  0  0  0  0  0  0  0  0  0  0
  1  2  2  0
  2  3  1  0
  3  4  1  0
  4  5  1  0
  5  6  2  0
  5  7  1  0
  7  8  1  0
  8  9  1  0
  9 10  1  0
 10 11  1  0
 11 12  1  0
 12 13  1  0
 13 14  2  0
 14 15  1  0
 15 16  2  0
 16 17  1  0
 17 18  1  0
 17 19  2  0
  2 20  1  0
 20 21  2  0
 21 22  1  0
 22 23  2  0
 23 24  1  0
 24 25  2  0
 25 26  1  0
 26 27  2  0
 27 28  1  0
 28 29  2  0
 12  7  1  0
 19 13  1  0
 29 20  1  0
 28 23  1  0
  3 30  1  0
  4 31  1  0
  4 32  1  0
  8 33  1  0
  8 34  1  0
  9 35  1  0
  9 36  1  0
 10 37  1  0
 10 38  1  0
 11 39  1  0
 11 40  1  0
 12 41  1  6
 14 42  1  0
 15 43  1  0
 16 44  1  0
 19 45  1  0
 21 46  1  0
 22 47  1  0
 24 48  1  0
 25 49  1  0
 26 50  1  0
 27 51  1  0
M  END
>  <smiles>  (89) 
O=C(NCC(=O)N1CCCCC1c1cccc(Br)c1)c1ccc2ccccc2n1

>  <score_type>  (89) 
oracle

>  <origin>  (89) 
autodockgpu

>  <m_score__min__energy>  (89) 
-9.4100000000000001

>  <m_primary>  (89) 
energy

>  <rmsd>  (89) 
2.4084777211933934

>  <m_score__min__rmsd>  (89) 
2.4084777211933934

>  <meeko>  (89) 
{"free_energy": -9.2, "intermolecular_energy": -10.69, "internal_energy": -2.02, "cluster_size": 25, "cluster_id": 2, "rank_in_cluster": 3}

>  <energy>  (89) 
-9.07

>  <cluster_rmsd>  (89) 
0.0

>  <cluster>  (89) 
4

$$$$

     RDKit          3D

 51 54  0  0  0  0  0  0  0  0999 V2000
  141.3530   71.8920  221.5300 O   0  0  0  0  0  0  0  0  0  0  0  0
  140.6210   72.3440  222.4630 C   0  0  0  0  0  0  0  0  0  0  0  0
  140.0850   73.6580  222.3450 N   0  0  0  0  0  0  0  0  0  0  0  0
  140.4040   74.4120  221.1640 C   0  0  0  0  0  0  0  0  0  0  0  0
  140.1170   75.8520  221.3710 C   0  0  0  0  0  0  0  0  0  0  0  0
  139.4580   76.2950  222.3520 O   0  0  0  0  0  0  0  0  0  0  0  0
  140.5910   76.8170  220.4400 N   0  0  0  0  0  0  0  0  0  0  0  0
  139.9030   76.9890  219.1740 C   0  0  0  0  0  0  0  0  0  0  0  0
  140.9040   76.6270  218.0830 C   0  0  0  0  0  0  0  0  0  0  0  0
  142.2200   77.3390  218.3020 C   0  0  0  0  0  0  0  0  0  0  0  0
  142.0410   78.3850  219.3770 C   0  0  0  0  0  0  0  0  0  0  0  0
  141.7460   77.6590  220.6870 C   0  0  1  0  0  0  0  0  0  0  0  0
  141.5230   78.6520  221.7670 C   0  0  0  0  0  0  0  0  0  0  0  0
  142.5850   79.2410  222.4490 C   0  0  0  0  0  0  0  0  0  0  0  0
  142.3760   80.1640  223.4540 C   0  0  0  0  0  0  0  0  0  0  0  0
  141.0890   80.5340  223.8140 C   0  0  0  0  0  0  0  0  0  0  0  0
  140.0140   79.9540  223.1430 C   0  0  0  0  0  0  0  0  0  0  0  0
  138.2110   80.4370  223.6090 Br  0  0  0  0  0  0  0  0  0  0  0  0
  140.2430   79.0200  222.1270 C   0  0  0  0  0  0  0  0  0  0  0  0
  140.3270   71.5390  223.6450 C   0  0  0  0  0  0  0  0  0  0  0  0
  139.6150   70.3690  223.4930 C   0  0  0  0  0  0  0  0  0  0  0  0
  139.2990   69.5570  224.5620 C   0  0  0  0  0  0  0  0  0  0  0  0
  139.7170   69.9400  225.8200 C   0  0  0  0  0  0  0  0  0  0  0  0
  139.4190   69.1500  226.9200 C   0  0  0  0  0  0  0  0  0  0  0  0
  139.8450   69.5530  228.1590 C   0  0  0  0  0  0  0  0  0  0  0  0
  140.5610   70.7350  228.2850 C   0  0  0  0  0  0  0  0  0  0  0  0
  140.8570   71.5230  227.1790 C   0  0  0  0  0  0  0  0  0  0  0  0
  140.4280   71.1190  225.9310 C   0  0  0  0  0  0  0  0  0  0  0  0
  140.7290   71.9000  224.8820 N   0  0  0  0  0  0  0  0  0  0  0  0
  139.4770   74.0360  223.1200 H   0  0  0  0  0  0  0  0  0  0  0  0
  141.4718   74.2859  220.9320 H   0  0  0  0  0  0  0  0  0  0  0  0
  139.7876   74.0437  220.3307 H   0  0  0  0  0  0  0  0  0  0  0  0
  139.0288   76.3232  219.1234 H   0  0  0  0  0  0  0  0  0  0  0  0
  139.5420   78.0213  219.0552 H   0  0  0  0  0  0  0  0  0  0  0  0
  141.0754   75.5405  218.0972 H   0  0  0  0  0  0  0  0  0  0  0  0
  140.4931   76.9378  217.1111 H   0  0  0  0  0  0  0  0  0  0  0  0
  142.9839   76.6131  218.6175 H   0  0  0  0  0  0  0  0  0  0  0  0
  142.5425   77.8194  217.3665 H   0  0  0  0  0  0  0  0  0  0  0  0
  142.9607   78.9801  219.4774 H   0  0  0  0  0  0  0  0  0  0  0  0
  141.2156   79.0649  219.1192 H   0  0  0  0  0  0  0  0  0  0  0  0
  142.5846   77.0308  221.0217 H   0  0  0  0  0  0  0  0  0  0  0  0
  143.6151   78.9640  222.1803 H   0  0  0  0  0  0  0  0  0  0  0  0
  143.2373   80.6095  223.9734 H   0  0  0  0  0  0  0  0  0  0  0  0
  140.9199   81.2706  224.6133 H   0  0  0  0  0  0  0  0  0  0  0  0
  139.3857   78.5702  221.6049 H   0  0  0  0  0  0  0  0  0  0  0  0
  139.2878   70.0728  222.4854 H   0  0  0  0  0  0  0  0  0  0  0  0
  138.7285   68.6280  224.4156 H   0  0  0  0  0  0  0  0  0  0  0  0
  138.8505   68.2159  226.8004 H   0  0  0  0  0  0  0  0  0  0  0  0
  139.6209   68.9438  229.0470 H   0  0  0  0  0  0  0  0  0  0  0  0
  140.9014   71.0550  229.2809 H   0  0  0  0  0  0  0  0  0  0  0  0
  141.4261   72.4570  227.2969 H   0  0  0  0  0  0  0  0  0  0  0  0
  1  2  2  0
  2  3  1  0
  3  4  1  0
  4  5  1  0
  5  6  2  0
  5  7  1  0
  7  8  1  0
  8  9  1  0
  9 10  1  0
 10 11  1  0
 11 12  1  0
 12 13  1  0
 13 14  2  0
 14 15  1  0
 15 16  2  0
 16 17  1  0
 17 18  1  0
 17 19  2  0
  2 20  1  0
 20 21  2  0
 21 22  1  0
 22 23  2  0
 23 24  1  0
 24 25  2  0
 25 26  1  0
 26 27  2  0
 27 28  1  0
 28 29  2  0
 12  7  1  0
 19 13  1  0
 29 20  1  0
 28 23  1  0
  3 30  1  0
  4 31  1  0
  4 32  1  0
  8 33  1  0
  8 34  1  0
  9 35  1  0
  9 36  1  0
 10 37  1  0
 10 38  1  0
 11 39  1  0
 11 40  1  0
 12 41  1  1
 14 42  1  0
 15 43  1  0
 16 44  1  0
 19 45  1  0
 21 46  1  0
 22 47  1  0
 24 48  1  0
 25 49  1  0
 26 50  1  0
 27 51  1  0
M  END
>  <smiles>  (90) 
O=C(NCC(=O)N1CCCCC1c1cccc(Br)c1)c1ccc2ccccc2n1

>  <score_type>  (90) 
oracle

>  <origin>  (90) 
autodockgpu

>  <m_score__min__energy>  (90) 
-9.4100000000000001

>  <m_primary>  (90) 
energy

>  <rmsd>  (90) 
1.8333895710033807

>  <m_score__min__rmsd>  (90) 
1.8333895710033807

>  <meeko>  (90) 
{"free_energy": -9.22, "intermolecular_energy": -10.71, "internal_energy": -1.68, "cluster_size": 6, "cluster_id": 1, "rank_in_cluster": 5}

>  <energy>  (90) 
-8.66

>  <cluster_rmsd>  (90) 
0.0

>  <cluster>  (90) 
5

$$$$

     RDKit          3D

 51 54  0  0  0  0  0  0  0  0999 V2000
  138.7370   75.6150  221.6860 O   0  0  0  0  0  0  0  0  0  0  0  0
  139.9220   75.9850  221.9480 C   0  0  0  0  0  0  0  0  0  0  0  0
  140.9890   75.0570  221.7800 N   0  0  0  0  0  0  0  0  0  0  0  0
  140.6650   73.7360  221.3170 C   0  0  0  0  0  0  0  0  0  0  0  0
  141.3270   73.4620  220.0190 C   0  0  0  0  0  0  0  0  0  0  0  0
  140.7020   73.1040  218.9820 O   0  0  0  0  0  0  0  0  0  0  0  0
  142.7370   73.5970  219.8910 N   0  0  0  0  0  0  0  0  0  0  0  0
  143.5230   72.4750  219.4130 C   0  0  0  0  0  0  0  0  0  0  0  0
  144.4710   72.0940  220.5440 C   0  0  0  0  0  0  0  0  0  0  0  0
  145.1880   73.3130  221.0790 C   0  0  0  0  0  0  0  0  0  0  0  0
  144.9380   74.4790  220.1510 C   0  0  0  0  0  0  0  0  0  0  0  0
  143.4510   74.8160  220.2180 C   0  0  1  0  0  0  0  0  0  0  0  0
  143.1520   75.9330  219.2890 C   0  0  0  0  0  0  0  0  0  0  0  0
  143.4300   75.8460  217.9270 C   0  0  0  0  0  0  0  0  0  0  0  0
  143.1510   76.8860  217.0640 C   0  0  0  0  0  0  0  0  0  0  0  0
  142.5800   78.0580  217.5350 C   0  0  0  0  0  0  0  0  0  0  0  0
  142.2950   78.1640  218.8950 C   0  0  0  0  0  0  0  0  0  0  0  0
  141.5030   79.7710  219.5940 Br  0  0  0  0  0  0  0  0  0  0  0  0
  142.5840   77.1010  219.7560 C   0  0  0  0  0  0  0  0  0  0  0  0
  140.2000   77.3410  222.4170 C   0  0  0  0  0  0  0  0  0  0  0  0
  139.1430   78.1670  222.7270 C   0  0  0  0  0  0  0  0  0  0  0  0
  139.3270   79.4590  223.1750 C   0  0  0  0  0  0  0  0  0  0  0  0
  140.6180   79.9250  223.3140 C   0  0  0  0  0  0  0  0  0  0  0  0
  140.8450   81.2170  223.7610 C   0  0  0  0  0  0  0  0  0  0  0  0
  142.1370   81.6570  223.8900 C   0  0  0  0  0  0  0  0  0  0  0  0
  143.1830   80.8040  223.5720 C   0  0  0  0  0  0  0  0  0  0  0  0
  142.9510   79.5080  223.1230 C   0  0  0  0  0  0  0  0  0  0  0  0
  141.6500   79.0650  222.9930 C   0  0  0  0  0  0  0  0  0  0  0  0
  141.4570   77.8100  222.5580 N   0  0  0  0  0  0  0  0  0  0  0  0
  141.9750   75.3630  221.9980 H   0  0  0  0  0  0  0  0  0  0  0  0
  141.0053   72.9990  222.0593 H   0  0  0  0  0  0  0  0  0  0  0  0
  139.5757   73.6643  221.1821 H   0  0  0  0  0  0  0  0  0  0  0  0
  142.8653   71.6281  219.1675 H   0  0  0  0  0  0  0  0  0  0  0  0
  144.0791   72.7399  218.5016 H   0  0  0  0  0  0  0  0  0  0  0  0
  143.8937   71.6297  221.3571 H   0  0  0  0  0  0  0  0  0  0  0  0
  145.2193   71.3886  220.1536 H   0  0  0  0  0  0  0  0  0  0  0  0
  144.8081   73.5530  222.0830 H   0  0  0  0  0  0  0  0  0  0  0  0
  146.2677   73.1117  221.1395 H   0  0  0  0  0  0  0  0  0  0  0  0
  145.5334   75.3467  220.4711 H   0  0  0  0  0  0  0  0  0  0  0  0
  145.2282   74.2209  219.1218 H   0  0  0  0  0  0  0  0  0  0  0  0
  143.1389   75.1594  221.2153 H   0  0  0  0  0  0  0  0  0  0  0  0
  143.8830   74.9258  217.5296 H   0  0  0  0  0  0  0  0  0  0  0  0
  143.3836   76.7842  215.9937 H   0  0  0  0  0  0  0  0  0  0  0  0
  142.3562   78.8881  216.8488 H   0  0  0  0  0  0  0  0  0  0  0  0
  142.3540   77.1975  220.8273 H   0  0  0  0  0  0  0  0  0  0  0  0
  138.1180   77.7843  222.6138 H   0  0  0  0  0  0  0  0  0  0  0  0
  138.4665   80.1008  223.4151 H   0  0  0  0  0  0  0  0  0  0  0  0
  140.0020   81.8789  224.0084 H   0  0  0  0  0  0  0  0  0  0  0  0
  142.3422   82.6784  224.2429 H   0  0  0  0  0  0  0  0  0  0  0  0
  144.2185   81.1598  223.6771 H   0  0  0  0  0  0  0  0  0  0  0  0
  143.7930   78.8450  222.8749 H   0  0  0  0  0  0  0  0  0  0  0  0
  1  2  2  0
  2  3  1  0
  3  4  1  0
  4  5  1  0
  5  6  2  0
  5  7  1  0
  7  8  1  0
  8  9  1  0
  9 10  1  0
 10 11  1  0
 11 12  1  0
 12 13  1  0
 13 14  2  0
 14 15  1  0
 15 16  2  0
 16 17  1  0
 17 18  1  0
 17 19  2  0
  2 20  1  0
 20 21  2  0
 21 22  1  0
 22 23  2  0
 23 24  1  0
 24 25  2  0
 25 26  1  0
 26 27  2  0
 27 28  1  0
 28 29  2  0
 12  7  1  0
 19 13  1  0
 29 20  1  0
 28 23  1  0
  3 30  1  0
  4 31  1  0
  4 32  1  0
  8 33  1  0
  8 34  1  0
  9 35  1  0
  9 36  1  0
 10 37  1  0
 10 38  1  0
 11 39  1  0
 11 40  1  0
 12 41  1  1
 14 42  1  0
 15 43  1  0
 16 44  1  0
 19 45  1  0
 21 46  1  0
 22 47  1  0
 24 48  1  0
 25 49  1  0
 26 50  1  0
 27 51  1  0
M  END
>  <smiles>  (91) 
O=C(NCC(=O)N1CCCCC1c1cccc(Br)c1)c1ccc2ccccc2n1

>  <score_type>  (91) 
oracle

>  <origin>  (91) 
autodockgpu

>  <m_score__min__energy>  (91) 
-9.4100000000000001

>  <m_primary>  (91) 
energy

>  <rmsd>  (91) 
7.663214949035345

>  <m_score__min__rmsd>  (91) 
7.663214949035345

>  <meeko>  (91) 
{"free_energy": -7.91, "intermolecular_energy": -9.4, "internal_energy": -2.8, "cluster_size": 6, "cluster_id": 6, "rank_in_cluster": 2}

>  <energy>  (91) 
-7.91

>  <cluster_rmsd>  (91) 
0.0

>  <cluster>  (91) 
6

$$$$

     RDKit          3D

 51 54  0  0  0  0  0  0  0  0999 V2000
  140.9570   71.7320  221.4030 O   0  0  0  0  0  0  0  0  0  0  0  0
  140.3470   72.2230  222.4010 C   0  0  0  0  0  0  0  0  0  0  0  0
  139.7910   73.5290  222.2970 N   0  0  0  0  0  0  0  0  0  0  0  0
  139.9510   74.2320  221.0540 C   0  0  0  0  0  0  0  0  0  0  0  0
  140.6640   75.5140  221.2670 C   0  0  0  0  0  0  0  0  0  0  0  0
  140.5190   76.2270  222.2980 O   0  0  0  0  0  0  0  0  0  0  0  0
  141.5690   76.0020  220.2840 N   0  0  0  0  0  0  0  0  0  0  0  0
  142.1330   77.3310  220.4260 C   0  0  0  0  0  0  0  0  0  0  0  0
  141.6540   78.1380  219.2250 C   0  0  0  0  0  0  0  0  0  0  0  0
  141.8880   77.3790  217.9380 C   0  0  0  0  0  0  0  0  0  0  0  0
  142.7630   76.1810  218.2260 C   0  0  0  0  0  0  0  0  0  0  0  0
  141.9710   75.2330  219.1220 C   0  0  1  0  0  0  0  0  0  0  0  0
  142.8080   74.0560  219.4640 C   0  0  0  0  0  0  0  0  0  0  0  0
  142.4760   72.7730  219.0360 C   0  0  0  0  0  0  0  0  0  0  0  0
  143.2540   71.6790  219.3540 C   0  0  0  0  0  0  0  0  0  0  0  0
  144.4020   71.8310  220.1180 C   0  0  0  0  0  0  0  0  0  0  0  0
  144.7500   73.1070  220.5570 C   0  0  0  0  0  0  0  0  0  0  0  0
  146.3320   73.3650  221.6180 Br  0  0  0  0  0  0  0  0  0  0  0  0
  143.9490   74.2050  220.2240 C   0  0  0  0  0  0  0  0  0  0  0  0
  140.2110   71.4690  223.6450 C   0  0  0  0  0  0  0  0  0  0  0  0
  139.5860   70.2420  223.6150 C   0  0  0  0  0  0  0  0  0  0  0  0
  139.4210   69.4730  224.7470 C   0  0  0  0  0  0  0  0  0  0  0  0
  139.9030   69.9600  225.9440 C   0  0  0  0  0  0  0  0  0  0  0  0
  139.7570   69.2170  227.1060 C   0  0  0  0  0  0  0  0  0  0  0  0
  140.2450   69.7240  228.2820 C   0  0  0  0  0  0  0  0  0  0  0  0
  140.8710   70.9610  228.2860 C   0  0  0  0  0  0  0  0  0  0  0  0
  141.0160   71.7030  227.1180 C   0  0  0  0  0  0  0  0  0  0  0  0
  140.5240   71.1940  225.9330 C   0  0  0  0  0  0  0  0  0  0  0  0
  140.6790   71.9320  224.8230 N   0  0  0  0  0  0  0  0  0  0  0  0
  139.2840   73.9400  223.1260 H   0  0  0  0  0  0  0  0  0  0  0  0
  140.5302   73.6077  220.3577 H   0  0  0  0  0  0  0  0  0  0  0  0
  138.9558   74.4451  220.6368 H   0  0  0  0  0  0  0  0  0  0  0  0
  141.7814   77.7947  221.3595 H   0  0  0  0  0  0  0  0  0  0  0  0
  143.2316   77.2935  220.4660 H   0  0  0  0  0  0  0  0  0  0  0  0
  140.5783   78.3410  219.3331 H   0  0  0  0  0  0  0  0  0  0  0  0
  142.2203   79.0802  219.1858 H   0  0  0  0  0  0  0  0  0  0  0  0
  140.9245   77.0420  217.5281 H   0  0  0  0  0  0  0  0  0  0  0  0
  142.3828   78.0333  217.2052 H   0  0  0  0  0  0  0  0  0  0  0  0
  143.0268   75.6750  217.2856 H   0  0  0  0  0  0  0  0  0  0  0  0
  143.6933   76.4937  218.7228 H   0  0  0  0  0  0  0  0  0  0  0  0
  141.0735   74.8337  218.6269 H   0  0  0  0  0  0  0  0  0  0  0  0
  141.5702   72.6282  218.4288 H   0  0  0  0  0  0  0  0  0  0  0  0
  142.9621   70.6795  218.9994 H   0  0  0  0  0  0  0  0  0  0  0  0
  145.0255   70.9612  220.3723 H   0  0  0  0  0  0  0  0  0  0  0  0
  144.2353   75.2072  220.5755 H   0  0  0  0  0  0  0  0  0  0  0  0
  139.2056   69.8628  222.6550 H   0  0  0  0  0  0  0  0  0  0  0  0
  138.9179   68.4961  224.6970 H   0  0  0  0  0  0  0  0  0  0  0  0
  139.2578   68.2370  227.0840 H   0  0  0  0  0  0  0  0  0  0  0  0
  140.1407   69.1533  229.2165 H   0  0  0  0  0  0  0  0  0  0  0  0
  141.2611   71.3642  229.2322 H   0  0  0  0  0  0  0  0  0  0  0  0
  141.5162   72.6825  227.1386 H   0  0  0  0  0  0  0  0  0  0  0  0
  1  2  2  0
  2  3  1  0
  3  4  1  0
  4  5  1  0
  5  6  2  0
  5  7  1  0
  7  8  1  0
  8  9  1  0
  9 10  1  0
 10 11  1  0
 11 12  1  0
 12 13  1  0
 13 14  2  0
 14 15  1  0
 15 16  2  0
 16 17  1  0
 17 18  1  0
 17 19  2  0
  2 20  1  0
 20 21  2  0
 21 22  1  0
 22 23  2  0
 23 24  1  0
 24 25  2  0
 25 26  1  0
 26 27  2  0
 27 28  1  0
 28 29  2  0
 12  7  1  0
 19 13  1  0
 29 20  1  0
 28 23  1  0
  3 30  1  0
  4 31  1  0
  4 32  1  0
  8 33  1  0
  8 34  1  0
  9 35  1  0
  9 36  1  0
 10 37  1  0
 10 38  1  0
 11 39  1  0
 11 40  1  0
 12 41  1  6
 14 42  1  0
 15 43  1  0
 16 44  1  0
 19 45  1  0
 21 46  1  0
 22 47  1  0
 24 48  1  0
 25 49  1  0
 26 50  1  0
 27 51  1  0
M  END
>  <smiles>  (92) 
O=C(NCC(=O)N1CCCCC1c1cccc(Br)c1)c1ccc2ccccc2n1

>  <score_type>  (92) 
oracle

>  <origin>  (92) 
autodockgpu

>  <m_score__min__energy>  (92) 
-9.4100000000000001

>  <m_primary>  (92) 
energy

>  <rmsd>  (92) 
2.338018496192124

>  <m_score__min__rmsd>  (92) 
2.338018496192124

>  <meeko>  (92) 
{"free_energy": -9.05, "intermolecular_energy": -10.54, "internal_energy": -1.98, "cluster_size": 25, "cluster_id": 2, "rank_in_cluster": 13}

>  <energy>  (92) 
-7.91

>  <cluster_rmsd>  (92) 
0.04

>  <cluster>  (92) 
6

$$$$

     RDKit          3D

 51 54  0  0  0  0  0  0  0  0999 V2000
  140.4660   71.4550  221.3060 O   0  0  0  0  0  0  0  0  0  0  0  0
  140.1420   72.0330  222.3880 C   0  0  0  0  0  0  0  0  0  0  0  0
  139.7810   73.4100  222.3540 N   0  0  0  0  0  0  0  0  0  0  0  0
  139.8020   74.0810  221.0840 C   0  0  0  0  0  0  0  0  0  0  0  0
  139.8650   75.5510  221.2710 C   0  0  0  0  0  0  0  0  0  0  0  0
  138.9780   76.2120  221.8780 O   0  0  0  0  0  0  0  0  0  0  0  0
  140.9640   76.2910  220.7550 N   0  0  0  0  0  0  0  0  0  0  0  0
  141.4460   77.4540  221.4770 C   0  0  0  0  0  0  0  0  0  0  0  0
  141.2440   78.6520  220.5570 C   0  0  0  0  0  0  0  0  0  0  0  0
  141.7940   78.3690  219.1770 C   0  0  0  0  0  0  0  0  0  0  0  0
  142.6050   77.0950  219.2220 C   0  0  0  0  0  0  0  0  0  0  0  0
  141.6470   75.9460  219.5230 C   0  0  1  0  0  0  0  0  0  0  0  0
  142.4080   74.6750  219.6160 C   0  0  0  0  0  0  0  0  0  0  0  0
  141.9240   73.4920  219.0630 C   0  0  0  0  0  0  0  0  0  0  0  0
  142.6320   72.3110  219.1500 C   0  0  0  0  0  0  0  0  0  0  0  0
  143.8580   72.2700  219.7970 C   0  0  0  0  0  0  0  0  0  0  0  0
  144.3580   73.4450  220.3570 C   0  0  0  0  0  0  0  0  0  0  0  0
  146.0540   73.4370  221.2640 Br  0  0  0  0  0  0  0  0  0  0  0  0
  143.6270   74.6340  220.2600 C   0  0  0  0  0  0  0  0  0  0  0  0
  140.1360   71.3070  223.6560 C   0  0  0  0  0  0  0  0  0  0  0  0
  139.6260   70.0290  223.6880 C   0  0  0  0  0  0  0  0  0  0  0  0
  139.5860   69.2820  224.8470 C   0  0  0  0  0  0  0  0  0  0  0  0
  140.0790   69.8460  226.0060 C   0  0  0  0  0  0  0  0  0  0  0  0
  140.0580   69.1290  227.1910 C   0  0  0  0  0  0  0  0  0  0  0  0
  140.5530   69.7120  228.3280 C   0  0  0  0  0  0  0  0  0  0  0  0
  141.0630   71.0010  228.2680 C   0  0  0  0  0  0  0  0  0  0  0  0
  141.0820   71.7180  227.0770 C   0  0  0  0  0  0  0  0  0  0  0  0
  140.5830   71.1310  225.9320 C   0  0  0  0  0  0  0  0  0  0  0  0
  140.6150   71.8470  224.7960 N   0  0  0  0  0  0  0  0  0  0  0  0
  139.5110   73.8930  223.2530 H   0  0  0  0  0  0  0  0  0  0  0  0
  140.6838   73.7508  220.5153 H   0  0  0  0  0  0  0  0  0  0  0  0
  138.8809   73.8324  220.5364 H   0  0  0  0  0  0  0  0  0  0  0  0
  140.8730   77.5882  222.4063 H   0  0  0  0  0  0  0  0  0  0  0  0
  142.5048   77.3393  221.7524 H   0  0  0  0  0  0  0  0  0  0  0  0
  140.1685   78.8692  220.4789 H   0  0  0  0  0  0  0  0  0  0  0  0
  141.7796   79.5149  220.9795 H   0  0  0  0  0  0  0  0  0  0  0  0
  140.9631   78.2522  218.4657 H   0  0  0  0  0  0  0  0  0  0  0  0
  142.4322   79.2043  218.8530 H   0  0  0  0  0  0  0  0  0  0  0  0
  143.0961   76.9290  218.2518 H   0  0  0  0  0  0  0  0  0  0  0  0
  143.3834   77.1608  219.9965 H   0  0  0  0  0  0  0  0  0  0  0  0
  140.9021   75.7963  218.7276 H   0  0  0  0  0  0  0  0  0  0  0  0
  140.9539   73.4994  218.5444 H   0  0  0  0  0  0  0  0  0  0  0  0
  142.2206   71.3942  218.7024 H   0  0  0  0  0  0  0  0  0  0  0  0
  144.4244   71.3297  219.8670 H   0  0  0  0  0  0  0  0  0  0  0  0
  144.0324   75.5541  220.7061 H   0  0  0  0  0  0  0  0  0  0  0  0
  139.2372   69.5885  222.7581 H   0  0  0  0  0  0  0  0  0  0  0  0
  139.1718   68.2630  224.8474 H   0  0  0  0  0  0  0  0  0  0  0  0
  139.6504   68.1077  227.2188 H   0  0  0  0  0  0  0  0  0  0  0  0
  140.5461   69.1624  229.2808 H   0  0  0  0  0  0  0  0  0  0  0  0
  141.4608   71.4655  229.1823 H   0  0  0  0  0  0  0  0  0  0  0  0
  141.4893   72.7394  227.0477 H   0  0  0  0  0  0  0  0  0  0  0  0
  1  2  2  0
  2  3  1  0
  3  4  1  0
  4  5  1  0
  5  6  2  0
  5  7  1  0
  7  8  1  0
  8  9  1  0
  9 10  1  0
 10 11  1  0
 11 12  1  0
 12 13  1  0
 13 14  2  0
 14 15  1  0
 15 16  2  0
 16 17  1  0
 17 18  1  0
 17 19  2  0
  2 20  1  0
 20 21  2  0
 21 22  1  0
 22 23  2  0
 23 24  1  0
 24 25  2  0
 25 26  1  0
 26 27  2  0
 27 28  1  0
 28 29  2  0
 12  7  1  0
 19 13  1  0
 29 20  1  0
 28 23  1  0
  3 30  1  0
  4 31  1  0
  4 32  1  0
  8 33  1  0
  8 34  1  0
  9 35  1  0
  9 36  1  0
 10 37  1  0
 10 38  1  0
 11 39  1  0
 11 40  1  0
 12 41  1  6
 14 42  1  0
 15 43  1  0
 16 44  1  0
 19 45  1  0
 21 46  1  0
 22 47  1  0
 24 48  1  0
 25 49  1  0
 26 50  1  0
 27 51  1  0
M  END
>  <smiles>  (93) 
O=C(NCC(=O)N1CCCCC1c1cccc(Br)c1)c1ccc2ccccc2n1

>  <score_type>  (93) 
oracle

>  <origin>  (93) 
autodockgpu

>  <m_score__min__energy>  (93) 
-9.4100000000000001

>  <m_primary>  (93) 
energy

>  <rmsd>  (93) 
2.4126034383683206

>  <m_score__min__rmsd>  (93) 
2.4126034383683206

>  <meeko>  (93) 
{"free_energy": -8.93, "intermolecular_energy": -10.43, "internal_energy": -1.74, "cluster_size": 25, "cluster_id": 2, "rank_in_cluster": 19}

>  <energy>  (93) 
-7.9

>  <cluster_rmsd>  (93) 
0.12

>  <cluster>  (93) 
6

$$$$

     RDKit          3D

 51 54  0  0  0  0  0  0  0  0999 V2000
  141.0570   71.4450  221.4260 O   0  0  0  0  0  0  0  0  0  0  0  0
  140.5110   72.0130  222.4200 C   0  0  0  0  0  0  0  0  0  0  0  0
  140.1280   73.3800  222.3090 N   0  0  0  0  0  0  0  0  0  0  0  0
  140.3820   74.0520  221.0650 C   0  0  0  0  0  0  0  0  0  0  0  0
  140.6440   75.4940  221.2940 C   0  0  0  0  0  0  0  0  0  0  0  0
  140.0850   76.1650  222.2050 O   0  0  0  0  0  0  0  0  0  0  0  0
  141.5650   76.1950  220.4670 N   0  0  0  0  0  0  0  0  0  0  0  0
  141.8190   77.6020  220.7120 C   0  0  0  0  0  0  0  0  0  0  0  0
  141.3670   78.3500  219.4630 C   0  0  0  0  0  0  0  0  0  0  0  0
  141.9370   77.7100  218.2170 C   0  0  0  0  0  0  0  0  0  0  0  0
  142.9850   76.6980  218.6180 C   0  0  0  0  0  0  0  0  0  0  0  0
  142.2800   75.5720  219.3690 C   0  0  1  0  0  0  0  0  0  0  0  0
  143.2790   74.5710  219.8190 C   0  0  0  0  0  0  0  0  0  0  0  0
  144.4500   74.9490  220.4710 C   0  0  0  0  0  0  0  0  0  0  0  0
  145.3790   74.0180  220.8870 C   0  0  0  0  0  0  0  0  0  0  0  0
  145.1680   72.6650  220.6670 C   0  0  0  0  0  0  0  0  0  0  0  0
  144.0020   72.2680  220.0150 C   0  0  0  0  0  0  0  0  0  0  0  0
  143.6660   70.4030  219.6870 Br  0  0  0  0  0  0  0  0  0  0  0  0
  143.0710   73.2260  219.5990 C   0  0  0  0  0  0  0  0  0  0  0  0
  140.2730   71.2870  223.6650 C   0  0  0  0  0  0  0  0  0  0  0  0
  139.6570   70.0570  223.6110 C   0  0  0  0  0  0  0  0  0  0  0  0
  139.3990   69.3130  224.7430 C   0  0  0  0  0  0  0  0  0  0  0  0
  139.7780   69.8300  225.9650 C   0  0  0  0  0  0  0  0  0  0  0  0
  139.5370   69.1130  227.1270 C   0  0  0  0  0  0  0  0  0  0  0  0
  139.9230   69.6490  228.3280 C   0  0  0  0  0  0  0  0  0  0  0  0
  140.5430   70.8890  228.3550 C   0  0  0  0  0  0  0  0  0  0  0  0
  140.7830   71.6050  227.1870 C   0  0  0  0  0  0  0  0  0  0  0  0
  140.3940   71.0660  225.9770 C   0  0  0  0  0  0  0  0  0  0  0  0
  140.6390   71.7800  224.8670 N   0  0  0  0  0  0  0  0  0  0  0  0
  139.6740   73.8550  223.1340 H   0  0  0  0  0  0  0  0  0  0  0  0
  141.2593   73.5976  220.5813 H   0  0  0  0  0  0  0  0  0  0  0  0
  139.4966   73.9507  220.4202 H   0  0  0  0  0  0  0  0  0  0  0  0
  141.2471   77.9442  221.5871 H   0  0  0  0  0  0  0  0  0  0  0  0
  142.8841   77.7827  220.9190 H   0  0  0  0  0  0  0  0  0  0  0  0
  140.2685   78.3297  219.4084 H   0  0  0  0  0  0  0  0  0  0  0  0
  141.7287   79.3871  219.5233 H   0  0  0  0  0  0  0  0  0  0  0  0
  141.1328   77.2069  217.6601 H   0  0  0  0  0  0  0  0  0  0  0  0
  142.3913   78.4815  217.5779 H   0  0  0  0  0  0  0  0  0  0  0  0
  143.4810   76.2973  217.7217 H   0  0  0  0  0  0  0  0  0  0  0  0
  143.7490   77.1668  219.2556 H   0  0  0  0  0  0  0  0  0  0  0  0
  141.5655   75.0239  218.7373 H   0  0  0  0  0  0  0  0  0  0  0  0
  144.6388   76.0163  220.6589 H   0  0  0  0  0  0  0  0  0  0  0  0
  146.2946   74.3514  221.3974 H   0  0  0  0  0  0  0  0  0  0  0  0
  145.9059   71.9204  221.0004 H   0  0  0  0  0  0  0  0  0  0  0  0
  142.1544   72.8994  219.0860 H   0  0  0  0  0  0  0  0  0  0  0  0
  139.3605   69.6539  222.6314 H   0  0  0  0  0  0  0  0  0  0  0  0
  138.9041   68.3331  224.6737 H   0  0  0  0  0  0  0  0  0  0  0  0
  139.0443   68.1304  227.0857 H   0  0  0  0  0  0  0  0  0  0  0  0
  139.7423   69.0995  229.2636 H   0  0  0  0  0  0  0  0  0  0  0  0
  140.8516   71.3155  229.3208 H   0  0  0  0  0  0  0  0  0  0  0  0
  141.2761   72.5875  227.2268 H   0  0  0  0  0  0  0  0  0  0  0  0
  1  2  2  0
  2  3  1  0
  3  4  1  0
  4  5  1  0
  5  6  2  0
  5  7  1  0
  7  8  1  0
  8  9  1  0
  9 10  1  0
 10 11  1  0
 11 12  1  0
 12 13  1  0
 13 14  2  0
 14 15  1  0
 15 16  2  0
 16 17  1  0
 17 18  1  0
 17 19  2  0
  2 20  1  0
 20 21  2  0
 21 22  1  0
 22 23  2  0
 23 24  1  0
 24 25  2  0
 25 26  1  0
 26 27  2  0
 27 28  1  0
 28 29  2  0
 12  7  1  0
 19 13  1  0
 29 20  1  0
 28 23  1  0
  3 30  1  0
  4 31  1  0
  4 32  1  0
  8 33  1  0
  8 34  1  0
  9 35  1  0
  9 36  1  0
 10 37  1  0
 10 38  1  0
 11 39  1  0
 11 40  1  0
 12 41  1  6
 14 42  1  0
 15 43  1  0
 16 44  1  0
 19 45  1  0
 21 46  1  0
 22 47  1  0
 24 48  1  0
 25 49  1  0
 26 50  1  0
 27 51  1  0
M  END
>  <smiles>  (94) 
O=C(NCC(=O)N1CCCCC1c1cccc(Br)c1)c1ccc2ccccc2n1

>  <score_type>  (94) 
oracle

>  <origin>  (94) 
autodockgpu

>  <m_score__min__energy>  (94) 
-9.4100000000000001

>  <m_primary>  (94) 
energy

>  <rmsd>  (94) 
2.399317094556901

>  <m_score__min__rmsd>  (94) 
2.399317094556901

>  <meeko>  (94) 
{"free_energy": -9.03, "intermolecular_energy": -10.52, "internal_energy": -2.03, "cluster_size": 25, "cluster_id": 2, "rank_in_cluster": 16}

>  <energy>  (94) 
-7.88

>  <cluster_rmsd>  (94) 
0.17

>  <cluster>  (94) 
6

$$$$

     RDKit          3D

 51 54  0  0  0  0  0  0  0  0999 V2000
  141.1850   71.5890  221.4380 O   0  0  0  0  0  0  0  0  0  0  0  0
  140.5620   72.1120  222.4120 C   0  0  0  0  0  0  0  0  0  0  0  0
  140.0870   73.4490  222.2890 N   0  0  0  0  0  0  0  0  0  0  0  0
  140.3390   74.1430  221.0570 C   0  0  0  0  0  0  0  0  0  0  0  0
  140.8520   75.5090  221.3230 C   0  0  0  0  0  0  0  0  0  0  0  0
  140.5600   76.1710  222.3560 O   0  0  0  0  0  0  0  0  0  0  0  0
  141.7210   76.1410  220.3910 N   0  0  0  0  0  0  0  0  0  0  0  0
  141.9770   77.5640  220.5030 C   0  0  0  0  0  0  0  0  0  0  0  0
  141.4520   78.2040  219.2230 C   0  0  0  0  0  0  0  0  0  0  0  0
  141.9580   77.4630  218.0050 C   0  0  0  0  0  0  0  0  0  0  0  0
  143.0340   76.4920  218.4310 C   0  0  0  0  0  0  0  0  0  0  0  0
  142.3800   75.4310  219.3110 C   0  0  1  0  0  0  0  0  0  0  0  0
  143.4100   74.4750  219.7870 C   0  0  0  0  0  0  0  0  0  0  0  0
  144.5550   74.9050  220.4530 C   0  0  0  0  0  0  0  0  0  0  0  0
  145.5120   74.0140  220.8950 C   0  0  0  0  0  0  0  0  0  0  0  0
  145.3570   72.6520  220.6840 C   0  0  0  0  0  0  0  0  0  0  0  0
  144.2190   72.2030  220.0180 C   0  0  0  0  0  0  0  0  0  0  0  0
  143.9620   70.3240  219.7030 Br  0  0  0  0  0  0  0  0  0  0  0  0
  143.2580   73.1200  219.5770 C   0  0  0  0  0  0  0  0  0  0  0  0
  140.3310   71.3650  223.6460 C   0  0  0  0  0  0  0  0  0  0  0  0
  139.6910   70.1480  223.5770 C   0  0  0  0  0  0  0  0  0  0  0  0
  139.4380   69.3860  224.6980 C   0  0  0  0  0  0  0  0  0  0  0  0
  139.8460   69.8700  225.9240 C   0  0  0  0  0  0  0  0  0  0  0  0
  139.6090   69.1340  227.0740 C   0  0  0  0  0  0  0  0  0  0  0  0
  140.0240   69.6380  228.2790 C   0  0  0  0  0  0  0  0  0  0  0  0
  140.6670   70.8660  228.3220 C   0  0  0  0  0  0  0  0  0  0  0  0
  140.9020   71.6010  227.1650 C   0  0  0  0  0  0  0  0  0  0  0  0
  140.4840   71.0950  225.9510 C   0  0  0  0  0  0  0  0  0  0  0  0
  140.7250   71.8260  224.8520 N   0  0  0  0  0  0  0  0  0  0  0  0
  139.5690   73.8860  223.0980 H   0  0  0  0  0  0  0  0  0  0  0  0
  141.0851   73.5839  220.4732 H   0  0  0  0  0  0  0  0  0  0  0  0
  139.3968   74.2212  220.4948 H   0  0  0  0  0  0  0  0  0  0  0  0
  141.4512   77.9765  221.3767 H   0  0  0  0  0  0  0  0  0  0  0  0
  143.0505   77.7644  220.6348 H   0  0  0  0  0  0  0  0  0  0  0  0
  140.3524   78.1765  219.2308 H   0  0  0  0  0  0  0  0  0  0  0  0
  141.8087   79.2435  219.1766 H   0  0  0  0  0  0  0  0  0  0  0  0
  141.1284   76.9122  217.5375 H   0  0  0  0  0  0  0  0  0  0  0  0
  142.3704   78.1794  217.2793 H   0  0  0  0  0  0  0  0  0  0  0  0
  143.4836   76.0190  217.5455 H   0  0  0  0  0  0  0  0  0  0  0  0
  143.8278   77.0153  218.9842 H   0  0  0  0  0  0  0  0  0  0  0  0
  141.6362   74.8298  218.7676 H   0  0  0  0  0  0  0  0  0  0  0  0
  144.7002   75.9807  220.6311 H   0  0  0  0  0  0  0  0  0  0  0  0
  146.4045   74.3870  221.4187 H   0  0  0  0  0  0  0  0  0  0  0  0
  146.1181   71.9400  221.0358 H   0  0  0  0  0  0  0  0  0  0  0  0
  142.3635   72.7529  219.0524 H   0  0  0  0  0  0  0  0  0  0  0  0
  139.3707   69.7709  222.5946 H   0  0  0  0  0  0  0  0  0  0  0  0
  138.9240   68.4169  224.6169 H   0  0  0  0  0  0  0  0  0  0  0  0
  139.0966   68.1621  227.0206 H   0  0  0  0  0  0  0  0  0  0  0  0
  139.8483   69.0723  229.2059 H   0  0  0  0  0  0  0  0  0  0  0  0
  140.9980   71.2670  229.2914 H   0  0  0  0  0  0  0  0  0  0  0  0
  141.4144   72.5730  227.2168 H   0  0  0  0  0  0  0  0  0  0  0  0
  1  2  2  0
  2  3  1  0
  3  4  1  0
  4  5  1  0
  5  6  2  0
  5  7  1  0
  7  8  1  0
  8  9  1  0
  9 10  1  0
 10 11  1  0
 11 12  1  0
 12 13  1  0
 13 14  2  0
 14 15  1  0
 15 16  2  0
 16 17  1  0
 17 18  1  0
 17 19  2  0
  2 20  1  0
 20 21  2  0
 21 22  1  0
 22 23  2  0
 23 24  1  0
 24 25  2  0
 25 26  1  0
 26 27  2  0
 27 28  1  0
 28 29  2  0
 12  7  1  0
 19 13  1  0
 29 20  1  0
 28 23  1  0
  3 30  1  0
  4 31  1  0
  4 32  1  0
  8 33  1  0
  8 34  1  0
  9 35  1  0
  9 36  1  0
 10 37  1  0
 10 38  1  0
 11 39  1  0
 11 40  1  0
 12 41  1  6
 14 42  1  0
 15 43  1  0
 16 44  1  0
 19 45  1  0
 21 46  1  0
 22 47  1  0
 24 48  1  0
 25 49  1  0
 26 50  1  0
 27 51  1  0
M  END
>  <smiles>  (95) 
O=C(NCC(=O)N1CCCCC1c1cccc(Br)c1)c1ccc2ccccc2n1

>  <score_type>  (95) 
oracle

>  <origin>  (95) 
autodockgpu

>  <m_score__min__energy>  (95) 
-9.4100000000000001

>  <m_primary>  (95) 
energy

>  <rmsd>  (95) 
2.397198976543631

>  <m_score__min__rmsd>  (95) 
2.397198976543631

>  <meeko>  (95) 
{"free_energy": -9.18, "intermolecular_energy": -10.67, "internal_energy": -2.03, "cluster_size": 25, "cluster_id": 2, "rank_in_cluster": 7}

>  <energy>  (95) 
-7.84

>  <cluster_rmsd>  (95) 
0.2

>  <cluster>  (95) 
6

$$$$

     RDKit          3D

 51 54  0  0  0  0  0  0  0  0999 V2000
  141.2350   71.8740  221.5770 O   0  0  0  0  0  0  0  0  0  0  0  0
  140.4250   72.2450  222.4800 C   0  0  0  0  0  0  0  0  0  0  0  0
  139.6830   73.4460  222.2910 N   0  0  0  0  0  0  0  0  0  0  0  0
  139.8920   74.1820  221.0750 C   0  0  0  0  0  0  0  0  0  0  0  0
  139.8880   75.6410  221.3410 C   0  0  0  0  0  0  0  0  0  0  0  0
  138.9750   76.2280  221.9850 O   0  0  0  0  0  0  0  0  0  0  0  0
  140.9510   76.4580  220.8650 N   0  0  0  0  0  0  0  0  0  0  0  0
  141.4350   77.5530  221.6850 C   0  0  0  0  0  0  0  0  0  0  0  0
  141.1730   78.8330  220.9000 C   0  0  0  0  0  0  0  0  0  0  0  0
  141.6760   78.7050  219.4790 C   0  0  0  0  0  0  0  0  0  0  0  0
  142.5150   77.4540  219.3640 C   0  0  0  0  0  0  0  0  0  0  0  0
  141.5940   76.2570  219.5810 C   0  0  1  0  0  0  0  0  0  0  0  0
  142.3850   75.0020  219.5160 C   0  0  0  0  0  0  0  0  0  0  0  0
  141.9730   73.9170  218.7470 C   0  0  0  0  0  0  0  0  0  0  0  0
  142.7090   72.7510  218.6870 C   0  0  0  0  0  0  0  0  0  0  0  0
  143.8920   72.6290  219.3990 C   0  0  0  0  0  0  0  0  0  0  0  0
  144.3200   73.7040  220.1760 C   0  0  0  0  0  0  0  0  0  0  0  0
  145.9550   73.5790  221.1810 Br  0  0  0  0  0  0  0  0  0  0  0  0
  143.5620   74.8790  220.2250 C   0  0  0  0  0  0  0  0  0  0  0  0
  140.2480   71.4620  223.7000 C   0  0  0  0  0  0  0  0  0  0  0  0
  139.5680   70.2670  223.6310 C   0  0  0  0  0  0  0  0  0  0  0  0
  139.3600   69.4730  224.7390 C   0  0  0  0  0  0  0  0  0  0  0  0
  139.8590   69.9010  225.9520 C   0  0  0  0  0  0  0  0  0  0  0  0
  139.6720   69.1320  227.0900 C   0  0  0  0  0  0  0  0  0  0  0  0
  140.1760   69.5810  228.2830 C   0  0  0  0  0  0  0  0  0  0  0  0
  140.8580   70.7880  228.3260 C   0  0  0  0  0  0  0  0  0  0  0  0
  141.0430   71.5560  227.1820 C   0  0  0  0  0  0  0  0  0  0  0  0
  140.5350   71.1050  225.9810 C   0  0  0  0  0  0  0  0  0  0  0  0
  140.7300   71.8680  224.8930 N   0  0  0  0  0  0  0  0  0  0  0  0
  139.0090   73.7570  223.0410 H   0  0  0  0  0  0  0  0  0  0  0  0
  140.8617   73.8962  220.6415 H   0  0  0  0  0  0  0  0  0  0  0  0
  139.0778   73.9470  220.3737 H   0  0  0  0  0  0  0  0  0  0  0  0
  140.8946   77.5777  222.6428 H   0  0  0  0  0  0  0  0  0  0  0  0
  142.5055   77.4374  221.9099 H   0  0  0  0  0  0  0  0  0  0  0  0
  140.0910   79.0304  220.8830 H   0  0  0  0  0  0  0  0  0  0  0  0
  141.7061   79.6616  221.3891 H   0  0  0  0  0  0  0  0  0  0  0  0
  140.8211   78.6402  218.7898 H   0  0  0  0  0  0  0  0  0  0  0  0
  142.2835   79.5846  219.2196 H   0  0  0  0  0  0  0  0  0  0  0  0
  142.9714   77.3994  218.3646 H   0  0  0  0  0  0  0  0  0  0  0  0
  143.3215   77.4605  220.1120 H   0  0  0  0  0  0  0  0  0  0  0  0
  140.8223   76.1702  218.8019 H   0  0  0  0  0  0  0  0  0  0  0  0
  141.0376   73.9909  218.1729 H   0  0  0  0  0  0  0  0  0  0  0  0
  142.3542   71.9125  218.0697 H   0  0  0  0  0  0  0  0  0  0  0  0
  144.4817   71.7016  219.3517 H   0  0  0  0  0  0  0  0  0  0  0  0
  143.9113   75.7209  220.8407 H   0  0  0  0  0  0  0  0  0  0  0  0
  139.1770   69.9340  222.6582 H   0  0  0  0  0  0  0  0  0  0  0  0
  138.8107   68.5234  224.6579 H   0  0  0  0  0  0  0  0  0  0  0  0
  139.1282   68.1773  227.0366 H   0  0  0  0  0  0  0  0  0  0  0  0
  140.0405   68.9883  229.1997 H   0  0  0  0  0  0  0  0  0  0  0  0
  141.2609   71.1450  229.2853 H   0  0  0  0  0  0  0  0  0  0  0  0
  141.5872   72.5106  227.2336 H   0  0  0  0  0  0  0  0  0  0  0  0
  1  2  2  0
  2  3  1  0
  3  4  1  0
  4  5  1  0
  5  6  2  0
  5  7  1  0
  7  8  1  0
  8  9  1  0
  9 10  1  0
 10 11  1  0
 11 12  1  0
 12 13  1  0
 13 14  2  0
 14 15  1  0
 15 16  2  0
 16 17  1  0
 17 18  1  0
 17 19  2  0
  2 20  1  0
 20 21  2  0
 21 22  1  0
 22 23  2  0
 23 24  1  0
 24 25  2  0
 25 26  1  0
 26 27  2  0
 27 28  1  0
 28 29  2  0
 12  7  1  0
 19 13  1  0
 29 20  1  0
 28 23  1  0
  3 30  1  0
  4 31  1  0
  4 32  1  0
  8 33  1  0
  8 34  1  0
  9 35  1  0
  9 36  1  0
 10 37  1  0
 10 38  1  0
 11 39  1  0
 11 40  1  0
 12 41  1  6
 14 42  1  0
 15 43  1  0
 16 44  1  0
 19 45  1  0
 21 46  1  0
 22 47  1  0
 24 48  1  0
 25 49  1  0
 26 50  1  0
 27 51  1  0
M  END
>  <smiles>  (96) 
O=C(NCC(=O)N1CCCCC1c1cccc(Br)c1)c1ccc2ccccc2n1

>  <score_type>  (96) 
oracle

>  <origin>  (96) 
autodockgpu

>  <m_score__min__energy>  (96) 
-9.4100000000000001

>  <m_primary>  (96) 
energy

>  <rmsd>  (96) 
2.5297025833458506

>  <m_score__min__rmsd>  (96) 
2.5297025833458506

>  <meeko>  (96) 
{"free_energy": -8.94, "intermolecular_energy": -10.43, "internal_energy": -1.78, "cluster_size": 25, "cluster_id": 2, "rank_in_cluster": 18}

>  <energy>  (96) 
-7.74

>  <cluster_rmsd>  (96) 
0.15

>  <cluster>  (96) 
6

$$$$

     RDKit          3D

 51 54  0  0  0  0  0  0  0  0999 V2000
  138.7450   75.5620  221.6350 O   0  0  0  0  0  0  0  0  0  0  0  0
  139.9150   75.9230  221.9720 C   0  0  0  0  0  0  0  0  0  0  0  0
  140.9770   74.9770  221.8970 N   0  0  0  0  0  0  0  0  0  0  0  0
  140.6670   73.6510  221.4410 C   0  0  0  0  0  0  0  0  0  0  0  0
  141.2270   73.4210  220.0870 C   0  0  0  0  0  0  0  0  0  0  0  0
  140.5150   73.2000  219.0680 O   0  0  0  0  0  0  0  0  0  0  0  0
  142.6340   73.4420  219.8810 N   0  0  0  0  0  0  0  0  0  0  0  0
  143.2990   72.2630  219.3580 C   0  0  0  0  0  0  0  0  0  0  0  0
  144.2740   71.7990  220.4340 C   0  0  0  0  0  0  0  0  0  0  0  0
  145.1150   72.9530  220.9310 C   0  0  0  0  0  0  0  0  0  0  0  0
  144.9110   74.1400  220.0200 C   0  0  0  0  0  0  0  0  0  0  0  0
  143.4620   74.5960  220.1710 C   0  0  1  0  0  0  0  0  0  0  0  0
  143.2040   75.7410  219.2610 C   0  0  0  0  0  0  0  0  0  0  0  0
  143.5650   75.7020  217.9170 C   0  0  0  0  0  0  0  0  0  0  0  0
  143.3250   76.7660  217.0720 C   0  0  0  0  0  0  0  0  0  0  0  0
  142.7090   77.9160  217.5450 C   0  0  0  0  0  0  0  0  0  0  0  0
  142.3420   77.9730  218.8880 C   0  0  0  0  0  0  0  0  0  0  0  0
  141.4870   79.5470  219.5890 Br  0  0  0  0  0  0  0  0  0  0  0  0
  142.5930   76.8850  219.7310 C   0  0  0  0  0  0  0  0  0  0  0  0
  140.1800   77.2840  222.4310 C   0  0  0  0  0  0  0  0  0  0  0  0
  139.1150   78.1030  222.7320 C   0  0  0  0  0  0  0  0  0  0  0  0
  139.2860   79.4000  223.1700 C   0  0  0  0  0  0  0  0  0  0  0  0
  140.5720   79.8790  223.3080 C   0  0  0  0  0  0  0  0  0  0  0  0
  140.7860   81.1770  223.7460 C   0  0  0  0  0  0  0  0  0  0  0  0
  142.0740   81.6280  223.8740 C   0  0  0  0  0  0  0  0  0  0  0  0
  143.1290   80.7830  223.5650 C   0  0  0  0  0  0  0  0  0  0  0  0
  142.9100   79.4820  223.1260 C   0  0  0  0  0  0  0  0  0  0  0  0
  141.6130   79.0260  222.9960 C   0  0  0  0  0  0  0  0  0  0  0  0
  141.4320   77.7660  222.5700 N   0  0  0  0  0  0  0  0  0  0  0  0
  141.9500   75.2740  222.1770 H   0  0  0  0  0  0  0  0  0  0  0  0
  141.0975   72.9185  222.1396 H   0  0  0  0  0  0  0  0  0  0  0  0
  139.5738   73.5374  221.3969 H   0  0  0  0  0  0  0  0  0  0  0  0
  142.5623   71.4737  219.1477 H   0  0  0  0  0  0  0  0  0  0  0  0
  143.8238   72.4880  218.4178 H   0  0  0  0  0  0  0  0  0  0  0  0
  143.7068   71.3771  221.2768 H   0  0  0  0  0  0  0  0  0  0  0  0
  144.9403   71.0382  220.0013 H   0  0  0  0  0  0  0  0  0  0  0  0
  144.8103   73.2172  221.9544 H   0  0  0  0  0  0  0  0  0  0  0  0
  146.1766   72.6647  220.9328 H   0  0  0  0  0  0  0  0  0  0  0  0
  145.5922   74.9545  220.3074 H   0  0  0  0  0  0  0  0  0  0  0  0
  145.1222   73.8657  218.9759 H   0  0  0  0  0  0  0  0  0  0  0  0
  143.2348   74.9562  221.1852 H   0  0  0  0  0  0  0  0  0  0  0  0
  144.0537   74.8005  217.5189 H   0  0  0  0  0  0  0  0  0  0  0  0
  143.6242   76.7022  216.0154 H   0  0  0  0  0  0  0  0  0  0  0  0
  142.5144   78.7652  216.8735 H   0  0  0  0  0  0  0  0  0  0  0  0
  142.2975   76.9429  220.7890 H   0  0  0  0  0  0  0  0  0  0  0  0
  138.0937   77.7101  222.6195 H   0  0  0  0  0  0  0  0  0  0  0  0
  138.4191   80.0357  223.4031 H   0  0  0  0  0  0  0  0  0  0  0  0
  139.9368   81.8335  223.9866 H   0  0  0  0  0  0  0  0  0  0  0  0
  142.2695   82.6538  224.2197 H   0  0  0  0  0  0  0  0  0  0  0  0
  144.1609   81.1496  223.6694 H   0  0  0  0  0  0  0  0  0  0  0  0
  143.7586   78.8247  222.8855 H   0  0  0  0  0  0  0  0  0  0  0  0
  1  2  2  0
  2  3  1  0
  3  4  1  0
  4  5  1  0
  5  6  2  0
  5  7  1  0
  7  8  1  0
  8  9  1  0
  9 10  1  0
 10 11  1  0
 11 12  1  0
 12 13  1  0
 13 14  2  0
 14 15  1  0
 15 16  2  0
 16 17  1  0
 17 18  1  0
 17 19  2  0
  2 20  1  0
 20 21  2  0
 21 22  1  0
 22 23  2  0
 23 24  1  0
 24 25  2  0
 25 26  1  0
 26 27  2  0
 27 28  1  0
 28 29  2  0
 12  7  1  0
 19 13  1  0
 29 20  1  0
 28 23  1  0
  3 30  1  0
  4 31  1  0
  4 32  1  0
  8 33  1  0
  8 34  1  0
  9 35  1  0
  9 36  1  0
 10 37  1  0
 10 38  1  0
 11 39  1  0
 11 40  1  0
 12 41  1  1
 14 42  1  0
 15 43  1  0
 16 44  1  0
 19 45  1  0
 21 46  1  0
 22 47  1  0
 24 48  1  0
 25 49  1  0
 26 50  1  0
 27 51  1  0
M  END
>  <smiles>  (97) 
O=C(NCC(=O)N1CCCCC1c1cccc(Br)c1)c1ccc2ccccc2n1

>  <score_type>  (97) 
oracle

>  <origin>  (97) 
autodockgpu

>  <m_score__min__energy>  (97) 
-9.4100000000000001

>  <m_primary>  (97) 
energy

>  <rmsd>  (97) 
7.63954704181305

>  <m_score__min__rmsd>  (97) 
7.63954704181305

>  <meeko>  (97) 
{"free_energy": -7.88, "intermolecular_energy": -9.37, "internal_energy": -2.78, "cluster_size": 6, "cluster_id": 6, "rank_in_cluster": 4}

>  <energy>  (97) 
-7.6

>  <cluster_rmsd>  (97) 
0.0

>  <cluster>  (97) 
7

$$$$

     RDKit          3D

 51 54  0  0  0  0  0  0  0  0999 V2000
  139.4370   71.0050  221.2990 O   0  0  0  0  0  0  0  0  0  0  0  0
  139.4250   71.7320  222.3390 C   0  0  0  0  0  0  0  0  0  0  0  0
  139.1200   73.1170  222.2110 N   0  0  0  0  0  0  0  0  0  0  0  0
  138.8390   73.6250  220.8970 C   0  0  0  0  0  0  0  0  0  0  0  0
  139.5360   74.9160  220.6770 C   0  0  0  0  0  0  0  0  0  0  0  0
  139.0140   76.0380  220.9210 O   0  0  0  0  0  0  0  0  0  0  0  0
  140.8630   74.9340  220.1650 N   0  0  0  0  0  0  0  0  0  0  0  0
  141.1720   74.2050  218.9490 C   0  0  0  0  0  0  0  0  0  0  0  0
  142.1930   73.1380  219.3290 C   0  0  0  0  0  0  0  0  0  0  0  0
  143.3270   73.7400  220.1280 C   0  0  0  0  0  0  0  0  0  0  0  0
  143.2260   75.2460  220.0700 C   0  0  0  0  0  0  0  0  0  0  0  0
  141.9500   75.6540  220.8000 C   0  0  1  0  0  0  0  0  0  0  0  0
  141.7890   77.1280  220.7340 C   0  0  0  0  0  0  0  0  0  0  0  0
  141.9690   77.8310  219.5450 C   0  0  0  0  0  0  0  0  0  0  0  0
  141.8190   79.2010  219.4850 C   0  0  0  0  0  0  0  0  0  0  0  0
  141.4800   79.9230  220.6190 C   0  0  0  0  0  0  0  0  0  0  0  0
  141.2960   79.2380  221.8180 C   0  0  0  0  0  0  0  0  0  0  0  0
  140.8260   80.1970  223.4170 Br  0  0  0  0  0  0  0  0  0  0  0  0
  141.4520   77.8480  221.8620 C   0  0  0  0  0  0  0  0  0  0  0  0
  139.7180   71.1670  223.6540 C   0  0  0  0  0  0  0  0  0  0  0  0
  139.4310   69.8410  223.8880 C   0  0  0  0  0  0  0  0  0  0  0  0
  139.6790   69.2380  225.1030 C   0  0  0  0  0  0  0  0  0  0  0  0
  140.2350   70.0010  226.1100 C   0  0  0  0  0  0  0  0  0  0  0  0
  140.5000   69.4320  227.3460 C   0  0  0  0  0  0  0  0  0  0  0  0
  141.0530   70.2110  228.3290 C   0  0  0  0  0  0  0  0  0  0  0  0
  141.3340   71.5440  228.0670 C   0  0  0  0  0  0  0  0  0  0  0  0
  141.0670   72.1100  226.8260 C   0  0  0  0  0  0  0  0  0  0  0  0
  140.5100   71.3270  225.8360 C   0  0  0  0  0  0  0  0  0  0  0  0
  140.2630   71.9010  224.6480 N   0  0  0  0  0  0  0  0  0  0  0  0
  139.1100   73.7230  223.0740 H   0  0  0  0  0  0  0  0  0  0  0  0
  139.1813   72.8968  220.1469 H   0  0  0  0  0  0  0  0  0  0  0  0
  137.7550   73.7864  220.8032 H   0  0  0  0  0  0  0  0  0  0  0  0
  140.2627   73.7343  218.5471 H   0  0  0  0  0  0  0  0  0  0  0  0
  141.5695   74.8765  218.1737 H   0  0  0  0  0  0  0  0  0  0  0  0
  141.6975   72.3637  219.9331 H   0  0  0  0  0  0  0  0  0  0  0  0
  142.6046   72.6999  218.4077 H   0  0  0  0  0  0  0  0  0  0  0  0
  143.2588   73.4061  221.1739 H   0  0  0  0  0  0  0  0  0  0  0  0
  144.2903   73.4162  219.7070 H   0  0  0  0  0  0  0  0  0  0  0  0
  144.0997   75.6992  220.5611 H   0  0  0  0  0  0  0  0  0  0  0  0
  143.1991   75.5903  219.0256 H   0  0  0  0  0  0  0  0  0  0  0  0
  141.9741   75.3988  221.8697 H   0  0  0  0  0  0  0  0  0  0  0  0
  142.2373   77.2802  218.6314 H   0  0  0  0  0  0  0  0  0  0  0  0
  141.9696   79.7249  218.5296 H   0  0  0  0  0  0  0  0  0  0  0  0
  141.3587   81.0153  220.5729 H   0  0  0  0  0  0  0  0  0  0  0  0
  141.3030   77.3188  222.8147 H   0  0  0  0  0  0  0  0  0  0  0  0
  138.9888   69.2422  223.0781 H   0  0  0  0  0  0  0  0  0  0  0  0
  139.4400   68.1766  225.2655 H   0  0  0  0  0  0  0  0  0  0  0  0
  140.2703   68.3729  227.5348 H   0  0  0  0  0  0  0  0  0  0  0  0
  141.2723   69.7824  229.3181 H   0  0  0  0  0  0  0  0  0  0  0  0
  141.7776   72.1662  228.8583 H   0  0  0  0  0  0  0  0  0  0  0  0
  141.2969   73.1687  226.6356 H   0  0  0  0  0  0  0  0  0  0  0  0
  1  2  2  0
  2  3  1  0
  3  4  1  0
  4  5  1  0
  5  6  2  0
  5  7  1  0
  7  8  1  0
  8  9  1  0
  9 10  1  0
 10 11  1  0
 11 12  1  0
 12 13  1  0
 13 14  2  0
 14 15  1  0
 15 16  2  0
 16 17  1  0
 17 18  1  0
 17 19  2  0
  2 20  1  0
 20 21  2  0
 21 22  1  0
 22 23  2  0
 23 24  1  0
 24 25  2  0
 25 26  1  0
 26 27  2  0
 27 28  1  0
 28 29  2  0
 12  7  1  0
 19 13  1  0
 29 20  1  0
 28 23  1  0
  3 30  1  0
  4 31  1  0
  4 32  1  0
  8 33  1  0
  8 34  1  0
  9 35  1  0
  9 36  1  0
 10 37  1  0
 10 38  1  0
 11 39  1  0
 11 40  1  0
 12 41  1  1
 14 42  1  0
 15 43  1  0
 16 44  1  0
 19 45  1  0
 21 46  1  0
 22 47  1  0
 24 48  1  0
 25 49  1  0
 26 50  1  0
 27 51  1  0
M  END
>  <smiles>  (98) 
O=C(NCC(=O)N1CCCCC1c1cccc(Br)c1)c1ccc2ccccc2n1

>  <score_type>  (98) 
oracle

>  <origin>  (98) 
autodockgpu

>  <m_score__min__energy>  (98) 
-9.4100000000000001

>  <m_primary>  (98) 
energy

>  <rmsd>  (98) 
2.0331449876638734

>  <m_score__min__rmsd>  (98) 
2.0331449876638734

>  <meeko>  (98) 
{"free_energy": -8.34, "intermolecular_energy": -9.84, "internal_energy": -1.75, "cluster_size": 6, "cluster_id": 1, "rank_in_cluster": 6}

>  <energy>  (98) 
-7.57

>  <cluster_rmsd>  (98) 
0.0

>  <cluster>  (98) 
8

$$$$

     RDKit          3D

 51 54  0  0  0  0  0  0  0  0999 V2000
  141.2700   71.6590  221.5190 O   0  0  0  0  0  0  0  0  0  0  0  0
  140.5560   72.1460  222.4480 C   0  0  0  0  0  0  0  0  0  0  0  0
  139.9980   73.4450  222.2800 N   0  0  0  0  0  0  0  0  0  0  0  0
  140.2750   74.1440  221.0570 C   0  0  0  0  0  0  0  0  0  0  0  0
  140.8570   75.4790  221.3390 C   0  0  0  0  0  0  0  0  0  0  0  0
  140.6380   76.1220  222.4020 O   0  0  0  0  0  0  0  0  0  0  0  0
  141.7120   76.1030  220.3880 N   0  0  0  0  0  0  0  0  0  0  0  0
  141.9620   77.5290  220.4780 C   0  0  0  0  0  0  0  0  0  0  0  0
  141.4190   78.1480  219.1950 C   0  0  0  0  0  0  0  0  0  0  0  0
  141.9150   77.3930  217.9810 C   0  0  0  0  0  0  0  0  0  0  0  0
  143.0010   76.4330  218.4080 C   0  0  0  0  0  0  0  0  0  0  0  0
  142.3620   75.3820  219.3110 C   0  0  1  0  0  0  0  0  0  0  0  0
  143.4030   74.4370  219.7870 C   0  0  0  0  0  0  0  0  0  0  0  0
  144.5450   74.8810  220.4480 C   0  0  0  0  0  0  0  0  0  0  0  0
  145.5120   74.0010  220.8910 C   0  0  0  0  0  0  0  0  0  0  0  0
  145.3700   72.6370  220.6870 C   0  0  0  0  0  0  0  0  0  0  0  0
  144.2340   72.1740  220.0270 C   0  0  0  0  0  0  0  0  0  0  0  0
  143.9930   70.2910  219.7220 Br  0  0  0  0  0  0  0  0  0  0  0  0
  143.2630   73.0790  219.5850 C   0  0  0  0  0  0  0  0  0  0  0  0
  140.3030   71.3950  223.6750 C   0  0  0  0  0  0  0  0  0  0  0  0
  139.6300   70.1960  223.5950 C   0  0  0  0  0  0  0  0  0  0  0  0
  139.3540   69.4320  224.7090 C   0  0  0  0  0  0  0  0  0  0  0  0
  139.7740   69.8950  225.9400 C   0  0  0  0  0  0  0  0  0  0  0  0
  139.5170   69.1560  227.0840 C   0  0  0  0  0  0  0  0  0  0  0  0
  139.9440   69.6380  228.2940 C   0  0  0  0  0  0  0  0  0  0  0  0
  140.6220   70.8470  228.3470 C   0  0  0  0  0  0  0  0  0  0  0  0
  140.8770   71.5850  227.1970 C   0  0  0  0  0  0  0  0  0  0  0  0
  140.4470   71.1010  225.9780 C   0  0  0  0  0  0  0  0  0  0  0  0
  140.7090   71.8350  224.8850 N   0  0  0  0  0  0  0  0  0  0  0  0
  139.4040   73.8520  223.0520 H   0  0  0  0  0  0  0  0  0  0  0  0
  140.9882   73.5577  220.4591 H   0  0  0  0  0  0  0  0  0  0  0  0
  139.3337   74.2772  220.5036 H   0  0  0  0  0  0  0  0  0  0  0  0
  141.4438   77.9508  221.3518 H   0  0  0  0  0  0  0  0  0  0  0  0
  143.0358   77.7369  220.5953 H   0  0  0  0  0  0  0  0  0  0  0  0
  140.3197   78.1146  219.2159 H   0  0  0  0  0  0  0  0  0  0  0  0
  141.7699   79.1885  219.1301 H   0  0  0  0  0  0  0  0  0  0  0  0
  141.0830   76.8318  217.5305 H   0  0  0  0  0  0  0  0  0  0  0  0
  142.3154   78.1015  217.2410 H   0  0  0  0  0  0  0  0  0  0  0  0
  143.4423   75.9493  217.5241 H   0  0  0  0  0  0  0  0  0  0  0  0
  143.7992   76.9676  218.9438 H   0  0  0  0  0  0  0  0  0  0  0  0
  141.6139   74.7702  218.7857 H   0  0  0  0  0  0  0  0  0  0  0  0
  144.6800   75.9588  220.6214 H   0  0  0  0  0  0  0  0  0  0  0  0
  146.4025   74.3851  221.4101 H   0  0  0  0  0  0  0  0  0  0  0  0
  146.1393   71.9342  221.0394 H   0  0  0  0  0  0  0  0  0  0  0  0
  142.3700   72.7006  219.0660 H   0  0  0  0  0  0  0  0  0  0  0  0
  139.3016   69.8357  222.6089 H   0  0  0  0  0  0  0  0  0  0  0  0
  138.8132   68.4783  224.6193 H   0  0  0  0  0  0  0  0  0  0  0  0
  138.9792   68.1984  227.0219 H   0  0  0  0  0  0  0  0  0  0  0  0
  139.7505   69.0703  229.2161 H   0  0  0  0  0  0  0  0  0  0  0  0
  140.9651   71.2298  229.3195 H   0  0  0  0  0  0  0  0  0  0  0  0
  141.4147   72.5427  227.2577 H   0  0  0  0  0  0  0  0  0  0  0  0
  1  2  2  0
  2  3  1  0
  3  4  1  0
  4  5  1  0
  5  6  2  0
  5  7  1  0
  7  8  1  0
  8  9  1  0
  9 10  1  0
 10 11  1  0
 11 12  1  0
 12 13  1  0
 13 14  2  0
 14 15  1  0
 15 16  2  0
 16 17  1  0
 17 18  1  0
 17 19  2  0
  2 20  1  0
 20 21  2  0
 21 22  1  0
 22 23  2  0
 23 24  1  0
 24 25  2  0
 25 26  1  0
 26 27  2  0
 27 28  1  0
 28 29  2  0
 12  7  1  0
 19 13  1  0
 29 20  1  0
 28 23  1  0
  3 30  1  0
  4 31  1  0
  4 32  1  0
  8 33  1  0
  8 34  1  0
  9 35  1  0
  9 36  1  0
 10 37  1  0
 10 38  1  0
 11 39  1  0
 11 40  1  0
 12 41  1  6
 14 42  1  0
 15 43  1  0
 16 44  1  0
 19 45  1  0
 21 46  1  0
 22 47  1  0
 24 48  1  0
 25 49  1  0
 26 50  1  0
 27 51  1  0
M  END
>  <smiles>  (99) 
O=C(NCC(=O)N1CCCCC1c1cccc(Br)c1)c1ccc2ccccc2n1

>  <score_type>  (99) 
oracle

>  <origin>  (99) 
autodockgpu

>  <m_score__min__energy>  (99) 
-9.4100000000000001

>  <m_primary>  (99) 
energy

>  <rmsd>  (99) 
2.382617618490365

>  <m_score__min__rmsd>  (99) 
2.382617618490365

>  <meeko>  (99) 
{"free_energy": -9.2, "intermolecular_energy": -10.7, "internal_energy": -1.99, "cluster_size": 25, "cluster_id": 2, "rank_in_cluster": 2}

>  <energy>  (99) 
-7.55

>  <cluster_rmsd>  (99) 
0.08

>  <cluster>  (99) 
8

$$$$

     RDKit          3D

 51 54  0  0  0  0  0  0  0  0999 V2000
  141.1660   74.0780  221.0020 O   0  0  0  0  0  0  0  0  0  0  0  0
  140.2480   74.4110  221.8130 C   0  0  0  0  0  0  0  0  0  0  0  0
  139.4120   73.3980  222.3620 N   0  0  0  0  0  0  0  0  0  0  0  0
  139.6520   72.0380  221.9670 C   0  0  0  0  0  0  0  0  0  0  0  0
  138.8490   71.1040  222.7930 C   0  0  0  0  0  0  0  0  0  0  0  0
  137.9870   71.4850  223.6330 O   0  0  0  0  0  0  0  0  0  0  0  0
  139.0280   69.6990  222.6640 N   0  0  0  0  0  0  0  0  0  0  0  0
  139.6780   69.1660  221.4820 C   0  0  0  0  0  0  0  0  0  0  0  0
  138.6500   68.2880  220.7780 C   0  0  0  0  0  0  0  0  0  0  0  0
  138.0050   67.3280  221.7540 C   0  0  0  0  0  0  0  0  0  0  0  0
  138.7710   67.3600  223.0560 C   0  0  0  0  0  0  0  0  0  0  0  0
  138.5900   68.7470  223.6660 C   0  0  1  0  0  0  0  0  0  0  0  0
  139.3600   68.8380  224.9320 C   0  0  0  0  0  0  0  0  0  0  0  0
  139.6790   67.7050  225.6760 C   0  0  0  0  0  0  0  0  0  0  0  0
  140.3950   67.7900  226.8530 C   0  0  0  0  0  0  0  0  0  0  0  0
  140.8220   69.0210  227.3300 C   0  0  0  0  0  0  0  0  0  0  0  0
  140.5110   70.1660  226.5990 C   0  0  0  0  0  0  0  0  0  0  0  0
  141.0810   71.8930  227.2220 Br  0  0  0  0  0  0  0  0  0  0  0  0
  139.7840   70.0610  225.4080 C   0  0  0  0  0  0  0  0  0  0  0  0
  140.0430   75.8090  222.1840 C   0  0  0  0  0  0  0  0  0  0  0  0
  138.7560   76.2880  222.2840 C   0  0  0  0  0  0  0  0  0  0  0  0
  138.4840   77.5960  222.6290 C   0  0  0  0  0  0  0  0  0  0  0  0
  139.5450   78.4400  222.8810 C   0  0  0  0  0  0  0  0  0  0  0  0
  139.3130   79.7620  223.2300 C   0  0  0  0  0  0  0  0  0  0  0  0
  140.3850   80.5800  223.4750 C   0  0  0  0  0  0  0  0  0  0  0  0
  141.6710   80.0720  223.3680 C   0  0  0  0  0  0  0  0  0  0  0  0
  141.8990   78.7460  223.0170 C   0  0  0  0  0  0  0  0  0  0  0  0
  140.8210   77.9210  222.7700 C   0  0  0  0  0  0  0  0  0  0  0  0
  141.0720   76.6460  222.4330 N   0  0  0  0  0  0  0  0  0  0  0  0
  138.6480   73.6730  223.0360 H   0  0  0  0  0  0  0  0  0  0  0  0
  139.3751   71.9146  220.9096 H   0  0  0  0  0  0  0  0  0  0  0  0
  140.7186   71.8104  222.1106 H   0  0  0  0  0  0  0  0  0  0  0  0
  139.9936   69.9860  220.8201 H   0  0  0  0  0  0  0  0  0  0  0  0
  140.5758   68.5892  221.7491 H   0  0  0  0  0  0  0  0  0  0  0  0
  137.8728   68.9276  220.3343 H   0  0  0  0  0  0  0  0  0  0  0  0
  139.1596   67.7063  219.9958 H   0  0  0  0  0  0  0  0  0  0  0  0
  136.9621   67.6290  221.9324 H   0  0  0  0  0  0  0  0  0  0  0  0
  138.0214   66.3096  221.3386 H   0  0  0  0  0  0  0  0  0  0  0  0
  138.3773   66.5949  223.7413 H   0  0  0  0  0  0  0  0  0  0  0  0
  139.8369   67.1517  222.8815 H   0  0  0  0  0  0  0  0  0  0  0  0
  137.5438   68.9597  223.9311 H   0  0  0  0  0  0  0  0  0  0  0  0
  139.3523   66.7179  225.3169 H   0  0  0  0  0  0  0  0  0  0  0  0
  140.6288   66.8750  227.4170 H   0  0  0  0  0  0  0  0  0  0  0  0
  141.3946   69.0917  228.2665 H   0  0  0  0  0  0  0  0  0  0  0  0
  139.5458   70.9723  224.8399 H   0  0  0  0  0  0  0  0  0  0  0  0
  137.9172   75.6056  222.0822 H   0  0  0  0  0  0  0  0  0  0  0  0
  137.4472   77.9563  222.7012 H   0  0  0  0  0  0  0  0  0  0  0  0
  138.2858   80.1476  223.3088 H   0  0  0  0  0  0  0  0  0  0  0  0
  140.2265   81.6320  223.7546 H   0  0  0  0  0  0  0  0  0  0  0  0
  142.5287   80.7319  223.5649 H   0  0  0  0  0  0  0  0  0  0  0  0
  142.9258   78.3596  222.9372 H   0  0  0  0  0  0  0  0  0  0  0  0
  1  2  2  0
  2  3  1  0
  3  4  1  0
  4  5  1  0
  5  6  2  0
  5  7  1  0
  7  8  1  0
  8  9  1  0
  9 10  1  0
 10 11  1  0
 11 12  1  0
 12 13  1  0
 13 14  2  0
 14 15  1  0
 15 16  2  0
 16 17  1  0
 17 18  1  0
 17 19  2  0
  2 20  1  0
 20 21  2  0
 21 22  1  0
 22 23  2  0
 23 24  1  0
 24 25  2  0
 25 26  1  0
 26 27  2  0
 27 28  1  0
 28 29  2  0
 12  7  1  0
 19 13  1  0
 29 20  1  0
 28 23  1  0
  3 30  1  0
  4 31  1  0
  4 32  1  0
  8 33  1  0
  8 34  1  0
  9 35  1  0
  9 36  1  0
 10 37  1  0
 10 38  1  0
 11 39  1  0
 11 40  1  0
 12 41  1  1
 14 42  1  0
 15 43  1  0
 16 44  1  0
 19 45  1  0
 21 46  1  0
 22 47  1  0
 24 48  1  0
 25 49  1  0
 26 50  1  0
 27 51  1  0
M  END
>  <smiles>  (100) 
O=C(NCC(=O)N1CCCCC1c1cccc(Br)c1)c1ccc2ccccc2n1

>  <score_type>  (100) 
oracle

>  <origin>  (100) 
autodockgpu

>  <m_score__min__energy>  (100) 
-9.4100000000000001

>  <m_primary>  (100) 
energy

>  <rmsd>  (100) 
8.201234900198118

>  <m_score__min__rmsd>  (100) 
8.201234900198118

>  <meeko>  (100) 
{"free_energy": -9.18, "intermolecular_energy": -10.67, "internal_energy": -1.61, "cluster_size": 7, "cluster_id": 3, "rank_in_cluster": 2}

>  <energy>  (100) 
-7.53

>  <cluster_rmsd>  (100) 
0.08

>  <cluster>  (100) 
8

$$$$
