
     RDKit          3D

 56 59  0  0  0  0  0  0  0  0999 V2000
  138.6810   77.7350  220.1450 C   0  0  0  0  0  0  0  0  0  0  0  0
  138.4490   77.2030  221.4970 N   0  0  0  0  0  0  0  0  0  0  0  0
  138.4250   78.0550  222.6350 C   0  0  0  0  0  0  0  0  0  0  0  0
  139.2460   79.2580  222.6400 C   0  0  0  0  0  0  0  0  0  0  0  0
  138.5650   80.3650  222.5320 O   0  0  0  0  0  0  0  0  0  0  0  0
  140.6290   79.3880  222.7390 N   0  0  0  0  0  0  0  0  0  0  0  0
  141.6240   78.9440  223.6720 C   0  0  0  0  0  0  0  0  0  0  0  0
  142.4460   80.2290  223.8650 C   0  0  0  0  0  0  0  0  0  0  0  0
  142.6170   80.6580  222.4420 C   0  0  0  0  0  0  0  0  0  0  0  0
  141.4270   80.1320  221.7250 C   0  0  1  0  0  0  0  0  0  0  0  0
  141.8230   79.1830  220.6620 C   0  0  0  0  0  0  0  0  0  0  0  0
  142.1630   79.5600  219.4210 N   0  0  0  0  0  0  0  0  0  0  0  0
  142.5170   78.6440  218.4890 C   0  0  0  0  0  0  0  0  0  0  0  0
  142.5340   77.3050  218.7940 C   0  0  0  0  0  0  0  0  0  0  0  0
  142.1840   76.9140  220.0710 C   0  0  0  0  0  0  0  0  0  0  0  0
  141.8430   77.8820  220.9480 N   0  0  0  0  0  0  0  0  0  0  0  0
  138.2360   75.7800  221.6560 C   0  0  0  0  0  0  0  0  0  0  0  0
  137.1400   75.4090  222.1410 O   0  0  0  0  0  0  0  0  0  0  0  0
  139.2780   74.8360  221.2550 C   0  0  0  0  0  0  0  0  0  0  0  0
  139.4660   73.8810  222.3400 N   0  0  0  0  0  0  0  0  0  0  0  0
  139.4970   72.5050  222.0260 C   0  0  0  0  0  0  0  0  0  0  0  0
  139.3650   72.1010  220.8400 O   0  0  0  0  0  0  0  0  0  0  0  0
  139.6840   71.5080  223.0890 C   0  0  0  0  0  0  0  0  0  0  0  0
  139.3660   70.1990  222.8960 C   0  0  0  0  0  0  0  0  0  0  0  0
  139.5570   69.2850  223.9240 C   0  0  0  0  0  0  0  0  0  0  0  0
  140.0700   69.7010  225.1430 C   0  0  0  0  0  0  0  0  0  0  0  0
  140.2660   68.7960  226.1850 C   0  0  0  0  0  0  0  0  0  0  0  0
  140.7810   69.2910  227.3660 C   0  0  0  0  0  0  0  0  0  0  0  0
  141.0500   68.2090  228.7040 Cl  0  0  0  0  0  0  0  0  0  0  0  0
  141.0850   70.6230  227.5060 C   0  0  0  0  0  0  0  0  0  0  0  0
  140.8870   71.5030  226.4760 C   0  0  0  0  0  0  0  0  0  0  0  0
  140.3750   71.0350  225.2870 C   0  0  0  0  0  0  0  0  0  0  0  0
  140.1780   71.8880  224.2730 N   0  0  0  0  0  0  0  0  0  0  0  0
  139.1198   78.7411  220.2172 H   0  0  0  0  0  0  0  0  0  0  0  0
  139.3716   77.0718  219.6035 H   0  0  0  0  0  0  0  0  0  0  0  0
  137.7251   77.7898  219.6035 H   0  0  0  0  0  0  0  0  0  0  0  0
  137.3823   78.3770  222.7733 H   0  0  0  0  0  0  0  0  0  0  0  0
  138.8619   77.4371  223.4333 H   0  0  0  0  0  0  0  0  0  0  0  0
  141.1703   78.6098  224.6167 H   0  0  0  0  0  0  0  0  0  0  0  0
  142.2112   78.0794  223.3289 H   0  0  0  0  0  0  0  0  0  0  0  0
  141.8958   80.9790  224.4522 H   0  0  0  0  0  0  0  0  0  0  0  0
  143.3863   80.0933  224.4195 H   0  0  0  0  0  0  0  0  0  0  0  0
  142.6541   81.7552  222.3727 H   0  0  0  0  0  0  0  0  0  0  0  0
  143.5550   80.2786  222.0105 H   0  0  0  0  0  0  0  0  0  0  0  0
  140.8683   80.9570  221.2589 H   0  0  0  0  0  0  0  0  0  0  0  0
  142.7938   78.9755  217.4773 H   0  0  0  0  0  0  0  0  0  0  0  0
  142.8203   76.5600  218.0370 H   0  0  0  0  0  0  0  0  0  0  0  0
  142.1830   75.8534  220.3629 H   0  0  0  0  0  0  0  0  0  0  0  0
  138.9698   74.3064  220.3415 H   0  0  0  0  0  0  0  0  0  0  0  0
  140.2177   75.3700  221.0504 H   0  0  0  0  0  0  0  0  0  0  0  0
  139.5790   74.1860  223.3390 H   0  0  0  0  0  0  0  0  0  0  0  0
  138.9593   69.8662  221.9296 H   0  0  0  0  0  0  0  0  0  0  0  0
  139.3002   68.2265  223.7704 H   0  0  0  0  0  0  0  0  0  0  0  0
  140.0201   67.7300  226.0706 H   0  0  0  0  0  0  0  0  0  0  0  0
  141.4936   70.9882  228.4598 H   0  0  0  0  0  0  0  0  0  0  0  0
  141.1334   72.5682  226.5968 H   0  0  0  0  0  0  0  0  0  0  0  0
  1  2  1  0
  2  3  1  0
  3  4  1  0
  4  5  2  0
  4  6  1  0
  6  7  1  0
  7  8  1  0
  8  9  1  0
  9 10  1  0
 10 11  1  0
 11 12  2  0
 12 13  1  0
 13 14  2  0
 14 15  1  0
 15 16  2  0
  2 17  1  0
 17 18  2  0
 17 19  1  0
 19 20  1  0
 20 21  1  0
 21 22  2  0
 21 23  1  0
 23 24  2  0
 24 25  1  0
 25 26  2  0
 26 27  1  0
 27 28  2  0
 28 29  1  0
 28 30  1  0
 30 31  2  0
 31 32  1  0
 32 33  2  0
 10  6  1  0
 16 11  1  0
 33 23  1  0
 32 26  1  0
  1 34  1  0
  1 35  1  0
  1 36  1  0
  3 37  1  0
  3 38  1  0
  7 39  1  0
  7 40  1  0
  8 41  1  0
  8 42  1  0
  9 43  1  0
  9 44  1  0
 10 45  1  6
 13 46  1  0
 14 47  1  0
 15 48  1  0
 19 49  1  0
 19 50  1  0
 20 51  1  0
 24 52  1  0
 25 53  1  0
 27 54  1  0
 30 55  1  0
 31 56  1  0
M  END
>  <smiles>  (1) 
CN(CC(=O)N1CCC[C@H]1c1ncccn1)C(=O)CNC(=O)c1ccc2cc(Cl)ccc2n1

>  <score_type>  (1) 
oracle

>  <origin>  (1) 
autodockgpu

>  <m_score__min__energy>  (1) 
-8.5

>  <m_primary>  (1) 
energy

>  <rmsd>  (1) 
2.662218381238754

>  <m_score__min__rmsd>  (1) 
2.662218381238754

>  <meeko>  (1) 
{"free_energy": -8.07, "intermolecular_energy": -10.45, "internal_energy": -2.3, "cluster_size": 15, "cluster_id": 2, "rank_in_cluster": 5}

>  <energy>  (1) 
-8.5

>  <cluster_rmsd>  (1) 
0.0

>  <cluster>  (1) 
1

$$$$

     RDKit          3D

 56 59  0  0  0  0  0  0  0  0999 V2000
  138.9430   70.2080  223.2680 C   0  0  0  0  0  0  0  0  0  0  0  0
  138.9610   71.2450  222.2250 N   0  0  0  0  0  0  0  0  0  0  0  0
  140.0770   71.4070  221.3600 C   0  0  0  0  0  0  0  0  0  0  0  0
  140.8680   72.6280  221.4410 C   0  0  0  0  0  0  0  0  0  0  0  0
  140.5900   73.3720  222.4750 O   0  0  0  0  0  0  0  0  0  0  0  0
  141.8580   73.1020  220.5840 N   0  0  0  0  0  0  0  0  0  0  0  0
  142.4380   72.6450  219.3530 C   0  0  0  0  0  0  0  0  0  0  0  0
  143.9360   72.8290  219.6430 C   0  0  0  0  0  0  0  0  0  0  0  0
  143.9330   74.2060  220.2260 C   0  0  0  0  0  0  0  0  0  0  0  0
  142.5970   74.3670  220.8530 C   0  0  1  0  0  0  0  0  0  0  0  0
  141.8470   75.4810  220.2310 C   0  0  0  0  0  0  0  0  0  0  0  0
  140.5760   75.3790  219.8180 N   0  0  0  0  0  0  0  0  0  0  0  0
  139.9420   76.4350  219.2550 C   0  0  0  0  0  0  0  0  0  0  0  0
  140.5890   77.6360  219.0950 C   0  0  0  0  0  0  0  0  0  0  0  0
  141.8970   77.7430  219.5200 C   0  0  0  0  0  0  0  0  0  0  0  0
  142.4660   76.6490  220.0720 N   0  0  0  0  0  0  0  0  0  0  0  0
  137.8070   72.1090  222.0850 C   0  0  0  0  0  0  0  0  0  0  0  0
  136.9330   72.0570  222.9840 O   0  0  0  0  0  0  0  0  0  0  0  0
  137.6950   72.9970  220.9290 C   0  0  0  0  0  0  0  0  0  0  0  0
  138.3270   74.2650  221.2700 N   0  0  0  0  0  0  0  0  0  0  0  0
  137.5480   75.2540  221.9100 C   0  0  0  0  0  0  0  0  0  0  0  0
  136.3340   75.0550  222.1840 O   0  0  0  0  0  0  0  0  0  0  0  0
  138.1450   76.5470  222.2710 C   0  0  0  0  0  0  0  0  0  0  0  0
  137.3780   77.6560  222.4490 C   0  0  0  0  0  0  0  0  0  0  0  0
  137.9780   78.8610  222.7910 C   0  0  0  0  0  0  0  0  0  0  0  0
  139.3520   78.9370  222.9520 C   0  0  0  0  0  0  0  0  0  0  0  0
  139.9690   80.1390  223.2930 C   0  0  0  0  0  0  0  0  0  0  0  0
  141.3420   80.1290  223.4340 C   0  0  0  0  0  0  0  0  0  0  0  0
  142.1710   81.6000  223.8620 Cl  0  0  0  0  0  0  0  0  0  0  0  0
  142.0690   78.9790  223.2430 C   0  0  0  0  0  0  0  0  0  0  0  0
  141.4530   77.8040  222.9070 C   0  0  0  0  0  0  0  0  0  0  0  0
  140.0830   77.7860  222.7600 C   0  0  0  0  0  0  0  0  0  0  0  0
  139.4700   76.6420  222.4320 N   0  0  0  0  0  0  0  0  0  0  0  0
  138.9513   70.6848  224.2593 H   0  0  0  0  0  0  0  0  0  0  0  0
  138.0341   69.5974  223.1624 H   0  0  0  0  0  0  0  0  0  0  0  0
  139.8301   69.5663  223.1624 H   0  0  0  0  0  0  0  0  0  0  0  0
  140.7604   70.5678  221.5565 H   0  0  0  0  0  0  0  0  0  0  0  0
  139.6264   71.4533  220.3576 H   0  0  0  0  0  0  0  0  0  0  0  0
  142.1916   71.5908  219.1581 H   0  0  0  0  0  0  0  0  0  0  0  0
  142.0818   73.1796  218.4600 H   0  0  0  0  0  0  0  0  0  0  0  0
  144.3048   72.0838  220.3632 H   0  0  0  0  0  0  0  0  0  0  0  0
  144.5913   72.7026  218.7686 H   0  0  0  0  0  0  0  0  0  0  0  0
  144.7268   74.3058  220.9810 H   0  0  0  0  0  0  0  0  0  0  0  0
  144.1206   74.9740  219.4611 H   0  0  0  0  0  0  0  0  0  0  0  0
  142.7050   74.5820  221.9264 H   0  0  0  0  0  0  0  0  0  0  0  0
  138.8987   76.3299  218.9226 H   0  0  0  0  0  0  0  0  0  0  0  0
  140.0750   78.4943  218.6377 H   0  0  0  0  0  0  0  0  0  0  0  0
  142.4561   78.6843  219.4134 H   0  0  0  0  0  0  0  0  0  0  0  0
  138.2034   72.5479  220.0631 H   0  0  0  0  0  0  0  0  0  0  0  0
  136.6375   73.1553  220.6707 H   0  0  0  0  0  0  0  0  0  0  0  0
  139.3370   74.4620  221.0550 H   0  0  0  0  0  0  0  0  0  0  0  0
  136.2868   77.5988  222.3226 H   0  0  0  0  0  0  0  0  0  0  0  0
  137.3594   79.7592  222.9347 H   0  0  0  0  0  0  0  0  0  0  0  0
  139.3852   81.0590  223.4438 H   0  0  0  0  0  0  0  0  0  0  0  0
  143.1623   79.0030  223.3619 H   0  0  0  0  0  0  0  0  0  0  0  0
  142.0427   76.8877  222.7565 H   0  0  0  0  0  0  0  0  0  0  0  0
  1  2  1  0
  2  3  1  0
  3  4  1  0
  4  5  2  0
  4  6  1  0
  6  7  1  0
  7  8  1  0
  8  9  1  0
  9 10  1  0
 10 11  1  0
 11 12  2  0
 12 13  1  0
 13 14  2  0
 14 15  1  0
 15 16  2  0
  2 17  1  0
 17 18  2  0
 17 19  1  0
 19 20  1  0
 20 21  1  0
 21 22  2  0
 21 23  1  0
 23 24  2  0
 24 25  1  0
 25 26  2  0
 26 27  1  0
 27 28  2  0
 28 29  1  0
 28 30  1  0
 30 31  2  0
 31 32  1  0
 32 33  2  0
 10  6  1  0
 16 11  1  0
 33 23  1  0
 32 26  1  0
  1 34  1  0
  1 35  1  0
  1 36  1  0
  3 37  1  0
  3 38  1  0
  7 39  1  0
  7 40  1  0
  8 41  1  0
  8 42  1  0
  9 43  1  0
  9 44  1  0
 10 45  1  1
 13 46  1  0
 14 47  1  0
 15 48  1  0
 19 49  1  0
 19 50  1  0
 20 51  1  0
 24 52  1  0
 25 53  1  0
 27 54  1  0
 30 55  1  0
 31 56  1  0
M  END
>  <smiles>  (2) 
CN(CC(=O)N1CCC[C@H]1c1ncccn1)C(=O)CNC(=O)c1ccc2cc(Cl)ccc2n1

>  <score_type>  (2) 
oracle

>  <origin>  (2) 
autodockgpu

>  <m_score__min__energy>  (2) 
-8.5

>  <m_primary>  (2) 
energy

>  <rmsd>  (2) 
7.565412352446698

>  <m_score__min__rmsd>  (2) 
7.565412352446698

>  <meeko>  (2) 
{"free_energy": -5.4, "intermolecular_energy": -7.79, "internal_energy": -4.85, "cluster_size": 4, "cluster_id": 8, "rank_in_cluster": 2}

>  <energy>  (2) 
-8.5

>  <cluster_rmsd>  (2) 
0.13

>  <cluster>  (2) 
1

$$$$

     RDKit          3D

 56 59  0  0  0  0  0  0  0  0999 V2000
  138.6840   72.5490  218.4340 C   0  0  0  0  0  0  0  0  0  0  0  0
  140.0930   72.1280  218.4340 N   0  0  0  0  0  0  0  0  0  0  0  0
  140.4570   70.7550  218.3810 C   0  0  0  0  0  0  0  0  0  0  0  0
  141.6930   70.3210  219.0200 C   0  0  0  0  0  0  0  0  0  0  0  0
  141.5480   69.9600  220.2640 O   0  0  0  0  0  0  0  0  0  0  0  0
  142.9810   70.2430  218.4960 N   0  0  0  0  0  0  0  0  0  0  0  0
  143.5410   70.2460  217.1750 C   0  0  0  0  0  0  0  0  0  0  0  0
  144.5340   69.0760  217.2700 C   0  0  0  0  0  0  0  0  0  0  0  0
  145.1990   69.3890  218.5730 C   0  0  0  0  0  0  0  0  0  0  0  0
  144.1810   70.1220  219.3690 C   0  0  1  0  0  0  0  0  0  0  0  0
  144.6480   71.4850  219.7040 C   0  0  0  0  0  0  0  0  0  0  0  0
  145.5960   72.1350  219.0150 N   0  0  0  0  0  0  0  0  0  0  0  0
  145.9830   73.3830  219.3700 C   0  0  0  0  0  0  0  0  0  0  0  0
  145.4100   74.0120  220.4480 C   0  0  0  0  0  0  0  0  0  0  0  0
  144.4330   73.3460  221.1600 C   0  0  0  0  0  0  0  0  0  0  0  0
  144.0990   72.1040  220.7480 N   0  0  0  0  0  0  0  0  0  0  0  0
  141.1220   73.1460  218.4840 C   0  0  0  0  0  0  0  0  0  0  0  0
  141.6580   73.4820  217.4000 O   0  0  0  0  0  0  0  0  0  0  0  0
  141.4990   73.7420  219.7650 C   0  0  0  0  0  0  0  0  0  0  0  0
  141.3690   72.7200  220.7960 N   0  0  0  0  0  0  0  0  0  0  0  0
  140.5020   72.9680  221.8830 C   0  0  0  0  0  0  0  0  0  0  0  0
  139.8520   74.0440  221.9690 O   0  0  0  0  0  0  0  0  0  0  0  0
  140.3410   71.9660  222.9440 C   0  0  0  0  0  0  0  0  0  0  0  0
  139.7930   70.7470  222.6910 C   0  0  0  0  0  0  0  0  0  0  0  0
  139.6570   69.8240  223.7210 C   0  0  0  0  0  0  0  0  0  0  0  0
  140.0780   70.1420  225.0020 C   0  0  0  0  0  0  0  0  0  0  0  0
  139.9480   69.2270  226.0460 C   0  0  0  0  0  0  0  0  0  0  0  0
  140.3910   69.6210  227.2930 C   0  0  0  0  0  0  0  0  0  0  0  0
  140.2570   68.5220  228.6370 Cl  0  0  0  0  0  0  0  0  0  0  0  0
  140.9380   70.8650  227.4930 C   0  0  0  0  0  0  0  0  0  0  0  0
  141.0610   71.7550  226.4610 C   0  0  0  0  0  0  0  0  0  0  0  0
  140.6250   71.3880  225.2070 C   0  0  0  0  0  0  0  0  0  0  0  0
  140.7410   72.2510  224.1890 N   0  0  0  0  0  0  0  0  0  0  0  0
  138.3327   72.6540  219.4711 H   0  0  0  0  0  0  0  0  0  0  0  0
  138.5898   73.5145  217.9155 H   0  0  0  0  0  0  0  0  0  0  0  0
  138.0756   71.7934  217.9155 H   0  0  0  0  0  0  0  0  0  0  0  0
  139.6380   70.1874  218.8469 H   0  0  0  0  0  0  0  0  0  0  0  0
  140.6385   70.5740  217.3113 H   0  0  0  0  0  0  0  0  0  0  0  0
  142.7719   70.0612  216.4106 H   0  0  0  0  0  0  0  0  0  0  0  0
  143.9967   71.2026  216.8796 H   0  0  0  0  0  0  0  0  0  0  0  0
  144.0168   68.1057  217.3007 H   0  0  0  0  0  0  0  0  0  0  0  0
  145.2200   68.9860  216.4149 H   0  0  0  0  0  0  0  0  0  0  0  0
  145.4950   68.4623  219.0865 H   0  0  0  0  0  0  0  0  0  0  0  0
  146.1143   69.9828  218.4330 H   0  0  0  0  0  0  0  0  0  0  0  0
  143.9765   69.5877  220.3085 H   0  0  0  0  0  0  0  0  0  0  0  0
  146.7632   73.8976  218.7899 H   0  0  0  0  0  0  0  0  0  0  0  0
  145.7233   75.0258  220.7380 H   0  0  0  0  0  0  0  0  0  0  0  0
  143.9449   73.8093  222.0301 H   0  0  0  0  0  0  0  0  0  0  0  0
  142.5396   74.0956  219.7198 H   0  0  0  0  0  0  0  0  0  0  0  0
  140.8474   74.5984  219.9932 H   0  0  0  0  0  0  0  0  0  0  0  0
  141.8970   71.8130  220.7530 H   0  0  0  0  0  0  0  0  0  0  0  0
  139.4586   70.4926  221.6744 H   0  0  0  0  0  0  0  0  0  0  0  0
  139.2137   68.8379  223.5185 H   0  0  0  0  0  0  0  0  0  0  0  0
  139.5101   68.2312  225.8828 H   0  0  0  0  0  0  0  0  0  0  0  0
  141.2824   71.1501  228.4980 H   0  0  0  0  0  0  0  0  0  0  0  0
  141.5015   72.7487  226.6303 H   0  0  0  0  0  0  0  0  0  0  0  0
  1  2  1  0
  2  3  1  0
  3  4  1  0
  4  5  2  0
  4  6  1  0
  6  7  1  0
  7  8  1  0
  8  9  1  0
  9 10  1  0
 10 11  1  0
 11 12  2  0
 12 13  1  0
 13 14  2  0
 14 15  1  0
 15 16  2  0
  2 17  1  0
 17 18  2  0
 17 19  1  0
 19 20  1  0
 20 21  1  0
 21 22  2  0
 21 23  1  0
 23 24  2  0
 24 25  1  0
 25 26  2  0
 26 27  1  0
 27 28  2  0
 28 29  1  0
 28 30  1  0
 30 31  2  0
 31 32  1  0
 32 33  2  0
 10  6  1  0
 16 11  1  0
 33 23  1  0
 32 26  1  0
  1 34  1  0
  1 35  1  0
  1 36  1  0
  3 37  1  0
  3 38  1  0
  7 39  1  0
  7 40  1  0
  8 41  1  0
  8 42  1  0
  9 43  1  0
  9 44  1  0
 10 45  1  1
 13 46  1  0
 14 47  1  0
 15 48  1  0
 19 49  1  0
 19 50  1  0
 20 51  1  0
 24 52  1  0
 25 53  1  0
 27 54  1  0
 30 55  1  0
 31 56  1  0
M  END
>  <smiles>  (3) 
CN(CC(=O)N1CCC[C@H]1c1ncccn1)C(=O)CNC(=O)c1ccc2cc(Cl)ccc2n1

>  <score_type>  (3) 
oracle

>  <origin>  (3) 
autodockgpu

>  <m_score__min__energy>  (3) 
-8.5

>  <m_primary>  (3) 
energy

>  <rmsd>  (3) 
6.24971281311813

>  <m_score__min__rmsd>  (3) 
6.24971281311813

>  <meeko>  (3) 
{"free_energy": -6.34, "intermolecular_energy": -8.73, "internal_energy": -4.11, "cluster_size": 1, "cluster_id": 6, "rank_in_cluster": 1}

>  <energy>  (3) 
-8.42

>  <cluster_rmsd>  (3) 
0.81

>  <cluster>  (3) 
1

$$$$

     RDKit          3D

 56 59  0  0  0  0  0  0  0  0999 V2000
  138.1090   83.4850  221.9730 C   0  0  0  0  0  0  0  0  0  0  0  0
  137.8240   82.0540  222.1620 N   0  0  0  0  0  0  0  0  0  0  0  0
  138.2160   81.3690  223.3440 C   0  0  0  0  0  0  0  0  0  0  0  0
  138.8620   80.0680  223.2310 C   0  0  0  0  0  0  0  0  0  0  0  0
  138.0380   79.0600  223.3030 O   0  0  0  0  0  0  0  0  0  0  0  0
  140.2090   79.7580  223.0600 N   0  0  0  0  0  0  0  0  0  0  0  0
  140.9760   78.5460  223.0410 C   0  0  0  0  0  0  0  0  0  0  0  0
  142.1600   78.9280  223.9450 C   0  0  0  0  0  0  0  0  0  0  0  0
  142.5080   80.2700  223.3830 C   0  0  0  0  0  0  0  0  0  0  0  0
  141.2380   80.8100  222.8340 C   0  0  1  0  0  0  0  0  0  0  0  0
  141.3450   81.0470  221.3780 C   0  0  0  0  0  0  0  0  0  0  0  0
  141.9730   80.2150  220.5360 N   0  0  0  0  0  0  0  0  0  0  0  0
  142.0390   80.4860  219.2110 C   0  0  0  0  0  0  0  0  0  0  0  0
  141.4610   81.6230  218.6990 C   0  0  0  0  0  0  0  0  0  0  0  0
  140.8140   82.4810  219.5650 C   0  0  0  0  0  0  0  0  0  0  0  0
  140.7880   82.1470  220.8730 N   0  0  0  0  0  0  0  0  0  0  0  0
  137.1220   81.3420  221.1140 C   0  0  0  0  0  0  0  0  0  0  0  0
  135.9550   80.9520  221.3610 O   0  0  0  0  0  0  0  0  0  0  0  0
  137.7750   81.1040  219.8280 C   0  0  0  0  0  0  0  0  0  0  0  0
  138.7860   80.0720  220.0180 N   0  0  0  0  0  0  0  0  0  0  0  0
  138.3590   78.7370  220.1920 C   0  0  0  0  0  0  0  0  0  0  0  0
  137.1360   78.4350  220.1840 O   0  0  0  0  0  0  0  0  0  0  0  0
  139.3440   77.6650  220.3870 C   0  0  0  0  0  0  0  0  0  0  0  0
  139.0440   76.5490  221.1050 C   0  0  0  0  0  0  0  0  0  0  0  0
  140.0020   75.5560  221.2680 C   0  0  0  0  0  0  0  0  0  0  0  0
  141.2580   75.6980  220.7010 C   0  0  0  0  0  0  0  0  0  0  0  0
  142.2300   74.7100  220.8570 C   0  0  0  0  0  0  0  0  0  0  0  0
  143.4560   74.9280  220.2600 C   0  0  0  0  0  0  0  0  0  0  0  0
  144.7100   73.7300  220.4170 Cl  0  0  0  0  0  0  0  0  0  0  0  0
  143.7050   76.0730  219.5450 C   0  0  0  0  0  0  0  0  0  0  0  0
  142.7440   77.0370  219.3990 C   0  0  0  0  0  0  0  0  0  0  0  0
  141.5120   76.8440  219.9840 C   0  0  0  0  0  0  0  0  0  0  0  0
  140.5630   77.7800  219.8480 N   0  0  0  0  0  0  0  0  0  0  0  0
  138.2060   83.9723  222.9544 H   0  0  0  0  0  0  0  0  0  0  0  0
  139.0479   83.6009  221.4117 H   0  0  0  0  0  0  0  0  0  0  0  0
  137.2862   83.9517  221.4117 H   0  0  0  0  0  0  0  0  0  0  0  0
  138.9135   82.0285  223.8812 H   0  0  0  0  0  0  0  0  0  0  0  0
  137.2625   81.1448  223.8446 H   0  0  0  0  0  0  0  0  0  0  0  0
  140.4066   77.7020  223.4575 H   0  0  0  0  0  0  0  0  0  0  0  0
  141.2662   78.2109  222.0343 H   0  0  0  0  0  0  0  0  0  0  0  0
  141.8598   78.9951  225.0011 H   0  0  0  0  0  0  0  0  0  0  0  0
  142.9874   78.2032  223.9485 H   0  0  0  0  0  0  0  0  0  0  0  0
  142.8965   80.9291  224.1734 H   0  0  0  0  0  0  0  0  0  0  0  0
  143.2895   80.2001  222.6121 H   0  0  0  0  0  0  0  0  0  0  0  0
  140.9900   81.7651  223.3200 H   0  0  0  0  0  0  0  0  0  0  0  0
  142.5602   79.7894  218.5379 H   0  0  0  0  0  0  0  0  0  0  0  0
  141.5129   81.8443  217.6227 H   0  0  0  0  0  0  0  0  0  0  0  0
  140.3368   83.4035  219.2028 H   0  0  0  0  0  0  0  0  0  0  0  0
  137.0326   80.7672  219.0895 H   0  0  0  0  0  0  0  0  0  0  0  0
  138.2403   82.0302  219.4596 H   0  0  0  0  0  0  0  0  0  0  0  0
  139.8140   80.2910  220.0290 H   0  0  0  0  0  0  0  0  0  0  0  0
  138.0468   76.4333  221.5547 H   0  0  0  0  0  0  0  0  0  0  0  0
  139.7622   74.6536  221.8495 H   0  0  0  0  0  0  0  0  0  0  0  0
  142.0282   73.7943  221.4322 H   0  0  0  0  0  0  0  0  0  0  0  0
  144.6922   76.2182  219.0821 H   0  0  0  0  0  0  0  0  0  0  0  0
  142.9524   77.9511  218.8237 H   0  0  0  0  0  0  0  0  0  0  0  0
  1  2  1  0
  2  3  1  0
  3  4  1  0
  4  5  2  0
  4  6  1  0
  6  7  1  0
  7  8  1  0
  8  9  1  0
  9 10  1  0
 10 11  1  0
 11 12  2  0
 12 13  1  0
 13 14  2  0
 14 15  1  0
 15 16  2  0
  2 17  1  0
 17 18  2  0
 17 19  1  0
 19 20  1  0
 20 21  1  0
 21 22  2  0
 21 23  1  0
 23 24  2  0
 24 25  1  0
 25 26  2  0
 26 27  1  0
 27 28  2  0
 28 29  1  0
 28 30  1  0
 30 31  2  0
 31 32  1  0
 32 33  2  0
 10  6  1  0
 16 11  1  0
 33 23  1  0
 32 26  1  0
  1 34  1  0
  1 35  1  0
  1 36  1  0
  3 37  1  0
  3 38  1  0
  7 39  1  0
  7 40  1  0
  8 41  1  0
  8 42  1  0
  9 43  1  0
  9 44  1  0
 10 45  1  1
 13 46  1  0
 14 47  1  0
 15 48  1  0
 19 49  1  0
 19 50  1  0
 20 51  1  0
 24 52  1  0
 25 53  1  0
 27 54  1  0
 30 55  1  0
 31 56  1  0
M  END
>  <smiles>  (4) 
CN(CC(=O)N1CCC[C@H]1c1ncccn1)C(=O)CNC(=O)c1ccc2cc(Cl)ccc2n1

>  <score_type>  (4) 
oracle

>  <origin>  (4) 
autodockgpu

>  <m_score__min__energy>  (4) 
-8.5

>  <m_primary>  (4) 
energy

>  <rmsd>  (4) 
7.49548245956928

>  <m_score__min__rmsd>  (4) 
7.49548245956928

>  <meeko>  (4) 
{"free_energy": -4.97, "intermolecular_energy": -7.36, "internal_energy": -5.36, "cluster_size": 1, "cluster_id": 15, "rank_in_cluster": 1}

>  <energy>  (4) 
-8.35

>  <cluster_rmsd>  (4) 
0.91

>  <cluster>  (4) 
1

$$$$

     RDKit          3D

 56 59  0  0  0  0  0  0  0  0999 V2000
  143.3280   76.7590  219.1420 C   0  0  0  0  0  0  0  0  0  0  0  0
  142.1760   76.3300  219.9500 N   0  0  0  0  0  0  0  0  0  0  0  0
  141.2030   77.2600  220.4070 C   0  0  0  0  0  0  0  0  0  0  0  0
  141.5650   78.6660  220.5300 C   0  0  0  0  0  0  0  0  0  0  0  0
  141.7970   79.2550  219.3900 O   0  0  0  0  0  0  0  0  0  0  0  0
  141.6980   79.4510  221.6720 N   0  0  0  0  0  0  0  0  0  0  0  0
  142.1980   80.7670  221.9460 C   0  0  0  0  0  0  0  0  0  0  0  0
  143.0700   80.5040  223.1840 C   0  0  0  0  0  0  0  0  0  0  0  0
  142.1390   79.6640  223.9990 C   0  0  0  0  0  0  0  0  0  0  0  0
  141.2700   78.9680  223.0150 C   0  0  1  0  0  0  0  0  0  0  0  0
  139.8500   79.3330  223.2070 C   0  0  0  0  0  0  0  0  0  0  0  0
  138.8270   78.5880  222.7660 N   0  0  0  0  0  0  0  0  0  0  0  0
  137.5450   78.9750  222.9710 C   0  0  0  0  0  0  0  0  0  0  0  0
  137.2650   80.1420  223.6390 C   0  0  0  0  0  0  0  0  0  0  0  0
  138.3170   80.9110  224.0950 C   0  0  0  0  0  0  0  0  0  0  0  0
  139.5680   80.4630  223.8540 N   0  0  0  0  0  0  0  0  0  0  0  0
  142.0410   74.9250  220.2750 C   0  0  0  0  0  0  0  0  0  0  0  0
  143.0960   74.2630  220.4290 O   0  0  0  0  0  0  0  0  0  0  0  0
  140.7120   74.3310  220.4150 C   0  0  0  0  0  0  0  0  0  0  0  0
  140.7420   73.4160  221.5480 N   0  0  0  0  0  0  0  0  0  0  0  0
  139.6260   72.5770  221.7640 C   0  0  0  0  0  0  0  0  0  0  0  0
  138.6250   72.6110  221.0000 O   0  0  0  0  0  0  0  0  0  0  0  0
  139.6130   71.6400  222.8950 C   0  0  0  0  0  0  0  0  0  0  0  0
  138.9250   70.4680  222.8360 C   0  0  0  0  0  0  0  0  0  0  0  0
  138.9370   69.6060  223.9250 C   0  0  0  0  0  0  0  0  0  0  0  0
  139.6460   69.9360  225.0690 C   0  0  0  0  0  0  0  0  0  0  0  0
  139.6660   69.0830  226.1710 C   0  0  0  0  0  0  0  0  0  0  0  0
  140.3970   69.4850  227.2710 C   0  0  0  0  0  0  0  0  0  0  0  0
  140.4620   68.4610  228.6780 Cl  0  0  0  0  0  0  0  0  0  0  0  0
  141.0740   70.6800  227.2770 C   0  0  0  0  0  0  0  0  0  0  0  0
  141.0470   71.5110  226.1900 C   0  0  0  0  0  0  0  0  0  0  0  0
  140.3250   71.1330  225.0790 C   0  0  0  0  0  0  0  0  0  0  0  0
  140.2920   71.9380  224.0090 N   0  0  0  0  0  0  0  0  0  0  0  0
  144.1490   77.0647  219.8073 H   0  0  0  0  0  0  0  0  0  0  0  0
  143.6617   75.9249  218.5073 H   0  0  0  0  0  0  0  0  0  0  0  0
  143.0348   77.6082  218.5073 H   0  0  0  0  0  0  0  0  0  0  0  0
  140.3548   77.2066  219.7087 H   0  0  0  0  0  0  0  0  0  0  0  0
  141.0105   76.9482  221.4442 H   0  0  0  0  0  0  0  0  0  0  0  0
  142.7952   81.1539  221.1072 H   0  0  0  0  0  0  0  0  0  0  0  0
  141.4151   81.5245  222.0982 H   0  0  0  0  0  0  0  0  0  0  0  0
  143.9888   79.9575  222.9250 H   0  0  0  0  0  0  0  0  0  0  0  0
  143.4323   81.4106  223.6908 H   0  0  0  0  0  0  0  0  0  0  0  0
  142.7037   78.9340  224.5975 H   0  0  0  0  0  0  0  0  0  0  0  0
  141.5527   80.2709  224.7046 H   0  0  0  0  0  0  0  0  0  0  0  0
  141.3625   77.8779  223.1296 H   0  0  0  0  0  0  0  0  0  0  0  0
  136.7207   78.3488  222.5990 H   0  0  0  0  0  0  0  0  0  0  0  0
  136.2246   80.4572  223.8071 H   0  0  0  0  0  0  0  0  0  0  0  0
  138.1427   81.8536  224.6346 H   0  0  0  0  0  0  0  0  0  0  0  0
  139.9675   75.1209  220.5933 H   0  0  0  0  0  0  0  0  0  0  0  0
  140.4373   73.7913  219.4967 H   0  0  0  0  0  0  0  0  0  0  0  0
  141.5620   73.3640  222.2030 H   0  0  0  0  0  0  0  0  0  0  0  0
  138.3612   70.2039  221.9291 H   0  0  0  0  0  0  0  0  0  0  0  0
  138.3815   68.6577  223.8792 H   0  0  0  0  0  0  0  0  0  0  0  0
  139.1210   68.1275  226.1646 H   0  0  0  0  0  0  0  0  0  0  0  0
  141.6467   70.9736  228.1691 H   0  0  0  0  0  0  0  0  0  0  0  0
  141.5931   72.4658  226.2030 H   0  0  0  0  0  0  0  0  0  0  0  0
  1  2  1  0
  2  3  1  0
  3  4  1  0
  4  5  2  0
  4  6  1  0
  6  7  1  0
  7  8  1  0
  8  9  1  0
  9 10  1  0
 10 11  1  0
 11 12  2  0
 12 13  1  0
 13 14  2  0
 14 15  1  0
 15 16  2  0
  2 17  1  0
 17 18  2  0
 17 19  1  0
 19 20  1  0
 20 21  1  0
 21 22  2  0
 21 23  1  0
 23 24  2  0
 24 25  1  0
 25 26  2  0
 26 27  1  0
 27 28  2  0
 28 29  1  0
 28 30  1  0
 30 31  2  0
 31 32  1  0
 32 33  2  0
 10  6  1  0
 16 11  1  0
 33 23  1  0
 32 26  1  0
  1 34  1  0
  1 35  1  0
  1 36  1  0
  3 37  1  0
  3 38  1  0
  7 39  1  0
  7 40  1  0
  8 41  1  0
  8 42  1  0
  9 43  1  0
  9 44  1  0
 10 45  1  6
 13 46  1  0
 14 47  1  0
 15 48  1  0
 19 49  1  0
 19 50  1  0
 20 51  1  0
 24 52  1  0
 25 53  1  0
 27 54  1  0
 30 55  1  0
 31 56  1  0
M  END
>  <smiles>  (5) 
CN(CC(=O)N1CCC[C@H]1c1ncccn1)C(=O)CNC(=O)c1ccc2cc(Cl)ccc2n1

>  <score_type>  (5) 
oracle

>  <origin>  (5) 
autodockgpu

>  <m_score__min__energy>  (5) 
-8.5

>  <m_primary>  (5) 
energy

>  <rmsd>  (5) 
2.4690969882617755

>  <m_score__min__rmsd>  (5) 
2.4690969882617755

>  <meeko>  (5) 
{"free_energy": -7.98, "intermolecular_energy": -10.37, "internal_energy": -2.1, "cluster_size": 12, "cluster_id": 1, "rank_in_cluster": 6}

>  <energy>  (5) 
-8.14

>  <cluster_rmsd>  (5) 
0.81

>  <cluster>  (5) 
1

$$$$

     RDKit          3D

 56 59  0  0  0  0  0  0  0  0999 V2000
  137.1790   76.6590  220.0230 C   0  0  0  0  0  0  0  0  0  0  0  0
  138.1860   77.1230  220.9910 N   0  0  0  0  0  0  0  0  0  0  0  0
  138.4120   78.5070  221.2190 C   0  0  0  0  0  0  0  0  0  0  0  0
  139.1830   78.9180  222.3860 C   0  0  0  0  0  0  0  0  0  0  0  0
  138.4670   79.0830  223.4630 O   0  0  0  0  0  0  0  0  0  0  0  0
  140.5500   79.1560  222.5070 N   0  0  0  0  0  0  0  0  0  0  0  0
  141.5540   78.8320  223.4790 C   0  0  0  0  0  0  0  0  0  0  0  0
  142.2730   80.1820  223.6270 C   0  0  0  0  0  0  0  0  0  0  0  0
  142.4430   80.5580  222.1900 C   0  0  0  0  0  0  0  0  0  0  0  0
  141.3130   79.9120  221.4750 C   0  0  1  0  0  0  0  0  0  0  0  0
  141.8030   78.9480  220.4650 C   0  0  0  0  0  0  0  0  0  0  0  0
  141.9070   77.6300  220.6860 N   0  0  0  0  0  0  0  0  0  0  0  0
  142.3640   76.7970  219.7220 C   0  0  0  0  0  0  0  0  0  0  0  0
  142.7310   77.2850  218.4910 C   0  0  0  0  0  0  0  0  0  0  0  0
  142.6240   78.6420  218.2610 C   0  0  0  0  0  0  0  0  0  0  0  0
  142.1620   79.4120  219.2690 N   0  0  0  0  0  0  0  0  0  0  0  0
  138.9520   76.1350  221.7220 C   0  0  0  0  0  0  0  0  0  0  0  0
  139.4200   76.4740  222.8360 O   0  0  0  0  0  0  0  0  0  0  0  0
  139.1530   74.8010  221.1570 C   0  0  0  0  0  0  0  0  0  0  0  0
  139.3690   73.8720  222.2580 N   0  0  0  0  0  0  0  0  0  0  0  0
  139.3280   72.4860  221.9860 C   0  0  0  0  0  0  0  0  0  0  0  0
  139.1100   72.0540  220.8220 O   0  0  0  0  0  0  0  0  0  0  0  0
  139.5400   71.5130  223.0660 C   0  0  0  0  0  0  0  0  0  0  0  0
  139.2070   70.2030  222.9150 C   0  0  0  0  0  0  0  0  0  0  0  0
  139.4230   69.3120  223.9580 C   0  0  0  0  0  0  0  0  0  0  0  0
  139.9750   69.7530  225.1500 C   0  0  0  0  0  0  0  0  0  0  0  0
  140.1960   68.8720  226.2070 C   0  0  0  0  0  0  0  0  0  0  0  0
  140.7500   69.3910  227.3600 C   0  0  0  0  0  0  0  0  0  0  0  0
  141.0520   68.3390  228.7150 Cl  0  0  0  0  0  0  0  0  0  0  0  0
  141.0680   70.7230  227.4590 C   0  0  0  0  0  0  0  0  0  0  0  0
  140.8450   71.5800  226.4150 C   0  0  0  0  0  0  0  0  0  0  0  0
  140.2940   71.0880  225.2530 C   0  0  0  0  0  0  0  0  0  0  0  0
  140.0730   71.9180  224.2250 N   0  0  0  0  0  0  0  0  0  0  0  0
  136.3087   76.2580  220.5631 H   0  0  0  0  0  0  0  0  0  0  0  0
  136.8620   77.5018  219.3912 H   0  0  0  0  0  0  0  0  0  0  0  0
  137.6137   75.8704  219.3912 H   0  0  0  0  0  0  0  0  0  0  0  0
  138.9356   78.8974  220.3339 H   0  0  0  0  0  0  0  0  0  0  0  0
  137.4065   78.9080  221.4147 H   0  0  0  0  0  0  0  0  0  0  0  0
  141.1051   78.5080  224.4296 H   0  0  0  0  0  0  0  0  0  0  0  0
  142.2118   77.9997  223.1883 H   0  0  0  0  0  0  0  0  0  0  0  0
  141.6555   80.9140  224.1682 H   0  0  0  0  0  0  0  0  0  0  0  0
  143.2083   80.1428  224.2047 H   0  0  0  0  0  0  0  0  0  0  0  0
  142.3992   81.6506  222.0707 H   0  0  0  0  0  0  0  0  0  0  0  0
  143.4163   80.2314  221.7949 H   0  0  0  0  0  0  0  0  0  0  0  0
  140.7055   80.6706  220.9598 H   0  0  0  0  0  0  0  0  0  0  0  0
  142.4424   75.7189  219.9260 H   0  0  0  0  0  0  0  0  0  0  0  0
  143.1019   76.6093  217.7062 H   0  0  0  0  0  0  0  0  0  0  0  0
  142.9049   79.0798  217.2918 H   0  0  0  0  0  0  0  0  0  0  0  0
  138.2631   74.5004  220.5845 H   0  0  0  0  0  0  0  0  0  0  0  0
  140.0208   74.7998  220.4811 H   0  0  0  0  0  0  0  0  0  0  0  0
  139.5530   74.2000  223.2390 H   0  0  0  0  0  0  0  0  0  0  0  0
  138.7681   69.8505  221.9699 H   0  0  0  0  0  0  0  0  0  0  0  0
  139.1549   68.2520  223.8374 H   0  0  0  0  0  0  0  0  0  0  0  0
  139.9392   67.8055  226.1258 H   0  0  0  0  0  0  0  0  0  0  0  0
  141.5084   71.1072  228.3909 H   0  0  0  0  0  0  0  0  0  0  0  0
  141.1022   72.6459  226.5031 H   0  0  0  0  0  0  0  0  0  0  0  0
  1  2  1  0
  2  3  1  0
  3  4  1  0
  4  5  2  0
  4  6  1  0
  6  7  1  0
  7  8  1  0
  8  9  1  0
  9 10  1  0
 10 11  1  0
 11 12  2  0
 12 13  1  0
 13 14  2  0
 14 15  1  0
 15 16  2  0
  2 17  1  0
 17 18  2  0
 17 19  1  0
 19 20  1  0
 20 21  1  0
 21 22  2  0
 21 23  1  0
 23 24  2  0
 24 25  1  0
 25 26  2  0
 26 27  1  0
 27 28  2  0
 28 29  1  0
 28 30  1  0
 30 31  2  0
 31 32  1  0
 32 33  2  0
 10  6  1  0
 16 11  1  0
 33 23  1  0
 32 26  1  0
  1 34  1  0
  1 35  1  0
  1 36  1  0
  3 37  1  0
  3 38  1  0
  7 39  1  0
  7 40  1  0
  8 41  1  0
  8 42  1  0
  9 43  1  0
  9 44  1  0
 10 45  1  6
 13 46  1  0
 14 47  1  0
 15 48  1  0
 19 49  1  0
 19 50  1  0
 20 51  1  0
 24 52  1  0
 25 53  1  0
 27 54  1  0
 30 55  1  0
 31 56  1  0
M  END
>  <smiles>  (6) 
CN(CC(=O)N1CCC[C@H]1c1ncccn1)C(=O)CNC(=O)c1ccc2cc(Cl)ccc2n1

>  <score_type>  (6) 
oracle

>  <origin>  (6) 
autodockgpu

>  <m_score__min__energy>  (6) 
-8.5

>  <m_primary>  (6) 
energy

>  <rmsd>  (6) 
2.455192831497081

>  <m_score__min__rmsd>  (6) 
2.455192831497081

>  <meeko>  (6) 
{"free_energy": -8.05, "intermolecular_energy": -10.43, "internal_energy": -2.38, "cluster_size": 15, "cluster_id": 2, "rank_in_cluster": 6}

>  <energy>  (6) 
-7.98

>  <cluster_rmsd>  (6) 
0.98

>  <cluster>  (6) 
1

$$$$

     RDKit          3D

 56 59  0  0  0  0  0  0  0  0999 V2000
  139.3090   74.4460  217.7470 C   0  0  0  0  0  0  0  0  0  0  0  0
  139.1310   74.5170  219.2060 N   0  0  0  0  0  0  0  0  0  0  0  0
  140.1900   74.9170  220.0640 C   0  0  0  0  0  0  0  0  0  0  0  0
  139.8850   75.3160  221.4320 C   0  0  0  0  0  0  0  0  0  0  0  0
  140.3320   74.4910  222.3370 O   0  0  0  0  0  0  0  0  0  0  0  0
  139.1950   76.4330  221.8970 N   0  0  0  0  0  0  0  0  0  0  0  0
  138.2620   76.6790  222.9580 C   0  0  0  0  0  0  0  0  0  0  0  0
  137.1910   77.5050  222.2280 C   0  0  0  0  0  0  0  0  0  0  0  0
  138.0550   78.4790  221.4910 C   0  0  0  0  0  0  0  0  0  0  0  0
  139.3400   77.7710  221.2590 C   0  0  1  0  0  0  0  0  0  0  0  0
  140.4630   78.4770  221.9160 C   0  0  0  0  0  0  0  0  0  0  0  0
  141.1390   79.4850  221.3460 N   0  0  0  0  0  0  0  0  0  0  0  0
  142.1590   80.0920  221.9970 C   0  0  0  0  0  0  0  0  0  0  0  0
  142.5240   79.6880  223.2580 C   0  0  0  0  0  0  0  0  0  0  0  0
  141.8290   78.6510  223.8460 C   0  0  0  0  0  0  0  0  0  0  0  0
  140.8240   78.0930  223.1390 N   0  0  0  0  0  0  0  0  0  0  0  0
  137.8390   74.1720  219.7640 C   0  0  0  0  0  0  0  0  0  0  0  0
  136.9980   75.0950  219.8880 O   0  0  0  0  0  0  0  0  0  0  0  0
  137.5570   72.7930  220.1580 C   0  0  0  0  0  0  0  0  0  0  0  0
  138.2190   72.5420  221.4320 N   0  0  0  0  0  0  0  0  0  0  0  0
  138.4490   71.2020  221.8170 C   0  0  0  0  0  0  0  0  0  0  0  0
  138.0940   70.2410  221.0840 O   0  0  0  0  0  0  0  0  0  0  0  0
  139.1120   70.9030  223.0930 C   0  0  0  0  0  0  0  0  0  0  0  0
  139.9450   71.7990  223.6860 C   0  0  0  0  0  0  0  0  0  0  0  0
  140.5540   71.4810  224.8930 C   0  0  0  0  0  0  0  0  0  0  0  0
  140.3160   70.2550  225.4940 C   0  0  0  0  0  0  0  0  0  0  0  0
  140.9200   69.9200  226.7040 C   0  0  0  0  0  0  0  0  0  0  0  0
  140.6290   68.6800  227.2360 C   0  0  0  0  0  0  0  0  0  0  0  0
  141.3530   68.2040  228.7470 Cl  0  0  0  0  0  0  0  0  0  0  0  0
  139.7800   67.8120  226.5950 C   0  0  0  0  0  0  0  0  0  0  0  0
  139.1920   68.1510  225.4060 C   0  0  0  0  0  0  0  0  0  0  0  0
  139.4650   69.3830  224.8530 C   0  0  0  0  0  0  0  0  0  0  0  0
  138.8950   69.7250  223.6910 N   0  0  0  0  0  0  0  0  0  0  0  0
  140.3085   74.0474  217.5185 H   0  0  0  0  0  0  0  0  0  0  0  0
  138.5431   73.7845  217.3159 H   0  0  0  0  0  0  0  0  0  0  0  0
  139.2086   75.4530  217.3159 H   0  0  0  0  0  0  0  0  0  0  0  0
  140.8912   74.0716  220.1246 H   0  0  0  0  0  0  0  0  0  0  0  0
  140.5675   75.8403  219.6004 H   0  0  0  0  0  0  0  0  0  0  0  0
  137.8465   75.7410  223.3550 H   0  0  0  0  0  0  0  0  0  0  0  0
  138.6977   77.1792  223.8354 H   0  0  0  0  0  0  0  0  0  0  0  0
  136.5991   76.8846  221.5390 H   0  0  0  0  0  0  0  0  0  0  0  0
  136.4390   77.9651  222.8858 H   0  0  0  0  0  0  0  0  0  0  0  0
  137.5907   78.7571  220.5334 H   0  0  0  0  0  0  0  0  0  0  0  0
  138.1981   79.4098  222.0594 H   0  0  0  0  0  0  0  0  0  0  0  0
  139.5535   77.7131  220.1815 H   0  0  0  0  0  0  0  0  0  0  0  0
  142.7008   80.9169  221.5113 H   0  0  0  0  0  0  0  0  0  0  0  0
  143.3526   80.1806  223.7878 H   0  0  0  0  0  0  0  0  0  0  0  0
  142.0847   78.2924  224.8539 H   0  0  0  0  0  0  0  0  0  0  0  0
  136.4717   72.6509  220.2673 H   0  0  0  0  0  0  0  0  0  0  0  0
  137.9262   72.0947  219.3925 H   0  0  0  0  0  0  0  0  0  0  0  0
  138.5270   73.3210  222.0660 H   0  0  0  0  0  0  0  0  0  0  0  0
  140.1360   72.7727  223.2113 H   0  0  0  0  0  0  0  0  0  0  0  0
  141.2280   72.2051  225.3740 H   0  0  0  0  0  0  0  0  0  0  0  0
  141.6016   70.6159  227.2150 H   0  0  0  0  0  0  0  0  0  0  0  0
  139.5692   66.8299  227.0433 H   0  0  0  0  0  0  0  0  0  0  0  0
  138.5118   67.4502  224.8998 H   0  0  0  0  0  0  0  0  0  0  0  0
  1  2  1  0
  2  3  1  0
  3  4  1  0
  4  5  2  0
  4  6  1  0
  6  7  1  0
  7  8  1  0
  8  9  1  0
  9 10  1  0
 10 11  1  0
 11 12  2  0
 12 13  1  0
 13 14  2  0
 14 15  1  0
 15 16  2  0
  2 17  1  0
 17 18  2  0
 17 19  1  0
 19 20  1  0
 20 21  1  0
 21 22  2  0
 21 23  1  0
 23 24  2  0
 24 25  1  0
 25 26  2  0
 26 27  1  0
 27 28  2  0
 28 29  1  0
 28 30  1  0
 30 31  2  0
 31 32  1  0
 32 33  2  0
 10  6  1  0
 16 11  1  0
 33 23  1  0
 32 26  1  0
  1 34  1  0
  1 35  1  0
  1 36  1  0
  3 37  1  0
  3 38  1  0
  7 39  1  0
  7 40  1  0
  8 41  1  0
  8 42  1  0
  9 43  1  0
  9 44  1  0
 10 45  1  6
 13 46  1  0
 14 47  1  0
 15 48  1  0
 19 49  1  0
 19 50  1  0
 20 51  1  0
 24 52  1  0
 25 53  1  0
 27 54  1  0
 30 55  1  0
 31 56  1  0
M  END
>  <smiles>  (7) 
CN(CC(=O)N1CCC[C@H]1c1ncccn1)C(=O)CNC(=O)c1ccc2cc(Cl)ccc2n1

>  <score_type>  (7) 
oracle

>  <origin>  (7) 
autodockgpu

>  <m_score__min__energy>  (7) 
-8.5

>  <m_primary>  (7) 
energy

>  <rmsd>  (7) 
3.422818743365762

>  <m_score__min__rmsd>  (7) 
3.422818743365762

>  <meeko>  (7) 
{"free_energy": -6.93, "intermolecular_energy": -9.31, "internal_energy": -2.96, "cluster_size": 1, "cluster_id": 4, "rank_in_cluster": 1}

>  <energy>  (7) 
-7.94

>  <cluster_rmsd>  (7) 
1.14

>  <cluster>  (7) 
1

$$$$

     RDKit          3D

 56 59  0  0  0  0  0  0  0  0999 V2000
  140.7150   71.4300  218.7410 C   0  0  0  0  0  0  0  0  0  0  0  0
  140.5510   72.7850  219.2890 N   0  0  0  0  0  0  0  0  0  0  0  0
  141.5200   73.3580  220.1560 C   0  0  0  0  0  0  0  0  0  0  0  0
  141.0870   74.2850  221.1940 C   0  0  0  0  0  0  0  0  0  0  0  0
  140.8580   73.7200  222.3460 O   0  0  0  0  0  0  0  0  0  0  0  0
  140.8850   75.6610  221.1250 N   0  0  0  0  0  0  0  0  0  0  0  0
  140.9380   76.6430  220.0810 C   0  0  0  0  0  0  0  0  0  0  0  0
  141.7530   77.7560  220.7590 C   0  0  0  0  0  0  0  0  0  0  0  0
  141.0620   77.8300  222.0840 C   0  0  0  0  0  0  0  0  0  0  0  0
  140.5240   76.4660  222.3250 C   0  0  1  0  0  0  0  0  0  0  0  0
  139.0500   76.4880  222.4410 C   0  0  0  0  0  0  0  0  0  0  0  0
  138.2840   75.3910  222.3630 N   0  0  0  0  0  0  0  0  0  0  0  0
  136.9370   75.4730  222.4760 C   0  0  0  0  0  0  0  0  0  0  0  0
  136.3250   76.6860  222.6740 C   0  0  0  0  0  0  0  0  0  0  0  0
  137.1110   77.8180  222.7550 C   0  0  0  0  0  0  0  0  0  0  0  0
  138.4460   77.6600  222.6340 N   0  0  0  0  0  0  0  0  0  0  0  0
  139.3710   73.5420  218.9230 C   0  0  0  0  0  0  0  0  0  0  0  0
  139.4260   74.2280  217.8730 O   0  0  0  0  0  0  0  0  0  0  0  0
  138.1770   73.4880  219.7650 C   0  0  0  0  0  0  0  0  0  0  0  0
  138.5370   72.8410  221.0200 N   0  0  0  0  0  0  0  0  0  0  0  0
  138.3510   71.4460  221.1340 C   0  0  0  0  0  0  0  0  0  0  0  0
  137.8860   70.7680  220.1800 O   0  0  0  0  0  0  0  0  0  0  0  0
  138.7000   70.7530  222.3810 C   0  0  0  0  0  0  0  0  0  0  0  0
  138.2640   69.4900  222.6360 C   0  0  0  0  0  0  0  0  0  0  0  0
  138.6160   68.8660  223.8260 C   0  0  0  0  0  0  0  0  0  0  0  0
  139.4070   69.5250  224.7530 C   0  0  0  0  0  0  0  0  0  0  0  0
  139.7670   68.9130  225.9530 C   0  0  0  0  0  0  0  0  0  0  0  0
  140.5570   69.6380  226.8220 C   0  0  0  0  0  0  0  0  0  0  0  0
  141.0410   68.9270  228.3360 Cl  0  0  0  0  0  0  0  0  0  0  0  0
  140.9700   70.9110  226.5150 C   0  0  0  0  0  0  0  0  0  0  0  0
  140.6100   71.5030  225.3340 C   0  0  0  0  0  0  0  0  0  0  0  0
  139.8210   70.8020  224.4490 C   0  0  0  0  0  0  0  0  0  0  0  0
  139.4640   71.3710  223.2900 N   0  0  0  0  0  0  0  0  0  0  0  0
  140.8023   70.7086  219.5668 H   0  0  0  0  0  0  0  0  0  0  0  0
  139.8410   71.1761  218.1232 H   0  0  0  0  0  0  0  0  0  0  0  0
  141.6243   71.3919  218.1232 H   0  0  0  0  0  0  0  0  0  0  0  0
  142.0309   72.5254  220.6617 H   0  0  0  0  0  0  0  0  0  0  0  0
  142.1322   73.9815  219.4878 H   0  0  0  0  0  0  0  0  0  0  0  0
  141.4503   76.2550  219.1883 H   0  0  0  0  0  0  0  0  0  0  0  0
  139.9524   76.9650  219.7137 H   0  0  0  0  0  0  0  0  0  0  0  0
  142.8112   77.4760  220.8677 H   0  0  0  0  0  0  0  0  0  0  0  0
  141.7837   78.7052  220.2040 H   0  0  0  0  0  0  0  0  0  0  0  0
  141.7745   78.1080  222.8746 H   0  0  0  0  0  0  0  0  0  0  0  0
  140.2669   78.5902  222.0889 H   0  0  0  0  0  0  0  0  0  0  0  0
  140.9357   76.0543  223.2583 H   0  0  0  0  0  0  0  0  0  0  0  0
  136.3277   74.5596  222.4085 H   0  0  0  0  0  0  0  0  0  0  0  0
  135.2310   76.7544  222.7662 H   0  0  0  0  0  0  0  0  0  0  0  0
  136.6660   78.8116  222.9123 H   0  0  0  0  0  0  0  0  0  0  0  0
  137.8132   74.5073  219.9619 H   0  0  0  0  0  0  0  0  0  0  0  0
  137.3797   72.9230  219.2599 H   0  0  0  0  0  0  0  0  0  0  0  0
  138.9270   73.3790  221.8340 H   0  0  0  0  0  0  0  0  0  0  0  0
  137.6349   68.9646  221.9024 H   0  0  0  0  0  0  0  0  0  0  0  0
  138.2652   67.8442  224.0332 H   0  0  0  0  0  0  0  0  0  0  0  0
  139.4347   67.8933  226.1973 H   0  0  0  0  0  0  0  0  0  0  0  0
  141.5993   71.4634  227.2283 H   0  0  0  0  0  0  0  0  0  0  0  0
  140.9458   72.5230  225.0956 H   0  0  0  0  0  0  0  0  0  0  0  0
  1  2  1  0
  2  3  1  0
  3  4  1  0
  4  5  2  0
  4  6  1  0
  6  7  1  0
  7  8  1  0
  8  9  1  0
  9 10  1  0
 10 11  1  0
 11 12  2  0
 12 13  1  0
 13 14  2  0
 14 15  1  0
 15 16  2  0
  2 17  1  0
 17 18  2  0
 17 19  1  0
 19 20  1  0
 20 21  1  0
 21 22  2  0
 21 23  1  0
 23 24  2  0
 24 25  1  0
 25 26  2  0
 26 27  1  0
 27 28  2  0
 28 29  1  0
 28 30  1  0
 30 31  2  0
 31 32  1  0
 32 33  2  0
 10  6  1  0
 16 11  1  0
 33 23  1  0
 32 26  1  0
  1 34  1  0
  1 35  1  0
  1 36  1  0
  3 37  1  0
  3 38  1  0
  7 39  1  0
  7 40  1  0
  8 41  1  0
  8 42  1  0
  9 43  1  0
  9 44  1  0
 10 45  1  1
 13 46  1  0
 14 47  1  0
 15 48  1  0
 19 49  1  0
 19 50  1  0
 20 51  1  0
 24 52  1  0
 25 53  1  0
 27 54  1  0
 30 55  1  0
 31 56  1  0
M  END
>  <smiles>  (8) 
CN(CC(=O)N1CCC[C@H]1c1ncccn1)C(=O)CNC(=O)c1ccc2cc(Cl)ccc2n1

>  <score_type>  (8) 
oracle

>  <origin>  (8) 
autodockgpu

>  <m_score__min__energy>  (8) 
-8.5

>  <m_primary>  (8) 
energy

>  <rmsd>  (8) 
2.8258665743629865

>  <m_score__min__rmsd>  (8) 
2.8258665743629865

>  <meeko>  (8) 
{"free_energy": -5.82, "intermolecular_energy": -8.21, "internal_energy": -4.34, "cluster_size": 12, "cluster_id": 1, "rank_in_cluster": 12}

>  <energy>  (8) 
-7.82

>  <cluster_rmsd>  (8) 
1.0

>  <cluster>  (8) 
1

$$$$

     RDKit          3D

 56 59  0  0  0  0  0  0  0  0999 V2000
  138.6360   77.7520  220.1100 C   0  0  0  0  0  0  0  0  0  0  0  0
  139.3380   77.0290  221.1820 N   0  0  0  0  0  0  0  0  0  0  0  0
  139.5240   77.6060  222.4670 C   0  0  0  0  0  0  0  0  0  0  0  0
  140.8600   78.0210  222.8740 C   0  0  0  0  0  0  0  0  0  0  0  0
  141.5340   77.0990  223.5010 O   0  0  0  0  0  0  0  0  0  0  0  0
  141.5020   79.2430  222.6900 N   0  0  0  0  0  0  0  0  0  0  0  0
  142.6880   79.8550  223.2170 C   0  0  0  0  0  0  0  0  0  0  0  0
  142.1720   81.2610  223.5620 C   0  0  0  0  0  0  0  0  0  0  0  0
  141.4210   81.5890  222.3110 C   0  0  0  0  0  0  0  0  0  0  0  0
  140.9710   80.2830  221.7650 C   0  0  1  0  0  0  0  0  0  0  0  0
  141.5420   80.0420  220.4220 C   0  0  0  0  0  0  0  0  0  0  0  0
  141.8490   81.0210  219.5600 N   0  0  0  0  0  0  0  0  0  0  0  0
  142.3690   80.7380  218.3420 C   0  0  0  0  0  0  0  0  0  0  0  0
  142.5950   79.4380  217.9630 C   0  0  0  0  0  0  0  0  0  0  0  0
  142.2800   78.4270  218.8490 C   0  0  0  0  0  0  0  0  0  0  0  0
  141.7650   78.7840  220.0450 N   0  0  0  0  0  0  0  0  0  0  0  0
  139.8420   75.6990  220.9070 C   0  0  0  0  0  0  0  0  0  0  0  0
  141.0820   75.5680  220.7680 O   0  0  0  0  0  0  0  0  0  0  0  0
  138.9150   74.5740  220.8030 C   0  0  0  0  0  0  0  0  0  0  0  0
  139.1200   73.7110  221.9590 N   0  0  0  0  0  0  0  0  0  0  0  0
  139.2010   72.3160  221.7510 C   0  0  0  0  0  0  0  0  0  0  0  0
  139.0990   71.8200  220.5970 O   0  0  0  0  0  0  0  0  0  0  0  0
  139.4060   71.4090  222.8870 C   0  0  0  0  0  0  0  0  0  0  0  0
  138.9870   70.1150  222.8460 C   0  0  0  0  0  0  0  0  0  0  0  0
  139.2000   69.2870  223.9410 C   0  0  0  0  0  0  0  0  0  0  0  0
  139.8360   69.7730  225.0720 C   0  0  0  0  0  0  0  0  0  0  0  0
  140.0560   68.9540  226.1780 C   0  0  0  0  0  0  0  0  0  0  0  0
  140.6970   69.5160  227.2640 C   0  0  0  0  0  0  0  0  0  0  0  0
  141.0010   68.5430  228.6770 Cl  0  0  0  0  0  0  0  0  0  0  0  0
  141.0990   70.8290  227.2530 C   0  0  0  0  0  0  0  0  0  0  0  0
  140.8780   71.6240  226.1600 C   0  0  0  0  0  0  0  0  0  0  0  0
  140.2400   71.0880  225.0630 C   0  0  0  0  0  0  0  0  0  0  0  0
  140.0190   71.8570  223.9890 N   0  0  0  0  0  0  0  0  0  0  0  0
  137.9347   78.4743  220.5532 H   0  0  0  0  0  0  0  0  0  0  0  0
  139.3686   78.2868  219.4877 H   0  0  0  0  0  0  0  0  0  0  0  0
  138.0799   77.0355  219.4877 H   0  0  0  0  0  0  0  0  0  0  0  0
  138.8821   78.4980  222.5145 H   0  0  0  0  0  0  0  0  0  0  0  0
  139.2831   76.7857  223.1591 H   0  0  0  0  0  0  0  0  0  0  0  0
  143.0498   79.3278  224.1120 H   0  0  0  0  0  0  0  0  0  0  0  0
  143.5448   79.8458  222.5272 H   0  0  0  0  0  0  0  0  0  0  0  0
  141.5107   81.2468  224.4409 H   0  0  0  0  0  0  0  0  0  0  0  0
  142.9561   81.9847  223.8296 H   0  0  0  0  0  0  0  0  0  0  0  0
  140.5560   82.2293  222.5385 H   0  0  0  0  0  0  0  0  0  0  0  0
  142.0460   82.1387  221.5918 H   0  0  0  0  0  0  0  0  0  0  0  0
  139.8744   80.2639  221.6805 H   0  0  0  0  0  0  0  0  0  0  0  0
  142.6126   81.5575  217.6498 H   0  0  0  0  0  0  0  0  0  0  0  0
  143.0181   79.2067  216.9743 H   0  0  0  0  0  0  0  0  0  0  0  0
  142.4425   77.3703  218.5902 H   0  0  0  0  0  0  0  0  0  0  0  0
  137.8791   74.9440  220.7928 H   0  0  0  0  0  0  0  0  0  0  0  0
  139.0962   74.0152  219.8730 H   0  0  0  0  0  0  0  0  0  0  0  0
  139.2080   74.0930  222.9340 H   0  0  0  0  0  0  0  0  0  0  0  0
  138.4818   69.7262  221.9496 H   0  0  0  0  0  0  0  0  0  0  0  0
  138.8621   68.2406  223.9100 H   0  0  0  0  0  0  0  0  0  0  0  0
  139.7322   67.9028  226.1854 H   0  0  0  0  0  0  0  0  0  0  0  0
  141.6058   71.2482  228.1347 H   0  0  0  0  0  0  0  0  0  0  0  0
  141.2049   72.6743  226.1581 H   0  0  0  0  0  0  0  0  0  0  0  0
  1  2  1  0
  2  3  1  0
  3  4  1  0
  4  5  2  0
  4  6  1  0
  6  7  1  0
  7  8  1  0
  8  9  1  0
  9 10  1  0
 10 11  1  0
 11 12  2  0
 12 13  1  0
 13 14  2  0
 14 15  1  0
 15 16  2  0
  2 17  1  0
 17 18  2  0
 17 19  1  0
 19 20  1  0
 20 21  1  0
 21 22  2  0
 21 23  1  0
 23 24  2  0
 24 25  1  0
 25 26  2  0
 26 27  1  0
 27 28  2  0
 28 29  1  0
 28 30  1  0
 30 31  2  0
 31 32  1  0
 32 33  2  0
 10  6  1  0
 16 11  1  0
 33 23  1  0
 32 26  1  0
  1 34  1  0
  1 35  1  0
  1 36  1  0
  3 37  1  0
  3 38  1  0
  7 39  1  0
  7 40  1  0
  8 41  1  0
  8 42  1  0
  9 43  1  0
  9 44  1  0
 10 45  1  6
 13 46  1  0
 14 47  1  0
 15 48  1  0
 19 49  1  0
 19 50  1  0
 20 51  1  0
 24 52  1  0
 25 53  1  0
 27 54  1  0
 30 55  1  0
 31 56  1  0
M  END
>  <smiles>  (9) 
CN(CC(=O)N1CCC[C@H]1c1ncccn1)C(=O)CNC(=O)c1ccc2cc(Cl)ccc2n1

>  <score_type>  (9) 
oracle

>  <origin>  (9) 
autodockgpu

>  <m_score__min__energy>  (9) 
-8.5

>  <m_primary>  (9) 
energy

>  <rmsd>  (9) 
2.426658567245565

>  <m_score__min__rmsd>  (9) 
2.426658567245565

>  <meeko>  (9) 
{"free_energy": -8.0, "intermolecular_energy": -10.39, "internal_energy": -2.29, "cluster_size": 15, "cluster_id": 2, "rank_in_cluster": 7}

>  <energy>  (9) 
-7.76

>  <cluster_rmsd>  (9) 
1.01

>  <cluster>  (9) 
1

$$$$

     RDKit          3D

 56 59  0  0  0  0  0  0  0  0999 V2000
  141.3340   78.0540  220.2680 C   0  0  0  0  0  0  0  0  0  0  0  0
  140.0220   77.4690  220.5820 N   0  0  0  0  0  0  0  0  0  0  0  0
  138.8250   77.9820  220.0130 C   0  0  0  0  0  0  0  0  0  0  0  0
  138.2070   79.1630  220.6010 C   0  0  0  0  0  0  0  0  0  0  0  0
  137.6880   79.9800  219.7290 O   0  0  0  0  0  0  0  0  0  0  0  0
  138.0980   79.5320  221.9400 N   0  0  0  0  0  0  0  0  0  0  0  0
  137.4780   78.9630  223.1010 C   0  0  0  0  0  0  0  0  0  0  0  0
  136.7670   80.1910  223.6930 C   0  0  0  0  0  0  0  0  0  0  0  0
  137.8650   81.2040  223.6140 C   0  0  0  0  0  0  0  0  0  0  0  0
  138.7070   80.7860  222.4650 C   0  0  1  0  0  0  0  0  0  0  0  0
  140.0880   80.4810  222.9000 C   0  0  0  0  0  0  0  0  0  0  0  0
  141.1500   81.2340  222.5790 N   0  0  0  0  0  0  0  0  0  0  0  0
  142.3910   80.9040  223.0060 C   0  0  0  0  0  0  0  0  0  0  0  0
  142.5910   79.7880  223.7810 C   0  0  0  0  0  0  0  0  0  0  0  0
  141.5000   79.0100  224.1120 C   0  0  0  0  0  0  0  0  0  0  0  0
  140.2920   79.4000  223.6510 N   0  0  0  0  0  0  0  0  0  0  0  0
  139.9640   76.3420  221.4890 C   0  0  0  0  0  0  0  0  0  0  0  0
  140.2050   76.5620  222.7010 O   0  0  0  0  0  0  0  0  0  0  0  0
  139.6330   75.0110  220.9820 C   0  0  0  0  0  0  0  0  0  0  0  0
  139.6550   74.0810  222.1040 N   0  0  0  0  0  0  0  0  0  0  0  0
  139.8280   72.7060  221.8340 C   0  0  0  0  0  0  0  0  0  0  0  0
  139.9620   72.2830  220.6540 O   0  0  0  0  0  0  0  0  0  0  0  0
  139.8550   71.7330  222.9340 C   0  0  0  0  0  0  0  0  0  0  0  0
  139.3390   70.4830  222.7870 C   0  0  0  0  0  0  0  0  0  0  0  0
  139.3840   69.5900  223.8500 C   0  0  0  0  0  0  0  0  0  0  0  0
  139.9510   69.9680  225.0570 C   0  0  0  0  0  0  0  0  0  0  0  0
  140.0020   69.0840  226.1330 C   0  0  0  0  0  0  0  0  0  0  0  0
  140.5840   69.5380  227.2990 C   0  0  0  0  0  0  0  0  0  0  0  0
  140.6790   68.4790  228.6790 Cl  0  0  0  0  0  0  0  0  0  0  0  0
  141.0900   70.8110  227.3930 C   0  0  0  0  0  0  0  0  0  0  0  0
  141.0340   71.6720  226.3300 C   0  0  0  0  0  0  0  0  0  0  0  0
  140.4580   71.2430  225.1540 C   0  0  0  0  0  0  0  0  0  0  0  0
  140.3990   72.0770  224.1070 N   0  0  0  0  0  0  0  0  0  0  0  0
  141.8634   78.2901  221.2029 H   0  0  0  0  0  0  0  0  0  0  0  0
  141.9258   77.3345  219.6831 H   0  0  0  0  0  0  0  0  0  0  0  0
  141.1943   78.9751  219.6831 H   0  0  0  0  0  0  0  0  0  0  0  0
  139.0465   78.2244  218.9631 H   0  0  0  0  0  0  0  0  0  0  0  0
  138.0882   77.1851  220.1919 H   0  0  0  0  0  0  0  0  0  0  0  0
  136.7610   78.1743  222.8293 H   0  0  0  0  0  0  0  0  0  0  0  0
  138.1789   78.4711  223.7915 H   0  0  0  0  0  0  0  0  0  0  0  0
  135.8967   80.4871  223.0890 H   0  0  0  0  0  0  0  0  0  0  0  0
  136.3532   80.0402  224.7010 H   0  0  0  0  0  0  0  0  0  0  0  0
  137.4502   82.2081  223.4417 H   0  0  0  0  0  0  0  0  0  0  0  0
  138.4438   81.2528  224.5482 H   0  0  0  0  0  0  0  0  0  0  0  0
  138.7517   81.5894  221.7149 H   0  0  0  0  0  0  0  0  0  0  0  0
  143.2480   81.5358  222.7296 H   0  0  0  0  0  0  0  0  0  0  0  0
  143.5990   79.5199  224.1305 H   0  0  0  0  0  0  0  0  0  0  0  0
  141.6104   78.1057  224.7285 H   0  0  0  0  0  0  0  0  0  0  0  0
  138.6313   75.0235  220.5276 H   0  0  0  0  0  0  0  0  0  0  0  0
  140.3607   74.7026  220.2169 H   0  0  0  0  0  0  0  0  0  0  0  0
  139.5460   74.4020  223.0990 H   0  0  0  0  0  0  0  0  0  0  0  0
  138.8880   70.1806  221.8304 H   0  0  0  0  0  0  0  0  0  0  0  0
  138.9679   68.5784  223.7334 H   0  0  0  0  0  0  0  0  0  0  0  0
  139.5947   68.0651  226.0560 H   0  0  0  0  0  0  0  0  0  0  0  0
  141.5472   71.1440  228.3365 H   0  0  0  0  0  0  0  0  0  0  0  0
  141.4423   72.6900  226.4134 H   0  0  0  0  0  0  0  0  0  0  0  0
  1  2  1  0
  2  3  1  0
  3  4  1  0
  4  5  2  0
  4  6  1  0
  6  7  1  0
  7  8  1  0
  8  9  1  0
  9 10  1  0
 10 11  1  0
 11 12  2  0
 12 13  1  0
 13 14  2  0
 14 15  1  0
 15 16  2  0
  2 17  1  0
 17 18  2  0
 17 19  1  0
 19 20  1  0
 20 21  1  0
 21 22  2  0
 21 23  1  0
 23 24  2  0
 24 25  1  0
 25 26  2  0
 26 27  1  0
 27 28  2  0
 28 29  1  0
 28 30  1  0
 30 31  2  0
 31 32  1  0
 32 33  2  0
 10  6  1  0
 16 11  1  0
 33 23  1  0
 32 26  1  0
  1 34  1  0
  1 35  1  0
  1 36  1  0
  3 37  1  0
  3 38  1  0
  7 39  1  0
  7 40  1  0
  8 41  1  0
  8 42  1  0
  9 43  1  0
  9 44  1  0
 10 45  1  6
 13 46  1  0
 14 47  1  0
 15 48  1  0
 19 49  1  0
 19 50  1  0
 20 51  1  0
 24 52  1  0
 25 53  1  0
 27 54  1  0
 30 55  1  0
 31 56  1  0
M  END
>  <smiles>  (10) 
CN(CC(=O)N1CCC[C@H]1c1ncccn1)C(=O)CNC(=O)c1ccc2cc(Cl)ccc2n1

>  <score_type>  (10) 
oracle

>  <origin>  (10) 
autodockgpu

>  <m_score__min__energy>  (10) 
-8.5

>  <m_primary>  (10) 
energy

>  <rmsd>  (10) 
2.937359225596256

>  <m_score__min__rmsd>  (10) 
2.937359225596256

>  <meeko>  (10) 
{"free_energy": -7.84, "intermolecular_energy": -10.23, "internal_energy": -2.81, "cluster_size": 15, "cluster_id": 2, "rank_in_cluster": 10}

>  <energy>  (10) 
-7.6

>  <cluster_rmsd>  (10) 
1.62

>  <cluster>  (10) 
1

$$$$

     RDKit          3D

 56 59  0  0  0  0  0  0  0  0999 V2000
  136.7730   76.4050  220.7530 C   0  0  0  0  0  0  0  0  0  0  0  0
  138.1770   76.6540  221.1130 N   0  0  0  0  0  0  0  0  0  0  0  0
  138.7850   77.9200  220.8970 C   0  0  0  0  0  0  0  0  0  0  0  0
  139.3170   78.6580  222.0350 C   0  0  0  0  0  0  0  0  0  0  0  0
  138.4550   78.8470  222.9940 O   0  0  0  0  0  0  0  0  0  0  0  0
  140.5930   79.1800  222.2350 N   0  0  0  0  0  0  0  0  0  0  0  0
  141.7690   78.7440  222.9310 C   0  0  0  0  0  0  0  0  0  0  0  0
  142.1640   80.0250  223.6830 C   0  0  0  0  0  0  0  0  0  0  0  0
  142.0400   81.0330  222.5850 C   0  0  0  0  0  0  0  0  0  0  0  0
  141.0070   80.4920  221.6660 C   0  0  1  0  0  0  0  0  0  0  0  0
  141.5660   80.2550  220.3160 C   0  0  0  0  0  0  0  0  0  0  0  0
  141.8340   79.0350  219.8290 N   0  0  0  0  0  0  0  0  0  0  0  0
  142.3460   78.8810  218.5850 C   0  0  0  0  0  0  0  0  0  0  0  0
  142.6010   79.9730  217.7930 C   0  0  0  0  0  0  0  0  0  0  0  0
  142.3260   81.2300  218.2920 C   0  0  0  0  0  0  0  0  0  0  0  0
  141.8170   81.3080  219.5410 N   0  0  0  0  0  0  0  0  0  0  0  0
  138.9430   75.5770  221.7060 C   0  0  0  0  0  0  0  0  0  0  0  0
  139.7860   75.8820  222.5840 O   0  0  0  0  0  0  0  0  0  0  0  0
  138.7170   74.1980  221.2780 C   0  0  0  0  0  0  0  0  0  0  0  0
  139.1110   73.3150  222.3680 N   0  0  0  0  0  0  0  0  0  0  0  0
  138.7110   71.9610  222.3150 C   0  0  0  0  0  0  0  0  0  0  0  0
  138.0290   71.5180  221.3520 O   0  0  0  0  0  0  0  0  0  0  0  0
  139.0850   71.0360  223.3930 C   0  0  0  0  0  0  0  0  0  0  0  0
  138.8390   69.7020  223.2980 C   0  0  0  0  0  0  0  0  0  0  0  0
  139.2080   68.8570  224.3380 C   0  0  0  0  0  0  0  0  0  0  0  0
  139.8250   69.3700  225.4680 C   0  0  0  0  0  0  0  0  0  0  0  0
  140.2000   68.5360  226.5200 C   0  0  0  0  0  0  0  0  0  0  0  0
  140.8090   69.1250  227.6090 C   0  0  0  0  0  0  0  0  0  0  0  0
  141.3020   68.1350  228.9550 Cl  0  0  0  0  0  0  0  0  0  0  0  0
  141.0340   70.4790  227.6530 C   0  0  0  0  0  0  0  0  0  0  0  0
  140.6610   71.2890  226.6140 C   0  0  0  0  0  0  0  0  0  0  0  0
  140.0510   70.7260  225.5150 C   0  0  0  0  0  0  0  0  0  0  0  0
  139.6830   71.5090  224.4930 N   0  0  0  0  0  0  0  0  0  0  0  0
  136.1730   76.2986  221.6688 H   0  0  0  0  0  0  0  0  0  0  0  0
  136.3911   77.2494  220.1605 H   0  0  0  0  0  0  0  0  0  0  0  0
  136.7048   75.4807  220.1605 H   0  0  0  0  0  0  0  0  0  0  0  0
  139.6201   77.7602  220.1991 H   0  0  0  0  0  0  0  0  0  0  0  0
  137.9564   78.5502  220.5417 H   0  0  0  0  0  0  0  0  0  0  0  0
  141.5442   77.9217  223.6262 H   0  0  0  0  0  0  0  0  0  0  0  0
  142.5577   78.3433  222.2772 H   0  0  0  0  0  0  0  0  0  0  0  0
  141.4728   80.2394  224.5114 H   0  0  0  0  0  0  0  0  0  0  0  0
  143.1529   79.9888  224.1633 H   0  0  0  0  0  0  0  0  0  0  0  0
  141.7233   82.0056  222.9897 H   0  0  0  0  0  0  0  0  0  0  0  0
  142.9985   81.1971  222.0709 H   0  0  0  0  0  0  0  0  0  0  0  0
  140.1724   81.2024  221.5724 H   0  0  0  0  0  0  0  0  0  0  0  0
  142.5597   77.8710  218.2052 H   0  0  0  0  0  0  0  0  0  0  0  0
  143.0158   79.8487  216.7818 H   0  0  0  0  0  0  0  0  0  0  0  0
  142.5142   82.1346  217.6951 H   0  0  0  0  0  0  0  0  0  0  0  0
  137.6523   74.0499  221.0445 H   0  0  0  0  0  0  0  0  0  0  0  0
  139.3075   73.9773  220.3766 H   0  0  0  0  0  0  0  0  0  0  0  0
  139.6790   73.6540  223.1850 H   0  0  0  0  0  0  0  0  0  0  0  0
  138.3499   69.2932  222.4015 H   0  0  0  0  0  0  0  0  0  0  0  0
  139.0097   67.7776  224.2640 H   0  0  0  0  0  0  0  0  0  0  0  0
  140.0177   67.4518  226.4835 H   0  0  0  0  0  0  0  0  0  0  0  0
  141.5209   70.9192  228.5357 H   0  0  0  0  0  0  0  0  0  0  0  0
  140.8457   72.3726  226.6564 H   0  0  0  0  0  0  0  0  0  0  0  0
  1  2  1  0
  2  3  1  0
  3  4  1  0
  4  5  2  0
  4  6  1  0
  6  7  1  0
  7  8  1  0
  8  9  1  0
  9 10  1  0
 10 11  1  0
 11 12  2  0
 12 13  1  0
 13 14  2  0
 14 15  1  0
 15 16  2  0
  2 17  1  0
 17 18  2  0
 17 19  1  0
 19 20  1  0
 20 21  1  0
 21 22  2  0
 21 23  1  0
 23 24  2  0
 24 25  1  0
 25 26  2  0
 26 27  1  0
 27 28  2  0
 28 29  1  0
 28 30  1  0
 30 31  2  0
 31 32  1  0
 32 33  2  0
 10  6  1  0
 16 11  1  0
 33 23  1  0
 32 26  1  0
  1 34  1  0
  1 35  1  0
  1 36  1  0
  3 37  1  0
  3 38  1  0
  7 39  1  0
  7 40  1  0
  8 41  1  0
  8 42  1  0
  9 43  1  0
  9 44  1  0
 10 45  1  6
 13 46  1  0
 14 47  1  0
 15 48  1  0
 19 49  1  0
 19 50  1  0
 20 51  1  0
 24 52  1  0
 25 53  1  0
 27 54  1  0
 30 55  1  0
 31 56  1  0
M  END
>  <smiles>  (11) 
CN(CC(=O)N1CCC[C@H]1c1ncccn1)C(=O)CNC(=O)c1ccc2cc(Cl)ccc2n1

>  <score_type>  (11) 
oracle

>  <origin>  (11) 
autodockgpu

>  <m_score__min__energy>  (11) 
-8.5

>  <m_primary>  (11) 
energy

>  <rmsd>  (11) 
2.335146567183409

>  <m_score__min__rmsd>  (11) 
2.335146567183409

>  <meeko>  (11) 
{"free_energy": -7.96, "intermolecular_energy": -10.35, "internal_energy": -2.49, "cluster_size": 15, "cluster_id": 2, "rank_in_cluster": 9}

>  <energy>  (11) 
-7.36

>  <cluster_rmsd>  (11) 
1.96

>  <cluster>  (11) 
1

$$$$

     RDKit          3D

 56 59  0  0  0  0  0  0  0  0999 V2000
  142.6660   76.1160  218.5430 C   0  0  0  0  0  0  0  0  0  0  0  0
  141.5920   76.4290  219.4980 N   0  0  0  0  0  0  0  0  0  0  0  0
  140.9140   77.6780  219.4680 C   0  0  0  0  0  0  0  0  0  0  0  0
  141.4640   78.8030  220.2130 C   0  0  0  0  0  0  0  0  0  0  0  0
  142.2190   79.5910  219.5000 O   0  0  0  0  0  0  0  0  0  0  0  0
  141.2980   79.1460  221.5520 N   0  0  0  0  0  0  0  0  0  0  0  0
  141.3180   80.3730  222.2950 C   0  0  0  0  0  0  0  0  0  0  0  0
  142.2020   79.9840  223.4910 C   0  0  0  0  0  0  0  0  0  0  0  0
  141.5930   78.6700  223.8630 C   0  0  0  0  0  0  0  0  0  0  0  0
  141.0310   78.1230  222.6010 C   0  0  1  0  0  0  0  0  0  0  0  0
  139.5670   77.9380  222.7050 C   0  0  0  0  0  0  0  0  0  0  0  0
  138.6940   78.9540  222.7640 N   0  0  0  0  0  0  0  0  0  0  0  0
  137.3640   78.7230  222.8600 C   0  0  0  0  0  0  0  0  0  0  0  0
  136.8780   77.4390  222.8980 C   0  0  0  0  0  0  0  0  0  0  0  0
  137.7740   76.3910  222.8370 C   0  0  0  0  0  0  0  0  0  0  0  0
  139.0860   76.6970  222.7430 N   0  0  0  0  0  0  0  0  0  0  0  0
  141.2250   75.4310  220.4810 C   0  0  0  0  0  0  0  0  0  0  0  0
  142.1410   74.9650  221.2010 O   0  0  0  0  0  0  0  0  0  0  0  0
  139.8320   75.0060  220.6070 C   0  0  0  0  0  0  0  0  0  0  0  0
  139.7250   74.1430  221.7760 N   0  0  0  0  0  0  0  0  0  0  0  0
  140.0400   72.7740  221.6320 C   0  0  0  0  0  0  0  0  0  0  0  0
  140.4050   72.3000  220.5230 O   0  0  0  0  0  0  0  0  0  0  0  0
  139.9470   71.8680  222.7840 C   0  0  0  0  0  0  0  0  0  0  0  0
  139.3050   70.6720  222.6950 C   0  0  0  0  0  0  0  0  0  0  0  0
  139.2380   69.8410  223.8060 C   0  0  0  0  0  0  0  0  0  0  0  0
  139.8210   70.2260  225.0030 C   0  0  0  0  0  0  0  0  0  0  0  0
  139.7600   69.4040  226.1270 C   0  0  0  0  0  0  0  0  0  0  0  0
  140.3660   69.8620  227.2800 C   0  0  0  0  0  0  0  0  0  0  0  0
  140.3260   68.8800  228.7170 Cl  0  0  0  0  0  0  0  0  0  0  0  0
  141.0010   71.0790  227.3150 C   0  0  0  0  0  0  0  0  0  0  0  0
  141.0540   71.8790  226.2050 C   0  0  0  0  0  0  0  0  0  0  0  0
  140.4570   71.4460  225.0420 C   0  0  0  0  0  0  0  0  0  0  0  0
  140.5030   72.2200  223.9490 N   0  0  0  0  0  0  0  0  0  0  0  0
  143.5802   75.8496  219.0937 H   0  0  0  0  0  0  0  0  0  0  0  0
  142.3592   75.2699  217.9105 H   0  0  0  0  0  0  0  0  0  0  0  0
  142.8618   76.9944  217.9105 H   0  0  0  0  0  0  0  0  0  0  0  0
  140.8569   77.9875  218.4140 H   0  0  0  0  0  0  0  0  0  0  0  0
  139.9598   77.4701  219.9743 H   0  0  0  0  0  0  0  0  0  0  0  0
  141.7665   81.1904  221.7113 H   0  0  0  0  0  0  0  0  0  0  0  0
  140.3222   80.7485  222.5731 H   0  0  0  0  0  0  0  0  0  0  0  0
  143.2566   79.8746  223.1980 H   0  0  0  0  0  0  0  0  0  0  0  0
  142.2261   80.7249  224.3037 H   0  0  0  0  0  0  0  0  0  0  0  0
  142.3586   77.9923  224.2687 H   0  0  0  0  0  0  0  0  0  0  0  0
  140.8215   78.7822  224.6390 H   0  0  0  0  0  0  0  0  0  0  0  0
  141.4847   77.1467  222.3749 H   0  0  0  0  0  0  0  0  0  0  0  0
  136.6657   79.5715  222.9080 H   0  0  0  0  0  0  0  0  0  0  0  0
  135.7972   77.2498  222.9754 H   0  0  0  0  0  0  0  0  0  0  0  0
  137.4323   75.3458  222.8640 H   0  0  0  0  0  0  0  0  0  0  0  0
  139.1839   75.8858  220.7327 H   0  0  0  0  0  0  0  0  0  0  0  0
  139.5162   74.4639  219.7035 H   0  0  0  0  0  0  0  0  0  0  0  0
  139.4240   74.5080  222.7140 H   0  0  0  0  0  0  0  0  0  0  0  0
  138.8406   70.3641  221.7466 H   0  0  0  0  0  0  0  0  0  0  0  0
  138.7200   68.8732  223.7355 H   0  0  0  0  0  0  0  0  0  0  0  0
  139.2498   68.4300  226.0967 H   0  0  0  0  0  0  0  0  0  0  0  0
  141.4743   71.4164  228.2489 H   0  0  0  0  0  0  0  0  0  0  0  0
  141.5654   72.8522  226.2417 H   0  0  0  0  0  0  0  0  0  0  0  0
  1  2  1  0
  2  3  1  0
  3  4  1  0
  4  5  2  0
  4  6  1  0
  6  7  1  0
  7  8  1  0
  8  9  1  0
  9 10  1  0
 10 11  1  0
 11 12  2  0
 12 13  1  0
 13 14  2  0
 14 15  1  0
 15 16  2  0
  2 17  1  0
 17 18  2  0
 17 19  1  0
 19 20  1  0
 20 21  1  0
 21 22  2  0
 21 23  1  0
 23 24  2  0
 24 25  1  0
 25 26  2  0
 26 27  1  0
 27 28  2  0
 28 29  1  0
 28 30  1  0
 30 31  2  0
 31 32  1  0
 32 33  2  0
 10  6  1  0
 16 11  1  0
 33 23  1  0
 32 26  1  0
  1 34  1  0
  1 35  1  0
  1 36  1  0
  3 37  1  0
  3 38  1  0
  7 39  1  0
  7 40  1  0
  8 41  1  0
  8 42  1  0
  9 43  1  0
  9 44  1  0
 10 45  1  6
 13 46  1  0
 14 47  1  0
 15 48  1  0
 19 49  1  0
 19 50  1  0
 20 51  1  0
 24 52  1  0
 25 53  1  0
 27 54  1  0
 30 55  1  0
 31 56  1  0
M  END
>  <smiles>  (12) 
CN(CC(=O)N1CCC[C@H]1c1ncccn1)C(=O)CNC(=O)c1ccc2cc(Cl)ccc2n1

>  <score_type>  (12) 
oracle

>  <origin>  (12) 
autodockgpu

>  <m_score__min__energy>  (12) 
-8.5

>  <m_primary>  (12) 
energy

>  <rmsd>  (12) 
2.299759522584046

>  <m_score__min__rmsd>  (12) 
2.299759522584046

>  <meeko>  (12) 
{"free_energy": -7.76, "intermolecular_energy": -10.15, "internal_energy": -2.89, "cluster_size": 12, "cluster_id": 1, "rank_in_cluster": 9}

>  <energy>  (12) 
-5.82

>  <cluster_rmsd>  (12) 
1.95

>  <cluster>  (12) 
1

$$$$

     RDKit          3D

 56 59  0  0  0  0  0  0  0  0999 V2000
  142.5840   76.7410  219.8520 C   0  0  0  0  0  0  0  0  0  0  0  0
  141.2440   77.0760  220.3580 N   0  0  0  0  0  0  0  0  0  0  0  0
  140.5180   78.1890  219.8530 C   0  0  0  0  0  0  0  0  0  0  0  0
  140.8630   79.5290  220.3100 C   0  0  0  0  0  0  0  0  0  0  0  0
  140.7560   80.4460  219.3890 O   0  0  0  0  0  0  0  0  0  0  0  0
  141.2830   79.9570  221.5660 N   0  0  0  0  0  0  0  0  0  0  0  0
  142.2180   80.9340  222.0450 C   0  0  0  0  0  0  0  0  0  0  0  0
  142.9660   80.1300  223.1200 C   0  0  0  0  0  0  0  0  0  0  0  0
  141.8160   79.5000  223.8380 C   0  0  0  0  0  0  0  0  0  0  0  0
  140.7400   79.3700  222.8230 C   0  0  1  0  0  0  0  0  0  0  0  0
  139.5410   80.1430  223.2140 C   0  0  0  0  0  0  0  0  0  0  0  0
  138.8100   79.8770  224.3060 N   0  0  0  0  0  0  0  0  0  0  0  0
  137.7220   80.6210  224.6120 C   0  0  0  0  0  0  0  0  0  0  0  0
  137.3410   81.6680  223.8090 C   0  0  0  0  0  0  0  0  0  0  0  0
  138.0920   81.9450  222.6850 C   0  0  0  0  0  0  0  0  0  0  0  0
  139.1640   81.1610  222.4420 N   0  0  0  0  0  0  0  0  0  0  0  0
  140.6630   76.2420  221.3890 C   0  0  0  0  0  0  0  0  0  0  0  0
  140.9460   76.5130  222.5810 O   0  0  0  0  0  0  0  0  0  0  0  0
  139.7810   75.1340  221.0220 C   0  0  0  0  0  0  0  0  0  0  0  0
  139.7570   74.1890  222.1310 N   0  0  0  0  0  0  0  0  0  0  0  0
  139.9980   72.8250  221.8560 C   0  0  0  0  0  0  0  0  0  0  0  0
  140.2290   72.4240  220.6840 O   0  0  0  0  0  0  0  0  0  0  0  0
  139.9830   71.8370  222.9430 C   0  0  0  0  0  0  0  0  0  0  0  0
  139.4610   70.5940  222.7640 C   0  0  0  0  0  0  0  0  0  0  0  0
  139.4650   69.6860  223.8160 C   0  0  0  0  0  0  0  0  0  0  0  0
  139.9980   70.0430  225.0440 C   0  0  0  0  0  0  0  0  0  0  0  0
  140.0090   69.1440  226.1100 C   0  0  0  0  0  0  0  0  0  0  0  0
  140.5590   69.5780  227.2990 C   0  0  0  0  0  0  0  0  0  0  0  0
  140.6020   68.4990  228.6660 Cl  0  0  0  0  0  0  0  0  0  0  0  0
  141.0730   70.8440  227.4250 C   0  0  0  0  0  0  0  0  0  0  0  0
  141.0570   71.7200  226.3730 C   0  0  0  0  0  0  0  0  0  0  0  0
  140.5140   71.3120  225.1740 C   0  0  0  0  0  0  0  0  0  0  0  0
  140.4940   72.1600  224.1370 N   0  0  0  0  0  0  0  0  0  0  0  0
  143.2641   76.5710  220.6997 H   0  0  0  0  0  0  0  0  0  0  0  0
  142.5271   75.8294  219.2390 H   0  0  0  0  0  0  0  0  0  0  0  0
  142.9628   77.5721  219.2390 H   0  0  0  0  0  0  0  0  0  0  0  0
  140.6377   78.1815  218.7596 H   0  0  0  0  0  0  0  0  0  0  0  0
  139.4998   78.0346  220.2397 H   0  0  0  0  0  0  0  0  0  0  0  0
  142.8967   81.2679  221.2463 H   0  0  0  0  0  0  0  0  0  0  0  0
  141.7534   81.8597  222.4154 H   0  0  0  0  0  0  0  0  0  0  0  0
  143.6294   79.3744  222.6739 H   0  0  0  0  0  0  0  0  0  0  0  0
  143.6331   80.7278  223.7584 H   0  0  0  0  0  0  0  0  0  0  0  0
  142.1002   78.5108  224.2263 H   0  0  0  0  0  0  0  0  0  0  0  0
  141.4937   80.1015  224.7007 H   0  0  0  0  0  0  0  0  0  0  0  0
  140.4474   78.3153  222.7136 H   0  0  0  0  0  0  0  0  0  0  0  0
  137.1368   80.3849  225.5130 H   0  0  0  0  0  0  0  0  0  0  0  0
  136.4562   82.2728  224.0566 H   0  0  0  0  0  0  0  0  0  0  0  0
  137.8271   82.7738  222.0120 H   0  0  0  0  0  0  0  0  0  0  0  0
  138.7657   75.5125  220.8325 H   0  0  0  0  0  0  0  0  0  0  0  0
  140.1470   74.6415  220.1091 H   0  0  0  0  0  0  0  0  0  0  0  0
  139.5680   74.4910  223.1190 H   0  0  0  0  0  0  0  0  0  0  0  0
  139.0371   70.3084  221.7900 H   0  0  0  0  0  0  0  0  0  0  0  0
  139.0434   68.6801  223.6732 H   0  0  0  0  0  0  0  0  0  0  0  0
  139.5959   68.1297  226.0073 H   0  0  0  0  0  0  0  0  0  0  0  0
  141.5046   71.1600  228.3862 H   0  0  0  0  0  0  0  0  0  0  0  0
  141.4709   72.7332  226.4831 H   0  0  0  0  0  0  0  0  0  0  0  0
  1  2  1  0
  2  3  1  0
  3  4  1  0
  4  5  2  0
  4  6  1  0
  6  7  1  0
  7  8  1  0
  8  9  1  0
  9 10  1  0
 10 11  1  0
 11 12  2  0
 12 13  1  0
 13 14  2  0
 14 15  1  0
 15 16  2  0
  2 17  1  0
 17 18  2  0
 17 19  1  0
 19 20  1  0
 20 21  1  0
 21 22  2  0
 21 23  1  0
 23 24  2  0
 24 25  1  0
 25 26  2  0
 26 27  1  0
 27 28  2  0
 28 29  1  0
 28 30  1  0
 30 31  2  0
 31 32  1  0
 32 33  2  0
 10  6  1  0
 16 11  1  0
 33 23  1  0
 32 26  1  0
  1 34  1  0
  1 35  1  0
  1 36  1  0
  3 37  1  0
  3 38  1  0
  7 39  1  0
  7 40  1  0
  8 41  1  0
  8 42  1  0
  9 43  1  0
  9 44  1  0
 10 45  1  6
 13 46  1  0
 14 47  1  0
 15 48  1  0
 19 49  1  0
 19 50  1  0
 20 51  1  0
 24 52  1  0
 25 53  1  0
 27 54  1  0
 30 55  1  0
 31 56  1  0
M  END
>  <smiles>  (13) 
CN(CC(=O)N1CCC[C@H]1c1ncccn1)C(=O)CNC(=O)c1ccc2cc(Cl)ccc2n1

>  <score_type>  (13) 
oracle

>  <origin>  (13) 
autodockgpu

>  <m_score__min__energy>  (13) 
-8.5

>  <m_primary>  (13) 
energy

>  <rmsd>  (13) 
2.2869476552802435

>  <m_score__min__rmsd>  (13) 
2.2869476552802435

>  <meeko>  (13) 
{"free_energy": -8.42, "intermolecular_energy": -10.81, "internal_energy": -2.39, "cluster_size": 12, "cluster_id": 1, "rank_in_cluster": 3}

>  <energy>  (13) 
-8.34

>  <cluster_rmsd>  (13) 
0.0

>  <cluster>  (13) 
2

$$$$

     RDKit          3D

 56 59  0  0  0  0  0  0  0  0999 V2000
  138.2720   83.0280  221.2780 C   0  0  0  0  0  0  0  0  0  0  0  0
  139.0990   82.4390  220.2130 N   0  0  0  0  0  0  0  0  0  0  0  0
  140.5180   82.5180  220.2470 C   0  0  0  0  0  0  0  0  0  0  0  0
  141.2850   81.3550  220.6750 C   0  0  0  0  0  0  0  0  0  0  0  0
  141.8520   80.7050  219.6970 O   0  0  0  0  0  0  0  0  0  0  0  0
  141.4900   80.8520  221.9570 N   0  0  0  0  0  0  0  0  0  0  0  0
  141.4170   81.3940  223.2830 C   0  0  0  0  0  0  0  0  0  0  0  0
  142.7220   80.8610  223.8960 C   0  0  0  0  0  0  0  0  0  0  0  0
  142.6620   79.4310  223.4600 C   0  0  0  0  0  0  0  0  0  0  0  0
  141.8850   79.4350  222.1950 C   0  0  1  0  0  0  0  0  0  0  0  0
  140.6530   78.6270  222.3230 C   0  0  0  0  0  0  0  0  0  0  0  0
  140.6500   77.2900  222.4140 N   0  0  0  0  0  0  0  0  0  0  0  0
  139.4880   76.6040  222.5300 C   0  0  0  0  0  0  0  0  0  0  0  0
  138.2850   77.2650  222.5570 C   0  0  0  0  0  0  0  0  0  0  0  0
  138.2850   78.6420  222.4630 C   0  0  0  0  0  0  0  0  0  0  0  0
  139.4810   79.2590  222.3500 N   0  0  0  0  0  0  0  0  0  0  0  0
  138.4390   81.7630  219.1160 C   0  0  0  0  0  0  0  0  0  0  0  0
  138.2190   82.4280  218.0750 O   0  0  0  0  0  0  0  0  0  0  0  0
  138.0580   80.3570  219.2460 C   0  0  0  0  0  0  0  0  0  0  0  0
  139.2620   79.5870  219.5290 N   0  0  0  0  0  0  0  0  0  0  0  0
  139.5550   78.4730  218.7110 C   0  0  0  0  0  0  0  0  0  0  0  0
  138.8000   78.1460  217.7560 O   0  0  0  0  0  0  0  0  0  0  0  0
  140.7580   77.6680  218.9600 C   0  0  0  0  0  0  0  0  0  0  0  0
  141.9840   78.0730  218.5320 C   0  0  0  0  0  0  0  0  0  0  0  0
  143.0990   77.2850  218.7880 C   0  0  0  0  0  0  0  0  0  0  0  0
  142.9660   76.0890  219.4760 C   0  0  0  0  0  0  0  0  0  0  0  0
  144.0750   75.2860  219.7380 C   0  0  0  0  0  0  0  0  0  0  0  0
  143.8570   74.1120  220.4290 C   0  0  0  0  0  0  0  0  0  0  0  0
  145.2030   73.0670  220.7890 Cl  0  0  0  0  0  0  0  0  0  0  0  0
  142.5970   73.7500  220.8390 C   0  0  0  0  0  0  0  0  0  0  0  0
  141.5150   74.5460  220.5750 C   0  0  0  0  0  0  0  0  0  0  0  0
  141.7040   75.7240  219.8870 C   0  0  0  0  0  0  0  0  0  0  0  0
  140.6520   76.5100  219.6240 N   0  0  0  0  0  0  0  0  0  0  0  0
  138.6773   82.7393  222.2590 H   0  0  0  0  0  0  0  0  0  0  0  0
  138.2812   84.1241  221.1856 H   0  0  0  0  0  0  0  0  0  0  0  0
  137.2392   82.6609  221.1856 H   0  0  0  0  0  0  0  0  0  0  0  0
  140.8506   82.7650  219.2280 H   0  0  0  0  0  0  0  0  0  0  0  0
  140.7196   83.2661  221.0279 H   0  0  0  0  0  0  0  0  0  0  0  0
  141.3982   82.4937  223.2685 H   0  0  0  0  0  0  0  0  0  0  0  0
  140.5097   81.1112  223.8369 H   0  0  0  0  0  0  0  0  0  0  0  0
  143.6036   81.3746  223.4848 H   0  0  0  0  0  0  0  0  0  0  0  0
  142.8115   81.0062  224.9827 H   0  0  0  0  0  0  0  0  0  0  0  0
  143.6751   79.0387  223.2878 H   0  0  0  0  0  0  0  0  0  0  0  0
  142.1961   78.7905  224.2234 H   0  0  0  0  0  0  0  0  0  0  0  0
  142.4882   79.0132  221.3775 H   0  0  0  0  0  0  0  0  0  0  0  0
  139.5083   75.5066  222.6033 H   0  0  0  0  0  0  0  0  0  0  0  0
  137.3408   76.7087  222.6516 H   0  0  0  0  0  0  0  0  0  0  0  0
  137.3463   79.2152  222.4795 H   0  0  0  0  0  0  0  0  0  0  0  0
  137.3383   80.2402  220.0697 H   0  0  0  0  0  0  0  0  0  0  0  0
  137.5876   80.0018  218.3173 H   0  0  0  0  0  0  0  0  0  0  0  0
  139.9120   79.8340  220.3170 H   0  0  0  0  0  0  0  0  0  0  0  0
  142.0921   79.0212  217.9850 H   0  0  0  0  0  0  0  0  0  0  0  0
  144.0913   77.6114  218.4434 H   0  0  0  0  0  0  0  0  0  0  0  0
  145.0830   75.5767  219.4072 H   0  0  0  0  0  0  0  0  0  0  0  0
  142.4554   72.8070  221.3873 H   0  0  0  0  0  0  0  0  0  0  0  0
  140.5094   74.2491  220.9075 H   0  0  0  0  0  0  0  0  0  0  0  0
  1  2  1  0
  2  3  1  0
  3  4  1  0
  4  5  2  0
  4  6  1  0
  6  7  1  0
  7  8  1  0
  8  9  1  0
  9 10  1  0
 10 11  1  0
 11 12  2  0
 12 13  1  0
 13 14  2  0
 14 15  1  0
 15 16  2  0
  2 17  1  0
 17 18  2  0
 17 19  1  0
 19 20  1  0
 20 21  1  0
 21 22  2  0
 21 23  1  0
 23 24  2  0
 24 25  1  0
 25 26  2  0
 26 27  1  0
 27 28  2  0
 28 29  1  0
 28 30  1  0
 30 31  2  0
 31 32  1  0
 32 33  2  0
 10  6  1  0
 16 11  1  0
 33 23  1  0
 32 26  1  0
  1 34  1  0
  1 35  1  0
  1 36  1  0
  3 37  1  0
  3 38  1  0
  7 39  1  0
  7 40  1  0
  8 41  1  0
  8 42  1  0
  9 43  1  0
  9 44  1  0
 10 45  1  6
 13 46  1  0
 14 47  1  0
 15 48  1  0
 19 49  1  0
 19 50  1  0
 20 51  1  0
 24 52  1  0
 25 53  1  0
 27 54  1  0
 30 55  1  0
 31 56  1  0
M  END
>  <smiles>  (14) 
CN(CC(=O)N1CCC[C@H]1c1ncccn1)C(=O)CNC(=O)c1ccc2cc(Cl)ccc2n1

>  <score_type>  (14) 
oracle

>  <origin>  (14) 
autodockgpu

>  <m_score__min__energy>  (14) 
-8.5

>  <m_primary>  (14) 
energy

>  <rmsd>  (14) 
7.614267643112028

>  <m_score__min__rmsd>  (14) 
7.614267643112028

>  <meeko>  (14) 
{"free_energy": -5.13, "intermolecular_energy": -7.52, "internal_energy": -4.85, "cluster_size": 2, "cluster_id": 12, "rank_in_cluster": 1}

>  <energy>  (14) 
-8.3

>  <cluster_rmsd>  (14) 
0.9

>  <cluster>  (14) 
2

$$$$

     RDKit          3D

 56 59  0  0  0  0  0  0  0  0999 V2000
  139.0990   77.7650  218.8310 C   0  0  0  0  0  0  0  0  0  0  0  0
  138.6950   77.3520  220.1840 N   0  0  0  0  0  0  0  0  0  0  0  0
  138.4030   78.3060  221.1950 C   0  0  0  0  0  0  0  0  0  0  0  0
  139.2720   78.3950  222.3610 C   0  0  0  0  0  0  0  0  0  0  0  0
  138.7120   78.0000  223.4700 O   0  0  0  0  0  0  0  0  0  0  0  0
  140.5900   78.8360  222.4540 N   0  0  0  0  0  0  0  0  0  0  0  0
  141.6550   78.6580  223.3980 C   0  0  0  0  0  0  0  0  0  0  0  0
  142.1660   80.1000  223.5470 C   0  0  0  0  0  0  0  0  0  0  0  0
  142.2420   80.5110  222.1100 C   0  0  0  0  0  0  0  0  0  0  0  0
  141.2050   79.7070  221.4140 C   0  0  1  0  0  0  0  0  0  0  0  0
  141.8100   78.8380  220.3810 C   0  0  0  0  0  0  0  0  0  0  0  0
  142.0910   77.5420  220.5740 N   0  0  0  0  0  0  0  0  0  0  0  0
  142.6450   76.7960  219.5890 C   0  0  0  0  0  0  0  0  0  0  0  0
  142.9320   77.3530  218.3670 C   0  0  0  0  0  0  0  0  0  0  0  0
  142.6430   78.6870  218.1650 C   0  0  0  0  0  0  0  0  0  0  0  0
  142.0910   79.3690  219.1920 N   0  0  0  0  0  0  0  0  0  0  0  0
  138.5930   75.9370  220.4750 C   0  0  0  0  0  0  0  0  0  0  0  0
  137.4410   75.4430  220.5470 O   0  0  0  0  0  0  0  0  0  0  0  0
  139.8040   75.1410  220.6700 C   0  0  0  0  0  0  0  0  0  0  0  0
  139.5810   74.2470  221.7990 N   0  0  0  0  0  0  0  0  0  0  0  0
  140.2010   72.9790  221.7850 C   0  0  0  0  0  0  0  0  0  0  0  0
  140.9310   72.6180  220.8230 O   0  0  0  0  0  0  0  0  0  0  0  0
  140.0040   72.0460  222.9020 C   0  0  0  0  0  0  0  0  0  0  0  0
  139.1880   70.9630  222.7860 C   0  0  0  0  0  0  0  0  0  0  0  0
  139.0270   70.1030  223.8650 C   0  0  0  0  0  0  0  0  0  0  0  0
  139.6930   70.3440  225.0560 C   0  0  0  0  0  0  0  0  0  0  0  0
  139.5410   69.4900  226.1470 C   0  0  0  0  0  0  0  0  0  0  0  0
  140.2400   69.8010  227.2970 C   0  0  0  0  0  0  0  0  0  0  0  0
  140.0910   68.7720  228.6940 Cl  0  0  0  0  0  0  0  0  0  0  0  0
  141.0500   70.9070  227.3600 C   0  0  0  0  0  0  0  0  0  0  0  0
  141.1920   71.7390  226.2810 C   0  0  0  0  0  0  0  0  0  0  0  0
  140.5060   71.4520  225.1220 C   0  0  0  0  0  0  0  0  0  0  0  0
  140.6380   72.2590  224.0610 N   0  0  0  0  0  0  0  0  0  0  0  0
  139.8666   78.5498  218.9011 H   0  0  0  0  0  0  0  0  0  0  0  0
  139.5083   76.8990  218.2901 H   0  0  0  0  0  0  0  0  0  0  0  0
  138.2242   78.1551  218.2901 H   0  0  0  0  0  0  0  0  0  0  0  0
  138.4080   79.2954  220.7143 H   0  0  0  0  0  0  0  0  0  0  0  0
  137.4437   77.9624  221.6095 H   0  0  0  0  0  0  0  0  0  0  0  0
  141.2838   78.2610  224.3544 H   0  0  0  0  0  0  0  0  0  0  0  0
  142.4232   77.9372  223.0813 H   0  0  0  0  0  0  0  0  0  0  0  0
  141.4588   80.7254  224.1116 H   0  0  0  0  0  0  0  0  0  0  0  0
  143.1104   80.1970  224.1026 H   0  0  0  0  0  0  0  0  0  0  0  0
  142.0304   81.5854  222.0054 H   0  0  0  0  0  0  0  0  0  0  0  0
  143.2434   80.3400  221.6882 H   0  0  0  0  0  0  0  0  0  0  0  0
  140.4767   80.3689  220.9225 H   0  0  0  0  0  0  0  0  0  0  0  0
  142.8672   75.7339  219.7694 H   0  0  0  0  0  0  0  0  0  0  0  0
  143.3828   76.7485  217.5662 H   0  0  0  0  0  0  0  0  0  0  0  0
  142.8543   79.1770  217.2031 H   0  0  0  0  0  0  0  0  0  0  0  0
  140.0135   74.5529  219.7643 H   0  0  0  0  0  0  0  0  0  0  0  0
  140.6640   75.7977  220.8679 H   0  0  0  0  0  0  0  0  0  0  0  0
  138.9780   74.5180  222.6160 H   0  0  0  0  0  0  0  0  0  0  0  0
  138.6581   70.7694  221.8417 H   0  0  0  0  0  0  0  0  0  0  0  0
  138.3680   69.2270  223.7736 H   0  0  0  0  0  0  0  0  0  0  0  0
  138.8908   68.6043  226.0943 H   0  0  0  0  0  0  0  0  0  0  0  0
  141.5932   71.1287  228.2905 H   0  0  0  0  0  0  0  0  0  0  0  0
  141.8441   72.6229  226.3395 H   0  0  0  0  0  0  0  0  0  0  0  0
  1  2  1  0
  2  3  1  0
  3  4  1  0
  4  5  2  0
  4  6  1  0
  6  7  1  0
  7  8  1  0
  8  9  1  0
  9 10  1  0
 10 11  1  0
 11 12  2  0
 12 13  1  0
 13 14  2  0
 14 15  1  0
 15 16  2  0
  2 17  1  0
 17 18  2  0
 17 19  1  0
 19 20  1  0
 20 21  1  0
 21 22  2  0
 21 23  1  0
 23 24  2  0
 24 25  1  0
 25 26  2  0
 26 27  1  0
 27 28  2  0
 28 29  1  0
 28 30  1  0
 30 31  2  0
 31 32  1  0
 32 33  2  0
 10  6  1  0
 16 11  1  0
 33 23  1  0
 32 26  1  0
  1 34  1  0
  1 35  1  0
  1 36  1  0
  3 37  1  0
  3 38  1  0
  7 39  1  0
  7 40  1  0
  8 41  1  0
  8 42  1  0
  9 43  1  0
  9 44  1  0
 10 45  1  6
 13 46  1  0
 14 47  1  0
 15 48  1  0
 19 49  1  0
 19 50  1  0
 20 51  1  0
 24 52  1  0
 25 53  1  0
 27 54  1  0
 30 55  1  0
 31 56  1  0
M  END
>  <smiles>  (15) 
CN(CC(=O)N1CCC[C@H]1c1ncccn1)C(=O)CNC(=O)c1ccc2cc(Cl)ccc2n1

>  <score_type>  (15) 
oracle

>  <origin>  (15) 
autodockgpu

>  <m_score__min__energy>  (15) 
-8.5

>  <m_primary>  (15) 
energy

>  <rmsd>  (15) 
2.6504326273132217

>  <m_score__min__rmsd>  (15) 
2.6504326273132217

>  <meeko>  (15) 
{"free_energy": -7.47, "intermolecular_energy": -9.85, "internal_energy": -2.44, "cluster_size": 15, "cluster_id": 2, "rank_in_cluster": 15}

>  <energy>  (15) 
-8.2

>  <cluster_rmsd>  (15) 
0.31

>  <cluster>  (15) 
2

$$$$

     RDKit          3D

 56 59  0  0  0  0  0  0  0  0999 V2000
  136.5620   73.0120  220.2740 C   0  0  0  0  0  0  0  0  0  0  0  0
  137.8370   73.7420  220.3570 N   0  0  0  0  0  0  0  0  0  0  0  0
  138.1640   74.5380  221.4870 C   0  0  0  0  0  0  0  0  0  0  0  0
  139.5530   74.6260  221.9170 C   0  0  0  0  0  0  0  0  0  0  0  0
  139.9330   73.6450  222.6870 O   0  0  0  0  0  0  0  0  0  0  0  0
  140.5120   75.5940  221.6270 N   0  0  0  0  0  0  0  0  0  0  0  0
  141.0740   76.7080  222.3330 C   0  0  0  0  0  0  0  0  0  0  0  0
  141.0220   77.8020  221.2550 C   0  0  0  0  0  0  0  0  0  0  0  0
  141.5770   77.0560  220.0830 C   0  0  0  0  0  0  0  0  0  0  0  0
  141.2230   75.6320  220.3180 C   0  0  1  0  0  0  0  0  0  0  0  0
  142.4360   74.7920  220.4270 C   0  0  0  0  0  0  0  0  0  0  0  0
  143.6800   75.2640  220.2660 N   0  0  0  0  0  0  0  0  0  0  0  0
  144.7530   74.4450  220.3770 C   0  0  0  0  0  0  0  0  0  0  0  0
  144.5900   73.1110  220.6570 C   0  0  0  0  0  0  0  0  0  0  0  0
  143.3090   72.6230  220.8230 C   0  0  0  0  0  0  0  0  0  0  0  0
  142.2880   73.4970  220.6990 N   0  0  0  0  0  0  0  0  0  0  0  0
  138.7720   73.6320  219.2560 C   0  0  0  0  0  0  0  0  0  0  0  0
  138.8040   74.5750  218.4280 O   0  0  0  0  0  0  0  0  0  0  0  0
  139.6320   72.4550  219.1420 C   0  0  0  0  0  0  0  0  0  0  0  0
  139.8290   71.9070  220.4770 N   0  0  0  0  0  0  0  0  0  0  0  0
  139.0500   70.7970  220.8700 C   0  0  0  0  0  0  0  0  0  0  0  0
  138.2020   70.2840  220.0920 O   0  0  0  0  0  0  0  0  0  0  0  0
  139.2160   70.2130  222.2080 C   0  0  0  0  0  0  0  0  0  0  0  0
  138.6550   69.0170  222.5330 C   0  0  0  0  0  0  0  0  0  0  0  0
  138.8340   68.4960  223.8080 C   0  0  0  0  0  0  0  0  0  0  0  0
  139.5810   69.1890  224.7470 C   0  0  0  0  0  0  0  0  0  0  0  0
  139.7690   68.6800  226.0320 C   0  0  0  0  0  0  0  0  0  0  0  0
  140.5260   69.4320  226.9070 C   0  0  0  0  0  0  0  0  0  0  0  0
  140.7970   68.8480  228.5250 Cl  0  0  0  0  0  0  0  0  0  0  0  0
  141.0700   70.6340  226.5260 C   0  0  0  0  0  0  0  0  0  0  0  0
  140.8790   71.1250  225.2620 C   0  0  0  0  0  0  0  0  0  0  0  0
  140.1270   70.3940  224.3690 C   0  0  0  0  0  0  0  0  0  0  0  0
  139.9340   70.8650  223.1300 N   0  0  0  0  0  0  0  0  0  0  0  0
  136.1935   72.8010  221.2888 H   0  0  0  0  0  0  0  0  0  0  0  0
  135.8234   73.6241  219.7356 H   0  0  0  0  0  0  0  0  0  0  0  0
  136.7159   72.0652  219.7356 H   0  0  0  0  0  0  0  0  0  0  0  0
  137.8307   75.5626  221.2655 H   0  0  0  0  0  0  0  0  0  0  0  0
  137.6640   74.0248  222.3217 H   0  0  0  0  0  0  0  0  0  0  0  0
  140.4670   76.9771  223.2100 H   0  0  0  0  0  0  0  0  0  0  0  0
  142.0789   76.5235  222.7407 H   0  0  0  0  0  0  0  0  0  0  0  0
  139.9921   78.1412  221.0699 H   0  0  0  0  0  0  0  0  0  0  0  0
  141.5650   78.7238  221.5107 H   0  0  0  0  0  0  0  0  0  0  0  0
  141.1234   77.4160  219.1478 H   0  0  0  0  0  0  0  0  0  0  0  0
  142.6636   77.1967  219.9858 H   0  0  0  0  0  0  0  0  0  0  0  0
  140.6140   75.2494  219.4857 H   0  0  0  0  0  0  0  0  0  0  0  0
  145.7655   74.8530  220.2414 H   0  0  0  0  0  0  0  0  0  0  0  0
  145.4610   72.4452  220.7472 H   0  0  0  0  0  0  0  0  0  0  0  0
  143.1274   71.5617  221.0479 H   0  0  0  0  0  0  0  0  0  0  0  0
  139.1521   71.7036  218.4977 H   0  0  0  0  0  0  0  0  0  0  0  0
  140.5993   72.7317  218.6973 H   0  0  0  0  0  0  0  0  0  0  0  0
  140.5280   72.3120  221.1500 H   0  0  0  0  0  0  0  0  0  0  0  0
  138.0620   68.4648  221.7890 H   0  0  0  0  0  0  0  0  0  0  0  0
  138.3810   67.5294  224.0734 H   0  0  0  0  0  0  0  0  0  0  0  0
  139.3313   67.7176  226.3357 H   0  0  0  0  0  0  0  0  0  0  0  0
  141.6680   71.2109  227.2468 H   0  0  0  0  0  0  0  0  0  0  0  0
  141.3192   72.0881  224.9644 H   0  0  0  0  0  0  0  0  0  0  0  0
  1  2  1  0
  2  3  1  0
  3  4  1  0
  4  5  2  0
  4  6  1  0
  6  7  1  0
  7  8  1  0
  8  9  1  0
  9 10  1  0
 10 11  1  0
 11 12  2  0
 12 13  1  0
 13 14  2  0
 14 15  1  0
 15 16  2  0
  2 17  1  0
 17 18  2  0
 17 19  1  0
 19 20  1  0
 20 21  1  0
 21 22  2  0
 21 23  1  0
 23 24  2  0
 24 25  1  0
 25 26  2  0
 26 27  1  0
 27 28  2  0
 28 29  1  0
 28 30  1  0
 30 31  2  0
 31 32  1  0
 32 33  2  0
 10  6  1  0
 16 11  1  0
 33 23  1  0
 32 26  1  0
  1 34  1  0
  1 35  1  0
  1 36  1  0
  3 37  1  0
  3 38  1  0
  7 39  1  0
  7 40  1  0
  8 41  1  0
  8 42  1  0
  9 43  1  0
  9 44  1  0
 10 45  1  6
 13 46  1  0
 14 47  1  0
 15 48  1  0
 19 49  1  0
 19 50  1  0
 20 51  1  0
 24 52  1  0
 25 53  1  0
 27 54  1  0
 30 55  1  0
 31 56  1  0
M  END
>  <smiles>  (16) 
CN(CC(=O)N1CCC[C@H]1c1ncccn1)C(=O)CNC(=O)c1ccc2cc(Cl)ccc2n1

>  <score_type>  (16) 
oracle

>  <origin>  (16) 
autodockgpu

>  <m_score__min__energy>  (16) 
-8.5

>  <m_primary>  (16) 
energy

>  <rmsd>  (16) 
3.1849074931660466

>  <m_score__min__rmsd>  (16) 
3.1849074931660466

>  <meeko>  (16) 
{"free_energy": -6.17, "intermolecular_energy": -8.56, "internal_energy": -4.49, "cluster_size": 4, "cluster_id": 3, "rank_in_cluster": 4}

>  <energy>  (16) 
-8.16

>  <cluster_rmsd>  (16) 
0.93

>  <cluster>  (16) 
2

$$$$

     RDKit          3D

 56 59  0  0  0  0  0  0  0  0999 V2000
  139.5200   84.6110  221.5930 C   0  0  0  0  0  0  0  0  0  0  0  0
  138.9880   83.3530  221.0480 N   0  0  0  0  0  0  0  0  0  0  0  0
  137.7310   82.8370  221.4630 C   0  0  0  0  0  0  0  0  0  0  0  0
  137.6930   81.6360  222.2880 C   0  0  0  0  0  0  0  0  0  0  0  0
  137.0410   81.7820  223.4080 O   0  0  0  0  0  0  0  0  0  0  0  0
  138.2460   80.3800  222.0510 N   0  0  0  0  0  0  0  0  0  0  0  0
  138.3820   79.5320  220.9020 C   0  0  0  0  0  0  0  0  0  0  0  0
  137.9420   78.1760  221.4780 C   0  0  0  0  0  0  0  0  0  0  0  0
  138.7180   78.1590  222.7560 C   0  0  0  0  0  0  0  0  0  0  0  0
  138.8910   79.5850  223.1330 C   0  0  1  0  0  0  0  0  0  0  0  0
  140.3230   79.9520  223.1860 C   0  0  0  0  0  0  0  0  0  0  0  0
  140.7610   81.2000  223.4020 N   0  0  0  0  0  0  0  0  0  0  0  0
  142.0860   81.4760  223.4390 C   0  0  0  0  0  0  0  0  0  0  0  0
  143.0130   80.4790  223.2560 C   0  0  0  0  0  0  0  0  0  0  0  0
  142.5650   79.1930  223.0340 C   0  0  0  0  0  0  0  0  0  0  0  0
  141.2300   78.9930  223.0100 N   0  0  0  0  0  0  0  0  0  0  0  0
  139.7720   82.6380  220.0620 C   0  0  0  0  0  0  0  0  0  0  0  0
  139.1860   82.2590  219.0200 O   0  0  0  0  0  0  0  0  0  0  0  0
  141.1920   82.3840  220.3020 C   0  0  0  0  0  0  0  0  0  0  0  0
  141.3800   80.9450  220.4260 N   0  0  0  0  0  0  0  0  0  0  0  0
  141.8410   80.2270  219.3000 C   0  0  0  0  0  0  0  0  0  0  0  0
  142.0860   80.8080  218.2090 O   0  0  0  0  0  0  0  0  0  0  0  0
  142.0440   78.7750  219.3810 C   0  0  0  0  0  0  0  0  0  0  0  0
  142.8800   78.1280  218.5260 C   0  0  0  0  0  0  0  0  0  0  0  0
  143.0480   76.7530  218.6330 C   0  0  0  0  0  0  0  0  0  0  0  0
  142.3660   76.0400  219.6060 C   0  0  0  0  0  0  0  0  0  0  0  0
  142.5220   74.6600  219.7260 C   0  0  0  0  0  0  0  0  0  0  0  0
  141.8080   74.0260  220.7220 C   0  0  0  0  0  0  0  0  0  0  0  0
  141.9620   72.3020  220.9220 Cl  0  0  0  0  0  0  0  0  0  0  0  0
  140.9760   74.7280  221.5590 C   0  0  0  0  0  0  0  0  0  0  0  0
  140.8300   76.0830  221.4320 C   0  0  0  0  0  0  0  0  0  0  0  0
  141.5310   76.7410  220.4460 C   0  0  0  0  0  0  0  0  0  0  0  0
  141.3960   78.0670  220.3140 N   0  0  0  0  0  0  0  0  0  0  0  0
  139.5029   84.5707  222.6921 H   0  0  0  0  0  0  0  0  0  0  0  0
  140.5547   84.7518  221.2473 H   0  0  0  0  0  0  0  0  0  0  0  0
  138.9003   85.4515  221.2473 H   0  0  0  0  0  0  0  0  0  0  0  0
  137.2284   83.6334  222.0314 H   0  0  0  0  0  0  0  0  0  0  0  0
  137.2533   82.5240  220.5229 H   0  0  0  0  0  0  0  0  0  0  0  0
  137.7231   79.8548  220.0825 H   0  0  0  0  0  0  0  0  0  0  0  0
  139.3891   79.5292  220.4595 H   0  0  0  0  0  0  0  0  0  0  0  0
  136.8577   78.1448  221.6607 H   0  0  0  0  0  0  0  0  0  0  0  0
  138.1265   77.3156  220.8179 H   0  0  0  0  0  0  0  0  0  0  0  0
  138.1616   77.6196  223.5367 H   0  0  0  0  0  0  0  0  0  0  0  0
  139.6846   77.6469  222.6402 H   0  0  0  0  0  0  0  0  0  0  0  0
  138.4518   79.7722  224.1240 H   0  0  0  0  0  0  0  0  0  0  0  0
  142.4231   82.5078  223.6172 H   0  0  0  0  0  0  0  0  0  0  0  0
  144.0899   80.7012  223.2858 H   0  0  0  0  0  0  0  0  0  0  0  0
  143.2693   78.3617  222.8822 H   0  0  0  0  0  0  0  0  0  0  0  0
  141.7867   82.7664  219.4594 H   0  0  0  0  0  0  0  0  0  0  0  0
  141.5197   82.8916  221.2212 H   0  0  0  0  0  0  0  0  0  0  0  0
  141.1850   80.4310  221.3220 H   0  0  0  0  0  0  0  0  0  0  0  0
  143.4217   78.6914  217.7520 H   0  0  0  0  0  0  0  0  0  0  0  0
  143.7250   76.2284  217.9427 H   0  0  0  0  0  0  0  0  0  0  0  0
  143.1877   74.0990  219.0536 H   0  0  0  0  0  0  0  0  0  0  0  0
  140.4189   74.1938  222.3427 H   0  0  0  0  0  0  0  0  0  0  0  0
  140.1626   76.6382  222.1075 H   0  0  0  0  0  0  0  0  0  0  0  0
  1  2  1  0
  2  3  1  0
  3  4  1  0
  4  5  2  0
  4  6  1  0
  6  7  1  0
  7  8  1  0
  8  9  1  0
  9 10  1  0
 10 11  1  0
 11 12  2  0
 12 13  1  0
 13 14  2  0
 14 15  1  0
 15 16  2  0
  2 17  1  0
 17 18  2  0
 17 19  1  0
 19 20  1  0
 20 21  1  0
 21 22  2  0
 21 23  1  0
 23 24  2  0
 24 25  1  0
 25 26  2  0
 26 27  1  0
 27 28  2  0
 28 29  1  0
 28 30  1  0
 30 31  2  0
 31 32  1  0
 32 33  2  0
 10  6  1  0
 16 11  1  0
 33 23  1  0
 32 26  1  0
  1 34  1  0
  1 35  1  0
  1 36  1  0
  3 37  1  0
  3 38  1  0
  7 39  1  0
  7 40  1  0
  8 41  1  0
  8 42  1  0
  9 43  1  0
  9 44  1  0
 10 45  1  1
 13 46  1  0
 14 47  1  0
 15 48  1  0
 19 49  1  0
 19 50  1  0
 20 51  1  0
 24 52  1  0
 25 53  1  0
 27 54  1  0
 30 55  1  0
 31 56  1  0
M  END
>  <smiles>  (17) 
CN(CC(=O)N1CCC[C@H]1c1ncccn1)C(=O)CNC(=O)c1ccc2cc(Cl)ccc2n1

>  <score_type>  (17) 
oracle

>  <origin>  (17) 
autodockgpu

>  <m_score__min__energy>  (17) 
-8.5

>  <m_primary>  (17) 
energy

>  <rmsd>  (17) 
8.22899627748173

>  <m_score__min__rmsd>  (17) 
8.22899627748173

>  <meeko>  (17) 
{"free_energy": -5.06, "intermolecular_energy": -7.44, "internal_energy": -5.09, "cluster_size": 4, "cluster_id": 7, "rank_in_cluster": 4}

>  <energy>  (17) 
-8.07

>  <cluster_rmsd>  (17) 
0.57

>  <cluster>  (17) 
2

$$$$

     RDKit          3D

 56 59  0  0  0  0  0  0  0  0999 V2000
  136.7420   77.1840  220.0660 C   0  0  0  0  0  0  0  0  0  0  0  0
  137.8200   77.4510  221.0310 N   0  0  0  0  0  0  0  0  0  0  0  0
  138.4090   78.7390  221.1480 C   0  0  0  0  0  0  0  0  0  0  0  0
  139.1680   79.0670  222.3480 C   0  0  0  0  0  0  0  0  0  0  0  0
  138.4300   79.2730  223.4020 O   0  0  0  0  0  0  0  0  0  0  0  0
  140.5440   79.1900  222.5190 N   0  0  0  0  0  0  0  0  0  0  0  0
  141.4990   78.6780  223.4590 C   0  0  0  0  0  0  0  0  0  0  0  0
  142.3060   79.9450  223.7870 C   0  0  0  0  0  0  0  0  0  0  0  0
  142.5380   80.4820  222.4100 C   0  0  0  0  0  0  0  0  0  0  0  0
  141.3840   80.0110  221.6020 C   0  0  1  0  0  0  0  0  0  0  0  0
  141.8310   79.1460  220.4880 C   0  0  0  0  0  0  0  0  0  0  0  0
  141.9390   77.8140  220.5810 N   0  0  0  0  0  0  0  0  0  0  0  0
  142.3550   77.0750  219.5250 C   0  0  0  0  0  0  0  0  0  0  0  0
  142.6770   77.6760  218.3330 C   0  0  0  0  0  0  0  0  0  0  0  0
  142.5670   79.0480  218.2350 C   0  0  0  0  0  0  0  0  0  0  0  0
  142.1460   79.7200  219.3280 N   0  0  0  0  0  0  0  0  0  0  0  0
  138.2770   76.3680  221.8770 C   0  0  0  0  0  0  0  0  0  0  0  0
  137.9030   76.3710  223.0750 O   0  0  0  0  0  0  0  0  0  0  0  0
  139.1410   75.3240  221.3260 C   0  0  0  0  0  0  0  0  0  0  0  0
  139.3100   74.2940  222.3420 N   0  0  0  0  0  0  0  0  0  0  0  0
  139.5370   72.9650  221.9200 C   0  0  0  0  0  0  0  0  0  0  0  0
  139.5940   72.6680  220.6970 O   0  0  0  0  0  0  0  0  0  0  0  0
  139.7130   71.8940  222.9100 C   0  0  0  0  0  0  0  0  0  0  0  0
  139.3920   70.6040  222.6220 C   0  0  0  0  0  0  0  0  0  0  0  0
  139.5730   69.6180  223.5840 C   0  0  0  0  0  0  0  0  0  0  0  0
  140.0770   69.9440  224.8330 C   0  0  0  0  0  0  0  0  0  0  0  0
  140.2630   68.9670  225.8090 C   0  0  0  0  0  0  0  0  0  0  0  0
  140.7700   69.3750  227.0260 C   0  0  0  0  0  0  0  0  0  0  0  0
  141.0260   68.1990  228.2850 Cl  0  0  0  0  0  0  0  0  0  0  0  0
  141.0770   70.6920  227.2630 C   0  0  0  0  0  0  0  0  0  0  0  0
  140.8900   71.6440  226.2980 C   0  0  0  0  0  0  0  0  0  0  0  0
  140.3850   71.2640  225.0740 C   0  0  0  0  0  0  0  0  0  0  0  0
  140.1990   72.1870  224.1220 N   0  0  0  0  0  0  0  0  0  0  0  0
  135.8131   76.9539  220.6083 H   0  0  0  0  0  0  0  0  0  0  0  0
  136.5876   78.0710  219.4341 H   0  0  0  0  0  0  0  0  0  0  0  0
  137.0194   76.3274  219.4341 H   0  0  0  0  0  0  0  0  0  0  0  0
  139.0910   78.8594  220.2934 H   0  0  0  0  0  0  0  0  0  0  0  0
  137.5453   79.4189  221.1906 H   0  0  0  0  0  0  0  0  0  0  0  0
  141.0053   78.2718  224.3541 H   0  0  0  0  0  0  0  0  0  0  0  0
  142.1052   77.8435  223.0768 H   0  0  0  0  0  0  0  0  0  0  0  0
  141.7270   80.6471  224.4049 H   0  0  0  0  0  0  0  0  0  0  0  0
  143.2212   79.7681  224.3711 H   0  0  0  0  0  0  0  0  0  0  0  0
  142.5727   81.5813  222.4267 H   0  0  0  0  0  0  0  0  0  0  0  0
  143.4961   80.1379  221.9933 H   0  0  0  0  0  0  0  0  0  0  0  0
  140.8437   80.8692  221.1759 H   0  0  0  0  0  0  0  0  0  0  0  0
  142.4357   75.9824  219.6231 H   0  0  0  0  0  0  0  0  0  0  0  0
  143.0153   77.0767  217.4749 H   0  0  0  0  0  0  0  0  0  0  0  0
  142.8131   79.5747  217.3012 H   0  0  0  0  0  0  0  0  0  0  0  0
  138.6757   74.8899  220.4287 H   0  0  0  0  0  0  0  0  0  0  0  0
  140.1172   75.7460  221.0449 H   0  0  0  0  0  0  0  0  0  0  0  0
  139.2680   74.5090  223.3690 H   0  0  0  0  0  0  0  0  0  0  0  0
  138.9908   70.3425  221.6317 H   0  0  0  0  0  0  0  0  0  0  0  0
  139.3151   68.5739  223.3531 H   0  0  0  0  0  0  0  0  0  0  0  0
  140.0156   67.9125  225.6171 H   0  0  0  0  0  0  0  0  0  0  0  0
  141.4794   70.9864  228.2435 H   0  0  0  0  0  0  0  0  0  0  0  0
  141.1392   72.6968  226.4967 H   0  0  0  0  0  0  0  0  0  0  0  0
  1  2  1  0
  2  3  1  0
  3  4  1  0
  4  5  2  0
  4  6  1  0
  6  7  1  0
  7  8  1  0
  8  9  1  0
  9 10  1  0
 10 11  1  0
 11 12  2  0
 12 13  1  0
 13 14  2  0
 14 15  1  0
 15 16  2  0
  2 17  1  0
 17 18  2  0
 17 19  1  0
 19 20  1  0
 20 21  1  0
 21 22  2  0
 21 23  1  0
 23 24  2  0
 24 25  1  0
 25 26  2  0
 26 27  1  0
 27 28  2  0
 28 29  1  0
 28 30  1  0
 30 31  2  0
 31 32  1  0
 32 33  2  0
 10  6  1  0
 16 11  1  0
 33 23  1  0
 32 26  1  0
  1 34  1  0
  1 35  1  0
  1 36  1  0
  3 37  1  0
  3 38  1  0
  7 39  1  0
  7 40  1  0
  8 41  1  0
  8 42  1  0
  9 43  1  0
  9 44  1  0
 10 45  1  6
 13 46  1  0
 14 47  1  0
 15 48  1  0
 19 49  1  0
 19 50  1  0
 20 51  1  0
 24 52  1  0
 25 53  1  0
 27 54  1  0
 30 55  1  0
 31 56  1  0
M  END
>  <smiles>  (18) 
CN(CC(=O)N1CCC[C@H]1c1ncccn1)C(=O)CNC(=O)c1ccc2cc(Cl)ccc2n1

>  <score_type>  (18) 
oracle

>  <origin>  (18) 
autodockgpu

>  <m_score__min__energy>  (18) 
-8.5

>  <m_primary>  (18) 
energy

>  <rmsd>  (18) 
2.7023673874145455

>  <m_score__min__rmsd>  (18) 
2.7023673874145455

>  <meeko>  (18) 
{"free_energy": -7.97, "intermolecular_energy": -10.35, "internal_energy": -2.65, "cluster_size": 15, "cluster_id": 2, "rank_in_cluster": 8}

>  <energy>  (18) 
-8.05

>  <cluster_rmsd>  (18) 
0.63

>  <cluster>  (18) 
2

$$$$

     RDKit          3D

 56 59  0  0  0  0  0  0  0  0999 V2000
  141.7150   77.7670  220.6760 C   0  0  0  0  0  0  0  0  0  0  0  0
  140.2670   77.5090  220.6910 N   0  0  0  0  0  0  0  0  0  0  0  0
  139.3700   78.2710  219.8940 C   0  0  0  0  0  0  0  0  0  0  0  0
  138.2590   78.9610  220.5360 C   0  0  0  0  0  0  0  0  0  0  0  0
  137.2450   79.1810  219.7460 O   0  0  0  0  0  0  0  0  0  0  0  0
  138.1320   79.4090  221.8480 N   0  0  0  0  0  0  0  0  0  0  0  0
  137.4980   78.9090  223.0340 C   0  0  0  0  0  0  0  0  0  0  0  0
  136.7800   80.1690  223.5420 C   0  0  0  0  0  0  0  0  0  0  0  0
  137.8790   81.1770  223.4180 C   0  0  0  0  0  0  0  0  0  0  0  0
  138.7350   80.6920  222.3060 C   0  0  1  0  0  0  0  0  0  0  0  0
  140.1110   80.4150  222.7750 C   0  0  0  0  0  0  0  0  0  0  0  0
  141.1760   81.1470  222.4210 N   0  0  0  0  0  0  0  0  0  0  0  0
  142.4130   80.8440  222.8830 C   0  0  0  0  0  0  0  0  0  0  0  0
  142.6020   79.7770  223.7270 C   0  0  0  0  0  0  0  0  0  0  0  0
  141.5070   79.0220  224.0930 C   0  0  0  0  0  0  0  0  0  0  0  0
  140.3050   79.3820  223.5940 N   0  0  0  0  0  0  0  0  0  0  0  0
  139.7590   76.4490  221.5370 C   0  0  0  0  0  0  0  0  0  0  0  0
  139.4910   76.7380  222.7280 O   0  0  0  0  0  0  0  0  0  0  0  0
  139.5750   75.1040  220.9930 C   0  0  0  0  0  0  0  0  0  0  0  0
  139.6270   74.1580  222.1000 N   0  0  0  0  0  0  0  0  0  0  0  0
  139.8350   72.7920  221.8070 C   0  0  0  0  0  0  0  0  0  0  0  0
  139.9730   72.3910  220.6200 O   0  0  0  0  0  0  0  0  0  0  0  0
  139.8940   71.8030  222.8910 C   0  0  0  0  0  0  0  0  0  0  0  0
  139.4690   70.5240  222.7080 C   0  0  0  0  0  0  0  0  0  0  0  0
  139.5410   69.6160  223.7570 C   0  0  0  0  0  0  0  0  0  0  0  0
  140.0440   70.0100  224.9870 C   0  0  0  0  0  0  0  0  0  0  0  0
  140.1220   69.1110  226.0500 C   0  0  0  0  0  0  0  0  0  0  0  0
  140.6350   69.5820  227.2410 C   0  0  0  0  0  0  0  0  0  0  0  0
  140.7590   68.5060  228.6060 Cl  0  0  0  0  0  0  0  0  0  0  0  0
  141.0510   70.8840  227.3720 C   0  0  0  0  0  0  0  0  0  0  0  0
  140.9690   71.7580  226.3210 C   0  0  0  0  0  0  0  0  0  0  0  0
  140.4610   71.3140  225.1210 C   0  0  0  0  0  0  0  0  0  0  0  0
  140.3770   72.1610  224.0870 N   0  0  0  0  0  0  0  0  0  0  0  0
  142.0864   77.8332  221.7093 H   0  0  0  0  0  0  0  0  0  0  0  0
  142.2283   76.9462  220.1537 H   0  0  0  0  0  0  0  0  0  0  0  0
  141.9132   78.7146  220.1537 H   0  0  0  0  0  0  0  0  0  0  0  0
  139.9689   79.0363  219.3786 H   0  0  0  0  0  0  0  0  0  0  0  0
  138.8789   77.5178  219.2603 H   0  0  0  0  0  0  0  0  0  0  0  0
  136.7847   78.1046  222.8013 H   0  0  0  0  0  0  0  0  0  0  0  0
  138.1905   78.4597  223.7611 H   0  0  0  0  0  0  0  0  0  0  0  0
  135.9179   80.4281  222.9098 H   0  0  0  0  0  0  0  0  0  0  0  0
  136.3530   80.0779  224.5516 H   0  0  0  0  0  0  0  0  0  0  0  0
  137.4665   82.1690  223.1817 H   0  0  0  0  0  0  0  0  0  0  0  0
  138.4458   81.2817  224.3549 H   0  0  0  0  0  0  0  0  0  0  0  0
  138.7890   81.4494  221.5101 H   0  0  0  0  0  0  0  0  0  0  0  0
  143.2737   81.4580  222.5794 H   0  0  0  0  0  0  0  0  0  0  0  0
  143.6056   79.5297  224.1033 H   0  0  0  0  0  0  0  0  0  0  0  0
  141.6093   78.1584  224.7666 H   0  0  0  0  0  0  0  0  0  0  0  0
  138.5995   75.0356  220.4893 H   0  0  0  0  0  0  0  0  0  0  0  0
  140.3636   74.8776  220.2603 H   0  0  0  0  0  0  0  0  0  0  0  0
  139.5160   74.4600  223.1000 H   0  0  0  0  0  0  0  0  0  0  0  0
  139.0695   70.2096  221.7325 H   0  0  0  0  0  0  0  0  0  0  0  0
  139.1978   68.5812  223.6110 H   0  0  0  0  0  0  0  0  0  0  0  0
  139.7880   68.0684  225.9433 H   0  0  0  0  0  0  0  0  0  0  0  0
  141.4558   71.2298  228.3346 H   0  0  0  0  0  0  0  0  0  0  0  0
  141.3041   72.7996  226.4339 H   0  0  0  0  0  0  0  0  0  0  0  0
  1  2  1  0
  2  3  1  0
  3  4  1  0
  4  5  2  0
  4  6  1  0
  6  7  1  0
  7  8  1  0
  8  9  1  0
  9 10  1  0
 10 11  1  0
 11 12  2  0
 12 13  1  0
 13 14  2  0
 14 15  1  0
 15 16  2  0
  2 17  1  0
 17 18  2  0
 17 19  1  0
 19 20  1  0
 20 21  1  0
 21 22  2  0
 21 23  1  0
 23 24  2  0
 24 25  1  0
 25 26  2  0
 26 27  1  0
 27 28  2  0
 28 29  1  0
 28 30  1  0
 30 31  2  0
 31 32  1  0
 32 33  2  0
 10  6  1  0
 16 11  1  0
 33 23  1  0
 32 26  1  0
  1 34  1  0
  1 35  1  0
  1 36  1  0
  3 37  1  0
  3 38  1  0
  7 39  1  0
  7 40  1  0
  8 41  1  0
  8 42  1  0
  9 43  1  0
  9 44  1  0
 10 45  1  6
 13 46  1  0
 14 47  1  0
 15 48  1  0
 19 49  1  0
 19 50  1  0
 20 51  1  0
 24 52  1  0
 25 53  1  0
 27 54  1  0
 30 55  1  0
 31 56  1  0
M  END
>  <smiles>  (19) 
CN(CC(=O)N1CCC[C@H]1c1ncccn1)C(=O)CNC(=O)c1ccc2cc(Cl)ccc2n1

>  <score_type>  (19) 
oracle

>  <origin>  (19) 
autodockgpu

>  <m_score__min__energy>  (19) 
-8.5

>  <m_primary>  (19) 
energy

>  <rmsd>  (19) 
2.9408908515644563

>  <m_score__min__rmsd>  (19) 
2.9408908515644563

>  <meeko>  (19) 
{"free_energy": -7.77, "intermolecular_energy": -10.15, "internal_energy": -2.85, "cluster_size": 15, "cluster_id": 2, "rank_in_cluster": 12}

>  <energy>  (19) 
-8.0

>  <cluster_rmsd>  (19) 
1.22

>  <cluster>  (19) 
2

$$$$

     RDKit          3D

 56 59  0  0  0  0  0  0  0  0999 V2000
  143.7230   75.2340  217.8040 C   0  0  0  0  0  0  0  0  0  0  0  0
  143.0030   75.5330  219.0510 N   0  0  0  0  0  0  0  0  0  0  0  0
  142.5590   76.8490  219.3540 C   0  0  0  0  0  0  0  0  0  0  0  0
  141.1680   77.0610  219.7310 C   0  0  0  0  0  0  0  0  0  0  0  0
  140.3660   77.2450  218.7200 O   0  0  0  0  0  0  0  0  0  0  0  0
  140.5880   77.0940  220.9970 N   0  0  0  0  0  0  0  0  0  0  0  0
  140.4260   76.1490  222.0640 C   0  0  0  0  0  0  0  0  0  0  0  0
  138.9470   76.3580  222.4260 C   0  0  0  0  0  0  0  0  0  0  0  0
  138.8880   77.8510  222.4770 C   0  0  0  0  0  0  0  0  0  0  0  0
  139.9350   78.3210  221.5340 C   0  0  1  0  0  0  0  0  0  0  0  0
  140.9620   79.1230  222.2340 C   0  0  0  0  0  0  0  0  0  0  0  0
  141.5850   80.1740  221.6830 N   0  0  0  0  0  0  0  0  0  0  0  0
  142.5180   80.8700  222.3740 C   0  0  0  0  0  0  0  0  0  0  0  0
  142.8470   80.5140  223.6590 C   0  0  0  0  0  0  0  0  0  0  0  0
  142.2070   79.4320  224.2290 C   0  0  0  0  0  0  0  0  0  0  0  0
  141.2880   78.7850  223.4810 N   0  0  0  0  0  0  0  0  0  0  0  0
  142.7430   74.4520  219.9790 C   0  0  0  0  0  0  0  0  0  0  0  0
  143.6700   74.1220  220.7570 O   0  0  0  0  0  0  0  0  0  0  0  0
  141.4390   73.7910  219.9840 C   0  0  0  0  0  0  0  0  0  0  0  0
  141.3550   72.9650  221.1820 N   0  0  0  0  0  0  0  0  0  0  0  0
  140.1380   72.3030  221.4590 C   0  0  0  0  0  0  0  0  0  0  0  0
  139.1430   72.4180  220.6940 O   0  0  0  0  0  0  0  0  0  0  0  0
  140.0090   71.4610  222.6550 C   0  0  0  0  0  0  0  0  0  0  0  0
  139.2830   70.3120  222.6370 C   0  0  0  0  0  0  0  0  0  0  0  0
  139.1840   69.5400  223.7890 C   0  0  0  0  0  0  0  0  0  0  0  0
  139.8220   69.9390  224.9530 C   0  0  0  0  0  0  0  0  0  0  0  0
  139.7310   69.1770  226.1160 C   0  0  0  0  0  0  0  0  0  0  0  0
  140.3960   69.6430  227.2320 C   0  0  0  0  0  0  0  0  0  0  0  0
  140.3220   68.7340  228.7160 Cl  0  0  0  0  0  0  0  0  0  0  0  0
  141.1160   70.8120  227.1950 C   0  0  0  0  0  0  0  0  0  0  0  0
  141.1980   71.5530  226.0470 C   0  0  0  0  0  0  0  0  0  0  0  0
  140.5440   71.1100  224.9190 C   0  0  0  0  0  0  0  0  0  0  0  0
  140.6180   71.8270  223.7900 N   0  0  0  0  0  0  0  0  0  0  0  0
  144.7147   74.8222  218.0429 H   0  0  0  0  0  0  0  0  0  0  0  0
  143.1520   74.4986  217.2182 H   0  0  0  0  0  0  0  0  0  0  0  0
  143.8409   76.1575  217.2182 H   0  0  0  0  0  0  0  0  0  0  0  0
  143.1770   77.2125  220.1883 H   0  0  0  0  0  0  0  0  0  0  0  0
  142.6551   77.3840  218.3977 H   0  0  0  0  0  0  0  0  0  0  0  0
  140.6163   75.1204  221.7238 H   0  0  0  0  0  0  0  0  0  0  0  0
  141.1211   76.2932  222.9042 H   0  0  0  0  0  0  0  0  0  0  0  0
  138.2782   75.9512  221.6532 H   0  0  0  0  0  0  0  0  0  0  0  0
  138.6253   75.8545  223.3496 H   0  0  0  0  0  0  0  0  0  0  0  0
  137.8969   78.2078  222.1602 H   0  0  0  0  0  0  0  0  0  0  0  0
  139.0548   78.2318  223.4954 H   0  0  0  0  0  0  0  0  0  0  0  0
  139.4863   78.9481  220.7495 H   0  0  0  0  0  0  0  0  0  0  0  0
  143.0174   81.7289  221.9018 H   0  0  0  0  0  0  0  0  0  0  0  0
  143.6044   81.0791  224.2220 H   0  0  0  0  0  0  0  0  0  0  0  0
  142.4373   79.1088  225.2549 H   0  0  0  0  0  0  0  0  0  0  0  0
  140.6385   74.5454  219.9943 H   0  0  0  0  0  0  0  0  0  0  0  0
  141.3230   73.1697  219.0837 H   0  0  0  0  0  0  0  0  0  0  0  0
  142.1670   72.8490  221.8390 H   0  0  0  0  0  0  0  0  0  0  0  0
  138.7756   69.9941  221.7142 H   0  0  0  0  0  0  0  0  0  0  0  0
  138.5974   68.6095  223.7767 H   0  0  0  0  0  0  0  0  0  0  0  0
  139.1525   68.2418  226.1435 H   0  0  0  0  0  0  0  0  0  0  0  0
  141.6345   71.1579  228.1014 H   0  0  0  0  0  0  0  0  0  0  0  0
  141.7773   72.4878  226.0258 H   0  0  0  0  0  0  0  0  0  0  0  0
  1  2  1  0
  2  3  1  0
  3  4  1  0
  4  5  2  0
  4  6  1  0
  6  7  1  0
  7  8  1  0
  8  9  1  0
  9 10  1  0
 10 11  1  0
 11 12  2  0
 12 13  1  0
 13 14  2  0
 14 15  1  0
 15 16  2  0
  2 17  1  0
 17 18  2  0
 17 19  1  0
 19 20  1  0
 20 21  1  0
 21 22  2  0
 21 23  1  0
 23 24  2  0
 24 25  1  0
 25 26  2  0
 26 27  1  0
 27 28  2  0
 28 29  1  0
 28 30  1  0
 30 31  2  0
 31 32  1  0
 32 33  2  0
 10  6  1  0
 16 11  1  0
 33 23  1  0
 32 26  1  0
  1 34  1  0
  1 35  1  0
  1 36  1  0
  3 37  1  0
  3 38  1  0
  7 39  1  0
  7 40  1  0
  8 41  1  0
  8 42  1  0
  9 43  1  0
  9 44  1  0
 10 45  1  6
 13 46  1  0
 14 47  1  0
 15 48  1  0
 19 49  1  0
 19 50  1  0
 20 51  1  0
 24 52  1  0
 25 53  1  0
 27 54  1  0
 30 55  1  0
 31 56  1  0
M  END
>  <smiles>  (20) 
CN(CC(=O)N1CCC[C@H]1c1ncccn1)C(=O)CNC(=O)c1ccc2cc(Cl)ccc2n1

>  <score_type>  (20) 
oracle

>  <origin>  (20) 
autodockgpu

>  <m_score__min__energy>  (20) 
-8.5

>  <m_primary>  (20) 
energy

>  <rmsd>  (20) 
3.1542678741966115

>  <m_score__min__rmsd>  (20) 
3.1542678741966115

>  <meeko>  (20) 
{"free_energy": -7.36, "intermolecular_energy": -9.75, "internal_energy": -2.8, "cluster_size": 12, "cluster_id": 1, "rank_in_cluster": 11}

>  <energy>  (20) 
-7.97

>  <cluster_rmsd>  (20) 
0.56

>  <cluster>  (20) 
2

$$$$

     RDKit          3D

 56 59  0  0  0  0  0  0  0  0999 V2000
  137.7760   71.6490  222.1210 C   0  0  0  0  0  0  0  0  0  0  0  0
  138.9560   72.0370  221.3330 N   0  0  0  0  0  0  0  0  0  0  0  0
  140.2410   72.1560  221.9300 C   0  0  0  0  0  0  0  0  0  0  0  0
  141.0820   73.2940  221.5860 C   0  0  0  0  0  0  0  0  0  0  0  0
  140.6920   74.4210  222.1130 O   0  0  0  0  0  0  0  0  0  0  0  0
  142.2220   73.3450  220.7880 N   0  0  0  0  0  0  0  0  0  0  0  0
  142.8180   72.4760  219.8150 C   0  0  0  0  0  0  0  0  0  0  0  0
  144.2900   72.4930  220.2600 C   0  0  0  0  0  0  0  0  0  0  0  0
  144.4950   73.9610  220.4610 C   0  0  0  0  0  0  0  0  0  0  0  0
  143.1610   74.5010  220.8240 C   0  0  1  0  0  0  0  0  0  0  0  0
  142.7020   75.5000  219.8340 C   0  0  0  0  0  0  0  0  0  0  0  0
  143.4120   76.5850  219.4930 N   0  0  0  0  0  0  0  0  0  0  0  0
  142.9390   77.4650  218.5790 C   0  0  0  0  0  0  0  0  0  0  0  0
  141.7190   77.2650  217.9800 C   0  0  0  0  0  0  0  0  0  0  0  0
  140.9870   76.1490  218.3300 C   0  0  0  0  0  0  0  0  0  0  0  0
  141.5210   75.3150  219.2480 N   0  0  0  0  0  0  0  0  0  0  0  0
  138.7910   72.2970  219.9180 C   0  0  0  0  0  0  0  0  0  0  0  0
  139.2060   71.4240  219.1170 O   0  0  0  0  0  0  0  0  0  0  0  0
  138.1600   73.5370  219.4700 C   0  0  0  0  0  0  0  0  0  0  0  0
  138.7950   74.6460  220.1700 N   0  0  0  0  0  0  0  0  0  0  0  0
  137.9750   75.5480  220.8850 C   0  0  0  0  0  0  0  0  0  0  0  0
  136.7240   75.4050  220.9220 O   0  0  0  0  0  0  0  0  0  0  0  0
  138.5730   76.6800  221.6040 C   0  0  0  0  0  0  0  0  0  0  0  0
  137.8430   77.4330  222.4710 C   0  0  0  0  0  0  0  0  0  0  0  0
  138.4430   78.4960  223.1340 C   0  0  0  0  0  0  0  0  0  0  0  0
  139.7800   78.7910  222.9160 C   0  0  0  0  0  0  0  0  0  0  0  0
  140.3960   79.8550  223.5720 C   0  0  0  0  0  0  0  0  0  0  0  0
  141.7300   80.0810  223.2990 C   0  0  0  0  0  0  0  0  0  0  0  0
  142.5550   81.3950  224.0900 Cl  0  0  0  0  0  0  0  0  0  0  0  0
  142.4190   79.2890  222.4150 C   0  0  0  0  0  0  0  0  0  0  0  0
  141.8040   78.2470  221.7750 C   0  0  0  0  0  0  0  0  0  0  0  0
  140.4730   77.9990  222.0290 C   0  0  0  0  0  0  0  0  0  0  0  0
  139.8620   76.9820  221.4090 N   0  0  0  0  0  0  0  0  0  0  0  0
  138.0096   71.7258  223.1932 H   0  0  0  0  0  0  0  0  0  0  0  0
  136.9374   72.3187  221.8796 H   0  0  0  0  0  0  0  0  0  0  0  0
  137.4985   70.6123  221.8796 H   0  0  0  0  0  0  0  0  0  0  0  0
  140.0878   72.1872  223.0188 H   0  0  0  0  0  0  0  0  0  0  0  0
  140.7946   71.2923  221.5330 H   0  0  0  0  0  0  0  0  0  0  0  0
  142.3933   71.4626  219.8659 H   0  0  0  0  0  0  0  0  0  0  0  0
  142.6581   72.7888  218.7726 H   0  0  0  0  0  0  0  0  0  0  0  0
  144.4390   71.9303  221.1933 H   0  0  0  0  0  0  0  0  0  0  0  0
  144.9892   72.0245  219.5518 H   0  0  0  0  0  0  0  0  0  0  0  0
  145.2163   74.1411  221.2717 H   0  0  0  0  0  0  0  0  0  0  0  0
  144.8995   74.4441  219.5593 H   0  0  0  0  0  0  0  0  0  0  0  0
  143.2049   74.9888  221.8089 H   0  0  0  0  0  0  0  0  0  0  0  0
  143.5376   78.3488  218.3135 H   0  0  0  0  0  0  0  0  0  0  0  0
  141.3340   77.9792  217.2373 H   0  0  0  0  0  0  0  0  0  0  0  0
  140.0049   75.9462  217.8780 H   0  0  0  0  0  0  0  0  0  0  0  0
  138.2964   73.6539  218.3848 H   0  0  0  0  0  0  0  0  0  0  0  0
  137.0818   73.5163  219.6871 H   0  0  0  0  0  0  0  0  0  0  0  0
  139.8350   74.7930  220.1590 H   0  0  0  0  0  0  0  0  0  0  0  0
  136.7821   77.2009  222.6461 H   0  0  0  0  0  0  0  0  0  0  0  0
  137.8548   79.1064  223.8350 H   0  0  0  0  0  0  0  0  0  0  0  0
  139.8413   80.4894  224.2791 H   0  0  0  0  0  0  0  0  0  0  0  0
  143.4815   79.4947  222.2178 H   0  0  0  0  0  0  0  0  0  0  0  0
  142.3642   77.6171  221.0684 H   0  0  0  0  0  0  0  0  0  0  0  0
  1  2  1  0
  2  3  1  0
  3  4  1  0
  4  5  2  0
  4  6  1  0
  6  7  1  0
  7  8  1  0
  8  9  1  0
  9 10  1  0
 10 11  1  0
 11 12  2  0
 12 13  1  0
 13 14  2  0
 14 15  1  0
 15 16  2  0
  2 17  1  0
 17 18  2  0
 17 19  1  0
 19 20  1  0
 20 21  1  0
 21 22  2  0
 21 23  1  0
 23 24  2  0
 24 25  1  0
 25 26  2  0
 26 27  1  0
 27 28  2  0
 28 29  1  0
 28 30  1  0
 30 31  2  0
 31 32  1  0
 32 33  2  0
 10  6  1  0
 16 11  1  0
 33 23  1  0
 32 26  1  0
  1 34  1  0
  1 35  1  0
  1 36  1  0
  3 37  1  0
  3 38  1  0
  7 39  1  0
  7 40  1  0
  8 41  1  0
  8 42  1  0
  9 43  1  0
  9 44  1  0
 10 45  1  1
 13 46  1  0
 14 47  1  0
 15 48  1  0
 19 49  1  0
 19 50  1  0
 20 51  1  0
 24 52  1  0
 25 53  1  0
 27 54  1  0
 30 55  1  0
 31 56  1  0
M  END
>  <smiles>  (21) 
CN(CC(=O)N1CCC[C@H]1c1ncccn1)C(=O)CNC(=O)c1ccc2cc(Cl)ccc2n1

>  <score_type>  (21) 
oracle

>  <origin>  (21) 
autodockgpu

>  <m_score__min__energy>  (21) 
-8.5

>  <m_primary>  (21) 
energy

>  <rmsd>  (21) 
7.5105666181695545

>  <m_score__min__rmsd>  (21) 
7.5105666181695545

>  <meeko>  (21) 
{"free_energy": -5.28, "intermolecular_energy": -7.66, "internal_energy": -5.06, "cluster_size": 4, "cluster_id": 8, "rank_in_cluster": 3}

>  <energy>  (21) 
-7.96

>  <cluster_rmsd>  (21) 
1.16

>  <cluster>  (21) 
2

$$$$

     RDKit          3D

 56 59  0  0  0  0  0  0  0  0999 V2000
  142.7850   76.0780  218.5920 C   0  0  0  0  0  0  0  0  0  0  0  0
  141.6700   76.4020  219.4950 N   0  0  0  0  0  0  0  0  0  0  0  0
  140.9780   77.6390  219.4050 C   0  0  0  0  0  0  0  0  0  0  0  0
  141.4790   78.7900  220.1450 C   0  0  0  0  0  0  0  0  0  0  0  0
  142.1830   79.6180  219.4250 O   0  0  0  0  0  0  0  0  0  0  0  0
  141.3140   79.1200  221.4880 N   0  0  0  0  0  0  0  0  0  0  0  0
  141.3140   80.3420  222.2390 C   0  0  0  0  0  0  0  0  0  0  0  0
  142.2120   79.9620  223.4280 C   0  0  0  0  0  0  0  0  0  0  0  0
  141.6310   78.6330  223.7940 C   0  0  0  0  0  0  0  0  0  0  0  0
  141.0730   78.0840  222.5310 C   0  0  1  0  0  0  0  0  0  0  0  0
  139.6140   77.8710  222.6420 C   0  0  0  0  0  0  0  0  0  0  0  0
  139.0480   76.6600  222.7480 N   0  0  0  0  0  0  0  0  0  0  0  0
  137.7040   76.5270  222.8460 C   0  0  0  0  0  0  0  0  0  0  0  0
  136.8890   77.6330  222.8390 C   0  0  0  0  0  0  0  0  0  0  0  0
  137.4690   78.8800  222.7300 C   0  0  0  0  0  0  0  0  0  0  0  0
  138.8150   78.9370  222.6360 N   0  0  0  0  0  0  0  0  0  0  0  0
  141.2760   75.4250  220.4890 C   0  0  0  0  0  0  0  0  0  0  0  0
  142.1780   74.9490  221.2210 O   0  0  0  0  0  0  0  0  0  0  0  0
  139.8740   75.0310  220.6120 C   0  0  0  0  0  0  0  0  0  0  0  0
  139.7510   74.1480  221.7650 N   0  0  0  0  0  0  0  0  0  0  0  0
  140.1110   72.7900  221.6130 C   0  0  0  0  0  0  0  0  0  0  0  0
  140.5280   72.3430  220.5110 O   0  0  0  0  0  0  0  0  0  0  0  0
  140.0020   71.8650  222.7480 C   0  0  0  0  0  0  0  0  0  0  0  0
  139.3540   70.6740  222.6330 C   0  0  0  0  0  0  0  0  0  0  0  0
  139.2730   69.8240  223.7290 C   0  0  0  0  0  0  0  0  0  0  0  0
  139.8490   70.1850  224.9370 C   0  0  0  0  0  0  0  0  0  0  0  0
  139.7750   69.3440  226.0460 C   0  0  0  0  0  0  0  0  0  0  0  0
  140.3750   69.7780  227.2110 C   0  0  0  0  0  0  0  0  0  0  0  0
  140.3170   68.7700  228.6300 Cl  0  0  0  0  0  0  0  0  0  0  0  0
  141.0160   70.9900  227.2730 C   0  0  0  0  0  0  0  0  0  0  0  0
  141.0830   71.8090  226.1770 C   0  0  0  0  0  0  0  0  0  0  0  0
  140.4920   71.4000  225.0020 C   0  0  0  0  0  0  0  0  0  0  0  0
  140.5520   72.1930  223.9240 N   0  0  0  0  0  0  0  0  0  0  0  0
  143.6743   75.8196  219.1856 H   0  0  0  0  0  0  0  0  0  0  0  0
  142.5066   75.2236  217.9576 H   0  0  0  0  0  0  0  0  0  0  0  0
  143.0079   76.9485  217.9576 H   0  0  0  0  0  0  0  0  0  0  0  0
  140.9630   77.9221  218.3422 H   0  0  0  0  0  0  0  0  0  0  0  0
  140.0057   77.4293  219.8748 H   0  0  0  0  0  0  0  0  0  0  0  0
  141.7435   81.1718  221.6586 H   0  0  0  0  0  0  0  0  0  0  0  0
  140.3126   80.6963  222.5247 H   0  0  0  0  0  0  0  0  0  0  0  0
  143.2670   79.8756  223.1289 H   0  0  0  0  0  0  0  0  0  0  0  0
  142.2256   80.6975  224.2459 H   0  0  0  0  0  0  0  0  0  0  0  0
  142.4121   77.9678  224.1907 H   0  0  0  0  0  0  0  0  0  0  0  0
  140.8618   78.7243  224.5750 H   0  0  0  0  0  0  0  0  0  0  0  0
  141.5442   77.1184  222.2952 H   0  0  0  0  0  0  0  0  0  0  0  0
  137.2606   75.5240  222.9320 H   0  0  0  0  0  0  0  0  0  0  0  0
  135.7971   77.5265  222.9186 H   0  0  0  0  0  0  0  0  0  0  0  0
  136.8575   79.7943  222.7200 H   0  0  0  0  0  0  0  0  0  0  0  0
  139.2474   75.9233  220.7573 H   0  0  0  0  0  0  0  0  0  0  0  0
  139.5420   74.5144  219.6994 H   0  0  0  0  0  0  0  0  0  0  0  0
  139.4060   74.4890  222.6970 H   0  0  0  0  0  0  0  0  0  0  0  0
  138.8959   70.3852  221.6756 H   0  0  0  0  0  0  0  0  0  0  0  0
  138.7497   68.8608  223.6378 H   0  0  0  0  0  0  0  0  0  0  0  0
  139.2593   68.3737  225.9950 H   0  0  0  0  0  0  0  0  0  0  0  0
  141.4829   71.3084  228.2167 H   0  0  0  0  0  0  0  0  0  0  0  0
  141.6006   72.7779  226.2344 H   0  0  0  0  0  0  0  0  0  0  0  0
  1  2  1  0
  2  3  1  0
  3  4  1  0
  4  5  2  0
  4  6  1  0
  6  7  1  0
  7  8  1  0
  8  9  1  0
  9 10  1  0
 10 11  1  0
 11 12  2  0
 12 13  1  0
 13 14  2  0
 14 15  1  0
 15 16  2  0
  2 17  1  0
 17 18  2  0
 17 19  1  0
 19 20  1  0
 20 21  1  0
 21 22  2  0
 21 23  1  0
 23 24  2  0
 24 25  1  0
 25 26  2  0
 26 27  1  0
 27 28  2  0
 28 29  1  0
 28 30  1  0
 30 31  2  0
 31 32  1  0
 32 33  2  0
 10  6  1  0
 16 11  1  0
 33 23  1  0
 32 26  1  0
  1 34  1  0
  1 35  1  0
  1 36  1  0
  3 37  1  0
  3 38  1  0
  7 39  1  0
  7 40  1  0
  8 41  1  0
  8 42  1  0
  9 43  1  0
  9 44  1  0
 10 45  1  6
 13 46  1  0
 14 47  1  0
 15 48  1  0
 19 49  1  0
 19 50  1  0
 20 51  1  0
 24 52  1  0
 25 53  1  0
 27 54  1  0
 30 55  1  0
 31 56  1  0
M  END
>  <smiles>  (22) 
CN(CC(=O)N1CCC[C@H]1c1ncccn1)C(=O)CNC(=O)c1ccc2cc(Cl)ccc2n1

>  <score_type>  (22) 
oracle

>  <origin>  (22) 
autodockgpu

>  <m_score__min__energy>  (22) 
-8.5

>  <m_primary>  (22) 
energy

>  <rmsd>  (22) 
2.321172327277322

>  <m_score__min__rmsd>  (22) 
2.321172327277322

>  <meeko>  (22) 
{"free_energy": -7.82, "intermolecular_energy": -10.2, "internal_energy": -2.86, "cluster_size": 12, "cluster_id": 1, "rank_in_cluster": 8}

>  <energy>  (22) 
-7.84

>  <cluster_rmsd>  (22) 
1.92

>  <cluster>  (22) 
2

$$$$

     RDKit          3D

 56 59  0  0  0  0  0  0  0  0999 V2000
  137.5980   81.5110  222.8080 C   0  0  0  0  0  0  0  0  0  0  0  0
  138.2190   81.6740  221.4840 N   0  0  0  0  0  0  0  0  0  0  0  0
  139.3690   82.4870  221.3000 C   0  0  0  0  0  0  0  0  0  0  0  0
  140.6890   81.8710  221.3380 C   0  0  0  0  0  0  0  0  0  0  0  0
  141.3990   82.0720  220.2630 O   0  0  0  0  0  0  0  0  0  0  0  0
  141.2840   81.1110  222.3420 N   0  0  0  0  0  0  0  0  0  0  0  0
  141.4960   81.2800  223.7510 C   0  0  0  0  0  0  0  0  0  0  0  0
  142.9710   80.8680  223.8820 C   0  0  0  0  0  0  0  0  0  0  0  0
  142.9750   79.6090  223.0750 C   0  0  0  0  0  0  0  0  0  0  0  0
  141.8990   79.7820  222.0670 C   0  0  1  0  0  0  0  0  0  0  0  0
  140.8520   78.7480  222.2220 C   0  0  0  0  0  0  0  0  0  0  0  0
  141.1070   77.4850  222.5900 N   0  0  0  0  0  0  0  0  0  0  0  0
  140.1060   76.5810  222.7140 C   0  0  0  0  0  0  0  0  0  0  0  0
  138.8040   76.9410  222.4660 C   0  0  0  0  0  0  0  0  0  0  0  0
  138.5390   78.2410  222.0870 C   0  0  0  0  0  0  0  0  0  0  0  0
  139.5860   79.0870  221.9830 N   0  0  0  0  0  0  0  0  0  0  0  0
  137.6370   80.9790  220.3540 C   0  0  0  0  0  0  0  0  0  0  0  0
  136.4650   80.5480  220.4810 O   0  0  0  0  0  0  0  0  0  0  0  0
  138.4090   80.8060  219.1250 C   0  0  0  0  0  0  0  0  0  0  0  0
  139.5590   79.9630  219.4290 N   0  0  0  0  0  0  0  0  0  0  0  0
  139.7550   78.7930  218.6620 C   0  0  0  0  0  0  0  0  0  0  0  0
  138.9610   78.4770  217.7360 O   0  0  0  0  0  0  0  0  0  0  0  0
  140.9000   77.9140  218.9340 C   0  0  0  0  0  0  0  0  0  0  0  0
  142.1610   78.2540  218.5540 C   0  0  0  0  0  0  0  0  0  0  0  0
  143.2190   77.3980  218.8290 C   0  0  0  0  0  0  0  0  0  0  0  0
  142.9940   76.1990  219.4880 C   0  0  0  0  0  0  0  0  0  0  0  0
  144.0450   75.3280  219.7700 C   0  0  0  0  0  0  0  0  0  0  0  0
  143.7370   74.1550  220.4290 C   0  0  0  0  0  0  0  0  0  0  0  0
  145.0070   73.0270  220.8100 Cl  0  0  0  0  0  0  0  0  0  0  0  0
  142.4450   73.8600  220.7900 C   0  0  0  0  0  0  0  0  0  0  0  0
  141.4200   74.7230  220.5070 C   0  0  0  0  0  0  0  0  0  0  0  0
  141.7010   75.9010  219.8500 C   0  0  0  0  0  0  0  0  0  0  0  0
  140.7060   76.7520  219.5700 N   0  0  0  0  0  0  0  0  0  0  0  0
  138.3459   81.7073  223.5904 H   0  0  0  0  0  0  0  0  0  0  0  0
  136.7639   82.2206  222.9117 H   0  0  0  0  0  0  0  0  0  0  0  0
  137.2200   80.4832  222.9117 H   0  0  0  0  0  0  0  0  0  0  0  0
  139.2676   82.9691  220.3165 H   0  0  0  0  0  0  0  0  0  0  0  0
  139.3642   83.1493  222.1783 H   0  0  0  0  0  0  0  0  0  0  0  0
  141.3401   82.3242  224.0598 H   0  0  0  0  0  0  0  0  0  0  0  0
  140.8074   80.7011  224.3840 H   0  0  0  0  0  0  0  0  0  0  0  0
  143.6439   81.6262  223.4550 H   0  0  0  0  0  0  0  0  0  0  0  0
  143.3238   80.7500  224.9172 H   0  0  0  0  0  0  0  0  0  0  0  0
  143.9477   79.4727  222.5797 H   0  0  0  0  0  0  0  0  0  0  0  0
  142.8082   78.7210  223.7024 H   0  0  0  0  0  0  0  0  0  0  0  0
  142.3138   79.7017  221.0514 H   0  0  0  0  0  0  0  0  0  0  0  0
  140.3380   75.5491  223.0161 H   0  0  0  0  0  0  0  0  0  0  0  0
  137.9897   76.2084  222.5674 H   0  0  0  0  0  0  0  0  0  0  0  0
  137.5124   78.5758  221.8773 H   0  0  0  0  0  0  0  0  0  0  0  0
  137.7856   80.3240  218.3575 H   0  0  0  0  0  0  0  0  0  0  0  0
  138.7418   81.7823  218.7427 H   0  0  0  0  0  0  0  0  0  0  0  0
  140.2390   80.1990  220.1940 H   0  0  0  0  0  0  0  0  0  0  0  0
  142.3420   79.2043  218.0304 H   0  0  0  0  0  0  0  0  0  0  0  0
  144.2394   77.6720  218.5229 H   0  0  0  0  0  0  0  0  0  0  0  0
  145.0788   75.5660  219.4789 H   0  0  0  0  0  0  0  0  0  0  0  0
  142.2305   72.9169  221.3140 H   0  0  0  0  0  0  0  0  0  0  0  0
  140.3880   74.4794  220.7998 H   0  0  0  0  0  0  0  0  0  0  0  0
  1  2  1  0
  2  3  1  0
  3  4  1  0
  4  5  2  0
  4  6  1  0
  6  7  1  0
  7  8  1  0
  8  9  1  0
  9 10  1  0
 10 11  1  0
 11 12  2  0
 12 13  1  0
 13 14  2  0
 14 15  1  0
 15 16  2  0
  2 17  1  0
 17 18  2  0
 17 19  1  0
 19 20  1  0
 20 21  1  0
 21 22  2  0
 21 23  1  0
 23 24  2  0
 24 25  1  0
 25 26  2  0
 26 27  1  0
 27 28  2  0
 28 29  1  0
 28 30  1  0
 30 31  2  0
 31 32  1  0
 32 33  2  0
 10  6  1  0
 16 11  1  0
 33 23  1  0
 32 26  1  0
  1 34  1  0
  1 35  1  0
  1 36  1  0
  3 37  1  0
  3 38  1  0
  7 39  1  0
  7 40  1  0
  8 41  1  0
  8 42  1  0
  9 43  1  0
  9 44  1  0
 10 45  1  6
 13 46  1  0
 14 47  1  0
 15 48  1  0
 19 49  1  0
 19 50  1  0
 20 51  1  0
 24 52  1  0
 25 53  1  0
 27 54  1  0
 30 55  1  0
 31 56  1  0
M  END
>  <smiles>  (23) 
CN(CC(=O)N1CCC[C@H]1c1ncccn1)C(=O)CNC(=O)c1ccc2cc(Cl)ccc2n1

>  <score_type>  (23) 
oracle

>  <origin>  (23) 
autodockgpu

>  <m_score__min__energy>  (23) 
-8.5

>  <m_primary>  (23) 
energy

>  <rmsd>  (23) 
7.688624379127249

>  <m_score__min__rmsd>  (23) 
7.688624379127249

>  <meeko>  (23) 
{"free_energy": -5.07, "intermolecular_energy": -7.46, "internal_energy": -4.83, "cluster_size": 2, "cluster_id": 12, "rank_in_cluster": 2}

>  <energy>  (23) 
-7.8

>  <cluster_rmsd>  (23) 
1.73

>  <cluster>  (23) 
2

$$$$

     RDKit          3D

 56 59  0  0  0  0  0  0  0  0999 V2000
  139.5470   66.8280  220.4240 C   0  0  0  0  0  0  0  0  0  0  0  0
  139.1010   67.9090  221.3170 N   0  0  0  0  0  0  0  0  0  0  0  0
  138.4920   67.6320  222.5710 C   0  0  0  0  0  0  0  0  0  0  0  0
  138.8810   68.4110  223.7390 C   0  0  0  0  0  0  0  0  0  0  0  0
  139.2010   67.6880  224.7750 O   0  0  0  0  0  0  0  0  0  0  0  0
  138.9560   69.7930  223.8980 N   0  0  0  0  0  0  0  0  0  0  0  0
  138.0110   70.8710  223.8630 C   0  0  0  0  0  0  0  0  0  0  0  0
  138.7520   71.8890  222.9810 C   0  0  0  0  0  0  0  0  0  0  0  0
  140.1100   71.8510  223.6060 C   0  0  0  0  0  0  0  0  0  0  0  0
  140.2450   70.4860  224.1760 C   0  0  1  0  0  0  0  0  0  0  0  0
  140.4360   70.5370  225.6420 C   0  0  0  0  0  0  0  0  0  0  0  0
  140.2360   69.4890  226.4520 N   0  0  0  0  0  0  0  0  0  0  0  0
  140.4270   69.5960  227.7880 C   0  0  0  0  0  0  0  0  0  0  0  0
  140.8310   70.7850  228.3440 C   0  0  0  0  0  0  0  0  0  0  0  0
  141.0380   71.8670  227.5120 C   0  0  0  0  0  0  0  0  0  0  0  0
  140.8280   71.6860  226.1900 N   0  0  0  0  0  0  0  0  0  0  0  0
  139.3000   69.2810  220.8980 C   0  0  0  0  0  0  0  0  0  0  0  0
  138.2860   70.0170  220.8280 O   0  0  0  0  0  0  0  0  0  0  0  0
  140.6440   69.7610  220.5780 C   0  0  0  0  0  0  0  0  0  0  0  0
  140.6160   71.2180  220.5780 N   0  0  0  0  0  0  0  0  0  0  0  0
  141.8380   71.9130  220.7090 C   0  0  0  0  0  0  0  0  0  0  0  0
  142.9320   71.2980  220.8240 O   0  0  0  0  0  0  0  0  0  0  0  0
  141.8570   73.3820  220.7130 C   0  0  0  0  0  0  0  0  0  0  0  0
  142.7590   74.0810  219.9740 C   0  0  0  0  0  0  0  0  0  0  0  0
  142.7460   75.4700  220.0030 C   0  0  0  0  0  0  0  0  0  0  0  0
  141.8190   76.1430  220.7820 C   0  0  0  0  0  0  0  0  0  0  0  0
  141.7940   77.5360  220.8230 C   0  0  0  0  0  0  0  0  0  0  0  0
  140.8390   78.1290  221.6240 C   0  0  0  0  0  0  0  0  0  0  0  0
  140.7570   79.8670  221.7160 Cl  0  0  0  0  0  0  0  0  0  0  0  0
  139.9520   77.3750  222.3510 C   0  0  0  0  0  0  0  0  0  0  0  0
  139.9860   76.0070  222.3040 C   0  0  0  0  0  0  0  0  0  0  0  0
  140.9290   75.3900  221.5130 C   0  0  0  0  0  0  0  0  0  0  0  0
  140.9700   74.0520  221.4580 N   0  0  0  0  0  0  0  0  0  0  0  0
  139.8982   65.9768  221.0257 H   0  0  0  0  0  0  0  0  0  0  0  0
  138.7079   66.5070  219.7893 H   0  0  0  0  0  0  0  0  0  0  0  0
  140.3684   67.1921  219.7893 H   0  0  0  0  0  0  0  0  0  0  0  0
  137.4087   67.7699  222.4393 H   0  0  0  0  0  0  0  0  0  0  0  0
  138.8363   66.6148  222.8093 H   0  0  0  0  0  0  0  0  0  0  0  0
  137.0601   70.5589  223.4065 H   0  0  0  0  0  0  0  0  0  0  0  0
  137.7268   71.2546  224.8540 H   0  0  0  0  0  0  0  0  0  0  0  0
  138.7800   71.5704  221.9285 H   0  0  0  0  0  0  0  0  0  0  0  0
  138.2908   72.8870  222.9454 H   0  0  0  0  0  0  0  0  0  0  0  0
  140.8872   72.0301  222.8485 H   0  0  0  0  0  0  0  0  0  0  0  0
  140.2277   72.6285  224.3752 H   0  0  0  0  0  0  0  0  0  0  0  0
  141.1127   69.9738  223.7347 H   0  0  0  0  0  0  0  0  0  0  0  0
  140.2570   68.7223  228.4343 H   0  0  0  0  0  0  0  0  0  0  0  0
  140.9864   70.8733  229.4294 H   0  0  0  0  0  0  0  0  0  0  0  0
  141.3617   72.8398  227.9106 H   0  0  0  0  0  0  0  0  0  0  0  0
  141.3580   69.4018  221.3337 H   0  0  0  0  0  0  0  0  0  0  0  0
  140.9583   69.3858  219.5929 H   0  0  0  0  0  0  0  0  0  0  0  0
  139.7210   71.7600  220.4830 H   0  0  0  0  0  0  0  0  0  0  0  0
  143.4965   73.5487  219.3553 H   0  0  0  0  0  0  0  0  0  0  0  0
  143.4745   76.0374  219.4052 H   0  0  0  0  0  0  0  0  0  0  0  0
  142.5066   78.1385  220.2405 H   0  0  0  0  0  0  0  0  0  0  0  0
  139.2028   77.8771  222.9807 H   0  0  0  0  0  0  0  0  0  0  0  0
  139.2709   75.4101  222.8892 H   0  0  0  0  0  0  0  0  0  0  0  0
  1  2  1  0
  2  3  1  0
  3  4  1  0
  4  5  2  0
  4  6  1  0
  6  7  1  0
  7  8  1  0
  8  9  1  0
  9 10  1  0
 10 11  1  0
 11 12  2  0
 12 13  1  0
 13 14  2  0
 14 15  1  0
 15 16  2  0
  2 17  1  0
 17 18  2  0
 17 19  1  0
 19 20  1  0
 20 21  1  0
 21 22  2  0
 21 23  1  0
 23 24  2  0
 24 25  1  0
 25 26  2  0
 26 27  1  0
 27 28  2  0
 28 29  1  0
 28 30  1  0
 30 31  2  0
 31 32  1  0
 32 33  2  0
 10  6  1  0
 16 11  1  0
 33 23  1  0
 32 26  1  0
  1 34  1  0
  1 35  1  0
  1 36  1  0
  3 37  1  0
  3 38  1  0
  7 39  1  0
  7 40  1  0
  8 41  1  0
  8 42  1  0
  9 43  1  0
  9 44  1  0
 10 45  1  6
 13 46  1  0
 14 47  1  0
 15 48  1  0
 19 49  1  0
 19 50  1  0
 20 51  1  0
 24 52  1  0
 25 53  1  0
 27 54  1  0
 30 55  1  0
 31 56  1  0
M  END
>  <smiles>  (24) 
CN(CC(=O)N1CCC[C@H]1c1ncccn1)C(=O)CNC(=O)c1ccc2cc(Cl)ccc2n1

>  <score_type>  (24) 
oracle

>  <origin>  (24) 
autodockgpu

>  <m_score__min__energy>  (24) 
-8.5

>  <m_primary>  (24) 
energy

>  <rmsd>  (24) 
8.421981360035227

>  <m_score__min__rmsd>  (24) 
8.421981360035227

>  <meeko>  (24) 
{"free_energy": -6.92, "intermolecular_energy": -9.31, "internal_energy": -3.15, "cluster_size": 1, "cluster_id": 5, "rank_in_cluster": 1}

>  <energy>  (24) 
-7.77

>  <cluster_rmsd>  (24) 
1.86

>  <cluster>  (24) 
2

$$$$

     RDKit          3D

 56 59  0  0  0  0  0  0  0  0999 V2000
  142.6360   74.4520  220.5170 C   0  0  0  0  0  0  0  0  0  0  0  0
  141.4070   75.2430  220.3540 N   0  0  0  0  0  0  0  0  0  0  0  0
  141.4160   76.6600  220.4610 C   0  0  0  0  0  0  0  0  0  0  0  0
  141.1440   77.2780  221.7520 C   0  0  0  0  0  0  0  0  0  0  0  0
  140.6260   76.4650  222.6300 O   0  0  0  0  0  0  0  0  0  0  0  0
  141.3540   78.5890  222.1690 N   0  0  0  0  0  0  0  0  0  0  0  0
  141.8370   79.7870  221.5450 C   0  0  0  0  0  0  0  0  0  0  0  0
  142.8260   80.2990  222.6040 C   0  0  0  0  0  0  0  0  0  0  0  0
  141.9980   80.1530  223.8410 C   0  0  0  0  0  0  0  0  0  0  0  0
  141.0650   79.0310  223.5620 C   0  0  1  0  0  0  0  0  0  0  0  0
  139.6570   79.4810  223.6220 C   0  0  0  0  0  0  0  0  0  0  0  0
  139.2720   80.6380  224.1780 N   0  0  0  0  0  0  0  0  0  0  0  0
  137.9660   80.9960  224.2030 C   0  0  0  0  0  0  0  0  0  0  0  0
  137.0060   80.1800  223.6570 C   0  0  0  0  0  0  0  0  0  0  0  0
  137.4000   78.9880  223.0840 C   0  0  0  0  0  0  0  0  0  0  0  0
  138.7190   78.6960  223.0950 N   0  0  0  0  0  0  0  0  0  0  0  0
  140.1670   74.5480  220.0740 C   0  0  0  0  0  0  0  0  0  0  0  0
  140.1140   73.8590  219.0260 O   0  0  0  0  0  0  0  0  0  0  0  0
  139.0390   74.6630  220.9970 C   0  0  0  0  0  0  0  0  0  0  0  0
  139.2820   73.7690  222.1210 N   0  0  0  0  0  0  0  0  0  0  0  0
  139.1370   72.3790  221.9180 C   0  0  0  0  0  0  0  0  0  0  0  0
  138.8070   71.9130  220.7940 O   0  0  0  0  0  0  0  0  0  0  0  0
  139.3720   71.4400  223.0230 C   0  0  0  0  0  0  0  0  0  0  0  0
  138.9810   70.1400  222.9440 C   0  0  0  0  0  0  0  0  0  0  0  0
  139.2210   69.2810  224.0090 C   0  0  0  0  0  0  0  0  0  0  0  0
  139.8540   69.7460  225.1510 C   0  0  0  0  0  0  0  0  0  0  0  0
  140.1000   68.8980  226.2300 C   0  0  0  0  0  0  0  0  0  0  0  0
  140.7360   69.4380  227.3290 C   0  0  0  0  0  0  0  0  0  0  0  0
  141.0720   68.4280  228.7070 Cl  0  0  0  0  0  0  0  0  0  0  0  0
  141.1090   70.7600  227.3570 C   0  0  0  0  0  0  0  0  0  0  0  0
  140.8620   71.5840  226.2920 C   0  0  0  0  0  0  0  0  0  0  0  0
  140.2280   71.0700  225.1820 C   0  0  0  0  0  0  0  0  0  0  0  0
  139.9820   71.8670  224.1350 N   0  0  0  0  0  0  0  0  0  0  0  0
  142.8458   74.3170  221.5883 H   0  0  0  0  0  0  0  0  0  0  0  0
  142.5047   73.4684  220.0423 H   0  0  0  0  0  0  0  0  0  0  0  0
  143.4768   74.9789  220.0423 H   0  0  0  0  0  0  0  0  0  0  0  0
  142.4138   76.9995  220.1463 H   0  0  0  0  0  0  0  0  0  0  0  0
  140.5666   76.9744  219.8368 H   0  0  0  0  0  0  0  0  0  0  0  0
  142.3431   79.5694  220.5929 H   0  0  0  0  0  0  0  0  0  0  0  0
  141.0485   80.5064  221.2792 H   0  0  0  0  0  0  0  0  0  0  0  0
  143.7332   79.6783  222.6466 H   0  0  0  0  0  0  0  0  0  0  0  0
  143.2064   81.3152  222.4236 H   0  0  0  0  0  0  0  0  0  0  0  0
  142.6360   79.9169  224.7054 H   0  0  0  0  0  0  0  0  0  0  0  0
  141.4600   81.0810  224.0847 H   0  0  0  0  0  0  0  0  0  0  0  0
  141.2012   78.2303  224.3039 H   0  0  0  0  0  0  0  0  0  0  0  0
  137.6715   81.9497  224.6652 H   0  0  0  0  0  0  0  0  0  0  0  0
  135.9452   80.4704  223.6759 H   0  0  0  0  0  0  0  0  0  0  0  0
  136.6674   78.3012  222.6350 H   0  0  0  0  0  0  0  0  0  0  0  0
  138.9550   75.6993  221.3561 H   0  0  0  0  0  0  0  0  0  0  0  0
  138.1016   74.3915  220.4894 H   0  0  0  0  0  0  0  0  0  0  0  0
  139.5590   74.1250  223.0700 H   0  0  0  0  0  0  0  0  0  0  0  0
  138.4762   69.7697  222.0395 H   0  0  0  0  0  0  0  0  0  0  0  0
  138.9077   68.2285  223.9458 H   0  0  0  0  0  0  0  0  0  0  0  0
  139.7990   67.8403  226.2061 H   0  0  0  0  0  0  0  0  0  0  0  0
  141.6134   71.1622  228.2480 H   0  0  0  0  0  0  0  0  0  0  0  0
  141.1653   72.6409  226.3221 H   0  0  0  0  0  0  0  0  0  0  0  0
  1  2  1  0
  2  3  1  0
  3  4  1  0
  4  5  2  0
  4  6  1  0
  6  7  1  0
  7  8  1  0
  8  9  1  0
  9 10  1  0
 10 11  1  0
 11 12  2  0
 12 13  1  0
 13 14  2  0
 14 15  1  0
 15 16  2  0
  2 17  1  0
 17 18  2  0
 17 19  1  0
 19 20  1  0
 20 21  1  0
 21 22  2  0
 21 23  1  0
 23 24  2  0
 24 25  1  0
 25 26  2  0
 26 27  1  0
 27 28  2  0
 28 29  1  0
 28 30  1  0
 30 31  2  0
 31 32  1  0
 32 33  2  0
 10  6  1  0
 16 11  1  0
 33 23  1  0
 32 26  1  0
  1 34  1  0
  1 35  1  0
  1 36  1  0
  3 37  1  0
  3 38  1  0
  7 39  1  0
  7 40  1  0
  8 41  1  0
  8 42  1  0
  9 43  1  0
  9 44  1  0
 10 45  1  1
 13 46  1  0
 14 47  1  0
 15 48  1  0
 19 49  1  0
 19 50  1  0
 20 51  1  0
 24 52  1  0
 25 53  1  0
 27 54  1  0
 30 55  1  0
 31 56  1  0
M  END
>  <smiles>  (25) 
CN(CC(=O)N1CCC[C@H]1c1ncccn1)C(=O)CNC(=O)c1ccc2cc(Cl)ccc2n1

>  <score_type>  (25) 
oracle

>  <origin>  (25) 
autodockgpu

>  <m_score__min__energy>  (25) 
-8.5

>  <m_primary>  (25) 
energy

>  <rmsd>  (25) 
2.061313599925208

>  <m_score__min__rmsd>  (25) 
2.061313599925208

>  <meeko>  (25) 
{"free_energy": -8.35, "intermolecular_energy": -10.73, "internal_energy": -2.32, "cluster_size": 12, "cluster_id": 1, "rank_in_cluster": 4}

>  <energy>  (25) 
-7.72

>  <cluster_rmsd>  (25) 
1.85

>  <cluster>  (25) 
2

$$$$

     RDKit          3D

 56 59  0  0  0  0  0  0  0  0999 V2000
  139.3740   77.5580  219.5890 C   0  0  0  0  0  0  0  0  0  0  0  0
  138.7070   77.5210  220.9000 N   0  0  0  0  0  0  0  0  0  0  0  0
  138.1950   78.7000  221.5050 C   0  0  0  0  0  0  0  0  0  0  0  0
  138.9660   79.3510  222.5560 C   0  0  0  0  0  0  0  0  0  0  0  0
  138.2370   79.8860  223.4950 O   0  0  0  0  0  0  0  0  0  0  0  0
  140.3460   79.4800  222.6930 N   0  0  0  0  0  0  0  0  0  0  0  0
  141.4060   78.6200  223.1340 C   0  0  0  0  0  0  0  0  0  0  0  0
  142.1840   79.5600  224.0690 C   0  0  0  0  0  0  0  0  0  0  0  0
  142.2620   80.7870  223.2180 C   0  0  0  0  0  0  0  0  0  0  0  0
  141.0590   80.7410  222.3470 C   0  0  1  0  0  0  0  0  0  0  0  0
  141.4380   80.6810  220.9180 C   0  0  0  0  0  0  0  0  0  0  0  0
  141.8150   79.5550  220.2980 N   0  0  0  0  0  0  0  0  0  0  0  0
  142.1510   79.5620  218.9860 C   0  0  0  0  0  0  0  0  0  0  0  0
  142.1110   80.7280  218.2610 C   0  0  0  0  0  0  0  0  0  0  0  0
  141.7220   81.8890  218.8970 C   0  0  0  0  0  0  0  0  0  0  0  0
  141.4020   81.8060  220.2060 N   0  0  0  0  0  0  0  0  0  0  0  0
  138.5710   76.2460  221.5730 C   0  0  0  0  0  0  0  0  0  0  0  0
  137.7170   76.1620  222.4880 O   0  0  0  0  0  0  0  0  0  0  0  0
  139.4120   75.1170  221.1770 C   0  0  0  0  0  0  0  0  0  0  0  0
  139.3500   74.1140  222.2330 N   0  0  0  0  0  0  0  0  0  0  0  0
  140.1200   72.9390  222.0900 C   0  0  0  0  0  0  0  0  0  0  0  0
  140.8470   72.7520  221.0770 O   0  0  0  0  0  0  0  0  0  0  0  0
  140.0870   71.9020  223.1290 C   0  0  0  0  0  0  0  0  0  0  0  0
  139.5910   70.6610  222.8760 C   0  0  0  0  0  0  0  0  0  0  0  0
  139.5770   69.7050  223.8840 C   0  0  0  0  0  0  0  0  0  0  0  0
  140.0660   70.0120  225.1440 C   0  0  0  0  0  0  0  0  0  0  0  0
  140.0580   69.0640  226.1660 C   0  0  0  0  0  0  0  0  0  0  0  0
  140.5640   69.4500  227.3910 C   0  0  0  0  0  0  0  0  0  0  0  0
  140.5820   68.3090  228.7080 Cl  0  0  0  0  0  0  0  0  0  0  0  0
  141.0540   70.7160  227.5920 C   0  0  0  0  0  0  0  0  0  0  0  0
  141.0570   71.6400  226.5810 C   0  0  0  0  0  0  0  0  0  0  0  0
  140.5570   71.2810  225.3490 C   0  0  0  0  0  0  0  0  0  0  0  0
  140.5560   72.1760  224.3520 N   0  0  0  0  0  0  0  0  0  0  0  0
  140.4628   77.6184  219.7332 H   0  0  0  0  0  0  0  0  0  0  0  0
  139.1286   76.6449  219.0269 H   0  0  0  0  0  0  0  0  0  0  0  0
  139.0292   78.4384  219.0269 H   0  0  0  0  0  0  0  0  0  0  0  0
  138.0571   79.4394  220.7024 H   0  0  0  0  0  0  0  0  0  0  0  0
  137.2865   78.3563  222.0212 H   0  0  0  0  0  0  0  0  0  0  0  0
  141.0165   77.7450  223.6750 H   0  0  0  0  0  0  0  0  0  0  0  0
  142.0092   78.1929  222.3193 H   0  0  0  0  0  0  0  0  0  0  0  0
  141.6356   79.7482  225.0038 H   0  0  0  0  0  0  0  0  0  0  0  0
  143.1572   79.1715  224.4037 H   0  0  0  0  0  0  0  0  0  0  0  0
  142.2491   81.6911  223.8444 H   0  0  0  0  0  0  0  0  0  0  0  0
  143.1913   80.8185  222.6303 H   0  0  0  0  0  0  0  0  0  0  0  0
  140.4432   81.6393  222.5015 H   0  0  0  0  0  0  0  0  0  0  0  0
  142.4585   78.6260  218.4968 H   0  0  0  0  0  0  0  0  0  0  0  0
  142.3835   80.7360  217.1953 H   0  0  0  0  0  0  0  0  0  0  0  0
  141.6744   82.8465  218.3577 H   0  0  0  0  0  0  0  0  0  0  0  0
  139.0416   74.6889  220.2339 H   0  0  0  0  0  0  0  0  0  0  0  0
  140.4499   75.4490  221.0271 H   0  0  0  0  0  0  0  0  0  0  0  0
  138.7540   74.2390  223.0890 H   0  0  0  0  0  0  0  0  0  0  0  0
  139.2023   70.4152  221.8768 H   0  0  0  0  0  0  0  0  0  0  0  0
  139.1764   68.7008  223.6814 H   0  0  0  0  0  0  0  0  0  0  0  0
  139.6646   68.0498  226.0030 H   0  0  0  0  0  0  0  0  0  0  0  0
  141.4504   70.9929  228.5800 H   0  0  0  0  0  0  0  0  0  0  0  0
  141.4524   72.6524  226.7503 H   0  0  0  0  0  0  0  0  0  0  0  0
  1  2  1  0
  2  3  1  0
  3  4  1  0
  4  5  2  0
  4  6  1  0
  6  7  1  0
  7  8  1  0
  8  9  1  0
  9 10  1  0
 10 11  1  0
 11 12  2  0
 12 13  1  0
 13 14  2  0
 14 15  1  0
 15 16  2  0
  2 17  1  0
 17 18  2  0
 17 19  1  0
 19 20  1  0
 20 21  1  0
 21 22  2  0
 21 23  1  0
 23 24  2  0
 24 25  1  0
 25 26  2  0
 26 27  1  0
 27 28  2  0
 28 29  1  0
 28 30  1  0
 30 31  2  0
 31 32  1  0
 32 33  2  0
 10  6  1  0
 16 11  1  0
 33 23  1  0
 32 26  1  0
  1 34  1  0
  1 35  1  0
  1 36  1  0
  3 37  1  0
  3 38  1  0
  7 39  1  0
  7 40  1  0
  8 41  1  0
  8 42  1  0
  9 43  1  0
  9 44  1  0
 10 45  1  6
 13 46  1  0
 14 47  1  0
 15 48  1  0
 19 49  1  0
 19 50  1  0
 20 51  1  0
 24 52  1  0
 25 53  1  0
 27 54  1  0
 30 55  1  0
 31 56  1  0
M  END
>  <smiles>  (26) 
CN(CC(=O)N1CCC[C@H]1c1ncccn1)C(=O)CNC(=O)c1ccc2cc(Cl)ccc2n1

>  <score_type>  (26) 
oracle

>  <origin>  (26) 
autodockgpu

>  <m_score__min__energy>  (26) 
-8.5

>  <m_primary>  (26) 
energy

>  <rmsd>  (26) 
2.670196175614411

>  <m_score__min__rmsd>  (26) 
2.670196175614411

>  <meeko>  (26) 
{"free_energy": -8.16, "intermolecular_energy": -10.55, "internal_energy": -2.53, "cluster_size": 15, "cluster_id": 2, "rank_in_cluster": 4}

>  <energy>  (26) 
-7.6

>  <cluster_rmsd>  (26) 
1.92

>  <cluster>  (26) 
2

$$$$

     RDKit          3D

 56 59  0  0  0  0  0  0  0  0999 V2000
  139.0180   77.5100  219.9220 C   0  0  0  0  0  0  0  0  0  0  0  0
  139.1490   76.9180  221.2620 N   0  0  0  0  0  0  0  0  0  0  0  0
  138.6860   77.5960  222.4210 C   0  0  0  0  0  0  0  0  0  0  0  0
  139.3130   78.8530  222.8080 C   0  0  0  0  0  0  0  0  0  0  0  0
  138.4710   79.7670  223.1990 O   0  0  0  0  0  0  0  0  0  0  0  0
  140.6600   79.2060  222.8160 N   0  0  0  0  0  0  0  0  0  0  0  0
  141.8020   78.8340  223.6010 C   0  0  0  0  0  0  0  0  0  0  0  0
  142.4210   80.2090  223.8980 C   0  0  0  0  0  0  0  0  0  0  0  0
  142.3780   80.8260  222.5360 C   0  0  0  0  0  0  0  0  0  0  0  0
  141.2240   80.1910  221.8500 C   0  0  1  0  0  0  0  0  0  0  0  0
  141.6600   79.4560  220.6420 C   0  0  0  0  0  0  0  0  0  0  0  0
  141.7830   80.0230  219.4340 N   0  0  0  0  0  0  0  0  0  0  0  0
  142.1860   79.2990  218.3640 C   0  0  0  0  0  0  0  0  0  0  0  0
  142.4790   77.9630  218.4930 C   0  0  0  0  0  0  0  0  0  0  0  0
  142.3540   77.3770  219.7360 C   0  0  0  0  0  0  0  0  0  0  0  0
  141.9470   78.1610  220.7580 N   0  0  0  0  0  0  0  0  0  0  0  0
  139.7610   75.6110  221.3850 C   0  0  0  0  0  0  0  0  0  0  0  0
  140.9870   75.5690  221.6490 O   0  0  0  0  0  0  0  0  0  0  0  0
  138.9540   74.4050  221.2050 C   0  0  0  0  0  0  0  0  0  0  0  0
  139.2310   73.5050  222.3170 N   0  0  0  0  0  0  0  0  0  0  0  0
  138.9910   72.1240  222.1390 C   0  0  0  0  0  0  0  0  0  0  0  0
  138.5480   71.6720  221.0500 O   0  0  0  0  0  0  0  0  0  0  0  0
  139.2560   71.1810  223.2330 C   0  0  0  0  0  0  0  0  0  0  0  0
  138.9140   69.8680  223.1350 C   0  0  0  0  0  0  0  0  0  0  0  0
  139.1810   69.0050  224.1900 C   0  0  0  0  0  0  0  0  0  0  0  0
  139.7930   69.4770  225.3410 C   0  0  0  0  0  0  0  0  0  0  0  0
  140.0660   68.6240  226.4090 C   0  0  0  0  0  0  0  0  0  0  0  0
  140.6780   69.1730  227.5170 C   0  0  0  0  0  0  0  0  0  0  0  0
  141.0470   68.1570  228.8840 Cl  0  0  0  0  0  0  0  0  0  0  0  0
  141.0020   70.5060  227.5640 C   0  0  0  0  0  0  0  0  0  0  0  0
  140.7280   71.3350  226.5100 C   0  0  0  0  0  0  0  0  0  0  0  0
  140.1180   70.8130  225.3910 C   0  0  0  0  0  0  0  0  0  0  0  0
  139.8470   71.6150  224.3530 N   0  0  0  0  0  0  0  0  0  0  0  0
  138.7812   78.5801  220.0155 H   0  0  0  0  0  0  0  0  0  0  0  0
  139.9644   77.3904  219.3742 H   0  0  0  0  0  0  0  0  0  0  0  0
  138.2105   77.0023  219.3742 H   0  0  0  0  0  0  0  0  0  0  0  0
  137.6172   77.8046  222.2657 H   0  0  0  0  0  0  0  0  0  0  0  0
  138.9421   76.9121  223.2436 H   0  0  0  0  0  0  0  0  0  0  0  0
  141.5047   78.3176  224.5256 H   0  0  0  0  0  0  0  0  0  0  0  0
  142.4839   78.1305  223.1008 H   0  0  0  0  0  0  0  0  0  0  0  0
  141.8184   80.7782  224.6211 H   0  0  0  0  0  0  0  0  0  0  0  0
  143.4214   80.1730  224.3540 H   0  0  0  0  0  0  0  0  0  0  0  0
  142.2301   81.9134  222.6109 H   0  0  0  0  0  0  0  0  0  0  0  0
  143.3175   80.6679  221.9861 H   0  0  0  0  0  0  0  0  0  0  0  0
  140.4968   80.9567  221.5420 H   0  0  0  0  0  0  0  0  0  0  0  0
  142.2799   79.7849  217.3816 H   0  0  0  0  0  0  0  0  0  0  0  0
  142.8062   77.3731  217.6241 H   0  0  0  0  0  0  0  0  0  0  0  0
  142.5775   76.3109  219.8890 H   0  0  0  0  0  0  0  0  0  0  0  0
  137.8861   74.6688  221.1959 H   0  0  0  0  0  0  0  0  0  0  0  0
  139.2028   73.9189  220.2501 H   0  0  0  0  0  0  0  0  0  0  0  0
  139.6010   73.8500  223.2380 H   0  0  0  0  0  0  0  0  0  0  0  0
  138.4276   69.4910  222.2232 H   0  0  0  0  0  0  0  0  0  0  0  0
  138.9058   67.9428  224.1120 H   0  0  0  0  0  0  0  0  0  0  0  0
  139.8041   67.5563  226.3701 H   0  0  0  0  0  0  0  0  0  0  0  0
  141.4890   70.9140  228.4620 H   0  0  0  0  0  0  0  0  0  0  0  0
  140.9910   72.4021  226.5559 H   0  0  0  0  0  0  0  0  0  0  0  0
  1  2  1  0
  2  3  1  0
  3  4  1  0
  4  5  2  0
  4  6  1  0
  6  7  1  0
  7  8  1  0
  8  9  1  0
  9 10  1  0
 10 11  1  0
 11 12  2  0
 12 13  1  0
 13 14  2  0
 14 15  1  0
 15 16  2  0
  2 17  1  0
 17 18  2  0
 17 19  1  0
 19 20  1  0
 20 21  1  0
 21 22  2  0
 21 23  1  0
 23 24  2  0
 24 25  1  0
 25 26  2  0
 26 27  1  0
 27 28  2  0
 28 29  1  0
 28 30  1  0
 30 31  2  0
 31 32  1  0
 32 33  2  0
 10  6  1  0
 16 11  1  0
 33 23  1  0
 32 26  1  0
  1 34  1  0
  1 35  1  0
  1 36  1  0
  3 37  1  0
  3 38  1  0
  7 39  1  0
  7 40  1  0
  8 41  1  0
  8 42  1  0
  9 43  1  0
  9 44  1  0
 10 45  1  6
 13 46  1  0
 14 47  1  0
 15 48  1  0
 19 49  1  0
 19 50  1  0
 20 51  1  0
 24 52  1  0
 25 53  1  0
 27 54  1  0
 30 55  1  0
 31 56  1  0
M  END
>  <smiles>  (27) 
CN(CC(=O)N1CCC[C@H]1c1ncccn1)C(=O)CNC(=O)c1ccc2cc(Cl)ccc2n1

>  <score_type>  (27) 
oracle

>  <origin>  (27) 
autodockgpu

>  <m_score__min__energy>  (27) 
-8.5

>  <m_primary>  (27) 
energy

>  <rmsd>  (27) 
2.4787489080113505

>  <m_score__min__rmsd>  (27) 
2.4787489080113505

>  <meeko>  (27) 
{"free_energy": -8.3, "intermolecular_energy": -10.68, "internal_energy": -2.46, "cluster_size": 15, "cluster_id": 2, "rank_in_cluster": 2}

>  <energy>  (27) 
-7.47

>  <cluster_rmsd>  (27) 
0.79

>  <cluster>  (27) 
2

$$$$

     RDKit          3D

 56 59  0  0  0  0  0  0  0  0999 V2000
  139.3590   84.8190  219.9160 C   0  0  0  0  0  0  0  0  0  0  0  0
  139.5030   83.3800  220.1860 N   0  0  0  0  0  0  0  0  0  0  0  0
  138.3730   82.5200  220.2460 C   0  0  0  0  0  0  0  0  0  0  0  0
  138.5570   81.1290  220.6380 C   0  0  0  0  0  0  0  0  0  0  0  0
  138.7670   80.3200  219.6380 O   0  0  0  0  0  0  0  0  0  0  0  0
  138.5400   80.5560  221.9080 N   0  0  0  0  0  0  0  0  0  0  0  0
  138.0190   79.3410  222.4650 C   0  0  0  0  0  0  0  0  0  0  0  0
  137.3290   79.8660  223.7340 C   0  0  0  0  0  0  0  0  0  0  0  0
  138.3960   80.7650  224.2720 C   0  0  0  0  0  0  0  0  0  0  0  0
  139.1600   81.2260  223.0840 C   0  0  1  0  0  0  0  0  0  0  0  0
  140.5760   80.8030  223.1640 C   0  0  0  0  0  0  0  0  0  0  0  0
  141.0550   79.7030  222.5660 N   0  0  0  0  0  0  0  0  0  0  0  0
  142.3620   79.3660  222.6760 C   0  0  0  0  0  0  0  0  0  0  0  0
  143.2270   80.1460  223.4030 C   0  0  0  0  0  0  0  0  0  0  0  0
  142.7360   81.2780  224.0200 C   0  0  0  0  0  0  0  0  0  0  0  0
  141.4230   81.5520  223.8670 N   0  0  0  0  0  0  0  0  0  0  0  0
  140.8320   82.8410  220.3880 C   0  0  0  0  0  0  0  0  0  0  0  0
  141.4060   83.1070  221.4720 O   0  0  0  0  0  0  0  0  0  0  0  0
  141.4530   82.0200  219.3500 C   0  0  0  0  0  0  0  0  0  0  0  0
  141.3600   80.6250  219.7600 N   0  0  0  0  0  0  0  0  0  0  0  0
  142.1440   79.6690  219.0750 C   0  0  0  0  0  0  0  0  0  0  0  0
  142.9080   80.0050  218.1310 O   0  0  0  0  0  0  0  0  0  0  0  0
  142.0810   78.2520  219.4550 C   0  0  0  0  0  0  0  0  0  0  0  0
  142.9660   77.3460  218.9600 C   0  0  0  0  0  0  0  0  0  0  0  0
  142.8760   76.0140  219.3430 C   0  0  0  0  0  0  0  0  0  0  0  0
  141.8880   75.6060  220.2250 C   0  0  0  0  0  0  0  0  0  0  0  0
  141.7840   74.2720  220.6180 C   0  0  0  0  0  0  0  0  0  0  0  0
  140.7720   73.9490  221.5000 C   0  0  0  0  0  0  0  0  0  0  0  0
  140.5910   72.2990  222.0290 Cl  0  0  0  0  0  0  0  0  0  0  0  0
  139.9050   74.9040  221.9690 C   0  0  0  0  0  0  0  0  0  0  0  0
  140.0160   76.2110  221.5760 C   0  0  0  0  0  0  0  0  0  0  0  0
  141.0170   76.5610  220.6970 C   0  0  0  0  0  0  0  0  0  0  0  0
  141.1350   77.8370  220.3060 N   0  0  0  0  0  0  0  0  0  0  0  0
  139.3041   85.3670  220.8682 H   0  0  0  0  0  0  0  0  0  0  0  0
  140.2263   85.1724  219.3390 H   0  0  0  0  0  0  0  0  0  0  0  0
  138.4389   84.9935  219.3390 H   0  0  0  0  0  0  0  0  0  0  0  0
  137.6683   82.9653  220.9637 H   0  0  0  0  0  0  0  0  0  0  0  0
  138.0391   82.4544  219.2000 H   0  0  0  0  0  0  0  0  0  0  0  0
  137.3002   78.8613  221.7844 H   0  0  0  0  0  0  0  0  0  0  0  0
  138.7787   78.5677  222.6513 H   0  0  0  0  0  0  0  0  0  0  0  0
  136.4106   80.4228  223.4962 H   0  0  0  0  0  0  0  0  0  0  0  0
  136.9943   79.0836  224.4310 H   0  0  0  0  0  0  0  0  0  0  0  0
  137.9486   81.6213  224.7979 H   0  0  0  0  0  0  0  0  0  0  0  0
  139.0407   80.2463  224.9968 H   0  0  0  0  0  0  0  0  0  0  0  0
  139.1326   82.3236  223.0172 H   0  0  0  0  0  0  0  0  0  0  0  0
  142.7343   78.4585  222.1781 H   0  0  0  0  0  0  0  0  0  0  0  0
  144.2892   79.8740  223.4916 H   0  0  0  0  0  0  0  0  0  0  0  0
  143.3900   81.9329  224.6145 H   0  0  0  0  0  0  0  0  0  0  0  0
  140.9256   82.1640  218.3955 H   0  0  0  0  0  0  0  0  0  0  0  0
  142.5060   82.3082  219.2155 H   0  0  0  0  0  0  0  0  0  0  0  0
  140.7330   80.3130  220.5430 H   0  0  0  0  0  0  0  0  0  0  0  0
  143.7504   77.6669  218.2588 H   0  0  0  0  0  0  0  0  0  0  0  0
  143.5919   75.2799  218.9446 H   0  0  0  0  0  0  0  0  0  0  0  0
  142.4799   73.5082  220.2407 H   0  0  0  0  0  0  0  0  0  0  0  0
  139.1090   74.6151  222.6711 H   0  0  0  0  0  0  0  0  0  0  0  0
  139.3164   76.9698  221.9565 H   0  0  0  0  0  0  0  0  0  0  0  0
  1  2  1  0
  2  3  1  0
  3  4  1  0
  4  5  2  0
  4  6  1  0
  6  7  1  0
  7  8  1  0
  8  9  1  0
  9 10  1  0
 10 11  1  0
 11 12  2  0
 12 13  1  0
 13 14  2  0
 14 15  1  0
 15 16  2  0
  2 17  1  0
 17 18  2  0
 17 19  1  0
 19 20  1  0
 20 21  1  0
 21 22  2  0
 21 23  1  0
 23 24  2  0
 24 25  1  0
 25 26  2  0
 26 27  1  0
 27 28  2  0
 28 29  1  0
 28 30  1  0
 30 31  2  0
 31 32  1  0
 32 33  2  0
 10  6  1  0
 16 11  1  0
 33 23  1  0
 32 26  1  0
  1 34  1  0
  1 35  1  0
  1 36  1  0
  3 37  1  0
  3 38  1  0
  7 39  1  0
  7 40  1  0
  8 41  1  0
  8 42  1  0
  9 43  1  0
  9 44  1  0
 10 45  1  6
 13 46  1  0
 14 47  1  0
 15 48  1  0
 19 49  1  0
 19 50  1  0
 20 51  1  0
 24 52  1  0
 25 53  1  0
 27 54  1  0
 30 55  1  0
 31 56  1  0
M  END
>  <smiles>  (28) 
CN(CC(=O)N1CCC[C@H]1c1ncccn1)C(=O)CNC(=O)c1ccc2cc(Cl)ccc2n1

>  <score_type>  (28) 
oracle

>  <origin>  (28) 
autodockgpu

>  <m_score__min__energy>  (28) 
-8.5

>  <m_primary>  (28) 
energy

>  <rmsd>  (28) 
7.917361064804259

>  <m_score__min__rmsd>  (28) 
7.917361064804259

>  <meeko>  (28) 
{"free_energy": -5.33, "intermolecular_energy": -7.72, "internal_energy": -4.95, "cluster_size": 1, "cluster_id": 11, "rank_in_cluster": 1}

>  <energy>  (28) 
-7.84

>  <cluster_rmsd>  (28) 
0.0

>  <cluster>  (28) 
3

$$$$

     RDKit          3D

 56 59  0  0  0  0  0  0  0  0999 V2000
  140.6120   75.8800  218.6750 C   0  0  0  0  0  0  0  0  0  0  0  0
  141.0990   76.3460  219.9820 N   0  0  0  0  0  0  0  0  0  0  0  0
  142.0810   77.3680  220.0870 C   0  0  0  0  0  0  0  0  0  0  0  0
  141.6580   78.7340  220.3680 C   0  0  0  0  0  0  0  0  0  0  0  0
  141.1190   79.3420  219.3490 O   0  0  0  0  0  0  0  0  0  0  0  0
  141.7500   79.4650  221.5500 N   0  0  0  0  0  0  0  0  0  0  0  0
  142.1840   80.7880  221.8930 C   0  0  0  0  0  0  0  0  0  0  0  0
  143.0670   80.5050  223.1190 C   0  0  0  0  0  0  0  0  0  0  0  0
  142.1770   79.5790  223.8860 C   0  0  0  0  0  0  0  0  0  0  0  0
  141.3450   78.8930  222.8650 C   0  0  1  0  0  0  0  0  0  0  0  0
  139.9080   79.1770  223.0700 C   0  0  0  0  0  0  0  0  0  0  0  0
  138.9230   78.4420  222.5350 N   0  0  0  0  0  0  0  0  0  0  0  0
  137.6240   78.7510  222.7590 C   0  0  0  0  0  0  0  0  0  0  0  0
  137.2860   79.8290  223.5410 C   0  0  0  0  0  0  0  0  0  0  0  0
  138.2980   80.5870  224.0930 C   0  0  0  0  0  0  0  0  0  0  0  0
  139.5700   80.2200  223.8270 N   0  0  0  0  0  0  0  0  0  0  0  0
  140.5530   75.7430  221.1810 C   0  0  0  0  0  0  0  0  0  0  0  0
  141.0720   76.0630  222.2770 O   0  0  0  0  0  0  0  0  0  0  0  0
  139.4380   74.8020  221.0830 C   0  0  0  0  0  0  0  0  0  0  0  0
  139.5370   73.8670  222.1960 N   0  0  0  0  0  0  0  0  0  0  0  0
  139.6080   72.4860  221.9090 C   0  0  0  0  0  0  0  0  0  0  0  0
  139.5880   72.0620  220.7220 O   0  0  0  0  0  0  0  0  0  0  0  0
  139.7080   71.5070  223.0000 C   0  0  0  0  0  0  0  0  0  0  0  0
  139.2610   70.2310  222.8500 C   0  0  0  0  0  0  0  0  0  0  0  0
  139.3730   69.3340  223.9050 C   0  0  0  0  0  0  0  0  0  0  0  0
  139.9360   69.7340  225.1060 C   0  0  0  0  0  0  0  0  0  0  0  0
  140.0540   68.8450  226.1730 C   0  0  0  0  0  0  0  0  0  0  0  0
  140.6270   69.3230  227.3350 C   0  0  0  0  0  0  0  0  0  0  0  0
  140.8030   68.2600  228.7030 Cl  0  0  0  0  0  0  0  0  0  0  0  0
  141.0610   70.6220  227.4320 C   0  0  0  0  0  0  0  0  0  0  0  0
  140.9400   71.4870  226.3770 C   0  0  0  0  0  0  0  0  0  0  0  0
  140.3720   71.0350  225.2070 C   0  0  0  0  0  0  0  0  0  0  0  0
  140.2490   71.8720  224.1680 N   0  0  0  0  0  0  0  0  0  0  0  0
  139.8246   75.1266  218.8245 H   0  0  0  0  0  0  0  0  0  0  0  0
  140.2026   76.7313  218.1114 H   0  0  0  0  0  0  0  0  0  0  0  0
  141.4445   75.4335  218.1114 H   0  0  0  0  0  0  0  0  0  0  0  0
  142.7680   77.0719  220.8934 H   0  0  0  0  0  0  0  0  0  0  0  0
  142.5051   77.4285  219.0738 H   0  0  0  0  0  0  0  0  0  0  0  0
  142.7621   81.2466  221.0773 H   0  0  0  0  0  0  0  0  0  0  0  0
  141.3644   81.4971  222.0813 H   0  0  0  0  0  0  0  0  0  0  0  0
  144.0120   80.0185  222.8356 H   0  0  0  0  0  0  0  0  0  0  0  0
  143.3839   81.4009  223.6731 H   0  0  0  0  0  0  0  0  0  0  0  0
  142.7762   78.8477  224.4484 H   0  0  0  0  0  0  0  0  0  0  0  0
  141.5604   80.1194  224.6193 H   0  0  0  0  0  0  0  0  0  0  0  0
  141.4913   77.8044  222.9241 H   0  0  0  0  0  0  0  0  0  0  0  0
  136.8318   78.1333  222.3108 H   0  0  0  0  0  0  0  0  0  0  0  0
  136.2311   80.0823  223.7230 H   0  0  0  0  0  0  0  0  0  0  0  0
  138.0768   81.4585  224.7267 H   0  0  0  0  0  0  0  0  0  0  0  0
  138.4840   75.3470  221.1373 H   0  0  0  0  0  0  0  0  0  0  0  0
  139.4780   74.2614  220.1258 H   0  0  0  0  0  0  0  0  0  0  0  0
  139.5560   74.1880  223.1960 H   0  0  0  0  0  0  0  0  0  0  0  0
  138.8129   69.9109  221.8978 H   0  0  0  0  0  0  0  0  0  0  0  0
  139.0130   68.3014  223.7862 H   0  0  0  0  0  0  0  0  0  0  0  0
  139.7049   67.8050  226.0928 H   0  0  0  0  0  0  0  0  0  0  0  0
  141.5128   70.9734  228.3714 H   0  0  0  0  0  0  0  0  0  0  0  0
  141.2909   72.5260  226.4630 H   0  0  0  0  0  0  0  0  0  0  0  0
  1  2  1  0
  2  3  1  0
  3  4  1  0
  4  5  2  0
  4  6  1  0
  6  7  1  0
  7  8  1  0
  8  9  1  0
  9 10  1  0
 10 11  1  0
 11 12  2  0
 12 13  1  0
 13 14  2  0
 14 15  1  0
 15 16  2  0
  2 17  1  0
 17 18  2  0
 17 19  1  0
 19 20  1  0
 20 21  1  0
 21 22  2  0
 21 23  1  0
 23 24  2  0
 24 25  1  0
 25 26  2  0
 26 27  1  0
 27 28  2  0
 28 29  1  0
 28 30  1  0
 30 31  2  0
 31 32  1  0
 32 33  2  0
 10  6  1  0
 16 11  1  0
 33 23  1  0
 32 26  1  0
  1 34  1  0
  1 35  1  0
  1 36  1  0
  3 37  1  0
  3 38  1  0
  7 39  1  0
  7 40  1  0
  8 41  1  0
  8 42  1  0
  9 43  1  0
  9 44  1  0
 10 45  1  6
 13 46  1  0
 14 47  1  0
 15 48  1  0
 19 49  1  0
 19 50  1  0
 20 51  1  0
 24 52  1  0
 25 53  1  0
 27 54  1  0
 30 55  1  0
 31 56  1  0
M  END
>  <smiles>  (29) 
CN(CC(=O)N1CCC[C@H]1c1ncccn1)C(=O)CNC(=O)c1ccc2cc(Cl)ccc2n1

>  <score_type>  (29) 
oracle

>  <origin>  (29) 
autodockgpu

>  <m_score__min__energy>  (29) 
-8.5

>  <m_primary>  (29) 
energy

>  <rmsd>  (29) 
1.7812977024487457

>  <m_score__min__rmsd>  (29) 
1.7812977024487457

>  <meeko>  (29) 
{"free_energy": -8.5, "intermolecular_energy": -10.89, "internal_energy": -2.49, "cluster_size": 12, "cluster_id": 1, "rank_in_cluster": 1}

>  <energy>  (29) 
-6.56

>  <cluster_rmsd>  (29) 
1.66

>  <cluster>  (29) 
3

$$$$

     RDKit          3D

 56 59  0  0  0  0  0  0  0  0999 V2000
  141.2310   77.9080  220.1260 C   0  0  0  0  0  0  0  0  0  0  0  0
  139.9920   77.2190  220.5190 N   0  0  0  0  0  0  0  0  0  0  0  0
  138.7210   77.6640  220.0670 C   0  0  0  0  0  0  0  0  0  0  0  0
  138.1990   78.9350  220.5530 C   0  0  0  0  0  0  0  0  0  0  0  0
  137.6980   79.6940  219.6190 O   0  0  0  0  0  0  0  0  0  0  0  0
  138.1620   79.4410  221.8500 N   0  0  0  0  0  0  0  0  0  0  0  0
  137.5910   79.0080  223.0920 C   0  0  0  0  0  0  0  0  0  0  0  0
  136.9320   80.3060  223.5870 C   0  0  0  0  0  0  0  0  0  0  0  0
  138.0430   81.2800  223.3520 C   0  0  0  0  0  0  0  0  0  0  0  0
  138.8200   80.7270  222.2140 C   0  0  1  0  0  0  0  0  0  0  0  0
  140.2150   80.4370  222.6120 C   0  0  0  0  0  0  0  0  0  0  0  0
  141.2630   81.1830  222.2370 N   0  0  0  0  0  0  0  0  0  0  0  0
  142.5190   80.8660  222.6330 C   0  0  0  0  0  0  0  0  0  0  0  0
  142.7460   79.7710  223.4300 C   0  0  0  0  0  0  0  0  0  0  0  0
  141.6680   79.0010  223.8170 C   0  0  0  0  0  0  0  0  0  0  0  0
  140.4460   79.3770  223.3840 N   0  0  0  0  0  0  0  0  0  0  0  0
  140.0870   76.0600  221.3830 C   0  0  0  0  0  0  0  0  0  0  0  0
  140.7910   76.1640  222.4160 O   0  0  0  0  0  0  0  0  0  0  0  0
  139.3760   74.8300  221.0370 C   0  0  0  0  0  0  0  0  0  0  0  0
  139.5010   73.9050  222.1550 N   0  0  0  0  0  0  0  0  0  0  0  0
  139.4840   72.5190  221.8850 C   0  0  0  0  0  0  0  0  0  0  0  0
  139.3640   72.0820  220.7090 O   0  0  0  0  0  0  0  0  0  0  0  0
  139.6070   71.5500  222.9830 C   0  0  0  0  0  0  0  0  0  0  0  0
  139.1670   70.2700  222.8500 C   0  0  0  0  0  0  0  0  0  0  0  0
  139.3010   69.3820  223.9100 C   0  0  0  0  0  0  0  0  0  0  0  0
  139.8810   69.7950  225.0990 C   0  0  0  0  0  0  0  0  0  0  0  0
  140.0210   68.9160  226.1710 C   0  0  0  0  0  0  0  0  0  0  0  0
  140.6100   69.4070  227.3190 C   0  0  0  0  0  0  0  0  0  0  0  0
  140.8150   68.3560  228.6940 Cl  0  0  0  0  0  0  0  0  0  0  0  0
  141.0380   70.7090  227.3990 C   0  0  0  0  0  0  0  0  0  0  0  0
  140.8940   71.5640  226.3400 C   0  0  0  0  0  0  0  0  0  0  0  0
  140.3100   71.1000  225.1820 C   0  0  0  0  0  0  0  0  0  0  0  0
  140.1650   71.9280  224.1390 N   0  0  0  0  0  0  0  0  0  0  0  0
  141.7819   78.2144  221.0275 H   0  0  0  0  0  0  0  0  0  0  0  0
  141.8552   77.2275  219.5284 H   0  0  0  0  0  0  0  0  0  0  0  0
  140.9823   78.7973  219.5284 H   0  0  0  0  0  0  0  0  0  0  0  0
  138.7773   77.7376  218.9709 H   0  0  0  0  0  0  0  0  0  0  0  0
  138.0221   76.9200  220.4770 H   0  0  0  0  0  0  0  0  0  0  0  0
  136.8477   78.2119  222.9380 H   0  0  0  0  0  0  0  0  0  0  0  0
  138.3168   78.5738  223.7953 H   0  0  0  0  0  0  0  0  0  0  0  0
  136.0384   80.5587  222.9974 H   0  0  0  0  0  0  0  0  0  0  0  0
  136.5656   80.2687  224.6235 H   0  0  0  0  0  0  0  0  0  0  0  0
  137.6385   82.2705  223.0963 H   0  0  0  0  0  0  0  0  0  0  0  0
  138.6677   81.4110  224.2479 H   0  0  0  0  0  0  0  0  0  0  0  0
  138.8431   81.4480  221.3835 H   0  0  0  0  0  0  0  0  0  0  0  0
  143.3652   81.4917  222.3131 H   0  0  0  0  0  0  0  0  0  0  0  0
  143.7654   79.5131  223.7531 H   0  0  0  0  0  0  0  0  0  0  0  0
  141.7997   78.1142  224.4544 H   0  0  0  0  0  0  0  0  0  0  0  0
  138.3143   75.0521  220.8538 H   0  0  0  0  0  0  0  0  0  0  0  0
  139.8036   74.3863  220.1258 H   0  0  0  0  0  0  0  0  0  0  0  0
  139.6030   74.2370  223.1470 H   0  0  0  0  0  0  0  0  0  0  0  0
  138.7070   69.9392  221.9071 H   0  0  0  0  0  0  0  0  0  0  0  0
  138.9451   68.3465  223.8051 H   0  0  0  0  0  0  0  0  0  0  0  0
  139.6763   67.8735  226.1053 H   0  0  0  0  0  0  0  0  0  0  0  0
  141.5035   71.0703  228.3278 H   0  0  0  0  0  0  0  0  0  0  0  0
  141.2394   72.6059  226.4125 H   0  0  0  0  0  0  0  0  0  0  0  0
  1  2  1  0
  2  3  1  0
  3  4  1  0
  4  5  2  0
  4  6  1  0
  6  7  1  0
  7  8  1  0
  8  9  1  0
  9 10  1  0
 10 11  1  0
 11 12  2  0
 12 13  1  0
 13 14  2  0
 14 15  1  0
 15 16  2  0
  2 17  1  0
 17 18  2  0
 17 19  1  0
 19 20  1  0
 20 21  1  0
 21 22  2  0
 21 23  1  0
 23 24  2  0
 24 25  1  0
 25 26  2  0
 26 27  1  0
 27 28  2  0
 28 29  1  0
 28 30  1  0
 30 31  2  0
 31 32  1  0
 32 33  2  0
 10  6  1  0
 16 11  1  0
 33 23  1  0
 32 26  1  0
  1 34  1  0
  1 35  1  0
  1 36  1  0
  3 37  1  0
  3 38  1  0
  7 39  1  0
  7 40  1  0
  8 41  1  0
  8 42  1  0
  9 43  1  0
  9 44  1  0
 10 45  1  6
 13 46  1  0
 14 47  1  0
 15 48  1  0
 19 49  1  0
 19 50  1  0
 20 51  1  0
 24 52  1  0
 25 53  1  0
 27 54  1  0
 30 55  1  0
 31 56  1  0
M  END
>  <smiles>  (30) 
CN(CC(=O)N1CCC[C@H]1c1ncccn1)C(=O)CNC(=O)c1ccc2cc(Cl)ccc2n1

>  <score_type>  (30) 
oracle

>  <origin>  (30) 
autodockgpu

>  <m_score__min__energy>  (30) 
-8.5

>  <m_primary>  (30) 
energy

>  <rmsd>  (30) 
2.804596808903228

>  <m_score__min__rmsd>  (30) 
2.804596808903228

>  <meeko>  (30) 
{"free_energy": -7.72, "intermolecular_energy": -10.11, "internal_energy": -2.71, "cluster_size": 15, "cluster_id": 2, "rank_in_cluster": 13}

>  <energy>  (30) 
-6.47

>  <cluster_rmsd>  (30) 
1.05

>  <cluster>  (30) 
3

$$$$

     RDKit          3D

 56 59  0  0  0  0  0  0  0  0999 V2000
  137.1770   82.5290  223.0320 C   0  0  0  0  0  0  0  0  0  0  0  0
  137.5650   81.3170  222.2930 N   0  0  0  0  0  0  0  0  0  0  0  0
  137.6520   81.3090  220.8750 C   0  0  0  0  0  0  0  0  0  0  0  0
  138.6830   80.5060  220.2300 C   0  0  0  0  0  0  0  0  0  0  0  0
  138.2550   79.3650  219.7680 O   0  0  0  0  0  0  0  0  0  0  0  0
  140.0350   80.7830  220.0450 N   0  0  0  0  0  0  0  0  0  0  0  0
  140.7940   81.9510  219.7030 C   0  0  0  0  0  0  0  0  0  0  0  0
  141.7400   81.3900  218.6300 C   0  0  0  0  0  0  0  0  0  0  0  0
  142.1990   80.1350  219.3020 C   0  0  0  0  0  0  0  0  0  0  0  0
  141.0830   79.7350  220.1980 C   0  0  1  0  0  0  0  0  0  0  0  0
  141.5160   79.7170  221.6120 C   0  0  0  0  0  0  0  0  0  0  0  0
  141.0480   78.8480  222.5190 N   0  0  0  0  0  0  0  0  0  0  0  0
  141.4820   78.8800  223.8010 C   0  0  0  0  0  0  0  0  0  0  0  0
  142.4150   79.8050  224.2010 C   0  0  0  0  0  0  0  0  0  0  0  0
  142.8990   80.7010  223.2690 C   0  0  0  0  0  0  0  0  0  0  0  0
  142.4200   80.6100  222.0100 N   0  0  0  0  0  0  0  0  0  0  0  0
  137.8660   80.1140  223.0420 C   0  0  0  0  0  0  0  0  0  0  0  0
  138.5840   80.2340  224.0640 O   0  0  0  0  0  0  0  0  0  0  0  0
  137.3350   78.8260  222.6000 C   0  0  0  0  0  0  0  0  0  0  0  0
  138.4440   78.0340  222.0820 N   0  0  0  0  0  0  0  0  0  0  0  0
  138.4800   76.6540  222.3800 C   0  0  0  0  0  0  0  0  0  0  0  0
  137.5800   76.1100  223.0750 O   0  0  0  0  0  0  0  0  0  0  0  0
  139.5790   75.8170  221.8790 C   0  0  0  0  0  0  0  0  0  0  0  0
  139.5830   74.4690  222.0610 C   0  0  0  0  0  0  0  0  0  0  0  0
  140.6390   73.7110  221.5720 C   0  0  0  0  0  0  0  0  0  0  0  0
  141.6870   74.3230  220.9020 C   0  0  0  0  0  0  0  0  0  0  0  0
  142.7550   73.5760  220.4070 C   0  0  0  0  0  0  0  0  0  0  0  0
  143.7570   74.2620  219.7520 C   0  0  0  0  0  0  0  0  0  0  0  0
  145.1170   73.3830  219.1100 Cl  0  0  0  0  0  0  0  0  0  0  0  0
  143.7030   75.6250  219.5960 C   0  0  0  0  0  0  0  0  0  0  0  0
  142.6500   76.3490  220.0870 C   0  0  0  0  0  0  0  0  0  0  0  0
  141.6360   75.6890  220.7450 C   0  0  0  0  0  0  0  0  0  0  0  0
  140.6000   76.3870  221.2290 N   0  0  0  0  0  0  0  0  0  0  0  0
  137.2391   82.3350  224.1130 H   0  0  0  0  0  0  0  0  0  0  0  0
  137.8563   83.3528  222.7677 H   0  0  0  0  0  0  0  0  0  0  0  0
  136.1456   82.8052  222.7677 H   0  0  0  0  0  0  0  0  0  0  0  0
  136.6829   80.9526  220.4957 H   0  0  0  0  0  0  0  0  0  0  0  0
  137.9312   82.3431  220.6244 H   0  0  0  0  0  0  0  0  0  0  0  0
  140.1503   82.7453  219.2972 H   0  0  0  0  0  0  0  0  0  0  0  0
  141.3067   82.4212  220.5551 H   0  0  0  0  0  0  0  0  0  0  0  0
  141.2083   81.1769  217.6909 H   0  0  0  0  0  0  0  0  0  0  0  0
  142.5492   82.0720  218.3298 H   0  0  0  0  0  0  0  0  0  0  0  0
  142.3949   79.3495  218.5573 H   0  0  0  0  0  0  0  0  0  0  0  0
  143.1352   80.2885  219.8588 H   0  0  0  0  0  0  0  0  0  0  0  0
  140.7261   78.7282  219.9354 H   0  0  0  0  0  0  0  0  0  0  0  0
  141.0835   78.1582  224.5292 H   0  0  0  0  0  0  0  0  0  0  0  0
  142.7691   79.8314  225.2421 H   0  0  0  0  0  0  0  0  0  0  0  0
  143.6466   81.4603  223.5418 H   0  0  0  0  0  0  0  0  0  0  0  0
  136.8680   78.3041  223.4482 H   0  0  0  0  0  0  0  0  0  0  0  0
  136.5746   78.9744  221.8192 H   0  0  0  0  0  0  0  0  0  0  0  0
  139.2090   78.4570  221.5000 H   0  0  0  0  0  0  0  0  0  0  0  0
  138.7531   73.9812  222.5934 H   0  0  0  0  0  0  0  0  0  0  0  0
  140.6438   72.6206  221.7169 H   0  0  0  0  0  0  0  0  0  0  0  0
  142.7971   72.4841  220.5335 H   0  0  0  0  0  0  0  0  0  0  0  0
  144.5178   76.1428  219.0688 H   0  0  0  0  0  0  0  0  0  0  0  0
  142.6143   77.4408  219.9580 H   0  0  0  0  0  0  0  0  0  0  0  0
  1  2  1  0
  2  3  1  0
  3  4  1  0
  4  5  2  0
  4  6  1  0
  6  7  1  0
  7  8  1  0
  8  9  1  0
  9 10  1  0
 10 11  1  0
 11 12  2  0
 12 13  1  0
 13 14  2  0
 14 15  1  0
 15 16  2  0
  2 17  1  0
 17 18  2  0
 17 19  1  0
 19 20  1  0
 20 21  1  0
 21 22  2  0
 21 23  1  0
 23 24  2  0
 24 25  1  0
 25 26  2  0
 26 27  1  0
 27 28  2  0
 28 29  1  0
 28 30  1  0
 30 31  2  0
 31 32  1  0
 32 33  2  0
 10  6  1  0
 16 11  1  0
 33 23  1  0
 32 26  1  0
  1 34  1  0
  1 35  1  0
  1 36  1  0
  3 37  1  0
  3 38  1  0
  7 39  1  0
  7 40  1  0
  8 41  1  0
  8 42  1  0
  9 43  1  0
  9 44  1  0
 10 45  1  6
 13 46  1  0
 14 47  1  0
 15 48  1  0
 19 49  1  0
 19 50  1  0
 20 51  1  0
 24 52  1  0
 25 53  1  0
 27 54  1  0
 30 55  1  0
 31 56  1  0
M  END
>  <smiles>  (31) 
CN(CC(=O)N1CCC[C@H]1c1ncccn1)C(=O)CNC(=O)c1ccc2cc(Cl)ccc2n1

>  <score_type>  (31) 
oracle

>  <origin>  (31) 
autodockgpu

>  <m_score__min__energy>  (31) 
-8.5

>  <m_primary>  (31) 
energy

>  <rmsd>  (31) 
6.396752467429464

>  <m_score__min__rmsd>  (31) 
6.396752467429464

>  <meeko>  (31) 
{"free_energy": -5.48, "intermolecular_energy": -7.87, "internal_energy": -4.77, "cluster_size": 4, "cluster_id": 7, "rank_in_cluster": 3}

>  <energy>  (31) 
-6.17

>  <cluster_rmsd>  (31) 
1.43

>  <cluster>  (31) 
3

$$$$

     RDKit          3D

 56 59  0  0  0  0  0  0  0  0999 V2000
  136.3210   73.4180  221.6700 C   0  0  0  0  0  0  0  0  0  0  0  0
  137.3120   74.1880  220.9030 N   0  0  0  0  0  0  0  0  0  0  0  0
  137.9090   75.3640  221.4320 C   0  0  0  0  0  0  0  0  0  0  0  0
  139.3030   75.3250  221.8550 C   0  0  0  0  0  0  0  0  0  0  0  0
  139.5780   74.3590  222.6870 O   0  0  0  0  0  0  0  0  0  0  0  0
  140.3600   76.1600  221.5030 N   0  0  0  0  0  0  0  0  0  0  0  0
  141.0570   77.2390  222.1420 C   0  0  0  0  0  0  0  0  0  0  0  0
  141.1120   78.2730  221.0060 C   0  0  0  0  0  0  0  0  0  0  0  0
  141.5590   77.4080  219.8710 C   0  0  0  0  0  0  0  0  0  0  0  0
  141.0500   76.0490  220.1870 C   0  0  1  0  0  0  0  0  0  0  0  0
  142.1610   75.0820  220.3280 C   0  0  0  0  0  0  0  0  0  0  0  0
  141.9960   73.8170  220.7370 N   0  0  0  0  0  0  0  0  0  0  0  0
  143.0530   72.9780  220.8470 C   0  0  0  0  0  0  0  0  0  0  0  0
  144.3210   73.4060  220.5400 C   0  0  0  0  0  0  0  0  0  0  0  0
  144.4940   74.7090  220.1190 C   0  0  0  0  0  0  0  0  0  0  0  0
  143.3950   75.4880  220.0330 N   0  0  0  0  0  0  0  0  0  0  0  0
  137.6810   73.7220  219.5820 C   0  0  0  0  0  0  0  0  0  0  0  0
  137.0970   74.2430  218.6000 O   0  0  0  0  0  0  0  0  0  0  0  0
  138.7010   72.6850  219.4300 C   0  0  0  0  0  0  0  0  0  0  0  0
  139.2830   72.4280  220.7410 N   0  0  0  0  0  0  0  0  0  0  0  0
  138.8590   71.2830  221.4520 C   0  0  0  0  0  0  0  0  0  0  0  0
  138.0000   70.4960  220.9720 O   0  0  0  0  0  0  0  0  0  0  0  0
  139.4190   70.9850  222.7760 C   0  0  0  0  0  0  0  0  0  0  0  0
  140.3090   71.8220  223.3740 C   0  0  0  0  0  0  0  0  0  0  0  0
  140.8170   71.5080  224.6280 C   0  0  0  0  0  0  0  0  0  0  0  0
  140.4200   70.3460  225.2710 C   0  0  0  0  0  0  0  0  0  0  0  0
  140.9220   70.0150  226.5290 C   0  0  0  0  0  0  0  0  0  0  0  0
  140.4750   68.8410  227.1000 C   0  0  0  0  0  0  0  0  0  0  0  0
  141.0640   68.3750  228.6720 Cl  0  0  0  0  0  0  0  0  0  0  0  0
  139.5750   68.0310  226.4520 C   0  0  0  0  0  0  0  0  0  0  0  0
  139.0900   68.3650  225.2160 C   0  0  0  0  0  0  0  0  0  0  0  0
  139.5190   69.5320  224.6240 C   0  0  0  0  0  0  0  0  0  0  0  0
  139.0490   69.8690  223.4150 N   0  0  0  0  0  0  0  0  0  0  0  0
  136.5010   73.5579  222.7461 H   0  0  0  0  0  0  0  0  0  0  0  0
  135.3094   73.7693  221.4188 H   0  0  0  0  0  0  0  0  0  0  0  0
  136.4115   72.3509  221.4188 H   0  0  0  0  0  0  0  0  0  0  0  0
  137.8298   76.1410  220.6574 H   0  0  0  0  0  0  0  0  0  0  0  0
  137.3567   75.5400  222.3669 H   0  0  0  0  0  0  0  0  0  0  0  0
  140.4989   77.6220  223.0091 H   0  0  0  0  0  0  0  0  0  0  0  0
  142.0408   76.9627  222.5491 H   0  0  0  0  0  0  0  0  0  0  0  0
  140.1244   78.7174  220.8133 H   0  0  0  0  0  0  0  0  0  0  0  0
  141.7606   79.1387  221.2054 H   0  0  0  0  0  0  0  0  0  0  0  0
  141.1336   77.7674  218.9224 H   0  0  0  0  0  0  0  0  0  0  0  0
  142.6528   77.4185  219.7547 H   0  0  0  0  0  0  0  0  0  0  0  0
  140.3877   75.6961  219.3827 H   0  0  0  0  0  0  0  0  0  0  0  0
  142.8943   71.9435  221.1856 H   0  0  0  0  0  0  0  0  0  0  0  0
  145.1805   72.7251  220.6277 H   0  0  0  0  0  0  0  0  0  0  0  0
  145.4905   75.0982  219.8631 H   0  0  0  0  0  0  0  0  0  0  0  0
  138.2422   71.7650  219.0387 H   0  0  0  0  0  0  0  0  0  0  0  0
  139.4786   73.0152  218.7255 H   0  0  0  0  0  0  0  0  0  0  0  0
  140.0010   73.0640  221.1680 H   0  0  0  0  0  0  0  0  0  0  0  0
  140.6255   72.7449  222.8659 H   0  0  0  0  0  0  0  0  0  0  0  0
  141.5369   72.1839  225.1126 H   0  0  0  0  0  0  0  0  0  0  0  0
  141.6451   70.6635  227.0454 H   0  0  0  0  0  0  0  0  0  0  0  0
  139.2390   67.1005  226.9329 H   0  0  0  0  0  0  0  0  0  0  0  0
  138.3688   67.7112  224.7037 H   0  0  0  0  0  0  0  0  0  0  0  0
  1  2  1  0
  2  3  1  0
  3  4  1  0
  4  5  2  0
  4  6  1  0
  6  7  1  0
  7  8  1  0
  8  9  1  0
  9 10  1  0
 10 11  1  0
 11 12  2  0
 12 13  1  0
 13 14  2  0
 14 15  1  0
 15 16  2  0
  2 17  1  0
 17 18  2  0
 17 19  1  0
 19 20  1  0
 20 21  1  0
 21 22  2  0
 21 23  1  0
 23 24  2  0
 24 25  1  0
 25 26  2  0
 26 27  1  0
 27 28  2  0
 28 29  1  0
 28 30  1  0
 30 31  2  0
 31 32  1  0
 32 33  2  0
 10  6  1  0
 16 11  1  0
 33 23  1  0
 32 26  1  0
  1 34  1  0
  1 35  1  0
  1 36  1  0
  3 37  1  0
  3 38  1  0
  7 39  1  0
  7 40  1  0
  8 41  1  0
  8 42  1  0
  9 43  1  0
  9 44  1  0
 10 45  1  6
 13 46  1  0
 14 47  1  0
 15 48  1  0
 19 49  1  0
 19 50  1  0
 20 51  1  0
 24 52  1  0
 25 53  1  0
 27 54  1  0
 30 55  1  0
 31 56  1  0
M  END
>  <smiles>  (32) 
CN(CC(=O)N1CCC[C@H]1c1ncccn1)C(=O)CNC(=O)c1ccc2cc(Cl)ccc2n1

>  <score_type>  (32) 
oracle

>  <origin>  (32) 
autodockgpu

>  <m_score__min__energy>  (32) 
-8.5

>  <m_primary>  (32) 
energy

>  <rmsd>  (32) 
3.630801101872407

>  <m_score__min__rmsd>  (32) 
3.630801101872407

>  <meeko>  (32) 
{"free_energy": -6.47, "intermolecular_energy": -8.86, "internal_energy": -3.95, "cluster_size": 4, "cluster_id": 3, "rank_in_cluster": 3}

>  <energy>  (32) 
-6.93

>  <cluster_rmsd>  (32) 
0.0

>  <cluster>  (32) 
4

$$$$

     RDKit          3D

 56 59  0  0  0  0  0  0  0  0999 V2000
  141.8330   77.7910  220.3640 C   0  0  0  0  0  0  0  0  0  0  0  0
  140.4310   77.3920  220.5600 N   0  0  0  0  0  0  0  0  0  0  0  0
  139.3770   78.0020  219.8300 C   0  0  0  0  0  0  0  0  0  0  0  0
  138.2540   78.5840  220.5540 C   0  0  0  0  0  0  0  0  0  0  0  0
  137.1340   78.5830  219.8860 O   0  0  0  0  0  0  0  0  0  0  0  0
  138.2130   79.1320  221.8340 N   0  0  0  0  0  0  0  0  0  0  0  0
  137.6480   78.7310  223.0900 C   0  0  0  0  0  0  0  0  0  0  0  0
  136.9730   80.0360  223.5440 C   0  0  0  0  0  0  0  0  0  0  0  0
  138.0700   81.0170  223.2760 C   0  0  0  0  0  0  0  0  0  0  0  0
  138.8530   80.4380  222.1540 C   0  0  1  0  0  0  0  0  0  0  0  0
  140.2530   80.1790  222.5590 C   0  0  0  0  0  0  0  0  0  0  0  0
  140.5950   79.3440  223.5500 N   0  0  0  0  0  0  0  0  0  0  0  0
  141.8950   79.1480  223.8760 C   0  0  0  0  0  0  0  0  0  0  0  0
  142.8930   79.8020  223.1950 C   0  0  0  0  0  0  0  0  0  0  0  0
  142.5430   80.6620  222.1740 C   0  0  0  0  0  0  0  0  0  0  0  0
  141.2280   80.8090  221.9050 N   0  0  0  0  0  0  0  0  0  0  0  0
  140.1360   76.3470  221.5190 C   0  0  0  0  0  0  0  0  0  0  0  0
  140.3980   76.5780  222.7250 O   0  0  0  0  0  0  0  0  0  0  0  0
  139.5520   75.0850  221.0690 C   0  0  0  0  0  0  0  0  0  0  0  0
  139.5990   74.1430  222.1790 N   0  0  0  0  0  0  0  0  0  0  0  0
  139.7620   72.7700  221.8900 C   0  0  0  0  0  0  0  0  0  0  0  0
  139.8660   72.3600  220.7030 O   0  0  0  0  0  0  0  0  0  0  0  0
  139.8150   71.7850  222.9780 C   0  0  0  0  0  0  0  0  0  0  0  0
  139.3360   70.5230  222.8150 C   0  0  0  0  0  0  0  0  0  0  0  0
  139.4040   69.6180  223.8670 C   0  0  0  0  0  0  0  0  0  0  0  0
  139.9560   69.9980  225.0800 C   0  0  0  0  0  0  0  0  0  0  0  0
  140.0300   69.1030  226.1460 C   0  0  0  0  0  0  0  0  0  0  0  0
  140.5940   69.5600  227.3190 C   0  0  0  0  0  0  0  0  0  0  0  0
  140.7160   68.4870  228.6860 Cl  0  0  0  0  0  0  0  0  0  0  0  0
  141.0620   70.8460  227.4300 C   0  0  0  0  0  0  0  0  0  0  0  0
  140.9840   71.7170  226.3770 C   0  0  0  0  0  0  0  0  0  0  0  0
  140.4250   71.2870  225.1940 C   0  0  0  0  0  0  0  0  0  0  0  0
  140.3440   72.1310  224.1570 N   0  0  0  0  0  0  0  0  0  0  0  0
  142.3154   77.9283  221.3430 H   0  0  0  0  0  0  0  0  0  0  0  0
  142.3619   77.0077  219.8012 H   0  0  0  0  0  0  0  0  0  0  0  0
  141.8702   78.7354  219.8012 H   0  0  0  0  0  0  0  0  0  0  0  0
  139.8256   78.8082  219.2311 H   0  0  0  0  0  0  0  0  0  0  0  0
  138.9255   77.1663  219.2753 H   0  0  0  0  0  0  0  0  0  0  0  0
  136.9146   77.9212  222.9619 H   0  0  0  0  0  0  0  0  0  0  0  0
  138.3794   78.3282  223.8061 H   0  0  0  0  0  0  0  0  0  0  0  0
  136.0753   80.2577  222.9482 H   0  0  0  0  0  0  0  0  0  0  0  0
  136.6091   80.0271  224.5820 H   0  0  0  0  0  0  0  0  0  0  0  0
  137.6516   81.9932  222.9896 H   0  0  0  0  0  0  0  0  0  0  0  0
  138.6943   81.1852  224.1660 H   0  0  0  0  0  0  0  0  0  0  0  0
  138.8645   81.1322  221.3008 H   0  0  0  0  0  0  0  0  0  0  0  0
  142.1540   78.4590  224.6934 H   0  0  0  0  0  0  0  0  0  0  0  0
  143.9492   79.6434  223.4581 H   0  0  0  0  0  0  0  0  0  0  0  0
  143.3070   81.2075  221.6006 H   0  0  0  0  0  0  0  0  0  0  0  0
  138.5084   75.2461  220.7607 H   0  0  0  0  0  0  0  0  0  0  0  0
  140.1142   74.6899  220.2100 H   0  0  0  0  0  0  0  0  0  0  0  0
  139.5150   74.4530  223.1800 H   0  0  0  0  0  0  0  0  0  0  0  0
  138.8961   70.2196  221.8535 H   0  0  0  0  0  0  0  0  0  0  0  0
  139.0183   68.5961  223.7366 H   0  0  0  0  0  0  0  0  0  0  0  0
  139.6537   68.0733  226.0555 H   0  0  0  0  0  0  0  0  0  0  0  0
  141.5061   71.1812  228.3789 H   0  0  0  0  0  0  0  0  0  0  0  0
  141.3622   72.7453  226.4742 H   0  0  0  0  0  0  0  0  0  0  0  0
  1  2  1  0
  2  3  1  0
  3  4  1  0
  4  5  2  0
  4  6  1  0
  6  7  1  0
  7  8  1  0
  8  9  1  0
  9 10  1  0
 10 11  1  0
 11 12  2  0
 12 13  1  0
 13 14  2  0
 14 15  1  0
 15 16  2  0
  2 17  1  0
 17 18  2  0
 17 19  1  0
 19 20  1  0
 20 21  1  0
 21 22  2  0
 21 23  1  0
 23 24  2  0
 24 25  1  0
 25 26  2  0
 26 27  1  0
 27 28  2  0
 28 29  1  0
 28 30  1  0
 30 31  2  0
 31 32  1  0
 32 33  2  0
 10  6  1  0
 16 11  1  0
 33 23  1  0
 32 26  1  0
  1 34  1  0
  1 35  1  0
  1 36  1  0
  3 37  1  0
  3 38  1  0
  7 39  1  0
  7 40  1  0
  8 41  1  0
  8 42  1  0
  9 43  1  0
  9 44  1  0
 10 45  1  6
 13 46  1  0
 14 47  1  0
 15 48  1  0
 19 49  1  0
 19 50  1  0
 20 51  1  0
 24 52  1  0
 25 53  1  0
 27 54  1  0
 30 55  1  0
 31 56  1  0
M  END
>  <smiles>  (33) 
CN(CC(=O)N1CCC[C@H]1c1ncccn1)C(=O)CNC(=O)c1ccc2cc(Cl)ccc2n1

>  <score_type>  (33) 
oracle

>  <origin>  (33) 
autodockgpu

>  <m_score__min__energy>  (33) 
-8.5

>  <m_primary>  (33) 
energy

>  <rmsd>  (33) 
2.8818415164102333

>  <m_score__min__rmsd>  (33) 
2.8818415164102333

>  <meeko>  (33) 
{"free_energy": -7.8, "intermolecular_energy": -10.19, "internal_energy": -2.92, "cluster_size": 15, "cluster_id": 2, "rank_in_cluster": 11}

>  <energy>  (33) 
-6.92

>  <cluster_rmsd>  (33) 
0.0

>  <cluster>  (33) 
5

$$$$

     RDKit          3D

 56 59  0  0  0  0  0  0  0  0999 V2000
  137.9850   78.3750  221.0380 C   0  0  0  0  0  0  0  0  0  0  0  0
  139.0700   77.3850  220.9580 N   0  0  0  0  0  0  0  0  0  0  0  0
  140.1980   77.5870  220.1180 C   0  0  0  0  0  0  0  0  0  0  0  0
  141.4360   78.0920  220.6980 C   0  0  0  0  0  0  0  0  0  0  0  0
  142.5130   77.5530  220.2010 O   0  0  0  0  0  0  0  0  0  0  0  0
  141.6220   79.0490  221.6920 N   0  0  0  0  0  0  0  0  0  0  0  0
  142.6900   79.3850  222.5890 C   0  0  0  0  0  0  0  0  0  0  0  0
  141.9290   79.5380  223.9150 C   0  0  0  0  0  0  0  0  0  0  0  0
  140.7750   80.3800  223.4710 C   0  0  0  0  0  0  0  0  0  0  0  0
  140.5670   80.0420  222.0400 C   0  0  1  0  0  0  0  0  0  0  0  0
  140.7500   81.2310  221.1790 C   0  0  0  0  0  0  0  0  0  0  0  0
  141.4070   81.2070  220.0110 N   0  0  0  0  0  0  0  0  0  0  0  0
  141.5420   82.3300  219.2670 C   0  0  0  0  0  0  0  0  0  0  0  0
  141.0070   83.5210  219.6920 C   0  0  0  0  0  0  0  0  0  0  0  0
  140.3290   83.5480  220.8940 C   0  0  0  0  0  0  0  0  0  0  0  0
  140.2340   82.3910  221.5830 N   0  0  0  0  0  0  0  0  0  0  0  0
  138.9740   76.1840  221.7620 C   0  0  0  0  0  0  0  0  0  0  0  0
  138.5340   76.3040  222.9310 O   0  0  0  0  0  0  0  0  0  0  0  0
  139.3800   74.8950  221.2030 C   0  0  0  0  0  0  0  0  0  0  0  0
  139.4760   73.9380  222.2970 N   0  0  0  0  0  0  0  0  0  0  0  0
  139.7060   72.5800  221.9840 C   0  0  0  0  0  0  0  0  0  0  0  0
  139.8250   72.1950  220.7900 O   0  0  0  0  0  0  0  0  0  0  0  0
  139.8090   71.5810  223.0550 C   0  0  0  0  0  0  0  0  0  0  0  0
  139.4130   70.2930  222.8640 C   0  0  0  0  0  0  0  0  0  0  0  0
  139.5270   69.3760  223.9010 C   0  0  0  0  0  0  0  0  0  0  0  0
  140.0420   69.7670  225.1270 C   0  0  0  0  0  0  0  0  0  0  0  0
  140.1610   68.8590  226.1770 C   0  0  0  0  0  0  0  0  0  0  0  0
  140.6840   69.3290  227.3650 C   0  0  0  0  0  0  0  0  0  0  0  0
  140.8590   68.2420  228.7140 Cl  0  0  0  0  0  0  0  0  0  0  0  0
  141.0680   70.6400  227.5040 C   0  0  0  0  0  0  0  0  0  0  0  0
  140.9460   71.5240  226.4660 C   0  0  0  0  0  0  0  0  0  0  0  0
  140.4270   71.0810  225.2690 C   0  0  0  0  0  0  0  0  0  0  0  0
  140.3040   71.9370  224.2470 N   0  0  0  0  0  0  0  0  0  0  0  0
  137.7562   78.5838  222.0935 H   0  0  0  0  0  0  0  0  0  0  0  0
  138.2991   79.3043  220.5402 H   0  0  0  0  0  0  0  0  0  0  0  0
  137.0883   77.9773  220.5402 H   0  0  0  0  0  0  0  0  0  0  0  0
  140.4322   76.6167  219.6558 H   0  0  0  0  0  0  0  0  0  0  0  0
  139.8787   78.3932  219.4412 H   0  0  0  0  0  0  0  0  0  0  0  0
  143.4383   78.5806  222.6441 H   0  0  0  0  0  0  0  0  0  0  0  0
  143.2650   80.2749  222.2932 H   0  0  0  0  0  0  0  0  0  0  0  0
  141.5954   78.5656  224.3064 H   0  0  0  0  0  0  0  0  0  0  0  0
  142.5210   79.9679  224.7365 H   0  0  0  0  0  0  0  0  0  0  0  0
  139.8758   80.1405  224.0575 H   0  0  0  0  0  0  0  0  0  0  0  0
  140.9730   81.4527  223.6131 H   0  0  0  0  0  0  0  0  0  0  0  0
  139.5475   79.6592  221.8847 H   0  0  0  0  0  0  0  0  0  0  0  0
  142.0861   82.2879  218.3119 H   0  0  0  0  0  0  0  0  0  0  0  0
  141.1163   84.4337  219.0878 H   0  0  0  0  0  0  0  0  0  0  0  0
  139.8826   84.4778  221.2763 H   0  0  0  0  0  0  0  0  0  0  0  0
  138.6319   74.5529  220.4728 H   0  0  0  0  0  0  0  0  0  0  0  0
  140.3498   74.9892  220.6926 H   0  0  0  0  0  0  0  0  0  0  0  0
  139.3810   74.2270  223.3030 H   0  0  0  0  0  0  0  0  0  0  0  0
  139.0042   69.9794  221.8921 H   0  0  0  0  0  0  0  0  0  0  0  0
  139.2071   68.3346  223.7486 H   0  0  0  0  0  0  0  0  0  0  0  0
  139.8507   67.8098  226.0639 H   0  0  0  0  0  0  0  0  0  0  0  0
  141.4798   70.9850  228.4639 H   0  0  0  0  0  0  0  0  0  0  0  0
  141.2576   72.5721  226.5857 H   0  0  0  0  0  0  0  0  0  0  0  0
  1  2  1  0
  2  3  1  0
  3  4  1  0
  4  5  2  0
  4  6  1  0
  6  7  1  0
  7  8  1  0
  8  9  1  0
  9 10  1  0
 10 11  1  0
 11 12  2  0
 12 13  1  0
 13 14  2  0
 14 15  1  0
 15 16  2  0
  2 17  1  0
 17 18  2  0
 17 19  1  0
 19 20  1  0
 20 21  1  0
 21 22  2  0
 21 23  1  0
 23 24  2  0
 24 25  1  0
 25 26  2  0
 26 27  1  0
 27 28  2  0
 28 29  1  0
 28 30  1  0
 30 31  2  0
 31 32  1  0
 32 33  2  0
 10  6  1  0
 16 11  1  0
 33 23  1  0
 32 26  1  0
  1 34  1  0
  1 35  1  0
  1 36  1  0
  3 37  1  0
  3 38  1  0
  7 39  1  0
  7 40  1  0
  8 41  1  0
  8 42  1  0
  9 43  1  0
  9 44  1  0
 10 45  1  1
 13 46  1  0
 14 47  1  0
 15 48  1  0
 19 49  1  0
 19 50  1  0
 20 51  1  0
 24 52  1  0
 25 53  1  0
 27 54  1  0
 30 55  1  0
 31 56  1  0
M  END
>  <smiles>  (34) 
CN(CC(=O)N1CCC[C@H]1c1ncccn1)C(=O)CNC(=O)c1ccc2cc(Cl)ccc2n1

>  <score_type>  (34) 
oracle

>  <origin>  (34) 
autodockgpu

>  <m_score__min__energy>  (34) 
-8.5

>  <m_primary>  (34) 
energy

>  <rmsd>  (34) 
2.509380165186954

>  <m_score__min__rmsd>  (34) 
2.509380165186954

>  <meeko>  (34) 
{"free_energy": -7.6, "intermolecular_energy": -9.99, "internal_energy": -2.63, "cluster_size": 15, "cluster_id": 2, "rank_in_cluster": 14}

>  <energy>  (34) 
-6.34

>  <cluster_rmsd>  (34) 
0.0

>  <cluster>  (34) 
6

$$$$

     RDKit          3D

 56 59  0  0  0  0  0  0  0  0999 V2000
  139.5420   70.9140  223.3780 C   0  0  0  0  0  0  0  0  0  0  0  0
  139.0110   71.7820  222.3160 N   0  0  0  0  0  0  0  0  0  0  0  0
  139.8030   72.1540  221.1970 C   0  0  0  0  0  0  0  0  0  0  0  0
  140.6450   73.3400  221.2850 C   0  0  0  0  0  0  0  0  0  0  0  0
  140.4150   74.0770  222.3360 O   0  0  0  0  0  0  0  0  0  0  0  0
  141.6390   73.7880  220.4180 N   0  0  0  0  0  0  0  0  0  0  0  0
  142.1650   73.3410  219.1610 C   0  0  0  0  0  0  0  0  0  0  0  0
  143.6770   73.4350  219.4180 C   0  0  0  0  0  0  0  0  0  0  0  0
  143.7630   74.7910  220.0440 C   0  0  0  0  0  0  0  0  0  0  0  0
  142.4510   75.0020  220.7090 C   0  0  1  0  0  0  0  0  0  0  0  0
  141.7490   76.1740  220.1410 C   0  0  0  0  0  0  0  0  0  0  0  0
  140.5120   76.1200  219.6280 N   0  0  0  0  0  0  0  0  0  0  0  0
  139.9210   77.2280  219.1210 C   0  0  0  0  0  0  0  0  0  0  0  0
  140.5770   78.4340  219.1220 C   0  0  0  0  0  0  0  0  0  0  0  0
  141.8510   78.4930  219.6500 C   0  0  0  0  0  0  0  0  0  0  0  0
  142.3770   77.3490  220.1370 N   0  0  0  0  0  0  0  0  0  0  0  0
  137.6460   72.2550  222.4230 C   0  0  0  0  0  0  0  0  0  0  0  0
  136.8870   71.6560  223.2230 O   0  0  0  0  0  0  0  0  0  0  0  0
  137.2010   73.3920  221.6190 C   0  0  0  0  0  0  0  0  0  0  0  0
  137.9190   74.5760  222.0710 N   0  0  0  0  0  0  0  0  0  0  0  0
  137.4800   75.8410  221.6220 C   0  0  0  0  0  0  0  0  0  0  0  0
  136.4920   75.9530  220.8480 O   0  0  0  0  0  0  0  0  0  0  0  0
  138.1750   77.0610  222.0520 C   0  0  0  0  0  0  0  0  0  0  0  0
  137.5480   78.2680  222.0610 C   0  0  0  0  0  0  0  0  0  0  0  0
  138.2380   79.4000  222.4760 C   0  0  0  0  0  0  0  0  0  0  0  0
  139.5600   79.3040  222.8790 C   0  0  0  0  0  0  0  0  0  0  0  0
  140.2660   80.4310  223.2960 C   0  0  0  0  0  0  0  0  0  0  0  0
  141.5790   80.2490  223.6820 C   0  0  0  0  0  0  0  0  0  0  0  0
  142.5130   81.6190  224.2150 Cl  0  0  0  0  0  0  0  0  0  0  0  0
  142.1640   79.0070  223.6540 C   0  0  0  0  0  0  0  0  0  0  0  0
  141.4610   77.9070  223.2420 C   0  0  0  0  0  0  0  0  0  0  0  0
  140.1490   78.0600  222.8510 C   0  0  0  0  0  0  0  0  0  0  0  0
  139.4520   76.9910  222.4470 N   0  0  0  0  0  0  0  0  0  0  0  0
  139.2836   71.3364  224.3602 H   0  0  0  0  0  0  0  0  0  0  0  0
  139.1036   69.9095  223.2840 H   0  0  0  0  0  0  0  0  0  0  0  0
  140.6359   70.8469  223.2840 H   0  0  0  0  0  0  0  0  0  0  0  0
  140.4662   71.3047  220.9760 H   0  0  0  0  0  0  0  0  0  0  0  0
  139.0620   72.4157  220.4273 H   0  0  0  0  0  0  0  0  0  0  0  0
  141.8574   72.3083  218.9399 H   0  0  0  0  0  0  0  0  0  0  0  0
  141.8179   73.9229  218.2944 H   0  0  0  0  0  0  0  0  0  0  0  0
  144.0220   72.6480  220.1047 H   0  0  0  0  0  0  0  0  0  0  0  0
  144.3033   73.3024  218.5235 H   0  0  0  0  0  0  0  0  0  0  0  0
  144.5782   74.8234  220.7819 H   0  0  0  0  0  0  0  0  0  0  0  0
  143.9750   75.5727  219.2997 H   0  0  0  0  0  0  0  0  0  0  0  0
  142.5945   75.1751  221.7858 H   0  0  0  0  0  0  0  0  0  0  0  0
  138.9052   77.1610  218.7042 H   0  0  0  0  0  0  0  0  0  0  0  0
  140.0974   79.3344  218.7106 H   0  0  0  0  0  0  0  0  0  0  0  0
  142.4162   79.4364  219.6731 H   0  0  0  0  0  0  0  0  0  0  0  0
  137.4201   73.2060  220.5572 H   0  0  0  0  0  0  0  0  0  0  0  0
  136.1167   73.5377  221.7332 H   0  0  0  0  0  0  0  0  0  0  0  0
  138.7470   74.5150  222.7160 H   0  0  0  0  0  0  0  0  0  0  0  0
  136.4986   78.3474  221.7409 H   0  0  0  0  0  0  0  0  0  0  0  0
  137.7325   80.3769  222.4847 H   0  0  0  0  0  0  0  0  0  0  0  0
  139.7961   81.4253  223.3167 H   0  0  0  0  0  0  0  0  0  0  0  0
  143.2125   78.8944  223.9671 H   0  0  0  0  0  0  0  0  0  0  0  0
  141.9368   76.9154  223.2234 H   0  0  0  0  0  0  0  0  0  0  0  0
  1  2  1  0
  2  3  1  0
  3  4  1  0
  4  5  2  0
  4  6  1  0
  6  7  1  0
  7  8  1  0
  8  9  1  0
  9 10  1  0
 10 11  1  0
 11 12  2  0
 12 13  1  0
 13 14  2  0
 14 15  1  0
 15 16  2  0
  2 17  1  0
 17 18  2  0
 17 19  1  0
 19 20  1  0
 20 21  1  0
 21 22  2  0
 21 23  1  0
 23 24  2  0
 24 25  1  0
 25 26  2  0
 26 27  1  0
 27 28  2  0
 28 29  1  0
 28 30  1  0
 30 31  2  0
 31 32  1  0
 32 33  2  0
 10  6  1  0
 16 11  1  0
 33 23  1  0
 32 26  1  0
  1 34  1  0
  1 35  1  0
  1 36  1  0
  3 37  1  0
  3 38  1  0
  7 39  1  0
  7 40  1  0
  8 41  1  0
  8 42  1  0
  9 43  1  0
  9 44  1  0
 10 45  1  1
 13 46  1  0
 14 47  1  0
 15 48  1  0
 19 49  1  0
 19 50  1  0
 20 51  1  0
 24 52  1  0
 25 53  1  0
 27 54  1  0
 30 55  1  0
 31 56  1  0
M  END
>  <smiles>  (35) 
CN(CC(=O)N1CCC[C@H]1c1ncccn1)C(=O)CNC(=O)c1ccc2cc(Cl)ccc2n1

>  <score_type>  (35) 
oracle

>  <origin>  (35) 
autodockgpu

>  <m_score__min__energy>  (35) 
-8.5

>  <m_primary>  (35) 
energy

>  <rmsd>  (35) 
7.510742292261356

>  <m_score__min__rmsd>  (35) 
7.510742292261356

>  <meeko>  (35) 
{"free_energy": -5.98, "intermolecular_energy": -8.36, "internal_energy": -4.38, "cluster_size": 4, "cluster_id": 8, "rank_in_cluster": 1}

>  <energy>  (35) 
-6.28

>  <cluster_rmsd>  (35) 
0.0

>  <cluster>  (35) 
7

$$$$

     RDKit          3D

 56 59  0  0  0  0  0  0  0  0999 V2000
  135.4680   76.9850  219.9710 C   0  0  0  0  0  0  0  0  0  0  0  0
  136.4420   76.4780  220.9490 N   0  0  0  0  0  0  0  0  0  0  0  0
  137.4310   77.3240  221.5190 C   0  0  0  0  0  0  0  0  0  0  0  0
  138.5770   76.7270  222.1920 C   0  0  0  0  0  0  0  0  0  0  0  0
  138.2580   75.9200  223.1650 O   0  0  0  0  0  0  0  0  0  0  0  0
  139.9370   76.8960  221.9460 N   0  0  0  0  0  0  0  0  0  0  0  0
  141.0260   77.5100  222.6500 C   0  0  0  0  0  0  0  0  0  0  0  0
  141.6940   78.3140  221.5230 C   0  0  0  0  0  0  0  0  0  0  0  0
  141.7370   77.2820  220.4410 C   0  0  0  0  0  0  0  0  0  0  0  0
  140.5850   76.3830  220.7070 C   0  0  1  0  0  0  0  0  0  0  0  0
  141.0380   74.9970  220.9620 C   0  0  0  0  0  0  0  0  0  0  0  0
  142.0150   74.3970  220.2680 N   0  0  0  0  0  0  0  0  0  0  0  0
  142.3860   73.1260  220.5470 C   0  0  0  0  0  0  0  0  0  0  0  0
  141.7680   72.4210  221.5510 C   0  0  0  0  0  0  0  0  0  0  0  0
  140.7620   73.0370  222.2680 C   0  0  0  0  0  0  0  0  0  0  0  0
  140.4450   74.3060  221.9340 N   0  0  0  0  0  0  0  0  0  0  0  0
  136.3760   75.0830  221.3340 C   0  0  0  0  0  0  0  0  0  0  0  0
  135.4370   74.7350  222.0910 O   0  0  0  0  0  0  0  0  0  0  0  0
  137.3800   74.1410  220.8420 C   0  0  0  0  0  0  0  0  0  0  0  0
  137.8530   73.3530  221.9730 N   0  0  0  0  0  0  0  0  0  0  0  0
  137.4640   71.9980  222.0570 C   0  0  0  0  0  0  0  0  0  0  0  0
  136.7250   71.4730  221.1810 O   0  0  0  0  0  0  0  0  0  0  0  0
  137.9170   71.1660  223.1800 C   0  0  0  0  0  0  0  0  0  0  0  0
  137.2750   70.0140  223.5130 C   0  0  0  0  0  0  0  0  0  0  0  0
  137.7340   69.2530  224.5810 C   0  0  0  0  0  0  0  0  0  0  0  0
  138.8410   69.6640  225.3060 C   0  0  0  0  0  0  0  0  0  0  0  0
  139.3130   68.9120  226.3810 C   0  0  0  0  0  0  0  0  0  0  0  0
  140.4210   69.3900  227.0510 C   0  0  0  0  0  0  0  0  0  0  0  0
  141.0590   68.4940  228.4020 Cl  0  0  0  0  0  0  0  0  0  0  0  0
  141.0320   70.5600  226.6720 C   0  0  0  0  0  0  0  0  0  0  0  0
  140.5600   71.2910  225.6150 C   0  0  0  0  0  0  0  0  0  0  0  0
  139.4550   70.8360  224.9290 C   0  0  0  0  0  0  0  0  0  0  0  0
  138.9850   71.5430  223.8930 N   0  0  0  0  0  0  0  0  0  0  0  0
  134.6133   77.4299  220.5016 H   0  0  0  0  0  0  0  0  0  0  0  0
  135.9458   77.7489  219.3399 H   0  0  0  0  0  0  0  0  0  0  0  0
  135.1164   76.1555  219.3399 H   0  0  0  0  0  0  0  0  0  0  0  0
  137.8266   77.9492  220.7050 H   0  0  0  0  0  0  0  0  0  0  0  0
  136.8955   77.8437  222.3271 H   0  0  0  0  0  0  0  0  0  0  0  0
  140.6661   78.1671  223.4554 H   0  0  0  0  0  0  0  0  0  0  0  0
  141.6956   76.7984  223.1552 H   0  0  0  0  0  0  0  0  0  0  0  0
  141.0879   79.1841  221.2305 H   0  0  0  0  0  0  0  0  0  0  0  0
  142.6716   78.7451  221.7846 H   0  0  0  0  0  0  0  0  0  0  0  0
  141.6355   77.7555  219.4533 H   0  0  0  0  0  0  0  0  0  0  0  0
  142.6908   76.7340  220.4362 H   0  0  0  0  0  0  0  0  0  0  0  0
  139.9066   76.3689  219.8412 H   0  0  0  0  0  0  0  0  0  0  0  0
  143.1901   72.6528  219.9643 H   0  0  0  0  0  0  0  0  0  0  0  0
  142.0684   71.3876  221.7788 H   0  0  0  0  0  0  0  0  0  0  0  0
  140.2381   72.5133  223.0812 H   0  0  0  0  0  0  0  0  0  0  0  0
  136.9315   73.4783  220.0872 H   0  0  0  0  0  0  0  0  0  0  0  0
  138.2171   74.6834  220.3783 H   0  0  0  0  0  0  0  0  0  0  0  0
  138.4700   73.7600  222.7190 H   0  0  0  0  0  0  0  0  0  0  0  0
  136.3958   69.6861  222.9390 H   0  0  0  0  0  0  0  0  0  0  0  0
  137.2167   68.3208  224.8520 H   0  0  0  0  0  0  0  0  0  0  0  0
  138.8220   67.9752  226.6831 H   0  0  0  0  0  0  0  0  0  0  0  0
  141.9136   70.9151  227.2258 H   0  0  0  0  0  0  0  0  0  0  0  0
  141.0553   72.2272  225.3180 H   0  0  0  0  0  0  0  0  0  0  0  0
  1  2  1  0
  2  3  1  0
  3  4  1  0
  4  5  2  0
  4  6  1  0
  6  7  1  0
  7  8  1  0
  8  9  1  0
  9 10  1  0
 10 11  1  0
 11 12  2  0
 12 13  1  0
 13 14  2  0
 14 15  1  0
 15 16  2  0
  2 17  1  0
 17 18  2  0
 17 19  1  0
 19 20  1  0
 20 21  1  0
 21 22  2  0
 21 23  1  0
 23 24  2  0
 24 25  1  0
 25 26  2  0
 26 27  1  0
 27 28  2  0
 28 29  1  0
 28 30  1  0
 30 31  2  0
 31 32  1  0
 32 33  2  0
 10  6  1  0
 16 11  1  0
 33 23  1  0
 32 26  1  0
  1 34  1  0
  1 35  1  0
  1 36  1  0
  3 37  1  0
  3 38  1  0
  7 39  1  0
  7 40  1  0
  8 41  1  0
  8 42  1  0
  9 43  1  0
  9 44  1  0
 10 45  1  6
 13 46  1  0
 14 47  1  0
 15 48  1  0
 19 49  1  0
 19 50  1  0
 20 51  1  0
 24 52  1  0
 25 53  1  0
 27 54  1  0
 30 55  1  0
 31 56  1  0
M  END
>  <smiles>  (36) 
CN(CC(=O)N1CCC[C@H]1c1ncccn1)C(=O)CNC(=O)c1ccc2cc(Cl)ccc2n1

>  <score_type>  (36) 
oracle

>  <origin>  (36) 
autodockgpu

>  <m_score__min__energy>  (36) 
-8.5

>  <m_primary>  (36) 
energy

>  <rmsd>  (36) 
3.0589001264614235

>  <m_score__min__rmsd>  (36) 
3.0589001264614235

>  <meeko>  (36) 
{"free_energy": -6.56, "intermolecular_energy": -8.95, "internal_energy": -3.82, "cluster_size": 4, "cluster_id": 3, "rank_in_cluster": 2}

>  <energy>  (36) 
-6.08

>  <cluster_rmsd>  (36) 
0.48

>  <cluster>  (36) 
7

$$$$

     RDKit          3D

 56 59  0  0  0  0  0  0  0  0999 V2000
  138.8870   77.3810  219.7650 C   0  0  0  0  0  0  0  0  0  0  0  0
  139.7630   76.6780  220.7160 N   0  0  0  0  0  0  0  0  0  0  0  0
  141.1470   76.9840  220.8160 C   0  0  0  0  0  0  0  0  0  0  0  0
  141.5710   78.3780  220.7880 C   0  0  0  0  0  0  0  0  0  0  0  0
  141.8390   78.8270  219.5940 O   0  0  0  0  0  0  0  0  0  0  0  0
  141.7280   79.2770  221.8400 N   0  0  0  0  0  0  0  0  0  0  0  0
  142.2820   80.5940  221.9740 C   0  0  0  0  0  0  0  0  0  0  0  0
  143.1340   80.4320  223.2420 C   0  0  0  0  0  0  0  0  0  0  0  0
  142.1630   79.7250  224.1340 C   0  0  0  0  0  0  0  0  0  0  0  0
  141.2730   78.9630  223.2220 C   0  0  1  0  0  0  0  0  0  0  0  0
  139.8670   79.4050  223.3580 C   0  0  0  0  0  0  0  0  0  0  0  0
  139.4900   80.4640  224.0870 N   0  0  0  0  0  0  0  0  0  0  0  0
  138.1870   80.8210  224.1730 C   0  0  0  0  0  0  0  0  0  0  0  0
  137.2200   80.1020  223.5140 C   0  0  0  0  0  0  0  0  0  0  0  0
  137.6050   79.0110  222.7620 C   0  0  0  0  0  0  0  0  0  0  0  0
  138.9220   78.7140  222.7220 N   0  0  0  0  0  0  0  0  0  0  0  0
  139.1850   75.6580  221.5670 C   0  0  0  0  0  0  0  0  0  0  0  0
  138.7760   76.0130  222.6990 O   0  0  0  0  0  0  0  0  0  0  0  0
  139.0940   74.2780  221.0950 C   0  0  0  0  0  0  0  0  0  0  0  0
  139.3180   73.3950  222.2320 N   0  0  0  0  0  0  0  0  0  0  0  0
  139.2880   71.9990  222.0160 C   0  0  0  0  0  0  0  0  0  0  0  0
  139.0740   71.5190  220.8700 O   0  0  0  0  0  0  0  0  0  0  0  0
  139.5080   71.0720  223.1340 C   0  0  0  0  0  0  0  0  0  0  0  0
  139.1680   69.7590  223.0420 C   0  0  0  0  0  0  0  0  0  0  0  0
  139.3910   68.9120  224.1200 C   0  0  0  0  0  0  0  0  0  0  0  0
  139.9590   69.4010  225.2860 C   0  0  0  0  0  0  0  0  0  0  0  0
  140.1880   68.5640  226.3780 C   0  0  0  0  0  0  0  0  0  0  0  0
  140.7570   69.1290  227.5010 C   0  0  0  0  0  0  0  0  0  0  0  0
  141.0700   68.1340  228.8960 Cl  0  0  0  0  0  0  0  0  0  0  0  0
  141.0810   70.4630  227.5400 C   0  0  0  0  0  0  0  0  0  0  0  0
  140.8510   71.2760  226.4630 C   0  0  0  0  0  0  0  0  0  0  0  0
  140.2840   70.7370  225.3290 C   0  0  0  0  0  0  0  0  0  0  0  0
  140.0550   71.5230  224.2690 N   0  0  0  0  0  0  0  0  0  0  0  0
  138.1461   77.9756  220.3196 H   0  0  0  0  0  0  0  0  0  0  0  0
  139.4922   78.0469  219.1323 H   0  0  0  0  0  0  0  0  0  0  0  0
  138.3679   76.6459  219.1323 H   0  0  0  0  0  0  0  0  0  0  0  0
  141.5022   76.5591  221.7664 H   0  0  0  0  0  0  0  0  0  0  0  0
  141.5753   76.5619  219.8950 H   0  0  0  0  0  0  0  0  0  0  0  0
  142.9003   80.8616  221.1044 H   0  0  0  0  0  0  0  0  0  0  0  0
  141.5311   81.3956  222.0341 H   0  0  0  0  0  0  0  0  0  0  0  0
  144.0305   79.8229  223.0539 H   0  0  0  0  0  0  0  0  0  0  0  0
  143.5311   81.3728  223.6509 H   0  0  0  0  0  0  0  0  0  0  0  0
  142.6924   79.0420  224.8146 H   0  0  0  0  0  0  0  0  0  0  0  0
  141.5983   80.4286  224.7633 H   0  0  0  0  0  0  0  0  0  0  0  0
  141.3201   77.8891  223.4554 H   0  0  0  0  0  0  0  0  0  0  0  0
  137.9001   81.6950  224.7762 H   0  0  0  0  0  0  0  0  0  0  0  0
  136.1607   80.3899  223.5842 H   0  0  0  0  0  0  0  0  0  0  0  0
  136.8668   78.4057  222.2154 H   0  0  0  0  0  0  0  0  0  0  0  0
  138.0958   74.0940  220.6710 H   0  0  0  0  0  0  0  0  0  0  0  0
  139.8460   74.0920  220.3141 H   0  0  0  0  0  0  0  0  0  0  0  0
  139.4990   73.7640  223.1990 H   0  0  0  0  0  0  0  0  0  0  0  0
  138.7179   69.3688  222.1173 H   0  0  0  0  0  0  0  0  0  0  0  0
  139.1159   67.8494  224.0481 H   0  0  0  0  0  0  0  0  0  0  0  0
  139.9255   67.4963  226.3453 H   0  0  0  0  0  0  0  0  0  0  0  0
  141.5321   70.8845  228.4504 H   0  0  0  0  0  0  0  0  0  0  0  0
  141.1148   72.3432  226.5024 H   0  0  0  0  0  0  0  0  0  0  0  0
  1  2  1  0
  2  3  1  0
  3  4  1  0
  4  5  2  0
  4  6  1  0
  6  7  1  0
  7  8  1  0
  8  9  1  0
  9 10  1  0
 10 11  1  0
 11 12  2  0
 12 13  1  0
 13 14  2  0
 14 15  1  0
 15 16  2  0
  2 17  1  0
 17 18  2  0
 17 19  1  0
 19 20  1  0
 20 21  1  0
 21 22  2  0
 21 23  1  0
 23 24  2  0
 24 25  1  0
 25 26  2  0
 26 27  1  0
 27 28  2  0
 28 29  1  0
 28 30  1  0
 30 31  2  0
 31 32  1  0
 32 33  2  0
 10  6  1  0
 16 11  1  0
 33 23  1  0
 32 26  1  0
  1 34  1  0
  1 35  1  0
  1 36  1  0
  3 37  1  0
  3 38  1  0
  7 39  1  0
  7 40  1  0
  8 41  1  0
  8 42  1  0
  9 43  1  0
  9 44  1  0
 10 45  1  1
 13 46  1  0
 14 47  1  0
 15 48  1  0
 19 49  1  0
 19 50  1  0
 20 51  1  0
 24 52  1  0
 25 53  1  0
 27 54  1  0
 30 55  1  0
 31 56  1  0
M  END
>  <smiles>  (37) 
CN(CC(=O)N1CCC[C@H]1c1ncccn1)C(=O)CNC(=O)c1ccc2cc(Cl)ccc2n1

>  <score_type>  (37) 
oracle

>  <origin>  (37) 
autodockgpu

>  <m_score__min__energy>  (37) 
-8.5

>  <m_primary>  (37) 
energy

>  <rmsd>  (37) 
1.9232715161271745

>  <m_score__min__rmsd>  (37) 
1.9232715161271745

>  <meeko>  (37) 
{"free_energy": -8.14, "intermolecular_energy": -10.52, "internal_energy": -2.58, "cluster_size": 12, "cluster_id": 1, "rank_in_cluster": 5}

>  <energy>  (37) 
-5.48

>  <cluster_rmsd>  (37) 
1.37

>  <cluster>  (37) 
7

$$$$

     RDKit          3D

 56 59  0  0  0  0  0  0  0  0999 V2000
  136.5760   75.4900  222.8680 C   0  0  0  0  0  0  0  0  0  0  0  0
  137.6810   75.5010  221.8980 N   0  0  0  0  0  0  0  0  0  0  0  0
  138.8550   76.2710  222.1200 C   0  0  0  0  0  0  0  0  0  0  0  0
  140.1450   75.7370  221.7010 C   0  0  0  0  0  0  0  0  0  0  0  0
  140.4300   74.5740  222.2150 O   0  0  0  0  0  0  0  0  0  0  0  0
  141.0960   76.2880  220.8470 N   0  0  0  0  0  0  0  0  0  0  0  0
  141.8170   77.5280  220.7950 C   0  0  0  0  0  0  0  0  0  0  0  0
  141.6580   77.9050  219.3140 C   0  0  0  0  0  0  0  0  0  0  0  0
  141.9870   76.5990  218.6640 C   0  0  0  0  0  0  0  0  0  0  0  0
  141.6000   75.5580  219.6500 C   0  0  1  0  0  0  0  0  0  0  0  0
  142.7710   74.7510  220.0600 C   0  0  0  0  0  0  0  0  0  0  0  0
  144.0230   75.2260  220.0940 N   0  0  0  0  0  0  0  0  0  0  0  0
  145.0560   74.4380  220.4790 C   0  0  0  0  0  0  0  0  0  0  0  0
  144.8410   73.1320  220.8430 C   0  0  0  0  0  0  0  0  0  0  0  0
  143.5520   72.6400  220.8090 C   0  0  0  0  0  0  0  0  0  0  0  0
  142.5720   73.4830  220.4160 N   0  0  0  0  0  0  0  0  0  0  0  0
  137.5580   74.7020  220.6960 C   0  0  0  0  0  0  0  0  0  0  0  0
  137.3870   75.3100  219.6120 O   0  0  0  0  0  0  0  0  0  0  0  0
  137.6370   73.2440  220.7770 C   0  0  0  0  0  0  0  0  0  0  0  0
  138.3060   72.8950  222.0240 N   0  0  0  0  0  0  0  0  0  0  0  0
  138.6420   71.5420  222.2500 C   0  0  0  0  0  0  0  0  0  0  0  0
  138.3750   70.6510  221.4000 O   0  0  0  0  0  0  0  0  0  0  0  0
  139.3160   71.1450  223.4930 C   0  0  0  0  0  0  0  0  0  0  0  0
  140.3070   71.9030  224.0350 C   0  0  0  0  0  0  0  0  0  0  0  0
  140.9210   71.4960  225.2130 C   0  0  0  0  0  0  0  0  0  0  0  0
  140.5270   70.3220  225.8360 C   0  0  0  0  0  0  0  0  0  0  0  0
  141.1350   69.8990  227.0170 C   0  0  0  0  0  0  0  0  0  0  0  0
  140.6840   68.7190  227.5730 C   0  0  0  0  0  0  0  0  0  0  0  0
  141.4030   68.1390  229.0500 Cl  0  0  0  0  0  0  0  0  0  0  0  0
  139.6800   67.9920  226.9840 C   0  0  0  0  0  0  0  0  0  0  0  0
  139.0910   68.4160  225.8230 C   0  0  0  0  0  0  0  0  0  0  0  0
  139.5210   69.5910  225.2470 C   0  0  0  0  0  0  0  0  0  0  0  0
  138.9510   70.0160  224.1110 N   0  0  0  0  0  0  0  0  0  0  0  0
  136.9846   75.4941  223.8893 H   0  0  0  0  0  0  0  0  0  0  0  0
  135.9494   76.3819  222.7202 H   0  0  0  0  0  0  0  0  0  0  0  0
  135.9673   74.5857  222.7202 H   0  0  0  0  0  0  0  0  0  0  0  0
  138.7166   77.2271  221.5939 H   0  0  0  0  0  0  0  0  0  0  0  0
  138.9343   76.3173  223.2162 H   0  0  0  0  0  0  0  0  0  0  0  0
  141.3658   78.2844  221.4540 H   0  0  0  0  0  0  0  0  0  0  0  0
  142.8615   77.4570  221.1328 H   0  0  0  0  0  0  0  0  0  0  0  0
  140.6311   78.2257  219.0845 H   0  0  0  0  0  0  0  0  0  0  0  0
  142.2813   78.7501  218.9865 H   0  0  0  0  0  0  0  0  0  0  0  0
  141.4148   76.4781  217.7323 H   0  0  0  0  0  0  0  0  0  0  0  0
  143.0519   76.5326  218.3963 H   0  0  0  0  0  0  0  0  0  0  0  0
  140.8515   74.8806  219.2130 H   0  0  0  0  0  0  0  0  0  0  0  0
  146.0762   74.8487  220.5000 H   0  0  0  0  0  0  0  0  0  0  0  0
  145.6786   72.4910  221.1553 H   0  0  0  0  0  0  0  0  0  0  0  0
  143.3307   71.6001  221.0914 H   0  0  0  0  0  0  0  0  0  0  0  0
  136.6244   72.8145  220.7643 H   0  0  0  0  0  0  0  0  0  0  0  0
  138.1978   72.8447  219.9191 H   0  0  0  0  0  0  0  0  0  0  0  0
  138.5420   73.6150  222.7520 H   0  0  0  0  0  0  0  0  0  0  0  0
  140.6212   72.8350  223.5423 H   0  0  0  0  0  0  0  0  0  0  0  0
  141.7226   72.1075  225.6528 H   0  0  0  0  0  0  0  0  0  0  0  0
  141.9412   70.4818  227.4865 H   0  0  0  0  0  0  0  0  0  0  0  0
  139.3435   67.0549  227.4515 H   0  0  0  0  0  0  0  0  0  0  0  0
  138.2868   67.8274  225.3574 H   0  0  0  0  0  0  0  0  0  0  0  0
  1  2  1  0
  2  3  1  0
  3  4  1  0
  4  5  2  0
  4  6  1  0
  6  7  1  0
  7  8  1  0
  8  9  1  0
  9 10  1  0
 10 11  1  0
 11 12  2  0
 12 13  1  0
 13 14  2  0
 14 15  1  0
 15 16  2  0
  2 17  1  0
 17 18  2  0
 17 19  1  0
 19 20  1  0
 20 21  1  0
 21 22  2  0
 21 23  1  0
 23 24  2  0
 24 25  1  0
 25 26  2  0
 26 27  1  0
 27 28  2  0
 28 29  1  0
 28 30  1  0
 30 31  2  0
 31 32  1  0
 32 33  2  0
 10  6  1  0
 16 11  1  0
 33 23  1  0
 32 26  1  0
  1 34  1  0
  1 35  1  0
  1 36  1  0
  3 37  1  0
  3 38  1  0
  7 39  1  0
  7 40  1  0
  8 41  1  0
  8 42  1  0
  9 43  1  0
  9 44  1  0
 10 45  1  6
 13 46  1  0
 14 47  1  0
 15 48  1  0
 19 49  1  0
 19 50  1  0
 20 51  1  0
 24 52  1  0
 25 53  1  0
 27 54  1  0
 30 55  1  0
 31 56  1  0
M  END
>  <smiles>  (38) 
CN(CC(=O)N1CCC[C@H]1c1ncccn1)C(=O)CNC(=O)c1ccc2cc(Cl)ccc2n1

>  <score_type>  (38) 
oracle

>  <origin>  (38) 
autodockgpu

>  <m_score__min__energy>  (38) 
-8.5

>  <m_primary>  (38) 
energy

>  <rmsd>  (38) 
3.6118879443692133

>  <m_score__min__rmsd>  (38) 
3.6118879443692133

>  <meeko>  (38) 
{"free_energy": -7.84, "intermolecular_energy": -10.23, "internal_energy": -2.96, "cluster_size": 4, "cluster_id": 3, "rank_in_cluster": 1}

>  <energy>  (38) 
-5.06

>  <cluster_rmsd>  (38) 
1.92

>  <cluster>  (38) 
7

$$$$

     RDKit          3D

 56 59  0  0  0  0  0  0  0  0999 V2000
  142.5130   76.9670  219.5750 C   0  0  0  0  0  0  0  0  0  0  0  0
  141.1410   76.7790  220.0700 N   0  0  0  0  0  0  0  0  0  0  0  0
  140.0850   77.6430  219.6740 C   0  0  0  0  0  0  0  0  0  0  0  0
  139.6640   78.7100  220.5730 C   0  0  0  0  0  0  0  0  0  0  0  0
  138.4450   79.1250  220.3680 O   0  0  0  0  0  0  0  0  0  0  0  0
  140.3690   79.3350  221.5980 N   0  0  0  0  0  0  0  0  0  0  0  0
  141.4950   80.2210  221.6610 C   0  0  0  0  0  0  0  0  0  0  0  0
  142.3270   79.5690  222.7760 C   0  0  0  0  0  0  0  0  0  0  0  0
  141.2650   79.3250  223.8010 C   0  0  0  0  0  0  0  0  0  0  0  0
  140.0060   79.1520  223.0320 C   0  0  1  0  0  0  0  0  0  0  0  0
  139.0140   80.1870  223.3940 C   0  0  0  0  0  0  0  0  0  0  0  0
  138.6270   81.1660  222.5630 N   0  0  0  0  0  0  0  0  0  0  0  0
  137.7140   82.0860  222.9520 C   0  0  0  0  0  0  0  0  0  0  0  0
  137.1610   82.0370  224.2080 C   0  0  0  0  0  0  0  0  0  0  0  0
  137.5570   81.0300  225.0650 C   0  0  0  0  0  0  0  0  0  0  0  0
  138.4720   80.1470  224.6100 N   0  0  0  0  0  0  0  0  0  0  0  0
  140.8750   75.6820  220.9770 C   0  0  0  0  0  0  0  0  0  0  0  0
  141.8570   75.1620  221.5610 O   0  0  0  0  0  0  0  0  0  0  0  0
  139.5030   75.2210  221.1860 C   0  0  0  0  0  0  0  0  0  0  0  0
  139.5110   74.2500  222.2720 N   0  0  0  0  0  0  0  0  0  0  0  0
  139.8980   72.9230  221.9840 C   0  0  0  0  0  0  0  0  0  0  0  0
  140.2300   72.5760  220.8190 O   0  0  0  0  0  0  0  0  0  0  0  0
  139.9200   71.9110  223.0490 C   0  0  0  0  0  0  0  0  0  0  0  0
  139.4290   70.6590  222.8470 C   0  0  0  0  0  0  0  0  0  0  0  0
  139.4680   69.7280  223.8770 C   0  0  0  0  0  0  0  0  0  0  0  0
  140.0050   70.0720  225.1080 C   0  0  0  0  0  0  0  0  0  0  0  0
  140.0500   69.1500  226.1530 C   0  0  0  0  0  0  0  0  0  0  0  0
  140.6010   69.5710  227.3460 C   0  0  0  0  0  0  0  0  0  0  0  0
  140.6870   68.4640  228.6880 Cl  0  0  0  0  0  0  0  0  0  0  0  0
  141.0830   70.8480  227.4960 C   0  0  0  0  0  0  0  0  0  0  0  0
  141.0330   71.7450  226.4630 C   0  0  0  0  0  0  0  0  0  0  0  0
  140.4880   71.3510  225.2610 C   0  0  0  0  0  0  0  0  0  0  0  0
  140.4350   72.2210  224.2440 N   0  0  0  0  0  0  0  0  0  0  0  0
  143.2009   77.0613  220.4282 H   0  0  0  0  0  0  0  0  0  0  0  0
  142.8041   76.1004  218.9633 H   0  0  0  0  0  0  0  0  0  0  0  0
  142.5602   77.8800  218.9633 H   0  0  0  0  0  0  0  0  0  0  0  0
  140.3958   78.1198  218.7327 H   0  0  0  0  0  0  0  0  0  0  0  0
  139.2085   76.9800  219.6266 H   0  0  0  0  0  0  0  0  0  0  0  0
  142.0445   80.2426  220.7083 H   0  0  0  0  0  0  0  0  0  0  0  0
  141.2319   81.2721  221.8504 H   0  0  0  0  0  0  0  0  0  0  0  0
  142.7909   78.6298  222.4403 H   0  0  0  0  0  0  0  0  0  0  0  0
  143.1747   80.1744  223.1293 H   0  0  0  0  0  0  0  0  0  0  0  0
  141.4902   78.4171  224.3797 H   0  0  0  0  0  0  0  0  0  0  0  0
  141.1937   80.1535  224.5210 H   0  0  0  0  0  0  0  0  0  0  0  0
  139.5649   78.1663  223.2414 H   0  0  0  0  0  0  0  0  0  0  0  0
  137.4117   82.8814  222.2548 H   0  0  0  0  0  0  0  0  0  0  0  0
  136.4183   82.7842  224.5244 H   0  0  0  0  0  0  0  0  0  0  0  0
  137.1427   80.9497  226.0808 H   0  0  0  0  0  0  0  0  0  0  0  0
  138.8602   76.0729  221.4526 H   0  0  0  0  0  0  0  0  0  0  0  0
  139.1120   74.7606  220.2667 H   0  0  0  0  0  0  0  0  0  0  0  0
  139.2400   74.5080  223.2540 H   0  0  0  0  0  0  0  0  0  0  0  0
  139.0023   70.3845  221.8710 H   0  0  0  0  0  0  0  0  0  0  0  0
  139.0716   68.7147  223.7155 H   0  0  0  0  0  0  0  0  0  0  0  0
  139.6618   68.1280  226.0313 H   0  0  0  0  0  0  0  0  0  0  0  0
  141.5154   71.1546  228.4599 H   0  0  0  0  0  0  0  0  0  0  0  0
  141.4225   72.7657  226.5911 H   0  0  0  0  0  0  0  0  0  0  0  0
  1  2  1  0
  2  3  1  0
  3  4  1  0
  4  5  2  0
  4  6  1  0
  6  7  1  0
  7  8  1  0
  8  9  1  0
  9 10  1  0
 10 11  1  0
 11 12  2  0
 12 13  1  0
 13 14  2  0
 14 15  1  0
 15 16  2  0
  2 17  1  0
 17 18  2  0
 17 19  1  0
 19 20  1  0
 20 21  1  0
 21 22  2  0
 21 23  1  0
 23 24  2  0
 24 25  1  0
 25 26  2  0
 26 27  1  0
 27 28  2  0
 28 29  1  0
 28 30  1  0
 30 31  2  0
 31 32  1  0
 32 33  2  0
 10  6  1  0
 16 11  1  0
 33 23  1  0
 32 26  1  0
  1 34  1  0
  1 35  1  0
  1 36  1  0
  3 37  1  0
  3 38  1  0
  7 39  1  0
  7 40  1  0
  8 41  1  0
  8 42  1  0
  9 43  1  0
  9 44  1  0
 10 45  1  6
 13 46  1  0
 14 47  1  0
 15 48  1  0
 19 49  1  0
 19 50  1  0
 20 51  1  0
 24 52  1  0
 25 53  1  0
 27 54  1  0
 30 55  1  0
 31 56  1  0
M  END
>  <smiles>  (39) 
CN(CC(=O)N1CCC[C@H]1c1ncccn1)C(=O)CNC(=O)c1ccc2cc(Cl)ccc2n1

>  <score_type>  (39) 
oracle

>  <origin>  (39) 
autodockgpu

>  <m_score__min__energy>  (39) 
-8.5

>  <m_primary>  (39) 
energy

>  <rmsd>  (39) 
2.2142975305446417

>  <m_score__min__rmsd>  (39) 
2.2142975305446417

>  <meeko>  (39) 
{"free_energy": -7.94, "intermolecular_energy": -10.32, "internal_energy": -2.15, "cluster_size": 12, "cluster_id": 1, "rank_in_cluster": 7}

>  <energy>  (39) 
-5.98

>  <cluster_rmsd>  (39) 
0.0

>  <cluster>  (39) 
8

$$$$

     RDKit          3D

 56 59  0  0  0  0  0  0  0  0999 V2000
  142.6800   75.3120  217.4440 C   0  0  0  0  0  0  0  0  0  0  0  0
  142.7990   76.1840  218.6230 N   0  0  0  0  0  0  0  0  0  0  0  0
  142.5010   77.5710  218.5520 C   0  0  0  0  0  0  0  0  0  0  0  0
  141.2240   78.0520  219.0630 C   0  0  0  0  0  0  0  0  0  0  0  0
  140.2910   77.1430  219.0960 O   0  0  0  0  0  0  0  0  0  0  0  0
  140.8700   79.3220  219.5100 N   0  0  0  0  0  0  0  0  0  0  0  0
  139.6400   80.0510  219.6250 C   0  0  0  0  0  0  0  0  0  0  0  0
  140.0420   81.4120  219.0350 C   0  0  0  0  0  0  0  0  0  0  0  0
  141.3390   81.6420  219.7420 C   0  0  0  0  0  0  0  0  0  0  0  0
  141.8800   80.2880  220.0260 C   0  0  1  0  0  0  0  0  0  0  0  0
  142.0300   80.0680  221.4810 C   0  0  0  0  0  0  0  0  0  0  0  0
  142.0600   78.8540  222.0480 N   0  0  0  0  0  0  0  0  0  0  0  0
  142.1990   78.7150  223.3870 C   0  0  0  0  0  0  0  0  0  0  0  0
  142.3130   79.8180  224.1970 C   0  0  0  0  0  0  0  0  0  0  0  0
  142.2830   81.0700  223.6160 C   0  0  0  0  0  0  0  0  0  0  0  0
  142.1420   81.1320  222.2750 N   0  0  0  0  0  0  0  0  0  0  0  0
  143.2250   75.6000  219.8780 C   0  0  0  0  0  0  0  0  0  0  0  0
  144.4460   75.6660  220.1620 O   0  0  0  0  0  0  0  0  0  0  0  0
  142.2460   74.9660  220.7600 C   0  0  0  0  0  0  0  0  0  0  0  0
  141.2850   75.9810  221.1720 N   0  0  0  0  0  0  0  0  0  0  0  0
  140.0980   75.5620  221.8120 C   0  0  0  0  0  0  0  0  0  0  0  0
  139.8660   74.3420  222.0260 O   0  0  0  0  0  0  0  0  0  0  0  0
  139.1020   76.5500  222.2440 C   0  0  0  0  0  0  0  0  0  0  0  0
  137.7820   76.2330  222.3350 C   0  0  0  0  0  0  0  0  0  0  0  0
  136.8680   77.1950  222.7480 C   0  0  0  0  0  0  0  0  0  0  0  0
  137.2970   78.4730  223.0670 C   0  0  0  0  0  0  0  0  0  0  0  0
  136.3930   79.4500  223.4820 C   0  0  0  0  0  0  0  0  0  0  0  0
  136.9010   80.6980  223.7820 C   0  0  0  0  0  0  0  0  0  0  0  0
  135.8210   81.9590  224.3070 Cl  0  0  0  0  0  0  0  0  0  0  0  0
  138.2430   80.9640  223.6730 C   0  0  0  0  0  0  0  0  0  0  0  0
  139.1230   79.9980  223.2640 C   0  0  0  0  0  0  0  0  0  0  0  0
  138.6420   78.7440  222.9590 C   0  0  0  0  0  0  0  0  0  0  0  0
  139.4940   77.7910  222.5580 N   0  0  0  0  0  0  0  0  0  0  0  0
  142.5380   74.2712  217.7705 H   0  0  0  0  0  0  0  0  0  0  0  0
  141.8166   75.6278  216.8400 H   0  0  0  0  0  0  0  0  0  0  0  0
  143.5964   75.3850  216.8400 H   0  0  0  0  0  0  0  0  0  0  0  0
  143.2891   78.0978  219.1100 H   0  0  0  0  0  0  0  0  0  0  0  0
  142.4417   77.7703  217.4718 H   0  0  0  0  0  0  0  0  0  0  0  0
  138.8362   79.5799  219.0402 H   0  0  0  0  0  0  0  0  0  0  0  0
  139.2408   80.1034  220.6487 H   0  0  0  0  0  0  0  0  0  0  0  0
  140.1776   81.3581  217.9447 H   0  0  0  0  0  0  0  0  0  0  0  0
  139.2970   82.2096  219.1722 H   0  0  0  0  0  0  0  0  0  0  0  0
  142.0319   82.2064  219.1007 H   0  0  0  0  0  0  0  0  0  0  0  0
  141.2043   82.2296  220.6621 H   0  0  0  0  0  0  0  0  0  0  0  0
  142.8680   80.1679  219.5575 H   0  0  0  0  0  0  0  0  0  0  0  0
  142.2209   77.7087  223.8308 H   0  0  0  0  0  0  0  0  0  0  0  0
  142.4258   79.7064  225.2855 H   0  0  0  0  0  0  0  0  0  0  0  0
  142.3707   81.9830  224.2232 H   0  0  0  0  0  0  0  0  0  0  0  0
  141.7279   74.1581  220.2226 H   0  0  0  0  0  0  0  0  0  0  0  0
  142.7472   74.5358  221.6396 H   0  0  0  0  0  0  0  0  0  0  0  0
  141.4490   77.0060  221.0080 H   0  0  0  0  0  0  0  0  0  0  0  0
  137.4394   75.2187  222.0825 H   0  0  0  0  0  0  0  0  0  0  0  0
  135.8003   76.9408  222.8218 H   0  0  0  0  0  0  0  0  0  0  0  0
  135.3176   79.2348  223.5670 H   0  0  0  0  0  0  0  0  0  0  0  0
  138.6175   81.9689  223.9180 H   0  0  0  0  0  0  0  0  0  0  0  0
  140.1971   80.2200  223.1804 H   0  0  0  0  0  0  0  0  0  0  0  0
  1  2  1  0
  2  3  1  0
  3  4  1  0
  4  5  2  0
  4  6  1  0
  6  7  1  0
  7  8  1  0
  8  9  1  0
  9 10  1  0
 10 11  1  0
 11 12  2  0
 12 13  1  0
 13 14  2  0
 14 15  1  0
 15 16  2  0
  2 17  1  0
 17 18  2  0
 17 19  1  0
 19 20  1  0
 20 21  1  0
 21 22  2  0
 21 23  1  0
 23 24  2  0
 24 25  1  0
 25 26  2  0
 26 27  1  0
 27 28  2  0
 28 29  1  0
 28 30  1  0
 30 31  2  0
 31 32  1  0
 32 33  2  0
 10  6  1  0
 16 11  1  0
 33 23  1  0
 32 26  1  0
  1 34  1  0
  1 35  1  0
  1 36  1  0
  3 37  1  0
  3 38  1  0
  7 39  1  0
  7 40  1  0
  8 41  1  0
  8 42  1  0
  9 43  1  0
  9 44  1  0
 10 45  1  6
 13 46  1  0
 14 47  1  0
 15 48  1  0
 19 49  1  0
 19 50  1  0
 20 51  1  0
 24 52  1  0
 25 53  1  0
 27 54  1  0
 30 55  1  0
 31 56  1  0
M  END
>  <smiles>  (40) 
CN(CC(=O)N1CCC[C@H]1c1ncccn1)C(=O)CNC(=O)c1ccc2cc(Cl)ccc2n1

>  <score_type>  (40) 
oracle

>  <origin>  (40) 
autodockgpu

>  <m_score__min__energy>  (40) 
-8.5

>  <m_primary>  (40) 
energy

>  <rmsd>  (40) 
6.5633312632086565

>  <m_score__min__rmsd>  (40) 
6.5633312632086565

>  <meeko>  (40) 
{"free_energy": -5.83, "intermolecular_energy": -8.22, "internal_energy": -4.87, "cluster_size": 1, "cluster_id": 9, "rank_in_cluster": 1}

>  <energy>  (40) 
-5.4

>  <cluster_rmsd>  (40) 
0.76

>  <cluster>  (40) 
8

$$$$

     RDKit          3D

 56 59  0  0  0  0  0  0  0  0999 V2000
  137.7820   77.1860  219.5160 C   0  0  0  0  0  0  0  0  0  0  0  0
  138.2540   77.5210  220.8680 N   0  0  0  0  0  0  0  0  0  0  0  0
  138.3660   78.8700  221.3020 C   0  0  0  0  0  0  0  0  0  0  0  0
  139.1560   79.1730  222.4880 C   0  0  0  0  0  0  0  0  0  0  0  0
  138.4450   79.3660  223.5630 O   0  0  0  0  0  0  0  0  0  0  0  0
  140.5370   79.2840  222.6280 N   0  0  0  0  0  0  0  0  0  0  0  0
  141.5010   78.8090  223.5780 C   0  0  0  0  0  0  0  0  0  0  0  0
  142.3320   80.0790  223.8210 C   0  0  0  0  0  0  0  0  0  0  0  0
  142.5460   80.5370  222.4140 C   0  0  0  0  0  0  0  0  0  0  0  0
  141.3710   80.0400  221.6530 C   0  0  1  0  0  0  0  0  0  0  0  0
  141.7860   79.1100  220.5800 C   0  0  0  0  0  0  0  0  0  0  0  0
  141.8370   77.7790  220.7320 N   0  0  0  0  0  0  0  0  0  0  0  0
  142.2250   76.9770  219.7120 C   0  0  0  0  0  0  0  0  0  0  0  0
  142.5760   77.5120  218.4960 C   0  0  0  0  0  0  0  0  0  0  0  0
  142.5240   78.8820  218.3380 C   0  0  0  0  0  0  0  0  0  0  0  0
  142.1270   79.6180  219.3980 N   0  0  0  0  0  0  0  0  0  0  0  0
  138.6050   76.4420  221.7680 C   0  0  0  0  0  0  0  0  0  0  0  0
  138.1460   76.4890  222.9350 O   0  0  0  0  0  0  0  0  0  0  0  0
  139.4620   75.3520  221.3040 C   0  0  0  0  0  0  0  0  0  0  0  0
  139.5020   74.3330  222.3450 N   0  0  0  0  0  0  0  0  0  0  0  0
  139.8890   73.0230  221.9880 C   0  0  0  0  0  0  0  0  0  0  0  0
  140.1930   72.7310  220.8000 O   0  0  0  0  0  0  0  0  0  0  0  0
  139.9430   71.9640  223.0040 C   0  0  0  0  0  0  0  0  0  0  0  0
  139.5270   70.6980  222.7320 C   0  0  0  0  0  0  0  0  0  0  0  0
  139.5940   69.7230  223.7190 C   0  0  0  0  0  0  0  0  0  0  0  0
  140.0820   70.0360  224.9780 C   0  0  0  0  0  0  0  0  0  0  0  0
  140.1540   69.0690  225.9790 C   0  0  0  0  0  0  0  0  0  0  0  0
  140.6520   69.4620  227.2050 C   0  0  0  0  0  0  0  0  0  0  0  0
  140.7690   68.2990  228.4960 Cl  0  0  0  0  0  0  0  0  0  0  0  0
  141.0580   70.7550  227.4260 C   0  0  0  0  0  0  0  0  0  0  0  0
  140.9830   71.6970  226.4360 C   0  0  0  0  0  0  0  0  0  0  0  0
  140.4890   71.3310  225.2030 C   0  0  0  0  0  0  0  0  0  0  0  0
  140.4110   72.2440  224.2260 N   0  0  0  0  0  0  0  0  0  0  0  0
  136.8868   76.5507  219.5871 H   0  0  0  0  0  0  0  0  0  0  0  0
  137.5332   78.1108  218.9748 H   0  0  0  0  0  0  0  0  0  0  0  0
  138.5729   76.6460  218.9748 H   0  0  0  0  0  0  0  0  0  0  0  0
  138.8048   79.4398  220.4697 H   0  0  0  0  0  0  0  0  0  0  0  0
  137.3400   79.1354  221.5969 H   0  0  0  0  0  0  0  0  0  0  0  0
  141.0178   78.4605  224.5027 H   0  0  0  0  0  0  0  0  0  0  0  0
  142.0876   77.9451  223.2323 H   0  0  0  0  0  0  0  0  0  0  0  0
  141.7749   80.8225  224.4099 H   0  0  0  0  0  0  0  0  0  0  0  0
  143.2555   79.9197  224.3970 H   0  0  0  0  0  0  0  0  0  0  0  0
  142.5961   81.6350  222.3703 H   0  0  0  0  0  0  0  0  0  0  0  0
  143.4915   80.1568  221.9999 H   0  0  0  0  0  0  0  0  0  0  0  0
  140.8344   80.8811  221.1897 H   0  0  0  0  0  0  0  0  0  0  0  0
  142.2595   75.8873  219.8583 H   0  0  0  0  0  0  0  0  0  0  0  0
  142.8916   76.8623  217.6664 H   0  0  0  0  0  0  0  0  0  0  0  0
  142.7959   79.3568  217.3837 H   0  0  0  0  0  0  0  0  0  0  0  0
  139.0513   74.9231  220.3780 H   0  0  0  0  0  0  0  0  0  0  0  0
  140.4757   75.7258  221.0974 H   0  0  0  0  0  0  0  0  0  0  0  0
  139.2550   74.5440  223.3440 H   0  0  0  0  0  0  0  0  0  0  0  0
  139.1388   70.4471  221.7338 H   0  0  0  0  0  0  0  0  0  0  0  0
  139.2585   68.6984  223.5006 H   0  0  0  0  0  0  0  0  0  0  0  0
  139.8271   68.0342  225.7993 H   0  0  0  0  0  0  0  0  0  0  0  0
  141.4496   71.0381  228.4142 H   0  0  0  0  0  0  0  0  0  0  0  0
  141.3120   72.7301  226.6218 H   0  0  0  0  0  0  0  0  0  0  0  0
  1  2  1  0
  2  3  1  0
  3  4  1  0
  4  5  2  0
  4  6  1  0
  6  7  1  0
  7  8  1  0
  8  9  1  0
  9 10  1  0
 10 11  1  0
 11 12  2  0
 12 13  1  0
 13 14  2  0
 14 15  1  0
 15 16  2  0
  2 17  1  0
 17 18  2  0
 17 19  1  0
 19 20  1  0
 20 21  1  0
 21 22  2  0
 21 23  1  0
 23 24  2  0
 24 25  1  0
 25 26  2  0
 26 27  1  0
 27 28  2  0
 28 29  1  0
 28 30  1  0
 30 31  2  0
 31 32  1  0
 32 33  2  0
 10  6  1  0
 16 11  1  0
 33 23  1  0
 32 26  1  0
  1 34  1  0
  1 35  1  0
  1 36  1  0
  3 37  1  0
  3 38  1  0
  7 39  1  0
  7 40  1  0
  8 41  1  0
  8 42  1  0
  9 43  1  0
  9 44  1  0
 10 45  1  6
 13 46  1  0
 14 47  1  0
 15 48  1  0
 19 49  1  0
 19 50  1  0
 20 51  1  0
 24 52  1  0
 25 53  1  0
 27 54  1  0
 30 55  1  0
 31 56  1  0
M  END
>  <smiles>  (41) 
CN(CC(=O)N1CCC[C@H]1c1ncccn1)C(=O)CNC(=O)c1ccc2cc(Cl)ccc2n1

>  <score_type>  (41) 
oracle

>  <origin>  (41) 
autodockgpu

>  <m_score__min__energy>  (41) 
-8.5

>  <m_primary>  (41) 
energy

>  <rmsd>  (41) 
2.654216671530646

>  <m_score__min__rmsd>  (41) 
2.654216671530646

>  <meeko>  (41) 
{"free_energy": -8.2, "intermolecular_energy": -10.58, "internal_energy": -2.82, "cluster_size": 15, "cluster_id": 2, "rank_in_cluster": 3}

>  <energy>  (41) 
-5.28

>  <cluster_rmsd>  (41) 
1.48

>  <cluster>  (41) 
8

$$$$

     RDKit          3D

 56 59  0  0  0  0  0  0  0  0999 V2000
  143.5920   75.2760  217.8010 C   0  0  0  0  0  0  0  0  0  0  0  0
  143.0990   75.7690  219.0970 N   0  0  0  0  0  0  0  0  0  0  0  0
  142.9290   77.1580  219.3450 C   0  0  0  0  0  0  0  0  0  0  0  0
  141.6750   77.6290  219.9200 C   0  0  0  0  0  0  0  0  0  0  0  0
  140.6200   77.3020  219.2280 O   0  0  0  0  0  0  0  0  0  0  0  0
  141.4540   78.3650  221.0810 N   0  0  0  0  0  0  0  0  0  0  0  0
  141.4310   79.7620  221.4070 C   0  0  0  0  0  0  0  0  0  0  0  0
  142.2720   79.7820  222.6940 C   0  0  0  0  0  0  0  0  0  0  0  0
  141.6620   78.6350  223.4340 C   0  0  0  0  0  0  0  0  0  0  0  0
  141.1570   77.7120  222.3860 C   0  0  1  0  0  0  0  0  0  0  0  0
  139.6910   77.5360  222.4920 C   0  0  0  0  0  0  0  0  0  0  0  0
  138.8310   78.5550  222.6320 N   0  0  0  0  0  0  0  0  0  0  0  0
  137.4990   78.3310  222.7250 C   0  0  0  0  0  0  0  0  0  0  0  0
  136.9980   77.0530  222.6760 C   0  0  0  0  0  0  0  0  0  0  0  0
  137.8820   76.0030  222.5310 C   0  0  0  0  0  0  0  0  0  0  0  0
  139.1960   76.3010  222.4460 N   0  0  0  0  0  0  0  0  0  0  0  0
  142.7810   74.8060  220.1300 C   0  0  0  0  0  0  0  0  0  0  0  0
  143.7310   74.3610  220.8200 O   0  0  0  0  0  0  0  0  0  0  0  0
  141.3950   74.3890  220.3390 C   0  0  0  0  0  0  0  0  0  0  0  0
  141.3780   73.3940  221.4040 N   0  0  0  0  0  0  0  0  0  0  0  0
  140.1270   72.9570  221.8950 C   0  0  0  0  0  0  0  0  0  0  0  0
  139.0470   73.4100  221.4300 O   0  0  0  0  0  0  0  0  0  0  0  0
  140.0630   71.9560  222.9680 C   0  0  0  0  0  0  0  0  0  0  0  0
  139.4980   70.7350  222.7650 C   0  0  0  0  0  0  0  0  0  0  0  0
  139.4560   69.8140  223.8030 C   0  0  0  0  0  0  0  0  0  0  0  0
  139.9850   70.1340  225.0430 C   0  0  0  0  0  0  0  0  0  0  0  0
  139.9490   69.2210  226.0960 C   0  0  0  0  0  0  0  0  0  0  0  0
  140.4990   69.6180  227.2980 C   0  0  0  0  0  0  0  0  0  0  0  0
  140.4850   68.5210  228.6510 Cl  0  0  0  0  0  0  0  0  0  0  0  0
  141.0560   70.8640  227.4490 C   0  0  0  0  0  0  0  0  0  0  0  0
  141.0860   71.7530  226.4080 C   0  0  0  0  0  0  0  0  0  0  0  0
  140.5440   71.3820  225.1970 C   0  0  0  0  0  0  0  0  0  0  0  0
  140.5690   72.2440  224.1730 N   0  0  0  0  0  0  0  0  0  0  0  0
  144.3606   74.5074  217.9694 H   0  0  0  0  0  0  0  0  0  0  0  0
  142.7568   74.8410  217.2324 H   0  0  0  0  0  0  0  0  0  0  0  0
  144.0270   76.1112  217.2324 H   0  0  0  0  0  0  0  0  0  0  0  0
  143.7322   77.4625  220.0321 H   0  0  0  0  0  0  0  0  0  0  0  0
  142.9414   77.6067  218.3408 H   0  0  0  0  0  0  0  0  0  0  0  0
  141.8929   80.3687  220.6141 H   0  0  0  0  0  0  0  0  0  0  0  0
  140.4210   80.1825  221.5210 H   0  0  0  0  0  0  0  0  0  0  0  0
  143.3383   79.6100  222.4854 H   0  0  0  0  0  0  0  0  0  0  0  0
  142.2573   80.7385  223.2371 H   0  0  0  0  0  0  0  0  0  0  0  0
  142.4175   78.1335  224.0567 H   0  0  0  0  0  0  0  0  0  0  0  0
  140.8589   78.9651  224.1093 H   0  0  0  0  0  0  0  0  0  0  0  0
  141.6301   76.7244  222.4899 H   0  0  0  0  0  0  0  0  0  0  0  0
  136.8109   79.1813  222.8410 H   0  0  0  0  0  0  0  0  0  0  0  0
  135.9158   76.8703  222.7507 H   0  0  0  0  0  0  0  0  0  0  0  0
  137.5290   74.9621  222.4864 H   0  0  0  0  0  0  0  0  0  0  0  0
  140.7842   75.2566  220.6293 H   0  0  0  0  0  0  0  0  0  0  0  0
  140.9809   73.9636  219.4130 H   0  0  0  0  0  0  0  0  0  0  0  0
  142.2600   72.9970  221.8130 H   0  0  0  0  0  0  0  0  0  0  0  0
  139.0760   70.4785  221.7821 H   0  0  0  0  0  0  0  0  0  0  0  0
  139.0008   68.8259  223.6403 H   0  0  0  0  0  0  0  0  0  0  0  0
  139.5002   68.2242  225.9737 H   0  0  0  0  0  0  0  0  0  0  0  0
  141.4843   71.1521  228.4204 H   0  0  0  0  0  0  0  0  0  0  0  0
  141.5361   72.7484  226.5367 H   0  0  0  0  0  0  0  0  0  0  0  0
  1  2  1  0
  2  3  1  0
  3  4  1  0
  4  5  2  0
  4  6  1  0
  6  7  1  0
  7  8  1  0
  8  9  1  0
  9 10  1  0
 10 11  1  0
 11 12  2  0
 12 13  1  0
 13 14  2  0
 14 15  1  0
 15 16  2  0
  2 17  1  0
 17 18  2  0
 17 19  1  0
 19 20  1  0
 20 21  1  0
 21 22  2  0
 21 23  1  0
 23 24  2  0
 24 25  1  0
 25 26  2  0
 26 27  1  0
 27 28  2  0
 28 29  1  0
 28 30  1  0
 30 31  2  0
 31 32  1  0
 32 33  2  0
 10  6  1  0
 16 11  1  0
 33 23  1  0
 32 26  1  0
  1 34  1  0
  1 35  1  0
  1 36  1  0
  3 37  1  0
  3 38  1  0
  7 39  1  0
  7 40  1  0
  8 41  1  0
  8 42  1  0
  9 43  1  0
  9 44  1  0
 10 45  1  6
 13 46  1  0
 14 47  1  0
 15 48  1  0
 19 49  1  0
 19 50  1  0
 20 51  1  0
 24 52  1  0
 25 53  1  0
 27 54  1  0
 30 55  1  0
 31 56  1  0
M  END
>  <smiles>  (42) 
CN(CC(=O)N1CCC[C@H]1c1ncccn1)C(=O)CNC(=O)c1ccc2cc(Cl)ccc2n1

>  <score_type>  (42) 
oracle

>  <origin>  (42) 
autodockgpu

>  <m_score__min__energy>  (42) 
-8.5

>  <m_primary>  (42) 
energy

>  <rmsd>  (42) 
2.606497714462998

>  <m_score__min__rmsd>  (42) 
2.606497714462998

>  <meeko>  (42) 
{"free_energy": -7.6, "intermolecular_energy": -9.98, "internal_energy": -2.9, "cluster_size": 12, "cluster_id": 1, "rank_in_cluster": 10}

>  <energy>  (42) 
-5.01

>  <cluster_rmsd>  (42) 
1.21

>  <cluster>  (42) 
8

$$$$

     RDKit          3D

 56 59  0  0  0  0  0  0  0  0999 V2000
  140.9930   75.6220  218.6840 C   0  0  0  0  0  0  0  0  0  0  0  0
  141.2350   76.2610  219.9870 N   0  0  0  0  0  0  0  0  0  0  0  0
  142.1110   77.3730  220.1170 C   0  0  0  0  0  0  0  0  0  0  0  0
  141.5560   78.6830  220.4290 C   0  0  0  0  0  0  0  0  0  0  0  0
  140.8250   79.1900  219.4760 O   0  0  0  0  0  0  0  0  0  0  0  0
  141.6960   79.4530  221.5810 N   0  0  0  0  0  0  0  0  0  0  0  0
  142.1880   80.7700  221.8670 C   0  0  0  0  0  0  0  0  0  0  0  0
  143.0800   80.4980  223.0890 C   0  0  0  0  0  0  0  0  0  0  0  0
  142.1670   79.6380  223.9040 C   0  0  0  0  0  0  0  0  0  0  0  0
  141.2920   78.9480  222.9230 C   0  0  1  0  0  0  0  0  0  0  0  0
  139.8710   79.2970  223.1390 C   0  0  0  0  0  0  0  0  0  0  0  0
  139.4680   80.3620  223.8450 N   0  0  0  0  0  0  0  0  0  0  0  0
  138.1510   80.6310  224.0100 C   0  0  0  0  0  0  0  0  0  0  0  0
  137.1960   79.8140  223.4540 C   0  0  0  0  0  0  0  0  0  0  0  0
  137.6080   78.7160  222.7270 C   0  0  0  0  0  0  0  0  0  0  0  0
  138.9370   78.5110  222.6050 N   0  0  0  0  0  0  0  0  0  0  0  0
  140.5550   75.7380  221.1540 C   0  0  0  0  0  0  0  0  0  0  0  0
  140.9100   76.1740  222.2750 O   0  0  0  0  0  0  0  0  0  0  0  0
  139.4960   74.7420  220.9970 C   0  0  0  0  0  0  0  0  0  0  0  0
  139.5700   73.8220  222.1250 N   0  0  0  0  0  0  0  0  0  0  0  0
  139.6620   72.4380  221.8580 C   0  0  0  0  0  0  0  0  0  0  0  0
  139.6800   71.9990  220.6770 O   0  0  0  0  0  0  0  0  0  0  0  0
  139.7380   71.4750  222.9640 C   0  0  0  0  0  0  0  0  0  0  0  0
  139.2610   70.2080  222.8350 C   0  0  0  0  0  0  0  0  0  0  0  0
  139.3510   69.3240  223.9030 C   0  0  0  0  0  0  0  0  0  0  0  0
  139.9250   69.7290  225.0980 C   0  0  0  0  0  0  0  0  0  0  0  0
  140.0220   68.8550  226.1790 C   0  0  0  0  0  0  0  0  0  0  0  0
  140.6080   69.3370  227.3330 C   0  0  0  0  0  0  0  0  0  0  0  0
  140.7590   68.2920  228.7180 Cl  0  0  0  0  0  0  0  0  0  0  0  0
  141.0740   70.6260  227.4090 C   0  0  0  0  0  0  0  0  0  0  0  0
  140.9730   71.4770  226.3410 C   0  0  0  0  0  0  0  0  0  0  0  0
  140.3930   71.0210  225.1780 C   0  0  0  0  0  0  0  0  0  0  0  0
  140.2900   71.8450  224.1260 N   0  0  0  0  0  0  0  0  0  0  0  0
  140.6074   74.6038  218.8409 H   0  0  0  0  0  0  0  0  0  0  0  0
  140.2554   76.2103  218.1185 H   0  0  0  0  0  0  0  0  0  0  0  0
  141.9353   75.5741  218.1185 H   0  0  0  0  0  0  0  0  0  0  0  0
  142.8249   77.1277  220.9171 H   0  0  0  0  0  0  0  0  0  0  0  0
  142.5252   77.4989  219.1058 H   0  0  0  0  0  0  0  0  0  0  0  0
  142.7698   81.1743  221.0255 H   0  0  0  0  0  0  0  0  0  0  0  0
  141.4003   81.5178  222.0411 H   0  0  0  0  0  0  0  0  0  0  0  0
  144.0001   79.9636  222.8098 H   0  0  0  0  0  0  0  0  0  0  0  0
  143.4417   81.4004  223.6036 H   0  0  0  0  0  0  0  0  0  0  0  0
  142.7461   78.9051  224.4849 H   0  0  0  0  0  0  0  0  0  0  0  0
  141.5843   80.2300  224.6252 H   0  0  0  0  0  0  0  0  0  0  0  0
  141.3971   77.8575  223.0216 H   0  0  0  0  0  0  0  0  0  0  0  0
  137.8431   81.5109  224.5940 H   0  0  0  0  0  0  0  0  0  0  0  0
  136.1257   80.0308  223.5858 H   0  0  0  0  0  0  0  0  0  0  0  0
  136.8807   78.0329  222.2640 H   0  0  0  0  0  0  0  0  0  0  0  0
  138.5149   75.2394  220.9851 H   0  0  0  0  0  0  0  0  0  0  0  0
  139.6231   74.1961  220.0505 H   0  0  0  0  0  0  0  0  0  0  0  0
  139.5580   74.1560  223.1210 H   0  0  0  0  0  0  0  0  0  0  0  0
  138.8052   69.8840  221.8878 H   0  0  0  0  0  0  0  0  0  0  0  0
  138.9654   68.2990  223.7999 H   0  0  0  0  0  0  0  0  0  0  0  0
  139.6470   67.8228  226.1157 H   0  0  0  0  0  0  0  0  0  0  0  0
  141.5357   70.9807  228.3423 H   0  0  0  0  0  0  0  0  0  0  0  0
  141.3491   72.5083  226.4108 H   0  0  0  0  0  0  0  0  0  0  0  0
  1  2  1  0
  2  3  1  0
  3  4  1  0
  4  5  2  0
  4  6  1  0
  6  7  1  0
  7  8  1  0
  8  9  1  0
  9 10  1  0
 10 11  1  0
 11 12  2  0
 12 13  1  0
 13 14  2  0
 14 15  1  0
 15 16  2  0
  2 17  1  0
 17 18  2  0
 17 19  1  0
 19 20  1  0
 20 21  1  0
 21 22  2  0
 21 23  1  0
 23 24  2  0
 24 25  1  0
 25 26  2  0
 26 27  1  0
 27 28  2  0
 28 29  1  0
 28 30  1  0
 30 31  2  0
 31 32  1  0
 32 33  2  0
 10  6  1  0
 16 11  1  0
 33 23  1  0
 32 26  1  0
  1 34  1  0
  1 35  1  0
  1 36  1  0
  3 37  1  0
  3 38  1  0
  7 39  1  0
  7 40  1  0
  8 41  1  0
  8 42  1  0
  9 43  1  0
  9 44  1  0
 10 45  1  6
 13 46  1  0
 14 47  1  0
 15 48  1  0
 19 49  1  0
 19 50  1  0
 20 51  1  0
 24 52  1  0
 25 53  1  0
 27 54  1  0
 30 55  1  0
 31 56  1  0
M  END
>  <smiles>  (43) 
CN(CC(=O)N1CCC[C@H]1c1ncccn1)C(=O)CNC(=O)c1ccc2cc(Cl)ccc2n1

>  <score_type>  (43) 
oracle

>  <origin>  (43) 
autodockgpu

>  <m_score__min__energy>  (43) 
-8.5

>  <m_primary>  (43) 
energy

>  <rmsd>  (43) 
1.7600784404600744

>  <m_score__min__rmsd>  (43) 
1.7600784404600744

>  <meeko>  (43) 
{"free_energy": -8.5, "intermolecular_energy": -10.88, "internal_energy": -2.47, "cluster_size": 12, "cluster_id": 1, "rank_in_cluster": 2}

>  <energy>  (43) 
-5.83

>  <cluster_rmsd>  (43) 
0.0

>  <cluster>  (43) 
9

$$$$

     RDKit          3D

 56 59  0  0  0  0  0  0  0  0999 V2000
  139.8600   72.5940  217.7940 C   0  0  0  0  0  0  0  0  0  0  0  0
  139.7340   73.3650  219.0410 N   0  0  0  0  0  0  0  0  0  0  0  0
  140.7200   73.2910  220.0620 C   0  0  0  0  0  0  0  0  0  0  0  0
  140.6700   74.2380  221.1680 C   0  0  0  0  0  0  0  0  0  0  0  0
  140.6520   73.6770  222.3450 O   0  0  0  0  0  0  0  0  0  0  0  0
  140.6370   75.6290  221.1440 N   0  0  0  0  0  0  0  0  0  0  0  0
  140.8050   76.6300  220.1290 C   0  0  0  0  0  0  0  0  0  0  0  0
  141.7510   77.6150  220.8350 C   0  0  0  0  0  0  0  0  0  0  0  0
  141.0800   77.7300  222.1660 C   0  0  0  0  0  0  0  0  0  0  0  0
  140.3820   76.4350  222.3700 C   0  0  1  0  0  0  0  0  0  0  0  0
  138.9210   76.6320  222.4980 C   0  0  0  0  0  0  0  0  0  0  0  0
  138.0390   75.6240  222.5470 N   0  0  0  0  0  0  0  0  0  0  0  0
  136.7120   75.8660  222.6640 C   0  0  0  0  0  0  0  0  0  0  0  0
  136.2400   77.1540  222.7370 C   0  0  0  0  0  0  0  0  0  0  0  0
  137.1460   78.1940  222.6870 C   0  0  0  0  0  0  0  0  0  0  0  0
  138.4530   77.8770  222.5690 N   0  0  0  0  0  0  0  0  0  0  0  0
  138.5770   74.2180  219.2150 C   0  0  0  0  0  0  0  0  0  0  0  0
  138.6230   75.3660  218.7100 O   0  0  0  0  0  0  0  0  0  0  0  0
  137.4130   73.7300  219.9540 C   0  0  0  0  0  0  0  0  0  0  0  0
  137.8860   73.1140  221.1860 N   0  0  0  0  0  0  0  0  0  0  0  0
  137.4790   71.7930  221.4760 C   0  0  0  0  0  0  0  0  0  0  0  0
  136.7250   71.1540  220.6940 O   0  0  0  0  0  0  0  0  0  0  0  0
  137.9310   71.1330  222.7080 C   0  0  0  0  0  0  0  0  0  0  0  0
  137.2710   70.0590  223.2200 C   0  0  0  0  0  0  0  0  0  0  0  0
  137.7290   69.4600  224.3870 C   0  0  0  0  0  0  0  0  0  0  0  0
  138.8540   69.9530  225.0300 C   0  0  0  0  0  0  0  0  0  0  0  0
  139.3250   69.3640  226.2020 C   0  0  0  0  0  0  0  0  0  0  0  0
  140.4510   69.9150  226.7790 C   0  0  0  0  0  0  0  0  0  0  0  0
  141.0890   69.2230  228.2450 Cl  0  0  0  0  0  0  0  0  0  0  0  0
  141.0790   71.0010  226.2200 C   0  0  0  0  0  0  0  0  0  0  0  0
  140.6070   71.5720  225.0690 C   0  0  0  0  0  0  0  0  0  0  0  0
  139.4850   71.0410  224.4720 C   0  0  0  0  0  0  0  0  0  0  0  0
  139.0150   71.5920  223.3450 N   0  0  0  0  0  0  0  0  0  0  0  0
  140.0332   71.5345  218.0339 H   0  0  0  0  0  0  0  0  0  0  0  0
  138.9341   72.6907  217.2080 H   0  0  0  0  0  0  0  0  0  0  0  0
  140.7069   72.9804  217.2080 H   0  0  0  0  0  0  0  0  0  0  0  0
  140.6558   72.2833  220.4985 H   0  0  0  0  0  0  0  0  0  0  0  0
  141.6552   73.5454  219.5417 H   0  0  0  0  0  0  0  0  0  0  0  0
  141.2637   76.2108  219.2213 H   0  0  0  0  0  0  0  0  0  0  0  0
  139.8644   77.0799  219.7784 H   0  0  0  0  0  0  0  0  0  0  0  0
  142.7681   77.2063  220.9269 H   0  0  0  0  0  0  0  0  0  0  0  0
  141.8936   78.5706  220.3092 H   0  0  0  0  0  0  0  0  0  0  0  0
  141.8242   77.8950  222.9590 H   0  0  0  0  0  0  0  0  0  0  0  0
  140.3826   78.5800  222.2001 H   0  0  0  0  0  0  0  0  0  0  0  0
  140.7452   75.9483  223.2872 H   0  0  0  0  0  0  0  0  0  0  0  0
  136.0055   75.0237  222.7009 H   0  0  0  0  0  0  0  0  0  0  0  0
  135.1623   77.3524  222.8333 H   0  0  0  0  0  0  0  0  0  0  0  0
  136.8156   79.2418  222.7412 H   0  0  0  0  0  0  0  0  0  0  0  0
  136.7424   74.5693  220.1902 H   0  0  0  0  0  0  0  0  0  0  0  0
  136.8574   72.9975  219.3501 H   0  0  0  0  0  0  0  0  0  0  0  0
  138.5150   73.6200  221.8590 H   0  0  0  0  0  0  0  0  0  0  0  0
  136.3779   69.6663  222.7118 H   0  0  0  0  0  0  0  0  0  0  0  0
  137.1970   68.5914  224.8023 H   0  0  0  0  0  0  0  0  0  0  0  0
  138.8197   68.4952  226.6490 H   0  0  0  0  0  0  0  0  0  0  0  0
  141.9743   71.4180  226.7043 H   0  0  0  0  0  0  0  0  0  0  0  0
  141.1159   72.4416  224.6276 H   0  0  0  0  0  0  0  0  0  0  0  0
  1  2  1  0
  2  3  1  0
  3  4  1  0
  4  5  2  0
  4  6  1  0
  6  7  1  0
  7  8  1  0
  8  9  1  0
  9 10  1  0
 10 11  1  0
 11 12  2  0
 12 13  1  0
 13 14  2  0
 14 15  1  0
 15 16  2  0
  2 17  1  0
 17 18  2  0
 17 19  1  0
 19 20  1  0
 20 21  1  0
 21 22  2  0
 21 23  1  0
 23 24  2  0
 24 25  1  0
 25 26  2  0
 26 27  1  0
 27 28  2  0
 28 29  1  0
 28 30  1  0
 30 31  2  0
 31 32  1  0
 32 33  2  0
 10  6  1  0
 16 11  1  0
 33 23  1  0
 32 26  1  0
  1 34  1  0
  1 35  1  0
  1 36  1  0
  3 37  1  0
  3 38  1  0
  7 39  1  0
  7 40  1  0
  8 41  1  0
  8 42  1  0
  9 43  1  0
  9 44  1  0
 10 45  1  1
 13 46  1  0
 14 47  1  0
 15 48  1  0
 19 49  1  0
 19 50  1  0
 20 51  1  0
 24 52  1  0
 25 53  1  0
 27 54  1  0
 30 55  1  0
 31 56  1  0
M  END
>  <smiles>  (44) 
CN(CC(=O)N1CCC[C@H]1c1ncccn1)C(=O)CNC(=O)c1ccc2cc(Cl)ccc2n1

>  <score_type>  (44) 
oracle

>  <origin>  (44) 
autodockgpu

>  <m_score__min__energy>  (44) 
-8.5

>  <m_primary>  (44) 
energy

>  <rmsd>  (44) 
2.8512418541527285

>  <m_score__min__rmsd>  (44) 
2.8512418541527285

>  <meeko>  (44) 
{"free_energy": -5.6, "intermolecular_energy": -7.99, "internal_energy": -4.39, "cluster_size": 1, "cluster_id": 10, "rank_in_cluster": 1}

>  <energy>  (44) 
-5.6

>  <cluster_rmsd>  (44) 
0.0

>  <cluster>  (44) 
10

$$$$

     RDKit          3D

 56 59  0  0  0  0  0  0  0  0999 V2000
  142.2660   73.2090  217.6330 C   0  0  0  0  0  0  0  0  0  0  0  0
  143.4600   73.9280  218.1030 N   0  0  0  0  0  0  0  0  0  0  0  0
  143.7370   75.2580  217.6850 C   0  0  0  0  0  0  0  0  0  0  0  0
  143.4570   76.3620  218.5930 C   0  0  0  0  0  0  0  0  0  0  0  0
  144.0180   76.2410  219.7640 O   0  0  0  0  0  0  0  0  0  0  0  0
  142.6880   77.5050  218.3890 N   0  0  0  0  0  0  0  0  0  0  0  0
  142.5850   78.4850  217.3470 C   0  0  0  0  0  0  0  0  0  0  0  0
  142.5850   79.7880  218.1620 C   0  0  0  0  0  0  0  0  0  0  0  0
  141.5950   79.4420  219.2280 C   0  0  0  0  0  0  0  0  0  0  0  0
  141.6830   77.9680  219.3860 C   0  0  1  0  0  0  0  0  0  0  0  0
  140.3900   77.3200  219.0750 C   0  0  0  0  0  0  0  0  0  0  0  0
  140.2840   76.1030  218.5240 N   0  0  0  0  0  0  0  0  0  0  0  0
  139.0710   75.5620  218.2610 C   0  0  0  0  0  0  0  0  0  0  0  0
  137.9190   76.2500  218.5550 C   0  0  0  0  0  0  0  0  0  0  0  0
  138.0250   77.5030  219.1230 C   0  0  0  0  0  0  0  0  0  0  0  0
  139.2670   77.9800  219.3570 N   0  0  0  0  0  0  0  0  0  0  0  0
  144.3610   73.2550  219.0160 C   0  0  0  0  0  0  0  0  0  0  0  0
  145.5210   73.0080  218.6070 O   0  0  0  0  0  0  0  0  0  0  0  0
  143.9060   72.8920  220.3570 C   0  0  0  0  0  0  0  0  0  0  0  0
  143.1100   73.9960  220.8790 N   0  0  0  0  0  0  0  0  0  0  0  0
  141.7120   73.8280  220.9790 C   0  0  0  0  0  0  0  0  0  0  0  0
  141.1550   72.7530  220.6270 O   0  0  0  0  0  0  0  0  0  0  0  0
  140.8710   74.9140  221.5000 C   0  0  0  0  0  0  0  0  0  0  0  0
  139.5200   74.7860  221.5840 C   0  0  0  0  0  0  0  0  0  0  0  0
  138.7570   75.8350  222.0830 C   0  0  0  0  0  0  0  0  0  0  0  0
  139.3690   77.0090  222.4930 C   0  0  0  0  0  0  0  0  0  0  0  0
  138.6180   78.0710  222.9940 C   0  0  0  0  0  0  0  0  0  0  0  0
  139.3030   79.2050  223.3810 C   0  0  0  0  0  0  0  0  0  0  0  0
  138.4200   80.5650  224.0160 Cl  0  0  0  0  0  0  0  0  0  0  0  0
  140.6700   79.2810  223.2740 C   0  0  0  0  0  0  0  0  0  0  0  0
  141.3980   78.2320  222.7800 C   0  0  0  0  0  0  0  0  0  0  0  0
  140.7380   77.0890  222.3860 C   0  0  0  0  0  0  0  0  0  0  0  0
  141.4410   76.0560  221.9020 N   0  0  0  0  0  0  0  0  0  0  0  0
  141.6845   72.8588  218.4986 H   0  0  0  0  0  0  0  0  0  0  0  0
  141.6470   73.8847  217.0245 H   0  0  0  0  0  0  0  0  0  0  0  0
  142.5736   72.3458  217.0245 H   0  0  0  0  0  0  0  0  0  0  0  0
  144.8098   75.3028  217.4461 H   0  0  0  0  0  0  0  0  0  0  0  0
  143.0373   75.4211  216.8520 H   0  0  0  0  0  0  0  0  0  0  0  0
  143.4448   78.4376  216.6625 H   0  0  0  0  0  0  0  0  0  0  0  0
  141.7080   78.3603  216.6949 H   0  0  0  0  0  0  0  0  0  0  0  0
  143.5778   80.0031  218.5840 H   0  0  0  0  0  0  0  0  0  0  0  0
  142.3393   80.6908  217.5835 H   0  0  0  0  0  0  0  0  0  0  0  0
  141.8532   79.9461  220.1710 H   0  0  0  0  0  0  0  0  0  0  0  0
  140.5777   79.7644  218.9611 H   0  0  0  0  0  0  0  0  0  0  0  0
  141.9543   77.7123  220.4209 H   0  0  0  0  0  0  0  0  0  0  0  0
  139.0074   74.5618  217.8075 H   0  0  0  0  0  0  0  0  0  0  0  0
  136.9330   75.8114  218.3421 H   0  0  0  0  0  0  0  0  0  0  0  0
  137.1310   78.0918  219.3760 H   0  0  0  0  0  0  0  0  0  0  0  0
  143.2926   71.9802  220.3086 H   0  0  0  0  0  0  0  0  0  0  0  0
  144.7678   72.6998  221.0130 H   0  0  0  0  0  0  0  0  0  0  0  0
  143.5440   74.9040  221.1810 H   0  0  0  0  0  0  0  0  0  0  0  0
  139.0325   73.8553  221.2581 H   0  0  0  0  0  0  0  0  0  0  0  0
  137.6640   75.7332  222.1527 H   0  0  0  0  0  0  0  0  0  0  0  0
  137.5230   78.0078  223.0776 H   0  0  0  0  0  0  0  0  0  0  0  0
  141.1879   80.1986  223.5900 H   0  0  0  0  0  0  0  0  0  0  0  0
  142.4928   78.3009  222.6990 H   0  0  0  0  0  0  0  0  0  0  0  0
  1  2  1  0
  2  3  1  0
  3  4  1  0
  4  5  2  0
  4  6  1  0
  6  7  1  0
  7  8  1  0
  8  9  1  0
  9 10  1  0
 10 11  1  0
 11 12  2  0
 12 13  1  0
 13 14  2  0
 14 15  1  0
 15 16  2  0
  2 17  1  0
 17 18  2  0
 17 19  1  0
 19 20  1  0
 20 21  1  0
 21 22  2  0
 21 23  1  0
 23 24  2  0
 24 25  1  0
 25 26  2  0
 26 27  1  0
 27 28  2  0
 28 29  1  0
 28 30  1  0
 30 31  2  0
 31 32  1  0
 32 33  2  0
 10  6  1  0
 16 11  1  0
 33 23  1  0
 32 26  1  0
  1 34  1  0
  1 35  1  0
  1 36  1  0
  3 37  1  0
  3 38  1  0
  7 39  1  0
  7 40  1  0
  8 41  1  0
  8 42  1  0
  9 43  1  0
  9 44  1  0
 10 45  1  1
 13 46  1  0
 14 47  1  0
 15 48  1  0
 19 49  1  0
 19 50  1  0
 20 51  1  0
 24 52  1  0
 25 53  1  0
 27 54  1  0
 30 55  1  0
 31 56  1  0
M  END
>  <smiles>  (45) 
CN(CC(=O)N1CCC[C@H]1c1ncccn1)C(=O)CNC(=O)c1ccc2cc(Cl)ccc2n1

>  <score_type>  (45) 
oracle

>  <origin>  (45) 
autodockgpu

>  <m_score__min__energy>  (45) 
-8.5

>  <m_primary>  (45) 
energy

>  <rmsd>  (45) 
6.225739246947697

>  <m_score__min__rmsd>  (45) 
6.225739246947697

>  <meeko>  (45) 
{"free_energy": -5.04, "intermolecular_energy": -7.43, "internal_energy": -5.14, "cluster_size": 1, "cluster_id": 14, "rank_in_cluster": 1}

>  <energy>  (45) 
-5.33

>  <cluster_rmsd>  (45) 
0.0

>  <cluster>  (45) 
11

$$$$

     RDKit          3D

 56 59  0  0  0  0  0  0  0  0999 V2000
  137.3500   81.2290  225.3250 C   0  0  0  0  0  0  0  0  0  0  0  0
  137.8180   80.9580  223.9570 N   0  0  0  0  0  0  0  0  0  0  0  0
  137.3930   81.7490  222.8560 C   0  0  0  0  0  0  0  0  0  0  0  0
  138.1100   81.6510  221.5910 C   0  0  0  0  0  0  0  0  0  0  0  0
  137.5370   80.8740  220.7160 O   0  0  0  0  0  0  0  0  0  0  0  0
  139.2980   82.2600  221.1970 N   0  0  0  0  0  0  0  0  0  0  0  0
  139.8010   83.6040  221.2060 C   0  0  0  0  0  0  0  0  0  0  0  0
  140.3880   83.7130  219.7900 C   0  0  0  0  0  0  0  0  0  0  0  0
  141.1460   82.4260  219.7090 C   0  0  0  0  0  0  0  0  0  0  0  0
  140.4230   81.4850  220.6030 C   0  0  1  0  0  0  0  0  0  0  0  0
  141.2950   81.0190  221.7030 C   0  0  0  0  0  0  0  0  0  0  0  0
  141.8910   79.8180  221.7180 N   0  0  0  0  0  0  0  0  0  0  0  0
  142.6790   79.4460  222.7540 C   0  0  0  0  0  0  0  0  0  0  0  0
  142.8850   80.2930  223.8160 C   0  0  0  0  0  0  0  0  0  0  0  0
  142.2720   81.5300  223.8030 C   0  0  0  0  0  0  0  0  0  0  0  0
  141.5010   81.8330  222.7370 N   0  0  0  0  0  0  0  0  0  0  0  0
  138.7380   79.8590  223.7440 C   0  0  0  0  0  0  0  0  0  0  0  0
  139.9000   79.9790  224.2040 O   0  0  0  0  0  0  0  0  0  0  0  0
  138.2990   78.6680  223.0200 C   0  0  0  0  0  0  0  0  0  0  0  0
  139.4730   78.0410  222.4260 N   0  0  0  0  0  0  0  0  0  0  0  0
  139.3860   76.6860  222.0350 C   0  0  0  0  0  0  0  0  0  0  0  0
  138.3230   76.0270  222.1910 O   0  0  0  0  0  0  0  0  0  0  0  0
  140.5440   76.0140  221.4320 C   0  0  0  0  0  0  0  0  0  0  0  0
  141.4570   76.7010  220.6930 C   0  0  0  0  0  0  0  0  0  0  0  0
  142.5410   76.0310  220.1400 C   0  0  0  0  0  0  0  0  0  0  0  0
  142.6940   74.6680  220.3380 C   0  0  0  0  0  0  0  0  0  0  0  0
  143.7760   73.9820  219.7880 C   0  0  0  0  0  0  0  0  0  0  0  0
  143.8560   72.6260  220.0330 C   0  0  0  0  0  0  0  0  0  0  0  0
  145.1850   71.7130  219.3740 Cl  0  0  0  0  0  0  0  0  0  0  0  0
  142.9060   71.9810  220.7870 C   0  0  0  0  0  0  0  0  0  0  0  0
  141.8480   72.6650  221.3220 C   0  0  0  0  0  0  0  0  0  0  0  0
  141.7440   74.0200  221.0930 C   0  0  0  0  0  0  0  0  0  0  0  0
  140.7130   74.6990  221.6120 N   0  0  0  0  0  0  0  0  0  0  0  0
  138.0680   80.8132  226.0472 H   0  0  0  0  0  0  0  0  0  0  0  0
  137.2661   82.3154  225.4754 H   0  0  0  0  0  0  0  0  0  0  0  0
  136.3660   80.7610  225.4754 H   0  0  0  0  0  0  0  0  0  0  0  0
  136.3456   81.4811  222.6532 H   0  0  0  0  0  0  0  0  0  0  0  0
  137.5846   82.7807  223.1859 H   0  0  0  0  0  0  0  0  0  0  0  0
  138.9947   84.3350  221.3654 H   0  0  0  0  0  0  0  0  0  0  0  0
  140.5221   83.8106  222.0106 H   0  0  0  0  0  0  0  0  0  0  0  0
  139.5983   83.7679  219.0262 H   0  0  0  0  0  0  0  0  0  0  0  0
  140.9941   84.6137  219.6133 H   0  0  0  0  0  0  0  0  0  0  0  0
  141.1523   82.0475  218.6762 H   0  0  0  0  0  0  0  0  0  0  0  0
  142.1966   82.5505  220.0101 H   0  0  0  0  0  0  0  0  0  0  0  0
  140.0861   80.6050  220.0355 H   0  0  0  0  0  0  0  0  0  0  0  0
  143.1589   78.4562  222.7455 H   0  0  0  0  0  0  0  0  0  0  0  0
  143.5247   79.9920  224.6587 H   0  0  0  0  0  0  0  0  0  0  0  0
  142.4068   82.2422  224.6304 H   0  0  0  0  0  0  0  0  0  0  0  0
  137.8133   77.9671  223.7149 H   0  0  0  0  0  0  0  0  0  0  0  0
  137.5764   78.9424  222.2374 H   0  0  0  0  0  0  0  0  0  0  0  0
  140.3730   78.5630  222.2820 H   0  0  0  0  0  0  0  0  0  0  0  0
  141.3371   77.7828  220.5341 H   0  0  0  0  0  0  0  0  0  0  0  0
  143.2806   76.5844  219.5428 H   0  0  0  0  0  0  0  0  0  0  0  0
  144.5349   74.5003  219.1835 H   0  0  0  0  0  0  0  0  0  0  0  0
  142.9969   70.8990  220.9634 H   0  0  0  0  0  0  0  0  0  0  0  0
  141.0922   72.1411  221.9256 H   0  0  0  0  0  0  0  0  0  0  0  0
  1  2  1  0
  2  3  1  0
  3  4  1  0
  4  5  2  0
  4  6  1  0
  6  7  1  0
  7  8  1  0
  8  9  1  0
  9 10  1  0
 10 11  1  0
 11 12  2  0
 12 13  1  0
 13 14  2  0
 14 15  1  0
 15 16  2  0
  2 17  1  0
 17 18  2  0
 17 19  1  0
 19 20  1  0
 20 21  1  0
 21 22  2  0
 21 23  1  0
 23 24  2  0
 24 25  1  0
 25 26  2  0
 26 27  1  0
 27 28  2  0
 28 29  1  0
 28 30  1  0
 30 31  2  0
 31 32  1  0
 32 33  2  0
 10  6  1  0
 16 11  1  0
 33 23  1  0
 32 26  1  0
  1 34  1  0
  1 35  1  0
  1 36  1  0
  3 37  1  0
  3 38  1  0
  7 39  1  0
  7 40  1  0
  8 41  1  0
  8 42  1  0
  9 43  1  0
  9 44  1  0
 10 45  1  6
 13 46  1  0
 14 47  1  0
 15 48  1  0
 19 49  1  0
 19 50  1  0
 20 51  1  0
 24 52  1  0
 25 53  1  0
 27 54  1  0
 30 55  1  0
 31 56  1  0
M  END
>  <smiles>  (46) 
CN(CC(=O)N1CCC[C@H]1c1ncccn1)C(=O)CNC(=O)c1ccc2cc(Cl)ccc2n1

>  <score_type>  (46) 
oracle

>  <origin>  (46) 
autodockgpu

>  <m_score__min__energy>  (46) 
-8.5

>  <m_primary>  (46) 
energy

>  <rmsd>  (46) 
6.731946751929043

>  <m_score__min__rmsd>  (46) 
6.731946751929043

>  <meeko>  (46) 
{"free_energy": -6.28, "intermolecular_energy": -8.67, "internal_energy": -3.71, "cluster_size": 4, "cluster_id": 7, "rank_in_cluster": 1}

>  <energy>  (46) 
-5.13

>  <cluster_rmsd>  (46) 
0.0

>  <cluster>  (46) 
12

$$$$

     RDKit          3D

 56 59  0  0  0  0  0  0  0  0999 V2000
  138.1260   74.2600  218.9210 C   0  0  0  0  0  0  0  0  0  0  0  0
  138.2780   73.4040  220.1080 N   0  0  0  0  0  0  0  0  0  0  0  0
  139.5600   73.0760  220.6280 C   0  0  0  0  0  0  0  0  0  0  0  0
  140.5040   74.1470  220.9190 C   0  0  0  0  0  0  0  0  0  0  0  0
  140.5070   74.5270  222.1660 O   0  0  0  0  0  0  0  0  0  0  0  0
  141.3850   74.8080  220.0670 N   0  0  0  0  0  0  0  0  0  0  0  0
  141.8630   74.5880  218.7330 C   0  0  0  0  0  0  0  0  0  0  0  0
  143.3730   74.8130  218.9160 C   0  0  0  0  0  0  0  0  0  0  0  0
  143.3640   76.0780  219.7140 C   0  0  0  0  0  0  0  0  0  0  0  0
  142.0880   76.0580  220.4730 C   0  0  1  0  0  0  0  0  0  0  0  0
  141.2320   77.2090  220.1090 C   0  0  0  0  0  0  0  0  0  0  0  0
  139.9410   77.0940  219.7680 N   0  0  0  0  0  0  0  0  0  0  0  0
  139.2080   78.1850  219.4430 C   0  0  0  0  0  0  0  0  0  0  0  0
  139.7740   79.4370  219.4570 C   0  0  0  0  0  0  0  0  0  0  0  0
  141.1030   79.5580  219.8070 C   0  0  0  0  0  0  0  0  0  0  0  0
  141.7710   78.4260  220.1180 N   0  0  0  0  0  0  0  0  0  0  0  0
  137.0860   72.8960  220.7540 C   0  0  0  0  0  0  0  0  0  0  0  0
  136.4360   72.0060  220.1530 O   0  0  0  0  0  0  0  0  0  0  0  0
  136.6810   73.4190  222.0580 C   0  0  0  0  0  0  0  0  0  0  0  0
  137.4910   74.5950  222.3450 N   0  0  0  0  0  0  0  0  0  0  0  0
  136.8910   75.8690  222.2320 C   0  0  0  0  0  0  0  0  0  0  0  0
  135.6840   75.9950  221.8920 O   0  0  0  0  0  0  0  0  0  0  0  0
  137.6710   77.0820  222.5120 C   0  0  0  0  0  0  0  0  0  0  0  0
  137.0810   78.3060  222.5630 C   0  0  0  0  0  0  0  0  0  0  0  0
  137.8510   79.4310  222.8310 C   0  0  0  0  0  0  0  0  0  0  0  0
  139.2150   79.3090  223.0450 C   0  0  0  0  0  0  0  0  0  0  0  0
  140.0010   80.4280  223.3140 C   0  0  0  0  0  0  0  0  0  0  0  0
  141.3510   80.2210  223.5160 C   0  0  0  0  0  0  0  0  0  0  0  0
  142.3850   81.5800  223.8570 Cl  0  0  0  0  0  0  0  0  0  0  0  0
  141.8950   78.9610  223.4520 C   0  0  0  0  0  0  0  0  0  0  0  0
  141.1130   77.8690  223.1870 C   0  0  0  0  0  0  0  0  0  0  0  0
  139.7630   78.0480  222.9820 C   0  0  0  0  0  0  0  0  0  0  0  0
  138.9890   76.9870  222.7230 N   0  0  0  0  0  0  0  0  0  0  0  0
  137.9419   75.2971  219.2380 H   0  0  0  0  0  0  0  0  0  0  0  0
  139.0456   74.2185  218.3188 H   0  0  0  0  0  0  0  0  0  0  0  0
  137.2770   73.9044  218.3188 H   0  0  0  0  0  0  0  0  0  0  0  0
  139.3952   72.5286  221.5678 H   0  0  0  0  0  0  0  0  0  0  0  0
  140.0399   72.5194  219.8095 H   0  0  0  0  0  0  0  0  0  0  0  0
  141.6464   73.5653  218.3907 H   0  0  0  0  0  0  0  0  0  0  0  0
  141.3987   75.2354  217.9745 H   0  0  0  0  0  0  0  0  0  0  0  0
  143.8428   73.9867  219.4696 H   0  0  0  0  0  0  0  0  0  0  0  0
  143.9460   74.8659  217.9785 H   0  0  0  0  0  0  0  0  0  0  0  0
  144.2210   76.1042  220.4031 H   0  0  0  0  0  0  0  0  0  0  0  0
  143.4430   76.9671  219.0711 H   0  0  0  0  0  0  0  0  0  0  0  0
  142.2882   76.1078  221.5535 H   0  0  0  0  0  0  0  0  0  0  0  0
  138.1501   78.0681  219.1653 H   0  0  0  0  0  0  0  0  0  0  0  0
  139.1797   80.3246  219.1945 H   0  0  0  0  0  0  0  0  0  0  0  0
  141.5997   80.5391  219.8319 H   0  0  0  0  0  0  0  0  0  0  0  0
  135.6167   73.6960  222.0345 H   0  0  0  0  0  0  0  0  0  0  0  0
  136.8272   72.6561  222.8368 H   0  0  0  0  0  0  0  0  0  0  0  0
  138.5000   74.5230  222.6320 H   0  0  0  0  0  0  0  0  0  0  0  0
  135.9988   78.4051  222.3928 H   0  0  0  0  0  0  0  0  0  0  0  0
  137.3763   80.4224  222.8735 H   0  0  0  0  0  0  0  0  0  0  0  0
  139.5633   81.4359  223.3634 H   0  0  0  0  0  0  0  0  0  0  0  0
  142.9745   78.8277  223.6160 H   0  0  0  0  0  0  0  0  0  0  0  0
  141.5564   76.8635  223.1385 H   0  0  0  0  0  0  0  0  0  0  0  0
  1  2  1  0
  2  3  1  0
  3  4  1  0
  4  5  2  0
  4  6  1  0
  6  7  1  0
  7  8  1  0
  8  9  1  0
  9 10  1  0
 10 11  1  0
 11 12  2  0
 12 13  1  0
 13 14  2  0
 14 15  1  0
 15 16  2  0
  2 17  1  0
 17 18  2  0
 17 19  1  0
 19 20  1  0
 20 21  1  0
 21 22  2  0
 21 23  1  0
 23 24  2  0
 24 25  1  0
 25 26  2  0
 26 27  1  0
 27 28  2  0
 28 29  1  0
 28 30  1  0
 30 31  2  0
 31 32  1  0
 32 33  2  0
 10  6  1  0
 16 11  1  0
 33 23  1  0
 32 26  1  0
  1 34  1  0
  1 35  1  0
  1 36  1  0
  3 37  1  0
  3 38  1  0
  7 39  1  0
  7 40  1  0
  8 41  1  0
  8 42  1  0
  9 43  1  0
  9 44  1  0
 10 45  1  1
 13 46  1  0
 14 47  1  0
 15 48  1  0
 19 49  1  0
 19 50  1  0
 20 51  1  0
 24 52  1  0
 25 53  1  0
 27 54  1  0
 30 55  1  0
 31 56  1  0
M  END
>  <smiles>  (47) 
CN(CC(=O)N1CCC[C@H]1c1ncccn1)C(=O)CNC(=O)c1ccc2cc(Cl)ccc2n1

>  <score_type>  (47) 
oracle

>  <origin>  (47) 
autodockgpu

>  <m_score__min__energy>  (47) 
-8.5

>  <m_primary>  (47) 
energy

>  <rmsd>  (47) 
7.081798967204631

>  <m_score__min__rmsd>  (47) 
7.081798967204631

>  <meeko>  (47) 
{"free_energy": -5.01, "intermolecular_energy": -7.4, "internal_energy": -4.98, "cluster_size": 4, "cluster_id": 8, "rank_in_cluster": 4}

>  <energy>  (47) 
-5.07

>  <cluster_rmsd>  (47) 
0.96

>  <cluster>  (47) 
12

$$$$

     RDKit          3D

 56 59  0  0  0  0  0  0  0  0999 V2000
  138.9960   77.5990  219.5650 C   0  0  0  0  0  0  0  0  0  0  0  0
  138.6720   77.6450  220.9990 N   0  0  0  0  0  0  0  0  0  0  0  0
  138.4000   78.8730  221.6590 C   0  0  0  0  0  0  0  0  0  0  0  0
  139.2480   79.2860  222.7700 C   0  0  0  0  0  0  0  0  0  0  0  0
  138.5940   79.5410  223.8690 O   0  0  0  0  0  0  0  0  0  0  0  0
  140.6300   79.4440  222.8190 N   0  0  0  0  0  0  0  0  0  0  0  0
  141.6630   79.0610  223.7380 C   0  0  0  0  0  0  0  0  0  0  0  0
  142.4660   80.3680  223.8460 C   0  0  0  0  0  0  0  0  0  0  0  0
  142.5830   80.7350  222.4010 C   0  0  0  0  0  0  0  0  0  0  0  0
  141.3820   80.1560  221.7470 C   0  0  1  0  0  0  0  0  0  0  0  0
  141.7620   79.1670  220.7150 C   0  0  0  0  0  0  0  0  0  0  0  0
  141.8560   77.8500  220.9480 N   0  0  0  0  0  0  0  0  0  0  0  0
  142.2090   76.9920  219.9620 C   0  0  0  0  0  0  0  0  0  0  0  0
  142.4790   77.4540  218.6970 C   0  0  0  0  0  0  0  0  0  0  0  0
  142.3830   78.8090  218.4540 C   0  0  0  0  0  0  0  0  0  0  0  0
  142.0260   79.6040  219.4850 N   0  0  0  0  0  0  0  0  0  0  0  0
  138.6270   76.4010  221.7400 C   0  0  0  0  0  0  0  0  0  0  0  0
  137.9420   76.3790  222.7910 O   0  0  0  0  0  0  0  0  0  0  0  0
  139.3600   75.2340  221.2540 C   0  0  0  0  0  0  0  0  0  0  0  0
  139.4270   74.2590  222.3350 N   0  0  0  0  0  0  0  0  0  0  0  0
  139.7950   72.9320  222.0220 C   0  0  0  0  0  0  0  0  0  0  0  0
  140.0610   72.5890  220.8390 O   0  0  0  0  0  0  0  0  0  0  0  0
  139.8750   71.9160  223.0800 C   0  0  0  0  0  0  0  0  0  0  0  0
  139.4740   70.6350  222.8630 C   0  0  0  0  0  0  0  0  0  0  0  0
  139.5650   69.7010  223.8880 C   0  0  0  0  0  0  0  0  0  0  0  0
  140.0610   70.0720  225.1280 C   0  0  0  0  0  0  0  0  0  0  0  0
  140.1570   69.1480  226.1670 C   0  0  0  0  0  0  0  0  0  0  0  0
  140.6620   69.5980  227.3710 C   0  0  0  0  0  0  0  0  0  0  0  0
  140.8080   68.4900  228.7060 Cl  0  0  0  0  0  0  0  0  0  0  0  0
  141.0520   70.9040  227.5350 C   0  0  0  0  0  0  0  0  0  0  0  0
  140.9530   71.8040  226.5080 C   0  0  0  0  0  0  0  0  0  0  0  0
  140.4520   71.3810  225.2960 C   0  0  0  0  0  0  0  0  0  0  0  0
  140.3510   72.2520  224.2840 N   0  0  0  0  0  0  0  0  0  0  0  0
  140.0778   77.4454  219.4383 H   0  0  0  0  0  0  0  0  0  0  0  0
  138.4500   76.7694  219.0922 H   0  0  0  0  0  0  0  0  0  0  0  0
  138.7025   78.5478  219.0922 H   0  0  0  0  0  0  0  0  0  0  0  0
  138.4573   79.6660  220.8988 H   0  0  0  0  0  0  0  0  0  0  0  0
  137.4184   78.7068  222.1268 H   0  0  0  0  0  0  0  0  0  0  0  0
  141.2463   78.7623  224.7112 H   0  0  0  0  0  0  0  0  0  0  0  0
  142.2555   78.1924  223.4149 H   0  0  0  0  0  0  0  0  0  0  0  0
  141.9206   81.1339  224.4168 H   0  0  0  0  0  0  0  0  0  0  0  0
  143.4261   80.2742  224.3747 H   0  0  0  0  0  0  0  0  0  0  0  0
  142.5963   81.8284  222.2818 H   0  0  0  0  0  0  0  0  0  0  0  0
  143.5140   80.3532  221.9567 H   0  0  0  0  0  0  0  0  0  0  0  0
  140.7936   80.9492  221.2627 H   0  0  0  0  0  0  0  0  0  0  0  0
  142.2802   75.9153  220.1759 H   0  0  0  0  0  0  0  0  0  0  0  0
  142.7658   76.7585  217.8945 H   0  0  0  0  0  0  0  0  0  0  0  0
  142.5897   79.2258  217.4572 H   0  0  0  0  0  0  0  0  0  0  0  0
  138.8364   74.7979  220.3905 H   0  0  0  0  0  0  0  0  0  0  0  0
  140.3733   75.5243  220.9393 H   0  0  0  0  0  0  0  0  0  0  0  0
  139.2110   74.5130  223.3310 H   0  0  0  0  0  0  0  0  0  0  0  0
  139.0791   70.3391  221.8799 H   0  0  0  0  0  0  0  0  0  0  0  0
  139.2423   68.6638  223.7147 H   0  0  0  0  0  0  0  0  0  0  0  0
  139.8431   68.1022  226.0334 H   0  0  0  0  0  0  0  0  0  0  0  0
  141.4501   71.2324  228.5064 H   0  0  0  0  0  0  0  0  0  0  0  0
  141.2685   72.8484  226.6482 H   0  0  0  0  0  0  0  0  0  0  0  0
  1  2  1  0
  2  3  1  0
  3  4  1  0
  4  5  2  0
  4  6  1  0
  6  7  1  0
  7  8  1  0
  8  9  1  0
  9 10  1  0
 10 11  1  0
 11 12  2  0
 12 13  1  0
 13 14  2  0
 14 15  1  0
 15 16  2  0
  2 17  1  0
 17 18  2  0
 17 19  1  0
 19 20  1  0
 20 21  1  0
 21 22  2  0
 21 23  1  0
 23 24  2  0
 24 25  1  0
 25 26  2  0
 26 27  1  0
 27 28  2  0
 28 29  1  0
 28 30  1  0
 30 31  2  0
 31 32  1  0
 32 33  2  0
 10  6  1  0
 16 11  1  0
 33 23  1  0
 32 26  1  0
  1 34  1  0
  1 35  1  0
  1 36  1  0
  3 37  1  0
  3 38  1  0
  7 39  1  0
  7 40  1  0
  8 41  1  0
  8 42  1  0
  9 43  1  0
  9 44  1  0
 10 45  1  6
 13 46  1  0
 14 47  1  0
 15 48  1  0
 19 49  1  0
 19 50  1  0
 20 51  1  0
 24 52  1  0
 25 53  1  0
 27 54  1  0
 30 55  1  0
 31 56  1  0
M  END
>  <smiles>  (48) 
CN(CC(=O)N1CCC[C@H]1c1ncccn1)C(=O)CNC(=O)c1ccc2cc(Cl)ccc2n1

>  <score_type>  (48) 
oracle

>  <origin>  (48) 
autodockgpu

>  <m_score__min__energy>  (48) 
-8.5

>  <m_primary>  (48) 
energy

>  <rmsd>  (48) 
2.621696428711321

>  <m_score__min__rmsd>  (48) 
2.621696428711321

>  <meeko>  (48) 
{"free_energy": -8.34, "intermolecular_energy": -10.73, "internal_energy": -2.78, "cluster_size": 15, "cluster_id": 2, "rank_in_cluster": 1}

>  <energy>  (48) 
-5.07

>  <cluster_rmsd>  (48) 
0.0

>  <cluster>  (48) 
13

$$$$

     RDKit          3D

 56 59  0  0  0  0  0  0  0  0999 V2000
  136.5580   75.8640  223.2720 C   0  0  0  0  0  0  0  0  0  0  0  0
  137.3650   76.3250  222.1320 N   0  0  0  0  0  0  0  0  0  0  0  0
  136.9710   77.4430  221.3470 C   0  0  0  0  0  0  0  0  0  0  0  0
  137.7580   78.6680  221.4090 C   0  0  0  0  0  0  0  0  0  0  0  0
  138.4870   78.8830  220.3510 O   0  0  0  0  0  0  0  0  0  0  0  0
  137.8370   79.6200  222.4220 N   0  0  0  0  0  0  0  0  0  0  0  0
  137.2620   79.7610  223.7290 C   0  0  0  0  0  0  0  0  0  0  0  0
  136.7970   81.2250  223.6940 C   0  0  0  0  0  0  0  0  0  0  0  0
  138.0140   81.8840  223.1270 C   0  0  0  0  0  0  0  0  0  0  0  0
  138.6690   80.8480  222.2880 C   0  0  1  0  0  0  0  0  0  0  0  0
  140.0290   80.5420  222.7830 C   0  0  0  0  0  0  0  0  0  0  0  0
  141.0670   81.3820  222.6650 N   0  0  0  0  0  0  0  0  0  0  0  0
  142.2900   81.0460  223.1380 C   0  0  0  0  0  0  0  0  0  0  0  0
  142.4950   79.8340  223.7510 C   0  0  0  0  0  0  0  0  0  0  0  0
  141.4270   78.9680  223.8740 C   0  0  0  0  0  0  0  0  0  0  0  0
  140.2370   79.3690  223.3790 N   0  0  0  0  0  0  0  0  0  0  0  0
  138.5880   75.6170  221.8160 C   0  0  0  0  0  0  0  0  0  0  0  0
  138.5000   74.6140  221.0670 O   0  0  0  0  0  0  0  0  0  0  0  0
  139.8630   76.0790  222.3640 C   0  0  0  0  0  0  0  0  0  0  0  0
  140.3110   77.2150  221.5700 N   0  0  0  0  0  0  0  0  0  0  0  0
  141.2270   76.9810  220.5200 C   0  0  0  0  0  0  0  0  0  0  0  0
  141.6510   75.8220  220.2680 O   0  0  0  0  0  0  0  0  0  0  0  0
  141.7060   78.0980  219.6940 C   0  0  0  0  0  0  0  0  0  0  0  0
  142.5190   77.8890  218.6240 C   0  0  0  0  0  0  0  0  0  0  0  0
  142.9520   78.9700  217.8660 C   0  0  0  0  0  0  0  0  0  0  0  0
  142.5580   80.2570  218.1960 C   0  0  0  0  0  0  0  0  0  0  0  0
  142.9850   81.3520  217.4460 C   0  0  0  0  0  0  0  0  0  0  0  0
  142.5480   82.6000  217.8420 C   0  0  0  0  0  0  0  0  0  0  0  0
  143.0460   84.0060  216.9440 Cl  0  0  0  0  0  0  0  0  0  0  0  0
  141.7270   82.7540  218.9320 C   0  0  0  0  0  0  0  0  0  0  0  0
  141.3140   81.6710  219.6620 C   0  0  0  0  0  0  0  0  0  0  0  0
  141.7360   80.4140  219.2880 C   0  0  0  0  0  0  0  0  0  0  0  0
  141.3380   79.3490  219.9950 N   0  0  0  0  0  0  0  0  0  0  0  0
  137.0548   76.1478  224.2115 H   0  0  0  0  0  0  0  0  0  0  0  0
  135.5623   76.3296  223.2285 H   0  0  0  0  0  0  0  0  0  0  0  0
  136.4533   74.7699  223.2285 H   0  0  0  0  0  0  0  0  0  0  0  0
  136.9702   77.1143  220.2973 H   0  0  0  0  0  0  0  0  0  0  0  0
  136.0002   77.7338  221.7747 H   0  0  0  0  0  0  0  0  0  0  0  0
  136.4162   79.0727  223.8737 H   0  0  0  0  0  0  0  0  0  0  0  0
  137.9513   79.5258  224.5533 H   0  0  0  0  0  0  0  0  0  0  0  0
  135.9218   81.3576  223.0409 H   0  0  0  0  0  0  0  0  0  0  0  0
  136.4692   81.6252  224.6648 H   0  0  0  0  0  0  0  0  0  0  0  0
  137.7311   82.7529  222.5146 H   0  0  0  0  0  0  0  0  0  0  0  0
  138.6841   82.2544  223.9168 H   0  0  0  0  0  0  0  0  0  0  0  0
  138.7533   81.1987  221.2488 H   0  0  0  0  0  0  0  0  0  0  0  0
  143.1279   81.7505  223.0304 H   0  0  0  0  0  0  0  0  0  0  0  0
  143.4884   79.5595  224.1355 H   0  0  0  0  0  0  0  0  0  0  0  0
  141.5416   77.9868  224.3578 H   0  0  0  0  0  0  0  0  0  0  0  0
  139.7293   76.3859  223.4118 H   0  0  0  0  0  0  0  0  0  0  0  0
  140.6086   75.2710  222.3283 H   0  0  0  0  0  0  0  0  0  0  0  0
  139.9760   78.1940  221.7550 H   0  0  0  0  0  0  0  0  0  0  0  0
  142.8325   76.8683  218.3597 H   0  0  0  0  0  0  0  0  0  0  0  0
  143.6102   78.8036  217.0005 H   0  0  0  0  0  0  0  0  0  0  0  0
  143.6436   81.2264  216.5739 H   0  0  0  0  0  0  0  0  0  0  0  0
  141.3962   83.7619  219.2232 H   0  0  0  0  0  0  0  0  0  0  0  0
  140.6556   81.8029  220.5333 H   0  0  0  0  0  0  0  0  0  0  0  0
  1  2  1  0
  2  3  1  0
  3  4  1  0
  4  5  2  0
  4  6  1  0
  6  7  1  0
  7  8  1  0
  8  9  1  0
  9 10  1  0
 10 11  1  0
 11 12  2  0
 12 13  1  0
 13 14  2  0
 14 15  1  0
 15 16  2  0
  2 17  1  0
 17 18  2  0
 17 19  1  0
 19 20  1  0
 20 21  1  0
 21 22  2  0
 21 23  1  0
 23 24  2  0
 24 25  1  0
 25 26  2  0
 26 27  1  0
 27 28  2  0
 28 29  1  0
 28 30  1  0
 30 31  2  0
 31 32  1  0
 32 33  2  0
 10  6  1  0
 16 11  1  0
 33 23  1  0
 32 26  1  0
  1 34  1  0
  1 35  1  0
  1 36  1  0
  3 37  1  0
  3 38  1  0
  7 39  1  0
  7 40  1  0
  8 41  1  0
  8 42  1  0
  9 43  1  0
  9 44  1  0
 10 45  1  6
 13 46  1  0
 14 47  1  0
 15 48  1  0
 19 49  1  0
 19 50  1  0
 20 51  1  0
 24 52  1  0
 25 53  1  0
 27 54  1  0
 30 55  1  0
 31 56  1  0
M  END
>  <smiles>  (49) 
CN(CC(=O)N1CCC[C@H]1c1ncccn1)C(=O)CNC(=O)c1ccc2cc(Cl)ccc2n1

>  <score_type>  (49) 
oracle

>  <origin>  (49) 
autodockgpu

>  <m_score__min__energy>  (49) 
-8.5

>  <m_primary>  (49) 
energy

>  <rmsd>  (49) 
8.878386287792475

>  <m_score__min__rmsd>  (49) 
8.878386287792475

>  <meeko>  (49) 
{"free_energy": -5.07, "intermolecular_energy": -7.46, "internal_energy": -4.99, "cluster_size": 1, "cluster_id": 13, "rank_in_cluster": 1}

>  <energy>  (49) 
-5.04

>  <cluster_rmsd>  (49) 
0.0

>  <cluster>  (49) 
14

$$$$

     RDKit          3D

 56 59  0  0  0  0  0  0  0  0999 V2000
  137.2120   81.1560  225.0550 C   0  0  0  0  0  0  0  0  0  0  0  0
  137.8920   81.0000  223.7590 N   0  0  0  0  0  0  0  0  0  0  0  0
  137.6700   81.9110  222.6910 C   0  0  0  0  0  0  0  0  0  0  0  0
  138.3090   81.6660  221.4040 C   0  0  0  0  0  0  0  0  0  0  0  0
  137.6070   80.9210  220.5970 O   0  0  0  0  0  0  0  0  0  0  0  0
  139.5410   82.1080  220.9280 N   0  0  0  0  0  0  0  0  0  0  0  0
  140.1310   83.3920  220.6800 C   0  0  0  0  0  0  0  0  0  0  0  0
  140.7440   83.1750  219.2870 C   0  0  0  0  0  0  0  0  0  0  0  0
  141.4160   81.8540  219.4890 C   0  0  0  0  0  0  0  0  0  0  0  0
  140.6200   81.1610  220.5330 C   0  0  1  0  0  0  0  0  0  0  0  0
  141.4440   80.8740  221.7290 C   0  0  0  0  0  0  0  0  0  0  0  0
  142.1560   79.7500  221.8860 N   0  0  0  0  0  0  0  0  0  0  0  0
  142.8910   79.5430  223.0040 C   0  0  0  0  0  0  0  0  0  0  0  0
  142.9240   80.4840  224.0040 C   0  0  0  0  0  0  0  0  0  0  0  0
  142.1910   81.6430  223.8440 C   0  0  0  0  0  0  0  0  0  0  0  0
  141.4820   81.7800  222.7040 N   0  0  0  0  0  0  0  0  0  0  0  0
  138.8080   79.8920  223.5860 C   0  0  0  0  0  0  0  0  0  0  0  0
  139.8920   79.9340  224.2160 O   0  0  0  0  0  0  0  0  0  0  0  0
  138.4530   78.7810  222.7040 C   0  0  0  0  0  0  0  0  0  0  0  0
  139.6840   78.1170  222.2950 N   0  0  0  0  0  0  0  0  0  0  0  0
  139.5910   76.9980  221.4380 C   0  0  0  0  0  0  0  0  0  0  0  0
  138.4750   76.5760  221.0320 O   0  0  0  0  0  0  0  0  0  0  0  0
  140.8050   76.2980  221.0010 C   0  0  0  0  0  0  0  0  0  0  0  0
  141.7960   76.9480  220.3320 C   0  0  0  0  0  0  0  0  0  0  0  0
  142.9310   76.2530  219.9350 C   0  0  0  0  0  0  0  0  0  0  0  0
  143.0570   74.9020  220.2170 C   0  0  0  0  0  0  0  0  0  0  0  0
  144.1890   74.1900  219.8240 C   0  0  0  0  0  0  0  0  0  0  0  0
  144.2360   72.8480  220.1440 C   0  0  0  0  0  0  0  0  0  0  0  0
  145.6250   71.9050  219.6810 Cl  0  0  0  0  0  0  0  0  0  0  0  0
  143.2070   72.2410  220.8210 C   0  0  0  0  0  0  0  0  0  0  0  0
  142.0990   72.9500  221.2020 C   0  0  0  0  0  0  0  0  0  0  0  0
  142.0270   74.2900  220.8950 C   0  0  0  0  0  0  0  0  0  0  0  0
  140.9480   74.9940  221.2630 N   0  0  0  0  0  0  0  0  0  0  0  0
  137.9327   80.9907  225.8694 H   0  0  0  0  0  0  0  0  0  0  0  0
  136.7984   82.1724  225.1321 H   0  0  0  0  0  0  0  0  0  0  0  0
  136.3967   80.4216  225.1321 H   0  0  0  0  0  0  0  0  0  0  0  0
  136.5851   81.9377  222.5114 H   0  0  0  0  0  0  0  0  0  0  0  0
  138.1357   82.8440  223.0413 H   0  0  0  0  0  0  0  0  0  0  0  0
  139.3724   84.1885  220.6669 H   0  0  0  0  0  0  0  0  0  0  0  0
  140.8526   83.7127  221.4458 H   0  0  0  0  0  0  0  0  0  0  0  0
  139.9707   83.1223  218.5065 H   0  0  0  0  0  0  0  0  0  0  0  0
  141.4105   83.9818  218.9483 H   0  0  0  0  0  0  0  0  0  0  0  0
  141.4127   81.2739  218.5544 H   0  0  0  0  0  0  0  0  0  0  0  0
  142.4678   81.9722  219.7884 H   0  0  0  0  0  0  0  0  0  0  0  0
  140.2336   80.2070  220.1448 H   0  0  0  0  0  0  0  0  0  0  0  0
  143.4673   78.6123  223.1125 H   0  0  0  0  0  0  0  0  0  0  0  0
  143.5214   80.3178  224.9126 H   0  0  0  0  0  0  0  0  0  0  0  0
  142.1851   82.4256  224.6170 H   0  0  0  0  0  0  0  0  0  0  0  0
  137.8067   78.0708  223.2405 H   0  0  0  0  0  0  0  0  0  0  0  0
  137.9093   79.1524  221.8229 H   0  0  0  0  0  0  0  0  0  0  0  0
  140.6290   78.4440  222.6160 H   0  0  0  0  0  0  0  0  0  0  0  0
  141.6984   78.0202  220.1065 H   0  0  0  0  0  0  0  0  0  0  0  0
  143.7331   76.7770  219.3946 H   0  0  0  0  0  0  0  0  0  0  0  0
  145.0117   74.6778  219.2808 H   0  0  0  0  0  0  0  0  0  0  0  0
  143.2737   71.1695  221.0608 H   0  0  0  0  0  0  0  0  0  0  0  0
  141.2794   72.4564  221.7448 H   0  0  0  0  0  0  0  0  0  0  0  0
  1  2  1  0
  2  3  1  0
  3  4  1  0
  4  5  2  0
  4  6  1  0
  6  7  1  0
  7  8  1  0
  8  9  1  0
  9 10  1  0
 10 11  1  0
 11 12  2  0
 12 13  1  0
 13 14  2  0
 14 15  1  0
 15 16  2  0
  2 17  1  0
 17 18  2  0
 17 19  1  0
 19 20  1  0
 20 21  1  0
 21 22  2  0
 21 23  1  0
 23 24  2  0
 24 25  1  0
 25 26  2  0
 26 27  1  0
 27 28  2  0
 28 29  1  0
 28 30  1  0
 30 31  2  0
 31 32  1  0
 32 33  2  0
 10  6  1  0
 16 11  1  0
 33 23  1  0
 32 26  1  0
  1 34  1  0
  1 35  1  0
  1 36  1  0
  3 37  1  0
  3 38  1  0
  7 39  1  0
  7 40  1  0
  8 41  1  0
  8 42  1  0
  9 43  1  0
  9 44  1  0
 10 45  1  6
 13 46  1  0
 14 47  1  0
 15 48  1  0
 19 49  1  0
 19 50  1  0
 20 51  1  0
 24 52  1  0
 25 53  1  0
 27 54  1  0
 30 55  1  0
 31 56  1  0
M  END
>  <smiles>  (50) 
CN(CC(=O)N1CCC[C@H]1c1ncccn1)C(=O)CNC(=O)c1ccc2cc(Cl)ccc2n1

>  <score_type>  (50) 
oracle

>  <origin>  (50) 
autodockgpu

>  <m_score__min__energy>  (50) 
-8.5

>  <m_primary>  (50) 
energy

>  <rmsd>  (50) 
6.8266371795216205

>  <m_score__min__rmsd>  (50) 
6.8266371795216205

>  <meeko>  (50) 
{"free_energy": -6.08, "intermolecular_energy": -8.47, "internal_energy": -3.96, "cluster_size": 4, "cluster_id": 7, "rank_in_cluster": 2}

>  <energy>  (50) 
-4.97

>  <cluster_rmsd>  (50) 
0.0

>  <cluster>  (50) 
15

$$$$
