
     RDKit          3D

 50 53  0  0  0  0  0  0  0  0999 V2000
  141.7060   77.1660  219.5110 C   0  0  0  0  0  0  0  0  0  0  0  0
  141.5920   76.5800  220.9110 C   0  0  2  0  0  0  0  0  0  0  0  0
  141.0700   75.2170  220.7280 N   0  0  0  0  0  0  0  0  0  0  0  0
  141.9680   74.1620  220.4880 C   0  0  0  0  0  0  0  0  0  0  0  0
  143.2060   74.4700  220.4490 O   0  0  0  0  0  0  0  0  0  0  0  0
  141.6260   72.7560  220.2810 C   0  0  0  0  0  0  0  0  0  0  0  0
  141.3530   72.0010  221.4820 N   0  0  0  0  0  0  0  0  0  0  0  0
  140.4230   72.4500  222.4620 C   0  0  0  0  0  0  0  0  0  0  0  0
  139.7730   73.5360  222.3400 O   0  0  0  0  0  0  0  0  0  0  0  0
  140.1960   71.6280  223.6720 C   0  0  0  0  0  0  0  0  0  0  0  0
  139.4630   70.4620  223.5860 C   0  0  0  0  0  0  0  0  0  0  0  0
  139.2750   69.7220  224.7500 C   0  0  0  0  0  0  0  0  0  0  0  0
  139.8080   70.1410  225.9650 C   0  0  0  0  0  0  0  0  0  0  0  0
  139.6150   69.3930  227.1250 C   0  0  0  0  0  0  0  0  0  0  0  0
  140.1670   69.8480  228.3260 C   0  0  0  0  0  0  0  0  0  0  0  0
  140.8910   71.0300  228.3280 C   0  0  0  0  0  0  0  0  0  0  0  0
  141.0900   71.7780  227.1940 C   0  0  0  0  0  0  0  0  0  0  0  0
  140.5380   71.3170  226.0070 C   0  0  0  0  0  0  0  0  0  0  0  0
  140.7030   72.0120  224.8670 N   0  0  0  0  0  0  0  0  0  0  0  0
  140.6130   77.3260  221.7300 C   0  0  0  0  0  0  0  0  0  0  0  0
  139.3060   76.9330  221.9190 C   0  0  0  0  0  0  0  0  0  0  0  0
  138.4100   77.6540  222.7020 C   0  0  0  0  0  0  0  0  0  0  0  0
  138.8050   78.8130  223.3340 C   0  0  0  0  0  0  0  0  0  0  0  0
  140.1030   79.2220  223.1600 C   0  0  0  0  0  0  0  0  0  0  0  0
  140.4800   80.3910  223.8020 C   0  0  0  0  0  0  0  0  0  0  0  0
  141.7580   80.8740  223.6790 C   0  0  0  0  0  0  0  0  0  0  0  0
  142.6510   80.1890  222.9190 C   0  0  0  0  0  0  0  0  0  0  0  0
  142.2690   79.0180  222.2770 C   0  0  0  0  0  0  0  0  0  0  0  0
  140.9960   78.4980  222.3740 C   0  0  0  0  0  0  0  0  0  0  0  0
  141.9156   78.2436  219.5805 H   0  0  0  0  0  0  0  0  0  0  0  0
  142.5240   76.6675  218.9703 H   0  0  0  0  0  0  0  0  0  0  0  0
  140.7608   77.0105  218.9703 H   0  0  0  0  0  0  0  0  0  0  0  0
  142.5672   76.6183  221.4185 H   0  0  0  0  0  0  0  0  0  0  0  0
  140.0520   75.0290  220.7790 H   0  0  0  0  0  0  0  0  0  0  0  0
  140.7305   72.7149  219.6435 H   0  0  0  0  0  0  0  0  0  0  0  0
  142.5139   72.2920  219.8268 H   0  0  0  0  0  0  0  0  0  0  0  0
  141.8260   71.0910  221.6820 H   0  0  0  0  0  0  0  0  0  0  0  0
  139.0402   70.1276  222.6271 H   0  0  0  0  0  0  0  0  0  0  0  0
  138.6943   68.7887  224.7084 H   0  0  0  0  0  0  0  0  0  0  0  0
  139.0365   68.4578  227.0959 H   0  0  0  0  0  0  0  0  0  0  0  0
  140.0289   69.2765  229.2557 H   0  0  0  0  0  0  0  0  0  0  0  0
  141.3234   71.3828  229.2759 H   0  0  0  0  0  0  0  0  0  0  0  0
  141.6686   72.7130  227.2253 H   0  0  0  0  0  0  0  0  0  0  0  0
  138.9566   76.0113  221.4308 H   0  0  0  0  0  0  0  0  0  0  0  0
  137.3765   77.2954  222.8176 H   0  0  0  0  0  0  0  0  0  0  0  0
  138.1046   79.3898  223.9559 H   0  0  0  0  0  0  0  0  0  0  0  0
  139.7479   80.9364  224.4157 H   0  0  0  0  0  0  0  0  0  0  0  0
  142.0551   81.8025  224.1885 H   0  0  0  0  0  0  0  0  0  0  0  0
  143.6800   80.5627  222.8115 H   0  0  0  0  0  0  0  0  0  0  0  0
  143.0122   78.4841  221.6666 H   0  0  0  0  0  0  0  0  0  0  0  0
  1  2  1  0
  2  3  1  0
  3  4  1  0
  4  5  2  0
  4  6  1  0
  6  7  1  0
  7  8  1  0
  8  9  2  0
  8 10  1  0
 10 11  2  0
 11 12  1  0
 12 13  2  0
 13 14  1  0
 14 15  2  0
 15 16  1  0
 16 17  2  0
 17 18  1  0
 18 19  2  0
  2 20  1  0
 20 21  2  0
 21 22  1  0
 22 23  2  0
 23 24  1  0
 24 25  2  0
 25 26  1  0
 26 27  2  0
 27 28  1  0
 28 29  2  0
 19 10  1  0
 29 20  1  0
 18 13  1  0
 29 24  1  0
  1 30  1  0
  1 31  1  0
  1 32  1  0
  2 33  1  1
  3 34  1  0
  6 35  1  0
  6 36  1  0
  7 37  1  0
 11 38  1  0
 12 39  1  0
 14 40  1  0
 15 41  1  0
 16 42  1  0
 17 43  1  0
 21 44  1  0
 22 45  1  0
 23 46  1  0
 25 47  1  0
 26 48  1  0
 27 49  1  0
 28 50  1  0
M  END
>  <smiles>  (1) 
C[C@H](NC(=O)CNC(=O)c1ccc2ccccc2n1)c1cccc2ccccc12

>  <score_type>  (1) 
oracle

>  <origin>  (1) 
autodockgpu

>  <m_score__min__energy>  (1) 
-10.210000000000001

>  <m_primary>  (1) 
energy

>  <rmsd>  (1) 
4.579811784371984

>  <m_score__min__rmsd>  (1) 
4.579811784371984

>  <meeko>  (1) 
{"free_energy": -9.47, "intermolecular_energy": -10.96, "internal_energy": -1.76, "cluster_size": 14, "cluster_id": 1, "rank_in_cluster": 11}

>  <energy>  (1) 
-10.21

>  <cluster_rmsd>  (1) 
0.0

>  <cluster>  (1) 
1

$$$$

     RDKit          3D

 50 53  0  0  0  0  0  0  0  0999 V2000
  141.2940   76.6910  220.3500 C   0  0  0  0  0  0  0  0  0  0  0  0
  141.0920   76.5220  221.8490 C   0  0  2  0  0  0  0  0  0  0  0  0
  140.3240   75.2780  222.0070 N   0  0  0  0  0  0  0  0  0  0  0  0
  139.1970   75.0560  221.1950 C   0  0  0  0  0  0  0  0  0  0  0  0
  138.9180   75.9730  220.3530 O   0  0  0  0  0  0  0  0  0  0  0  0
  138.3220   73.8860  221.2190 C   0  0  0  0  0  0  0  0  0  0  0  0
  138.4910   73.0080  222.3540 N   0  0  0  0  0  0  0  0  0  0  0  0
  139.7330   72.3760  222.6430 C   0  0  0  0  0  0  0  0  0  0  0  0
  140.7690   72.5470  221.9270 O   0  0  0  0  0  0  0  0  0  0  0  0
  139.8320   71.4840  223.8200 C   0  0  0  0  0  0  0  0  0  0  0  0
  139.3570   70.1910  223.7480 C   0  0  0  0  0  0  0  0  0  0  0  0
  139.4710   69.3890  224.8790 C   0  0  0  0  0  0  0  0  0  0  0  0
  140.0450   69.8710  226.0510 C   0  0  0  0  0  0  0  0  0  0  0  0
  140.1560   69.0610  227.1790 C   0  0  0  0  0  0  0  0  0  0  0  0
  140.7400   69.5840  228.3370 C   0  0  0  0  0  0  0  0  0  0  0  0
  141.1930   70.8940  228.3280 C   0  0  0  0  0  0  0  0  0  0  0  0
  141.0920   71.7050  227.2240 C   0  0  0  0  0  0  0  0  0  0  0  0
  140.5110   71.1760  226.0810 C   0  0  0  0  0  0  0  0  0  0  0  0
  140.3870   71.9280  224.9730 N   0  0  0  0  0  0  0  0  0  0  0  0
  140.2780   77.6210  222.4110 C   0  0  0  0  0  0  0  0  0  0  0  0
  138.9130   77.5620  222.5820 C   0  0  0  0  0  0  0  0  0  0  0  0
  138.1760   78.6120  223.1210 C   0  0  0  0  0  0  0  0  0  0  0  0
  138.7980   79.7770  223.5140 C   0  0  0  0  0  0  0  0  0  0  0  0
  140.1580   79.8580  223.3530 C   0  0  0  0  0  0  0  0  0  0  0  0
  140.7650   81.0380  223.7520 C   0  0  0  0  0  0  0  0  0  0  0  0
  142.1200   81.2050  223.6240 C   0  0  0  0  0  0  0  0  0  0  0  0
  142.8620   80.1940  223.1000 C   0  0  0  0  0  0  0  0  0  0  0  0
  142.2490   79.0130  222.7010 C   0  0  0  0  0  0  0  0  0  0  0  0
  140.8920   78.8040  222.8120 C   0  0  0  0  0  0  0  0  0  0  0  0
  142.1261   77.3871  220.1683 H   0  0  0  0  0  0  0  0  0  0  0  0
  141.5273   75.7151  219.8991 H   0  0  0  0  0  0  0  0  0  0  0  0
  140.3747   77.0929  219.8991 H   0  0  0  0  0  0  0  0  0  0  0  0
  142.0643   76.5134  222.3634 H   0  0  0  0  0  0  0  0  0  0  0  0
  140.6080   74.5660  222.7050 H   0  0  0  0  0  0  0  0  0  0  0  0
  137.2809   74.2410  221.2168 H   0  0  0  0  0  0  0  0  0  0  0  0
  138.5884   73.2905  220.3333 H   0  0  0  0  0  0  0  0  0  0  0  0
  137.7070   72.8010  223.0140 H   0  0  0  0  0  0  0  0  0  0  0  0
  138.9016   69.8055  222.8239 H   0  0  0  0  0  0  0  0  0  0  0  0
  139.1002   68.3539  224.8460 H   0  0  0  0  0  0  0  0  0  0  0  0
  139.7893   68.0241  227.1590 H   0  0  0  0  0  0  0  0  0  0  0  0
  140.8384   68.9653  229.2412 H   0  0  0  0  0  0  0  0  0  0  0  0
  141.6517   71.3004  229.2415 H   0  0  0  0  0  0  0  0  0  0  0  0
  141.4603   72.7413  227.2457 H   0  0  0  0  0  0  0  0  0  0  0  0
  138.3830   76.6466  222.2799 H   0  0  0  0  0  0  0  0  0  0  0  0
  137.0865   78.5111  223.2344 H   0  0  0  0  0  0  0  0  0  0  0  0
  138.2244   80.6125  223.9417 H   0  0  0  0  0  0  0  0  0  0  0  0
  140.1539   81.8487  224.1756 H   0  0  0  0  0  0  0  0  0  0  0  0
  142.5992   82.1431  223.9406 H   0  0  0  0  0  0  0  0  0  0  0  0
  143.9504   80.3112  222.9916 H   0  0  0  0  0  0  0  0  0  0  0  0
  142.8731   78.2115  222.2789 H   0  0  0  0  0  0  0  0  0  0  0  0
  1  2  1  0
  2  3  1  0
  3  4  1  0
  4  5  2  0
  4  6  1  0
  6  7  1  0
  7  8  1  0
  8  9  2  0
  8 10  1  0
 10 11  2  0
 11 12  1  0
 12 13  2  0
 13 14  1  0
 14 15  2  0
 15 16  1  0
 16 17  2  0
 17 18  1  0
 18 19  2  0
  2 20  1  0
 20 21  2  0
 21 22  1  0
 22 23  2  0
 23 24  1  0
 24 25  2  0
 25 26  1  0
 26 27  2  0
 27 28  1  0
 28 29  2  0
 19 10  1  0
 29 20  1  0
 18 13  1  0
 29 24  1  0
  1 30  1  0
  1 31  1  0
  1 32  1  0
  2 33  1  1
  3 34  1  0
  6 35  1  0
  6 36  1  0
  7 37  1  0
 11 38  1  0
 12 39  1  0
 14 40  1  0
 15 41  1  0
 16 42  1  0
 17 43  1  0
 21 44  1  0
 22 45  1  0
 23 46  1  0
 25 47  1  0
 26 48  1  0
 27 49  1  0
 28 50  1  0
M  END
>  <smiles>  (2) 
C[C@H](NC(=O)CNC(=O)c1ccc2ccccc2n1)c1cccc2ccccc12

>  <score_type>  (2) 
oracle

>  <origin>  (2) 
autodockgpu

>  <m_score__min__energy>  (2) 
-10.210000000000001

>  <m_primary>  (2) 
energy

>  <rmsd>  (2) 
4.498500187089799

>  <m_score__min__rmsd>  (2) 
4.498500187089799

>  <meeko>  (2) 
{"free_energy": -9.52, "intermolecular_energy": -11.02, "internal_energy": -0.92, "cluster_size": 26, "cluster_id": 2, "rank_in_cluster": 22}

>  <energy>  (2) 
-10.0

>  <cluster_rmsd>  (2) 
1.15

>  <cluster>  (2) 
1

$$$$

     RDKit          3D

 50 53  0  0  0  0  0  0  0  0999 V2000
  141.7250   77.1320  219.5030 C   0  0  0  0  0  0  0  0  0  0  0  0
  141.6190   76.5310  220.8970 C   0  0  2  0  0  0  0  0  0  0  0  0
  141.1040   75.1680  220.7030 N   0  0  0  0  0  0  0  0  0  0  0  0
  142.0100   74.1130  220.4910 C   0  0  0  0  0  0  0  0  0  0  0  0
  143.2480   74.4220  220.4880 O   0  0  0  0  0  0  0  0  0  0  0  0
  141.6750   72.7060  220.2780 C   0  0  0  0  0  0  0  0  0  0  0  0
  141.3890   71.9490  221.4740 N   0  0  0  0  0  0  0  0  0  0  0  0
  140.4740   72.4120  222.4610 C   0  0  0  0  0  0  0  0  0  0  0  0
  139.8490   73.5130  222.3500 O   0  0  0  0  0  0  0  0  0  0  0  0
  140.2330   71.5850  223.6660 C   0  0  0  0  0  0  0  0  0  0  0  0
  139.4930   70.4250  223.5700 C   0  0  0  0  0  0  0  0  0  0  0  0
  139.2920   69.6810  224.7280 C   0  0  0  0  0  0  0  0  0  0  0  0
  139.8170   70.0910  225.9490 C   0  0  0  0  0  0  0  0  0  0  0  0
  139.6110   69.3390  227.1050 C   0  0  0  0  0  0  0  0  0  0  0  0
  140.1560   69.7850  228.3120 C   0  0  0  0  0  0  0  0  0  0  0  0
  140.8860   70.9630  228.3250 C   0  0  0  0  0  0  0  0  0  0  0  0
  141.1000   71.7150  227.1950 C   0  0  0  0  0  0  0  0  0  0  0  0
  140.5540   71.2620  226.0020 C   0  0  0  0  0  0  0  0  0  0  0  0
  140.7320   71.9610  224.8670 N   0  0  0  0  0  0  0  0  0  0  0  0
  140.6390   77.2630  221.7280 C   0  0  0  0  0  0  0  0  0  0  0  0
  139.3410   76.8510  221.9320 C   0  0  0  0  0  0  0  0  0  0  0  0
  138.4430   77.5600  222.7250 C   0  0  0  0  0  0  0  0  0  0  0  0
  138.8280   78.7250  223.3510 C   0  0  0  0  0  0  0  0  0  0  0  0
  140.1170   79.1540  223.1610 C   0  0  0  0  0  0  0  0  0  0  0  0
  140.4840   80.3300  223.7960 C   0  0  0  0  0  0  0  0  0  0  0  0
  141.7530   80.8310  223.6590 C   0  0  0  0  0  0  0  0  0  0  0  0
  142.6480   80.1580  222.8880 C   0  0  0  0  0  0  0  0  0  0  0  0
  142.2750   78.9810  222.2530 C   0  0  0  0  0  0  0  0  0  0  0  0
  141.0120   78.4420  222.3650 C   0  0  0  0  0  0  0  0  0  0  0  0
  141.9156   78.2124  219.5830 H   0  0  0  0  0  0  0  0  0  0  0  0
  142.5525   76.6530  218.9592 H   0  0  0  0  0  0  0  0  0  0  0  0
  140.7835   76.9650  218.9592 H   0  0  0  0  0  0  0  0  0  0  0  0
  142.5962   76.5697  221.4005 H   0  0  0  0  0  0  0  0  0  0  0  0
  140.0850   74.9790  220.7250 H   0  0  0  0  0  0  0  0  0  0  0  0
  140.7879   72.6629  219.6290 H   0  0  0  0  0  0  0  0  0  0  0  0
  142.5702   72.2453  219.8348 H   0  0  0  0  0  0  0  0  0  0  0  0
  141.8420   71.0260  221.6660 H   0  0  0  0  0  0  0  0  0  0  0  0
  139.0744   70.0981  222.6067 H   0  0  0  0  0  0  0  0  0  0  0  0
  138.7069   68.7509  224.6771 H   0  0  0  0  0  0  0  0  0  0  0  0
  139.0274   68.4073  227.0674 H   0  0  0  0  0  0  0  0  0  0  0  0
  140.0078   69.2098  229.2378 H   0  0  0  0  0  0  0  0  0  0  0  0
  141.3112   71.3100  229.2783 H   0  0  0  0  0  0  0  0  0  0  0  0
  141.6850   72.6457  227.2346 H   0  0  0  0  0  0  0  0  0  0  0  0
  138.9997   75.9237  221.4486 H   0  0  0  0  0  0  0  0  0  0  0  0
  137.4163   77.1864  222.8529 H   0  0  0  0  0  0  0  0  0  0  0  0
  138.1265   79.2914  223.9811 H   0  0  0  0  0  0  0  0  0  0  0  0
  139.7504   80.8665  224.4157 H   0  0  0  0  0  0  0  0  0  0  0  0
  142.0426   81.7636  224.1654 H   0  0  0  0  0  0  0  0  0  0  0  0
  143.6698   80.5468  222.7670 H   0  0  0  0  0  0  0  0  0  0  0  0
  143.0188   78.4570  221.6348 H   0  0  0  0  0  0  0  0  0  0  0  0
  1  2  1  0
  2  3  1  0
  3  4  1  0
  4  5  2  0
  4  6  1  0
  6  7  1  0
  7  8  1  0
  8  9  2  0
  8 10  1  0
 10 11  2  0
 11 12  1  0
 12 13  2  0
 13 14  1  0
 14 15  2  0
 15 16  1  0
 16 17  2  0
 17 18  1  0
 18 19  2  0
  2 20  1  0
 20 21  2  0
 21 22  1  0
 22 23  2  0
 23 24  1  0
 24 25  2  0
 25 26  1  0
 26 27  2  0
 27 28  1  0
 28 29  2  0
 19 10  1  0
 29 20  1  0
 18 13  1  0
 29 24  1  0
  1 30  1  0
  1 31  1  0
  1 32  1  0
  2 33  1  1
  3 34  1  0
  6 35  1  0
  6 36  1  0
  7 37  1  0
 11 38  1  0
 12 39  1  0
 14 40  1  0
 15 41  1  0
 16 42  1  0
 17 43  1  0
 21 44  1  0
 22 45  1  0
 23 46  1  0
 25 47  1  0
 26 48  1  0
 27 49  1  0
 28 50  1  0
M  END
>  <smiles>  (3) 
C[C@H](NC(=O)CNC(=O)c1ccc2ccccc2n1)c1cccc2ccccc12

>  <score_type>  (3) 
oracle

>  <origin>  (3) 
autodockgpu

>  <m_score__min__energy>  (3) 
-10.210000000000001

>  <m_primary>  (3) 
energy

>  <rmsd>  (3) 
4.605270691661705

>  <m_score__min__rmsd>  (3) 
4.605270691661705

>  <meeko>  (3) 
{"free_energy": -9.46, "intermolecular_energy": -10.95, "internal_energy": -1.73, "cluster_size": 14, "cluster_id": 1, "rank_in_cluster": 13}

>  <energy>  (3) 
-9.78

>  <cluster_rmsd>  (3) 
0.84

>  <cluster>  (3) 
1

$$$$

     RDKit          3D

 50 53  0  0  0  0  0  0  0  0999 V2000
  140.6320   77.6500  219.5140 C   0  0  0  0  0  0  0  0  0  0  0  0
  140.5750   77.1180  220.9390 C   0  0  2  0  0  0  0  0  0  0  0  0
  139.5890   76.0270  220.9160 N   0  0  0  0  0  0  0  0  0  0  0  0
  139.9060   74.8000  221.5230 C   0  0  0  0  0  0  0  0  0  0  0  0
  141.0550   74.7190  222.0720 O   0  0  0  0  0  0  0  0  0  0  0  0
  139.0530   73.6150  221.5910 C   0  0  0  0  0  0  0  0  0  0  0  0
  139.3200   72.7200  222.6930 N   0  0  0  0  0  0  0  0  0  0  0  0
  138.8670   71.3710  222.6980 C   0  0  0  0  0  0  0  0  0  0  0  0
  138.2070   70.8680  221.7360 O   0  0  0  0  0  0  0  0  0  0  0  0
  139.1720   70.5110  223.8650 C   0  0  0  0  0  0  0  0  0  0  0  0
  138.8300   69.1750  223.8450 C   0  0  0  0  0  0  0  0  0  0  0  0
  139.1360   68.4050  224.9630 C   0  0  0  0  0  0  0  0  0  0  0  0
  139.7670   68.9630  226.0710 C   0  0  0  0  0  0  0  0  0  0  0  0
  140.0700   68.1850  227.1880 C   0  0  0  0  0  0  0  0  0  0  0  0
  140.7040   68.7820  228.2800 C   0  0  0  0  0  0  0  0  0  0  0  0
  141.0140   70.1330  228.2220 C   0  0  0  0  0  0  0  0  0  0  0  0
  140.7230   70.9130  227.1290 C   0  0  0  0  0  0  0  0  0  0  0  0
  140.0930   70.3080  226.0500 C   0  0  0  0  0  0  0  0  0  0  0  0
  139.7850   71.0270  224.9560 N   0  0  0  0  0  0  0  0  0  0  0  0
  140.0780   78.1460  221.8790 C   0  0  0  0  0  0  0  0  0  0  0  0
  138.7600   78.2720  222.2590 C   0  0  0  0  0  0  0  0  0  0  0  0
  138.3250   79.2470  223.1520 C   0  0  0  0  0  0  0  0  0  0  0  0
  139.2150   80.1430  223.7020 C   0  0  0  0  0  0  0  0  0  0  0  0
  140.5330   80.0350  223.3370 C   0  0  0  0  0  0  0  0  0  0  0  0
  141.4130   80.9470  223.8990 C   0  0  0  0  0  0  0  0  0  0  0  0
  142.7480   80.9130  223.5880 C   0  0  0  0  0  0  0  0  0  0  0  0
  143.1980   79.9700  222.7180 C   0  0  0  0  0  0  0  0  0  0  0  0
  142.3120   79.0590  222.1560 C   0  0  0  0  0  0  0  0  0  0  0  0
  140.9650   79.0580  222.4420 C   0  0  0  0  0  0  0  0  0  0  0  0
  140.7492   78.7435  219.5353 H   0  0  0  0  0  0  0  0  0  0  0  0
  141.4870   77.1998  218.9885 H   0  0  0  0  0  0  0  0  0  0  0  0
  139.7010   77.3912  218.9885 H   0  0  0  0  0  0  0  0  0  0  0  0
  141.5774   76.8048  221.2662 H   0  0  0  0  0  0  0  0  0  0  0  0
  138.6660   76.1570  220.4610 H   0  0  0  0  0  0  0  0  0  0  0  0
  138.0094   73.9527  221.6737 H   0  0  0  0  0  0  0  0  0  0  0  0
  139.2612   73.0397  220.6769 H   0  0  0  0  0  0  0  0  0  0  0  0
  139.8600   73.0250  223.5350 H   0  0  0  0  0  0  0  0  0  0  0  0
  138.3302   68.7313  222.9713 H   0  0  0  0  0  0  0  0  0  0  0  0
  138.8746   67.3365  224.9712 H   0  0  0  0  0  0  0  0  0  0  0  0
  139.8132   67.1156  227.2088 H   0  0  0  0  0  0  0  0  0  0  0  0
  140.9538   68.1898  229.1727 H   0  0  0  0  0  0  0  0  0  0  0  0
  141.5125   70.5981  229.0852 H   0  0  0  0  0  0  0  0  0  0  0  0
  140.9809   71.9822  227.1095 H   0  0  0  0  0  0  0  0  0  0  0  0
  138.0210   77.5735  221.8395 H   0  0  0  0  0  0  0  0  0  0  0  0
  137.2599   79.3026  223.4212 H   0  0  0  0  0  0  0  0  0  0  0  0
  138.8809   80.9172  224.4084 H   0  0  0  0  0  0  0  0  0  0  0  0
  141.0366   81.7053  224.6013 H   0  0  0  0  0  0  0  0  0  0  0  0
  143.4443   81.6375  224.0355 H   0  0  0  0  0  0  0  0  0  0  0  0
  144.2661   79.9282  222.4584 H   0  0  0  0  0  0  0  0  0  0  0  0
  142.7026   78.3078  221.4538 H   0  0  0  0  0  0  0  0  0  0  0  0
  1  2  1  0
  2  3  1  0
  3  4  1  0
  4  5  2  0
  4  6  1  0
  6  7  1  0
  7  8  1  0
  8  9  2  0
  8 10  1  0
 10 11  2  0
 11 12  1  0
 12 13  2  0
 13 14  1  0
 14 15  2  0
 15 16  1  0
 16 17  2  0
 17 18  1  0
 18 19  2  0
  2 20  1  0
 20 21  2  0
 21 22  1  0
 22 23  2  0
 23 24  1  0
 24 25  2  0
 25 26  1  0
 26 27  2  0
 27 28  1  0
 28 29  2  0
 19 10  1  0
 29 20  1  0
 18 13  1  0
 29 24  1  0
  1 30  1  0
  1 31  1  0
  1 32  1  0
  2 33  1  1
  3 34  1  0
  6 35  1  0
  6 36  1  0
  7 37  1  0
 11 38  1  0
 12 39  1  0
 14 40  1  0
 15 41  1  0
 16 42  1  0
 17 43  1  0
 21 44  1  0
 22 45  1  0
 23 46  1  0
 25 47  1  0
 26 48  1  0
 27 49  1  0
 28 50  1  0
M  END
>  <smiles>  (4) 
C[C@H](NC(=O)CNC(=O)c1ccc2ccccc2n1)c1cccc2ccccc12

>  <score_type>  (4) 
oracle

>  <origin>  (4) 
autodockgpu

>  <m_score__min__energy>  (4) 
-10.210000000000001

>  <m_primary>  (4) 
energy

>  <rmsd>  (4) 
4.558441634519459

>  <m_score__min__rmsd>  (4) 
4.558441634519459

>  <meeko>  (4) 
{"free_energy": -9.52, "intermolecular_energy": -11.01, "internal_energy": -1.56, "cluster_size": 26, "cluster_id": 2, "rank_in_cluster": 23}

>  <energy>  (4) 
-9.59

>  <cluster_rmsd>  (4) 
2.0

>  <cluster>  (4) 
1

$$$$

     RDKit          3D

 50 53  0  0  0  0  0  0  0  0999 V2000
  141.7130   77.1630  219.5690 C   0  0  0  0  0  0  0  0  0  0  0  0
  141.5750   76.5750  220.9660 C   0  0  2  0  0  0  0  0  0  0  0  0
  141.0250   75.2250  220.7740 N   0  0  0  0  0  0  0  0  0  0  0  0
  141.8970   74.1620  220.4760 C   0  0  0  0  0  0  0  0  0  0  0  0
  143.1370   74.4530  220.3970 O   0  0  0  0  0  0  0  0  0  0  0  0
  141.5260   72.7670  220.2520 C   0  0  0  0  0  0  0  0  0  0  0  0
  141.2800   71.9910  221.4460 N   0  0  0  0  0  0  0  0  0  0  0  0
  140.3550   72.4110  222.4430 C   0  0  0  0  0  0  0  0  0  0  0  0
  139.6860   73.4870  222.3440 O   0  0  0  0  0  0  0  0  0  0  0  0
  140.1570   71.5690  223.6450 C   0  0  0  0  0  0  0  0  0  0  0  0
  139.4070   70.4140  223.5610 C   0  0  0  0  0  0  0  0  0  0  0  0
  139.2470   69.6540  224.7160 C   0  0  0  0  0  0  0  0  0  0  0  0
  139.8230   70.0430  225.9210 C   0  0  0  0  0  0  0  0  0  0  0  0
  139.6580   69.2760  227.0730 C   0  0  0  0  0  0  0  0  0  0  0  0
  140.2540   69.7010  228.2640 C   0  0  0  0  0  0  0  0  0  0  0  0
  140.9920   70.8750  228.2640 C   0  0  0  0  0  0  0  0  0  0  0  0
  141.1650   71.6420  227.1380 C   0  0  0  0  0  0  0  0  0  0  0  0
  140.5690   71.2100  225.9610 C   0  0  0  0  0  0  0  0  0  0  0  0
  140.7060   71.9240  224.8300 N   0  0  0  0  0  0  0  0  0  0  0  0
  140.6050   77.3390  221.7800 C   0  0  0  0  0  0  0  0  0  0  0  0
  139.2930   76.9640  221.9700 C   0  0  0  0  0  0  0  0  0  0  0  0
  138.4060   77.7010  222.7490 C   0  0  0  0  0  0  0  0  0  0  0  0
  138.8140   78.8590  223.3720 C   0  0  0  0  0  0  0  0  0  0  0  0
  140.1170   79.2510  223.1960 C   0  0  0  0  0  0  0  0  0  0  0  0
  140.5090   80.4200  223.8300 C   0  0  0  0  0  0  0  0  0  0  0  0
  141.7930   80.8860  223.7050 C   0  0  0  0  0  0  0  0  0  0  0  0
  142.6780   80.1840  222.9500 C   0  0  0  0  0  0  0  0  0  0  0  0
  142.2810   79.0130  222.3160 C   0  0  0  0  0  0  0  0  0  0  0  0
  141.0020   78.5100  222.4160 C   0  0  0  0  0  0  0  0  0  0  0  0
  141.9637   78.2314  219.6440 H   0  0  0  0  0  0  0  0  0  0  0  0
  142.5119   76.6361  219.0267 H   0  0  0  0  0  0  0  0  0  0  0  0
  140.7631   77.0465  219.0267 H   0  0  0  0  0  0  0  0  0  0  0  0
  142.5467   76.5907  221.4813 H   0  0  0  0  0  0  0  0  0  0  0  0
  140.0070   75.0500  220.8610 H   0  0  0  0  0  0  0  0  0  0  0  0
  140.6097   72.7532  219.6436 H   0  0  0  0  0  0  0  0  0  0  0  0
  142.3911   72.2989  219.7596 H   0  0  0  0  0  0  0  0  0  0  0  0
  141.7710   71.0860  221.6290 H   0  0  0  0  0  0  0  0  0  0  0  0
  138.9494   70.1033  222.6102 H   0  0  0  0  0  0  0  0  0  0  0  0
  138.6540   68.7284  224.6752 H   0  0  0  0  0  0  0  0  0  0  0  0
  139.0668   68.3488  227.0454 H   0  0  0  0  0  0  0  0  0  0  0  0
  140.1393   69.1133  229.1868 H   0  0  0  0  0  0  0  0  0  0  0  0
  141.4578   71.2054  229.2041 H   0  0  0  0  0  0  0  0  0  0  0  0
  141.7567   72.5688  227.1678 H   0  0  0  0  0  0  0  0  0  0  0  0
  138.9318   76.0445  221.4862 H   0  0  0  0  0  0  0  0  0  0  0  0
  137.3687   77.3549  222.8681 H   0  0  0  0  0  0  0  0  0  0  0  0
  138.1201   79.4489  223.9888 H   0  0  0  0  0  0  0  0  0  0  0  0
  139.7834   80.9791  224.4391 H   0  0  0  0  0  0  0  0  0  0  0  0
  142.1016   81.8141  224.2084 H   0  0  0  0  0  0  0  0  0  0  0  0
  143.7117   80.5437  222.8403 H   0  0  0  0  0  0  0  0  0  0  0  0
  143.0175   78.4653  221.7097 H   0  0  0  0  0  0  0  0  0  0  0  0
  1  2  1  0
  2  3  1  0
  3  4  1  0
  4  5  2  0
  4  6  1  0
  6  7  1  0
  7  8  1  0
  8  9  2  0
  8 10  1  0
 10 11  2  0
 11 12  1  0
 12 13  2  0
 13 14  1  0
 14 15  2  0
 15 16  1  0
 16 17  2  0
 17 18  1  0
 18 19  2  0
  2 20  1  0
 20 21  2  0
 21 22  1  0
 22 23  2  0
 23 24  1  0
 24 25  2  0
 25 26  1  0
 26 27  2  0
 27 28  1  0
 28 29  2  0
 19 10  1  0
 29 20  1  0
 18 13  1  0
 29 24  1  0
  1 30  1  0
  1 31  1  0
  1 32  1  0
  2 33  1  1
  3 34  1  0
  6 35  1  0
  6 36  1  0
  7 37  1  0
 11 38  1  0
 12 39  1  0
 14 40  1  0
 15 41  1  0
 16 42  1  0
 17 43  1  0
 21 44  1  0
 22 45  1  0
 23 46  1  0
 25 47  1  0
 26 48  1  0
 27 49  1  0
 28 50  1  0
M  END
>  <smiles>  (5) 
C[C@H](NC(=O)CNC(=O)c1ccc2ccccc2n1)c1cccc2ccccc12

>  <score_type>  (5) 
oracle

>  <origin>  (5) 
autodockgpu

>  <m_score__min__energy>  (5) 
-10.210000000000001

>  <m_primary>  (5) 
energy

>  <rmsd>  (5) 
4.565035727918113

>  <m_score__min__rmsd>  (5) 
4.565035727918113

>  <meeko>  (5) 
{"free_energy": -9.48, "intermolecular_energy": -10.97, "internal_energy": -1.75, "cluster_size": 14, "cluster_id": 1, "rank_in_cluster": 10}

>  <energy>  (5) 
-9.58

>  <cluster_rmsd>  (5) 
1.99

>  <cluster>  (5) 
1

$$$$

     RDKit          3D

 50 53  0  0  0  0  0  0  0  0999 V2000
  141.4190   78.1040  219.1790 C   0  0  0  0  0  0  0  0  0  0  0  0
  141.2370   77.4440  220.5380 C   0  0  2  0  0  0  0  0  0  0  0  0
  140.3960   76.2620  220.2940 N   0  0  0  0  0  0  0  0  0  0  0  0
  140.3410   75.2440  221.2630 C   0  0  0  0  0  0  0  0  0  0  0  0
  141.0400   75.4260  222.3150 O   0  0  0  0  0  0  0  0  0  0  0  0
  139.5660   74.0080  221.1860 C   0  0  0  0  0  0  0  0  0  0  0  0
  139.5830   73.1890  222.3760 N   0  0  0  0  0  0  0  0  0  0  0  0
  140.0110   71.8320  222.3540 C   0  0  0  0  0  0  0  0  0  0  0  0
  140.4090   71.2590  221.2930 O   0  0  0  0  0  0  0  0  0  0  0  0
  139.9960   71.0500  223.6120 C   0  0  0  0  0  0  0  0  0  0  0  0
  139.4950   69.7650  223.6190 C   0  0  0  0  0  0  0  0  0  0  0  0
  139.5000   69.0690  224.8230 C   0  0  0  0  0  0  0  0  0  0  0  0
  139.9940   69.6460  225.9890 C   0  0  0  0  0  0  0  0  0  0  0  0
  139.9970   68.9410  227.1910 C   0  0  0  0  0  0  0  0  0  0  0  0
  140.5030   69.5570  228.3390 C   0  0  0  0  0  0  0  0  0  0  0  0
  140.9880   70.8530  228.2480 C   0  0  0  0  0  0  0  0  0  0  0  0
  140.9940   71.5610  227.0710 C   0  0  0  0  0  0  0  0  0  0  0  0
  140.4890   70.9390  225.9370 C   0  0  0  0  0  0  0  0  0  0  0  0
  140.4710   71.5890  224.7600 N   0  0  0  0  0  0  0  0  0  0  0  0
  140.5060   78.3250  221.4730 C   0  0  0  0  0  0  0  0  0  0  0  0
  139.1390   78.3040  221.6450 C   0  0  0  0  0  0  0  0  0  0  0  0
  138.4810   79.1420  222.5400 C   0  0  0  0  0  0  0  0  0  0  0  0
  139.1860   80.0460  223.3040 C   0  0  0  0  0  0  0  0  0  0  0  0
  140.5490   80.0840  223.1490 C   0  0  0  0  0  0  0  0  0  0  0  0
  141.2400   81.0000  223.9250 C   0  0  0  0  0  0  0  0  0  0  0  0
  142.6050   81.1070  223.8310 C   0  0  0  0  0  0  0  0  0  0  0  0
  143.2710   80.2990  222.9640 C   0  0  0  0  0  0  0  0  0  0  0  0
  142.5730   79.3820  222.1880 C   0  0  0  0  0  0  0  0  0  0  0  0
  141.2040   79.2430  222.2520 C   0  0  0  0  0  0  0  0  0  0  0  0
  141.7091   79.1559  219.3181 H   0  0  0  0  0  0  0  0  0  0  0  0
  142.2056   77.5778  218.6182 H   0  0  0  0  0  0  0  0  0  0  0  0
  140.4739   78.0554  218.6182 H   0  0  0  0  0  0  0  0  0  0  0  0
  142.2170   77.2098  220.9794 H   0  0  0  0  0  0  0  0  0  0  0  0
  139.8430   76.1770  219.4220 H   0  0  0  0  0  0  0  0  0  0  0  0
  138.5205   74.2760  220.9738 H   0  0  0  0  0  0  0  0  0  0  0  0
  140.0375   73.4042  220.3966 H   0  0  0  0  0  0  0  0  0  0  0  0
  139.2810   73.5600  223.3060 H   0  0  0  0  0  0  0  0  0  0  0  0
  139.1033   69.3046  222.7000 H   0  0  0  0  0  0  0  0  0  0  0  0
  139.1058   68.0425  224.8542 H   0  0  0  0  0  0  0  0  0  0  0  0
  139.6064   67.9136  227.2357 H   0  0  0  0  0  0  0  0  0  0  0  0
  140.5163   69.0220  229.3000 H   0  0  0  0  0  0  0  0  0  0  0  0
  141.3839   71.3334  229.1550 H   0  0  0  0  0  0  0  0  0  0  0  0
  141.3863   72.5878  227.0282 H   0  0  0  0  0  0  0  0  0  0  0  0
  138.5434   77.5957  221.0504 H   0  0  0  0  0  0  0  0  0  0  0  0
  137.3871   79.0821  222.6385 H   0  0  0  0  0  0  0  0  0  0  0  0
  138.6746   80.7136  224.0130 H   0  0  0  0  0  0  0  0  0  0  0  0
  140.6895   81.6477  224.6231 H   0  0  0  0  0  0  0  0  0  0  0  0
  143.1518   81.8354  224.4477 H   0  0  0  0  0  0  0  0  0  0  0  0
  144.3651   80.3714  222.8767 H   0  0  0  0  0  0  0  0  0  0  0  0
  143.1365   78.7408  221.4942 H   0  0  0  0  0  0  0  0  0  0  0  0
  1  2  1  0
  2  3  1  0
  3  4  1  0
  4  5  2  0
  4  6  1  0
  6  7  1  0
  7  8  1  0
  8  9  2  0
  8 10  1  0
 10 11  2  0
 11 12  1  0
 12 13  2  0
 13 14  1  0
 14 15  2  0
 15 16  1  0
 16 17  2  0
 17 18  1  0
 18 19  2  0
  2 20  1  0
 20 21  2  0
 21 22  1  0
 22 23  2  0
 23 24  1  0
 24 25  2  0
 25 26  1  0
 26 27  2  0
 27 28  1  0
 28 29  2  0
 19 10  1  0
 29 20  1  0
 18 13  1  0
 29 24  1  0
  1 30  1  0
  1 31  1  0
  1 32  1  0
  2 33  1  1
  3 34  1  0
  6 35  1  0
  6 36  1  0
  7 37  1  0
 11 38  1  0
 12 39  1  0
 14 40  1  0
 15 41  1  0
 16 42  1  0
 17 43  1  0
 21 44  1  0
 22 45  1  0
 23 46  1  0
 25 47  1  0
 26 48  1  0
 27 49  1  0
 28 50  1  0
M  END
>  <smiles>  (6) 
C[C@H](NC(=O)CNC(=O)c1ccc2ccccc2n1)c1cccc2ccccc12

>  <score_type>  (6) 
oracle

>  <origin>  (6) 
autodockgpu

>  <m_score__min__energy>  (6) 
-10.210000000000001

>  <m_primary>  (6) 
energy

>  <rmsd>  (6) 
4.3237095382471225

>  <m_score__min__rmsd>  (6) 
4.3237095382471225

>  <meeko>  (6) 
{"free_energy": -9.68, "intermolecular_energy": -11.17, "internal_energy": -1.31, "cluster_size": 26, "cluster_id": 2, "rank_in_cluster": 9}

>  <energy>  (6) 
-9.53

>  <cluster_rmsd>  (6) 
1.99

>  <cluster>  (6) 
1

$$$$

     RDKit          3D

 50 53  0  0  0  0  0  0  0  0999 V2000
  141.7030   77.1450  219.7320 C   0  0  0  0  0  0  0  0  0  0  0  0
  141.4820   76.5730  221.1250 C   0  0  2  0  0  0  0  0  0  0  0  0
  140.8470   75.2630  220.9180 N   0  0  0  0  0  0  0  0  0  0  0  0
  141.6290   74.1800  220.4790 C   0  0  0  0  0  0  0  0  0  0  0  0
  142.8690   74.4160  220.2920 O   0  0  0  0  0  0  0  0  0  0  0  0
  141.1660   72.8180  220.2210 C   0  0  0  0  0  0  0  0  0  0  0  0
  141.0130   71.9820  221.3890 N   0  0  0  0  0  0  0  0  0  0  0  0
  140.3170   72.4260  222.5490 C   0  0  0  0  0  0  0  0  0  0  0  0
  139.7850   73.5770  222.6280 O   0  0  0  0  0  0  0  0  0  0  0  0
  140.2030   71.5180  223.7140 C   0  0  0  0  0  0  0  0  0  0  0  0
  139.6150   70.2790  223.5670 C   0  0  0  0  0  0  0  0  0  0  0  0
  139.5290   69.4600  224.6880 C   0  0  0  0  0  0  0  0  0  0  0  0
  140.0200   69.8730  225.9230 C   0  0  0  0  0  0  0  0  0  0  0  0
  139.9300   69.0460  227.0410 C   0  0  0  0  0  0  0  0  0  0  0  0
  140.4360   69.4980  228.2630 C   0  0  0  0  0  0  0  0  0  0  0  0
  141.0120   70.7570  228.3270 C   0  0  0  0  0  0  0  0  0  0  0  0
  141.1090   71.5840  227.2350 C   0  0  0  0  0  0  0  0  0  0  0  0
  140.6040   71.1240  226.0260 C   0  0  0  0  0  0  0  0  0  0  0  0
  140.6720   71.8950  224.9260 N   0  0  0  0  0  0  0  0  0  0  0  0
  140.5410   77.4050  221.9070 C   0  0  0  0  0  0  0  0  0  0  0  0
  139.2150   77.0910  222.1050 C   0  0  0  0  0  0  0  0  0  0  0  0
  138.3570   77.8910  222.8530 C   0  0  0  0  0  0  0  0  0  0  0  0
  138.8110   79.0540  223.4360 C   0  0  0  0  0  0  0  0  0  0  0  0
  140.1290   79.3860  223.2510 C   0  0  0  0  0  0  0  0  0  0  0  0
  140.5660   80.5600  223.8440 C   0  0  0  0  0  0  0  0  0  0  0  0
  141.8690   80.9680  223.7070 C   0  0  0  0  0  0  0  0  0  0  0  0
  142.7270   80.2040  222.9820 C   0  0  0  0  0  0  0  0  0  0  0  0
  142.2840   79.0280  222.3890 C   0  0  0  0  0  0  0  0  0  0  0  0
  140.9850   78.5820  222.5010 C   0  0  0  0  0  0  0  0  0  0  0  0
  142.0983   78.1682  219.8142 H   0  0  0  0  0  0  0  0  0  0  0  0
  142.4230   76.5164  219.1875 H   0  0  0  0  0  0  0  0  0  0  0  0
  140.7474   77.1638  219.1875 H   0  0  0  0  0  0  0  0  0  0  0  0
  142.4360   76.5242  221.6704 H   0  0  0  0  0  0  0  0  0  0  0  0
  139.8340   75.1310  221.0970 H   0  0  0  0  0  0  0  0  0  0  0  0
  140.1892   72.8814  219.7191 H   0  0  0  0  0  0  0  0  0  0  0  0
  141.9481   72.3435  219.6101 H   0  0  0  0  0  0  0  0  0  0  0  0
  141.4060   71.0150  221.4320 H   0  0  0  0  0  0  0  0  0  0  0  0
  139.2258   69.9485  222.5927 H   0  0  0  0  0  0  0  0  0  0  0  0
  139.0642   68.4672  224.5967 H   0  0  0  0  0  0  0  0  0  0  0  0
  139.4671   68.0512  226.9629 H   0  0  0  0  0  0  0  0  0  0  0  0
  140.3780   68.8642  229.1602 H   0  0  0  0  0  0  0  0  0  0  0  0
  141.4075   71.1080  229.2916 H   0  0  0  0  0  0  0  0  0  0  0  0
  141.5718   72.5787  227.3154 H   0  0  0  0  0  0  0  0  0  0  0  0
  138.8178   76.1700  221.6533 H   0  0  0  0  0  0  0  0  0  0  0  0
  137.3060   77.5922  222.9802 H   0  0  0  0  0  0  0  0  0  0  0  0
  138.1404   79.6935  224.0287 H   0  0  0  0  0  0  0  0  0  0  0  0
  139.8623   81.1699  224.4295 H   0  0  0  0  0  0  0  0  0  0  0  0
  142.2139   81.9005  224.1776 H   0  0  0  0  0  0  0  0  0  0  0  0
  143.7749   80.5171  222.8641 H   0  0  0  0  0  0  0  0  0  0  0  0
  142.9993   78.4288  221.8065 H   0  0  0  0  0  0  0  0  0  0  0  0
  1  2  1  0
  2  3  1  0
  3  4  1  0
  4  5  2  0
  4  6  1  0
  6  7  1  0
  7  8  1  0
  8  9  2  0
  8 10  1  0
 10 11  2  0
 11 12  1  0
 12 13  2  0
 13 14  1  0
 14 15  2  0
 15 16  1  0
 16 17  2  0
 17 18  1  0
 18 19  2  0
  2 20  1  0
 20 21  2  0
 21 22  1  0
 22 23  2  0
 23 24  1  0
 24 25  2  0
 25 26  1  0
 26 27  2  0
 27 28  1  0
 28 29  2  0
 19 10  1  0
 29 20  1  0
 18 13  1  0
 29 24  1  0
  1 30  1  0
  1 31  1  0
  1 32  1  0
  2 33  1  1
  3 34  1  0
  6 35  1  0
  6 36  1  0
  7 37  1  0
 11 38  1  0
 12 39  1  0
 14 40  1  0
 15 41  1  0
 16 42  1  0
 17 43  1  0
 21 44  1  0
 22 45  1  0
 23 46  1  0
 25 47  1  0
 26 48  1  0
 27 49  1  0
 28 50  1  0
M  END
>  <smiles>  (7) 
C[C@H](NC(=O)CNC(=O)c1ccc2ccccc2n1)c1cccc2ccccc12

>  <score_type>  (7) 
oracle

>  <origin>  (7) 
autodockgpu

>  <m_score__min__energy>  (7) 
-10.210000000000001

>  <m_primary>  (7) 
energy

>  <rmsd>  (7) 
4.536035152831056

>  <m_score__min__rmsd>  (7) 
4.536035152831056

>  <meeko>  (7) 
{"free_energy": -9.58, "intermolecular_energy": -11.07, "internal_energy": -1.66, "cluster_size": 14, "cluster_id": 1, "rank_in_cluster": 5}

>  <energy>  (7) 
-9.49

>  <cluster_rmsd>  (7) 
1.98

>  <cluster>  (7) 
1

$$$$

     RDKit          3D

 50 53  0  0  0  0  0  0  0  0999 V2000
  140.0060   71.8970  223.4170 C   0  0  0  0  0  0  0  0  0  0  0  0
  139.6630   70.7750  224.3870 C   0  0  2  0  0  0  0  0  0  0  0  0
  138.2050   70.8380  224.5670 N   0  0  0  0  0  0  0  0  0  0  0  0
  137.4380   69.6730  224.3890 C   0  0  0  0  0  0  0  0  0  0  0  0
  138.0800   68.6140  224.0830 O   0  0  0  0  0  0  0  0  0  0  0  0
  135.9880   69.5550  224.5240 C   0  0  0  0  0  0  0  0  0  0  0  0
  135.3110   70.7390  225.0010 N   0  0  0  0  0  0  0  0  0  0  0  0
  134.2830   70.6770  225.9840 C   0  0  0  0  0  0  0  0  0  0  0  0
  133.9020   69.5830  226.5060 O   0  0  0  0  0  0  0  0  0  0  0  0
  133.6280   71.9300  226.4230 C   0  0  0  0  0  0  0  0  0  0  0  0
  132.4750   71.8770  227.1790 C   0  0  0  0  0  0  0  0  0  0  0  0
  131.8940   73.0800  227.5690 C   0  0  0  0  0  0  0  0  0  0  0  0
  132.4540   74.3020  227.2090 C   0  0  0  0  0  0  0  0  0  0  0  0
  131.8650   75.5020  227.6030 C   0  0  0  0  0  0  0  0  0  0  0  0
  132.4590   76.7080  227.2210 C   0  0  0  0  0  0  0  0  0  0  0  0
  133.6180   76.6760  226.4600 C   0  0  0  0  0  0  0  0  0  0  0  0
  134.2110   75.5010  226.0640 C   0  0  0  0  0  0  0  0  0  0  0  0
  133.6120   74.3100  226.4490 C   0  0  0  0  0  0  0  0  0  0  0  0
  134.1510   73.1330  226.0870 N   0  0  0  0  0  0  0  0  0  0  0  0
  140.2850   70.9960  225.7100 C   0  0  0  0  0  0  0  0  0  0  0  0
  140.7080   72.2240  226.1680 C   0  0  0  0  0  0  0  0  0  0  0  0
  141.2830   72.4010  227.4230 C   0  0  0  0  0  0  0  0  0  0  0  0
  141.4550   71.3310  228.2730 C   0  0  0  0  0  0  0  0  0  0  0  0
  141.0400   70.0980  227.8370 C   0  0  0  0  0  0  0  0  0  0  0  0
  141.2240   69.0340  228.7060 C   0  0  0  0  0  0  0  0  0  0  0  0
  140.8400   67.7670  228.3490 C   0  0  0  0  0  0  0  0  0  0  0  0
  140.2760   67.5680  227.1290 C   0  0  0  0  0  0  0  0  0  0  0  0
  140.0950   68.6370  226.2610 C   0  0  0  0  0  0  0  0  0  0  0  0
  140.4650   69.9250  226.5800 C   0  0  0  0  0  0  0  0  0  0  0  0
  140.2818   72.7992  223.9827 H   0  0  0  0  0  0  0  0  0  0  0  0
  140.8509   71.5887  222.7837 H   0  0  0  0  0  0  0  0  0  0  0  0
  139.1331   72.1139  222.7837 H   0  0  0  0  0  0  0  0  0  0  0  0
  140.0210   69.8123  223.9933 H   0  0  0  0  0  0  0  0  0  0  0  0
  137.7420   71.7290  224.8250 H   0  0  0  0  0  0  0  0  0  0  0  0
  135.5748   69.3026  223.5363 H   0  0  0  0  0  0  0  0  0  0  0  0
  135.8169   68.7806  225.2862 H   0  0  0  0  0  0  0  0  0  0  0  0
  135.5480   71.6930  224.6450 H   0  0  0  0  0  0  0  0  0  0  0  0
  132.0286   70.9131  227.4648 H   0  0  0  0  0  0  0  0  0  0  0  0
  130.9749   73.0646  228.1731 H   0  0  0  0  0  0  0  0  0  0  0  0
  130.9452   75.5000  228.2063 H   0  0  0  0  0  0  0  0  0  0  0  0
  132.0138   77.6685  227.5195 H   0  0  0  0  0  0  0  0  0  0  0  0
  134.0808   77.6283  226.1617 H   0  0  0  0  0  0  0  0  0  0  0  0
  135.1311   75.5046  225.4611 H   0  0  0  0  0  0  0  0  0  0  0  0
  140.5864   73.1009  225.5151 H   0  0  0  0  0  0  0  0  0  0  0  0
  141.6031   73.4048  227.7390 H   0  0  0  0  0  0  0  0  0  0  0  0
  141.9091   71.4604  229.2665 H   0  0  0  0  0  0  0  0  0  0  0  0
  141.6822   69.2075  229.6909 H   0  0  0  0  0  0  0  0  0  0  0  0
  140.9864   66.9240  229.0403 H   0  0  0  0  0  0  0  0  0  0  0  0
  139.9620   66.5577  226.8280 H   0  0  0  0  0  0  0  0  0  0  0  0
  139.6375   68.4474  225.2788 H   0  0  0  0  0  0  0  0  0  0  0  0
  1  2  1  0
  2  3  1  0
  3  4  1  0
  4  5  2  0
  4  6  1  0
  6  7  1  0
  7  8  1  0
  8  9  2  0
  8 10  1  0
 10 11  2  0
 11 12  1  0
 12 13  2  0
 13 14  1  0
 14 15  2  0
 15 16  1  0
 16 17  2  0
 17 18  1  0
 18 19  2  0
  2 20  1  0
 20 21  2  0
 21 22  1  0
 22 23  2  0
 23 24  1  0
 24 25  2  0
 25 26  1  0
 26 27  2  0
 27 28  1  0
 28 29  2  0
 19 10  1  0
 29 20  1  0
 18 13  1  0
 29 24  1  0
  1 30  1  0
  1 31  1  0
  1 32  1  0
  2 33  1  6
  3 34  1  0
  6 35  1  0
  6 36  1  0
  7 37  1  0
 11 38  1  0
 12 39  1  0
 14 40  1  0
 15 41  1  0
 16 42  1  0
 17 43  1  0
 21 44  1  0
 22 45  1  0
 23 46  1  0
 25 47  1  0
 26 48  1  0
 27 49  1  0
 28 50  1  0
M  END
>  <smiles>  (8) 
C[C@H](NC(=O)CNC(=O)c1ccc2ccccc2n1)c1cccc2ccccc12

>  <score_type>  (8) 
oracle

>  <origin>  (8) 
autodockgpu

>  <m_score__min__energy>  (8) 
-10.210000000000001

>  <m_primary>  (8) 
energy

>  <rmsd>  (8) 
10.113790800469566

>  <m_score__min__rmsd>  (8) 
10.113790800469566

>  <meeko>  (8) 
{"free_energy": -9.87, "intermolecular_energy": -11.36, "internal_energy": -1.49, "cluster_size": 8, "cluster_id": 3, "rank_in_cluster": 2}

>  <energy>  (8) 
-9.48

>  <cluster_rmsd>  (8) 
1.99

>  <cluster>  (8) 
1

$$$$

     RDKit          3D

 50 53  0  0  0  0  0  0  0  0999 V2000
  142.2740   77.9600  219.0740 C   0  0  0  0  0  0  0  0  0  0  0  0
  141.8010   77.4690  220.4350 C   0  0  2  0  0  0  0  0  0  0  0  0
  141.0560   76.2290  220.1710 N   0  0  0  0  0  0  0  0  0  0  0  0
  140.5010   75.5170  221.2490 C   0  0  0  0  0  0  0  0  0  0  0  0
  140.6830   76.0140  222.4100 O   0  0  0  0  0  0  0  0  0  0  0  0
  139.7390   74.2720  221.1710 C   0  0  0  0  0  0  0  0  0  0  0  0
  139.7590   73.4570  222.3640 N   0  0  0  0  0  0  0  0  0  0  0  0
  140.0560   72.0650  222.3230 C   0  0  0  0  0  0  0  0  0  0  0  0
  140.3260   71.4560  221.2410 O   0  0  0  0  0  0  0  0  0  0  0  0
  140.0530   71.2890  223.5840 C   0  0  0  0  0  0  0  0  0  0  0  0
  139.5580   70.0010  223.6000 C   0  0  0  0  0  0  0  0  0  0  0  0
  139.5750   69.3100  224.8070 C   0  0  0  0  0  0  0  0  0  0  0  0
  140.0740   69.8960  225.9670 C   0  0  0  0  0  0  0  0  0  0  0  0
  140.0880   69.1960  227.1720 C   0  0  0  0  0  0  0  0  0  0  0  0
  140.5980   69.8200  228.3140 C   0  0  0  0  0  0  0  0  0  0  0  0
  141.0760   71.1170  228.2140 C   0  0  0  0  0  0  0  0  0  0  0  0
  141.0710   71.8200  227.0340 C   0  0  0  0  0  0  0  0  0  0  0  0
  140.5620   71.1910  225.9070 C   0  0  0  0  0  0  0  0  0  0  0  0
  140.5320   71.8350  224.7260 N   0  0  0  0  0  0  0  0  0  0  0  0
  140.8630   78.4270  221.0570 C   0  0  0  0  0  0  0  0  0  0  0  0
  139.5150   78.4800  220.7790 C   0  0  0  0  0  0  0  0  0  0  0  0
  138.6560   79.3900  221.3880 C   0  0  0  0  0  0  0  0  0  0  0  0
  139.1320   80.2930  222.3130 C   0  0  0  0  0  0  0  0  0  0  0  0
  140.4710   80.2580  222.6060 C   0  0  0  0  0  0  0  0  0  0  0  0
  140.9310   81.1750  223.5380 C   0  0  0  0  0  0  0  0  0  0  0  0
  142.2560   81.2120  223.8870 C   0  0  0  0  0  0  0  0  0  0  0  0
  143.1160   80.3340  223.3060 C   0  0  0  0  0  0  0  0  0  0  0  0
  142.6510   79.4160  222.3720 C   0  0  0  0  0  0  0  0  0  0  0  0
  141.3280   79.3450  221.9930 C   0  0  0  0  0  0  0  0  0  0  0  0
  143.0313   78.7461  219.2107 H   0  0  0  0  0  0  0  0  0  0  0  0
  142.7131   77.1213  218.5139 H   0  0  0  0  0  0  0  0  0  0  0  0
  141.4195   78.3675  218.5139 H   0  0  0  0  0  0  0  0  0  0  0  0
  142.6596   77.3372  221.1098 H   0  0  0  0  0  0  0  0  0  0  0  0
  140.9350   75.8800  219.2030 H   0  0  0  0  0  0  0  0  0  0  0  0
  138.6918   74.5283  220.9527 H   0  0  0  0  0  0  0  0  0  0  0  0
  140.2203   73.6710  220.3854 H   0  0  0  0  0  0  0  0  0  0  0  0
  139.5570   73.8540  223.3090 H   0  0  0  0  0  0  0  0  0  0  0  0
  139.1619   69.5348  222.6858 H   0  0  0  0  0  0  0  0  0  0  0  0
  139.1870   68.2814  224.8457 H   0  0  0  0  0  0  0  0  0  0  0  0
  139.7031   68.1668  227.2236 H   0  0  0  0  0  0  0  0  0  0  0  0
  140.6197   69.2897  229.2775 H   0  0  0  0  0  0  0  0  0  0  0  0
  141.4756   71.6032  229.1162 H   0  0  0  0  0  0  0  0  0  0  0  0
  141.4580   72.8485  226.9842 H   0  0  0  0  0  0  0  0  0  0  0  0
  139.1001   77.7736  220.0450 H   0  0  0  0  0  0  0  0  0  0  0  0
  137.5871   79.3882  221.1283 H   0  0  0  0  0  0  0  0  0  0  0  0
  138.4615   81.0167  222.7995 H   0  0  0  0  0  0  0  0  0  0  0  0
  140.2257   81.8801  224.0022 H   0  0  0  0  0  0  0  0  0  0  0  0
  142.6182   81.9415  224.6264 H   0  0  0  0  0  0  0  0  0  0  0  0
  144.1823   80.3502  223.5758 H   0  0  0  0  0  0  0  0  0  0  0  0
  143.3684   78.7174  221.9166 H   0  0  0  0  0  0  0  0  0  0  0  0
  1  2  1  0
  2  3  1  0
  3  4  1  0
  4  5  2  0
  4  6  1  0
  6  7  1  0
  7  8  1  0
  8  9  2  0
  8 10  1  0
 10 11  2  0
 11 12  1  0
 12 13  2  0
 13 14  1  0
 14 15  2  0
 15 16  1  0
 16 17  2  0
 17 18  1  0
 18 19  2  0
  2 20  1  0
 20 21  2  0
 21 22  1  0
 22 23  2  0
 23 24  1  0
 24 25  2  0
 25 26  1  0
 26 27  2  0
 27 28  1  0
 28 29  2  0
 19 10  1  0
 29 20  1  0
 18 13  1  0
 29 24  1  0
  1 30  1  0
  1 31  1  0
  1 32  1  0
  2 33  1  1
  3 34  1  0
  6 35  1  0
  6 36  1  0
  7 37  1  0
 11 38  1  0
 12 39  1  0
 14 40  1  0
 15 41  1  0
 16 42  1  0
 17 43  1  0
 21 44  1  0
 22 45  1  0
 23 46  1  0
 25 47  1  0
 26 48  1  0
 27 49  1  0
 28 50  1  0
M  END
>  <smiles>  (9) 
C[C@H](NC(=O)CNC(=O)c1ccc2ccccc2n1)c1cccc2ccccc12

>  <score_type>  (9) 
oracle

>  <origin>  (9) 
autodockgpu

>  <m_score__min__energy>  (9) 
-10.210000000000001

>  <m_primary>  (9) 
energy

>  <rmsd>  (9) 
4.203463221500691

>  <m_score__min__rmsd>  (9) 
4.203463221500691

>  <meeko>  (9) 
{"free_energy": -9.52, "intermolecular_energy": -11.02, "internal_energy": -1.36, "cluster_size": 26, "cluster_id": 2, "rank_in_cluster": 21}

>  <energy>  (9) 
-9.48

>  <cluster_rmsd>  (9) 
1.98

>  <cluster>  (9) 
1

$$$$

     RDKit          3D

 50 53  0  0  0  0  0  0  0  0999 V2000
  140.9470   78.0050  219.4850 C   0  0  0  0  0  0  0  0  0  0  0  0
  140.8680   77.3760  220.8690 C   0  0  2  0  0  0  0  0  0  0  0  0
  139.9230   76.2570  220.7410 N   0  0  0  0  0  0  0  0  0  0  0  0
  140.1060   75.1070  221.5290 C   0  0  0  0  0  0  0  0  0  0  0  0
  141.1040   75.1180  222.3240 O   0  0  0  0  0  0  0  0  0  0  0  0
  139.2710   73.9070  221.5290 C   0  0  0  0  0  0  0  0  0  0  0  0
  139.4890   72.9990  222.6320 N   0  0  0  0  0  0  0  0  0  0  0  0
  139.0900   71.6340  222.5760 C   0  0  0  0  0  0  0  0  0  0  0  0
  138.5250   71.1280  221.5570 O   0  0  0  0  0  0  0  0  0  0  0  0
  139.3400   70.7610  223.7470 C   0  0  0  0  0  0  0  0  0  0  0  0
  138.9470   69.4390  223.7170 C   0  0  0  0  0  0  0  0  0  0  0  0
  139.2010   68.6570  224.8390 C   0  0  0  0  0  0  0  0  0  0  0  0
  139.8320   69.1870  225.9600 C   0  0  0  0  0  0  0  0  0  0  0  0
  140.0830   68.3960  227.0800 C   0  0  0  0  0  0  0  0  0  0  0  0
  140.7190   68.9670  228.1860 C   0  0  0  0  0  0  0  0  0  0  0  0
  141.0820   70.3040  228.1370 C   0  0  0  0  0  0  0  0  0  0  0  0
  140.8420   71.0970  227.0410 C   0  0  0  0  0  0  0  0  0  0  0  0
  140.2100   70.5190  225.9480 C   0  0  0  0  0  0  0  0  0  0  0  0
  139.9510   71.2520  224.8500 N   0  0  0  0  0  0  0  0  0  0  0  0
  140.3100   78.3200  221.8610 C   0  0  0  0  0  0  0  0  0  0  0  0
  138.9760   78.3850  222.1980 C   0  0  0  0  0  0  0  0  0  0  0  0
  138.4820   79.2800  223.1410 C   0  0  0  0  0  0  0  0  0  0  0  0
  139.3260   80.1550  223.7880 C   0  0  0  0  0  0  0  0  0  0  0  0
  140.6600   80.1070  223.4680 C   0  0  0  0  0  0  0  0  0  0  0  0
  141.4930   80.9960  224.1280 C   0  0  0  0  0  0  0  0  0  0  0  0
  142.8390   81.0180  223.8660 C   0  0  0  0  0  0  0  0  0  0  0  0
  143.3460   80.1530  222.9480 C   0  0  0  0  0  0  0  0  0  0  0  0
  142.5070   79.2640  222.2890 C   0  0  0  0  0  0  0  0  0  0  0  0
  141.1500   79.2090  222.5220 C   0  0  0  0  0  0  0  0  0  0  0  0
  141.0836   79.0920  219.5835 H   0  0  0  0  0  0  0  0  0  0  0  0
  141.7984   77.5768  218.9357 H   0  0  0  0  0  0  0  0  0  0  0  0
  140.0161   77.8007  218.9357 H   0  0  0  0  0  0  0  0  0  0  0  0
  141.8709   77.0751  221.2060 H   0  0  0  0  0  0  0  0  0  0  0  0
  139.1240   76.3110  220.0820 H   0  0  0  0  0  0  0  0  0  0  0  0
  138.2186   74.2261  221.5553 H   0  0  0  0  0  0  0  0  0  0  0  0
  139.5420   73.3497  220.6202 H   0  0  0  0  0  0  0  0  0  0  0  0
  139.9500   73.3070  223.5180 H   0  0  0  0  0  0  0  0  0  0  0  0
  138.4479   69.0161  222.8327 H   0  0  0  0  0  0  0  0  0  0  0  0
  138.8973   67.5998  224.8400 H   0  0  0  0  0  0  0  0  0  0  0  0
  139.7847   67.3373  227.0933 H   0  0  0  0  0  0  0  0  0  0  0  0
  140.9284   68.3643  229.0821 H   0  0  0  0  0  0  0  0  0  0  0  0
  141.5822   70.7477  229.0105 H   0  0  0  0  0  0  0  0  0  0  0  0
  141.1408   72.1556  227.0297 H   0  0  0  0  0  0  0  0  0  0  0  0
  138.2725   77.7009  221.7009 H   0  0  0  0  0  0  0  0  0  0  0  0
  137.4066   79.2890  223.3723 H   0  0  0  0  0  0  0  0  0  0  0  0
  138.9447   80.8671  224.5347 H   0  0  0  0  0  0  0  0  0  0  0  0
  141.0708   81.6906  224.8691 H   0  0  0  0  0  0  0  0  0  0  0  0
  143.4984   81.7249  224.3908 H   0  0  0  0  0  0  0  0  0  0  0  0
  144.4235   80.1573  222.7266 H   0  0  0  0  0  0  0  0  0  0  0  0
  142.9437   78.5754  221.5506 H   0  0  0  0  0  0  0  0  0  0  0  0
  1  2  1  0
  2  3  1  0
  3  4  1  0
  4  5  2  0
  4  6  1  0
  6  7  1  0
  7  8  1  0
  8  9  2  0
  8 10  1  0
 10 11  2  0
 11 12  1  0
 12 13  2  0
 13 14  1  0
 14 15  2  0
 15 16  1  0
 16 17  2  0
 17 18  1  0
 18 19  2  0
  2 20  1  0
 20 21  2  0
 21 22  1  0
 22 23  2  0
 23 24  1  0
 24 25  2  0
 25 26  1  0
 26 27  2  0
 27 28  1  0
 28 29  2  0
 19 10  1  0
 29 20  1  0
 18 13  1  0
 29 24  1  0
  1 30  1  0
  1 31  1  0
  1 32  1  0
  2 33  1  1
  3 34  1  0
  6 35  1  0
  6 36  1  0
  7 37  1  0
 11 38  1  0
 12 39  1  0
 14 40  1  0
 15 41  1  0
 16 42  1  0
 17 43  1  0
 21 44  1  0
 22 45  1  0
 23 46  1  0
 25 47  1  0
 26 48  1  0
 27 49  1  0
 28 50  1  0
M  END
>  <smiles>  (10) 
C[C@H](NC(=O)CNC(=O)c1ccc2ccccc2n1)c1cccc2ccccc12

>  <score_type>  (10) 
oracle

>  <origin>  (10) 
autodockgpu

>  <m_score__min__energy>  (10) 
-10.210000000000001

>  <m_primary>  (10) 
energy

>  <rmsd>  (10) 
4.412464859455603

>  <m_score__min__rmsd>  (10) 
4.412464859455603

>  <meeko>  (10) 
{"free_energy": -9.4, "intermolecular_energy": -10.9, "internal_energy": -1.68, "cluster_size": 26, "cluster_id": 2, "rank_in_cluster": 24}

>  <energy>  (10) 
-9.48

>  <cluster_rmsd>  (10) 
1.99

>  <cluster>  (10) 
1

$$$$

     RDKit          3D

 50 53  0  0  0  0  0  0  0  0999 V2000
  141.2200   78.1540  219.6770 C   0  0  0  0  0  0  0  0  0  0  0  0
  140.9320   77.5380  221.0390 C   0  0  2  0  0  0  0  0  0  0  0  0
  139.8970   76.5210  220.8030 N   0  0  0  0  0  0  0  0  0  0  0  0
  140.0600   75.2340  221.3450 C   0  0  0  0  0  0  0  0  0  0  0  0
  141.1210   75.0360  222.0260 O   0  0  0  0  0  0  0  0  0  0  0  0
  139.1390   74.1070  221.2080 C   0  0  0  0  0  0  0  0  0  0  0  0
  139.0830   73.2110  222.3400 N   0  0  0  0  0  0  0  0  0  0  0  0
  140.1100   72.2610  222.6040 C   0  0  0  0  0  0  0  0  0  0  0  0
  141.1400   72.1460  221.8670 O   0  0  0  0  0  0  0  0  0  0  0  0
  139.9850   71.3690  223.7790 C   0  0  0  0  0  0  0  0  0  0  0  0
  139.2810   70.1870  223.6760 C   0  0  0  0  0  0  0  0  0  0  0  0
  139.1880   69.3810  224.8060 C   0  0  0  0  0  0  0  0  0  0  0  0
  139.7850   69.7520  226.0070 C   0  0  0  0  0  0  0  0  0  0  0  0
  139.6880   68.9390  227.1350 C   0  0  0  0  0  0  0  0  0  0  0  0
  140.3020   69.3460  228.3220 C   0  0  0  0  0  0  0  0  0  0  0  0
  140.9910   70.5500  228.3440 C   0  0  0  0  0  0  0  0  0  0  0  0
  141.0970   71.3620  227.2410 C   0  0  0  0  0  0  0  0  0  0  0  0
  140.4830   70.9470  226.0680 C   0  0  0  0  0  0  0  0  0  0  0  0
  140.5550   71.7060  224.9600 N   0  0  0  0  0  0  0  0  0  0  0  0
  140.3700   78.5360  221.9750 C   0  0  0  0  0  0  0  0  0  0  0  0
  139.0290   78.6520  222.2650 C   0  0  0  0  0  0  0  0  0  0  0  0
  138.5320   79.5980  223.1570 C   0  0  0  0  0  0  0  0  0  0  0  0
  139.3810   80.4740  223.7970 C   0  0  0  0  0  0  0  0  0  0  0  0
  140.7220   80.3760  223.5220 C   0  0  0  0  0  0  0  0  0  0  0  0
  141.5590   81.2670  224.1740 C   0  0  0  0  0  0  0  0  0  0  0  0
  142.9130   81.2400  223.9560 C   0  0  0  0  0  0  0  0  0  0  0  0
  143.4230   80.3260  223.0900 C   0  0  0  0  0  0  0  0  0  0  0  0
  142.5790   79.4350  222.4380 C   0  0  0  0  0  0  0  0  0  0  0  0
  141.2150   79.4270  222.6290 C   0  0  0  0  0  0  0  0  0  0  0  0
  141.6823   79.1429  219.8122 H   0  0  0  0  0  0  0  0  0  0  0  0
  141.9065   77.5017  219.1173 H   0  0  0  0  0  0  0  0  0  0  0  0
  140.2793   78.2625  219.1173 H   0  0  0  0  0  0  0  0  0  0  0  0
  141.8582   77.1368  221.4763 H   0  0  0  0  0  0  0  0  0  0  0  0
  139.0510   76.7450  220.2480 H   0  0  0  0  0  0  0  0  0  0  0  0
  138.1292   74.5118  221.0454 H   0  0  0  0  0  0  0  0  0  0  0  0
  139.5162   73.5081  220.3659 H   0  0  0  0  0  0  0  0  0  0  0  0
  138.2850   73.2220  223.0150 H   0  0  0  0  0  0  0  0  0  0  0  0
  138.8073   69.8907  222.7285 H   0  0  0  0  0  0  0  0  0  0  0  0
  138.6325   68.4333  224.7491 H   0  0  0  0  0  0  0  0  0  0  0  0
  139.1351   67.9891  227.0911 H   0  0  0  0  0  0  0  0  0  0  0  0
  140.2401   68.7214  229.2254 H   0  0  0  0  0  0  0  0  0  0  0  0
  141.4713   70.8669  229.2815 H   0  0  0  0  0  0  0  0  0  0  0  0
  141.6511   72.3112  227.2863 H   0  0  0  0  0  0  0  0  0  0  0  0
  138.3216   77.9692  221.7717 H   0  0  0  0  0  0  0  0  0  0  0  0
  137.4507   79.6466  223.3528 H   0  0  0  0  0  0  0  0  0  0  0  0
  138.9978   81.2252  224.5032 H   0  0  0  0  0  0  0  0  0  0  0  0
  141.1340   82.0026  224.8727 H   0  0  0  0  0  0  0  0  0  0  0  0
  143.5760   81.9480  224.4747 H   0  0  0  0  0  0  0  0  0  0  0  0
  144.5067   80.2911  222.9044 H   0  0  0  0  0  0  0  0  0  0  0  0
  143.0183   78.7063  221.7409 H   0  0  0  0  0  0  0  0  0  0  0  0
  1  2  1  0
  2  3  1  0
  3  4  1  0
  4  5  2  0
  4  6  1  0
  6  7  1  0
  7  8  1  0
  8  9  2  0
  8 10  1  0
 10 11  2  0
 11 12  1  0
 12 13  2  0
 13 14  1  0
 14 15  2  0
 15 16  1  0
 16 17  2  0
 17 18  1  0
 18 19  2  0
  2 20  1  0
 20 21  2  0
 21 22  1  0
 22 23  2  0
 23 24  1  0
 24 25  2  0
 25 26  1  0
 26 27  2  0
 27 28  1  0
 28 29  2  0
 19 10  1  0
 29 20  1  0
 18 13  1  0
 29 24  1  0
  1 30  1  0
  1 31  1  0
  1 32  1  0
  2 33  1  1
  3 34  1  0
  6 35  1  0
  6 36  1  0
  7 37  1  0
 11 38  1  0
 12 39  1  0
 14 40  1  0
 15 41  1  0
 16 42  1  0
 17 43  1  0
 21 44  1  0
 22 45  1  0
 23 46  1  0
 25 47  1  0
 26 48  1  0
 27 49  1  0
 28 50  1  0
M  END
>  <smiles>  (11) 
C[C@H](NC(=O)CNC(=O)c1ccc2ccccc2n1)c1cccc2ccccc12

>  <score_type>  (11) 
oracle

>  <origin>  (11) 
autodockgpu

>  <m_score__min__energy>  (11) 
-10.210000000000001

>  <m_primary>  (11) 
energy

>  <rmsd>  (11) 
4.259784151884399

>  <m_score__min__rmsd>  (11) 
4.259784151884399

>  <meeko>  (11) 
{"free_energy": -10.1, "intermolecular_energy": -11.59, "internal_energy": -1.02, "cluster_size": 26, "cluster_id": 2, "rank_in_cluster": 1}

>  <energy>  (11) 
-9.47

>  <cluster_rmsd>  (11) 
1.98

>  <cluster>  (11) 
1

$$$$

     RDKit          3D

 50 53  0  0  0  0  0  0  0  0999 V2000
  142.7650   76.8360  219.0930 C   0  0  0  0  0  0  0  0  0  0  0  0
  142.1150   77.3140  220.3840 C   0  0  2  0  0  0  0  0  0  0  0  0
  140.8330   76.5980  220.4710 N   0  0  0  0  0  0  0  0  0  0  0  0
  140.7990   75.3150  221.0440 C   0  0  0  0  0  0  0  0  0  0  0  0
  141.9110   74.8520  221.4650 O   0  0  0  0  0  0  0  0  0  0  0  0
  139.6210   74.4640  221.2070 C   0  0  0  0  0  0  0  0  0  0  0  0
  139.6390   73.5940  222.3600 N   0  0  0  0  0  0  0  0  0  0  0  0
  140.0810   72.2430  222.2800 C   0  0  0  0  0  0  0  0  0  0  0  0
  140.4920   71.7210  221.1960 O   0  0  0  0  0  0  0  0  0  0  0  0
  140.0670   71.4050  223.5010 C   0  0  0  0  0  0  0  0  0  0  0  0
  139.5620   70.1230  223.4520 C   0  0  0  0  0  0  0  0  0  0  0  0
  139.5690   69.3730  224.6240 C   0  0  0  0  0  0  0  0  0  0  0  0
  140.0680   69.8970  225.8130 C   0  0  0  0  0  0  0  0  0  0  0  0
  140.0710   69.1390  226.9820 C   0  0  0  0  0  0  0  0  0  0  0  0
  140.5820   69.7010  228.1550 C   0  0  0  0  0  0  0  0  0  0  0  0
  141.0710   70.9980  228.1210 C   0  0  0  0  0  0  0  0  0  0  0  0
  141.0760   71.7580  226.9770 C   0  0  0  0  0  0  0  0  0  0  0  0
  140.5660   71.1890  225.8180 C   0  0  0  0  0  0  0  0  0  0  0  0
  140.5470   71.8900  224.6710 N   0  0  0  0  0  0  0  0  0  0  0  0
  141.8140   78.7610  220.3340 C   0  0  0  0  0  0  0  0  0  0  0  0
  141.4820   79.4400  219.1830 C   0  0  0  0  0  0  0  0  0  0  0  0
  141.1970   80.8020  219.1700 C   0  0  0  0  0  0  0  0  0  0  0  0
  141.2380   81.5390  220.3330 C   0  0  0  0  0  0  0  0  0  0  0  0
  141.5660   80.8820  221.4910 C   0  0  0  0  0  0  0  0  0  0  0  0
  141.6030   81.6410  222.6500 C   0  0  0  0  0  0  0  0  0  0  0  0
  141.9260   81.0650  223.8520 C   0  0  0  0  0  0  0  0  0  0  0  0
  142.2090   79.7360  223.8920 C   0  0  0  0  0  0  0  0  0  0  0  0
  142.1710   78.9790  222.7270 C   0  0  0  0  0  0  0  0  0  0  0  0
  141.8510   79.5180  221.5000 C   0  0  0  0  0  0  0  0  0  0  0  0
  143.6301   76.1998  219.3317 H   0  0  0  0  0  0  0  0  0  0  0  0
  142.0352   76.2578  218.5072 H   0  0  0  0  0  0  0  0  0  0  0  0
  143.0994   77.7049  218.5072 H   0  0  0  0  0  0  0  0  0  0  0  0
  142.7861   77.1299  221.2359 H   0  0  0  0  0  0  0  0  0  0  0  0
  139.9600   77.0320  220.1180 H   0  0  0  0  0  0  0  0  0  0  0  0
  138.7395   75.1169  221.2884 H   0  0  0  0  0  0  0  0  0  0  0  0
  139.6018   73.8021  220.3286 H   0  0  0  0  0  0  0  0  0  0  0  0
  139.3290   73.9190  223.3030 H   0  0  0  0  0  0  0  0  0  0  0  0
  139.1655   69.7057  222.5146 H   0  0  0  0  0  0  0  0  0  0  0  0
  139.1728   68.3469  224.6106 H   0  0  0  0  0  0  0  0  0  0  0  0
  139.6765   68.1122  226.9816 H   0  0  0  0  0  0  0  0  0  0  0  0
  140.5961   69.1232  229.0910 H   0  0  0  0  0  0  0  0  0  0  0  0
  141.4710   71.4359  229.0474 H   0  0  0  0  0  0  0  0  0  0  0  0
  141.4714   72.7845  226.9791 H   0  0  0  0  0  0  0  0  0  0  0  0
  141.4404   78.8832  218.2353 H   0  0  0  0  0  0  0  0  0  0  0  0
  140.9364   81.2949  218.2218 H   0  0  0  0  0  0  0  0  0  0  0  0
  141.0155   82.6163  220.3328 H   0  0  0  0  0  0  0  0  0  0  0  0
  141.3712   82.7154  222.6054 H   0  0  0  0  0  0  0  0  0  0  0  0
  141.9556   81.6697  224.7704 H   0  0  0  0  0  0  0  0  0  0  0  0
  142.4686   79.2587  224.8484 H   0  0  0  0  0  0  0  0  0  0  0  0
  142.4059   77.9061  222.7870 H   0  0  0  0  0  0  0  0  0  0  0  0
  1  2  1  0
  2  3  1  0
  3  4  1  0
  4  5  2  0
  4  6  1  0
  6  7  1  0
  7  8  1  0
  8  9  2  0
  8 10  1  0
 10 11  2  0
 11 12  1  0
 12 13  2  0
 13 14  1  0
 14 15  2  0
 15 16  1  0
 16 17  2  0
 17 18  1  0
 18 19  2  0
  2 20  1  0
 20 21  2  0
 21 22  1  0
 22 23  2  0
 23 24  1  0
 24 25  2  0
 25 26  1  0
 26 27  2  0
 27 28  1  0
 28 29  2  0
 19 10  1  0
 29 20  1  0
 18 13  1  0
 29 24  1  0
  1 30  1  0
  1 31  1  0
  1 32  1  0
  2 33  1  1
  3 34  1  0
  6 35  1  0
  6 36  1  0
  7 37  1  0
 11 38  1  0
 12 39  1  0
 14 40  1  0
 15 41  1  0
 16 42  1  0
 17 43  1  0
 21 44  1  0
 22 45  1  0
 23 46  1  0
 25 47  1  0
 26 48  1  0
 27 49  1  0
 28 50  1  0
M  END
>  <smiles>  (12) 
C[C@H](NC(=O)CNC(=O)c1ccc2ccccc2n1)c1cccc2ccccc12

>  <score_type>  (12) 
oracle

>  <origin>  (12) 
autodockgpu

>  <m_score__min__energy>  (12) 
-10.210000000000001

>  <m_primary>  (12) 
energy

>  <rmsd>  (12) 
4.1414846680926765

>  <m_score__min__rmsd>  (12) 
4.1414846680926765

>  <meeko>  (12) 
{"free_energy": -9.57, "intermolecular_energy": -11.07, "internal_energy": -1.17, "cluster_size": 26, "cluster_id": 2, "rank_in_cluster": 17}

>  <energy>  (12) 
-9.46

>  <cluster_rmsd>  (12) 
1.99

>  <cluster>  (12) 
1

$$$$

     RDKit          3D

 50 53  0  0  0  0  0  0  0  0999 V2000
  141.6640   77.0950  219.6480 C   0  0  0  0  0  0  0  0  0  0  0  0
  141.4850   76.5470  221.0570 C   0  0  2  0  0  0  0  0  0  0  0  0
  140.9020   75.2080  220.8890 N   0  0  0  0  0  0  0  0  0  0  0  0
  141.7250   74.1450  220.4780 C   0  0  0  0  0  0  0  0  0  0  0  0
  142.9540   74.4240  220.2800 O   0  0  0  0  0  0  0  0  0  0  0  0
  141.3150   72.7590  220.2590 C   0  0  0  0  0  0  0  0  0  0  0  0
  141.1590   71.9620  221.4540 N   0  0  0  0  0  0  0  0  0  0  0  0
  140.2950   72.3530  222.5160 C   0  0  0  0  0  0  0  0  0  0  0  0
  139.6060   73.4200  222.4780 O   0  0  0  0  0  0  0  0  0  0  0  0
  140.1880   71.4900  223.7150 C   0  0  0  0  0  0  0  0  0  0  0  0
  139.5760   70.2580  223.6250 C   0  0  0  0  0  0  0  0  0  0  0  0
  139.4980   69.4820  224.7770 C   0  0  0  0  0  0  0  0  0  0  0  0
  140.0190   69.9310  225.9860 C   0  0  0  0  0  0  0  0  0  0  0  0
  139.9370   69.1470  227.1350 C   0  0  0  0  0  0  0  0  0  0  0  0
  140.4740   69.6340  228.3300 C   0  0  0  0  0  0  0  0  0  0  0  0
  141.0730   70.8840  228.3380 C   0  0  0  0  0  0  0  0  0  0  0  0
  141.1630   71.6690  227.2140 C   0  0  0  0  0  0  0  0  0  0  0  0
  140.6270   71.1750  226.0330 C   0  0  0  0  0  0  0  0  0  0  0  0
  140.6870   71.9030  224.9040 N   0  0  0  0  0  0  0  0  0  0  0  0
  140.5230   77.3580  221.8330 C   0  0  0  0  0  0  0  0  0  0  0  0
  139.2010   77.0180  222.0200 C   0  0  0  0  0  0  0  0  0  0  0  0
  138.3220   77.7990  222.7630 C   0  0  0  0  0  0  0  0  0  0  0  0
  138.7480   78.9690  223.3530 C   0  0  0  0  0  0  0  0  0  0  0  0
  140.0620   79.3270  223.1800 C   0  0  0  0  0  0  0  0  0  0  0  0
  140.4710   80.5070  223.7800 C   0  0  0  0  0  0  0  0  0  0  0  0
  141.7660   80.9410  223.6560 C   0  0  0  0  0  0  0  0  0  0  0  0
  142.6450   80.1950  222.9350 C   0  0  0  0  0  0  0  0  0  0  0  0
  142.2290   79.0130  222.3350 C   0  0  0  0  0  0  0  0  0  0  0  0
  140.9390   78.5410  222.4350 C   0  0  0  0  0  0  0  0  0  0  0  0
  142.0051   78.1394  219.7014 H   0  0  0  0  0  0  0  0  0  0  0  0
  142.4119   76.4919  219.1123 H   0  0  0  0  0  0  0  0  0  0  0  0
  140.7043   77.0497  219.1123 H   0  0  0  0  0  0  0  0  0  0  0  0
  142.4473   76.5494  221.5899 H   0  0  0  0  0  0  0  0  0  0  0  0
  139.8950   75.0420  221.0750 H   0  0  0  0  0  0  0  0  0  0  0  0
  140.3504   72.7701  219.7303 H   0  0  0  0  0  0  0  0  0  0  0  0
  142.1283   72.2896  219.6860 H   0  0  0  0  0  0  0  0  0  0  0  0
  141.6740   71.0620  221.5900 H   0  0  0  0  0  0  0  0  0  0  0  0
  139.1619   69.8994  222.6711 H   0  0  0  0  0  0  0  0  0  0  0  0
  139.0152   68.4947  224.7309 H   0  0  0  0  0  0  0  0  0  0  0  0
  139.4562   68.1582  227.1020 H   0  0  0  0  0  0  0  0  0  0  0  0
  140.4220   69.0341  229.2506 H   0  0  0  0  0  0  0  0  0  0  0  0
  141.4929   71.2625  229.2816 H   0  0  0  0  0  0  0  0  0  0  0  0
  141.6445   72.6574  227.2491 H   0  0  0  0  0  0  0  0  0  0  0  0
  138.8252   76.0907  221.5629 H   0  0  0  0  0  0  0  0  0  0  0  0
  137.2761   77.4793  222.8808 H   0  0  0  0  0  0  0  0  0  0  0  0
  138.0600   79.5938  223.9415 H   0  0  0  0  0  0  0  0  0  0  0  0
  139.7504   81.1012  224.3611 H   0  0  0  0  0  0  0  0  0  0  0  0
  142.0888   81.8784  224.1326 H   0  0  0  0  0  0  0  0  0  0  0  0
  143.6877   80.5281  222.8265 H   0  0  0  0  0  0  0  0  0  0  0  0
  142.9603   78.4299  221.7560 H   0  0  0  0  0  0  0  0  0  0  0  0
  1  2  1  0
  2  3  1  0
  3  4  1  0
  4  5  2  0
  4  6  1  0
  6  7  1  0
  7  8  1  0
  8  9  2  0
  8 10  1  0
 10 11  2  0
 11 12  1  0
 12 13  2  0
 13 14  1  0
 14 15  2  0
 15 16  1  0
 16 17  2  0
 17 18  1  0
 18 19  2  0
  2 20  1  0
 20 21  2  0
 21 22  1  0
 22 23  2  0
 23 24  1  0
 24 25  2  0
 25 26  1  0
 26 27  2  0
 27 28  1  0
 28 29  2  0
 19 10  1  0
 29 20  1  0
 18 13  1  0
 29 24  1  0
  1 30  1  0
  1 31  1  0
  1 32  1  0
  2 33  1  1
  3 34  1  0
  6 35  1  0
  6 36  1  0
  7 37  1  0
 11 38  1  0
 12 39  1  0
 14 40  1  0
 15 41  1  0
 16 42  1  0
 17 43  1  0
 21 44  1  0
 22 45  1  0
 23 46  1  0
 25 47  1  0
 26 48  1  0
 27 49  1  0
 28 50  1  0
M  END
>  <smiles>  (13) 
C[C@H](NC(=O)CNC(=O)c1ccc2ccccc2n1)c1cccc2ccccc12

>  <score_type>  (13) 
oracle

>  <origin>  (13) 
autodockgpu

>  <m_score__min__energy>  (13) 
-10.210000000000001

>  <m_primary>  (13) 
energy

>  <rmsd>  (13) 
4.571322055652984

>  <m_score__min__rmsd>  (13) 
4.571322055652984

>  <meeko>  (13) 
{"free_energy": -9.53, "intermolecular_energy": -11.02, "internal_energy": -1.72, "cluster_size": 14, "cluster_id": 1, "rank_in_cluster": 6}

>  <energy>  (13) 
-9.46

>  <cluster_rmsd>  (13) 
1.98

>  <cluster>  (13) 
1

$$$$

     RDKit          3D

 50 53  0  0  0  0  0  0  0  0999 V2000
  140.8760   78.0280  219.4450 C   0  0  0  0  0  0  0  0  0  0  0  0
  140.8780   77.3720  220.8180 C   0  0  2  0  0  0  0  0  0  0  0  0
  139.9750   76.2170  220.7060 N   0  0  0  0  0  0  0  0  0  0  0  0
  140.3230   75.0070  221.3340 C   0  0  0  0  0  0  0  0  0  0  0  0
  141.4240   75.0000  221.9780 O   0  0  0  0  0  0  0  0  0  0  0  0
  139.5510   73.7660  221.3240 C   0  0  0  0  0  0  0  0  0  0  0  0
  139.6660   72.9550  222.5140 N   0  0  0  0  0  0  0  0  0  0  0  0
  139.4650   71.5460  222.4890 C   0  0  0  0  0  0  0  0  0  0  0  0
  139.1790   70.9150  221.4240 O   0  0  0  0  0  0  0  0  0  0  0  0
  139.5920   70.7770  223.7480 C   0  0  0  0  0  0  0  0  0  0  0  0
  139.1130   69.4850  223.8190 C   0  0  0  0  0  0  0  0  0  0  0  0
  139.2550   68.8010  225.0220 C   0  0  0  0  0  0  0  0  0  0  0  0
  139.8590   69.3970  226.1240 C   0  0  0  0  0  0  0  0  0  0  0  0
  139.9970   68.7050  227.3260 C   0  0  0  0  0  0  0  0  0  0  0  0
  140.6110   69.3390  228.4090 C   0  0  0  0  0  0  0  0  0  0  0  0
  141.0660   70.6400  228.2570 C   0  0  0  0  0  0  0  0  0  0  0  0
  140.9380   71.3360  227.0800 C   0  0  0  0  0  0  0  0  0  0  0  0
  140.3270   70.6960  226.0110 C   0  0  0  0  0  0  0  0  0  0  0  0
  140.1760   71.3330  224.8360 N   0  0  0  0  0  0  0  0  0  0  0  0
  140.3210   78.2740  221.8480 C   0  0  0  0  0  0  0  0  0  0  0  0
  138.9940   78.2960  222.2200 C   0  0  0  0  0  0  0  0  0  0  0  0
  138.5020   79.1530  223.1990 C   0  0  0  0  0  0  0  0  0  0  0  0
  139.3400   80.0320  223.8490 C   0  0  0  0  0  0  0  0  0  0  0  0
  140.6660   80.0270  223.4950 C   0  0  0  0  0  0  0  0  0  0  0  0
  141.4920   80.9200  224.1580 C   0  0  0  0  0  0  0  0  0  0  0  0
  142.8300   80.9830  223.8640 C   0  0  0  0  0  0  0  0  0  0  0  0
  143.3360   80.1570  222.9110 C   0  0  0  0  0  0  0  0  0  0  0  0
  142.5030   79.2640  222.2480 C   0  0  0  0  0  0  0  0  0  0  0  0
  141.1550   79.1680  222.5130 C   0  0  0  0  0  0  0  0  0  0  0  0
  140.8727   79.1218  219.5613 H   0  0  0  0  0  0  0  0  0  0  0  0
  141.7751   77.7209  218.8906 H   0  0  0  0  0  0  0  0  0  0  0  0
  139.9788   77.7155  218.8906 H   0  0  0  0  0  0  0  0  0  0  0  0
  141.9051   77.1072  221.1095 H   0  0  0  0  0  0  0  0  0  0  0  0
  139.0870   76.2880  220.1760 H   0  0  0  0  0  0  0  0  0  0  0  0
  138.4906   74.0271  221.1924 H   0  0  0  0  0  0  0  0  0  0  0  0
  139.9622   73.1599  220.5033 H   0  0  0  0  0  0  0  0  0  0  0  0
  139.9030   73.3680  223.4440 H   0  0  0  0  0  0  0  0  0  0  0  0
  138.6333   69.0101  222.9505 H   0  0  0  0  0  0  0  0  0  0  0  0
  138.8825   67.7692  225.1032 H   0  0  0  0  0  0  0  0  0  0  0  0
  139.6273   67.6733  227.4207 H   0  0  0  0  0  0  0  0  0  0  0  0
  140.7317   68.8139  229.3680 H   0  0  0  0  0  0  0  0  0  0  0  0
  141.5486   71.1342  229.1131 H   0  0  0  0  0  0  0  0  0  0  0  0
  141.3080   72.3678  226.9876 H   0  0  0  0  0  0  0  0  0  0  0  0
  138.2953   77.6075  221.7222 H   0  0  0  0  0  0  0  0  0  0  0  0
  137.4329   79.1285  223.4567 H   0  0  0  0  0  0  0  0  0  0  0  0
  138.9600   80.7137  224.6242 H   0  0  0  0  0  0  0  0  0  0  0  0
  141.0709   81.5843  224.9270 H   0  0  0  0  0  0  0  0  0  0  0  0
  143.4844   81.6921  224.3921 H   0  0  0  0  0  0  0  0  0  0  0  0
  144.4072   80.1953  222.6639 H   0  0  0  0  0  0  0  0  0  0  0  0
  142.9380   78.6071  221.4803 H   0  0  0  0  0  0  0  0  0  0  0  0
  1  2  1  0
  2  3  1  0
  3  4  1  0
  4  5  2  0
  4  6  1  0
  6  7  1  0
  7  8  1  0
  8  9  2  0
  8 10  1  0
 10 11  2  0
 11 12  1  0
 12 13  2  0
 13 14  1  0
 14 15  2  0
 15 16  1  0
 16 17  2  0
 17 18  1  0
 18 19  2  0
  2 20  1  0
 20 21  2  0
 21 22  1  0
 22 23  2  0
 23 24  1  0
 24 25  2  0
 25 26  1  0
 26 27  2  0
 27 28  1  0
 28 29  2  0
 19 10  1  0
 29 20  1  0
 18 13  1  0
 29 24  1  0
  1 30  1  0
  1 31  1  0
  1 32  1  0
  2 33  1  1
  3 34  1  0
  6 35  1  0
  6 36  1  0
  7 37  1  0
 11 38  1  0
 12 39  1  0
 14 40  1  0
 15 41  1  0
 16 42  1  0
 17 43  1  0
 21 44  1  0
 22 45  1  0
 23 46  1  0
 25 47  1  0
 26 48  1  0
 27 49  1  0
 28 50  1  0
M  END
>  <smiles>  (14) 
C[C@H](NC(=O)CNC(=O)c1ccc2ccccc2n1)c1cccc2ccccc12

>  <score_type>  (14) 
oracle

>  <origin>  (14) 
autodockgpu

>  <m_score__min__energy>  (14) 
-10.210000000000001

>  <m_primary>  (14) 
energy

>  <rmsd>  (14) 
4.43918140116573

>  <m_score__min__rmsd>  (14) 
4.43918140116573

>  <meeko>  (14) 
{"free_energy": -9.54, "intermolecular_energy": -11.03, "internal_energy": -1.47, "cluster_size": 26, "cluster_id": 2, "rank_in_cluster": 19}

>  <energy>  (14) 
-9.45

>  <cluster_rmsd>  (14) 
1.99

>  <cluster>  (14) 
1

$$$$

     RDKit          3D

 50 53  0  0  0  0  0  0  0  0999 V2000
  140.9000   77.7500  219.7810 C   0  0  0  0  0  0  0  0  0  0  0  0
  140.7630   77.2610  221.2160 C   0  0  2  0  0  0  0  0  0  0  0  0
  139.7690   76.1790  221.1720 N   0  0  0  0  0  0  0  0  0  0  0  0
  140.1400   74.8860  221.5830 C   0  0  0  0  0  0  0  0  0  0  0  0
  141.3440   74.7420  221.9800 O   0  0  0  0  0  0  0  0  0  0  0  0
  139.2870   73.6990  221.6020 C   0  0  0  0  0  0  0  0  0  0  0  0
  139.4920   72.8060  222.7190 N   0  0  0  0  0  0  0  0  0  0  0  0
  139.1130   71.4350  222.6700 C   0  0  0  0  0  0  0  0  0  0  0  0
  138.5790   70.9100  221.6430 O   0  0  0  0  0  0  0  0  0  0  0  0
  139.3470   70.5780  223.8550 C   0  0  0  0  0  0  0  0  0  0  0  0
  138.9550   69.2560  223.8380 C   0  0  0  0  0  0  0  0  0  0  0  0
  139.1950   68.4890  224.9740 C   0  0  0  0  0  0  0  0  0  0  0  0
  139.8090   69.0350  226.0960 C   0  0  0  0  0  0  0  0  0  0  0  0
  140.0460   68.2600  227.2300 C   0  0  0  0  0  0  0  0  0  0  0  0
  140.6660   68.8460  228.3370 C   0  0  0  0  0  0  0  0  0  0  0  0
  141.0290   70.1830  228.2740 C   0  0  0  0  0  0  0  0  0  0  0  0
  140.8040   70.9600  227.1640 C   0  0  0  0  0  0  0  0  0  0  0  0
  140.1870   70.3670  226.0710 C   0  0  0  0  0  0  0  0  0  0  0  0
  139.9430   71.0840  224.9600 N   0  0  0  0  0  0  0  0  0  0  0  0
  140.2290   78.3210  222.0980 C   0  0  0  0  0  0  0  0  0  0  0  0
  138.8950   78.4640  222.4120 C   0  0  0  0  0  0  0  0  0  0  0  0
  138.4250   79.4680  223.2520 C   0  0  0  0  0  0  0  0  0  0  0  0
  139.2930   80.3770  223.8150 C   0  0  0  0  0  0  0  0  0  0  0  0
  140.6260   80.2530  223.5160 C   0  0  0  0  0  0  0  0  0  0  0  0
  141.4840   81.1780  224.0900 C   0  0  0  0  0  0  0  0  0  0  0  0
  142.8320   81.1280  223.8420 C   0  0  0  0  0  0  0  0  0  0  0  0
  143.3160   80.1570  223.0240 C   0  0  0  0  0  0  0  0  0  0  0  0
  142.4530   79.2330  222.4510 C   0  0  0  0  0  0  0  0  0  0  0  0
  141.0940   79.2460  222.6730 C   0  0  0  0  0  0  0  0  0  0  0  0
  141.1967   78.8092  219.7813 H   0  0  0  0  0  0  0  0  0  0  0  0
  141.6660   77.1548  219.2624 H   0  0  0  0  0  0  0  0  0  0  0  0
  139.9363   77.6394  219.2624 H   0  0  0  0  0  0  0  0  0  0  0  0
  141.7432   76.9485  221.6053 H   0  0  0  0  0  0  0  0  0  0  0  0
  138.8020   76.3610  220.8460 H   0  0  0  0  0  0  0  0  0  0  0  0
  138.2395   74.0342  221.6234 H   0  0  0  0  0  0  0  0  0  0  0  0
  139.5489   73.1234  220.7020 H   0  0  0  0  0  0  0  0  0  0  0  0
  139.9280   73.1290  223.6120 H   0  0  0  0  0  0  0  0  0  0  0  0
  138.4673   68.8209  222.9532 H   0  0  0  0  0  0  0  0  0  0  0  0
  138.8935   67.4312  224.9847 H   0  0  0  0  0  0  0  0  0  0  0  0
  139.7490   67.2011  227.2533 H   0  0  0  0  0  0  0  0  0  0  0  0
  140.8630   68.2559  229.2442 H   0  0  0  0  0  0  0  0  0  0  0  0
  141.5167   70.6395  229.1480 H   0  0  0  0  0  0  0  0  0  0  0  0
  141.1031   72.0183  227.1418 H   0  0  0  0  0  0  0  0  0  0  0  0
  138.1725   77.7554  221.9809 H   0  0  0  0  0  0  0  0  0  0  0  0
  137.3488   79.5367  223.4689 H   0  0  0  0  0  0  0  0  0  0  0  0
  138.9303   81.1740  224.4807 H   0  0  0  0  0  0  0  0  0  0  0  0
  141.0800   81.9594  224.7505 H   0  0  0  0  0  0  0  0  0  0  0  0
  143.5112   81.8630  224.2985 H   0  0  0  0  0  0  0  0  0  0  0  0
  144.3947   80.1030  222.8153 H   0  0  0  0  0  0  0  0  0  0  0  0
  142.8721   78.4582  221.7922 H   0  0  0  0  0  0  0  0  0  0  0  0
  1  2  1  0
  2  3  1  0
  3  4  1  0
  4  5  2  0
  4  6  1  0
  6  7  1  0
  7  8  1  0
  8  9  2  0
  8 10  1  0
 10 11  2  0
 11 12  1  0
 12 13  2  0
 13 14  1  0
 14 15  2  0
 15 16  1  0
 16 17  2  0
 17 18  1  0
 18 19  2  0
  2 20  1  0
 20 21  2  0
 21 22  1  0
 22 23  2  0
 23 24  1  0
 24 25  2  0
 25 26  1  0
 26 27  2  0
 27 28  1  0
 28 29  2  0
 19 10  1  0
 29 20  1  0
 18 13  1  0
 29 24  1  0
  1 30  1  0
  1 31  1  0
  1 32  1  0
  2 33  1  1
  3 34  1  0
  6 35  1  0
  6 36  1  0
  7 37  1  0
 11 38  1  0
 12 39  1  0
 14 40  1  0
 15 41  1  0
 16 42  1  0
 17 43  1  0
 21 44  1  0
 22 45  1  0
 23 46  1  0
 25 47  1  0
 26 48  1  0
 27 49  1  0
 28 50  1  0
M  END
>  <smiles>  (15) 
C[C@H](NC(=O)CNC(=O)c1ccc2ccccc2n1)c1cccc2ccccc12

>  <score_type>  (15) 
oracle

>  <origin>  (15) 
autodockgpu

>  <m_score__min__energy>  (15) 
-10.210000000000001

>  <m_primary>  (15) 
energy

>  <rmsd>  (15) 
4.466828178473398

>  <m_score__min__rmsd>  (15) 
4.466828178473398

>  <meeko>  (15) 
{"free_energy": -9.7, "intermolecular_energy": -11.19, "internal_energy": -1.43, "cluster_size": 26, "cluster_id": 2, "rank_in_cluster": 8}

>  <energy>  (15) 
-10.1

>  <cluster_rmsd>  (15) 
0.0

>  <cluster>  (15) 
2

$$$$

     RDKit          3D

 50 53  0  0  0  0  0  0  0  0999 V2000
  140.7070   77.4570  220.0320 C   0  0  0  0  0  0  0  0  0  0  0  0
  140.7650   77.1610  221.5240 C   0  0  2  0  0  0  0  0  0  0  0  0
  139.8580   76.0240  221.7380 N   0  0  0  0  0  0  0  0  0  0  0  0
  140.0970   74.8150  221.0590 C   0  0  0  0  0  0  0  0  0  0  0  0
  141.1140   74.7900  220.2900 O   0  0  0  0  0  0  0  0  0  0  0  0
  139.3010   73.5930  221.1500 C   0  0  0  0  0  0  0  0  0  0  0  0
  139.4590   72.8390  222.3720 N   0  0  0  0  0  0  0  0  0  0  0  0
  139.4890   71.4160  222.3830 C   0  0  0  0  0  0  0  0  0  0  0  0
  139.3860   70.7220  221.3230 O   0  0  0  0  0  0  0  0  0  0  0  0
  139.6480   70.7070  223.6740 C   0  0  0  0  0  0  0  0  0  0  0  0
  139.2530   69.3910  223.7910 C   0  0  0  0  0  0  0  0  0  0  0  0
  139.4210   68.7660  225.0230 C   0  0  0  0  0  0  0  0  0  0  0  0
  139.9690   69.4430  226.1070 C   0  0  0  0  0  0  0  0  0  0  0  0
  140.1340   68.8100  227.3370 C   0  0  0  0  0  0  0  0  0  0  0  0
  140.6900   69.5250  228.4010 C   0  0  0  0  0  0  0  0  0  0  0  0
  141.0610   70.8460  228.2020 C   0  0  0  0  0  0  0  0  0  0  0  0
  140.9060   71.4850  226.9960 C   0  0  0  0  0  0  0  0  0  0  0  0
  140.3530   70.7640  225.9460 C   0  0  0  0  0  0  0  0  0  0  0  0
  140.1790   71.3430  224.7450 N   0  0  0  0  0  0  0  0  0  0  0  0
  140.2520   78.2960  222.3210 C   0  0  0  0  0  0  0  0  0  0  0  0
  138.9210   78.4870  222.6230 C   0  0  0  0  0  0  0  0  0  0  0  0
  138.4700   79.5620  223.3820 C   0  0  0  0  0  0  0  0  0  0  0  0
  139.3550   80.4980  223.8700 C   0  0  0  0  0  0  0  0  0  0  0  0
  140.6850   80.3270  223.5800 C   0  0  0  0  0  0  0  0  0  0  0  0
  141.5600   81.2800  224.0780 C   0  0  0  0  0  0  0  0  0  0  0  0
  142.9060   81.1880  223.8340 C   0  0  0  0  0  0  0  0  0  0  0  0
  143.3720   80.1470  223.0950 C   0  0  0  0  0  0  0  0  0  0  0  0
  142.4920   79.1940  222.5980 C   0  0  0  0  0  0  0  0  0  0  0  0
  141.1330   79.2490  222.8200 C   0  0  0  0  0  0  0  0  0  0  0  0
  140.4976   78.5259  219.8781 H   0  0  0  0  0  0  0  0  0  0  0  0
  141.6721   77.2022  219.5698 H   0  0  0  0  0  0  0  0  0  0  0  0
  139.9094   76.8568  219.5698 H   0  0  0  0  0  0  0  0  0  0  0  0
  141.8033   76.9656  221.8303 H   0  0  0  0  0  0  0  0  0  0  0  0
  139.0520   76.1040  222.3850 H   0  0  0  0  0  0  0  0  0  0  0  0
  138.2408   73.8712  221.0578 H   0  0  0  0  0  0  0  0  0  0  0  0
  139.6586   72.9380  220.3419 H   0  0  0  0  0  0  0  0  0  0  0  0
  139.5580   73.3060  223.3010 H   0  0  0  0  0  0  0  0  0  0  0  0
  138.8183   68.8516  222.9365 H   0  0  0  0  0  0  0  0  0  0  0  0
  139.1144   67.7163  225.1416 H   0  0  0  0  0  0  0  0  0  0  0  0
  139.8305   67.7609  227.4689 H   0  0  0  0  0  0  0  0  0  0  0  0
  140.8312   69.0471  229.3816 H   0  0  0  0  0  0  0  0  0  0  0  0
  141.4968   71.4046  229.0434 H   0  0  0  0  0  0  0  0  0  0  0  0
  141.2102   72.5341  226.8662 H   0  0  0  0  0  0  0  0  0  0  0  0
  138.1854   77.7599  222.2487 H   0  0  0  0  0  0  0  0  0  0  0  0
  137.3957   79.6656  223.5947 H   0  0  0  0  0  0  0  0  0  0  0  0
  139.0079   81.3517  224.4705 H   0  0  0  0  0  0  0  0  0  0  0  0
  141.1706   82.1181  224.6747 H   0  0  0  0  0  0  0  0  0  0  0  0
  143.5983   81.9454  224.2304 H   0  0  0  0  0  0  0  0  0  0  0  0
  144.4491   80.0588  222.8898 H   0  0  0  0  0  0  0  0  0  0  0  0
  142.8963   78.3617  222.0031 H   0  0  0  0  0  0  0  0  0  0  0  0
  1  2  1  0
  2  3  1  0
  3  4  1  0
  4  5  2  0
  4  6  1  0
  6  7  1  0
  7  8  1  0
  8  9  2  0
  8 10  1  0
 10 11  2  0
 11 12  1  0
 12 13  2  0
 13 14  1  0
 14 15  2  0
 15 16  1  0
 16 17  2  0
 17 18  1  0
 18 19  2  0
  2 20  1  0
 20 21  2  0
 21 22  1  0
 22 23  2  0
 23 24  1  0
 24 25  2  0
 25 26  1  0
 26 27  2  0
 27 28  1  0
 28 29  2  0
 19 10  1  0
 29 20  1  0
 18 13  1  0
 29 24  1  0
  1 30  1  0
  1 31  1  0
  1 32  1  0
  2 33  1  1
  3 34  1  0
  6 35  1  0
  6 36  1  0
  7 37  1  0
 11 38  1  0
 12 39  1  0
 14 40  1  0
 15 41  1  0
 16 42  1  0
 17 43  1  0
 21 44  1  0
 22 45  1  0
 23 46  1  0
 25 47  1  0
 26 48  1  0
 27 49  1  0
 28 50  1  0
M  END
>  <smiles>  (16) 
C[C@H](NC(=O)CNC(=O)c1ccc2ccccc2n1)c1cccc2ccccc12

>  <score_type>  (16) 
oracle

>  <origin>  (16) 
autodockgpu

>  <m_score__min__energy>  (16) 
-10.210000000000001

>  <m_primary>  (16) 
energy

>  <rmsd>  (16) 
4.4565692569779

>  <m_score__min__rmsd>  (16) 
4.4565692569779

>  <meeko>  (16) 
{"free_energy": -9.64, "intermolecular_energy": -11.13, "internal_energy": -1.05, "cluster_size": 26, "cluster_id": 2, "rank_in_cluster": 14}

>  <energy>  (16) 
-10.05

>  <cluster_rmsd>  (16) 
0.19

>  <cluster>  (16) 
2

$$$$

     RDKit          3D

 50 53  0  0  0  0  0  0  0  0999 V2000
  141.6930   77.1150  219.6200 C   0  0  0  0  0  0  0  0  0  0  0  0
  141.5350   76.5470  221.0230 C   0  0  2  0  0  0  0  0  0  0  0  0
  140.9790   75.1980  220.8440 N   0  0  0  0  0  0  0  0  0  0  0  0
  141.8400   74.1370  220.5090 C   0  0  0  0  0  0  0  0  0  0  0  0
  143.0760   74.4280  220.3870 O   0  0  0  0  0  0  0  0  0  0  0  0
  141.4600   72.7430  220.2910 C   0  0  0  0  0  0  0  0  0  0  0  0
  141.2490   71.9630  221.4880 N   0  0  0  0  0  0  0  0  0  0  0  0
  140.3340   72.3670  222.5010 C   0  0  0  0  0  0  0  0  0  0  0  0
  139.6450   73.4300  222.4150 O   0  0  0  0  0  0  0  0  0  0  0  0
  140.1720   71.5210  223.7060 C   0  0  0  0  0  0  0  0  0  0  0  0
  139.4770   70.3320  223.6250 C   0  0  0  0  0  0  0  0  0  0  0  0
  139.3490   69.5700  224.7820 C   0  0  0  0  0  0  0  0  0  0  0  0
  139.9030   69.9910  225.9880 C   0  0  0  0  0  0  0  0  0  0  0  0
  139.7700   69.2210  227.1420 C   0  0  0  0  0  0  0  0  0  0  0  0
  140.3410   69.6790  228.3330 C   0  0  0  0  0  0  0  0  0  0  0  0
  141.0240   70.8860  228.3310 C   0  0  0  0  0  0  0  0  0  0  0  0
  141.1640   71.6560  227.2020 C   0  0  0  0  0  0  0  0  0  0  0  0
  140.5930   71.1910  226.0250 C   0  0  0  0  0  0  0  0  0  0  0  0
  140.7000   71.9070  224.8920 N   0  0  0  0  0  0  0  0  0  0  0  0
  140.5610   77.3290  221.8150 C   0  0  0  0  0  0  0  0  0  0  0  0
  139.2430   76.9680  221.9910 C   0  0  0  0  0  0  0  0  0  0  0  0
  138.3520   77.7210  222.7480 C   0  0  0  0  0  0  0  0  0  0  0  0
  138.7620   78.8830  223.3650 C   0  0  0  0  0  0  0  0  0  0  0  0
  140.0710   79.2610  223.2030 C   0  0  0  0  0  0  0  0  0  0  0  0
  140.4640   80.4330  223.8290 C   0  0  0  0  0  0  0  0  0  0  0  0
  141.7540   80.8860  223.7180 C   0  0  0  0  0  0  0  0  0  0  0  0
  142.6430   80.1680  222.9830 C   0  0  0  0  0  0  0  0  0  0  0  0
  142.2450   78.9940  222.3560 C   0  0  0  0  0  0  0  0  0  0  0  0
  140.9600   78.5040  222.4430 C   0  0  0  0  0  0  0  0  0  0  0  0
  141.9873   78.1730  219.6837 H   0  0  0  0  0  0  0  0  0  0  0  0
  142.4682   76.5506  219.0811 H   0  0  0  0  0  0  0  0  0  0  0  0
  140.7377   77.0320  219.0811 H   0  0  0  0  0  0  0  0  0  0  0  0
  142.5009   76.5633  221.5491 H   0  0  0  0  0  0  0  0  0  0  0  0
  139.9640   75.0230  220.9660 H   0  0  0  0  0  0  0  0  0  0  0  0
  140.5257   72.7329  219.7105 H   0  0  0  0  0  0  0  0  0  0  0  0
  142.3092   72.2756  219.7710 H   0  0  0  0  0  0  0  0  0  0  0  0
  141.7590   71.0670  221.6620 H   0  0  0  0  0  0  0  0  0  0  0  0
  139.0373   69.9965  222.6742 H   0  0  0  0  0  0  0  0  0  0  0  0
  138.8001   68.6175  224.7433 H   0  0  0  0  0  0  0  0  0  0  0  0
  139.2236   68.2666  227.1161 H   0  0  0  0  0  0  0  0  0  0  0  0
  140.2499   69.0908  229.2580 H   0  0  0  0  0  0  0  0  0  0  0  0
  141.4715   71.2410  229.2710 H   0  0  0  0  0  0  0  0  0  0  0  0
  141.7108   72.6101  227.2296 H   0  0  0  0  0  0  0  0  0  0  0  0
  138.8805   76.0460  221.5129 H   0  0  0  0  0  0  0  0  0  0  0  0
  137.3098   77.3858  222.8553 H   0  0  0  0  0  0  0  0  0  0  0  0
  138.0650   79.4858  223.9657 H   0  0  0  0  0  0  0  0  0  0  0  0
  139.7346   81.0056  224.4206 H   0  0  0  0  0  0  0  0  0  0  0  0
  142.0640   81.8163  224.2164 H   0  0  0  0  0  0  0  0  0  0  0  0
  143.6813   80.5175  222.8841 H   0  0  0  0  0  0  0  0  0  0  0  0
  142.9852   78.4331  221.7665 H   0  0  0  0  0  0  0  0  0  0  0  0
  1  2  1  0
  2  3  1  0
  3  4  1  0
  4  5  2  0
  4  6  1  0
  6  7  1  0
  7  8  1  0
  8  9  2  0
  8 10  1  0
 10 11  2  0
 11 12  1  0
 12 13  2  0
 13 14  1  0
 14 15  2  0
 15 16  1  0
 16 17  2  0
 17 18  1  0
 18 19  2  0
  2 20  1  0
 20 21  2  0
 21 22  1  0
 22 23  2  0
 23 24  1  0
 24 25  2  0
 25 26  1  0
 26 27  2  0
 27 28  1  0
 28 29  2  0
 19 10  1  0
 29 20  1  0
 18 13  1  0
 29 24  1  0
  1 30  1  0
  1 31  1  0
  1 32  1  0
  2 33  1  1
  3 34  1  0
  6 35  1  0
  6 36  1  0
  7 37  1  0
 11 38  1  0
 12 39  1  0
 14 40  1  0
 15 41  1  0
 16 42  1  0
 17 43  1  0
 21 44  1  0
 22 45  1  0
 23 46  1  0
 25 47  1  0
 26 48  1  0
 27 49  1  0
 28 50  1  0
M  END
>  <smiles>  (17) 
C[C@H](NC(=O)CNC(=O)c1ccc2ccccc2n1)c1cccc2ccccc12

>  <score_type>  (17) 
oracle

>  <origin>  (17) 
autodockgpu

>  <m_score__min__energy>  (17) 
-10.210000000000001

>  <m_primary>  (17) 
energy

>  <rmsd>  (17) 
4.579742143779952

>  <m_score__min__rmsd>  (17) 
4.579742143779952

>  <meeko>  (17) 
{"free_energy": -9.49, "intermolecular_energy": -10.98, "internal_energy": -1.74, "cluster_size": 14, "cluster_id": 1, "rank_in_cluster": 7}

>  <energy>  (17) 
-10.02

>  <cluster_rmsd>  (17) 
0.17

>  <cluster>  (17) 
2

$$$$

     RDKit          3D

 50 53  0  0  0  0  0  0  0  0999 V2000
  140.9900   77.6410  219.9460 C   0  0  0  0  0  0  0  0  0  0  0  0
  140.8030   77.2120  221.3940 C   0  0  2  0  0  0  0  0  0  0  0  0
  139.7960   76.1400  221.3620 N   0  0  0  0  0  0  0  0  0  0  0  0
  140.2000   74.8090  221.5680 C   0  0  0  0  0  0  0  0  0  0  0  0
  141.4440   74.6210  221.7790 O   0  0  0  0  0  0  0  0  0  0  0  0
  139.3410   73.6270  221.5660 C   0  0  0  0  0  0  0  0  0  0  0  0
  139.4610   72.7710  222.7240 N   0  0  0  0  0  0  0  0  0  0  0  0
  139.4210   71.3520  222.6210 C   0  0  0  0  0  0  0  0  0  0  0  0
  139.2830   70.7510  221.5100 O   0  0  0  0  0  0  0  0  0  0  0  0
  139.5450   70.5350  223.8510 C   0  0  0  0  0  0  0  0  0  0  0  0
  139.0630   69.2430  223.8720 C   0  0  0  0  0  0  0  0  0  0  0  0
  139.2010   68.5140  225.0490 C   0  0  0  0  0  0  0  0  0  0  0  0
  139.8050   69.0670  226.1740 C   0  0  0  0  0  0  0  0  0  0  0  0
  139.9390   68.3300  227.3490 C   0  0  0  0  0  0  0  0  0  0  0  0
  140.5530   68.9210  228.4560 C   0  0  0  0  0  0  0  0  0  0  0  0
  141.0100   70.2260  228.3540 C   0  0  0  0  0  0  0  0  0  0  0  0
  140.8870   70.9660  227.2030 C   0  0  0  0  0  0  0  0  0  0  0  0
  140.2760   70.3680  226.1100 C   0  0  0  0  0  0  0  0  0  0  0  0
  140.1280   71.0490  224.9590 N   0  0  0  0  0  0  0  0  0  0  0  0
  140.2560   78.3120  222.2170 C   0  0  0  0  0  0  0  0  0  0  0  0
  138.9190   78.4650  222.5100 C   0  0  0  0  0  0  0  0  0  0  0  0
  138.4360   79.5080  223.2940 C   0  0  0  0  0  0  0  0  0  0  0  0
  139.2950   80.4490  223.8180 C   0  0  0  0  0  0  0  0  0  0  0  0
  140.6320   80.3150  223.5380 C   0  0  0  0  0  0  0  0  0  0  0  0
  141.4800   81.2720  224.0720 C   0  0  0  0  0  0  0  0  0  0  0  0
  142.8300   81.2170  223.8400 C   0  0  0  0  0  0  0  0  0  0  0  0
  143.3270   80.2070  223.0770 C   0  0  0  0  0  0  0  0  0  0  0  0
  142.4730   79.2510  222.5430 C   0  0  0  0  0  0  0  0  0  0  0  0
  141.1110   79.2690  222.7520 C   0  0  0  0  0  0  0  0  0  0  0  0
  141.4294   78.6490  219.9160 H   0  0  0  0  0  0  0  0  0  0  0  0
  141.6612   76.9332  219.4376 H   0  0  0  0  0  0  0  0  0  0  0  0
  140.0146   77.6510  219.4376 H   0  0  0  0  0  0  0  0  0  0  0  0
  141.7671   76.9045  221.8253 H   0  0  0  0  0  0  0  0  0  0  0  0
  138.7960   76.3580  221.1940 H   0  0  0  0  0  0  0  0  0  0  0  0
  138.2967   73.9666  221.5019 H   0  0  0  0  0  0  0  0  0  0  0  0
  139.6625   73.0205  220.7065 H   0  0  0  0  0  0  0  0  0  0  0  0
  139.5840   73.1580  223.6870 H   0  0  0  0  0  0  0  0  0  0  0  0
  138.5841   68.8023  222.9852 H   0  0  0  0  0  0  0  0  0  0  0  0
  138.8255   67.4809  225.0910 H   0  0  0  0  0  0  0  0  0  0  0  0
  139.5663   67.2966  227.4042 H   0  0  0  0  0  0  0  0  0  0  0  0
  140.6721   68.3595  229.3943 H   0  0  0  0  0  0  0  0  0  0  0  0
  141.4902   70.6873  229.2296 H   0  0  0  0  0  0  0  0  0  0  0  0
  141.2608   71.9992  227.1496 H   0  0  0  0  0  0  0  0  0  0  0  0
  138.2037   77.7326  222.1077 H   0  0  0  0  0  0  0  0  0  0  0  0
  137.3575   79.5820  223.4975 H   0  0  0  0  0  0  0  0  0  0  0  0
  138.9229   81.2777  224.4383 H   0  0  0  0  0  0  0  0  0  0  0  0
  141.0659   82.0838  224.6881 H   0  0  0  0  0  0  0  0  0  0  0  0
  143.5010   81.9783  224.2646 H   0  0  0  0  0  0  0  0  0  0  0  0
  144.4080   80.1472  222.8824 H   0  0  0  0  0  0  0  0  0  0  0  0
  142.9014   78.4461  221.9277 H   0  0  0  0  0  0  0  0  0  0  0  0
  1  2  1  0
  2  3  1  0
  3  4  1  0
  4  5  2  0
  4  6  1  0
  6  7  1  0
  7  8  1  0
  8  9  2  0
  8 10  1  0
 10 11  2  0
 11 12  1  0
 12 13  2  0
 13 14  1  0
 14 15  2  0
 15 16  1  0
 16 17  2  0
 17 18  1  0
 18 19  2  0
  2 20  1  0
 20 21  2  0
 21 22  1  0
 22 23  2  0
 23 24  1  0
 24 25  2  0
 25 26  1  0
 26 27  2  0
 27 28  1  0
 28 29  2  0
 19 10  1  0
 29 20  1  0
 18 13  1  0
 29 24  1  0
  1 30  1  0
  1 31  1  0
  1 32  1  0
  2 33  1  1
  3 34  1  0
  6 35  1  0
  6 36  1  0
  7 37  1  0
 11 38  1  0
 12 39  1  0
 14 40  1  0
 15 41  1  0
 16 42  1  0
 17 43  1  0
 21 44  1  0
 22 45  1  0
 23 46  1  0
 25 47  1  0
 26 48  1  0
 27 49  1  0
 28 50  1  0
M  END
>  <smiles>  (18) 
C[C@H](NC(=O)CNC(=O)c1ccc2ccccc2n1)c1cccc2ccccc12

>  <score_type>  (18) 
oracle

>  <origin>  (18) 
autodockgpu

>  <m_score__min__energy>  (18) 
-10.210000000000001

>  <m_primary>  (18) 
energy

>  <rmsd>  (18) 
4.472164915592729

>  <m_score__min__rmsd>  (18) 
4.472164915592729

>  <meeko>  (18) 
{"free_energy": -9.8, "intermolecular_energy": -11.29, "internal_energy": -1.24, "cluster_size": 26, "cluster_id": 2, "rank_in_cluster": 5}

>  <energy>  (18) 
-9.95

>  <cluster_rmsd>  (18) 
0.43

>  <cluster>  (18) 
2

$$$$

     RDKit          3D

 50 53  0  0  0  0  0  0  0  0999 V2000
  140.4890   71.7670  223.3140 C   0  0  0  0  0  0  0  0  0  0  0  0
  139.9560   70.7250  224.2860 C   0  0  2  0  0  0  0  0  0  0  0  0
  138.4950   70.8930  224.2850 N   0  0  0  0  0  0  0  0  0  0  0  0
  137.6760   69.7970  223.9600 C   0  0  0  0  0  0  0  0  0  0  0  0
  138.2750   68.7030  223.6880 O   0  0  0  0  0  0  0  0  0  0  0  0
  136.2160   69.7860  223.9070 C   0  0  0  0  0  0  0  0  0  0  0  0
  135.5630   70.9050  224.5460 N   0  0  0  0  0  0  0  0  0  0  0  0
  135.7790   72.2470  224.1250 C   0  0  0  0  0  0  0  0  0  0  0  0
  136.5510   72.5440  223.1610 O   0  0  0  0  0  0  0  0  0  0  0  0
  135.0800   73.3460  224.8300 C   0  0  0  0  0  0  0  0  0  0  0  0
  135.4460   74.6560  224.5980 C   0  0  0  0  0  0  0  0  0  0  0  0
  134.7620   75.6560  225.2840 C   0  0  0  0  0  0  0  0  0  0  0  0
  133.7410   75.3490  226.1780 C   0  0  0  0  0  0  0  0  0  0  0  0
  133.0610   76.3560  226.8600 C   0  0  0  0  0  0  0  0  0  0  0  0
  132.0420   76.0060  227.7490 C   0  0  0  0  0  0  0  0  0  0  0  0
  131.7350   74.6660  227.9270 C   0  0  0  0  0  0  0  0  0  0  0  0
  132.3950   73.6610  227.2620 C   0  0  0  0  0  0  0  0  0  0  0  0
  133.4060   74.0210  226.3810 C   0  0  0  0  0  0  0  0  0  0  0  0
  134.0830   73.0750  225.7060 N   0  0  0  0  0  0  0  0  0  0  0  0
  140.4320   70.9770  225.6630 C   0  0  0  0  0  0  0  0  0  0  0  0
  140.7040   72.2290  226.1680 C   0  0  0  0  0  0  0  0  0  0  0  0
  141.1440   72.4350  227.4720 C   0  0  0  0  0  0  0  0  0  0  0  0
  141.3290   71.3700  228.3270 C   0  0  0  0  0  0  0  0  0  0  0  0
  141.0630   70.1140  227.8440 C   0  0  0  0  0  0  0  0  0  0  0  0
  141.2560   69.0560  228.7190 C   0  0  0  0  0  0  0  0  0  0  0  0
  141.0170   67.7660  228.3180 C   0  0  0  0  0  0  0  0  0  0  0  0
  140.5870   67.5390  227.0490 C   0  0  0  0  0  0  0  0  0  0  0  0
  140.3950   68.6030  226.1760 C   0  0  0  0  0  0  0  0  0  0  0  0
  140.6230   69.9120  226.5380 C   0  0  0  0  0  0  0  0  0  0  0  0
  140.9192   72.6080  223.8776 H   0  0  0  0  0  0  0  0  0  0  0  0
  141.2662   71.3142  222.6808 H   0  0  0  0  0  0  0  0  0  0  0  0
  139.6670   72.1322  222.6808 H   0  0  0  0  0  0  0  0  0  0  0  0
  140.2886   69.7210  223.9839 H   0  0  0  0  0  0  0  0  0  0  0  0
  138.0670   71.8060  224.5240 H   0  0  0  0  0  0  0  0  0  0  0  0
  135.9152   69.7769  222.8490 H   0  0  0  0  0  0  0  0  0  0  0  0
  135.8998   68.8924  224.4650 H   0  0  0  0  0  0  0  0  0  0  0  0
  134.9020   70.7760  225.3470 H   0  0  0  0  0  0  0  0  0  0  0  0
  136.2533   74.9027  223.8928 H   0  0  0  0  0  0  0  0  0  0  0  0
  135.0339   76.7086  225.1160 H   0  0  0  0  0  0  0  0  0  0  0  0
  133.3231   77.4123  226.7005 H   0  0  0  0  0  0  0  0  0  0  0  0
  131.4911   76.7825  228.2999 H   0  0  0  0  0  0  0  0  0  0  0  0
  130.9314   74.3967  228.6282 H   0  0  0  0  0  0  0  0  0  0  0  0
  132.1310   72.6053  227.4224 H   0  0  0  0  0  0  0  0  0  0  0  0
  140.5678   73.1025  225.5134 H   0  0  0  0  0  0  0  0  0  0  0  0
  141.3461   73.4575  227.8237 H   0  0  0  0  0  0  0  0  0  0  0  0
  141.6773   71.5217  229.3593 H   0  0  0  0  0  0  0  0  0  0  0  0
  141.6038   69.2527  229.7438 H   0  0  0  0  0  0  0  0  0  0  0  0
  141.1711   66.9277  229.0134 H   0  0  0  0  0  0  0  0  0  0  0  0
  140.3905   66.5105  226.7120 H   0  0  0  0  0  0  0  0  0  0  0  0
  140.0468   68.3911  225.1543 H   0  0  0  0  0  0  0  0  0  0  0  0
  1  2  1  0
  2  3  1  0
  3  4  1  0
  4  5  2  0
  4  6  1  0
  6  7  1  0
  7  8  1  0
  8  9  2  0
  8 10  1  0
 10 11  2  0
 11 12  1  0
 12 13  2  0
 13 14  1  0
 14 15  2  0
 15 16  1  0
 16 17  2  0
 17 18  1  0
 18 19  2  0
  2 20  1  0
 20 21  2  0
 21 22  1  0
 22 23  2  0
 23 24  1  0
 24 25  2  0
 25 26  1  0
 26 27  2  0
 27 28  1  0
 28 29  2  0
 19 10  1  0
 29 20  1  0
 18 13  1  0
 29 24  1  0
  1 30  1  0
  1 31  1  0
  1 32  1  0
  2 33  1  6
  3 34  1  0
  6 35  1  0
  6 36  1  0
  7 37  1  0
 11 38  1  0
 12 39  1  0
 14 40  1  0
 15 41  1  0
 16 42  1  0
 17 43  1  0
 21 44  1  0
 22 45  1  0
 23 46  1  0
 25 47  1  0
 26 48  1  0
 27 49  1  0
 28 50  1  0
M  END
>  <smiles>  (19) 
C[C@H](NC(=O)CNC(=O)c1ccc2ccccc2n1)c1cccc2ccccc12

>  <score_type>  (19) 
oracle

>  <origin>  (19) 
autodockgpu

>  <m_score__min__energy>  (19) 
-10.210000000000001

>  <m_primary>  (19) 
energy

>  <rmsd>  (19) 
9.734774090196094

>  <m_score__min__rmsd>  (19) 
9.734774090196094

>  <meeko>  (19) 
{"free_energy": -9.0, "intermolecular_energy": -10.49, "internal_energy": -2.25, "cluster_size": 8, "cluster_id": 3, "rank_in_cluster": 6}

>  <energy>  (19) 
-9.8

>  <cluster_rmsd>  (19) 
0.75

>  <cluster>  (19) 
2

$$$$

     RDKit          3D

 50 53  0  0  0  0  0  0  0  0999 V2000
  141.2910   78.3170  219.5380 C   0  0  0  0  0  0  0  0  0  0  0  0
  141.0330   77.6410  220.8770 C   0  0  2  0  0  0  0  0  0  0  0  0
  140.0450   76.5870  220.6030 N   0  0  0  0  0  0  0  0  0  0  0  0
  140.1200   75.3720  221.3080 C   0  0  0  0  0  0  0  0  0  0  0  0
  141.0630   75.2700  222.1620 O   0  0  0  0  0  0  0  0  0  0  0  0
  139.2290   74.2230  221.1630 C   0  0  0  0  0  0  0  0  0  0  0  0
  139.1730   73.3330  222.3000 N   0  0  0  0  0  0  0  0  0  0  0  0
  140.1870   72.3670  222.5540 C   0  0  0  0  0  0  0  0  0  0  0  0
  141.2040   72.2300  221.8040 O   0  0  0  0  0  0  0  0  0  0  0  0
  140.0630   71.4830  223.7360 C   0  0  0  0  0  0  0  0  0  0  0  0
  139.4010   70.2780  223.6280 C   0  0  0  0  0  0  0  0  0  0  0  0
  139.3070   69.4800  224.7650 C   0  0  0  0  0  0  0  0  0  0  0  0
  139.8620   69.8830  225.9750 C   0  0  0  0  0  0  0  0  0  0  0  0
  139.7650   69.0780  227.1090 C   0  0  0  0  0  0  0  0  0  0  0  0
  140.3360   69.5180  228.3060 C   0  0  0  0  0  0  0  0  0  0  0  0
  140.9840   70.7430  228.3310 C   0  0  0  0  0  0  0  0  0  0  0  0
  141.0900   71.5480  227.2230 C   0  0  0  0  0  0  0  0  0  0  0  0
  140.5190   71.1000  226.0400 C   0  0  0  0  0  0  0  0  0  0  0  0
  140.5930   71.8510  224.9260 N   0  0  0  0  0  0  0  0  0  0  0  0
  140.4280   78.5770  221.8470 C   0  0  0  0  0  0  0  0  0  0  0  0
  139.0800   78.6400  222.1220 C   0  0  0  0  0  0  0  0  0  0  0  0
  138.5420   79.5290  223.0470 C   0  0  0  0  0  0  0  0  0  0  0  0
  139.3540   80.4000  223.7390 C   0  0  0  0  0  0  0  0  0  0  0  0
  140.7010   80.3540  223.4810 C   0  0  0  0  0  0  0  0  0  0  0  0
  141.5020   81.2390  224.1860 C   0  0  0  0  0  0  0  0  0  0  0  0
  142.8590   81.2620  223.9890 C   0  0  0  0  0  0  0  0  0  0  0  0
  143.4090   80.4040  223.0900 C   0  0  0  0  0  0  0  0  0  0  0  0
  142.6020   79.5190  222.3850 C   0  0  0  0  0  0  0  0  0  0  0  0
  141.2360   79.4630  222.5540 C   0  0  0  0  0  0  0  0  0  0  0  0
  141.6785   79.3323  219.7085 H   0  0  0  0  0  0  0  0  0  0  0  0
  142.0296   77.7334  218.9689 H   0  0  0  0  0  0  0  0  0  0  0  0
  140.3514   78.3739  218.9689 H   0  0  0  0  0  0  0  0  0  0  0  0
  141.9768   77.2675  221.3009 H   0  0  0  0  0  0  0  0  0  0  0  0
  139.2950   76.7330  219.9030 H   0  0  0  0  0  0  0  0  0  0  0  0
  138.2131   74.6027  220.9793 H   0  0  0  0  0  0  0  0  0  0  0  0
  139.6361   73.6275  220.3326 H   0  0  0  0  0  0  0  0  0  0  0  0
  138.3850   73.3610  222.9860 H   0  0  0  0  0  0  0  0  0  0  0  0
  138.9606   69.9571  222.6725 H   0  0  0  0  0  0  0  0  0  0  0  0
  138.7846   68.5138  224.7053 H   0  0  0  0  0  0  0  0  0  0  0  0
  139.2459   68.1093  227.0621 H   0  0  0  0  0  0  0  0  0  0  0  0
  140.2722   68.9015  229.2148 H   0  0  0  0  0  0  0  0  0  0  0  0
  141.4314   71.0843  229.2762 H   0  0  0  0  0  0  0  0  0  0  0  0
  141.6103   72.5159  227.2718 H   0  0  0  0  0  0  0  0  0  0  0  0
  138.4006   77.9592  221.5882 H   0  0  0  0  0  0  0  0  0  0  0  0
  137.4570   79.5363  223.2276 H   0  0  0  0  0  0  0  0  0  0  0  0
  138.9379   81.1069  224.4719 H   0  0  0  0  0  0  0  0  0  0  0  0
  141.0448   81.9293  224.9102 H   0  0  0  0  0  0  0  0  0  0  0  0
  143.4927   81.9644  224.5502 H   0  0  0  0  0  0  0  0  0  0  0  0
  144.4957   80.4100  222.9199 H   0  0  0  0  0  0  0  0  0  0  0  0
  143.0730   78.8357  221.6630 H   0  0  0  0  0  0  0  0  0  0  0  0
  1  2  1  0
  2  3  1  0
  3  4  1  0
  4  5  2  0
  4  6  1  0
  6  7  1  0
  7  8  1  0
  8  9  2  0
  8 10  1  0
 10 11  2  0
 11 12  1  0
 12 13  2  0
 13 14  1  0
 14 15  2  0
 15 16  1  0
 16 17  2  0
 17 18  1  0
 18 19  2  0
  2 20  1  0
 20 21  2  0
 21 22  1  0
 22 23  2  0
 23 24  1  0
 24 25  2  0
 25 26  1  0
 26 27  2  0
 27 28  1  0
 28 29  2  0
 19 10  1  0
 29 20  1  0
 18 13  1  0
 29 24  1  0
  1 30  1  0
  1 31  1  0
  1 32  1  0
  2 33  1  1
  3 34  1  0
  6 35  1  0
  6 36  1  0
  7 37  1  0
 11 38  1  0
 12 39  1  0
 14 40  1  0
 15 41  1  0
 16 42  1  0
 17 43  1  0
 21 44  1  0
 22 45  1  0
 23 46  1  0
 25 47  1  0
 26 48  1  0
 27 49  1  0
 28 50  1  0
M  END
>  <smiles>  (20) 
C[C@H](NC(=O)CNC(=O)c1ccc2ccccc2n1)c1cccc2ccccc12

>  <score_type>  (20) 
oracle

>  <origin>  (20) 
autodockgpu

>  <m_score__min__energy>  (20) 
-10.210000000000001

>  <m_primary>  (20) 
energy

>  <rmsd>  (20) 
4.226549137672625

>  <m_score__min__rmsd>  (20) 
4.226549137672625

>  <meeko>  (20) 
{"free_energy": -10.02, "intermolecular_energy": -11.52, "internal_energy": -1.07, "cluster_size": 26, "cluster_id": 2, "rank_in_cluster": 3}

>  <energy>  (20) 
-9.76

>  <cluster_rmsd>  (20) 
1.37

>  <cluster>  (20) 
2

$$$$

     RDKit          3D

 50 53  0  0  0  0  0  0  0  0999 V2000
  140.9750   77.9850  219.6040 C   0  0  0  0  0  0  0  0  0  0  0  0
  140.8730   77.4400  221.0210 C   0  0  2  0  0  0  0  0  0  0  0  0
  139.8990   76.3410  220.9540 N   0  0  0  0  0  0  0  0  0  0  0  0
  140.2490   75.0780  221.4650 C   0  0  0  0  0  0  0  0  0  0  0  0
  141.4160   74.9760  221.9710 O   0  0  0  0  0  0  0  0  0  0  0  0
  139.4120   73.8800  221.4780 C   0  0  0  0  0  0  0  0  0  0  0  0
  139.5900   73.0110  222.6180 N   0  0  0  0  0  0  0  0  0  0  0  0
  139.3290   71.6130  222.5510 C   0  0  0  0  0  0  0  0  0  0  0  0
  138.9310   71.0430  221.4870 O   0  0  0  0  0  0  0  0  0  0  0  0
  139.5280   70.7830  223.7610 C   0  0  0  0  0  0  0  0  0  0  0  0
  139.1450   69.4580  223.7580 C   0  0  0  0  0  0  0  0  0  0  0  0
  139.3500   68.7160  224.9170 C   0  0  0  0  0  0  0  0  0  0  0  0
  139.9230   69.2890  226.0480 C   0  0  0  0  0  0  0  0  0  0  0  0
  140.1250   68.5390  227.2060 C   0  0  0  0  0  0  0  0  0  0  0  0
  140.7040   69.1520  228.3200 C   0  0  0  0  0  0  0  0  0  0  0  0
  141.0600   70.4900  228.2430 C   0  0  0  0  0  0  0  0  0  0  0  0
  140.8690   71.2430  227.1100 C   0  0  0  0  0  0  0  0  0  0  0  0
  140.2930   70.6230  226.0090 C   0  0  0  0  0  0  0  0  0  0  0  0
  140.0820   71.3160  224.8750 N   0  0  0  0  0  0  0  0  0  0  0  0
  140.3340   78.4550  221.9520 C   0  0  0  0  0  0  0  0  0  0  0  0
  138.9980   78.5880  222.2600 C   0  0  0  0  0  0  0  0  0  0  0  0
  138.5230   79.5490  223.1470 C   0  0  0  0  0  0  0  0  0  0  0  0
  139.3900   80.4250  223.7630 C   0  0  0  0  0  0  0  0  0  0  0  0
  140.7250   80.3110  223.4710 C   0  0  0  0  0  0  0  0  0  0  0  0
  141.5810   81.2010  224.0990 C   0  0  0  0  0  0  0  0  0  0  0  0
  142.9310   81.1590  223.8620 C   0  0  0  0  0  0  0  0  0  0  0  0
  143.4200   80.2290  223.0000 C   0  0  0  0  0  0  0  0  0  0  0  0
  142.5580   79.3380  222.3720 C   0  0  0  0  0  0  0  0  0  0  0  0
  141.1970   79.3460  222.5820 C   0  0  0  0  0  0  0  0  0  0  0  0
  141.1773   79.0656  219.6405 H   0  0  0  0  0  0  0  0  0  0  0  0
  141.7936   77.4764  219.0736 H   0  0  0  0  0  0  0  0  0  0  0  0
  140.0279   77.8069  219.0736 H   0  0  0  0  0  0  0  0  0  0  0  0
  141.8662   77.1329  221.3804 H   0  0  0  0  0  0  0  0  0  0  0  0
  138.9610   76.4890  220.5390 H   0  0  0  0  0  0  0  0  0  0  0  0
  138.3601   74.2009  221.4572 H   0  0  0  0  0  0  0  0  0  0  0  0
  139.7127   73.2912  220.5988 H   0  0  0  0  0  0  0  0  0  0  0  0
  139.9190   73.3720  223.5430 H   0  0  0  0  0  0  0  0  0  0  0  0
  138.6911   69.0016  222.8660 H   0  0  0  0  0  0  0  0  0  0  0  0
  139.0536   67.6569  224.9395 H   0  0  0  0  0  0  0  0  0  0  0  0
  139.8325   67.4792  227.2419 H   0  0  0  0  0  0  0  0  0  0  0  0
  140.8750   68.5815  229.2448 H   0  0  0  0  0  0  0  0  0  0  0  0
  141.5134   70.9674  229.1242 H   0  0  0  0  0  0  0  0  0  0  0  0
  141.1628   72.3025  227.0760 H   0  0  0  0  0  0  0  0  0  0  0  0
  138.2770   77.9064  221.7851 H   0  0  0  0  0  0  0  0  0  0  0  0
  137.4452   79.6100  223.3585 H   0  0  0  0  0  0  0  0  0  0  0  0
  139.0240   81.1891  224.4645 H   0  0  0  0  0  0  0  0  0  0  0  0
  141.1735   81.9491  224.7949 H   0  0  0  0  0  0  0  0  0  0  0  0
  143.6079   81.8673  224.3620 H   0  0  0  0  0  0  0  0  0  0  0  0
  144.5004   80.1814  222.7990 H   0  0  0  0  0  0  0  0  0  0  0  0
  142.9802   78.5958  221.6786 H   0  0  0  0  0  0  0  0  0  0  0  0
  1  2  1  0
  2  3  1  0
  3  4  1  0
  4  5  2  0
  4  6  1  0
  6  7  1  0
  7  8  1  0
  8  9  2  0
  8 10  1  0
 10 11  2  0
 11 12  1  0
 12 13  2  0
 13 14  1  0
 14 15  2  0
 15 16  1  0
 16 17  2  0
 17 18  1  0
 18 19  2  0
  2 20  1  0
 20 21  2  0
 21 22  1  0
 22 23  2  0
 23 24  1  0
 24 25  2  0
 25 26  1  0
 26 27  2  0
 27 28  1  0
 28 29  2  0
 19 10  1  0
 29 20  1  0
 18 13  1  0
 29 24  1  0
  1 30  1  0
  1 31  1  0
  1 32  1  0
  2 33  1  1
  3 34  1  0
  6 35  1  0
  6 36  1  0
  7 37  1  0
 11 38  1  0
 12 39  1  0
 14 40  1  0
 15 41  1  0
 16 42  1  0
 17 43  1  0
 21 44  1  0
 22 45  1  0
 23 46  1  0
 25 47  1  0
 26 48  1  0
 27 49  1  0
 28 50  1  0
M  END
>  <smiles>  (21) 
C[C@H](NC(=O)CNC(=O)c1ccc2ccccc2n1)c1cccc2ccccc12

>  <score_type>  (21) 
oracle

>  <origin>  (21) 
autodockgpu

>  <m_score__min__energy>  (21) 
-10.210000000000001

>  <m_primary>  (21) 
energy

>  <rmsd>  (21) 
4.382640769028008

>  <m_score__min__rmsd>  (21) 
4.382640769028008

>  <meeko>  (21) 
{"free_energy": -9.65, "intermolecular_energy": -11.14, "internal_energy": -1.44, "cluster_size": 26, "cluster_id": 2, "rank_in_cluster": 13}

>  <energy>  (21) 
-9.7

>  <cluster_rmsd>  (21) 
0.82

>  <cluster>  (21) 
2

$$$$

     RDKit          3D

 50 53  0  0  0  0  0  0  0  0999 V2000
  140.6520   78.0420  219.3180 C   0  0  0  0  0  0  0  0  0  0  0  0
  140.6970   77.3900  220.6930 C   0  0  2  0  0  0  0  0  0  0  0  0
  139.7690   76.2510  220.6200 N   0  0  0  0  0  0  0  0  0  0  0  0
  140.0650   75.0750  221.3330 C   0  0  0  0  0  0  0  0  0  0  0  0
  141.1440   75.0830  222.0150 O   0  0  0  0  0  0  0  0  0  0  0  0
  139.2630   73.8540  221.3710 C   0  0  0  0  0  0  0  0  0  0  0  0
  139.4540   73.0230  222.5380 N   0  0  0  0  0  0  0  0  0  0  0  0
  139.3670   71.6040  222.4770 C   0  0  0  0  0  0  0  0  0  0  0  0
  139.1240   70.9800  221.3970 O   0  0  0  0  0  0  0  0  0  0  0  0
  139.5680   70.8150  223.7140 C   0  0  0  0  0  0  0  0  0  0  0  0
  139.2140   69.4820  223.7470 C   0  0  0  0  0  0  0  0  0  0  0  0
  139.4200   68.7800  224.9310 C   0  0  0  0  0  0  0  0  0  0  0  0
  139.9650   69.4000  226.0510 C   0  0  0  0  0  0  0  0  0  0  0  0
  140.1690   68.6900  227.2330 C   0  0  0  0  0  0  0  0  0  0  0  0
  140.7190   69.3480  228.3350 C   0  0  0  0  0  0  0  0  0  0  0  0
  141.0480   70.6910  228.2210 C   0  0  0  0  0  0  0  0  0  0  0  0
  140.8540   71.4050  227.0640 C   0  0  0  0  0  0  0  0  0  0  0  0
  140.3070   70.7400  225.9750 C   0  0  0  0  0  0  0  0  0  0  0  0
  140.0960   71.3930  224.8190 N   0  0  0  0  0  0  0  0  0  0  0  0
  140.1970   78.3040  221.7410 C   0  0  0  0  0  0  0  0  0  0  0  0
  138.8810   78.3730  222.1420 C   0  0  0  0  0  0  0  0  0  0  0  0
  138.4420   79.2400  223.1380 C   0  0  0  0  0  0  0  0  0  0  0  0
  139.3270   80.0830  223.7740 C   0  0  0  0  0  0  0  0  0  0  0  0
  140.6430   80.0310  223.3900 C   0  0  0  0  0  0  0  0  0  0  0  0
  141.5170   80.8880  224.0410 C   0  0  0  0  0  0  0  0  0  0  0  0
  142.8500   80.9030  223.7180 C   0  0  0  0  0  0  0  0  0  0  0  0
  143.3030   80.0660  222.7480 C   0  0  0  0  0  0  0  0  0  0  0  0
  142.4230   79.2100  222.0980 C   0  0  0  0  0  0  0  0  0  0  0  0
  141.0780   79.1610  222.3930 C   0  0  0  0  0  0  0  0  0  0  0  0
  140.5766   79.1335  219.4320 H   0  0  0  0  0  0  0  0  0  0  0  0
  141.5694   77.7937  218.7642 H   0  0  0  0  0  0  0  0  0  0  0  0
  139.7774   77.6699  218.7642 H   0  0  0  0  0  0  0  0  0  0  0  0
  141.7300   77.1082  220.9449 H   0  0  0  0  0  0  0  0  0  0  0  0
  138.9020   76.3090  220.0540 H   0  0  0  0  0  0  0  0  0  0  0  0
  138.2025   74.1431  221.3302 H   0  0  0  0  0  0  0  0  0  0  0  0
  139.5898   73.2498  220.5119 H   0  0  0  0  0  0  0  0  0  0  0  0
  139.6640   73.4300  223.4780 H   0  0  0  0  0  0  0  0  0  0  0  0
  138.7818   68.9887  222.8639 H   0  0  0  0  0  0  0  0  0  0  0  0
  139.1470   67.7157  224.9822 H   0  0  0  0  0  0  0  0  0  0  0  0
  139.9003   67.6253  227.2969 H   0  0  0  0  0  0  0  0  0  0  0  0
  140.8888   68.8097  229.2792 H   0  0  0  0  0  0  0  0  0  0  0  0
  141.4815   71.2043  229.0920 H   0  0  0  0  0  0  0  0  0  0  0  0
  141.1234   72.4697  227.0021 H   0  0  0  0  0  0  0  0  0  0  0  0
  138.1464   77.7152  221.6545 H   0  0  0  0  0  0  0  0  0  0  0  0
  137.3789   79.2524  223.4201 H   0  0  0  0  0  0  0  0  0  0  0  0
  138.9903   80.7731  224.5616 H   0  0  0  0  0  0  0  0  0  0  0  0
  141.1381   81.5619  224.8235 H   0  0  0  0  0  0  0  0  0  0  0  0
  143.5422   81.5826  224.2366 H   0  0  0  0  0  0  0  0  0  0  0  0
  144.3691   80.0663  222.4769 H   0  0  0  0  0  0  0  0  0  0  0  0
  142.8160   78.5440  221.3157 H   0  0  0  0  0  0  0  0  0  0  0  0
  1  2  1  0
  2  3  1  0
  3  4  1  0
  4  5  2  0
  4  6  1  0
  6  7  1  0
  7  8  1  0
  8  9  2  0
  8 10  1  0
 10 11  2  0
 11 12  1  0
 12 13  2  0
 13 14  1  0
 14 15  2  0
 15 16  1  0
 16 17  2  0
 17 18  1  0
 18 19  2  0
  2 20  1  0
 20 21  2  0
 21 22  1  0
 22 23  2  0
 23 24  1  0
 24 25  2  0
 25 26  1  0
 26 27  2  0
 27 28  1  0
 28 29  2  0
 19 10  1  0
 29 20  1  0
 18 13  1  0
 29 24  1  0
  1 30  1  0
  1 31  1  0
  1 32  1  0
  2 33  1  1
  3 34  1  0
  6 35  1  0
  6 36  1  0
  7 37  1  0
 11 38  1  0
 12 39  1  0
 14 40  1  0
 15 41  1  0
 16 42  1  0
 17 43  1  0
 21 44  1  0
 22 45  1  0
 23 46  1  0
 25 47  1  0
 26 48  1  0
 27 49  1  0
 28 50  1  0
M  END
>  <smiles>  (22) 
C[C@H](NC(=O)CNC(=O)c1ccc2ccccc2n1)c1cccc2ccccc12

>  <score_type>  (22) 
oracle

>  <origin>  (22) 
autodockgpu

>  <m_score__min__energy>  (22) 
-10.210000000000001

>  <m_primary>  (22) 
energy

>  <rmsd>  (22) 
4.44975861942765

>  <m_score__min__rmsd>  (22) 
4.44975861942765

>  <meeko>  (22) 
{"free_energy": -9.53, "intermolecular_energy": -11.02, "internal_energy": -1.5, "cluster_size": 26, "cluster_id": 2, "rank_in_cluster": 20}

>  <energy>  (22) 
-9.7

>  <cluster_rmsd>  (22) 
0.82

>  <cluster>  (22) 
2

$$$$

     RDKit          3D

 50 53  0  0  0  0  0  0  0  0999 V2000
  140.5870   72.0830  223.1260 C   0  0  0  0  0  0  0  0  0  0  0  0
  140.0040   70.9520  223.9620 C   0  0  2  0  0  0  0  0  0  0  0  0
  138.5460   71.1380  223.9160 N   0  0  0  0  0  0  0  0  0  0  0  0
  137.7270   70.0640  223.5250 C   0  0  0  0  0  0  0  0  0  0  0  0
  138.3230   68.9730  223.2360 O   0  0  0  0  0  0  0  0  0  0  0  0
  136.2690   70.0720  223.4210 C   0  0  0  0  0  0  0  0  0  0  0  0
  135.5990   71.1050  224.1770 N   0  0  0  0  0  0  0  0  0  0  0  0
  135.7900   72.4880  223.9000 C   0  0  0  0  0  0  0  0  0  0  0  0
  136.5530   72.9000  222.9720 O   0  0  0  0  0  0  0  0  0  0  0  0
  135.0750   73.4930  224.7200 C   0  0  0  0  0  0  0  0  0  0  0  0
  135.4090   74.8280  224.6200 C   0  0  0  0  0  0  0  0  0  0  0  0
  134.7100   75.7360  225.4090 C   0  0  0  0  0  0  0  0  0  0  0  0
  133.7050   75.3170  226.2750 C   0  0  0  0  0  0  0  0  0  0  0  0
  133.0110   76.2330  227.0620 C   0  0  0  0  0  0  0  0  0  0  0  0
  132.0080   75.7710  227.9190 C   0  0  0  0  0  0  0  0  0  0  0  0
  131.7330   74.4130  227.9610 C   0  0  0  0  0  0  0  0  0  0  0  0
  132.4070   73.4970  227.1920 C   0  0  0  0  0  0  0  0  0  0  0  0
  133.4010   73.9670  226.3440 C   0  0  0  0  0  0  0  0  0  0  0  0
  134.0930   73.1120  225.5710 N   0  0  0  0  0  0  0  0  0  0  0  0
  140.4210   71.0560  225.3760 C   0  0  0  0  0  0  0  0  0  0  0  0
  140.9650   72.1890  225.9400 C   0  0  0  0  0  0  0  0  0  0  0  0
  141.3410   72.2570  227.2780 C   0  0  0  0  0  0  0  0  0  0  0  0
  141.1820   71.1690  228.1080 C   0  0  0  0  0  0  0  0  0  0  0  0
  140.6420   70.0290  227.5670 C   0  0  0  0  0  0  0  0  0  0  0  0
  140.4920   68.9460  228.4180 C   0  0  0  0  0  0  0  0  0  0  0  0
  139.9630   67.7660  227.9590 C   0  0  0  0  0  0  0  0  0  0  0  0
  139.5880   67.6740  226.6560 C   0  0  0  0  0  0  0  0  0  0  0  0
  139.7410   68.7630  225.8070 C   0  0  0  0  0  0  0  0  0  0  0  0
  140.2670   69.9660  226.2270 C   0  0  0  0  0  0  0  0  0  0  0  0
  140.9883   72.8616  223.7914 H   0  0  0  0  0  0  0  0  0  0  0  0
  141.3953   71.6908  222.4913 H   0  0  0  0  0  0  0  0  0  0  0  0
  139.7986   72.5138  222.4913 H   0  0  0  0  0  0  0  0  0  0  0  0
  140.3415   69.9801  223.5727 H   0  0  0  0  0  0  0  0  0  0  0  0
  138.1200   72.0480  224.1720 H   0  0  0  0  0  0  0  0  0  0  0  0
  136.0052   70.2021  222.3611 H   0  0  0  0  0  0  0  0  0  0  0  0
  135.9297   69.1164  223.8472 H   0  0  0  0  0  0  0  0  0  0  0  0
  134.9440   70.8800  224.9600 H   0  0  0  0  0  0  0  0  0  0  0  0
  136.2035   75.1640  223.9374 H   0  0  0  0  0  0  0  0  0  0  0  0
  134.9568   76.8062  225.3469 H   0  0  0  0  0  0  0  0  0  0  0  0
  133.2490   77.3057  227.0098 H   0  0  0  0  0  0  0  0  0  0  0  0
  131.4455   76.4744  228.5505 H   0  0  0  0  0  0  0  0  0  0  0  0
  130.9431   74.0550  228.6376 H   0  0  0  0  0  0  0  0  0  0  0  0
  132.1672   72.4248  227.2459 H   0  0  0  0  0  0  0  0  0  0  0  0
  141.1081   73.0767  225.3064 H   0  0  0  0  0  0  0  0  0  0  0  0
  141.7693   73.1884  227.6768 H   0  0  0  0  0  0  0  0  0  0  0  0
  141.4774   71.2124  229.1667 H   0  0  0  0  0  0  0  0  0  0  0  0
  140.7996   69.0328  229.4705 H   0  0  0  0  0  0  0  0  0  0  0  0
  139.8442   66.9071  228.6358 H   0  0  0  0  0  0  0  0  0  0  0  0
  139.1623   66.7350  226.2726 H   0  0  0  0  0  0  0  0  0  0  0  0
  139.4297   68.6611  224.7569 H   0  0  0  0  0  0  0  0  0  0  0  0
  1  2  1  0
  2  3  1  0
  3  4  1  0
  4  5  2  0
  4  6  1  0
  6  7  1  0
  7  8  1  0
  8  9  2  0
  8 10  1  0
 10 11  2  0
 11 12  1  0
 12 13  2  0
 13 14  1  0
 14 15  2  0
 15 16  1  0
 16 17  2  0
 17 18  1  0
 18 19  2  0
  2 20  1  0
 20 21  2  0
 21 22  1  0
 22 23  2  0
 23 24  1  0
 24 25  2  0
 25 26  1  0
 26 27  2  0
 27 28  1  0
 28 29  2  0
 19 10  1  0
 29 20  1  0
 18 13  1  0
 29 24  1  0
  1 30  1  0
  1 31  1  0
  1 32  1  0
  2 33  1  6
  3 34  1  0
  6 35  1  0
  6 36  1  0
  7 37  1  0
 11 38  1  0
 12 39  1  0
 14 40  1  0
 15 41  1  0
 16 42  1  0
 17 43  1  0
 21 44  1  0
 22 45  1  0
 23 46  1  0
 25 47  1  0
 26 48  1  0
 27 49  1  0
 28 50  1  0
M  END
>  <smiles>  (23) 
C[C@H](NC(=O)CNC(=O)c1ccc2ccccc2n1)c1cccc2ccccc12

>  <score_type>  (23) 
oracle

>  <origin>  (23) 
autodockgpu

>  <m_score__min__energy>  (23) 
-10.210000000000001

>  <m_primary>  (23) 
energy

>  <rmsd>  (23) 
9.549033307600665

>  <m_score__min__rmsd>  (23) 
9.549033307600665

>  <meeko>  (23) 
{"free_energy": -8.82, "intermolecular_energy": -10.31, "internal_energy": -2.26, "cluster_size": 8, "cluster_id": 3, "rank_in_cluster": 7}

>  <energy>  (23) 
-9.68

>  <cluster_rmsd>  (23) 
0.58

>  <cluster>  (23) 
2

$$$$

     RDKit          3D

 50 53  0  0  0  0  0  0  0  0999 V2000
  141.7610   78.4380  223.4470 C   0  0  0  0  0  0  0  0  0  0  0  0
  140.8670   78.1200  222.2570 C   0  0  2  0  0  0  0  0  0  0  0  0
  141.0630   76.6880  221.9870 N   0  0  0  0  0  0  0  0  0  0  0  0
  139.9820   75.9220  221.5160 C   0  0  0  0  0  0  0  0  0  0  0  0
  138.8790   76.5420  221.3470 O   0  0  0  0  0  0  0  0  0  0  0  0
  139.9960   74.4950  221.2000 C   0  0  0  0  0  0  0  0  0  0  0  0
  139.8110   73.6080  222.3250 N   0  0  0  0  0  0  0  0  0  0  0  0
  140.5280   72.3850  222.4500 C   0  0  0  0  0  0  0  0  0  0  0  0
  141.3760   72.0000  221.5860 O   0  0  0  0  0  0  0  0  0  0  0  0
  140.2830   71.5210  223.6280 C   0  0  0  0  0  0  0  0  0  0  0  0
  139.6190   70.3220  223.4770 C   0  0  0  0  0  0  0  0  0  0  0  0
  139.4110   69.5440  224.6120 C   0  0  0  0  0  0  0  0  0  0  0  0
  139.8560   69.9590  225.8630 C   0  0  0  0  0  0  0  0  0  0  0  0
  139.6440   69.1730  226.9950 C   0  0  0  0  0  0  0  0  0  0  0  0
  140.1070   69.6260  228.2330 C   0  0  0  0  0  0  0  0  0  0  0  0
  140.7650   70.8450  228.3000 C   0  0  0  0  0  0  0  0  0  0  0  0
  140.9830   71.6310  227.1950 C   0  0  0  0  0  0  0  0  0  0  0  0
  140.5190   71.1710  225.9700 C   0  0  0  0  0  0  0  0  0  0  0  0
  140.7050   71.9020  224.8570 N   0  0  0  0  0  0  0  0  0  0  0  0
  141.2890   78.8630  221.0500 C   0  0  0  0  0  0  0  0  0  0  0  0
  141.8370   78.2720  219.9330 C   0  0  0  0  0  0  0  0  0  0  0  0
  142.2170   78.9990  218.8090 C   0  0  0  0  0  0  0  0  0  0  0  0
  142.0570   80.3660  218.7700 C   0  0  0  0  0  0  0  0  0  0  0  0
  141.5130   80.9750  219.8730 C   0  0  0  0  0  0  0  0  0  0  0  0
  141.3620   82.3520  219.8150 C   0  0  0  0  0  0  0  0  0  0  0  0
  140.8290   83.0410  220.8740 C   0  0  0  0  0  0  0  0  0  0  0  0
  140.4490   82.3540  221.9830 C   0  0  0  0  0  0  0  0  0  0  0  0
  140.6030   80.9740  222.0370 C   0  0  0  0  0  0  0  0  0  0  0  0
  141.1340   80.2440  220.9960 C   0  0  0  0  0  0  0  0  0  0  0  0
  141.2124   78.2429  224.3803 H   0  0  0  0  0  0  0  0  0  0  0  0
  142.6594   77.8043  223.4104 H   0  0  0  0  0  0  0  0  0  0  0  0
  142.0574   79.4967  223.4104 H   0  0  0  0  0  0  0  0  0  0  0  0
  139.8253   78.3919  222.4827 H   0  0  0  0  0  0  0  0  0  0  0  0
  141.9870   76.2430  222.1350 H   0  0  0  0  0  0  0  0  0  0  0  0
  139.1894   74.2997  220.4780 H   0  0  0  0  0  0  0  0  0  0  0  0
  141.0018   74.2817  220.8089 H   0  0  0  0  0  0  0  0  0  0  0  0
  139.1420   73.8280  223.0980 H   0  0  0  0  0  0  0  0  0  0  0  0
  139.2646   69.9906  222.4898 H   0  0  0  0  0  0  0  0  0  0  0  0
  138.8847   68.5826  224.5181 H   0  0  0  0  0  0  0  0  0  0  0  0
  139.1194   68.2095  226.9145 H   0  0  0  0  0  0  0  0  0  0  0  0
  139.9519   69.0247  229.1410 H   0  0  0  0  0  0  0  0  0  0  0  0
  141.1269   71.1965  229.2775 H   0  0  0  0  0  0  0  0  0  0  0  0
  141.5083   72.5939  227.2779 H   0  0  0  0  0  0  0  0  0  0  0  0
  141.9800   77.1813  219.9293 H   0  0  0  0  0  0  0  0  0  0  0  0
  142.6495   78.4764  217.9431 H   0  0  0  0  0  0  0  0  0  0  0  0
  142.3547   80.9493  217.8861 H   0  0  0  0  0  0  0  0  0  0  0  0
  141.6726   82.8967  218.9112 H   0  0  0  0  0  0  0  0  0  0  0  0
  140.7108   84.1336  220.8264 H   0  0  0  0  0  0  0  0  0  0  0  0
  140.0183   82.8917  222.8405 H   0  0  0  0  0  0  0  0  0  0  0  0
  140.2883   80.4430  222.9475 H   0  0  0  0  0  0  0  0  0  0  0  0
  1  2  1  0
  2  3  1  0
  3  4  1  0
  4  5  2  0
  4  6  1  0
  6  7  1  0
  7  8  1  0
  8  9  2  0
  8 10  1  0
 10 11  2  0
 11 12  1  0
 12 13  2  0
 13 14  1  0
 14 15  2  0
 15 16  1  0
 16 17  2  0
 17 18  1  0
 18 19  2  0
  2 20  1  0
 20 21  2  0
 21 22  1  0
 22 23  2  0
 23 24  1  0
 24 25  2  0
 25 26  1  0
 26 27  2  0
 27 28  1  0
 28 29  2  0
 19 10  1  0
 29 20  1  0
 18 13  1  0
 29 24  1  0
  1 30  1  0
  1 31  1  0
  1 32  1  0
  2 33  1  1
  3 34  1  0
  6 35  1  0
  6 36  1  0
  7 37  1  0
 11 38  1  0
 12 39  1  0
 14 40  1  0
 15 41  1  0
 16 42  1  0
 17 43  1  0
 21 44  1  0
 22 45  1  0
 23 46  1  0
 25 47  1  0
 26 48  1  0
 27 49  1  0
 28 50  1  0
M  END
>  <smiles>  (24) 
C[C@H](NC(=O)CNC(=O)c1ccc2ccccc2n1)c1cccc2ccccc12

>  <score_type>  (24) 
oracle

>  <origin>  (24) 
autodockgpu

>  <m_score__min__energy>  (24) 
-10.210000000000001

>  <m_primary>  (24) 
energy

>  <rmsd>  (24) 
3.507179574804259

>  <m_score__min__rmsd>  (24) 
3.507179574804259

>  <meeko>  (24) 
{"free_energy": -9.57, "intermolecular_energy": -11.06, "internal_energy": -1.0, "cluster_size": 1, "cluster_id": 4, "rank_in_cluster": 1}

>  <energy>  (24) 
-9.66

>  <cluster_rmsd>  (24) 
0.79

>  <cluster>  (24) 
2

$$$$

     RDKit          3D

 50 53  0  0  0  0  0  0  0  0999 V2000
  140.2230   71.7580  223.3480 C   0  0  0  0  0  0  0  0  0  0  0  0
  139.8340   70.6640  224.3320 C   0  0  2  0  0  0  0  0  0  0  0  0
  138.3660   70.7090  224.4140 N   0  0  0  0  0  0  0  0  0  0  0  0
  137.6470   69.5090  224.5580 C   0  0  0  0  0  0  0  0  0  0  0  0
  138.3380   68.4380  224.6140 O   0  0  0  0  0  0  0  0  0  0  0  0
  136.1960   69.3690  224.6510 C   0  0  0  0  0  0  0  0  0  0  0  0
  135.4880   70.5370  225.1210 N   0  0  0  0  0  0  0  0  0  0  0  0
  134.3700   70.4420  225.9970 C   0  0  0  0  0  0  0  0  0  0  0  0
  133.9290   69.3290  226.4230 O   0  0  0  0  0  0  0  0  0  0  0  0
  133.6880   71.6820  226.4350 C   0  0  0  0  0  0  0  0  0  0  0  0
  132.5340   71.6050  227.1860 C   0  0  0  0  0  0  0  0  0  0  0  0
  131.9280   72.7960  227.5750 C   0  0  0  0  0  0  0  0  0  0  0  0
  132.4640   74.0290  227.2180 C   0  0  0  0  0  0  0  0  0  0  0  0
  131.8510   75.2160  227.6120 C   0  0  0  0  0  0  0  0  0  0  0  0
  132.4220   76.4340  227.2330 C   0  0  0  0  0  0  0  0  0  0  0  0
  133.5840   76.4260  226.4770 C   0  0  0  0  0  0  0  0  0  0  0  0
  134.2020   75.2640  226.0810 C   0  0  0  0  0  0  0  0  0  0  0  0
  133.6250   74.0600  226.4630 C   0  0  0  0  0  0  0  0  0  0  0  0
  134.1890   72.8940  226.1010 N   0  0  0  0  0  0  0  0  0  0  0  0
  140.3640   70.9410  225.6850 C   0  0  0  0  0  0  0  0  0  0  0  0
  140.6350   72.2030  226.1640 C   0  0  0  0  0  0  0  0  0  0  0  0
  141.1270   72.4310  227.4450 C   0  0  0  0  0  0  0  0  0  0  0  0
  141.3660   71.3800  228.3030 C   0  0  0  0  0  0  0  0  0  0  0  0
  141.1020   70.1130  227.8460 C   0  0  0  0  0  0  0  0  0  0  0  0
  141.3510   69.0690  228.7230 C   0  0  0  0  0  0  0  0  0  0  0  0
  141.1170   67.7710  228.3470 C   0  0  0  0  0  0  0  0  0  0  0  0
  140.6370   67.5220  227.1000 C   0  0  0  0  0  0  0  0  0  0  0  0
  140.3900   68.5720  226.2240 C   0  0  0  0  0  0  0  0  0  0  0  0
  140.6100   69.8900  226.5620 C   0  0  0  0  0  0  0  0  0  0  0  0
  140.5414   72.6533  223.9021 H   0  0  0  0  0  0  0  0  0  0  0  0
  141.0506   71.4048  222.7154 H   0  0  0  0  0  0  0  0  0  0  0  0
  139.3582   72.0066  222.7154 H   0  0  0  0  0  0  0  0  0  0  0  0
  140.2315   69.6946  223.9968 H   0  0  0  0  0  0  0  0  0  0  0  0
  137.8610   71.6140  224.3710 H   0  0  0  0  0  0  0  0  0  0  0  0
  135.8144   69.1215  223.6494 H   0  0  0  0  0  0  0  0  0  0  0  0
  136.0155   68.5842  225.4004 H   0  0  0  0  0  0  0  0  0  0  0  0
  135.7680   71.5040  224.8390 H   0  0  0  0  0  0  0  0  0  0  0  0
  132.1056   70.6322  227.4689 H   0  0  0  0  0  0  0  0  0  0  0  0
  131.0075   72.7616  228.1763 H   0  0  0  0  0  0  0  0  0  0  0  0
  130.9301   75.1951  228.2132 H   0  0  0  0  0  0  0  0  0  0  0  0
  131.9562   77.3851  227.5302 H   0  0  0  0  0  0  0  0  0  0  0  0
  134.0291   77.3878  226.1824 H   0  0  0  0  0  0  0  0  0  0  0  0
  135.1237   75.2870  225.4810 H   0  0  0  0  0  0  0  0  0  0  0  0
  140.4551   73.0665  225.5067 H   0  0  0  0  0  0  0  0  0  0  0  0
  141.3272   73.4607  227.7762 H   0  0  0  0  0  0  0  0  0  0  0  0
  141.7545   71.5501  229.3180 H   0  0  0  0  0  0  0  0  0  0  0  0
  141.7397   69.2834  229.7295 H   0  0  0  0  0  0  0  0  0  0  0  0
  141.3149   66.9436  229.0444 H   0  0  0  0  0  0  0  0  0  0  0  0
  140.4435   66.4865  226.7834 H   0  0  0  0  0  0  0  0  0  0  0  0
  140.0033   68.3420  225.2202 H   0  0  0  0  0  0  0  0  0  0  0  0
  1  2  1  0
  2  3  1  0
  3  4  1  0
  4  5  2  0
  4  6  1  0
  6  7  1  0
  7  8  1  0
  8  9  2  0
  8 10  1  0
 10 11  2  0
 11 12  1  0
 12 13  2  0
 13 14  1  0
 14 15  2  0
 15 16  1  0
 16 17  2  0
 17 18  1  0
 18 19  2  0
  2 20  1  0
 20 21  2  0
 21 22  1  0
 22 23  2  0
 23 24  1  0
 24 25  2  0
 25 26  1  0
 26 27  2  0
 27 28  1  0
 28 29  2  0
 19 10  1  0
 29 20  1  0
 18 13  1  0
 29 24  1  0
  1 30  1  0
  1 31  1  0
  1 32  1  0
  2 33  1  6
  3 34  1  0
  6 35  1  0
  6 36  1  0
  7 37  1  0
 11 38  1  0
 12 39  1  0
 14 40  1  0
 15 41  1  0
 16 42  1  0
 17 43  1  0
 21 44  1  0
 22 45  1  0
 23 46  1  0
 25 47  1  0
 26 48  1  0
 27 49  1  0
 28 50  1  0
M  END
>  <smiles>  (25) 
C[C@H](NC(=O)CNC(=O)c1ccc2ccccc2n1)c1cccc2ccccc12

>  <score_type>  (25) 
oracle

>  <origin>  (25) 
autodockgpu

>  <m_score__min__energy>  (25) 
-10.210000000000001

>  <m_primary>  (25) 
energy

>  <rmsd>  (25) 
10.115118369108899

>  <m_score__min__rmsd>  (25) 
10.115118369108899

>  <meeko>  (25) 
{"free_energy": -9.99, "intermolecular_energy": -11.48, "internal_energy": -1.29, "cluster_size": 8, "cluster_id": 3, "rank_in_cluster": 1}

>  <energy>  (25) 
-9.65

>  <cluster_rmsd>  (25) 
0.89

>  <cluster>  (25) 
2

$$$$

     RDKit          3D

 50 53  0  0  0  0  0  0  0  0999 V2000
  140.8360   77.4700  220.1680 C   0  0  0  0  0  0  0  0  0  0  0  0
  140.3860   77.1050  221.5760 C   0  0  2  0  0  0  0  0  0  0  0  0
  139.1850   76.2750  221.4050 N   0  0  0  0  0  0  0  0  0  0  0  0
  139.2330   74.9140  221.7560 C   0  0  0  0  0  0  0  0  0  0  0  0
  140.3440   74.4870  222.2160 O   0  0  0  0  0  0  0  0  0  0  0  0
  138.1420   73.9470  221.6500 C   0  0  0  0  0  0  0  0  0  0  0  0
  137.1370   74.0300  222.6840 N   0  0  0  0  0  0  0  0  0  0  0  0
  136.3880   75.2180  222.9170 C   0  0  0  0  0  0  0  0  0  0  0  0
  136.5500   76.2730  222.2280 O   0  0  0  0  0  0  0  0  0  0  0  0
  135.3760   75.2330  223.9980 C   0  0  0  0  0  0  0  0  0  0  0  0
  134.8240   76.4290  224.4080 C   0  0  0  0  0  0  0  0  0  0  0  0
  133.8780   76.3950  225.4280 C   0  0  0  0  0  0  0  0  0  0  0  0
  133.4980   75.1950  226.0210 C   0  0  0  0  0  0  0  0  0  0  0  0
  132.5500   75.1700  227.0420 C   0  0  0  0  0  0  0  0  0  0  0  0
  132.1960   73.9440  227.6110 C   0  0  0  0  0  0  0  0  0  0  0  0
  132.7990   72.7870  227.1430 C   0  0  0  0  0  0  0  0  0  0  0  0
  133.7340   72.7940  226.1370 C   0  0  0  0  0  0  0  0  0  0  0  0
  134.0780   74.0170  225.5790 C   0  0  0  0  0  0  0  0  0  0  0  0
  134.9900   74.0800  224.5920 N   0  0  0  0  0  0  0  0  0  0  0  0
  139.9920   78.3050  222.3450 C   0  0  0  0  0  0  0  0  0  0  0  0
  138.6910   78.6210  222.6690 C   0  0  0  0  0  0  0  0  0  0  0  0
  138.3530   79.7550  223.4010 C   0  0  0  0  0  0  0  0  0  0  0  0
  139.3270   80.6250  223.8380 C   0  0  0  0  0  0  0  0  0  0  0  0
  140.6310   80.3290  223.5270 C   0  0  0  0  0  0  0  0  0  0  0  0
  141.5960   81.2170  223.9740 C   0  0  0  0  0  0  0  0  0  0  0  0
  142.9230   81.0000  223.7050 C   0  0  0  0  0  0  0  0  0  0  0  0
  143.2790   79.8990  222.9910 C   0  0  0  0  0  0  0  0  0  0  0  0
  142.3080   79.0120  222.5440 C   0  0  0  0  0  0  0  0  0  0  0  0
  140.9650   79.1930  222.7930 C   0  0  0  0  0  0  0  0  0  0  0  0
  141.6892   78.1621  220.2236 H   0  0  0  0  0  0  0  0  0  0  0  0
  141.1377   76.5583  219.6316 H   0  0  0  0  0  0  0  0  0  0  0  0
  140.0062   77.9534  219.6316 H   0  0  0  0  0  0  0  0  0  0  0  0
  141.2017   76.6013  222.1154 H   0  0  0  0  0  0  0  0  0  0  0  0
  138.3080   76.6830  221.0340 H   0  0  0  0  0  0  0  0  0  0  0  0
  137.6451   74.1011  220.6808 H   0  0  0  0  0  0  0  0  0  0  0  0
  138.6052   72.9550  221.7570 H   0  0  0  0  0  0  0  0  0  0  0  0
  136.9160   73.2200  223.3070 H   0  0  0  0  0  0  0  0  0  0  0  0
  135.1224   77.3802  223.9430 H   0  0  0  0  0  0  0  0  0  0  0  0
  133.4218   77.3349  225.7721 H   0  0  0  0  0  0  0  0  0  0  0  0
  132.0866   76.1030  227.3953 H   0  0  0  0  0  0  0  0  0  0  0  0
  131.4501   73.8977  228.4181 H   0  0  0  0  0  0  0  0  0  0  0  0
  132.5174   71.8247  227.5954 H   0  0  0  0  0  0  0  0  0  0  0  0
  134.1955   71.8597  225.7848 H   0  0  0  0  0  0  0  0  0  0  0  0
  137.8863   77.9493  222.3354 H   0  0  0  0  0  0  0  0  0  0  0  0
  137.2972   79.9586  223.6330 H   0  0  0  0  0  0  0  0  0  0  0  0
  139.0693   81.5250  224.4156 H   0  0  0  0  0  0  0  0  0  0  0  0
  141.2948   82.1044  224.5501 H   0  0  0  0  0  0  0  0  0  0  0  0
  143.6877   81.7058  224.0614 H   0  0  0  0  0  0  0  0  0  0  0  0
  144.3392   79.7101  222.7667 H   0  0  0  0  0  0  0  0  0  0  0  0
  142.6239   78.1296  221.9681 H   0  0  0  0  0  0  0  0  0  0  0  0
  1  2  1  0
  2  3  1  0
  3  4  1  0
  4  5  2  0
  4  6  1  0
  6  7  1  0
  7  8  1  0
  8  9  2  0
  8 10  1  0
 10 11  2  0
 11 12  1  0
 12 13  2  0
 13 14  1  0
 14 15  2  0
 15 16  1  0
 16 17  2  0
 17 18  1  0
 18 19  2  0
  2 20  1  0
 20 21  2  0
 21 22  1  0
 22 23  2  0
 23 24  1  0
 24 25  2  0
 25 26  1  0
 26 27  2  0
 27 28  1  0
 28 29  2  0
 19 10  1  0
 29 20  1  0
 18 13  1  0
 29 24  1  0
  1 30  1  0
  1 31  1  0
  1 32  1  0
  2 33  1  1
  3 34  1  0
  6 35  1  0
  6 36  1  0
  7 37  1  0
 11 38  1  0
 12 39  1  0
 14 40  1  0
 15 41  1  0
 16 42  1  0
 17 43  1  0
 21 44  1  0
 22 45  1  0
 23 46  1  0
 25 47  1  0
 26 48  1  0
 27 49  1  0
 28 50  1  0
M  END
>  <smiles>  (26) 
C[C@H](NC(=O)CNC(=O)c1ccc2ccccc2n1)c1cccc2ccccc12

>  <score_type>  (26) 
oracle

>  <origin>  (26) 
autodockgpu

>  <m_score__min__energy>  (26) 
-10.210000000000001

>  <m_primary>  (26) 
energy

>  <rmsd>  (26) 
6.08890108734194

>  <m_score__min__rmsd>  (26) 
6.08890108734194

>  <meeko>  (26) 
{"free_energy": -8.25, "intermolecular_energy": -9.74, "internal_energy": -2.23, "cluster_size": 1, "cluster_id": 5, "rank_in_cluster": 1}

>  <energy>  (26) 
-9.65

>  <cluster_rmsd>  (26) 
0.51

>  <cluster>  (26) 
2

$$$$

     RDKit          3D

 50 53  0  0  0  0  0  0  0  0999 V2000
  138.3980   70.1780  222.6480 C   0  0  0  0  0  0  0  0  0  0  0  0
  139.0470   70.9140  223.8110 C   0  0  2  0  0  0  0  0  0  0  0  0
  140.2110   71.6080  223.2410 N   0  0  0  0  0  0  0  0  0  0  0  0
  140.0100   72.6110  222.2760 C   0  0  0  0  0  0  0  0  0  0  0  0
  138.7990   72.8590  221.9600 O   0  0  0  0  0  0  0  0  0  0  0  0
  141.0450   73.3950  221.6050 C   0  0  0  0  0  0  0  0  0  0  0  0
  141.1150   74.7870  221.9870 N   0  0  0  0  0  0  0  0  0  0  0  0
  139.9760   75.6390  221.9480 C   0  0  0  0  0  0  0  0  0  0  0  0
  138.8300   75.2310  221.5810 O   0  0  0  0  0  0  0  0  0  0  0  0
  140.1210   77.0580  222.3480 C   0  0  0  0  0  0  0  0  0  0  0  0
  139.0000   77.8390  222.5370 C   0  0  0  0  0  0  0  0  0  0  0  0
  139.1850   79.1660  222.9120 C   0  0  0  0  0  0  0  0  0  0  0  0
  140.4590   79.6940  223.0920 C   0  0  0  0  0  0  0  0  0  0  0  0
  140.6350   81.0250  223.4690 C   0  0  0  0  0  0  0  0  0  0  0  0
  141.9320   81.5160  223.6400 C   0  0  0  0  0  0  0  0  0  0  0  0
  143.0070   80.6660  223.4300 C   0  0  0  0  0  0  0  0  0  0  0  0
  142.8510   79.3520  223.0600 C   0  0  0  0  0  0  0  0  0  0  0  0
  141.5580   78.8750  222.8930 C   0  0  0  0  0  0  0  0  0  0  0  0
  141.3500   77.5970  222.5300 N   0  0  0  0  0  0  0  0  0  0  0  0
  139.5480   69.9720  224.8340 C   0  0  0  0  0  0  0  0  0  0  0  0
  139.4460   68.6010  224.7370 C   0  0  0  0  0  0  0  0  0  0  0  0
  139.9350   67.7400  225.7140 C   0  0  0  0  0  0  0  0  0  0  0  0
  140.5530   68.2350  226.8420 C   0  0  0  0  0  0  0  0  0  0  0  0
  140.6650   69.5980  226.9590 C   0  0  0  0  0  0  0  0  0  0  0  0
  141.2880   70.0760  228.1010 C   0  0  0  0  0  0  0  0  0  0  0  0
  141.4410   71.4250  228.2990 C   0  0  0  0  0  0  0  0  0  0  0  0
  140.9710   72.2870  227.3600 C   0  0  0  0  0  0  0  0  0  0  0  0
  140.3470   71.8020  226.2170 C   0  0  0  0  0  0  0  0  0  0  0  0
  140.1740   70.4570  225.9780 C   0  0  0  0  0  0  0  0  0  0  0  0
  137.7174   69.4061  223.0365 H   0  0  0  0  0  0  0  0  0  0  0  0
  137.8301   70.8919  222.0334 H   0  0  0  0  0  0  0  0  0  0  0  0
  139.1774   69.7039  222.0334 H   0  0  0  0  0  0  0  0  0  0  0  0
  138.3178   71.5859  224.2872 H   0  0  0  0  0  0  0  0  0  0  0  0
  141.1730   71.3670  223.5450 H   0  0  0  0  0  0  0  0  0  0  0  0
  142.0181   72.9329  221.8274 H   0  0  0  0  0  0  0  0  0  0  0  0
  140.7852   73.3872  220.5361 H   0  0  0  0  0  0  0  0  0  0  0  0
  142.0060   75.2280  222.3110 H   0  0  0  0  0  0  0  0  0  0  0  0
  137.9906   77.4254  222.3956 H   0  0  0  0  0  0  0  0  0  0  0  0
  138.3070   79.8097  223.0691 H   0  0  0  0  0  0  0  0  0  0  0  0
  139.7652   81.6790  223.6295 H   0  0  0  0  0  0  0  0  0  0  0  0
  142.0978   82.5621  223.9370 H   0  0  0  0  0  0  0  0  0  0  0  0
  144.0254   81.0593  223.5650 H   0  0  0  0  0  0  0  0  0  0  0  0
  143.7221   78.6993  222.9013 H   0  0  0  0  0  0  0  0  0  0  0  0
  138.9578   68.1699  223.8505 H   0  0  0  0  0  0  0  0  0  0  0  0
  139.8273   66.6529  225.5850 H   0  0  0  0  0  0  0  0  0  0  0  0
  140.9424   67.5622  227.6203 H   0  0  0  0  0  0  0  0  0  0  0  0
  141.6629   69.3680  228.8548 H   0  0  0  0  0  0  0  0  0  0  0  0
  141.9371   71.8032  229.2050 H   0  0  0  0  0  0  0  0  0  0  0  0
  141.0847   73.3715  227.5048 H   0  0  0  0  0  0  0  0  0  0  0  0
  139.9761   72.5220  225.4727 H   0  0  0  0  0  0  0  0  0  0  0  0
  1  2  1  0
  2  3  1  0
  3  4  1  0
  4  5  2  0
  4  6  1  0
  6  7  1  0
  7  8  1  0
  8  9  2  0
  8 10  1  0
 10 11  2  0
 11 12  1  0
 12 13  2  0
 13 14  1  0
 14 15  2  0
 15 16  1  0
 16 17  2  0
 17 18  1  0
 18 19  2  0
  2 20  1  0
 20 21  2  0
 21 22  1  0
 22 23  2  0
 23 24  1  0
 24 25  2  0
 25 26  1  0
 26 27  2  0
 27 28  1  0
 28 29  2  0
 19 10  1  0
 29 20  1  0
 18 13  1  0
 29 24  1  0
  1 30  1  0
  1 31  1  0
  1 32  1  0
  2 33  1  1
  3 34  1  0
  6 35  1  0
  6 36  1  0
  7 37  1  0
 11 38  1  0
 12 39  1  0
 14 40  1  0
 15 41  1  0
 16 42  1  0
 17 43  1  0
 21 44  1  0
 22 45  1  0
 23 46  1  0
 25 47  1  0
 26 48  1  0
 27 49  1  0
 28 50  1  0
M  END
>  <smiles>  (27) 
C[C@H](NC(=O)CNC(=O)c1ccc2ccccc2n1)c1cccc2ccccc12

>  <score_type>  (27) 
oracle

>  <origin>  (27) 
autodockgpu

>  <m_score__min__energy>  (27) 
-10.210000000000001

>  <m_primary>  (27) 
energy

>  <rmsd>  (27) 
10.13385155125229

>  <m_score__min__rmsd>  (27) 
10.13385155125229

>  <meeko>  (27) 
{"free_energy": -10.0, "intermolecular_energy": -11.49, "internal_energy": -1.08, "cluster_size": 14, "cluster_id": 1, "rank_in_cluster": 2}

>  <energy>  (27) 
-9.65

>  <cluster_rmsd>  (27) 
0.68

>  <cluster>  (27) 
2

$$$$

     RDKit          3D

 50 53  0  0  0  0  0  0  0  0999 V2000
  141.7070   77.1510  219.5160 C   0  0  0  0  0  0  0  0  0  0  0  0
  141.6030   76.5450  220.9090 C   0  0  2  0  0  0  0  0  0  0  0  0
  141.0930   75.1800  220.7080 N   0  0  0  0  0  0  0  0  0  0  0  0
  142.0040   74.1280  220.5050 C   0  0  0  0  0  0  0  0  0  0  0  0
  143.2410   74.4400  220.5140 O   0  0  0  0  0  0  0  0  0  0  0  0
  141.6760   72.7200  220.2880 C   0  0  0  0  0  0  0  0  0  0  0  0
  141.3790   71.9610  221.4810 N   0  0  0  0  0  0  0  0  0  0  0  0
  140.4500   72.4200  222.4570 C   0  0  0  0  0  0  0  0  0  0  0  0
  139.8220   73.5180  222.3390 O   0  0  0  0  0  0  0  0  0  0  0  0
  140.1980   71.5930  223.6590 C   0  0  0  0  0  0  0  0  0  0  0  0
  139.4440   70.4420  223.5580 C   0  0  0  0  0  0  0  0  0  0  0  0
  139.2330   69.6970  224.7140 C   0  0  0  0  0  0  0  0  0  0  0  0
  139.7640   70.0960  225.9370 C   0  0  0  0  0  0  0  0  0  0  0  0
  139.5480   69.3430  227.0900 C   0  0  0  0  0  0  0  0  0  0  0  0
  140.0990   69.7770  228.2980 C   0  0  0  0  0  0  0  0  0  0  0  0
  140.8450   70.9460  228.3150 C   0  0  0  0  0  0  0  0  0  0  0  0
  141.0680   71.6990  227.1880 C   0  0  0  0  0  0  0  0  0  0  0  0
  140.5160   71.2570  225.9940 C   0  0  0  0  0  0  0  0  0  0  0  0
  140.7030   71.9580  224.8610 N   0  0  0  0  0  0  0  0  0  0  0  0
  140.6190   77.2690  221.7410 C   0  0  0  0  0  0  0  0  0  0  0  0
  139.3200   76.8550  221.9360 C   0  0  0  0  0  0  0  0  0  0  0  0
  138.4190   77.5560  222.7320 C   0  0  0  0  0  0  0  0  0  0  0  0
  138.8000   78.7160  223.3700 C   0  0  0  0  0  0  0  0  0  0  0  0
  140.0910   79.1470  223.1890 C   0  0  0  0  0  0  0  0  0  0  0  0
  140.4550   80.3160  223.8370 C   0  0  0  0  0  0  0  0  0  0  0  0
  141.7250   80.8190  223.7100 C   0  0  0  0  0  0  0  0  0  0  0  0
  142.6230   80.1530  222.9370 C   0  0  0  0  0  0  0  0  0  0  0  0
  142.2530   78.9810  222.2890 C   0  0  0  0  0  0  0  0  0  0  0  0
  140.9890   78.4420  222.3910 C   0  0  0  0  0  0  0  0  0  0  0  0
  141.8925   78.2320  219.5994 H   0  0  0  0  0  0  0  0  0  0  0  0
  142.5370   76.6775  218.9712 H   0  0  0  0  0  0  0  0  0  0  0  0
  140.7666   76.9813  218.9712 H   0  0  0  0  0  0  0  0  0  0  0  0
  142.5792   76.5865  221.4142 H   0  0  0  0  0  0  0  0  0  0  0  0
  140.0750   74.9880  220.7200 H   0  0  0  0  0  0  0  0  0  0  0  0
  140.7963   72.6743  219.6291 H   0  0  0  0  0  0  0  0  0  0  0  0
  142.5776   72.2625  219.8548 H   0  0  0  0  0  0  0  0  0  0  0  0
  141.8340   71.0410  221.6780 H   0  0  0  0  0  0  0  0  0  0  0  0
  139.0226   70.1231  222.5932 H   0  0  0  0  0  0  0  0  0  0  0  0
  138.6352   68.7752  224.6603 H   0  0  0  0  0  0  0  0  0  0  0  0
  138.9517   68.4195  227.0491 H   0  0  0  0  0  0  0  0  0  0  0  0
  139.9436   69.2003  229.2217 H   0  0  0  0  0  0  0  0  0  0  0  0
  141.2754   71.2838  229.2693 H   0  0  0  0  0  0  0  0  0  0  0  0
  141.6646   72.6222  227.2306 H   0  0  0  0  0  0  0  0  0  0  0  0
  138.9807   75.9324  221.4423 H   0  0  0  0  0  0  0  0  0  0  0  0
  137.3923   77.1801  222.8529 H   0  0  0  0  0  0  0  0  0  0  0  0
  138.0953   79.2767  224.0017 H   0  0  0  0  0  0  0  0  0  0  0  0
  139.7188   80.8459  224.4592 H   0  0  0  0  0  0  0  0  0  0  0  0
  142.0122   81.7471  224.2259 H   0  0  0  0  0  0  0  0  0  0  0  0
  143.6454   80.5429  222.8241 H   0  0  0  0  0  0  0  0  0  0  0  0
  142.9994   78.4624  221.6694 H   0  0  0  0  0  0  0  0  0  0  0  0
  1  2  1  0
  2  3  1  0
  3  4  1  0
  4  5  2  0
  4  6  1  0
  6  7  1  0
  7  8  1  0
  8  9  2  0
  8 10  1  0
 10 11  2  0
 11 12  1  0
 12 13  2  0
 13 14  1  0
 14 15  2  0
 15 16  1  0
 16 17  2  0
 17 18  1  0
 18 19  2  0
  2 20  1  0
 20 21  2  0
 21 22  1  0
 22 23  2  0
 23 24  1  0
 24 25  2  0
 25 26  1  0
 26 27  2  0
 27 28  1  0
 28 29  2  0
 19 10  1  0
 29 20  1  0
 18 13  1  0
 29 24  1  0
  1 30  1  0
  1 31  1  0
  1 32  1  0
  2 33  1  1
  3 34  1  0
  6 35  1  0
  6 36  1  0
  7 37  1  0
 11 38  1  0
 12 39  1  0
 14 40  1  0
 15 41  1  0
 16 42  1  0
 17 43  1  0
 21 44  1  0
 22 45  1  0
 23 46  1  0
 25 47  1  0
 26 48  1  0
 27 49  1  0
 28 50  1  0
M  END
>  <smiles>  (28) 
C[C@H](NC(=O)CNC(=O)c1ccc2ccccc2n1)c1cccc2ccccc12

>  <score_type>  (28) 
oracle

>  <origin>  (28) 
autodockgpu

>  <m_score__min__energy>  (28) 
-10.210000000000001

>  <m_primary>  (28) 
energy

>  <rmsd>  (28) 
4.596618801403825

>  <m_score__min__rmsd>  (28) 
4.596618801403825

>  <meeko>  (28) 
{"free_energy": -9.45, "intermolecular_energy": -10.94, "internal_energy": -1.74, "cluster_size": 14, "cluster_id": 1, "rank_in_cluster": 14}

>  <energy>  (28) 
-9.64

>  <cluster_rmsd>  (28) 
0.86

>  <cluster>  (28) 
2

$$$$

     RDKit          3D

 50 53  0  0  0  0  0  0  0  0999 V2000
  141.5630   78.4320  219.4120 C   0  0  0  0  0  0  0  0  0  0  0  0
  141.3390   77.7080  220.7320 C   0  0  2  0  0  0  0  0  0  0  0  0
  140.4560   76.5760  220.4170 N   0  0  0  0  0  0  0  0  0  0  0  0
  140.4040   75.4780  221.2950 C   0  0  0  0  0  0  0  0  0  0  0  0
  141.1420   75.5480  222.3330 O   0  0  0  0  0  0  0  0  0  0  0  0
  139.5900   74.2740  221.1380 C   0  0  0  0  0  0  0  0  0  0  0  0
  139.5100   73.4240  222.3030 N   0  0  0  0  0  0  0  0  0  0  0  0
  140.3260   72.2670  222.4530 C   0  0  0  0  0  0  0  0  0  0  0  0
  141.1770   71.9140  221.5780 O   0  0  0  0  0  0  0  0  0  0  0  0
  140.1860   71.4370  223.6710 C   0  0  0  0  0  0  0  0  0  0  0  0
  139.5970   70.1920  223.5940 C   0  0  0  0  0  0  0  0  0  0  0  0
  139.4860   69.4480  224.7650 C   0  0  0  0  0  0  0  0  0  0  0  0
  139.9530   69.9410  225.9790 C   0  0  0  0  0  0  0  0  0  0  0  0
  139.8380   69.1890  227.1470 C   0  0  0  0  0  0  0  0  0  0  0  0
  140.3200   69.7190  228.3470 C   0  0  0  0  0  0  0  0  0  0  0  0
  140.8990   70.9790  228.3410 C   0  0  0  0  0  0  0  0  0  0  0  0
  141.0200   71.7330  227.1980 C   0  0  0  0  0  0  0  0  0  0  0  0
  140.5380   71.1960  226.0130 C   0  0  0  0  0  0  0  0  0  0  0  0
  140.6310   71.8930  224.8660 N   0  0  0  0  0  0  0  0  0  0  0  0
  140.6310   78.5670  221.7050 C   0  0  0  0  0  0  0  0  0  0  0  0
  139.2680   78.5460  221.9050 C   0  0  0  0  0  0  0  0  0  0  0  0
  138.6320   79.3630  222.8350 C   0  0  0  0  0  0  0  0  0  0  0  0
  139.3560   80.2440  223.6080 C   0  0  0  0  0  0  0  0  0  0  0  0
  140.7160   80.2810  223.4250 C   0  0  0  0  0  0  0  0  0  0  0  0
  141.4260   81.1740  224.2110 C   0  0  0  0  0  0  0  0  0  0  0  0
  142.7890   81.2780  224.0910 C   0  0  0  0  0  0  0  0  0  0  0  0
  143.4330   80.4920  223.1900 C   0  0  0  0  0  0  0  0  0  0  0  0
  142.7170   79.5980  222.4040 C   0  0  0  0  0  0  0  0  0  0  0  0
  141.3490   79.4620  222.4930 C   0  0  0  0  0  0  0  0  0  0  0  0
  141.8828   79.4656  219.6104 H   0  0  0  0  0  0  0  0  0  0  0  0
  142.3421   77.9113  218.8358 H   0  0  0  0  0  0  0  0  0  0  0  0
  140.6260   78.4423  218.8358 H   0  0  0  0  0  0  0  0  0  0  0  0
  142.3035   77.4116  221.1700 H   0  0  0  0  0  0  0  0  0  0  0  0
  139.8720   76.5820  219.5610 H   0  0  0  0  0  0  0  0  0  0  0  0
  138.5686   74.5868  220.8753 H   0  0  0  0  0  0  0  0  0  0  0  0
  140.0829   73.6744  220.3586 H   0  0  0  0  0  0  0  0  0  0  0  0
  138.8480   73.6220  223.0880 H   0  0  0  0  0  0  0  0  0  0  0  0
  139.2262   69.7990  222.6358 H   0  0  0  0  0  0  0  0  0  0  0  0
  139.0205   68.4520  224.7298 H   0  0  0  0  0  0  0  0  0  0  0  0
  139.3741   68.1919  227.1245 H   0  0  0  0  0  0  0  0  0  0  0  0
  140.2413   69.1453  229.2822 H   0  0  0  0  0  0  0  0  0  0  0  0
  141.2764   71.3915  229.2883 H   0  0  0  0  0  0  0  0  0  0  0  0
  141.4841   72.7300  227.2221 H   0  0  0  0  0  0  0  0  0  0  0  0
  138.6574   77.8552  221.3050 H   0  0  0  0  0  0  0  0  0  0  0  0
  137.5400   79.3047  222.9541 H   0  0  0  0  0  0  0  0  0  0  0  0
  138.8622   80.8942  224.3451 H   0  0  0  0  0  0  0  0  0  0  0  0
  140.8927   81.8049  224.9373 H   0  0  0  0  0  0  0  0  0  0  0  0
  143.3517   81.9876  224.7154 H   0  0  0  0  0  0  0  0  0  0  0  0
  144.5254   80.5635  223.0822 H   0  0  0  0  0  0  0  0  0  0  0  0
  143.2640   78.9740  221.6820 H   0  0  0  0  0  0  0  0  0  0  0  0
  1  2  1  0
  2  3  1  0
  3  4  1  0
  4  5  2  0
  4  6  1  0
  6  7  1  0
  7  8  1  0
  8  9  2  0
  8 10  1  0
 10 11  2  0
 11 12  1  0
 12 13  2  0
 13 14  1  0
 14 15  2  0
 15 16  1  0
 16 17  2  0
 17 18  1  0
 18 19  2  0
  2 20  1  0
 20 21  2  0
 21 22  1  0
 22 23  2  0
 23 24  1  0
 24 25  2  0
 25 26  1  0
 26 27  2  0
 27 28  1  0
 28 29  2  0
 19 10  1  0
 29 20  1  0
 18 13  1  0
 29 24  1  0
  1 30  1  0
  1 31  1  0
  1 32  1  0
  2 33  1  1
  3 34  1  0
  6 35  1  0
  6 36  1  0
  7 37  1  0
 11 38  1  0
 12 39  1  0
 14 40  1  0
 15 41  1  0
 16 42  1  0
 17 43  1  0
 21 44  1  0
 22 45  1  0
 23 46  1  0
 25 47  1  0
 26 48  1  0
 27 49  1  0
 28 50  1  0
M  END
>  <smiles>  (29) 
C[C@H](NC(=O)CNC(=O)c1ccc2ccccc2n1)c1cccc2ccccc12

>  <score_type>  (29) 
oracle

>  <origin>  (29) 
autodockgpu

>  <m_score__min__energy>  (29) 
-10.210000000000001

>  <m_primary>  (29) 
energy

>  <rmsd>  (29) 
4.209854232676232

>  <m_score__min__rmsd>  (29) 
4.209854232676232

>  <meeko>  (29) 
{"free_energy": -9.95, "intermolecular_energy": -11.44, "internal_energy": -1.15, "cluster_size": 26, "cluster_id": 2, "rank_in_cluster": 4}

>  <energy>  (29) 
-9.62

>  <cluster_rmsd>  (29) 
1.42

>  <cluster>  (29) 
2

$$$$

     RDKit          3D

 50 53  0  0  0  0  0  0  0  0999 V2000
  141.6940   77.1310  219.7900 C   0  0  0  0  0  0  0  0  0  0  0  0
  141.4530   76.5850  221.1900 C   0  0  2  0  0  0  0  0  0  0  0  0
  140.8000   75.2810  220.9990 N   0  0  0  0  0  0  0  0  0  0  0  0
  141.5520   74.2000  220.5050 C   0  0  0  0  0  0  0  0  0  0  0  0
  142.7820   74.4320  220.2570 O   0  0  0  0  0  0  0  0  0  0  0  0
  141.0680   72.8450  220.2530 C   0  0  0  0  0  0  0  0  0  0  0  0
  140.9500   72.0000  221.4190 N   0  0  0  0  0  0  0  0  0  0  0  0
  140.2370   72.4120  222.5810 C   0  0  0  0  0  0  0  0  0  0  0  0
  139.6570   73.5390  222.6620 O   0  0  0  0  0  0  0  0  0  0  0  0
  140.1610   71.4970  223.7430 C   0  0  0  0  0  0  0  0  0  0  0  0
  139.6020   70.2440  223.5990 C   0  0  0  0  0  0  0  0  0  0  0  0
  139.5510   69.4190  224.7190 C   0  0  0  0  0  0  0  0  0  0  0  0
  140.0490   69.8400  225.9480 C   0  0  0  0  0  0  0  0  0  0  0  0
  139.9950   69.0080  227.0640 C   0  0  0  0  0  0  0  0  0  0  0  0
  140.5050   69.4680  228.2810 C   0  0  0  0  0  0  0  0  0  0  0  0
  141.0520   70.7410  228.3420 C   0  0  0  0  0  0  0  0  0  0  0  0
  141.1130   71.5740  227.2520 C   0  0  0  0  0  0  0  0  0  0  0  0
  140.6030   71.1060  226.0490 C   0  0  0  0  0  0  0  0  0  0  0  0
  140.6370   71.8820  224.9510 N   0  0  0  0  0  0  0  0  0  0  0  0
  140.5200   77.4430  221.9510 C   0  0  0  0  0  0  0  0  0  0  0  0
  139.1870   77.1530  222.1430 C   0  0  0  0  0  0  0  0  0  0  0  0
  138.3360   77.9780  222.8710 C   0  0  0  0  0  0  0  0  0  0  0  0
  138.8030   79.1420  223.4400 C   0  0  0  0  0  0  0  0  0  0  0  0
  140.1280   79.4500  223.2620 C   0  0  0  0  0  0  0  0  0  0  0  0
  140.5790   80.6260  223.8410 C   0  0  0  0  0  0  0  0  0  0  0  0
  141.8880   81.0110  223.7100 C   0  0  0  0  0  0  0  0  0  0  0  0
  142.7400   80.2230  223.0030 C   0  0  0  0  0  0  0  0  0  0  0  0
  142.2840   79.0460  222.4240 C   0  0  0  0  0  0  0  0  0  0  0  0
  140.9770   78.6210  222.5320 C   0  0  0  0  0  0  0  0  0  0  0  0
  142.1373   78.1353  219.8594 H   0  0  0  0  0  0  0  0  0  0  0  0
  142.3811   76.4635  219.2493 H   0  0  0  0  0  0  0  0  0  0  0  0
  140.7378   77.1888  219.2493 H   0  0  0  0  0  0  0  0  0  0  0  0
  142.4019   76.5306  221.7438 H   0  0  0  0  0  0  0  0  0  0  0  0
  139.7980   75.1530  221.2280 H   0  0  0  0  0  0  0  0  0  0  0  0
  140.0742   72.9211  219.7876 H   0  0  0  0  0  0  0  0  0  0  0  0
  141.8232   72.3691  219.6102 H   0  0  0  0  0  0  0  0  0  0  0  0
  141.3830   71.0500  221.4600 H   0  0  0  0  0  0  0  0  0  0  0  0
  139.2086   69.9071  222.6286 H   0  0  0  0  0  0  0  0  0  0  0  0
  139.1088   68.4157  224.6307 H   0  0  0  0  0  0  0  0  0  0  0  0
  139.5566   68.0020  226.9882 H   0  0  0  0  0  0  0  0  0  0  0  0
  140.4731   68.8303  229.1767 H   0  0  0  0  0  0  0  0  0  0  0  0
  141.4531   71.0977  229.3021 H   0  0  0  0  0  0  0  0  0  0  0  0
  141.5519   72.5796  227.3298 H   0  0  0  0  0  0  0  0  0  0  0  0
  138.7789   76.2313  221.7026 H   0  0  0  0  0  0  0  0  0  0  0  0
  137.2793   77.6979  222.9935 H   0  0  0  0  0  0  0  0  0  0  0  0
  138.1374   79.8012  224.0166 H   0  0  0  0  0  0  0  0  0  0  0  0
  139.8800   81.2559  224.4108 H   0  0  0  0  0  0  0  0  0  0  0  0
  142.2437   81.9445  224.1706 H   0  0  0  0  0  0  0  0  0  0  0  0
  143.7935   80.5182  222.8891 H   0  0  0  0  0  0  0  0  0  0  0  0
  142.9946   78.4276  221.8560 H   0  0  0  0  0  0  0  0  0  0  0  0
  1  2  1  0
  2  3  1  0
  3  4  1  0
  4  5  2  0
  4  6  1  0
  6  7  1  0
  7  8  1  0
  8  9  2  0
  8 10  1  0
 10 11  2  0
 11 12  1  0
 12 13  2  0
 13 14  1  0
 14 15  2  0
 15 16  1  0
 16 17  2  0
 17 18  1  0
 18 19  2  0
  2 20  1  0
 20 21  2  0
 21 22  1  0
 22 23  2  0
 23 24  1  0
 24 25  2  0
 25 26  1  0
 26 27  2  0
 27 28  1  0
 28 29  2  0
 19 10  1  0
 29 20  1  0
 18 13  1  0
 29 24  1  0
  1 30  1  0
  1 31  1  0
  1 32  1  0
  2 33  1  1
  3 34  1  0
  6 35  1  0
  6 36  1  0
  7 37  1  0
 11 38  1  0
 12 39  1  0
 14 40  1  0
 15 41  1  0
 16 42  1  0
 17 43  1  0
 21 44  1  0
 22 45  1  0
 23 46  1  0
 25 47  1  0
 26 48  1  0
 27 49  1  0
 28 50  1  0
M  END
>  <smiles>  (30) 
C[C@H](NC(=O)CNC(=O)c1ccc2ccccc2n1)c1cccc2ccccc12

>  <score_type>  (30) 
oracle

>  <origin>  (30) 
autodockgpu

>  <m_score__min__energy>  (30) 
-10.210000000000001

>  <m_primary>  (30) 
energy

>  <rmsd>  (30) 
4.525432295145357

>  <m_score__min__rmsd>  (30) 
4.525432295145357

>  <meeko>  (30) 
{"free_energy": -9.59, "intermolecular_energy": -11.08, "internal_energy": -1.67, "cluster_size": 14, "cluster_id": 1, "rank_in_cluster": 4}

>  <energy>  (30) 
-9.59

>  <cluster_rmsd>  (30) 
0.76

>  <cluster>  (30) 
2

$$$$

     RDKit          3D

 50 53  0  0  0  0  0  0  0  0999 V2000
  141.6940   77.1490  219.5480 C   0  0  0  0  0  0  0  0  0  0  0  0
  141.5650   76.5700  220.9500 C   0  0  2  0  0  0  0  0  0  0  0  0
  141.0340   75.2110  220.7700 N   0  0  0  0  0  0  0  0  0  0  0  0
  141.9220   74.1530  220.5060 C   0  0  0  0  0  0  0  0  0  0  0  0
  143.1600   74.4550  220.4460 O   0  0  0  0  0  0  0  0  0  0  0  0
  141.5700   72.7500  220.2980 C   0  0  0  0  0  0  0  0  0  0  0  0
  141.3110   71.9910  221.5000 N   0  0  0  0  0  0  0  0  0  0  0  0
  140.3660   72.4180  222.4750 C   0  0  0  0  0  0  0  0  0  0  0  0
  139.6890   73.4860  222.3480 O   0  0  0  0  0  0  0  0  0  0  0  0
  140.1550   71.5930  223.6860 C   0  0  0  0  0  0  0  0  0  0  0  0
  139.3840   70.4510  223.6160 C   0  0  0  0  0  0  0  0  0  0  0  0
  139.2120   69.7070  224.7800 C   0  0  0  0  0  0  0  0  0  0  0  0
  139.7980   70.0990  225.9800 C   0  0  0  0  0  0  0  0  0  0  0  0
  139.6220   69.3470  227.1400 C   0  0  0  0  0  0  0  0  0  0  0  0
  140.2280   69.7740  228.3250 C   0  0  0  0  0  0  0  0  0  0  0  0
  140.9880   70.9340  228.3110 C   0  0  0  0  0  0  0  0  0  0  0  0
  141.1720   71.6850  227.1760 C   0  0  0  0  0  0  0  0  0  0  0  0
  140.5660   71.2510  226.0050 C   0  0  0  0  0  0  0  0  0  0  0  0
  140.7130   71.9510  224.8660 N   0  0  0  0  0  0  0  0  0  0  0  0
  140.5860   77.3270  221.7590 C   0  0  0  0  0  0  0  0  0  0  0  0
  139.2780   76.9390  221.9490 C   0  0  0  0  0  0  0  0  0  0  0  0
  138.3820   77.6710  222.7230 C   0  0  0  0  0  0  0  0  0  0  0  0
  138.7770   78.8360  223.3410 C   0  0  0  0  0  0  0  0  0  0  0  0
  140.0760   79.2410  223.1650 C   0  0  0  0  0  0  0  0  0  0  0  0
  140.4540   80.4170  223.7940 C   0  0  0  0  0  0  0  0  0  0  0  0
  141.7340   80.8960  223.6690 C   0  0  0  0  0  0  0  0  0  0  0  0
  142.6270   80.2000  222.9180 C   0  0  0  0  0  0  0  0  0  0  0  0
  142.2440   79.0220  222.2890 C   0  0  0  0  0  0  0  0  0  0  0  0
  140.9700   78.5060  222.3900 C   0  0  0  0  0  0  0  0  0  0  0  0
  141.9328   78.2207  219.6144 H   0  0  0  0  0  0  0  0  0  0  0  0
  142.4979   76.6270  219.0083 H   0  0  0  0  0  0  0  0  0  0  0  0
  140.7446   77.0176  219.0083 H   0  0  0  0  0  0  0  0  0  0  0  0
  142.5370   76.6032  221.4639 H   0  0  0  0  0  0  0  0  0  0  0  0
  140.0160   75.0270  220.8390 H   0  0  0  0  0  0  0  0  0  0  0  0
  140.6650   72.7162  219.6737 H   0  0  0  0  0  0  0  0  0  0  0  0
  142.4487   72.2836  219.8286 H   0  0  0  0  0  0  0  0  0  0  0  0
  141.8060   71.0930  221.7040 H   0  0  0  0  0  0  0  0  0  0  0  0
  138.9194   70.1379  222.6694 H   0  0  0  0  0  0  0  0  0  0  0  0
  138.6016   68.7923  224.7508 H   0  0  0  0  0  0  0  0  0  0  0  0
  139.0146   68.4301  227.1233 H   0  0  0  0  0  0  0  0  0  0  0  0
  140.1040   69.1988  229.2544 H   0  0  0  0  0  0  0  0  0  0  0  0
  141.4624   71.2658  229.2464 H   0  0  0  0  0  0  0  0  0  0  0  0
  141.7803   72.6013  227.1943 H   0  0  0  0  0  0  0  0  0  0  0  0
  138.9273   76.0131  221.4696 H   0  0  0  0  0  0  0  0  0  0  0  0
  137.3480   77.3150  222.8420 H   0  0  0  0  0  0  0  0  0  0  0  0
  138.0760   79.4214  223.9542 H   0  0  0  0  0  0  0  0  0  0  0  0
  139.7213   80.9713  224.3989 H   0  0  0  0  0  0  0  0  0  0  0  0
  142.0324   81.8292  224.1692 H   0  0  0  0  0  0  0  0  0  0  0  0
  143.6568   80.5705  222.8076 H   0  0  0  0  0  0  0  0  0  0  0  0
  142.9872   78.4794  221.6863 H   0  0  0  0  0  0  0  0  0  0  0  0
  1  2  1  0
  2  3  1  0
  3  4  1  0
  4  5  2  0
  4  6  1  0
  6  7  1  0
  7  8  1  0
  8  9  2  0
  8 10  1  0
 10 11  2  0
 11 12  1  0
 12 13  2  0
 13 14  1  0
 14 15  2  0
 15 16  1  0
 16 17  2  0
 17 18  1  0
 18 19  2  0
  2 20  1  0
 20 21  2  0
 21 22  1  0
 22 23  2  0
 23 24  1  0
 24 25  2  0
 25 26  1  0
 26 27  2  0
 27 28  1  0
 28 29  2  0
 19 10  1  0
 29 20  1  0
 18 13  1  0
 29 24  1  0
  1 30  1  0
  1 31  1  0
  1 32  1  0
  2 33  1  1
  3 34  1  0
  6 35  1  0
  6 36  1  0
  7 37  1  0
 11 38  1  0
 12 39  1  0
 14 40  1  0
 15 41  1  0
 16 42  1  0
 17 43  1  0
 21 44  1  0
 22 45  1  0
 23 46  1  0
 25 47  1  0
 26 48  1  0
 27 49  1  0
 28 50  1  0
M  END
>  <smiles>  (31) 
C[C@H](NC(=O)CNC(=O)c1ccc2ccccc2n1)c1cccc2ccccc12

>  <score_type>  (31) 
oracle

>  <origin>  (31) 
autodockgpu

>  <m_score__min__energy>  (31) 
-10.210000000000001

>  <m_primary>  (31) 
energy

>  <rmsd>  (31) 
4.577813978195079

>  <m_score__min__rmsd>  (31) 
4.577813978195079

>  <meeko>  (31) 
{"free_energy": -9.46, "intermolecular_energy": -10.95, "internal_energy": -1.76, "cluster_size": 14, "cluster_id": 1, "rank_in_cluster": 12}

>  <energy>  (31) 
-9.57

>  <cluster_rmsd>  (31) 
1.43

>  <cluster>  (31) 
2

$$$$

     RDKit          3D

 50 53  0  0  0  0  0  0  0  0999 V2000
  142.8780   76.6950  219.2950 C   0  0  0  0  0  0  0  0  0  0  0  0
  142.0340   77.1810  220.4650 C   0  0  2  0  0  0  0  0  0  0  0  0
  140.7510   76.4710  220.3490 N   0  0  0  0  0  0  0  0  0  0  0  0
  140.5200   75.3330  221.1420 C   0  0  0  0  0  0  0  0  0  0  0  0
  141.4620   74.9920  221.9310 O   0  0  0  0  0  0  0  0  0  0  0  0
  139.3120   74.5100  221.1540 C   0  0  0  0  0  0  0  0  0  0  0  0
  139.2050   73.5820  222.2560 N   0  0  0  0  0  0  0  0  0  0  0  0
  140.1340   72.5200  222.4430 C   0  0  0  0  0  0  0  0  0  0  0  0
  141.1160   72.3260  221.6610 O   0  0  0  0  0  0  0  0  0  0  0  0
  139.9600   71.6020  223.5930 C   0  0  0  0  0  0  0  0  0  0  0  0
  139.1520   70.4910  223.4710 C   0  0  0  0  0  0  0  0  0  0  0  0
  139.0180   69.6570  224.5770 C   0  0  0  0  0  0  0  0  0  0  0  0
  139.6740   69.9330  225.7720 C   0  0  0  0  0  0  0  0  0  0  0  0
  139.5340   69.0920  226.8750 C   0  0  0  0  0  0  0  0  0  0  0  0
  140.2120   69.4030  228.0570 C   0  0  0  0  0  0  0  0  0  0  0  0
  141.0040   70.5400  228.0980 C   0  0  0  0  0  0  0  0  0  0  0  0
  141.1540   71.3790  227.0200 C   0  0  0  0  0  0  0  0  0  0  0  0
  140.4760   71.0590  225.8510 C   0  0  0  0  0  0  0  0  0  0  0  0
  140.5870   71.8470  224.7670 N   0  0  0  0  0  0  0  0  0  0  0  0
  141.7520   78.6290  220.3620 C   0  0  0  0  0  0  0  0  0  0  0  0
  141.4060   79.2670  219.1920 C   0  0  0  0  0  0  0  0  0  0  0  0
  141.1400   80.6310  219.1290 C   0  0  0  0  0  0  0  0  0  0  0  0
  141.2130   81.4130  220.2610 C   0  0  0  0  0  0  0  0  0  0  0  0
  141.5560   80.7980  221.4380 C   0  0  0  0  0  0  0  0  0  0  0  0
  141.6260   81.6020  222.5650 C   0  0  0  0  0  0  0  0  0  0  0  0
  141.9640   81.0700  223.7830 C   0  0  0  0  0  0  0  0  0  0  0  0
  142.2300   79.7400  223.8700 C   0  0  0  0  0  0  0  0  0  0  0  0
  142.1580   78.9380  222.7380 C   0  0  0  0  0  0  0  0  0  0  0  0
  141.8220   79.4320  221.4960 C   0  0  0  0  0  0  0  0  0  0  0  0
  143.7720   76.1802  219.6767 H   0  0  0  0  0  0  0  0  0  0  0  0
  142.2877   75.9985  218.6814 H   0  0  0  0  0  0  0  0  0  0  0  0
  143.1841   77.5551  218.6814 H   0  0  0  0  0  0  0  0  0  0  0  0
  142.5600   76.9977  221.4136 H   0  0  0  0  0  0  0  0  0  0  0  0
  140.0190   76.8040  219.6950 H   0  0  0  0  0  0  0  0  0  0  0  0
  138.4430   75.1834  221.1919 H   0  0  0  0  0  0  0  0  0  0  0  0
  139.3554   73.8949  220.2431 H   0  0  0  0  0  0  0  0  0  0  0  0
  138.4390   73.6510  222.9650 H   0  0  0  0  0  0  0  0  0  0  0  0
  138.6295   70.2708  222.5284 H   0  0  0  0  0  0  0  0  0  0  0  0
  138.3814   68.7628  224.5048 H   0  0  0  0  0  0  0  0  0  0  0  0
  138.8987   68.1960  226.8159 H   0  0  0  0  0  0  0  0  0  0  0  0
  140.1186   68.7554  228.9413 H   0  0  0  0  0  0  0  0  0  0  0  0
  141.5340   70.7804  229.0315 H   0  0  0  0  0  0  0  0  0  0  0  0
  141.7901   72.2744  227.0810 H   0  0  0  0  0  0  0  0  0  0  0  0
  141.3370   78.6734  218.2685 H   0  0  0  0  0  0  0  0  0  0  0  0
  140.8689   81.0894  218.1665 H   0  0  0  0  0  0  0  0  0  0  0  0
  141.0036   82.4922  220.2222 H   0  0  0  0  0  0  0  0  0  0  0  0
  141.4084   82.6770  222.4816 H   0  0  0  0  0  0  0  0  0  0  0  0
  142.0190   81.7100  224.6760 H   0  0  0  0  0  0  0  0  0  0  0  0
  142.5030   79.2974  224.8393 H   0  0  0  0  0  0  0  0  0  0  0  0
  142.3782   77.8648  222.8370 H   0  0  0  0  0  0  0  0  0  0  0  0
  1  2  1  0
  2  3  1  0
  3  4  1  0
  4  5  2  0
  4  6  1  0
  6  7  1  0
  7  8  1  0
  8  9  2  0
  8 10  1  0
 10 11  2  0
 11 12  1  0
 12 13  2  0
 13 14  1  0
 14 15  2  0
 15 16  1  0
 16 17  2  0
 17 18  1  0
 18 19  2  0
  2 20  1  0
 20 21  2  0
 21 22  1  0
 22 23  2  0
 23 24  1  0
 24 25  2  0
 25 26  1  0
 26 27  2  0
 27 28  1  0
 28 29  2  0
 19 10  1  0
 29 20  1  0
 18 13  1  0
 29 24  1  0
  1 30  1  0
  1 31  1  0
  1 32  1  0
  2 33  1  1
  3 34  1  0
  6 35  1  0
  6 36  1  0
  7 37  1  0
 11 38  1  0
 12 39  1  0
 14 40  1  0
 15 41  1  0
 16 42  1  0
 17 43  1  0
 21 44  1  0
 22 45  1  0
 23 46  1  0
 25 47  1  0
 26 48  1  0
 27 49  1  0
 28 50  1  0
M  END
>  <smiles>  (32) 
C[C@H](NC(=O)CNC(=O)c1ccc2ccccc2n1)c1cccc2ccccc12

>  <score_type>  (32) 
oracle

>  <origin>  (32) 
autodockgpu

>  <m_score__min__energy>  (32) 
-10.210000000000001

>  <m_primary>  (32) 
energy

>  <rmsd>  (32) 
4.1036848155269645

>  <m_score__min__rmsd>  (32) 
4.1036848155269645

>  <meeko>  (32) 
{"free_energy": -9.76, "intermolecular_energy": -11.25, "internal_energy": -1.0, "cluster_size": 26, "cluster_id": 2, "rank_in_cluster": 6}

>  <energy>  (32) 
-9.57

>  <cluster_rmsd>  (32) 
1.34

>  <cluster>  (32) 
2

$$$$

     RDKit          3D

 50 53  0  0  0  0  0  0  0  0999 V2000
  142.2100   77.5990  219.5470 C   0  0  0  0  0  0  0  0  0  0  0  0
  141.5120   77.1970  220.8380 C   0  0  2  0  0  0  0  0  0  0  0  0
  140.6140   76.0900  220.4750 N   0  0  0  0  0  0  0  0  0  0  0  0
  139.8630   75.4560  221.4800 C   0  0  0  0  0  0  0  0  0  0  0  0
  140.0130   75.9010  222.6660 O   0  0  0  0  0  0  0  0  0  0  0  0
  138.9300   74.3450  221.3000 C   0  0  0  0  0  0  0  0  0  0  0  0
  138.9510   73.3420  222.3390 N   0  0  0  0  0  0  0  0  0  0  0  0
  140.1360   72.6280  222.6760 C   0  0  0  0  0  0  0  0  0  0  0  0
  141.2450   72.8310  222.0900 O   0  0  0  0  0  0  0  0  0  0  0  0
  140.0840   71.6090  223.7490 C   0  0  0  0  0  0  0  0  0  0  0  0
  139.5350   70.3690  223.4960 C   0  0  0  0  0  0  0  0  0  0  0  0
  139.5070   69.4430  224.5340 C   0  0  0  0  0  0  0  0  0  0  0  0
  140.0150   69.7540  225.7920 C   0  0  0  0  0  0  0  0  0  0  0  0
  139.9840   68.8200  226.8260 C   0  0  0  0  0  0  0  0  0  0  0  0
  140.5050   69.1710  228.0750 C   0  0  0  0  0  0  0  0  0  0  0  0
  141.0390   70.4390  228.2480 C   0  0  0  0  0  0  0  0  0  0  0  0
  141.0780   71.3700  227.2390 C   0  0  0  0  0  0  0  0  0  0  0  0
  140.5580   71.0100  226.0030 C   0  0  0  0  0  0  0  0  0  0  0  0
  140.5710   71.8850  224.9820 N   0  0  0  0  0  0  0  0  0  0  0  0
  140.6740   78.2960  221.3640 C   0  0  0  0  0  0  0  0  0  0  0  0
  139.3320   78.4410  221.0910 C   0  0  0  0  0  0  0  0  0  0  0  0
  138.5690   79.4840  221.6070 C   0  0  0  0  0  0  0  0  0  0  0  0
  139.1380   80.4310  222.4290 C   0  0  0  0  0  0  0  0  0  0  0  0
  140.4740   80.3050  222.7140 C   0  0  0  0  0  0  0  0  0  0  0  0
  141.0290   81.2690  223.5410 C   0  0  0  0  0  0  0  0  0  0  0  0
  142.3590   81.2210  223.8750 C   0  0  0  0  0  0  0  0  0  0  0  0
  143.1260   80.2130  223.3830 C   0  0  0  0  0  0  0  0  0  0  0  0
  142.5650   79.2500  222.5540 C   0  0  0  0  0  0  0  0  0  0  0  0
  141.2350   79.2600  222.1950 C   0  0  0  0  0  0  0  0  0  0  0  0
  143.1407   78.1350  219.7849 H   0  0  0  0  0  0  0  0  0  0  0  0
  142.4452   76.6980  218.9614 H   0  0  0  0  0  0  0  0  0  0  0  0
  141.5487   78.2546  218.9614 H   0  0  0  0  0  0  0  0  0  0  0  0
  142.2561   76.9331  221.6039 H   0  0  0  0  0  0  0  0  0  0  0  0
  140.5290   75.7800  219.4900 H   0  0  0  0  0  0  0  0  0  0  0  0
  137.9129   74.7610  221.2508 H   0  0  0  0  0  0  0  0  0  0  0  0
  139.2440   73.8326  220.3787 H   0  0  0  0  0  0  0  0  0  0  0  0
  138.0970   73.0980  222.8900 H   0  0  0  0  0  0  0  0  0  0  0  0
  139.1315   70.1199  222.5035 H   0  0  0  0  0  0  0  0  0  0  0  0
  139.0755   68.4468  224.3572 H   0  0  0  0  0  0  0  0  0  0  0  0
  139.5554   67.8203  226.6616 H   0  0  0  0  0  0  0  0  0  0  0  0
  140.4915   68.4523  228.9077 H   0  0  0  0  0  0  0  0  0  0  0  0
  141.4477   70.7100  229.2326 H   0  0  0  0  0  0  0  0  0  0  0  0
  141.5075   72.3690  227.4048 H   0  0  0  0  0  0  0  0  0  0  0  0
  138.8434   77.7023  220.4386 H   0  0  0  0  0  0  0  0  0  0  0  0
  137.5003   79.5527  221.3557 H   0  0  0  0  0  0  0  0  0  0  0  0
  138.5428   81.2586  222.8422 H   0  0  0  0  0  0  0  0  0  0  0  0
  140.3975   82.0799  223.9331 H   0  0  0  0  0  0  0  0  0  0  0  0
  142.7977   81.9871  224.5312 H   0  0  0  0  0  0  0  0  0  0  0  0
  144.1938   80.1595  223.6418 H   0  0  0  0  0  0  0  0  0  0  0  0
  143.2093   78.4462  222.1682 H   0  0  0  0  0  0  0  0  0  0  0  0
  1  2  1  0
  2  3  1  0
  3  4  1  0
  4  5  2  0
  4  6  1  0
  6  7  1  0
  7  8  1  0
  8  9  2  0
  8 10  1  0
 10 11  2  0
 11 12  1  0
 12 13  2  0
 13 14  1  0
 14 15  2  0
 15 16  1  0
 16 17  2  0
 17 18  1  0
 18 19  2  0
  2 20  1  0
 20 21  2  0
 21 22  1  0
 22 23  2  0
 23 24  1  0
 24 25  2  0
 25 26  1  0
 26 27  2  0
 27 28  1  0
 28 29  2  0
 19 10  1  0
 29 20  1  0
 18 13  1  0
 29 24  1  0
  1 30  1  0
  1 31  1  0
  1 32  1  0
  2 33  1  1
  3 34  1  0
  6 35  1  0
  6 36  1  0
  7 37  1  0
 11 38  1  0
 12 39  1  0
 14 40  1  0
 15 41  1  0
 16 42  1  0
 17 43  1  0
 21 44  1  0
 22 45  1  0
 23 46  1  0
 25 47  1  0
 26 48  1  0
 27 49  1  0
 28 50  1  0
M  END
>  <smiles>  (33) 
C[C@H](NC(=O)CNC(=O)c1ccc2ccccc2n1)c1cccc2ccccc12

>  <score_type>  (33) 
oracle

>  <origin>  (33) 
autodockgpu

>  <m_score__min__energy>  (33) 
-10.210000000000001

>  <m_primary>  (33) 
energy

>  <rmsd>  (33) 
4.1636344514140715

>  <m_score__min__rmsd>  (33) 
4.1636344514140715

>  <meeko>  (33) 
{"free_energy": -9.59, "intermolecular_energy": -11.08, "internal_energy": -1.04, "cluster_size": 26, "cluster_id": 2, "rank_in_cluster": 16}

>  <energy>  (33) 
-9.54

>  <cluster_rmsd>  (33) 
0.68

>  <cluster>  (33) 
2

$$$$

     RDKit          3D

 50 53  0  0  0  0  0  0  0  0999 V2000
  142.1240   78.2590  219.1380 C   0  0  0  0  0  0  0  0  0  0  0  0
  141.7800   77.6370  220.4840 C   0  0  2  0  0  0  0  0  0  0  0  0
  141.0250   76.4130  220.1730 N   0  0  0  0  0  0  0  0  0  0  0  0
  140.6800   75.5340  221.2140 C   0  0  0  0  0  0  0  0  0  0  0  0
  141.0500   75.8720  222.3870 O   0  0  0  0  0  0  0  0  0  0  0  0
  139.9400   74.2800  221.0870 C   0  0  0  0  0  0  0  0  0  0  0  0
  139.8680   73.4780  222.2860 N   0  0  0  0  0  0  0  0  0  0  0  0
  140.1910   72.0910  222.2890 C   0  0  0  0  0  0  0  0  0  0  0  0
  140.5680   71.4760  221.2430 O   0  0  0  0  0  0  0  0  0  0  0  0
  140.0890   71.3290  223.5540 C   0  0  0  0  0  0  0  0  0  0  0  0
  139.5150   70.0740  223.5590 C   0  0  0  0  0  0  0  0  0  0  0  0
  139.4400   69.3950  224.7710 C   0  0  0  0  0  0  0  0  0  0  0  0
  139.9260   69.9600  225.9460 C   0  0  0  0  0  0  0  0  0  0  0  0
  139.8470   69.2720  227.1550 C   0  0  0  0  0  0  0  0  0  0  0  0
  140.3480   69.8740  228.3130 C   0  0  0  0  0  0  0  0  0  0  0  0
  140.9100   71.1390  228.2240 C   0  0  0  0  0  0  0  0  0  0  0  0
  140.9960   71.8290  227.0400 C   0  0  0  0  0  0  0  0  0  0  0  0
  140.4950   71.2210  225.8970 C   0  0  0  0  0  0  0  0  0  0  0  0
  140.5540   71.8550  224.7120 N   0  0  0  0  0  0  0  0  0  0  0  0
  140.8930   78.5170  221.2750 C   0  0  0  0  0  0  0  0  0  0  0  0
  139.5180   78.5010  221.1940 C   0  0  0  0  0  0  0  0  0  0  0  0
  138.7110   79.3380  221.9580 C   0  0  0  0  0  0  0  0  0  0  0  0
  139.2680   80.2340  222.8440 C   0  0  0  0  0  0  0  0  0  0  0  0
  140.6360   80.2660  222.9410 C   0  0  0  0  0  0  0  0  0  0  0  0
  141.1770   81.1750  223.8360 C   0  0  0  0  0  0  0  0  0  0  0  0
  142.5360   81.2760  223.9930 C   0  0  0  0  0  0  0  0  0  0  0  0
  143.3460   80.4690  223.2580 C   0  0  0  0  0  0  0  0  0  0  0  0
  142.7990   79.5600  222.3620 C   0  0  0  0  0  0  0  0  0  0  0  0
  141.4410   79.4270  222.1730 C   0  0  0  0  0  0  0  0  0  0  0  0
  142.6507   79.2114  219.2981 H   0  0  0  0  0  0  0  0  0  0  0  0
  142.7709   77.5729  218.5716 H   0  0  0  0  0  0  0  0  0  0  0  0
  141.1990   78.4422  218.5716 H   0  0  0  0  0  0  0  0  0  0  0  0
  142.6975   77.4592  221.0641 H   0  0  0  0  0  0  0  0  0  0  0  0
  140.7450   76.1970  219.1980 H   0  0  0  0  0  0  0  0  0  0  0  0
  138.9122   74.5224  220.7788 H   0  0  0  0  0  0  0  0  0  0  0  0
  140.4918   73.6761  220.3516 H   0  0  0  0  0  0  0  0  0  0  0  0
  139.5750   73.8820  223.2050 H   0  0  0  0  0  0  0  0  0  0  0  0
  139.1284   69.6241  222.6326 H   0  0  0  0  0  0  0  0  0  0  0  0
  138.9880   68.3926  224.8009 H   0  0  0  0  0  0  0  0  0  0  0  0
  139.3968   68.2693  227.1977 H   0  0  0  0  0  0  0  0  0  0  0  0
  140.2973   69.3524  229.2801 H   0  0  0  0  0  0  0  0  0  0  0  0
  141.3024   71.6081  229.1383 H   0  0  0  0  0  0  0  0  0  0  0  0
  141.4474   72.8313  226.9985 H   0  0  0  0  0  0  0  0  0  0  0  0
  139.0386   77.7979  220.4970 H   0  0  0  0  0  0  0  0  0  0  0  0
  137.6173   79.2839  221.8536 H   0  0  0  0  0  0  0  0  0  0  0  0
  138.6382   80.9001  223.4520 H   0  0  0  0  0  0  0  0  0  0  0  0
  140.5107   81.8215  224.4260 H   0  0  0  0  0  0  0  0  0  0  0  0
  142.9638   81.9991  224.7030 H   0  0  0  0  0  0  0  0  0  0  0  0
  144.4379   80.5362  223.3733 H   0  0  0  0  0  0  0  0  0  0  0  0
  143.4779   78.9200  221.7793 H   0  0  0  0  0  0  0  0  0  0  0  0
  1  2  1  0
  2  3  1  0
  3  4  1  0
  4  5  2  0
  4  6  1  0
  6  7  1  0
  7  8  1  0
  8  9  2  0
  8 10  1  0
 10 11  2  0
 11 12  1  0
 12 13  2  0
 13 14  1  0
 14 15  2  0
 15 16  1  0
 16 17  2  0
 17 18  1  0
 18 19  2  0
  2 20  1  0
 20 21  2  0
 21 22  1  0
 22 23  2  0
 23 24  1  0
 24 25  2  0
 25 26  1  0
 26 27  2  0
 27 28  1  0
 28 29  2  0
 19 10  1  0
 29 20  1  0
 18 13  1  0
 29 24  1  0
  1 30  1  0
  1 31  1  0
  1 32  1  0
  2 33  1  1
  3 34  1  0
  6 35  1  0
  6 36  1  0
  7 37  1  0
 11 38  1  0
 12 39  1  0
 14 40  1  0
 15 41  1  0
 16 42  1  0
 17 43  1  0
 21 44  1  0
 22 45  1  0
 23 46  1  0
 25 47  1  0
 26 48  1  0
 27 49  1  0
 28 50  1  0
M  END
>  <smiles>  (34) 
C[C@H](NC(=O)CNC(=O)c1ccc2ccccc2n1)c1cccc2ccccc12

>  <score_type>  (34) 
oracle

>  <origin>  (34) 
autodockgpu

>  <m_score__min__energy>  (34) 
-10.210000000000001

>  <m_primary>  (34) 
energy

>  <rmsd>  (34) 
4.188193442950298

>  <m_score__min__rmsd>  (34) 
4.188193442950298

>  <meeko>  (34) 
{"free_energy": -9.7, "intermolecular_energy": -11.19, "internal_energy": -1.36, "cluster_size": 26, "cluster_id": 2, "rank_in_cluster": 7}

>  <energy>  (34) 
-9.53

>  <cluster_rmsd>  (34) 
0.68

>  <cluster>  (34) 
2

$$$$

     RDKit          3D

 50 53  0  0  0  0  0  0  0  0999 V2000
  140.6290   71.7880  223.2800 C   0  0  0  0  0  0  0  0  0  0  0  0
  140.0600   70.7430  224.2300 C   0  0  2  0  0  0  0  0  0  0  0  0
  138.6000   70.9180  224.1820 N   0  0  0  0  0  0  0  0  0  0  0  0
  137.7760   69.7870  224.0480 C   0  0  0  0  0  0  0  0  0  0  0  0
  138.3680   68.6590  223.9800 O   0  0  0  0  0  0  0  0  0  0  0  0
  136.3160   69.7760  223.9800 C   0  0  0  0  0  0  0  0  0  0  0  0
  135.6570   70.8930  224.6160 N   0  0  0  0  0  0  0  0  0  0  0  0
  135.7870   72.2240  224.1290 C   0  0  0  0  0  0  0  0  0  0  0  0
  136.4830   72.5120  223.1050 O   0  0  0  0  0  0  0  0  0  0  0  0
  135.0880   73.3230  224.8340 C   0  0  0  0  0  0  0  0  0  0  0  0
  135.4460   74.6340  224.5950 C   0  0  0  0  0  0  0  0  0  0  0  0
  134.7620   75.6330  225.2810 C   0  0  0  0  0  0  0  0  0  0  0  0
  133.7470   75.3240  226.1820 C   0  0  0  0  0  0  0  0  0  0  0  0
  133.0670   76.3310  226.8640 C   0  0  0  0  0  0  0  0  0  0  0  0
  132.0540   75.9800  227.7610 C   0  0  0  0  0  0  0  0  0  0  0  0
  131.7540   74.6390  227.9450 C   0  0  0  0  0  0  0  0  0  0  0  0
  132.4150   73.6340  227.2800 C   0  0  0  0  0  0  0  0  0  0  0  0
  133.4190   73.9950  226.3920 C   0  0  0  0  0  0  0  0  0  0  0  0
  134.0970   73.0510  225.7160 N   0  0  0  0  0  0  0  0  0  0  0  0
  140.4920   70.9870  225.6230 C   0  0  0  0  0  0  0  0  0  0  0  0
  140.7480   72.2360  226.1440 C   0  0  0  0  0  0  0  0  0  0  0  0
  141.1470   72.4340  227.4620 C   0  0  0  0  0  0  0  0  0  0  0  0
  141.3040   71.3640  228.3160 C   0  0  0  0  0  0  0  0  0  0  0  0
  141.0540   70.1100  227.8170 C   0  0  0  0  0  0  0  0  0  0  0  0
  141.2200   69.0470  228.6910 C   0  0  0  0  0  0  0  0  0  0  0  0
  140.9930   67.7600  228.2750 C   0  0  0  0  0  0  0  0  0  0  0  0
  140.6030   67.5410  226.9920 C   0  0  0  0  0  0  0  0  0  0  0  0
  140.4390   68.6100  226.1200 C   0  0  0  0  0  0  0  0  0  0  0  0
  140.6550   69.9170  226.4960 C   0  0  0  0  0  0  0  0  0  0  0  0
  141.0755   72.6079  223.8617 H   0  0  0  0  0  0  0  0  0  0  0  0
  141.4001   71.3260  222.6460 H   0  0  0  0  0  0  0  0  0  0  0  0
  139.8225   72.1850  222.6460 H   0  0  0  0  0  0  0  0  0  0  0  0
  140.3979   69.7388  223.9345 H   0  0  0  0  0  0  0  0  0  0  0  0
  138.1780   71.8620  224.2510 H   0  0  0  0  0  0  0  0  0  0  0  0
  136.0259   69.7703  222.9190 H   0  0  0  0  0  0  0  0  0  0  0  0
  135.9940   68.8804  224.5316 H   0  0  0  0  0  0  0  0  0  0  0  0
  135.0550   70.7720  225.4620 H   0  0  0  0  0  0  0  0  0  0  0  0
  136.2477   74.8819  223.8838 H   0  0  0  0  0  0  0  0  0  0  0  0
  135.0283   76.6862  225.1081 H   0  0  0  0  0  0  0  0  0  0  0  0
  133.3238   77.3878  226.6988 H   0  0  0  0  0  0  0  0  0  0  0  0
  131.5032   76.7561  228.3126 H   0  0  0  0  0  0  0  0  0  0  0  0
  130.9552   74.3686  228.6513 H   0  0  0  0  0  0  0  0  0  0  0  0
  132.1567   72.5777  227.4461 H   0  0  0  0  0  0  0  0  0  0  0  0
  140.6322   73.1135  225.4908 H   0  0  0  0  0  0  0  0  0  0  0  0
  141.3389   73.4542  227.8258 H   0  0  0  0  0  0  0  0  0  0  0  0
  141.6184   71.5096  229.3600 H   0  0  0  0  0  0  0  0  0  0  0  0
  141.5365   69.2373  229.7271 H   0  0  0  0  0  0  0  0  0  0  0  0
  141.1247   66.9175  228.9698 H   0  0  0  0  0  0  0  0  0  0  0  0
  140.4166   66.5147  226.6429 H   0  0  0  0  0  0  0  0  0  0  0  0
  140.1236   68.4039  225.0865 H   0  0  0  0  0  0  0  0  0  0  0  0
  1  2  1  0
  2  3  1  0
  3  4  1  0
  4  5  2  0
  4  6  1  0
  6  7  1  0
  7  8  1  0
  8  9  2  0
  8 10  1  0
 10 11  2  0
 11 12  1  0
 12 13  2  0
 13 14  1  0
 14 15  2  0
 15 16  1  0
 16 17  2  0
 17 18  1  0
 18 19  2  0
  2 20  1  0
 20 21  2  0
 21 22  1  0
 22 23  2  0
 23 24  1  0
 24 25  2  0
 25 26  1  0
 26 27  2  0
 27 28  1  0
 28 29  2  0
 19 10  1  0
 29 20  1  0
 18 13  1  0
 29 24  1  0
  1 30  1  0
  1 31  1  0
  1 32  1  0
  2 33  1  6
  3 34  1  0
  6 35  1  0
  6 36  1  0
  7 37  1  0
 11 38  1  0
 12 39  1  0
 14 40  1  0
 15 41  1  0
 16 42  1  0
 17 43  1  0
 21 44  1  0
 22 45  1  0
 23 46  1  0
 25 47  1  0
 26 48  1  0
 27 49  1  0
 28 50  1  0
M  END
>  <smiles>  (35) 
C[C@H](NC(=O)CNC(=O)c1ccc2ccccc2n1)c1cccc2ccccc12

>  <score_type>  (35) 
oracle

>  <origin>  (35) 
autodockgpu

>  <m_score__min__energy>  (35) 
-10.210000000000001

>  <m_primary>  (35) 
energy

>  <rmsd>  (35) 
9.71418629455942

>  <m_score__min__rmsd>  (35) 
9.71418629455942

>  <meeko>  (35) 
{"free_energy": -9.05, "intermolecular_energy": -10.54, "internal_energy": -2.25, "cluster_size": 8, "cluster_id": 3, "rank_in_cluster": 5}

>  <energy>  (35) 
-9.52

>  <cluster_rmsd>  (35) 
0.93

>  <cluster>  (35) 
2

$$$$

     RDKit          3D

 50 53  0  0  0  0  0  0  0  0999 V2000
  140.4840   71.7860  223.3070 C   0  0  0  0  0  0  0  0  0  0  0  0
  139.9520   70.7400  224.2760 C   0  0  2  0  0  0  0  0  0  0  0  0
  138.4900   70.9060  224.2750 N   0  0  0  0  0  0  0  0  0  0  0  0
  137.6680   69.7660  224.2520 C   0  0  0  0  0  0  0  0  0  0  0  0
  138.2630   68.6380  224.2390 O   0  0  0  0  0  0  0  0  0  0  0  0
  136.2060   69.7450  224.2430 C   0  0  0  0  0  0  0  0  0  0  0  0
  135.5660   70.9090  224.8120 N   0  0  0  0  0  0  0  0  0  0  0  0
  135.7170   72.2070  224.2460 C   0  0  0  0  0  0  0  0  0  0  0  0
  136.4170   72.4220  223.2070 O   0  0  0  0  0  0  0  0  0  0  0  0
  135.0370   73.3570  224.8850 C   0  0  0  0  0  0  0  0  0  0  0  0
  135.4030   74.6450  224.5550 C   0  0  0  0  0  0  0  0  0  0  0  0
  134.7370   75.6940  225.1810 C   0  0  0  0  0  0  0  0  0  0  0  0
  133.7320   75.4560  226.1130 C   0  0  0  0  0  0  0  0  0  0  0  0
  133.0690   76.5120  226.7350 C   0  0  0  0  0  0  0  0  0  0  0  0
  132.0640   76.2310  227.6650 C   0  0  0  0  0  0  0  0  0  0  0  0
  131.7560   74.9080  227.9420 C   0  0  0  0  0  0  0  0  0  0  0  0
  132.3990   73.8560  227.3380 C   0  0  0  0  0  0  0  0  0  0  0  0
  133.3940   74.1470  226.4160 C   0  0  0  0  0  0  0  0  0  0  0  0
  134.0560   73.1530  225.7960 N   0  0  0  0  0  0  0  0  0  0  0  0
  140.4260   70.9890  225.6540 C   0  0  0  0  0  0  0  0  0  0  0  0
  140.6890   72.2400  226.1660 C   0  0  0  0  0  0  0  0  0  0  0  0
  141.1280   72.4420  227.4710 C   0  0  0  0  0  0  0  0  0  0  0  0
  141.3210   71.3740  228.3190 C   0  0  0  0  0  0  0  0  0  0  0  0
  141.0650   70.1180  227.8300 C   0  0  0  0  0  0  0  0  0  0  0  0
  141.2670   69.0570  228.6990 C   0  0  0  0  0  0  0  0  0  0  0  0
  141.0380   67.7680  228.2910 C   0  0  0  0  0  0  0  0  0  0  0  0
  140.6090   67.5440  227.0210 C   0  0  0  0  0  0  0  0  0  0  0  0
  140.4090   68.6110  226.1540 C   0  0  0  0  0  0  0  0  0  0  0  0
  140.6260   69.9210  226.5230 C   0  0  0  0  0  0  0  0  0  0  0  0
  140.9115   72.6266  223.8733 H   0  0  0  0  0  0  0  0  0  0  0  0
  141.2630   71.3366  222.6737 H   0  0  0  0  0  0  0  0  0  0  0  0
  139.6619   72.1509  222.6737 H   0  0  0  0  0  0  0  0  0  0  0  0
  140.2867   69.7375  223.9710 H   0  0  0  0  0  0  0  0  0  0  0  0
  138.0650   71.8510  224.2940 H   0  0  0  0  0  0  0  0  0  0  0  0
  135.8743   69.6520  223.1983 H   0  0  0  0  0  0  0  0  0  0  0  0
  135.9111   68.8963  224.8776 H   0  0  0  0  0  0  0  0  0  0  0  0
  134.9630   70.8480  225.6640 H   0  0  0  0  0  0  0  0  0  0  0  0
  136.1976   74.8372  223.8190 H   0  0  0  0  0  0  0  0  0  0  0  0
  135.0102   76.7306  224.9344 H   0  0  0  0  0  0  0  0  0  0  0  0
  133.3330   77.5531  226.4973 H   0  0  0  0  0  0  0  0  0  0  0  0
  131.5258   77.0471  228.1693 H   0  0  0  0  0  0  0  0  0  0  0  0
  130.9647   74.6925  228.6751 H   0  0  0  0  0  0  0  0  0  0  0  0
  132.1338   72.8157  227.5774 H   0  0  0  0  0  0  0  0  0  0  0  0
  140.5461   73.1161  225.5164 H   0  0  0  0  0  0  0  0  0  0  0  0
  141.3227   73.4639  227.8285 H   0  0  0  0  0  0  0  0  0  0  0  0
  141.6682   71.5229  229.3521 H   0  0  0  0  0  0  0  0  0  0  0  0
  141.6140   69.2508  229.7247 H   0  0  0  0  0  0  0  0  0  0  0  0
  141.1992   66.9273  228.9818 H   0  0  0  0  0  0  0  0  0  0  0  0
  140.4197   66.5158  226.6789 H   0  0  0  0  0  0  0  0  0  0  0  0
  140.0632   68.4016  225.1310 H   0  0  0  0  0  0  0  0  0  0  0  0
  1  2  1  0
  2  3  1  0
  3  4  1  0
  4  5  2  0
  4  6  1  0
  6  7  1  0
  7  8  1  0
  8  9  2  0
  8 10  1  0
 10 11  2  0
 11 12  1  0
 12 13  2  0
 13 14  1  0
 14 15  2  0
 15 16  1  0
 16 17  2  0
 17 18  1  0
 18 19  2  0
  2 20  1  0
 20 21  2  0
 21 22  1  0
 22 23  2  0
 23 24  1  0
 24 25  2  0
 25 26  1  0
 26 27  2  0
 27 28  1  0
 28 29  2  0
 19 10  1  0
 29 20  1  0
 18 13  1  0
 29 24  1  0
  1 30  1  0
  1 31  1  0
  1 32  1  0
  2 33  1  6
  3 34  1  0
  6 35  1  0
  6 36  1  0
  7 37  1  0
 11 38  1  0
 12 39  1  0
 14 40  1  0
 15 41  1  0
 16 42  1  0
 17 43  1  0
 21 44  1  0
 22 45  1  0
 23 46  1  0
 25 47  1  0
 26 48  1  0
 27 49  1  0
 28 50  1  0
M  END
>  <smiles>  (36) 
C[C@H](NC(=O)CNC(=O)c1ccc2ccccc2n1)c1cccc2ccccc12

>  <score_type>  (36) 
oracle

>  <origin>  (36) 
autodockgpu

>  <m_score__min__energy>  (36) 
-10.210000000000001

>  <m_primary>  (36) 
energy

>  <rmsd>  (36) 
9.783844044909925

>  <m_score__min__rmsd>  (36) 
9.783844044909925

>  <meeko>  (36) 
{"free_energy": -9.08, "intermolecular_energy": -10.58, "internal_energy": -2.23, "cluster_size": 8, "cluster_id": 3, "rank_in_cluster": 3}

>  <energy>  (36) 
-9.52

>  <cluster_rmsd>  (36) 
1.03

>  <cluster>  (36) 
2

$$$$

     RDKit          3D

 50 53  0  0  0  0  0  0  0  0999 V2000
  141.9900   78.2530  219.1060 C   0  0  0  0  0  0  0  0  0  0  0  0
  141.6570   77.6550  220.4660 C   0  0  2  0  0  0  0  0  0  0  0  0
  140.8710   76.4440  220.1830 N   0  0  0  0  0  0  0  0  0  0  0  0
  140.5700   75.5580  221.2330 C   0  0  0  0  0  0  0  0  0  0  0  0
  141.0070   75.8790  222.3880 O   0  0  0  0  0  0  0  0  0  0  0  0
  139.8090   74.3150  221.1320 C   0  0  0  0  0  0  0  0  0  0  0  0
  139.7980   73.4960  222.3230 N   0  0  0  0  0  0  0  0  0  0  0  0
  140.0930   72.1040  222.2850 C   0  0  0  0  0  0  0  0  0  0  0  0
  140.3890   71.4970  221.2080 O   0  0  0  0  0  0  0  0  0  0  0  0
  140.0580   71.3240  223.5440 C   0  0  0  0  0  0  0  0  0  0  0  0
  139.5450   70.0440  223.5470 C   0  0  0  0  0  0  0  0  0  0  0  0
  139.5310   69.3490  224.7530 C   0  0  0  0  0  0  0  0  0  0  0  0
  140.0180   69.9240  225.9220 C   0  0  0  0  0  0  0  0  0  0  0  0
  140.0010   69.2220  227.1260 C   0  0  0  0  0  0  0  0  0  0  0  0
  140.5000   69.8350  228.2780 C   0  0  0  0  0  0  0  0  0  0  0  0
  140.9980   71.1260  228.1910 C   0  0  0  0  0  0  0  0  0  0  0  0
  141.0230   71.8320  227.0130 C   0  0  0  0  0  0  0  0  0  0  0  0
  140.5250   71.2130  225.8750 C   0  0  0  0  0  0  0  0  0  0  0  0
  140.5250   71.8600  224.6960 N   0  0  0  0  0  0  0  0  0  0  0  0
  140.8040   78.5630  221.2610 C   0  0  0  0  0  0  0  0  0  0  0  0
  139.4290   78.6010  221.1780 C   0  0  0  0  0  0  0  0  0  0  0  0
  138.6530   79.4630  221.9460 C   0  0  0  0  0  0  0  0  0  0  0  0
  139.2430   80.3320  222.8390 C   0  0  0  0  0  0  0  0  0  0  0  0
  140.6110   80.3100  222.9380 C   0  0  0  0  0  0  0  0  0  0  0  0
  141.1850   81.1920  223.8400 C   0  0  0  0  0  0  0  0  0  0  0  0
  142.5460   81.2390  224.0000 C   0  0  0  0  0  0  0  0  0  0  0  0
  143.3260   80.4070  223.2610 C   0  0  0  0  0  0  0  0  0  0  0  0
  142.7460   79.5250  222.3580 C   0  0  0  0  0  0  0  0  0  0  0  0
  141.3840   79.4450  222.1660 C   0  0  0  0  0  0  0  0  0  0  0  0
  142.5209   79.2064  219.2447 H   0  0  0  0  0  0  0  0  0  0  0  0
  142.6295   77.5554  218.5454 H   0  0  0  0  0  0  0  0  0  0  0  0
  141.0602   78.4293  218.5454 H   0  0  0  0  0  0  0  0  0  0  0  0
  142.5805   77.4646  221.0325 H   0  0  0  0  0  0  0  0  0  0  0  0
  140.5370   76.2430  219.2230 H   0  0  0  0  0  0  0  0  0  0  0  0
  138.7679   74.5734  220.8882 H   0  0  0  0  0  0  0  0  0  0  0  0
  140.3090   73.7158  220.3568 H   0  0  0  0  0  0  0  0  0  0  0  0
  139.5740   73.8920  223.2640 H   0  0  0  0  0  0  0  0  0  0  0  0
  139.1586   69.5861  222.6245 H   0  0  0  0  0  0  0  0  0  0  0  0
  139.1273   68.3262  224.7820 H   0  0  0  0  0  0  0  0  0  0  0  0
  139.5999   68.1986  227.1686 H   0  0  0  0  0  0  0  0  0  0  0  0
  140.4978   69.3013  229.2398 H   0  0  0  0  0  0  0  0  0  0  0  0
  141.3886   71.6039  229.1015 H   0  0  0  0  0  0  0  0  0  0  0  0
  141.4248   72.8552  226.9729 H   0  0  0  0  0  0  0  0  0  0  0  0
  138.9242   77.9216  220.4754 H   0  0  0  0  0  0  0  0  0  0  0  0
  137.5582   79.4512  221.8398 H   0  0  0  0  0  0  0  0  0  0  0  0
  138.6385   81.0183  223.4502 H   0  0  0  0  0  0  0  0  0  0  0  0
  140.5430   81.8602  224.4328 H   0  0  0  0  0  0  0  0  0  0  0  0
  142.9998   81.9399  224.7161 H   0  0  0  0  0  0  0  0  0  0  0  0
  144.4195   80.4320  223.3782 H   0  0  0  0  0  0  0  0  0  0  0  0
  143.4010   78.8633  221.7722 H   0  0  0  0  0  0  0  0  0  0  0  0
  1  2  1  0
  2  3  1  0
  3  4  1  0
  4  5  2  0
  4  6  1  0
  6  7  1  0
  7  8  1  0
  8  9  2  0
  8 10  1  0
 10 11  2  0
 11 12  1  0
 12 13  2  0
 13 14  1  0
 14 15  2  0
 15 16  1  0
 16 17  2  0
 17 18  1  0
 18 19  2  0
  2 20  1  0
 20 21  2  0
 21 22  1  0
 22 23  2  0
 23 24  1  0
 24 25  2  0
 25 26  1  0
 26 27  2  0
 27 28  1  0
 28 29  2  0
 19 10  1  0
 29 20  1  0
 18 13  1  0
 29 24  1  0
  1 30  1  0
  1 31  1  0
  1 32  1  0
  2 33  1  1
  3 34  1  0
  6 35  1  0
  6 36  1  0
  7 37  1  0
 11 38  1  0
 12 39  1  0
 14 40  1  0
 15 41  1  0
 16 42  1  0
 17 43  1  0
 21 44  1  0
 22 45  1  0
 23 46  1  0
 25 47  1  0
 26 48  1  0
 27 49  1  0
 28 50  1  0
M  END
>  <smiles>  (37) 
C[C@H](NC(=O)CNC(=O)c1ccc2ccccc2n1)c1cccc2ccccc12

>  <score_type>  (37) 
oracle

>  <origin>  (37) 
autodockgpu

>  <m_score__min__energy>  (37) 
-10.210000000000001

>  <m_primary>  (37) 
energy

>  <rmsd>  (37) 
4.185281386588837

>  <m_score__min__rmsd>  (37) 
4.185281386588837

>  <meeko>  (37) 
{"free_energy": -9.66, "intermolecular_energy": -11.15, "internal_energy": -1.42, "cluster_size": 26, "cluster_id": 2, "rank_in_cluster": 10}

>  <energy>  (37) 
-9.52

>  <cluster_rmsd>  (37) 
0.93

>  <cluster>  (37) 
2

$$$$

     RDKit          3D

 50 53  0  0  0  0  0  0  0  0999 V2000
  138.1610   70.1390  222.9580 C   0  0  0  0  0  0  0  0  0  0  0  0
  139.0950   70.8360  223.9370 C   0  0  2  0  0  0  0  0  0  0  0  0
  140.3070   71.1560  223.1670 N   0  0  0  0  0  0  0  0  0  0  0  0
  140.1860   71.8340  221.9420 C   0  0  0  0  0  0  0  0  0  0  0  0
  139.0010   72.1380  221.5770 O   0  0  0  0  0  0  0  0  0  0  0  0
  141.2760   72.2260  221.0500 C   0  0  0  0  0  0  0  0  0  0  0  0
  141.5760   73.6390  221.0210 N   0  0  0  0  0  0  0  0  0  0  0  0
  140.7600   74.5990  221.6840 C   0  0  0  0  0  0  0  0  0  0  0  0
  139.7240   74.2750  222.3450 O   0  0  0  0  0  0  0  0  0  0  0  0
  141.1250   76.0320  221.6070 C   0  0  0  0  0  0  0  0  0  0  0  0
  141.5160   76.5810  220.4040 C   0  0  0  0  0  0  0  0  0  0  0  0
  141.8490   77.9310  220.3790 C   0  0  0  0  0  0  0  0  0  0  0  0
  141.7930   78.7090  221.5310 C   0  0  0  0  0  0  0  0  0  0  0  0
  142.1280   80.0620  221.4980 C   0  0  0  0  0  0  0  0  0  0  0  0
  142.0580   80.8090  222.6770 C   0  0  0  0  0  0  0  0  0  0  0  0
  141.6560   80.1820  223.8470 C   0  0  0  0  0  0  0  0  0  0  0  0
  141.3210   78.8510  223.8970 C   0  0  0  0  0  0  0  0  0  0  0  0
  141.3950   78.1190  222.7190 C   0  0  0  0  0  0  0  0  0  0  0  0
  141.0790   76.8120  222.7140 N   0  0  0  0  0  0  0  0  0  0  0  0
  139.4930   69.9350  225.0390 C   0  0  0  0  0  0  0  0  0  0  0  0
  139.2690   68.5760  225.0440 C   0  0  0  0  0  0  0  0  0  0  0  0
  139.6620   67.7540  226.0950 C   0  0  0  0  0  0  0  0  0  0  0  0
  140.3040   68.2780  227.1950 C   0  0  0  0  0  0  0  0  0  0  0  0
  140.5380   69.6300  227.2110 C   0  0  0  0  0  0  0  0  0  0  0  0
  141.1830   70.1390  228.3270 C   0  0  0  0  0  0  0  0  0  0  0  0
  141.4530   71.4800  228.4260 C   0  0  0  0  0  0  0  0  0  0  0  0
  141.0790   72.3050  227.4130 C   0  0  0  0  0  0  0  0  0  0  0  0
  140.4320   71.7900  226.2970 C   0  0  0  0  0  0  0  0  0  0  0  0
  140.1420   70.4510  226.1570 C   0  0  0  0  0  0  0  0  0  0  0  0
  137.4014   69.5721  223.5162 H   0  0  0  0  0  0  0  0  0  0  0  0
  137.6661   70.8904  222.3251 H   0  0  0  0  0  0  0  0  0  0  0  0
  138.7405   69.4508  222.3251 H   0  0  0  0  0  0  0  0  0  0  0  0
  138.5988   71.7157  224.3727 H   0  0  0  0  0  0  0  0  0  0  0  0
  141.2440   70.8890  223.5210 H   0  0  0  0  0  0  0  0  0  0  0  0
  142.1838   71.6929  221.3690 H   0  0  0  0  0  0  0  0  0  0  0  0
  140.9442   71.9659  220.0340 H   0  0  0  0  0  0  0  0  0  0  0  0
  142.4070   74.0170  220.5120 H   0  0  0  0  0  0  0  0  0  0  0  0
  141.5631   75.9692  219.4911 H   0  0  0  0  0  0  0  0  0  0  0  0
  142.1625   78.3922  219.4308 H   0  0  0  0  0  0  0  0  0  0  0  0
  142.4433   80.5352  220.5564 H   0  0  0  0  0  0  0  0  0  0  0  0
  142.3177   81.8779  222.6771 H   0  0  0  0  0  0  0  0  0  0  0  0
  141.6034   80.7746  224.7722 H   0  0  0  0  0  0  0  0  0  0  0  0
  141.0044   78.3801  224.8393 H   0  0  0  0  0  0  0  0  0  0  0  0
  138.7585   68.1222  224.1817 H   0  0  0  0  0  0  0  0  0  0  0  0
  139.4579   66.6742  226.0471 H   0  0  0  0  0  0  0  0  0  0  0  0
  140.6180   67.6356  228.0309 H   0  0  0  0  0  0  0  0  0  0  0  0
  141.4811   69.4614  229.1407 H   0  0  0  0  0  0  0  0  0  0  0  0
  141.9650   71.8820  229.3127 H   0  0  0  0  0  0  0  0  0  0  0  0
  141.2891   73.3829  227.4769 H   0  0  0  0  0  0  0  0  0  0  0  0
  140.1392   72.4800  225.4919 H   0  0  0  0  0  0  0  0  0  0  0  0
  1  2  1  0
  2  3  1  0
  3  4  1  0
  4  5  2  0
  4  6  1  0
  6  7  1  0
  7  8  1  0
  8  9  2  0
  8 10  1  0
 10 11  2  0
 11 12  1  0
 12 13  2  0
 13 14  1  0
 14 15  2  0
 15 16  1  0
 16 17  2  0
 17 18  1  0
 18 19  2  0
  2 20  1  0
 20 21  2  0
 21 22  1  0
 22 23  2  0
 23 24  1  0
 24 25  2  0
 25 26  1  0
 26 27  2  0
 27 28  1  0
 28 29  2  0
 19 10  1  0
 29 20  1  0
 18 13  1  0
 29 24  1  0
  1 30  1  0
  1 31  1  0
  1 32  1  0
  2 33  1  1
  3 34  1  0
  6 35  1  0
  6 36  1  0
  7 37  1  0
 11 38  1  0
 12 39  1  0
 14 40  1  0
 15 41  1  0
 16 42  1  0
 17 43  1  0
 21 44  1  0
 22 45  1  0
 23 46  1  0
 25 47  1  0
 26 48  1  0
 27 49  1  0
 28 50  1  0
M  END
>  <smiles>  (38) 
C[C@H](NC(=O)CNC(=O)c1ccc2ccccc2n1)c1cccc2ccccc12

>  <score_type>  (38) 
oracle

>  <origin>  (38) 
autodockgpu

>  <m_score__min__energy>  (38) 
-10.210000000000001

>  <m_primary>  (38) 
energy

>  <rmsd>  (38) 
10.131144244617365

>  <m_score__min__rmsd>  (38) 
10.131144244617365

>  <meeko>  (38) 
{"free_energy": -10.21, "intermolecular_energy": -11.71, "internal_energy": -0.23, "cluster_size": 14, "cluster_id": 1, "rank_in_cluster": 1}

>  <energy>  (38) 
-9.4

>  <cluster_rmsd>  (38) 
0.76

>  <cluster>  (38) 
2

$$$$

     RDKit          3D

 50 53  0  0  0  0  0  0  0  0999 V2000
  141.8590   77.7190  219.2230 C   0  0  0  0  0  0  0  0  0  0  0  0
  141.5200   77.1660  220.6000 C   0  0  2  0  0  0  0  0  0  0  0  0
  140.7760   75.9210  220.3540 N   0  0  0  0  0  0  0  0  0  0  0  0
  140.2950   75.1790  221.4470 C   0  0  0  0  0  0  0  0  0  0  0  0
  140.5400   75.6540  222.6060 O   0  0  0  0  0  0  0  0  0  0  0  0
  139.5450   73.9260  221.3880 C   0  0  0  0  0  0  0  0  0  0  0  0
  139.6720   73.0710  222.5450 N   0  0  0  0  0  0  0  0  0  0  0  0
  139.4790   71.6630  222.4690 C   0  0  0  0  0  0  0  0  0  0  0  0
  139.1900   71.0710  221.3820 O   0  0  0  0  0  0  0  0  0  0  0  0
  139.6200   70.8470  223.6970 C   0  0  0  0  0  0  0  0  0  0  0  0
  139.2060   69.5320  223.7020 C   0  0  0  0  0  0  0  0  0  0  0  0
  139.3570   68.8040  224.8790 C   0  0  0  0  0  0  0  0  0  0  0  0
  139.9080   69.3820  226.0190 C   0  0  0  0  0  0  0  0  0  0  0  0
  140.0560   68.6460  227.1930 C   0  0  0  0  0  0  0  0  0  0  0  0
  140.6140   69.2630  228.3160 C   0  0  0  0  0  0  0  0  0  0  0  0
  141.0050   70.5910  228.2290 C   0  0  0  0  0  0  0  0  0  0  0  0
  140.8660   71.3300  227.0790 C   0  0  0  0  0  0  0  0  0  0  0  0
  140.3110   70.7060  225.9700 C   0  0  0  0  0  0  0  0  0  0  0  0
  140.1520   71.3850  224.8200 N   0  0  0  0  0  0  0  0  0  0  0  0
  140.6260   78.0790  221.3430 C   0  0  0  0  0  0  0  0  0  0  0  0
  139.2510   78.0460  221.2650 C   0  0  0  0  0  0  0  0  0  0  0  0
  138.4360   78.9150  221.9830 C   0  0  0  0  0  0  0  0  0  0  0  0
  138.9850   79.8640  222.8180 C   0  0  0  0  0  0  0  0  0  0  0  0
  140.3530   79.9140  222.9110 C   0  0  0  0  0  0  0  0  0  0  0  0
  140.8860   80.8760  223.7550 C   0  0  0  0  0  0  0  0  0  0  0  0
  142.2440   80.9980  223.9050 C   0  0  0  0  0  0  0  0  0  0  0  0
  143.0610   80.1610  223.2140 C   0  0  0  0  0  0  0  0  0  0  0  0
  142.5220   79.1990  222.3690 C   0  0  0  0  0  0  0  0  0  0  0  0
  141.1650   79.0420  222.1900 C   0  0  0  0  0  0  0  0  0  0  0  0
  142.4310   78.6521  219.3332 H   0  0  0  0  0  0  0  0  0  0  0  0
  142.4612   76.9829  218.6703 H   0  0  0  0  0  0  0  0  0  0  0  0
  140.9298   77.9217  218.6703 H   0  0  0  0  0  0  0  0  0  0  0  0
  142.4386   77.0267  221.1889 H   0  0  0  0  0  0  0  0  0  0  0  0
  140.6010   75.5920  219.3870 H   0  0  0  0  0  0  0  0  0  0  0  0
  138.4804   74.1736  221.2647 H   0  0  0  0  0  0  0  0  0  0  0  0
  139.9686   73.3595  220.5456 H   0  0  0  0  0  0  0  0  0  0  0  0
  139.9130   73.4500  223.4890 H   0  0  0  0  0  0  0  0  0  0  0  0
  138.7696   69.0719  222.8032 H   0  0  0  0  0  0  0  0  0  0  0  0
  139.0349   67.7526  224.9086 H   0  0  0  0  0  0  0  0  0  0  0  0
  139.7380   67.5938  227.2352 H   0  0  0  0  0  0  0  0  0  0  0  0
  140.7412   68.7039  229.2547 H   0  0  0  0  0  0  0  0  0  0  0  0
  141.4438   71.0716  229.1159 H   0  0  0  0  0  0  0  0  0  0  0  0
  141.1842   72.3822  227.0384 H   0  0  0  0  0  0  0  0  0  0  0  0
  138.7780   77.3016  220.6077 H   0  0  0  0  0  0  0  0  0  0  0  0
  137.3428   78.8440  221.8834 H   0  0  0  0  0  0  0  0  0  0  0  0
  138.3494   80.5565  223.3893 H   0  0  0  0  0  0  0  0  0  0  0  0
  140.2139   81.5475  224.3094 H   0  0  0  0  0  0  0  0  0  0  0  0
  142.6652   81.7622  224.5748 H   0  0  0  0  0  0  0  0  0  0  0  0
  144.1523   80.2452  223.3239 H   0  0  0  0  0  0  0  0  0  0  0  0
  143.2067   78.5355  221.8204 H   0  0  0  0  0  0  0  0  0  0  0  0
  1  2  1  0
  2  3  1  0
  3  4  1  0
  4  5  2  0
  4  6  1  0
  6  7  1  0
  7  8  1  0
  8  9  2  0
  8 10  1  0
 10 11  2  0
 11 12  1  0
 12 13  2  0
 13 14  1  0
 14 15  2  0
 15 16  1  0
 16 17  2  0
 17 18  1  0
 18 19  2  0
  2 20  1  0
 20 21  2  0
 21 22  1  0
 22 23  2  0
 23 24  1  0
 24 25  2  0
 25 26  1  0
 26 27  2  0
 27 28  1  0
 28 29  2  0
 19 10  1  0
 29 20  1  0
 18 13  1  0
 29 24  1  0
  1 30  1  0
  1 31  1  0
  1 32  1  0
  2 33  1  1
  3 34  1  0
  6 35  1  0
  6 36  1  0
  7 37  1  0
 11 38  1  0
 12 39  1  0
 14 40  1  0
 15 41  1  0
 16 42  1  0
 17 43  1  0
 21 44  1  0
 22 45  1  0
 23 46  1  0
 25 47  1  0
 26 48  1  0
 27 49  1  0
 28 50  1  0
M  END
>  <smiles>  (39) 
C[C@H](NC(=O)CNC(=O)c1ccc2ccccc2n1)c1cccc2ccccc12

>  <score_type>  (39) 
oracle

>  <origin>  (39) 
autodockgpu

>  <m_score__min__energy>  (39) 
-10.210000000000001

>  <m_primary>  (39) 
energy

>  <rmsd>  (39) 
4.365770045502809

>  <m_score__min__rmsd>  (39) 
4.365770045502809

>  <meeko>  (39) 
{"free_energy": -9.25, "intermolecular_energy": -10.74, "internal_energy": -1.52, "cluster_size": 26, "cluster_id": 2, "rank_in_cluster": 25}

>  <energy>  (39) 
-9.25

>  <cluster_rmsd>  (39) 
0.9

>  <cluster>  (39) 
2

$$$$

     RDKit          3D

 50 53  0  0  0  0  0  0  0  0999 V2000
  137.9510   70.2940  222.5710 C   0  0  0  0  0  0  0  0  0  0  0  0
  138.9500   70.9180  223.5340 C   0  0  2  0  0  0  0  0  0  0  0  0
  140.1360   71.2340  222.7240 N   0  0  0  0  0  0  0  0  0  0  0  0
  140.3700   72.5640  222.3330 C   0  0  0  0  0  0  0  0  0  0  0  0
  139.5160   73.4270  222.7250 O   0  0  0  0  0  0  0  0  0  0  0  0
  141.4880   73.0530  221.5300 C   0  0  0  0  0  0  0  0  0  0  0  0
  141.7130   74.4790  221.5830 N   0  0  0  0  0  0  0  0  0  0  0  0
  140.7480   75.4150  221.1150 C   0  0  0  0  0  0  0  0  0  0  0  0
  139.6290   75.0560  220.6300 O   0  0  0  0  0  0  0  0  0  0  0  0
  141.0470   76.8630  221.1950 C   0  0  0  0  0  0  0  0  0  0  0  0
  141.2230   77.5950  220.0390 C   0  0  0  0  0  0  0  0  0  0  0  0
  141.5040   78.9520  220.1620 C   0  0  0  0  0  0  0  0  0  0  0  0
  141.6060   79.5570  221.4110 C   0  0  0  0  0  0  0  0  0  0  0  0
  141.8870   80.9170  221.5250 C   0  0  0  0  0  0  0  0  0  0  0  0
  141.9810   81.4880  222.7970 C   0  0  0  0  0  0  0  0  0  0  0  0
  141.7910   80.6830  223.9100 C   0  0  0  0  0  0  0  0  0  0  0  0
  141.5130   79.3410  223.8150 C   0  0  0  0  0  0  0  0  0  0  0  0
  141.4220   78.7860  222.5460 C   0  0  0  0  0  0  0  0  0  0  0  0
  141.1530   77.4760  222.3970 N   0  0  0  0  0  0  0  0  0  0  0  0
  139.3670   69.9580  224.5790 C   0  0  0  0  0  0  0  0  0  0  0  0
  139.1520   68.5990  224.5070 C   0  0  0  0  0  0  0  0  0  0  0  0
  139.5630   67.7200  225.5040 C   0  0  0  0  0  0  0  0  0  0  0  0
  140.2140   68.1850  226.6260 C   0  0  0  0  0  0  0  0  0  0  0  0
  140.4390   69.5360  226.7170 C   0  0  0  0  0  0  0  0  0  0  0  0
  141.0940   69.9840  227.8530 C   0  0  0  0  0  0  0  0  0  0  0  0
  141.3560   71.3190  228.0270 C   0  0  0  0  0  0  0  0  0  0  0  0
  140.9640   72.1980  227.0670 C   0  0  0  0  0  0  0  0  0  0  0  0
  140.3080   71.7440  225.9310 C   0  0  0  0  0  0  0  0  0  0  0  0
  140.0250   70.4130  225.7160 C   0  0  0  0  0  0  0  0  0  0  0  0
  137.1535   69.7959  223.1418 H   0  0  0  0  0  0  0  0  0  0  0  0
  137.5128   71.0792  221.9375 H   0  0  0  0  0  0  0  0  0  0  0  0
  138.4644   69.5557  221.9375 H   0  0  0  0  0  0  0  0  0  0  0  0
  138.5026   71.7928  224.0285 H   0  0  0  0  0  0  0  0  0  0  0  0
  140.8000   70.4880  222.4450 H   0  0  0  0  0  0  0  0  0  0  0  0
  142.4023   72.5521  221.8809 H   0  0  0  0  0  0  0  0  0  0  0  0
  141.2322   72.8256  220.4846 H   0  0  0  0  0  0  0  0  0  0  0  0
  142.5960   74.8860  221.9680 H   0  0  0  0  0  0  0  0  0  0  0  0
  141.1436   77.1201  219.0500 H   0  0  0  0  0  0  0  0  0  0  0  0
  141.6482   79.5578  219.2553 H   0  0  0  0  0  0  0  0  0  0  0  0
  142.0329   81.5331  220.6255 H   0  0  0  0  0  0  0  0  0  0  0  0
  142.2022   82.5592  222.9135 H   0  0  0  0  0  0  0  0  0  0  0  0
  141.8659   81.1372  224.9090 H   0  0  0  0  0  0  0  0  0  0  0  0
  141.3672   78.7262  224.7154 H   0  0  0  0  0  0  0  0  0  0  0  0
  138.6344   68.1925  223.6256 H   0  0  0  0  0  0  0  0  0  0  0  0
  139.3664   66.6432  225.3956 H   0  0  0  0  0  0  0  0  0  0  0  0
  140.5416   67.4981  227.4203 H   0  0  0  0  0  0  0  0  0  0  0  0
  141.4066   69.2624  228.6222 H   0  0  0  0  0  0  0  0  0  0  0  0
  141.8755   71.6730  228.9297 H   0  0  0  0  0  0  0  0  0  0  0  0
  141.1672   73.2720  227.1907 H   0  0  0  0  0  0  0  0  0  0  0  0
  140.0014   72.4776  225.1708 H   0  0  0  0  0  0  0  0  0  0  0  0
  1  2  1  0
  2  3  1  0
  3  4  1  0
  4  5  2  0
  4  6  1  0
  6  7  1  0
  7  8  1  0
  8  9  2  0
  8 10  1  0
 10 11  2  0
 11 12  1  0
 12 13  2  0
 13 14  1  0
 14 15  2  0
 15 16  1  0
 16 17  2  0
 17 18  1  0
 18 19  2  0
  2 20  1  0
 20 21  2  0
 21 22  1  0
 22 23  2  0
 23 24  1  0
 24 25  2  0
 25 26  1  0
 26 27  2  0
 27 28  1  0
 28 29  2  0
 19 10  1  0
 29 20  1  0
 18 13  1  0
 29 24  1  0
  1 30  1  0
  1 31  1  0
  1 32  1  0
  2 33  1  1
  3 34  1  0
  6 35  1  0
  6 36  1  0
  7 37  1  0
 11 38  1  0
 12 39  1  0
 14 40  1  0
 15 41  1  0
 16 42  1  0
 17 43  1  0
 21 44  1  0
 22 45  1  0
 23 46  1  0
 25 47  1  0
 26 48  1  0
 27 49  1  0
 28 50  1  0
M  END
>  <smiles>  (40) 
C[C@H](NC(=O)CNC(=O)c1ccc2ccccc2n1)c1cccc2ccccc12

>  <score_type>  (40) 
oracle

>  <origin>  (40) 
autodockgpu

>  <m_score__min__energy>  (40) 
-10.210000000000001

>  <m_primary>  (40) 
energy

>  <rmsd>  (40) 
10.29114906859121

>  <m_score__min__rmsd>  (40) 
10.29114906859121

>  <meeko>  (40) 
{"free_energy": -9.78, "intermolecular_energy": -11.27, "internal_energy": -1.09, "cluster_size": 14, "cluster_id": 1, "rank_in_cluster": 3}

>  <energy>  (40) 
-8.61

>  <cluster_rmsd>  (40) 
1.79

>  <cluster>  (40) 
2

$$$$

     RDKit          3D

 50 53  0  0  0  0  0  0  0  0999 V2000
  142.7770   76.8050  219.1560 C   0  0  0  0  0  0  0  0  0  0  0  0
  142.1120   77.2910  220.4360 C   0  0  2  0  0  0  0  0  0  0  0  0
  140.8350   76.5650  220.5180 N   0  0  0  0  0  0  0  0  0  0  0  0
  140.8240   75.2410  220.9920 C   0  0  0  0  0  0  0  0  0  0  0  0
  141.9530   74.7530  221.3330 O   0  0  0  0  0  0  0  0  0  0  0  0
  139.6550   74.3760  221.1360 C   0  0  0  0  0  0  0  0  0  0  0  0
  139.6460   73.5360  222.3110 N   0  0  0  0  0  0  0  0  0  0  0  0
  140.1250   72.1950  222.2850 C   0  0  0  0  0  0  0  0  0  0  0  0
  140.5940   71.6580  221.2340 O   0  0  0  0  0  0  0  0  0  0  0  0
  140.0800   71.3890  223.5260 C   0  0  0  0  0  0  0  0  0  0  0  0
  139.5470   70.1170  223.5030 C   0  0  0  0  0  0  0  0  0  0  0  0
  139.5250   69.3960  224.6930 C   0  0  0  0  0  0  0  0  0  0  0  0
  140.0230   69.9380  225.8740 C   0  0  0  0  0  0  0  0  0  0  0  0
  139.9980   69.2090  227.0610 C   0  0  0  0  0  0  0  0  0  0  0  0
  140.5090   69.7880  228.2260 C   0  0  0  0  0  0  0  0  0  0  0  0
  141.0260   71.0730  228.1660 C   0  0  0  0  0  0  0  0  0  0  0  0
  141.0600   71.8050  227.0030 C   0  0  0  0  0  0  0  0  0  0  0  0
  140.5500   71.2180  225.8530 C   0  0  0  0  0  0  0  0  0  0  0  0
  140.5570   71.8920  224.6890 N   0  0  0  0  0  0  0  0  0  0  0  0
  141.8000   78.7340  220.3690 C   0  0  0  0  0  0  0  0  0  0  0  0
  141.4610   79.3980  219.2100 C   0  0  0  0  0  0  0  0  0  0  0  0
  141.1660   80.7570  219.1810 C   0  0  0  0  0  0  0  0  0  0  0  0
  141.2010   81.5080  220.3350 C   0  0  0  0  0  0  0  0  0  0  0  0
  141.5360   80.8670  221.5010 C   0  0  0  0  0  0  0  0  0  0  0  0
  141.5680   81.6400  222.6510 C   0  0  0  0  0  0  0  0  0  0  0  0
  141.8950   81.0800  223.8600 C   0  0  0  0  0  0  0  0  0  0  0  0
  142.1880   79.7540  223.9150 C   0  0  0  0  0  0  0  0  0  0  0  0
  142.1550   78.9840  222.7590 C   0  0  0  0  0  0  0  0  0  0  0  0
  141.8310   79.5060  221.5260 C   0  0  0  0  0  0  0  0  0  0  0  0
  143.6413   76.1733  219.4089 H   0  0  0  0  0  0  0  0  0  0  0  0
  142.0552   76.2201  218.5671 H   0  0  0  0  0  0  0  0  0  0  0  0
  143.1151   77.6704  218.5671 H   0  0  0  0  0  0  0  0  0  0  0  0
  142.7768   77.1216  221.2958 H   0  0  0  0  0  0  0  0  0  0  0  0
  139.9480   77.0210  220.2340 H   0  0  0  0  0  0  0  0  0  0  0  0
  138.7613   75.0164  221.1700 H   0  0  0  0  0  0  0  0  0  0  0  0
  139.6767   73.6919  220.2749 H   0  0  0  0  0  0  0  0  0  0  0  0
  139.2880   73.8770  223.2320 H   0  0  0  0  0  0  0  0  0  0  0  0
  139.1512   69.6854  222.5718 H   0  0  0  0  0  0  0  0  0  0  0  0
  139.1062   68.3789  224.7003 H   0  0  0  0  0  0  0  0  0  0  0  0
  139.5816   68.1911  227.0811 H   0  0  0  0  0  0  0  0  0  0  0  0
  140.5011   69.2328  229.1756 H   0  0  0  0  0  0  0  0  0  0  0  0
  141.4250   71.5249  229.0861 H   0  0  0  0  0  0  0  0  0  0  0  0
  141.4776   72.8225  226.9842 H   0  0  0  0  0  0  0  0  0  0  0  0
  141.4221   78.8298  218.2689 H   0  0  0  0  0  0  0  0  0  0  0  0
  140.9021   81.2367  218.2269 H   0  0  0  0  0  0  0  0  0  0  0  0
  140.9687   82.5831  220.3224 H   0  0  0  0  0  0  0  0  0  0  0  0
  141.3290   82.7122  222.5938 H   0  0  0  0  0  0  0  0  0  0  0  0
  141.9197   81.6952  224.7715 H   0  0  0  0  0  0  0  0  0  0  0  0
  142.4518   79.2895  224.8766 H   0  0  0  0  0  0  0  0  0  0  0  0
  142.3976   77.9135  222.8313 H   0  0  0  0  0  0  0  0  0  0  0  0
  1  2  1  0
  2  3  1  0
  3  4  1  0
  4  5  2  0
  4  6  1  0
  6  7  1  0
  7  8  1  0
  8  9  2  0
  8 10  1  0
 10 11  2  0
 11 12  1  0
 12 13  2  0
 13 14  1  0
 14 15  2  0
 15 16  1  0
 16 17  2  0
 17 18  1  0
 18 19  2  0
  2 20  1  0
 20 21  2  0
 21 22  1  0
 22 23  2  0
 23 24  1  0
 24 25  2  0
 25 26  1  0
 26 27  2  0
 27 28  1  0
 28 29  2  0
 19 10  1  0
 29 20  1  0
 18 13  1  0
 29 24  1  0
  1 30  1  0
  1 31  1  0
  1 32  1  0
  2 33  1  1
  3 34  1  0
  6 35  1  0
  6 36  1  0
  7 37  1  0
 11 38  1  0
 12 39  1  0
 14 40  1  0
 15 41  1  0
 16 42  1  0
 17 43  1  0
 21 44  1  0
 22 45  1  0
 23 46  1  0
 25 47  1  0
 26 48  1  0
 27 49  1  0
 28 50  1  0
M  END
>  <smiles>  (41) 
C[C@H](NC(=O)CNC(=O)c1ccc2ccccc2n1)c1cccc2ccccc12

>  <score_type>  (41) 
oracle

>  <origin>  (41) 
autodockgpu

>  <m_score__min__energy>  (41) 
-10.210000000000001

>  <m_primary>  (41) 
energy

>  <rmsd>  (41) 
4.147586189075213

>  <m_score__min__rmsd>  (41) 
4.147586189075213

>  <meeko>  (41) 
{"free_energy": -9.62, "intermolecular_energy": -11.12, "internal_energy": -1.12, "cluster_size": 26, "cluster_id": 2, "rank_in_cluster": 15}

>  <energy>  (41) 
-9.99

>  <cluster_rmsd>  (41) 
0.0

>  <cluster>  (41) 
3

$$$$

     RDKit          3D

 50 53  0  0  0  0  0  0  0  0999 V2000
  141.1970   78.2630  219.4900 C   0  0  0  0  0  0  0  0  0  0  0  0
  140.9740   77.6150  220.8490 C   0  0  2  0  0  0  0  0  0  0  0  0
  139.9670   76.5660  220.6270 N   0  0  0  0  0  0  0  0  0  0  0  0
  140.0920   75.3380  221.3010 C   0  0  0  0  0  0  0  0  0  0  0  0
  141.0930   75.2210  222.0840 O   0  0  0  0  0  0  0  0  0  0  0  0
  139.1920   74.1910  221.1980 C   0  0  0  0  0  0  0  0  0  0  0  0
  139.1850   73.3030  222.3370 N   0  0  0  0  0  0  0  0  0  0  0  0
  140.1980   72.3240  222.5380 C   0  0  0  0  0  0  0  0  0  0  0  0
  141.1710   72.1730  221.7360 O   0  0  0  0  0  0  0  0  0  0  0  0
  140.1240   71.4430  223.7260 C   0  0  0  0  0  0  0  0  0  0  0  0
  139.5690   70.1850  223.6180 C   0  0  0  0  0  0  0  0  0  0  0  0
  139.5200   69.3920  224.7610 C   0  0  0  0  0  0  0  0  0  0  0  0
  140.0140   69.8500  225.9780 C   0  0  0  0  0  0  0  0  0  0  0  0
  139.9620   69.0490  227.1180 C   0  0  0  0  0  0  0  0  0  0  0  0
  140.4690   69.5460  228.3210 C   0  0  0  0  0  0  0  0  0  0  0  0
  141.0110   70.8220  228.3470 C   0  0  0  0  0  0  0  0  0  0  0  0
  141.0710   71.6240  227.2330 C   0  0  0  0  0  0  0  0  0  0  0  0
  140.5640   71.1200  226.0430 C   0  0  0  0  0  0  0  0  0  0  0  0
  140.5970   71.8640  224.9230 N   0  0  0  0  0  0  0  0  0  0  0  0
  140.4080   78.5760  221.8190 C   0  0  0  0  0  0  0  0  0  0  0  0
  139.0620   78.7020  222.0850 C   0  0  0  0  0  0  0  0  0  0  0  0
  138.5610   79.6130  223.0100 C   0  0  0  0  0  0  0  0  0  0  0  0
  139.4100   80.4410  223.7110 C   0  0  0  0  0  0  0  0  0  0  0  0
  140.7540   80.3320  223.4620 C   0  0  0  0  0  0  0  0  0  0  0  0
  141.5920   81.1750  224.1750 C   0  0  0  0  0  0  0  0  0  0  0  0
  142.9500   81.1350  223.9860 C   0  0  0  0  0  0  0  0  0  0  0  0
  143.4640   80.2550  223.0870 C   0  0  0  0  0  0  0  0  0  0  0  0
  142.6210   79.4120  222.3740 C   0  0  0  0  0  0  0  0  0  0  0  0
  141.2520   79.4200  222.5340 C   0  0  0  0  0  0  0  0  0  0  0  0
  141.5521   79.2947  219.6296 H   0  0  0  0  0  0  0  0  0  0  0  0
  141.9493   77.6890  218.9291 H   0  0  0  0  0  0  0  0  0  0  0  0
  140.2508   78.2736  218.9291 H   0  0  0  0  0  0  0  0  0  0  0  0
  141.9270   77.2396  221.2500 H   0  0  0  0  0  0  0  0  0  0  0  0
  139.1700   76.7250  219.9840 H   0  0  0  0  0  0  0  0  0  0  0  0
  138.1699   74.5734  221.0599 H   0  0  0  0  0  0  0  0  0  0  0  0
  139.5596   73.5933  220.3508 H   0  0  0  0  0  0  0  0  0  0  0  0
  138.4340   73.3430  223.0640 H   0  0  0  0  0  0  0  0  0  0  0  0
  139.1769   69.8193  222.6575 H   0  0  0  0  0  0  0  0  0  0  0  0
  139.0825   68.3845  224.7007 H   0  0  0  0  0  0  0  0  0  0  0  0
  139.5277   68.0395  227.0707 H   0  0  0  0  0  0  0  0  0  0  0  0
  140.4387   68.9339  229.2345 H   0  0  0  0  0  0  0  0  0  0  0  0
  141.4088   71.2075  229.2973 H   0  0  0  0  0  0  0  0  0  0  0  0
  141.5067   72.6328  227.2825 H   0  0  0  0  0  0  0  0  0  0  0  0
  138.3546   78.0562  221.5442 H   0  0  0  0  0  0  0  0  0  0  0  0
  137.4763   79.6725  223.1831 H   0  0  0  0  0  0  0  0  0  0  0  0
  139.0235   81.1639  224.4445 H   0  0  0  0  0  0  0  0  0  0  0  0
  141.1637   81.8832  224.8996 H   0  0  0  0  0  0  0  0  0  0  0  0
  143.6128   81.8049  224.5534 H   0  0  0  0  0  0  0  0  0  0  0  0
  144.5509   80.2101  222.9235 H   0  0  0  0  0  0  0  0  0  0  0  0
  143.0639   78.7097  221.6525 H   0  0  0  0  0  0  0  0  0  0  0  0
  1  2  1  0
  2  3  1  0
  3  4  1  0
  4  5  2  0
  4  6  1  0
  6  7  1  0
  7  8  1  0
  8  9  2  0
  8 10  1  0
 10 11  2  0
 11 12  1  0
 12 13  2  0
 13 14  1  0
 14 15  2  0
 15 16  1  0
 16 17  2  0
 17 18  1  0
 18 19  2  0
  2 20  1  0
 20 21  2  0
 21 22  1  0
 22 23  2  0
 23 24  1  0
 24 25  2  0
 25 26  1  0
 26 27  2  0
 27 28  1  0
 28 29  2  0
 19 10  1  0
 29 20  1  0
 18 13  1  0
 29 24  1  0
  1 30  1  0
  1 31  1  0
  1 32  1  0
  2 33  1  1
  3 34  1  0
  6 35  1  0
  6 36  1  0
  7 37  1  0
 11 38  1  0
 12 39  1  0
 14 40  1  0
 15 41  1  0
 16 42  1  0
 17 43  1  0
 21 44  1  0
 22 45  1  0
 23 46  1  0
 25 47  1  0
 26 48  1  0
 27 49  1  0
 28 50  1  0
M  END
>  <smiles>  (42) 
C[C@H](NC(=O)CNC(=O)c1ccc2ccccc2n1)c1cccc2ccccc12

>  <score_type>  (42) 
oracle

>  <origin>  (42) 
autodockgpu

>  <m_score__min__energy>  (42) 
-10.210000000000001

>  <m_primary>  (42) 
energy

>  <rmsd>  (42) 
4.254676608045136

>  <m_score__min__rmsd>  (42) 
4.254676608045136

>  <meeko>  (42) 
{"free_energy": -10.05, "intermolecular_energy": -11.54, "internal_energy": -1.08, "cluster_size": 26, "cluster_id": 2, "rank_in_cluster": 2}

>  <energy>  (42) 
-9.87

>  <cluster_rmsd>  (42) 
0.28

>  <cluster>  (42) 
3

$$$$

     RDKit          3D

 50 53  0  0  0  0  0  0  0  0999 V2000
  140.5120   71.9000  223.1640 C   0  0  0  0  0  0  0  0  0  0  0  0
  139.9610   70.8460  224.1130 C   0  0  2  0  0  0  0  0  0  0  0  0
  138.5010   71.0160  224.0900 N   0  0  0  0  0  0  0  0  0  0  0  0
  137.6850   69.9200  223.7590 C   0  0  0  0  0  0  0  0  0  0  0  0
  138.2860   68.8240  223.5000 O   0  0  0  0  0  0  0  0  0  0  0  0
  136.2250   69.9110  223.6840 C   0  0  0  0  0  0  0  0  0  0  0  0
  135.5620   70.9950  224.3700 N   0  0  0  0  0  0  0  0  0  0  0  0
  135.7550   72.3550  223.9970 C   0  0  0  0  0  0  0  0  0  0  0  0
  136.5130   72.7000  223.0370 O   0  0  0  0  0  0  0  0  0  0  0  0
  135.0470   73.4170  224.7480 C   0  0  0  0  0  0  0  0  0  0  0  0
  135.3920   74.7400  224.5630 C   0  0  0  0  0  0  0  0  0  0  0  0
  134.7000   75.7030  225.2910 C   0  0  0  0  0  0  0  0  0  0  0  0
  133.6910   75.3490  226.1810 C   0  0  0  0  0  0  0  0  0  0  0  0
  133.0030   76.3200  226.9050 C   0  0  0  0  0  0  0  0  0  0  0  0
  131.9960   75.9220  227.7890 C   0  0  0  0  0  0  0  0  0  0  0  0
  131.7100   74.5720  227.9180 C   0  0  0  0  0  0  0  0  0  0  0  0
  132.3780   73.6020  227.2110 C   0  0  0  0  0  0  0  0  0  0  0  0
  133.3760   74.0090  226.3360 C   0  0  0  0  0  0  0  0  0  0  0  0
  134.0610   73.1000  225.6210 N   0  0  0  0  0  0  0  0  0  0  0  0
  140.4140   71.0790  225.5010 C   0  0  0  0  0  0  0  0  0  0  0  0
  140.9620   72.2630  225.9450 C   0  0  0  0  0  0  0  0  0  0  0  0
  141.3730   72.4540  227.2610 C   0  0  0  0  0  0  0  0  0  0  0  0
  141.2450   71.4450  228.1900 C   0  0  0  0  0  0  0  0  0  0  0  0
  140.7010   70.2580  227.7690 C   0  0  0  0  0  0  0  0  0  0  0  0
  140.5820   69.2550  228.7180 C   0  0  0  0  0  0  0  0  0  0  0  0
  140.0520   68.0350  228.3830 C   0  0  0  0  0  0  0  0  0  0  0  0
  139.6440   67.8230  227.1040 C   0  0  0  0  0  0  0  0  0  0  0  0
  139.7660   68.8310  226.1560 C   0  0  0  0  0  0  0  0  0  0  0  0
  140.2920   70.0700  226.4510 C   0  0  0  0  0  0  0  0  0  0  0  0
  140.9444   72.7272  223.7460 H   0  0  0  0  0  0  0  0  0  0  0  0
  141.2909   71.4513  222.5300 H   0  0  0  0  0  0  0  0  0  0  0  0
  139.6990   72.2835  222.5300 H   0  0  0  0  0  0  0  0  0  0  0  0
  140.2972   69.8456  223.8029 H   0  0  0  0  0  0  0  0  0  0  0  0
  138.0710   71.9310  224.3190 H   0  0  0  0  0  0  0  0  0  0  0  0
  135.9396   69.9563  222.6226 H   0  0  0  0  0  0  0  0  0  0  0  0
  135.9016   68.9896  224.1904 H   0  0  0  0  0  0  0  0  0  0  0  0
  134.9110   70.8270  225.1700 H   0  0  0  0  0  0  0  0  0  0  0  0
  136.1898   75.0248  223.8614 H   0  0  0  0  0  0  0  0  0  0  0  0
  134.9557   76.7648  225.1603 H   0  0  0  0  0  0  0  0  0  0  0  0
  133.2488   77.3852  226.7828 H   0  0  0  0  0  0  0  0  0  0  0  0
  131.4389   76.6690  228.3735 H   0  0  0  0  0  0  0  0  0  0  0  0
  130.9161   74.2649  228.6147 H   0  0  0  0  0  0  0  0  0  0  0  0
  132.1302   72.5374  227.3342 H   0  0  0  0  0  0  0  0  0  0  0  0
  141.0794   73.0908  225.2302 H   0  0  0  0  0  0  0  0  0  0  0  0
  141.8042   73.4201  227.5621 H   0  0  0  0  0  0  0  0  0  0  0  0
  141.5674   71.5860  229.2322 H   0  0  0  0  0  0  0  0  0  0  0  0
  140.9158   69.4391  229.7498 H   0  0  0  0  0  0  0  0  0  0  0  0
  139.9586   67.2404  229.1379 H   0  0  0  0  0  0  0  0  0  0  0  0
  139.2160   66.8506  226.8188 H   0  0  0  0  0  0  0  0  0  0  0  0
  139.4290   68.6320  225.1280 H   0  0  0  0  0  0  0  0  0  0  0  0
  1  2  1  0
  2  3  1  0
  3  4  1  0
  4  5  2  0
  4  6  1  0
  6  7  1  0
  7  8  1  0
  8  9  2  0
  8 10  1  0
 10 11  2  0
 11 12  1  0
 12 13  2  0
 13 14  1  0
 14 15  2  0
 15 16  1  0
 16 17  2  0
 17 18  1  0
 18 19  2  0
  2 20  1  0
 20 21  2  0
 21 22  1  0
 22 23  2  0
 23 24  1  0
 24 25  2  0
 25 26  1  0
 26 27  2  0
 27 28  1  0
 28 29  2  0
 19 10  1  0
 29 20  1  0
 18 13  1  0
 29 24  1  0
  1 30  1  0
  1 31  1  0
  1 32  1  0
  2 33  1  6
  3 34  1  0
  6 35  1  0
  6 36  1  0
  7 37  1  0
 11 38  1  0
 12 39  1  0
 14 40  1  0
 15 41  1  0
 16 42  1  0
 17 43  1  0
 21 44  1  0
 22 45  1  0
 23 46  1  0
 25 47  1  0
 26 48  1  0
 27 49  1  0
 28 50  1  0
M  END
>  <smiles>  (43) 
C[C@H](NC(=O)CNC(=O)c1ccc2ccccc2n1)c1cccc2ccccc12

>  <score_type>  (43) 
oracle

>  <origin>  (43) 
autodockgpu

>  <m_score__min__energy>  (43) 
-10.210000000000001

>  <m_primary>  (43) 
energy

>  <rmsd>  (43) 
9.61934917347276

>  <m_score__min__rmsd>  (43) 
9.61934917347276

>  <meeko>  (43) 
{"free_energy": -8.77, "intermolecular_energy": -10.27, "internal_energy": -2.27, "cluster_size": 8, "cluster_id": 3, "rank_in_cluster": 8}

>  <energy>  (43) 
-9.08

>  <cluster_rmsd>  (43) 
1.2

>  <cluster>  (43) 
3

$$$$

     RDKit          3D

 50 53  0  0  0  0  0  0  0  0999 V2000
  141.6970   77.1810  219.5830 C   0  0  0  0  0  0  0  0  0  0  0  0
  141.5520   76.6010  220.9830 C   0  0  2  0  0  0  0  0  0  0  0  0
  141.0040   75.2490  220.7960 N   0  0  0  0  0  0  0  0  0  0  0  0
  141.8750   74.1890  220.4890 C   0  0  0  0  0  0  0  0  0  0  0  0
  143.1130   74.4830  220.3970 O   0  0  0  0  0  0  0  0  0  0  0  0
  141.5050   72.7930  220.2680 C   0  0  0  0  0  0  0  0  0  0  0  0
  141.2710   72.0160  221.4640 N   0  0  0  0  0  0  0  0  0  0  0  0
  140.3460   72.4290  222.4630 C   0  0  0  0  0  0  0  0  0  0  0  0
  139.6660   73.4980  222.3650 O   0  0  0  0  0  0  0  0  0  0  0  0
  140.1600   71.5860  223.6670 C   0  0  0  0  0  0  0  0  0  0  0  0
  139.4260   70.4210  223.5860 C   0  0  0  0  0  0  0  0  0  0  0  0
  139.2780   69.6620  224.7430 C   0  0  0  0  0  0  0  0  0  0  0  0
  139.8500   70.0610  225.9470 C   0  0  0  0  0  0  0  0  0  0  0  0
  139.6970   69.2940  227.1000 C   0  0  0  0  0  0  0  0  0  0  0  0
  140.2870   69.7300  228.2900 C   0  0  0  0  0  0  0  0  0  0  0  0
  141.0090   70.9140  228.2870 C   0  0  0  0  0  0  0  0  0  0  0  0
  141.1700   71.6810  227.1590 C   0  0  0  0  0  0  0  0  0  0  0  0
  140.5790   71.2380  225.9840 C   0  0  0  0  0  0  0  0  0  0  0  0
  140.7060   71.9520  224.8510 N   0  0  0  0  0  0  0  0  0  0  0  0
  140.5780   77.3690  221.7870 C   0  0  0  0  0  0  0  0  0  0  0  0
  139.2630   76.9990  221.9680 C   0  0  0  0  0  0  0  0  0  0  0  0
  138.3720   77.7400  222.7370 C   0  0  0  0  0  0  0  0  0  0  0  0
  138.7790   78.8980  223.3620 C   0  0  0  0  0  0  0  0  0  0  0  0
  140.0840   79.2860  223.1960 C   0  0  0  0  0  0  0  0  0  0  0  0
  140.4740   80.4550  223.8310 C   0  0  0  0  0  0  0  0  0  0  0  0
  141.7600   80.9160  223.7160 C   0  0  0  0  0  0  0  0  0  0  0  0
  142.6500   80.2110  222.9690 C   0  0  0  0  0  0  0  0  0  0  0  0
  142.2550   79.0400  222.3340 C   0  0  0  0  0  0  0  0  0  0  0  0
  140.9730   78.5410  222.4240 C   0  0  0  0  0  0  0  0  0  0  0  0
  141.9633   78.2460  219.6531 H   0  0  0  0  0  0  0  0  0  0  0  0
  142.4876   76.6402  219.0421 H   0  0  0  0  0  0  0  0  0  0  0  0
  140.7449   77.0759  219.0421 H   0  0  0  0  0  0  0  0  0  0  0  0
  142.5209   76.6203  221.5034 H   0  0  0  0  0  0  0  0  0  0  0  0
  139.9870   75.0730  220.8930 H   0  0  0  0  0  0  0  0  0  0  0  0
  140.5834   72.7773  219.6676 H   0  0  0  0  0  0  0  0  0  0  0  0
  142.3669   72.3269  219.7681 H   0  0  0  0  0  0  0  0  0  0  0  0
  141.7720   71.1170  221.6450 H   0  0  0  0  0  0  0  0  0  0  0  0
  138.9717   70.1018  222.6364 H   0  0  0  0  0  0  0  0  0  0  0  0
  138.6975   68.7284  224.7049 H   0  0  0  0  0  0  0  0  0  0  0  0
  139.1198   68.3580  227.0743 H   0  0  0  0  0  0  0  0  0  0  0  0
  140.1802   69.1431  229.2142 H   0  0  0  0  0  0  0  0  0  0  0  0
  141.4714   71.2526  229.2259 H   0  0  0  0  0  0  0  0  0  0  0  0
  141.7486   72.6161  227.1860 H   0  0  0  0  0  0  0  0  0  0  0  0
  138.9030   76.0791  221.4841 H   0  0  0  0  0  0  0  0  0  0  0  0
  137.3323   77.3980  222.8471 H   0  0  0  0  0  0  0  0  0  0  0  0
  138.0820   79.4907  223.9727 H   0  0  0  0  0  0  0  0  0  0  0  0
  139.7450   81.0178  224.4326 H   0  0  0  0  0  0  0  0  0  0  0  0
  142.0672   81.8435  224.2213 H   0  0  0  0  0  0  0  0  0  0  0  0
  143.6853   80.5683  222.8669 H   0  0  0  0  0  0  0  0  0  0  0  0
  142.9951   78.4888  221.7353 H   0  0  0  0  0  0  0  0  0  0  0  0
  1  2  1  0
  2  3  1  0
  3  4  1  0
  4  5  2  0
  4  6  1  0
  6  7  1  0
  7  8  1  0
  8  9  2  0
  8 10  1  0
 10 11  2  0
 11 12  1  0
 12 13  2  0
 13 14  1  0
 14 15  2  0
 15 16  1  0
 16 17  2  0
 17 18  1  0
 18 19  2  0
  2 20  1  0
 20 21  2  0
 21 22  1  0
 22 23  2  0
 23 24  1  0
 24 25  2  0
 25 26  1  0
 26 27  2  0
 27 28  1  0
 28 29  2  0
 19 10  1  0
 29 20  1  0
 18 13  1  0
 29 24  1  0
  1 30  1  0
  1 31  1  0
  1 32  1  0
  2 33  1  1
  3 34  1  0
  6 35  1  0
  6 36  1  0
  7 37  1  0
 11 38  1  0
 12 39  1  0
 14 40  1  0
 15 41  1  0
 16 42  1  0
 17 43  1  0
 21 44  1  0
 22 45  1  0
 23 46  1  0
 25 47  1  0
 26 48  1  0
 27 49  1  0
 28 50  1  0
M  END
>  <smiles>  (44) 
C[C@H](NC(=O)CNC(=O)c1ccc2ccccc2n1)c1cccc2ccccc12

>  <score_type>  (44) 
oracle

>  <origin>  (44) 
autodockgpu

>  <m_score__min__energy>  (44) 
-10.210000000000001

>  <m_primary>  (44) 
energy

>  <rmsd>  (44) 
4.554086450049525

>  <m_score__min__rmsd>  (44) 
4.554086450049525

>  <meeko>  (44) 
{"free_energy": -9.48, "intermolecular_energy": -10.97, "internal_energy": -1.75, "cluster_size": 14, "cluster_id": 1, "rank_in_cluster": 8}

>  <energy>  (44) 
-9.06

>  <cluster_rmsd>  (44) 
1.21

>  <cluster>  (44) 
3

$$$$

     RDKit          3D

 50 53  0  0  0  0  0  0  0  0999 V2000
  140.9250   78.2700  219.2750 C   0  0  0  0  0  0  0  0  0  0  0  0
  140.9460   77.5300  220.6050 C   0  0  2  0  0  0  0  0  0  0  0  0
  140.0760   76.3590  220.4200 N   0  0  0  0  0  0  0  0  0  0  0  0
  140.2740   75.2200  221.2210 C   0  0  0  0  0  0  0  0  0  0  0  0
  141.2170   75.2880  222.0780 O   0  0  0  0  0  0  0  0  0  0  0  0
  139.5100   73.9750  221.1710 C   0  0  0  0  0  0  0  0  0  0  0  0
  139.5540   73.1710  222.3700 N   0  0  0  0  0  0  0  0  0  0  0  0
  139.9080   71.7930  222.3440 C   0  0  0  0  0  0  0  0  0  0  0  0
  140.2130   71.1870  221.2690 O   0  0  0  0  0  0  0  0  0  0  0  0
  139.9270   71.0280  223.6110 C   0  0  0  0  0  0  0  0  0  0  0  0
  139.4350   69.7400  223.6470 C   0  0  0  0  0  0  0  0  0  0  0  0
  139.4730   69.0590  224.8600 C   0  0  0  0  0  0  0  0  0  0  0  0
  139.9890   69.6560  226.0060 C   0  0  0  0  0  0  0  0  0  0  0  0
  140.0230   68.9670  227.2170 C   0  0  0  0  0  0  0  0  0  0  0  0
  140.5500   69.6020  228.3450 C   0  0  0  0  0  0  0  0  0  0  0  0
  141.0240   70.8990  228.2270 C   0  0  0  0  0  0  0  0  0  0  0  0
  140.9990   71.5920  227.0400 C   0  0  0  0  0  0  0  0  0  0  0  0
  140.4730   70.9510  225.9270 C   0  0  0  0  0  0  0  0  0  0  0  0
  140.4240   71.5850  224.7410 N   0  0  0  0  0  0  0  0  0  0  0  0
  140.3640   78.3500  221.6890 C   0  0  0  0  0  0  0  0  0  0  0  0
  139.0370   78.3120  222.0580 C   0  0  0  0  0  0  0  0  0  0  0  0
  138.5210   79.0920  223.0880 C   0  0  0  0  0  0  0  0  0  0  0  0
  139.3340   79.9520  223.7930 C   0  0  0  0  0  0  0  0  0  0  0  0
  140.6600   80.0050  223.4420 C   0  0  0  0  0  0  0  0  0  0  0  0
  141.4610   80.8770  224.1620 C   0  0  0  0  0  0  0  0  0  0  0  0
  142.7970   80.9950  223.8760 C   0  0  0  0  0  0  0  0  0  0  0  0
  143.3260   80.2440  222.8740 C   0  0  0  0  0  0  0  0  0  0  0  0
  142.5180   79.3720  222.1540 C   0  0  0  0  0  0  0  0  0  0  0  0
  141.1730   79.2230  222.4100 C   0  0  0  0  0  0  0  0  0  0  0  0
  140.8942   79.3541  219.4590 H   0  0  0  0  0  0  0  0  0  0  0  0
  141.8306   78.0208  218.7024 H   0  0  0  0  0  0  0  0  0  0  0  0
  140.0350   77.9699  218.7024 H   0  0  0  0  0  0  0  0  0  0  0  0
  141.9803   77.2770  220.8808 H   0  0  0  0  0  0  0  0  0  0  0  0
  139.3190   76.3680  219.7120 H   0  0  0  0  0  0  0  0  0  0  0  0
  138.4586   74.2301  220.9722 H   0  0  0  0  0  0  0  0  0  0  0  0
  139.9750   73.3663  220.3815 H   0  0  0  0  0  0  0  0  0  0  0  0
  139.3280   73.5680  223.3110 H   0  0  0  0  0  0  0  0  0  0  0  0
  139.0247   69.2651  222.7436 H   0  0  0  0  0  0  0  0  0  0  0  0
  139.0881   68.0299  224.9138 H   0  0  0  0  0  0  0  0  0  0  0  0
  139.6404   67.9379  227.2841 H   0  0  0  0  0  0  0  0  0  0  0  0
  140.5880   69.0799  229.3125 H   0  0  0  0  0  0  0  0  0  0  0  0
  141.4367   71.3936  229.1187 H   0  0  0  0  0  0  0  0  0  0  0  0
  141.3832   72.6206  226.9745 H   0  0  0  0  0  0  0  0  0  0  0  0
  138.3579   77.6374  221.5161 H   0  0  0  0  0  0  0  0  0  0  0  0
  137.4531   79.0213  223.3420 H   0  0  0  0  0  0  0  0  0  0  0  0
  138.9350   80.5739  224.6079 H   0  0  0  0  0  0  0  0  0  0  0  0
  141.0212   81.4799  224.9702 H   0  0  0  0  0  0  0  0  0  0  0  0
  143.4313   81.6873  224.4491 H   0  0  0  0  0  0  0  0  0  0  0  0
  144.3960   80.3266  222.6325 H   0  0  0  0  0  0  0  0  0  0  0  0
  142.9709   78.7770  221.3473 H   0  0  0  0  0  0  0  0  0  0  0  0
  1  2  1  0
  2  3  1  0
  3  4  1  0
  4  5  2  0
  4  6  1  0
  6  7  1  0
  7  8  1  0
  8  9  2  0
  8 10  1  0
 10 11  2  0
 11 12  1  0
 12 13  2  0
 13 14  1  0
 14 15  2  0
 15 16  1  0
 16 17  2  0
 17 18  1  0
 18 19  2  0
  2 20  1  0
 20 21  2  0
 21 22  1  0
 22 23  2  0
 23 24  1  0
 24 25  2  0
 25 26  1  0
 26 27  2  0
 27 28  1  0
 28 29  2  0
 19 10  1  0
 29 20  1  0
 18 13  1  0
 29 24  1  0
  1 30  1  0
  1 31  1  0
  1 32  1  0
  2 33  1  1
  3 34  1  0
  6 35  1  0
  6 36  1  0
  7 37  1  0
 11 38  1  0
 12 39  1  0
 14 40  1  0
 15 41  1  0
 16 42  1  0
 17 43  1  0
 21 44  1  0
 22 45  1  0
 23 46  1  0
 25 47  1  0
 26 48  1  0
 27 49  1  0
 28 50  1  0
M  END
>  <smiles>  (45) 
C[C@H](NC(=O)CNC(=O)c1ccc2ccccc2n1)c1cccc2ccccc12

>  <score_type>  (45) 
oracle

>  <origin>  (45) 
autodockgpu

>  <m_score__min__energy>  (45) 
-10.210000000000001

>  <m_primary>  (45) 
energy

>  <rmsd>  (45) 
4.3672935694292185

>  <m_score__min__rmsd>  (45) 
4.3672935694292185

>  <meeko>  (45) 
{"free_energy": -9.65, "intermolecular_energy": -11.15, "internal_energy": -1.3, "cluster_size": 26, "cluster_id": 2, "rank_in_cluster": 12}

>  <energy>  (45) 
-9.05

>  <cluster_rmsd>  (45) 
1.24

>  <cluster>  (45) 
3

$$$$

     RDKit          3D

 50 53  0  0  0  0  0  0  0  0999 V2000
  142.9700   76.8560  219.3610 C   0  0  0  0  0  0  0  0  0  0  0  0
  141.9980   77.2110  220.4780 C   0  0  2  0  0  0  0  0  0  0  0  0
  140.8100   76.3750  220.2480 N   0  0  0  0  0  0  0  0  0  0  0  0
  140.3610   75.5210  221.2710 C   0  0  0  0  0  0  0  0  0  0  0  0
  141.0310   75.5360  222.3560 O   0  0  0  0  0  0  0  0  0  0  0  0
  139.2080   74.6250  221.2150 C   0  0  0  0  0  0  0  0  0  0  0  0
  139.1410   73.6330  222.2630 N   0  0  0  0  0  0  0  0  0  0  0  0
  140.1680   72.6660  222.4550 C   0  0  0  0  0  0  0  0  0  0  0  0
  141.2060   72.6180  221.7250 O   0  0  0  0  0  0  0  0  0  0  0  0
  140.0310   71.6750  223.5470 C   0  0  0  0  0  0  0  0  0  0  0  0
  139.3620   70.4890  223.3220 C   0  0  0  0  0  0  0  0  0  0  0  0
  139.2570   69.5880  224.3770 C   0  0  0  0  0  0  0  0  0  0  0  0
  139.8080   69.8700  225.6240 C   0  0  0  0  0  0  0  0  0  0  0  0
  139.6990   68.9610  226.6750 C   0  0  0  0  0  0  0  0  0  0  0  0
  140.2660   69.2810  227.9110 C   0  0  0  0  0  0  0  0  0  0  0  0
  140.9220   70.4950  228.0560 C   0  0  0  0  0  0  0  0  0  0  0  0
  141.0390   71.4000  227.0300 C   0  0  0  0  0  0  0  0  0  0  0  0
  140.4710   71.0710  225.8070 C   0  0  0  0  0  0  0  0  0  0  0  0
  140.5570   71.9240  224.7700 N   0  0  0  0  0  0  0  0  0  0  0  0
  141.5710   78.6240  220.3940 C   0  0  0  0  0  0  0  0  0  0  0  0
  141.0190   79.1980  219.2700 C   0  0  0  0  0  0  0  0  0  0  0  0
  140.6210   80.5300  219.2240 C   0  0  0  0  0  0  0  0  0  0  0  0
  140.7670   81.3440  220.3260 C   0  0  0  0  0  0  0  0  0  0  0  0
  141.3150   80.7930  221.4570 C   0  0  0  0  0  0  0  0  0  0  0  0
  141.4550   81.6290  222.5530 C   0  0  0  0  0  0  0  0  0  0  0  0
  141.9960   81.1600  223.7240 C   0  0  0  0  0  0  0  0  0  0  0  0
  142.3930   79.8620  223.7930 C   0  0  0  0  0  0  0  0  0  0  0  0
  142.2510   79.0290  222.6910 C   0  0  0  0  0  0  0  0  0  0  0  0
  141.7130   79.4580  221.4980 C   0  0  0  0  0  0  0  0  0  0  0  0
  143.9187   76.5095  219.7968 H   0  0  0  0  0  0  0  0  0  0  0  0
  142.5386   76.0574  218.7396 H   0  0  0  0  0  0  0  0  0  0  0  0
  143.1549   77.7447  218.7396 H   0  0  0  0  0  0  0  0  0  0  0  0
  142.4721   77.0515  221.4577 H   0  0  0  0  0  0  0  0  0  0  0  0
  140.3010   76.4150  219.3460 H   0  0  0  0  0  0  0  0  0  0  0  0
  138.2977   75.2399  221.2714 H   0  0  0  0  0  0  0  0  0  0  0  0
  139.3061   74.0644  220.2737 H   0  0  0  0  0  0  0  0  0  0  0  0
  138.3350   73.5830  222.9270 H   0  0  0  0  0  0  0  0  0  0  0  0
  138.9250   70.2629  222.3382 H   0  0  0  0  0  0  0  0  0  0  0  0
  138.7290   68.6354  224.2230 H   0  0  0  0  0  0  0  0  0  0  0  0
  139.1738   68.0049  226.5332 H   0  0  0  0  0  0  0  0  0  0  0  0
  140.1935   68.5811  228.7565 H   0  0  0  0  0  0  0  0  0  0  0  0
  141.3659   70.7423  229.0316 H   0  0  0  0  0  0  0  0  0  0  0  0
  141.5659   72.3550  227.1727 H   0  0  0  0  0  0  0  0  0  0  0  0
  140.8875   78.5772  218.3715 H   0  0  0  0  0  0  0  0  0  0  0  0
  140.1858   80.9372  218.2995 H   0  0  0  0  0  0  0  0  0  0  0  0
  140.4552   82.3986  220.3001 H   0  0  0  0  0  0  0  0  0  0  0  0
  141.1298   82.6776  222.4841 H   0  0  0  0  0  0  0  0  0  0  0  0
  142.1066   81.8246  224.5935 H   0  0  0  0  0  0  0  0  0  0  0  0
  142.8280   79.4702  224.7243 H   0  0  0  0  0  0  0  0  0  0  0  0
  142.5819   77.9833  222.7744 H   0  0  0  0  0  0  0  0  0  0  0  0
  1  2  1  0
  2  3  1  0
  3  4  1  0
  4  5  2  0
  4  6  1  0
  6  7  1  0
  7  8  1  0
  8  9  2  0
  8 10  1  0
 10 11  2  0
 11 12  1  0
 12 13  2  0
 13 14  1  0
 14 15  2  0
 15 16  1  0
 16 17  2  0
 17 18  1  0
 18 19  2  0
  2 20  1  0
 20 21  2  0
 21 22  1  0
 22 23  2  0
 23 24  1  0
 24 25  2  0
 25 26  1  0
 26 27  2  0
 27 28  1  0
 28 29  2  0
 19 10  1  0
 29 20  1  0
 18 13  1  0
 29 24  1  0
  1 30  1  0
  1 31  1  0
  1 32  1  0
  2 33  1  1
  3 34  1  0
  6 35  1  0
  6 36  1  0
  7 37  1  0
 11 38  1  0
 12 39  1  0
 14 40  1  0
 15 41  1  0
 16 42  1  0
 17 43  1  0
 21 44  1  0
 22 45  1  0
 23 46  1  0
 25 47  1  0
 26 48  1  0
 27 49  1  0
 28 50  1  0
M  END
>  <smiles>  (46) 
C[C@H](NC(=O)CNC(=O)c1ccc2ccccc2n1)c1cccc2ccccc12

>  <score_type>  (46) 
oracle

>  <origin>  (46) 
autodockgpu

>  <m_score__min__energy>  (46) 
-10.210000000000001

>  <m_primary>  (46) 
energy

>  <rmsd>  (46) 
4.050149950766181

>  <m_score__min__rmsd>  (46) 
4.050149950766181

>  <meeko>  (46) 
{"free_energy": -9.57, "intermolecular_energy": -11.06, "internal_energy": -1.12, "cluster_size": 26, "cluster_id": 2, "rank_in_cluster": 18}

>  <energy>  (46) 
-9.0

>  <cluster_rmsd>  (46) 
1.24

>  <cluster>  (46) 
3

$$$$

     RDKit          3D

 50 53  0  0  0  0  0  0  0  0999 V2000
  140.5360   71.7190  223.2540 C   0  0  0  0  0  0  0  0  0  0  0  0
  139.9870   70.7010  224.2440 C   0  0  2  0  0  0  0  0  0  0  0  0
  138.5280   70.8850  224.2320 N   0  0  0  0  0  0  0  0  0  0  0  0
  137.6910   69.7550  224.2020 C   0  0  0  0  0  0  0  0  0  0  0  0
  138.2730   68.6200  224.1920 O   0  0  0  0  0  0  0  0  0  0  0  0
  136.2300   69.7530  224.1830 C   0  0  0  0  0  0  0  0  0  0  0  0
  135.6000   70.9050  224.7850 N   0  0  0  0  0  0  0  0  0  0  0  0
  135.7110   72.2080  224.2220 C   0  0  0  0  0  0  0  0  0  0  0  0
  136.3630   72.4380  223.1560 O   0  0  0  0  0  0  0  0  0  0  0  0
  135.0430   73.3450  224.8960 C   0  0  0  0  0  0  0  0  0  0  0  0
  135.4370   74.6380  224.6190 C   0  0  0  0  0  0  0  0  0  0  0  0
  134.7820   75.6750  225.2760 C   0  0  0  0  0  0  0  0  0  0  0  0
  133.7610   75.4210  226.1870 C   0  0  0  0  0  0  0  0  0  0  0  0
  133.1100   76.4660  226.8410 C   0  0  0  0  0  0  0  0  0  0  0  0
  132.0900   76.1680  227.7480 C   0  0  0  0  0  0  0  0  0  0  0  0
  131.7540   74.8420  227.9710 C   0  0  0  0  0  0  0  0  0  0  0  0
  132.3850   73.8010  227.3350 C   0  0  0  0  0  0  0  0  0  0  0  0
  133.3970   74.1080  226.4360 C   0  0  0  0  0  0  0  0  0  0  0  0
  134.0480   73.1260  225.7860 N   0  0  0  0  0  0  0  0  0  0  0  0
  140.4590   70.9750  225.6180 C   0  0  0  0  0  0  0  0  0  0  0  0
  140.7130   72.2360  226.1100 C   0  0  0  0  0  0  0  0  0  0  0  0
  141.1500   72.4610  227.4110 C   0  0  0  0  0  0  0  0  0  0  0  0
  141.3490   71.4090  228.2770 C   0  0  0  0  0  0  0  0  0  0  0  0
  141.1010   70.1430  227.8080 C   0  0  0  0  0  0  0  0  0  0  0  0
  141.3100   69.0980  228.6930 C   0  0  0  0  0  0  0  0  0  0  0  0
  141.0890   67.8000  228.3060 C   0  0  0  0  0  0  0  0  0  0  0  0
  140.6620   67.5540  227.0400 C   0  0  0  0  0  0  0  0  0  0  0  0
  140.4560   68.6050  226.1560 C   0  0  0  0  0  0  0  0  0  0  0  0
  140.6640   69.9220  226.5040 C   0  0  0  0  0  0  0  0  0  0  0  0
  140.9883   72.5578  223.8034 H   0  0  0  0  0  0  0  0  0  0  0  0
  141.2987   71.2411  222.6216 H   0  0  0  0  0  0  0  0  0  0  0  0
  139.7176   72.0937  222.6216 H   0  0  0  0  0  0  0  0  0  0  0  0
  140.3102   69.6876  223.9636 H   0  0  0  0  0  0  0  0  0  0  0  0
  138.1140   71.8360  224.2500 H   0  0  0  0  0  0  0  0  0  0  0  0
  135.9045   69.6981  223.1337 H   0  0  0  0  0  0  0  0  0  0  0  0
  135.9207   68.8881  224.7882 H   0  0  0  0  0  0  0  0  0  0  0  0
  135.0340   70.8320  225.6610 H   0  0  0  0  0  0  0  0  0  0  0  0
  136.2444   74.8428  223.9006 H   0  0  0  0  0  0  0  0  0  0  0  0
  135.0766   76.7149  225.0716 H   0  0  0  0  0  0  0  0  0  0  0  0
  133.3954   77.5102  226.6457 H   0  0  0  0  0  0  0  0  0  0  0  0
  131.5612   76.9742  228.2775 H   0  0  0  0  0  0  0  0  0  0  0  0
  130.9497   74.6142  228.6860 H   0  0  0  0  0  0  0  0  0  0  0  0
  132.0976   72.7576  227.5317 H   0  0  0  0  0  0  0  0  0  0  0  0
  140.5641   73.1008  225.4467 H   0  0  0  0  0  0  0  0  0  0  0  0
  141.3386   73.4898  227.7517 H   0  0  0  0  0  0  0  0  0  0  0  0
  141.6944   71.5772  229.3077 H   0  0  0  0  0  0  0  0  0  0  0  0
  141.6562   69.3105  229.7152 H   0  0  0  0  0  0  0  0  0  0  0  0
  141.2551   66.9714  229.0102 H   0  0  0  0  0  0  0  0  0  0  0  0
  140.4789   66.5194  226.7142 H   0  0  0  0  0  0  0  0  0  0  0  0
  140.1127   68.3768  225.1362 H   0  0  0  0  0  0  0  0  0  0  0  0
  1  2  1  0
  2  3  1  0
  3  4  1  0
  4  5  2  0
  4  6  1  0
  6  7  1  0
  7  8  1  0
  8  9  2  0
  8 10  1  0
 10 11  2  0
 11 12  1  0
 12 13  2  0
 13 14  1  0
 14 15  2  0
 15 16  1  0
 16 17  2  0
 17 18  1  0
 18 19  2  0
  2 20  1  0
 20 21  2  0
 21 22  1  0
 22 23  2  0
 23 24  1  0
 24 25  2  0
 25 26  1  0
 26 27  2  0
 27 28  1  0
 28 29  2  0
 19 10  1  0
 29 20  1  0
 18 13  1  0
 29 24  1  0
  1 30  1  0
  1 31  1  0
  1 32  1  0
  2 33  1  6
  3 34  1  0
  6 35  1  0
  6 36  1  0
  7 37  1  0
 11 38  1  0
 12 39  1  0
 14 40  1  0
 15 41  1  0
 16 42  1  0
 17 43  1  0
 21 44  1  0
 22 45  1  0
 23 46  1  0
 25 47  1  0
 26 48  1  0
 27 49  1  0
 28 50  1  0
M  END
>  <smiles>  (47) 
C[C@H](NC(=O)CNC(=O)c1ccc2ccccc2n1)c1cccc2ccccc12

>  <score_type>  (47) 
oracle

>  <origin>  (47) 
autodockgpu

>  <m_score__min__energy>  (47) 
-10.210000000000001

>  <m_primary>  (47) 
energy

>  <rmsd>  (47) 
9.77013955679635

>  <m_score__min__rmsd>  (47) 
9.77013955679635

>  <meeko>  (47) 
{"free_energy": -9.06, "intermolecular_energy": -10.56, "internal_energy": -2.24, "cluster_size": 8, "cluster_id": 3, "rank_in_cluster": 4}

>  <energy>  (47) 
-8.82

>  <cluster_rmsd>  (47) 
1.43

>  <cluster>  (47) 
3

$$$$

     RDKit          3D

 50 53  0  0  0  0  0  0  0  0999 V2000
  140.8900   77.6420  219.8690 C   0  0  0  0  0  0  0  0  0  0  0  0
  140.7490   77.1790  221.3120 C   0  0  2  0  0  0  0  0  0  0  0  0
  139.7480   76.1020  221.2850 N   0  0  0  0  0  0  0  0  0  0  0  0
  140.1320   74.7960  221.6390 C   0  0  0  0  0  0  0  0  0  0  0  0
  141.3530   74.6350  221.9710 O   0  0  0  0  0  0  0  0  0  0  0  0
  139.2740   73.6130  221.6650 C   0  0  0  0  0  0  0  0  0  0  0  0
  139.4880   72.7160  222.7780 N   0  0  0  0  0  0  0  0  0  0  0  0
  139.0370   71.3660  222.7580 C   0  0  0  0  0  0  0  0  0  0  0  0
  138.4260   70.8650  221.7630 O   0  0  0  0  0  0  0  0  0  0  0  0
  139.2850   70.5050  223.9370 C   0  0  0  0  0  0  0  0  0  0  0  0
  138.8940   69.1830  223.9190 C   0  0  0  0  0  0  0  0  0  0  0  0
  139.1470   68.4110  225.0490 C   0  0  0  0  0  0  0  0  0  0  0  0
  139.7750   68.9530  226.1670 C   0  0  0  0  0  0  0  0  0  0  0  0
  140.0250   68.1740  227.2940 C   0  0  0  0  0  0  0  0  0  0  0  0
  140.6580   68.7550  228.3960 C   0  0  0  0  0  0  0  0  0  0  0  0
  141.0200   70.0930  228.3350 C   0  0  0  0  0  0  0  0  0  0  0  0
  140.7810   70.8740  227.2310 C   0  0  0  0  0  0  0  0  0  0  0  0
  140.1520   70.2860  226.1430 C   0  0  0  0  0  0  0  0  0  0  0  0
  139.8940   71.0070  225.0370 N   0  0  0  0  0  0  0  0  0  0  0  0
  140.2220   78.2560  222.1760 C   0  0  0  0  0  0  0  0  0  0  0  0
  138.8890   78.4120  222.4880 C   0  0  0  0  0  0  0  0  0  0  0  0
  138.4250   79.4330  223.3110 C   0  0  0  0  0  0  0  0  0  0  0  0
  139.2990   80.3470  223.8580 C   0  0  0  0  0  0  0  0  0  0  0  0
  140.6310   80.2100  223.5600 C   0  0  0  0  0  0  0  0  0  0  0  0
  141.4940   81.1400  224.1180 C   0  0  0  0  0  0  0  0  0  0  0  0
  142.8420   81.0780  223.8700 C   0  0  0  0  0  0  0  0  0  0  0  0
  143.3200   80.0900  223.0690 C   0  0  0  0  0  0  0  0  0  0  0  0
  142.4510   79.1610  222.5120 C   0  0  0  0  0  0  0  0  0  0  0  0
  141.0920   79.1860  222.7350 C   0  0  0  0  0  0  0  0  0  0  0  0
  141.2104   78.6941  219.8512 H   0  0  0  0  0  0  0  0  0  0  0  0
  141.6399   77.0216  219.3565 H   0  0  0  0  0  0  0  0  0  0  0  0
  139.9216   77.5449  219.3565 H   0  0  0  0  0  0  0  0  0  0  0  0
  141.7271   76.8677  221.7074 H   0  0  0  0  0  0  0  0  0  0  0  0
  138.7670   76.2980  221.0140 H   0  0  0  0  0  0  0  0  0  0  0  0
  138.2284   73.9529  221.6993 H   0  0  0  0  0  0  0  0  0  0  0  0
  139.5227   73.0384  220.7606 H   0  0  0  0  0  0  0  0  0  0  0  0
  139.9840   73.0210  223.6460 H   0  0  0  0  0  0  0  0  0  0  0  0
  138.3969   68.7513  223.0378 H   0  0  0  0  0  0  0  0  0  0  0  0
  138.8453   67.3532  225.0589 H   0  0  0  0  0  0  0  0  0  0  0  0
  139.7280   67.1151  227.3164 H   0  0  0  0  0  0  0  0  0  0  0  0
  140.8661   68.1607  229.2979 H   0  0  0  0  0  0  0  0  0  0  0  0
  141.5179   70.5459  229.2050 H   0  0  0  0  0  0  0  0  0  0  0  0
  141.0789   71.9327  227.2099 H   0  0  0  0  0  0  0  0  0  0  0  0
  138.1623   77.7003  222.0693 H   0  0  0  0  0  0  0  0  0  0  0  0
  137.3493   79.5115  223.5273 H   0  0  0  0  0  0  0  0  0  0  0  0
  138.9415   81.1574  224.5102 H   0  0  0  0  0  0  0  0  0  0  0  0
  141.0947   81.9347  224.7653 H   0  0  0  0  0  0  0  0  0  0  0  0
  143.5256   81.8172  224.3130 H   0  0  0  0  0  0  0  0  0  0  0  0
  144.3983   80.0258  222.8612 H   0  0  0  0  0  0  0  0  0  0  0  0
  142.8650   78.3727  221.8661 H   0  0  0  0  0  0  0  0  0  0  0  0
  1  2  1  0
  2  3  1  0
  3  4  1  0
  4  5  2  0
  4  6  1  0
  6  7  1  0
  7  8  1  0
  8  9  2  0
  8 10  1  0
 10 11  2  0
 11 12  1  0
 12 13  2  0
 13 14  1  0
 14 15  2  0
 15 16  1  0
 16 17  2  0
 17 18  1  0
 18 19  2  0
  2 20  1  0
 20 21  2  0
 21 22  1  0
 22 23  2  0
 23 24  1  0
 24 25  2  0
 25 26  1  0
 26 27  2  0
 27 28  1  0
 28 29  2  0
 19 10  1  0
 29 20  1  0
 18 13  1  0
 29 24  1  0
  1 30  1  0
  1 31  1  0
  1 32  1  0
  2 33  1  1
  3 34  1  0
  6 35  1  0
  6 36  1  0
  7 37  1  0
 11 38  1  0
 12 39  1  0
 14 40  1  0
 15 41  1  0
 16 42  1  0
 17 43  1  0
 21 44  1  0
 22 45  1  0
 23 46  1  0
 25 47  1  0
 26 48  1  0
 27 49  1  0
 28 50  1  0
M  END
>  <smiles>  (48) 
C[C@H](NC(=O)CNC(=O)c1ccc2ccccc2n1)c1cccc2ccccc12

>  <score_type>  (48) 
oracle

>  <origin>  (48) 
autodockgpu

>  <m_score__min__energy>  (48) 
-10.210000000000001

>  <m_primary>  (48) 
energy

>  <rmsd>  (48) 
4.514863972267851

>  <m_score__min__rmsd>  (48) 
4.514863972267851

>  <meeko>  (48) 
{"free_energy": -9.65, "intermolecular_energy": -11.15, "internal_energy": -1.42, "cluster_size": 26, "cluster_id": 2, "rank_in_cluster": 11}

>  <energy>  (48) 
-8.77

>  <cluster_rmsd>  (48) 
1.35

>  <cluster>  (48) 
3

$$$$

     RDKit          3D

 50 53  0  0  0  0  0  0  0  0999 V2000
  141.7100   77.1070  219.5490 C   0  0  0  0  0  0  0  0  0  0  0  0
  141.5790   76.5180  220.9470 C   0  0  2  0  0  0  0  0  0  0  0  0
  141.0440   75.1620  220.7560 N   0  0  0  0  0  0  0  0  0  0  0  0
  141.9280   74.1050  220.4740 C   0  0  0  0  0  0  0  0  0  0  0  0
  143.1660   74.4050  220.4080 O   0  0  0  0  0  0  0  0  0  0  0  0
  141.5710   72.7050  220.2540 C   0  0  0  0  0  0  0  0  0  0  0  0
  141.3240   71.9320  221.4500 N   0  0  0  0  0  0  0  0  0  0  0  0
  140.4240   72.3720  222.4610 C   0  0  0  0  0  0  0  0  0  0  0  0
  139.7790   73.4630  222.3740 O   0  0  0  0  0  0  0  0  0  0  0  0
  140.2240   71.5310  223.6640 C   0  0  0  0  0  0  0  0  0  0  0  0
  139.5470   70.3330  223.5620 C   0  0  0  0  0  0  0  0  0  0  0  0
  139.3820   69.5770  224.7190 C   0  0  0  0  0  0  0  0  0  0  0  0
  139.8810   70.0120  225.9430 C   0  0  0  0  0  0  0  0  0  0  0  0
  139.7120   69.2480  227.0960 C   0  0  0  0  0  0  0  0  0  0  0  0
  140.2280   69.7190  228.3060 C   0  0  0  0  0  0  0  0  0  0  0  0
  140.8950   70.9350  228.3230 C   0  0  0  0  0  0  0  0  0  0  0  0
  141.0720   71.6990  227.1960 C   0  0  0  0  0  0  0  0  0  0  0  0
  140.5540   71.2210  226.0000 C   0  0  0  0  0  0  0  0  0  0  0  0
  140.6990   71.9310  224.8670 N   0  0  0  0  0  0  0  0  0  0  0  0
  140.6030   77.2720  221.7610 C   0  0  0  0  0  0  0  0  0  0  0  0
  139.2960   76.8820  221.9570 C   0  0  0  0  0  0  0  0  0  0  0  0
  138.4030   77.6100  222.7350 C   0  0  0  0  0  0  0  0  0  0  0  0
  138.7990   78.7760  223.3540 C   0  0  0  0  0  0  0  0  0  0  0  0
  140.0960   79.1830  223.1730 C   0  0  0  0  0  0  0  0  0  0  0  0
  140.4750   80.3580  223.8020 C   0  0  0  0  0  0  0  0  0  0  0  0
  141.7530   80.8400  223.6720 C   0  0  0  0  0  0  0  0  0  0  0  0
  142.6440   80.1460  222.9160 C   0  0  0  0  0  0  0  0  0  0  0  0
  142.2600   78.9690  222.2870 C   0  0  0  0  0  0  0  0  0  0  0  0
  140.9880   78.4510  222.3920 C   0  0  0  0  0  0  0  0  0  0  0  0
  141.9483   78.1783  219.6233 H   0  0  0  0  0  0  0  0  0  0  0  0
  142.5149   76.5891  219.0069 H   0  0  0  0  0  0  0  0  0  0  0  0
  140.7615   76.9791  219.0069 H   0  0  0  0  0  0  0  0  0  0  0  0
  142.5507   76.5442  221.4619 H   0  0  0  0  0  0  0  0  0  0  0  0
  140.0260   74.9790  220.8320 H   0  0  0  0  0  0  0  0  0  0  0  0
  140.6589   72.6801  219.6396 H   0  0  0  0  0  0  0  0  0  0  0  0
  142.4437   72.2426  219.7696 H   0  0  0  0  0  0  0  0  0  0  0  0
  141.7960   71.0160  221.6230 H   0  0  0  0  0  0  0  0  0  0  0  0
  139.1501   69.9862  222.5965 H   0  0  0  0  0  0  0  0  0  0  0  0
  138.8470   68.6174  224.6648 H   0  0  0  0  0  0  0  0  0  0  0  0
  139.1793   68.2865  227.0541 H   0  0  0  0  0  0  0  0  0  0  0  0
  140.1072   69.1349  229.2302 H   0  0  0  0  0  0  0  0  0  0  0  0
  141.2986   71.3022  229.2782 H   0  0  0  0  0  0  0  0  0  0  0  0
  141.6071   72.6591  227.2394 H   0  0  0  0  0  0  0  0  0  0  0  0
  138.9446   75.9562  221.4780 H   0  0  0  0  0  0  0  0  0  0  0  0
  137.3702   77.2519  222.8578 H   0  0  0  0  0  0  0  0  0  0  0  0
  138.0997   79.3593  223.9711 H   0  0  0  0  0  0  0  0  0  0  0  0
  139.7442   80.9097  224.4115 H   0  0  0  0  0  0  0  0  0  0  0  0
  142.0517   81.7733  224.1717 H   0  0  0  0  0  0  0  0  0  0  0  0
  143.6729   80.5179  222.8019 H   0  0  0  0  0  0  0  0  0  0  0  0
  143.0016   78.4285  221.6804 H   0  0  0  0  0  0  0  0  0  0  0  0
  1  2  1  0
  2  3  1  0
  3  4  1  0
  4  5  2  0
  4  6  1  0
  6  7  1  0
  7  8  1  0
  8  9  2  0
  8 10  1  0
 10 11  2  0
 11 12  1  0
 12 13  2  0
 13 14  1  0
 14 15  2  0
 15 16  1  0
 16 17  2  0
 17 18  1  0
 18 19  2  0
  2 20  1  0
 20 21  2  0
 21 22  1  0
 22 23  2  0
 23 24  1  0
 24 25  2  0
 25 26  1  0
 26 27  2  0
 27 28  1  0
 28 29  2  0
 19 10  1  0
 29 20  1  0
 18 13  1  0
 29 24  1  0
  1 30  1  0
  1 31  1  0
  1 32  1  0
  2 33  1  1
  3 34  1  0
  6 35  1  0
  6 36  1  0
  7 37  1  0
 11 38  1  0
 12 39  1  0
 14 40  1  0
 15 41  1  0
 16 42  1  0
 17 43  1  0
 21 44  1  0
 22 45  1  0
 23 46  1  0
 25 47  1  0
 26 48  1  0
 27 49  1  0
 28 50  1  0
M  END
>  <smiles>  (49) 
C[C@H](NC(=O)CNC(=O)c1ccc2ccccc2n1)c1cccc2ccccc12

>  <score_type>  (49) 
oracle

>  <origin>  (49) 
autodockgpu

>  <m_score__min__energy>  (49) 
-10.210000000000001

>  <m_primary>  (49) 
energy

>  <rmsd>  (49) 
4.599720257019393

>  <m_score__min__rmsd>  (49) 
4.599720257019393

>  <meeko>  (49) 
{"free_energy": -9.48, "intermolecular_energy": -10.97, "internal_energy": -1.74, "cluster_size": 14, "cluster_id": 1, "rank_in_cluster": 9}

>  <energy>  (49) 
-9.57

>  <cluster_rmsd>  (49) 
0.0

>  <cluster>  (49) 
4

$$$$

     RDKit          3D

 50 53  0  0  0  0  0  0  0  0999 V2000
  136.5440   76.0700  223.2340 C   0  0  0  0  0  0  0  0  0  0  0  0
  137.5930   76.0650  222.1310 C   0  0  2  0  0  0  0  0  0  0  0  0
  138.1270   74.6950  222.0990 N   0  0  0  0  0  0  0  0  0  0  0  0
  137.7800   73.8460  221.0340 C   0  0  0  0  0  0  0  0  0  0  0  0
  137.0110   74.3390  220.1440 O   0  0  0  0  0  0  0  0  0  0  0  0
  138.2130   72.4630  220.8450 C   0  0  0  0  0  0  0  0  0  0  0  0
  138.5620   71.7510  222.0530 N   0  0  0  0  0  0  0  0  0  0  0  0
  139.6740   72.1280  222.8570 C   0  0  0  0  0  0  0  0  0  0  0  0
  140.4240   73.1120  222.5680 O   0  0  0  0  0  0  0  0  0  0  0  0
  139.9770   71.3490  224.0800 C   0  0  0  0  0  0  0  0  0  0  0  0
  140.7930   71.8860  225.0540 C   0  0  0  0  0  0  0  0  0  0  0  0
  141.0500   71.1180  226.1860 C   0  0  0  0  0  0  0  0  0  0  0  0
  140.5050   69.8470  226.3350 C   0  0  0  0  0  0  0  0  0  0  0  0
  140.7670   69.0840  227.4720 C   0  0  0  0  0  0  0  0  0  0  0  0
  140.2000   67.8120  227.5830 C   0  0  0  0  0  0  0  0  0  0  0  0
  139.3910   67.3450  226.5580 C   0  0  0  0  0  0  0  0  0  0  0  0
  139.1220   68.0840  225.4320 C   0  0  0  0  0  0  0  0  0  0  0  0
  139.6910   69.3460  225.3320 C   0  0  0  0  0  0  0  0  0  0  0  0
  139.4600   70.1100  224.2500 N   0  0  0  0  0  0  0  0  0  0  0  0
  138.7160   76.9720  222.4510 C   0  0  0  0  0  0  0  0  0  0  0  0
  140.0410   76.5950  222.4400 C   0  0  0  0  0  0  0  0  0  0  0  0
  141.0760   77.4750  222.7380 C   0  0  0  0  0  0  0  0  0  0  0  0
  140.8100   78.7870  223.0640 C   0  0  0  0  0  0  0  0  0  0  0  0
  139.4970   79.1850  223.0810 C   0  0  0  0  0  0  0  0  0  0  0  0
  139.2500   80.5080  223.4120 C   0  0  0  0  0  0  0  0  0  0  0  0
  137.9660   80.9890  223.4550 C   0  0  0  0  0  0  0  0  0  0  0  0
  136.9380   80.1480  223.1680 C   0  0  0  0  0  0  0  0  0  0  0  0
  137.1900   78.8230  222.8370 C   0  0  0  0  0  0  0  0  0  0  0  0
  138.4640   78.3000  222.7810 C   0  0  0  0  0  0  0  0  0  0  0  0
  137.0428   76.0676  224.2144 H   0  0  0  0  0  0  0  0  0  0  0  0
  135.9199   76.9711  223.1423 H   0  0  0  0  0  0  0  0  0  0  0  0
  135.9113   75.1749  223.1423 H   0  0  0  0  0  0  0  0  0  0  0  0
  137.1449   76.3905  221.1806 H   0  0  0  0  0  0  0  0  0  0  0  0
  138.7560   74.3540  222.8490 H   0  0  0  0  0  0  0  0  0  0  0  0
  137.3953   71.9158  220.3531 H   0  0  0  0  0  0  0  0  0  0  0  0
  139.1347   72.5136  220.2467 H   0  0  0  0  0  0  0  0  0  0  0  0
  138.0110   70.9290  222.3890 H   0  0  0  0  0  0  0  0  0  0  0  0
  141.2272   72.8902  224.9396 H   0  0  0  0  0  0  0  0  0  0  0  0
  141.6965   71.5240  226.9780 H   0  0  0  0  0  0  0  0  0  0  0  0
  141.4117   69.4783  228.2713 H   0  0  0  0  0  0  0  0  0  0  0  0
  140.3923   67.1904  228.4699 H   0  0  0  0  0  0  0  0  0  0  0  0
  138.9471   66.3428  226.6505 H   0  0  0  0  0  0  0  0  0  0  0  0
  138.4759   67.6882  224.6346 H   0  0  0  0  0  0  0  0  0  0  0  0
  140.2908   75.5546  222.1849 H   0  0  0  0  0  0  0  0  0  0  0  0
  142.1169   77.1201  222.7132 H   0  0  0  0  0  0  0  0  0  0  0  0
  141.6215   79.4904  223.3022 H   0  0  0  0  0  0  0  0  0  0  0  0
  140.0912   81.1784  223.6423 H   0  0  0  0  0  0  0  0  0  0  0  0
  137.7716   82.0393  223.7178 H   0  0  0  0  0  0  0  0  0  0  0  0
  135.9025   80.5180  223.1979 H   0  0  0  0  0  0  0  0  0  0  0  0
  136.3386   78.1644  222.6104 H   0  0  0  0  0  0  0  0  0  0  0  0
  1  2  1  0
  2  3  1  0
  3  4  1  0
  4  5  2  0
  4  6  1  0
  6  7  1  0
  7  8  1  0
  8  9  2  0
  8 10  1  0
 10 11  2  0
 11 12  1  0
 12 13  2  0
 13 14  1  0
 14 15  2  0
 15 16  1  0
 16 17  2  0
 17 18  1  0
 18 19  2  0
  2 20  1  0
 20 21  2  0
 21 22  1  0
 22 23  2  0
 23 24  1  0
 24 25  2  0
 25 26  1  0
 26 27  2  0
 27 28  1  0
 28 29  2  0
 19 10  1  0
 29 20  1  0
 18 13  1  0
 29 24  1  0
  1 30  1  0
  1 31  1  0
  1 32  1  0
  2 33  1  6
  3 34  1  0
  6 35  1  0
  6 36  1  0
  7 37  1  0
 11 38  1  0
 12 39  1  0
 14 40  1  0
 15 41  1  0
 16 42  1  0
 17 43  1  0
 21 44  1  0
 22 45  1  0
 23 46  1  0
 25 47  1  0
 26 48  1  0
 27 49  1  0
 28 50  1  0
M  END
>  <smiles>  (50) 
C[C@H](NC(=O)CNC(=O)c1ccc2ccccc2n1)c1cccc2ccccc12

>  <score_type>  (50) 
oracle

>  <origin>  (50) 
autodockgpu

>  <m_score__min__energy>  (50) 
-10.210000000000001

>  <m_primary>  (50) 
energy

>  <rmsd>  (50) 
4.727820813196032

>  <m_score__min__rmsd>  (50) 
4.727820813196032

>  <meeko>  (50) 
{"free_energy": -8.61, "intermolecular_energy": -10.1, "internal_energy": -1.88, "cluster_size": 26, "cluster_id": 2, "rank_in_cluster": 26}

>  <energy>  (50) 
-8.25

>  <cluster_rmsd>  (50) 
0.0

>  <cluster>  (50) 
5

$$$$
