
     RDKit          3D

 41 43  0  0  0  0  0  0  0  0999 V2000
  141.3170   73.3060  221.2500 O   0  0  0  0  0  0  0  0  0  0  0  0
  140.3650   73.2800  222.0870 C   0  0  0  0  0  0  0  0  0  0  0  0
  139.5710   74.4110  222.3360 N   0  0  0  0  0  0  0  0  0  0  0  0
  139.7900   75.6600  221.6620 C   0  0  0  0  0  0  0  0  0  0  0  0
  139.1850   76.8050  222.3800 C   0  0  0  0  0  0  0  0  0  0  0  0
  138.0980   76.6270  222.9790 O   0  0  0  0  0  0  0  0  0  0  0  0
  139.8780   78.0480  222.3490 N   0  0  0  0  0  0  0  0  0  0  0  0
  141.1350   78.2390  221.6510 C   0  0  0  0  0  0  0  0  0  0  0  0
  142.1500   79.0220  222.4200 C   0  0  0  0  0  0  0  0  0  0  0  0
  141.5540   79.3850  223.7640 C   0  0  0  0  0  0  0  0  0  0  0  0
  140.2710   80.1730  223.4740 C   0  0  0  0  0  0  0  0  0  0  0  0
  139.2450   79.1600  223.0740 C   0  0  0  0  0  0  0  0  0  0  0  0
  140.0680   72.0360  222.8260 C   0  0  0  0  0  0  0  0  0  0  0  0
  139.3900   70.9870  222.2360 C   0  0  0  0  0  0  0  0  0  0  0  0
  139.1360   69.8370  222.9750 C   0  0  0  0  0  0  0  0  0  0  0  0
  139.5400   69.7050  224.2870 C   0  0  0  0  0  0  0  0  0  0  0  0
  139.3080   68.5850  225.0480 C   0  0  0  0  0  0  0  0  0  0  0  0
  139.7540   68.5530  226.3540 C   0  0  0  0  0  0  0  0  0  0  0  0
  139.5300   67.4410  227.1290 F   0  0  0  0  0  0  0  0  0  0  0  0
  140.4330   69.6310  226.9070 C   0  0  0  0  0  0  0  0  0  0  0  0
  140.6770   70.7770  226.1470 C   0  0  0  0  0  0  0  0  0  0  0  0
  140.2150   70.7750  224.8400 C   0  0  0  0  0  0  0  0  0  0  0  0
  140.4590   71.8870  224.1210 N   0  0  0  0  0  0  0  0  0  0  0  0
  138.7890   74.3380  223.0430 H   0  0  0  0  0  0  0  0  0  0  0  0
  140.8735   75.8297  221.5767 H   0  0  0  0  0  0  0  0  0  0  0  0
  139.3120   75.5949  220.6734 H   0  0  0  0  0  0  0  0  0  0  0  0
  141.5596   77.2491  221.4279 H   0  0  0  0  0  0  0  0  0  0  0  0
  140.9082   78.8196  220.7446 H   0  0  0  0  0  0  0  0  0  0  0  0
  143.0551   78.4143  222.5667 H   0  0  0  0  0  0  0  0  0  0  0  0
  142.4222   79.9337  221.8680 H   0  0  0  0  0  0  0  0  0  0  0  0
  141.3195   78.4739  224.3341 H   0  0  0  0  0  0  0  0  0  0  0  0
  142.2587   79.9799  224.3636 H   0  0  0  0  0  0  0  0  0  0  0  0
  139.9432   80.7139  224.3740 H   0  0  0  0  0  0  0  0  0  0  0  0
  140.4281   80.9207  222.6827 H   0  0  0  0  0  0  0  0  0  0  0  0
  138.7501   78.7698  223.9756 H   0  0  0  0  0  0  0  0  0  0  0  0
  138.5065   79.6408  222.4156 H   0  0  0  0  0  0  0  0  0  0  0  0
  139.0542   71.0608  221.1911 H   0  0  0  0  0  0  0  0  0  0  0  0
  138.5956   69.0060  222.4980 H   0  0  0  0  0  0  0  0  0  0  0  0
  138.7730   67.7236  224.6216 H   0  0  0  0  0  0  0  0  0  0  0  0
  140.7806   69.5819  227.9495 H   0  0  0  0  0  0  0  0  0  0  0  0
  141.2116   71.6420  226.5665 H   0  0  0  0  0  0  0  0  0  0  0  0
  1  2  2  0
  2  3  1  0
  3  4  1  0
  4  5  1  0
  5  6  2  0
  5  7  1  0
  7  8  1  0
  8  9  1  0
  9 10  1  0
 10 11  1  0
 11 12  1  0
  2 13  1  0
 13 14  2  0
 14 15  1  0
 15 16  2  0
 16 17  1  0
 17 18  2  0
 18 19  1  0
 18 20  1  0
 20 21  2  0
 21 22  1  0
 22 23  2  0
 12  7  1  0
 23 13  1  0
 22 16  1  0
  3 24  1  0
  4 25  1  0
  4 26  1  0
  8 27  1  0
  8 28  1  0
  9 29  1  0
  9 30  1  0
 10 31  1  0
 10 32  1  0
 11 33  1  0
 11 34  1  0
 12 35  1  0
 12 36  1  0
 14 37  1  0
 15 38  1  0
 17 39  1  0
 20 40  1  0
 21 41  1  0
M  END
>  <smiles>  (1) 
O=C(NCC(=O)N1CCCCC1)c1ccc2cc(F)ccc2n1

>  <score_type>  (1) 
oracle

>  <origin>  (1) 
autodockgpu

>  <m_score__min__energy>  (1) 
-7.29

>  <m_primary>  (1) 
energy

>  <rmsd>  (1) 
3.7932415163546347

>  <m_score__min__rmsd>  (1) 
3.7932415163546347

>  <meeko>  (1) 
{"free_energy": -7.12, "intermolecular_energy": -8.02, "internal_energy": -1.0, "cluster_size": 42, "cluster_id": 1, "rank_in_cluster": 30}

>  <energy>  (1) 
-7.29

>  <cluster_rmsd>  (1) 
0.0

>  <cluster>  (1) 
1

$$$$

     RDKit          3D

 41 43  0  0  0  0  0  0  0  0999 V2000
  141.3710   73.2910  221.3150 O   0  0  0  0  0  0  0  0  0  0  0  0
  140.3890   73.2580  222.1150 C   0  0  0  0  0  0  0  0  0  0  0  0
  139.5710   74.3800  222.3240 N   0  0  0  0  0  0  0  0  0  0  0  0
  139.7970   75.6260  221.6490 C   0  0  0  0  0  0  0  0  0  0  0  0
  139.1790   76.7730  222.3520 C   0  0  0  0  0  0  0  0  0  0  0  0
  138.0880   76.5920  222.9440 O   0  0  0  0  0  0  0  0  0  0  0  0
  139.8620   78.0210  222.3150 N   0  0  0  0  0  0  0  0  0  0  0  0
  141.1240   78.2140  221.6260 C   0  0  0  0  0  0  0  0  0  0  0  0
  142.1270   79.0110  222.3960 C   0  0  0  0  0  0  0  0  0  0  0  0
  141.5180   79.3810  223.7320 C   0  0  0  0  0  0  0  0  0  0  0  0
  140.2320   80.1580  223.4250 C   0  0  0  0  0  0  0  0  0  0  0  0
  139.2170   79.1340  223.0260 C   0  0  0  0  0  0  0  0  0  0  0  0
  140.0820   72.0150  222.8540 C   0  0  0  0  0  0  0  0  0  0  0  0
  139.3980   70.9710  222.2610 C   0  0  0  0  0  0  0  0  0  0  0  0
  139.1340   69.8230  222.9990 C   0  0  0  0  0  0  0  0  0  0  0  0
  139.5340   69.6880  224.3130 C   0  0  0  0  0  0  0  0  0  0  0  0
  139.2920   68.5700  225.0730 C   0  0  0  0  0  0  0  0  0  0  0  0
  139.7350   68.5340  226.3800 C   0  0  0  0  0  0  0  0  0  0  0  0
  139.5020   67.4240  227.1540 F   0  0  0  0  0  0  0  0  0  0  0  0
  140.4200   69.6080  226.9350 C   0  0  0  0  0  0  0  0  0  0  0  0
  140.6740   70.7520  226.1750 C   0  0  0  0  0  0  0  0  0  0  0  0
  140.2150   70.7540  224.8670 C   0  0  0  0  0  0  0  0  0  0  0  0
  140.4690   71.8640  224.1500 N   0  0  0  0  0  0  0  0  0  0  0  0
  138.7640   74.3010  223.0030 H   0  0  0  0  0  0  0  0  0  0  0  0
  140.8813   75.7977  221.5795 H   0  0  0  0  0  0  0  0  0  0  0  0
  139.3336   75.5554  220.6539 H   0  0  0  0  0  0  0  0  0  0  0  0
  141.5571   77.2249  221.4160 H   0  0  0  0  0  0  0  0  0  0  0  0
  140.9012   78.7845  220.7123 H   0  0  0  0  0  0  0  0  0  0  0  0
  143.0354   78.4114  222.5549 H   0  0  0  0  0  0  0  0  0  0  0  0
  142.3967   79.9200  221.8383 H   0  0  0  0  0  0  0  0  0  0  0  0
  141.2850   78.4731  224.3078 H   0  0  0  0  0  0  0  0  0  0  0  0
  142.2139   79.9855  224.3323 H   0  0  0  0  0  0  0  0  0  0  0  0
  139.8932   80.7044  224.3176 H   0  0  0  0  0  0  0  0  0  0  0  0
  140.3900   80.9003  222.6288 H   0  0  0  0  0  0  0  0  0  0  0  0
  138.7186   78.7477  223.9273 H   0  0  0  0  0  0  0  0  0  0  0  0
  138.4803   79.6042  222.3580 H   0  0  0  0  0  0  0  0  0  0  0  0
  139.0657   71.0476  221.2152 H   0  0  0  0  0  0  0  0  0  0  0  0
  138.5890   68.9959  222.5205 H   0  0  0  0  0  0  0  0  0  0  0  0
  138.7513   67.7129  224.6451 H   0  0  0  0  0  0  0  0  0  0  0  0
  140.7641   69.5570  227.9785 H   0  0  0  0  0  0  0  0  0  0  0  0
  141.2142   71.6130  226.5956 H   0  0  0  0  0  0  0  0  0  0  0  0
  1  2  2  0
  2  3  1  0
  3  4  1  0
  4  5  1  0
  5  6  2  0
  5  7  1  0
  7  8  1  0
  8  9  1  0
  9 10  1  0
 10 11  1  0
 11 12  1  0
  2 13  1  0
 13 14  2  0
 14 15  1  0
 15 16  2  0
 16 17  1  0
 17 18  2  0
 18 19  1  0
 18 20  1  0
 20 21  2  0
 21 22  1  0
 22 23  2  0
 12  7  1  0
 23 13  1  0
 22 16  1  0
  3 24  1  0
  4 25  1  0
  4 26  1  0
  8 27  1  0
  8 28  1  0
  9 29  1  0
  9 30  1  0
 10 31  1  0
 10 32  1  0
 11 33  1  0
 11 34  1  0
 12 35  1  0
 12 36  1  0
 14 37  1  0
 15 38  1  0
 17 39  1  0
 20 40  1  0
 21 41  1  0
M  END
>  <smiles>  (2) 
O=C(NCC(=O)N1CCCCC1)c1ccc2cc(F)ccc2n1

>  <score_type>  (2) 
oracle

>  <origin>  (2) 
autodockgpu

>  <m_score__min__energy>  (2) 
-7.29

>  <m_primary>  (2) 
energy

>  <rmsd>  (2) 
3.7685837107245956

>  <m_score__min__rmsd>  (2) 
3.7685837107245956

>  <meeko>  (2) 
{"free_energy": -7.12, "intermolecular_energy": -8.01, "internal_energy": -1.0, "cluster_size": 42, "cluster_id": 1, "rank_in_cluster": 32}

>  <energy>  (2) 
-7.25

>  <cluster_rmsd>  (2) 
0.22

>  <cluster>  (2) 
1

$$$$

     RDKit          3D

 41 43  0  0  0  0  0  0  0  0999 V2000
  140.3270   71.0560  221.2330 O   0  0  0  0  0  0  0  0  0  0  0  0
  139.9790   71.6020  222.3230 C   0  0  0  0  0  0  0  0  0  0  0  0
  139.7040   72.9760  222.4040 N   0  0  0  0  0  0  0  0  0  0  0  0
  139.8010   73.8420  221.2630 C   0  0  0  0  0  0  0  0  0  0  0  0
  141.0680   74.6100  221.2400 C   0  0  0  0  0  0  0  0  0  0  0  0
  141.1320   75.6730  221.9020 O   0  0  0  0  0  0  0  0  0  0  0  0
  142.1440   74.0930  220.4660 N   0  0  0  0  0  0  0  0  0  0  0  0
  142.0530   72.8600  219.7050 C   0  0  0  0  0  0  0  0  0  0  0  0
  143.2510   71.9760  219.8280 C   0  0  0  0  0  0  0  0  0  0  0  0
  144.2410   72.6390  220.7630 C   0  0  0  0  0  0  0  0  0  0  0  0
  144.5590   74.0120  220.1580 C   0  0  0  0  0  0  0  0  0  0  0  0
  143.3830   74.8830  220.4700 C   0  0  0  0  0  0  0  0  0  0  0  0
  139.8530   70.7860  223.5480 C   0  0  0  0  0  0  0  0  0  0  0  0
  139.2880   69.5250  223.5240 C   0  0  0  0  0  0  0  0  0  0  0  0
  139.1930   68.7970  224.7040 C   0  0  0  0  0  0  0  0  0  0  0  0
  139.6470   69.2930  225.9090 C   0  0  0  0  0  0  0  0  0  0  0  0
  139.5700   68.6030  227.0950 C   0  0  0  0  0  0  0  0  0  0  0  0
  140.0540   69.1890  228.2480 C   0  0  0  0  0  0  0  0  0  0  0  0
  139.9860   68.5140  229.4420 F   0  0  0  0  0  0  0  0  0  0  0  0
  140.6160   70.4600  228.2260 C   0  0  0  0  0  0  0  0  0  0  0  0
  140.7010   71.1730  227.0290 C   0  0  0  0  0  0  0  0  0  0  0  0
  140.2050   70.5560  225.8910 C   0  0  0  0  0  0  0  0  0  0  0  0
  140.2950   71.2570  224.7460 N   0  0  0  0  0  0  0  0  0  0  0  0
  139.4170   73.3830  223.3360 H   0  0  0  0  0  0  0  0  0  0  0  0
  139.7422   73.2309  220.3502 H   0  0  0  0  0  0  0  0  0  0  0  0
  138.9732   74.5642  221.3200 H   0  0  0  0  0  0  0  0  0  0  0  0
  141.1738   72.3009  220.0575 H   0  0  0  0  0  0  0  0  0  0  0  0
  141.9784   73.1466  218.6456 H   0  0  0  0  0  0  0  0  0  0  0  0
  142.9516   70.9993  220.2360 H   0  0  0  0  0  0  0  0  0  0  0  0
  143.7095   71.8216  218.8401 H   0  0  0  0  0  0  0  0  0  0  0  0
  143.7984   72.7577  221.7630 H   0  0  0  0  0  0  0  0  0  0  0  0
  145.1519   72.0322  220.8732 H   0  0  0  0  0  0  0  0  0  0  0  0
  145.4722   74.4265  220.6100 H   0  0  0  0  0  0  0  0  0  0  0  0
  144.7334   73.9439  219.0741 H   0  0  0  0  0  0  0  0  0  0  0  0
  143.5208   75.3357  221.4630 H   0  0  0  0  0  0  0  0  0  0  0  0
  143.3076   75.6682  219.7033 H   0  0  0  0  0  0  0  0  0  0  0  0
  138.9167   69.1013  222.5792 H   0  0  0  0  0  0  0  0  0  0  0  0
  138.7418   67.7942  224.6766 H   0  0  0  0  0  0  0  0  0  0  0  0
  139.1282   67.5961  227.1255 H   0  0  0  0  0  0  0  0  0  0  0  0
  140.9958   70.9064  229.1568 H   0  0  0  0  0  0  0  0  0  0  0  0
  141.1421   72.1800  226.9904 H   0  0  0  0  0  0  0  0  0  0  0  0
  1  2  2  0
  2  3  1  0
  3  4  1  0
  4  5  1  0
  5  6  2  0
  5  7  1  0
  7  8  1  0
  8  9  1  0
  9 10  1  0
 10 11  1  0
 11 12  1  0
  2 13  1  0
 13 14  2  0
 14 15  1  0
 15 16  2  0
 16 17  1  0
 17 18  2  0
 18 19  1  0
 18 20  1  0
 20 21  2  0
 21 22  1  0
 22 23  2  0
 12  7  1  0
 23 13  1  0
 22 16  1  0
  3 24  1  0
  4 25  1  0
  4 26  1  0
  8 27  1  0
  8 28  1  0
  9 29  1  0
  9 30  1  0
 10 31  1  0
 10 32  1  0
 11 33  1  0
 11 34  1  0
 12 35  1  0
 12 36  1  0
 14 37  1  0
 15 38  1  0
 17 39  1  0
 20 40  1  0
 21 41  1  0
M  END
>  <smiles>  (3) 
O=C(NCC(=O)N1CCCCC1)c1ccc2cc(F)ccc2n1

>  <score_type>  (3) 
oracle

>  <origin>  (3) 
autodockgpu

>  <m_score__min__energy>  (3) 
-7.29

>  <m_primary>  (3) 
energy

>  <rmsd>  (3) 
3.1434634755353597

>  <m_score__min__rmsd>  (3) 
3.1434634755353597

>  <meeko>  (3) 
{"free_energy": -6.86, "intermolecular_energy": -7.75, "internal_energy": -1.04, "cluster_size": 42, "cluster_id": 1, "rank_in_cluster": 41}

>  <energy>  (3) 
-7.19

>  <cluster_rmsd>  (3) 
1.17

>  <cluster>  (3) 
1

$$$$

     RDKit          3D

 41 43  0  0  0  0  0  0  0  0999 V2000
  141.4000   73.0840  221.5800 O   0  0  0  0  0  0  0  0  0  0  0  0
  140.3890   73.0190  222.3420 C   0  0  0  0  0  0  0  0  0  0  0  0
  139.4190   74.0350  222.3660 N   0  0  0  0  0  0  0  0  0  0  0  0
  139.5150   75.2010  221.5350 C   0  0  0  0  0  0  0  0  0  0  0  0
  138.8730   76.3880  222.1470 C   0  0  0  0  0  0  0  0  0  0  0  0
  137.7580   76.2430  222.7010 O   0  0  0  0  0  0  0  0  0  0  0  0
  139.5650   77.6290  222.0710 N   0  0  0  0  0  0  0  0  0  0  0  0
  140.8560   77.7800  221.4260 C   0  0  0  0  0  0  0  0  0  0  0  0
  141.8290   78.6150  222.1930 C   0  0  0  0  0  0  0  0  0  0  0  0
  141.1660   79.0610  223.4800 C   0  0  0  0  0  0  0  0  0  0  0  0
  139.8990   79.8230  223.0760 C   0  0  0  0  0  0  0  0  0  0  0  0
  138.8960   78.7820  222.6900 C   0  0  0  0  0  0  0  0  0  0  0  0
  140.2110   71.8540  223.2320 C   0  0  0  0  0  0  0  0  0  0  0  0
  139.5980   70.6950  222.7940 C   0  0  0  0  0  0  0  0  0  0  0  0
  139.4540   69.6270  223.6700 C   0  0  0  0  0  0  0  0  0  0  0  0
  139.9050   69.6820  224.9730 C   0  0  0  0  0  0  0  0  0  0  0  0
  139.7820   68.6460  225.8680 C   0  0  0  0  0  0  0  0  0  0  0  0
  140.2670   68.8020  227.1510 C   0  0  0  0  0  0  0  0  0  0  0  0
  140.1510   67.7770  228.0580 F   0  0  0  0  0  0  0  0  0  0  0  0
  140.8760   69.9850  227.5490 C   0  0  0  0  0  0  0  0  0  0  0  0
  141.0100   71.0470  226.6510 C   0  0  0  0  0  0  0  0  0  0  0  0
  140.5120   70.8560  225.3720 C   0  0  0  0  0  0  0  0  0  0  0  0
  140.6490   71.8890  224.5200 N   0  0  0  0  0  0  0  0  0  0  0  0
  138.5950   73.9340  223.0200 H   0  0  0  0  0  0  0  0  0  0  0  0
  140.5781   75.4246  221.3623 H   0  0  0  0  0  0  0  0  0  0  0  0
  138.9892   74.9847  220.5933 H   0  0  0  0  0  0  0  0  0  0  0  0
  141.2925   76.7796  221.2890 H   0  0  0  0  0  0  0  0  0  0  0  0
  140.6750   78.2996  220.4735 H   0  0  0  0  0  0  0  0  0  0  0  0
  142.7265   78.0222  222.4235 H   0  0  0  0  0  0  0  0  0  0  0  0
  142.1267   79.4910  221.5979 H   0  0  0  0  0  0  0  0  0  0  0  0
  140.9041   78.1874  224.0950 H   0  0  0  0  0  0  0  0  0  0  0  0
  141.8392   79.6959  224.0748 H   0  0  0  0  0  0  0  0  0  0  0  0
  139.5253   80.4185  223.9220 H   0  0  0  0  0  0  0  0  0  0  0  0
  140.0952   80.5197  222.2477 H   0  0  0  0  0  0  0  0  0  0  0  0
  138.3563   78.4482  223.5885 H   0  0  0  0  0  0  0  0  0  0  0  0
  138.1920   79.2169  221.9652 H   0  0  0  0  0  0  0  0  0  0  0  0
  139.2276   70.6193  221.7610 H   0  0  0  0  0  0  0  0  0  0  0  0
  138.9650   68.7083  223.3139 H   0  0  0  0  0  0  0  0  0  0  0  0
  139.3026   67.7034  225.5653 H   0  0  0  0  0  0  0  0  0  0  0  0
  141.2549   70.0864  228.5767 H   0  0  0  0  0  0  0  0  0  0  0  0
  141.4892   71.9922  226.9460 H   0  0  0  0  0  0  0  0  0  0  0  0
  1  2  2  0
  2  3  1  0
  3  4  1  0
  4  5  1  0
  5  6  2  0
  5  7  1  0
  7  8  1  0
  8  9  1  0
  9 10  1  0
 10 11  1  0
 11 12  1  0
  2 13  1  0
 13 14  2  0
 14 15  1  0
 15 16  2  0
 16 17  1  0
 17 18  2  0
 18 19  1  0
 18 20  1  0
 20 21  2  0
 21 22  1  0
 22 23  2  0
 12  7  1  0
 23 13  1  0
 22 16  1  0
  3 24  1  0
  4 25  1  0
  4 26  1  0
  8 27  1  0
  8 28  1  0
  9 29  1  0
  9 30  1  0
 10 31  1  0
 10 32  1  0
 11 33  1  0
 11 34  1  0
 12 35  1  0
 12 36  1  0
 14 37  1  0
 15 38  1  0
 17 39  1  0
 20 40  1  0
 21 41  1  0
M  END
>  <smiles>  (4) 
O=C(NCC(=O)N1CCCCC1)c1ccc2cc(F)ccc2n1

>  <score_type>  (4) 
oracle

>  <origin>  (4) 
autodockgpu

>  <m_score__min__energy>  (4) 
-7.29

>  <m_primary>  (4) 
energy

>  <rmsd>  (4) 
3.4139248068220662

>  <m_score__min__rmsd>  (4) 
3.4139248068220662

>  <meeko>  (4) 
{"free_energy": -7.19, "intermolecular_energy": -8.08, "internal_energy": -0.91, "cluster_size": 42, "cluster_id": 1, "rank_in_cluster": 4}

>  <energy>  (4) 
-7.19

>  <cluster_rmsd>  (4) 
1.18

>  <cluster>  (4) 
1

$$$$

     RDKit          3D

 41 43  0  0  0  0  0  0  0  0999 V2000
  141.2620   73.2780  221.2090 O   0  0  0  0  0  0  0  0  0  0  0  0
  140.3360   73.2700  222.0750 C   0  0  0  0  0  0  0  0  0  0  0  0
  139.5710   74.4160  222.3450 N   0  0  0  0  0  0  0  0  0  0  0  0
  139.7920   75.6590  221.6620 C   0  0  0  0  0  0  0  0  0  0  0  0
  139.1770   76.8090  222.3640 C   0  0  0  0  0  0  0  0  0  0  0  0
  138.0780   76.6370  222.9420 O   0  0  0  0  0  0  0  0  0  0  0  0
  139.8750   78.0500  222.3430 N   0  0  0  0  0  0  0  0  0  0  0  0
  141.1470   78.2330  221.6700 C   0  0  0  0  0  0  0  0  0  0  0  0
  142.1480   79.0150  222.4570 C   0  0  0  0  0  0  0  0  0  0  0  0
  141.5270   79.3840  223.7880 C   0  0  0  0  0  0  0  0  0  0  0  0
  140.2530   80.1760  223.4700 C   0  0  0  0  0  0  0  0  0  0  0  0
  139.2320   79.1660  223.0520 C   0  0  0  0  0  0  0  0  0  0  0  0
  140.0410   72.0330  222.8260 C   0  0  0  0  0  0  0  0  0  0  0  0
  139.3400   70.9880  222.2530 C   0  0  0  0  0  0  0  0  0  0  0  0
  139.0880   69.8450  223.0030 C   0  0  0  0  0  0  0  0  0  0  0  0
  139.5150   69.7160  224.3080 C   0  0  0  0  0  0  0  0  0  0  0  0
  139.2850   68.6020  225.0790 C   0  0  0  0  0  0  0  0  0  0  0  0
  139.7550   68.5710  226.3770 C   0  0  0  0  0  0  0  0  0  0  0  0
  139.5340   67.4660  227.1620 F   0  0  0  0  0  0  0  0  0  0  0  0
  140.4550   69.6450  226.9120 C   0  0  0  0  0  0  0  0  0  0  0  0
  140.6980   70.7840  226.1410 C   0  0  0  0  0  0  0  0  0  0  0  0
  140.2110   70.7810  224.8430 C   0  0  0  0  0  0  0  0  0  0  0  0
  140.4540   71.8870  224.1140 N   0  0  0  0  0  0  0  0  0  0  0  0
  138.8110   74.3580  223.0770 H   0  0  0  0  0  0  0  0  0  0  0  0
  140.8757   75.8313  221.5849 H   0  0  0  0  0  0  0  0  0  0  0  0
  139.3229   75.5833  220.6699 H   0  0  0  0  0  0  0  0  0  0  0  0
  141.5723   77.2405  221.4598 H   0  0  0  0  0  0  0  0  0  0  0  0
  140.9417   78.8102  220.7564 H   0  0  0  0  0  0  0  0  0  0  0  0
  143.0482   78.4051  222.6234 H   0  0  0  0  0  0  0  0  0  0  0  0
  142.4332   79.9245  221.9080 H   0  0  0  0  0  0  0  0  0  0  0  0
  141.2777   78.4755  224.3558 H   0  0  0  0  0  0  0  0  0  0  0  0
  142.2219   79.9778  224.4000 H   0  0  0  0  0  0  0  0  0  0  0  0
  139.9090   80.7204  224.3618 H   0  0  0  0  0  0  0  0  0  0  0  0
  140.4289   80.9211  222.6802 H   0  0  0  0  0  0  0  0  0  0  0  0
  138.7175   78.7801  223.9444 H   0  0  0  0  0  0  0  0  0  0  0  0
  138.5089   79.6479  222.3775 H   0  0  0  0  0  0  0  0  0  0  0  0
  138.9853   71.0603  221.2143 H   0  0  0  0  0  0  0  0  0  0  0  0
  138.5303   69.0171  222.5409 H   0  0  0  0  0  0  0  0  0  0  0  0
  138.7327   67.7446  224.6668 H   0  0  0  0  0  0  0  0  0  0  0  0
  140.8200   69.5982  227.9486 H   0  0  0  0  0  0  0  0  0  0  0  0
  141.2509   71.6447  226.5455 H   0  0  0  0  0  0  0  0  0  0  0  0
  1  2  2  0
  2  3  1  0
  3  4  1  0
  4  5  1  0
  5  6  2  0
  5  7  1  0
  7  8  1  0
  8  9  1  0
  9 10  1  0
 10 11  1  0
 11 12  1  0
  2 13  1  0
 13 14  2  0
 14 15  1  0
 15 16  2  0
 16 17  1  0
 17 18  2  0
 18 19  1  0
 18 20  1  0
 20 21  2  0
 21 22  1  0
 22 23  2  0
 12  7  1  0
 23 13  1  0
 22 16  1  0
  3 24  1  0
  4 25  1  0
  4 26  1  0
  8 27  1  0
  8 28  1  0
  9 29  1  0
  9 30  1  0
 10 31  1  0
 10 32  1  0
 11 33  1  0
 11 34  1  0
 12 35  1  0
 12 36  1  0
 14 37  1  0
 15 38  1  0
 17 39  1  0
 20 40  1  0
 21 41  1  0
M  END
>  <smiles>  (5) 
O=C(NCC(=O)N1CCCCC1)c1ccc2cc(F)ccc2n1

>  <score_type>  (5) 
oracle

>  <origin>  (5) 
autodockgpu

>  <m_score__min__energy>  (5) 
-7.29

>  <m_primary>  (5) 
energy

>  <rmsd>  (5) 
3.790817356486695

>  <m_score__min__rmsd>  (5) 
3.790817356486695

>  <meeko>  (5) 
{"free_energy": -7.13, "intermolecular_energy": -8.03, "internal_energy": -0.99, "cluster_size": 42, "cluster_id": 1, "rank_in_cluster": 8}

>  <energy>  (5) 
-7.18

>  <cluster_rmsd>  (5) 
1.16

>  <cluster>  (5) 
1

$$$$

     RDKit          3D

 41 43  0  0  0  0  0  0  0  0999 V2000
  141.2420   73.2690  221.1830 O   0  0  0  0  0  0  0  0  0  0  0  0
  140.3280   73.2630  222.0610 C   0  0  0  0  0  0  0  0  0  0  0  0
  139.5720   74.4120  222.3450 N   0  0  0  0  0  0  0  0  0  0  0  0
  139.7880   75.6560  221.6610 C   0  0  0  0  0  0  0  0  0  0  0  0
  139.1830   76.8060  222.3720 C   0  0  0  0  0  0  0  0  0  0  0  0
  138.0900   76.6350  222.9620 O   0  0  0  0  0  0  0  0  0  0  0  0
  139.8830   78.0450  222.3440 N   0  0  0  0  0  0  0  0  0  0  0  0
  141.1470   78.2270  221.6570 C   0  0  0  0  0  0  0  0  0  0  0  0
  142.1600   79.0060  222.4330 C   0  0  0  0  0  0  0  0  0  0  0  0
  141.5540   79.3750  223.7720 C   0  0  0  0  0  0  0  0  0  0  0  0
  140.2780   80.1700  223.4690 C   0  0  0  0  0  0  0  0  0  0  0  0
  139.2510   79.1610  223.0620 C   0  0  0  0  0  0  0  0  0  0  0  0
  140.0380   72.0260  222.8140 C   0  0  0  0  0  0  0  0  0  0  0  0
  139.3580   70.9700  222.2380 C   0  0  0  0  0  0  0  0  0  0  0  0
  139.1100   69.8270  222.9890 C   0  0  0  0  0  0  0  0  0  0  0  0
  139.5220   69.7090  224.3000 C   0  0  0  0  0  0  0  0  0  0  0  0
  139.2960   68.5960  225.0730 C   0  0  0  0  0  0  0  0  0  0  0  0
  139.7490   68.5760  226.3770 C   0  0  0  0  0  0  0  0  0  0  0  0
  139.5310   67.4720  227.1640 F   0  0  0  0  0  0  0  0  0  0  0  0
  140.4290   69.6610  226.9160 C   0  0  0  0  0  0  0  0  0  0  0  0
  140.6680   70.8000  226.1430 C   0  0  0  0  0  0  0  0  0  0  0  0
  140.1980   70.7850  224.8390 C   0  0  0  0  0  0  0  0  0  0  0  0
  140.4360   71.8900  224.1090 N   0  0  0  0  0  0  0  0  0  0  0  0
  138.8220   74.3560  223.0870 H   0  0  0  0  0  0  0  0  0  0  0  0
  140.8711   75.8263  221.5719 H   0  0  0  0  0  0  0  0  0  0  0  0
  139.3079   75.5828  220.6740 H   0  0  0  0  0  0  0  0  0  0  0  0
  141.5677   77.2341  221.4400 H   0  0  0  0  0  0  0  0  0  0  0  0
  140.9316   78.8068  220.7474 H   0  0  0  0  0  0  0  0  0  0  0  0
  143.0605   78.3937  222.5885 H   0  0  0  0  0  0  0  0  0  0  0  0
  142.4421   79.9151  221.8816 H   0  0  0  0  0  0  0  0  0  0  0  0
  141.3092   78.4663  224.3416 H   0  0  0  0  0  0  0  0  0  0  0  0
  142.2568   79.9668  224.3769 H   0  0  0  0  0  0  0  0  0  0  0  0
  139.9450   80.7145  224.3649 H   0  0  0  0  0  0  0  0  0  0  0  0
  140.4460   80.9158  222.6781 H   0  0  0  0  0  0  0  0  0  0  0  0
  138.7471   78.7747  223.9602 H   0  0  0  0  0  0  0  0  0  0  0  0
  138.5209   79.6447  222.3964 H   0  0  0  0  0  0  0  0  0  0  0  0
  139.0160   71.0333  221.1944 H   0  0  0  0  0  0  0  0  0  0  0  0
  138.5683   68.9905  222.5233 H   0  0  0  0  0  0  0  0  0  0  0  0
  138.7599   67.7301  224.6574 H   0  0  0  0  0  0  0  0  0  0  0  0
  140.7813   69.6231  227.9574 H   0  0  0  0  0  0  0  0  0  0  0  0
  141.2048   71.6693  226.5507 H   0  0  0  0  0  0  0  0  0  0  0  0
  1  2  2  0
  2  3  1  0
  3  4  1  0
  4  5  1  0
  5  6  2  0
  5  7  1  0
  7  8  1  0
  8  9  1  0
  9 10  1  0
 10 11  1  0
 11 12  1  0
  2 13  1  0
 13 14  2  0
 14 15  1  0
 15 16  2  0
 16 17  1  0
 17 18  2  0
 18 19  1  0
 18 20  1  0
 20 21  2  0
 21 22  1  0
 22 23  2  0
 12  7  1  0
 23 13  1  0
 22 16  1  0
  3 24  1  0
  4 25  1  0
  4 26  1  0
  8 27  1  0
  8 28  1  0
  9 29  1  0
  9 30  1  0
 10 31  1  0
 10 32  1  0
 11 33  1  0
 11 34  1  0
 12 35  1  0
 12 36  1  0
 14 37  1  0
 15 38  1  0
 17 39  1  0
 20 40  1  0
 21 41  1  0
M  END
>  <smiles>  (6) 
O=C(NCC(=O)N1CCCCC1)c1ccc2cc(F)ccc2n1

>  <score_type>  (6) 
oracle

>  <origin>  (6) 
autodockgpu

>  <m_score__min__energy>  (6) 
-7.29

>  <m_primary>  (6) 
energy

>  <rmsd>  (6) 
3.7850111321530875

>  <m_score__min__rmsd>  (6) 
3.7850111321530875

>  <meeko>  (6) 
{"free_energy": -7.13, "intermolecular_energy": -8.02, "internal_energy": -0.99, "cluster_size": 42, "cluster_id": 1, "rank_in_cluster": 12}

>  <energy>  (6) 
-7.18

>  <cluster_rmsd>  (6) 
1.1

>  <cluster>  (6) 
1

$$$$

     RDKit          3D

 41 43  0  0  0  0  0  0  0  0999 V2000
  141.3650   73.2920  221.3200 O   0  0  0  0  0  0  0  0  0  0  0  0
  140.3850   73.2570  222.1240 C   0  0  0  0  0  0  0  0  0  0  0  0
  139.5660   74.3770  222.3380 N   0  0  0  0  0  0  0  0  0  0  0  0
  139.7900   75.6250  221.6640 C   0  0  0  0  0  0  0  0  0  0  0  0
  139.1720   76.7700  222.3720 C   0  0  0  0  0  0  0  0  0  0  0  0
  138.0780   76.5900  222.9570 O   0  0  0  0  0  0  0  0  0  0  0  0
  139.8610   78.0160  222.3460 N   0  0  0  0  0  0  0  0  0  0  0  0
  141.1260   78.2090  221.6640 C   0  0  0  0  0  0  0  0  0  0  0  0
  142.1280   78.9970  222.4430 C   0  0  0  0  0  0  0  0  0  0  0  0
  141.5140   79.3610  223.7790 C   0  0  0  0  0  0  0  0  0  0  0  0
  140.2330   80.1450  223.4710 C   0  0  0  0  0  0  0  0  0  0  0  0
  139.2160   79.1270  223.0600 C   0  0  0  0  0  0  0  0  0  0  0  0
  140.0810   72.0130  222.8600 C   0  0  0  0  0  0  0  0  0  0  0  0
  139.4010   70.9670  222.2660 C   0  0  0  0  0  0  0  0  0  0  0  0
  139.1400   69.8170  223.0030 C   0  0  0  0  0  0  0  0  0  0  0  0
  139.5400   69.6820  224.3160 C   0  0  0  0  0  0  0  0  0  0  0  0
  139.3010   68.5620  225.0750 C   0  0  0  0  0  0  0  0  0  0  0  0
  139.7430   68.5250  226.3830 C   0  0  0  0  0  0  0  0  0  0  0  0
  139.5120   67.4140  227.1550 F   0  0  0  0  0  0  0  0  0  0  0  0
  140.4240   69.6010  226.9390 C   0  0  0  0  0  0  0  0  0  0  0  0
  140.6760   70.7460  226.1810 C   0  0  0  0  0  0  0  0  0  0  0  0
  140.2170   70.7490  224.8730 C   0  0  0  0  0  0  0  0  0  0  0  0
  140.4680   71.8600  224.1570 N   0  0  0  0  0  0  0  0  0  0  0  0
  138.7620   74.2970  223.0190 H   0  0  0  0  0  0  0  0  0  0  0  0
  140.8740   75.7978  221.5923 H   0  0  0  0  0  0  0  0  0  0  0  0
  139.3252   75.5563  220.6694 H   0  0  0  0  0  0  0  0  0  0  0  0
  141.5566   77.2198  221.4494 H   0  0  0  0  0  0  0  0  0  0  0  0
  140.9091   78.7863  220.7531 H   0  0  0  0  0  0  0  0  0  0  0  0
  143.0335   78.3930  222.6022 H   0  0  0  0  0  0  0  0  0  0  0  0
  142.4037   79.9084  221.8923 H   0  0  0  0  0  0  0  0  0  0  0  0
  141.2746   78.4504  224.3478 H   0  0  0  0  0  0  0  0  0  0  0  0
  142.2095   79.9587  224.3865 H   0  0  0  0  0  0  0  0  0  0  0  0
  139.8919   80.6867  224.3655 H   0  0  0  0  0  0  0  0  0  0  0  0
  140.3978   80.8922  222.6807 H   0  0  0  0  0  0  0  0  0  0  0  0
  138.7111   78.7371  223.9561 H   0  0  0  0  0  0  0  0  0  0  0  0
  138.4848   79.6039  222.3908 H   0  0  0  0  0  0  0  0  0  0  0  0
  139.0693   71.0433  221.2200 H   0  0  0  0  0  0  0  0  0  0  0  0
  138.5974   68.9889  222.5237 H   0  0  0  0  0  0  0  0  0  0  0  0
  138.7633   67.7038  224.6455 H   0  0  0  0  0  0  0  0  0  0  0  0
  140.7667   69.5503  227.9830 H   0  0  0  0  0  0  0  0  0  0  0  0
  141.2147   71.6073  226.6029 H   0  0  0  0  0  0  0  0  0  0  0  0
  1  2  2  0
  2  3  1  0
  3  4  1  0
  4  5  1  0
  5  6  2  0
  5  7  1  0
  7  8  1  0
  8  9  1  0
  9 10  1  0
 10 11  1  0
 11 12  1  0
  2 13  1  0
 13 14  2  0
 14 15  1  0
 15 16  2  0
 16 17  1  0
 17 18  2  0
 18 19  1  0
 18 20  1  0
 20 21  2  0
 21 22  1  0
 22 23  2  0
 12  7  1  0
 23 13  1  0
 22 16  1  0
  3 24  1  0
  4 25  1  0
  4 26  1  0
  8 27  1  0
  8 28  1  0
  9 29  1  0
  9 30  1  0
 10 31  1  0
 10 32  1  0
 11 33  1  0
 11 34  1  0
 12 35  1  0
 12 36  1  0
 14 37  1  0
 15 38  1  0
 17 39  1  0
 20 40  1  0
 21 41  1  0
M  END
>  <smiles>  (7) 
O=C(NCC(=O)N1CCCCC1)c1ccc2cc(F)ccc2n1

>  <score_type>  (7) 
oracle

>  <origin>  (7) 
autodockgpu

>  <m_score__min__energy>  (7) 
-7.29

>  <m_primary>  (7) 
energy

>  <rmsd>  (7) 
3.7805914707950183

>  <m_score__min__rmsd>  (7) 
3.7805914707950183

>  <meeko>  (7) 
{"free_energy": -7.12, "intermolecular_energy": -8.02, "internal_energy": -1.0, "cluster_size": 42, "cluster_id": 1, "rank_in_cluster": 26}

>  <energy>  (7) 
-7.16

>  <cluster_rmsd>  (7) 
1.18

>  <cluster>  (7) 
1

$$$$

     RDKit          3D

 41 43  0  0  0  0  0  0  0  0999 V2000
  139.1800   70.7490  221.4180 O   0  0  0  0  0  0  0  0  0  0  0  0
  139.4520   71.2710  222.5400 C   0  0  0  0  0  0  0  0  0  0  0  0
  139.6500   72.6540  222.6820 N   0  0  0  0  0  0  0  0  0  0  0  0
  139.5570   73.5560  221.5690 C   0  0  0  0  0  0  0  0  0  0  0  0
  140.7650   74.3990  221.4190 C   0  0  0  0  0  0  0  0  0  0  0  0
  140.8000   75.5020  222.0140 O   0  0  0  0  0  0  0  0  0  0  0  0
  141.8230   73.9040  220.6050 N   0  0  0  0  0  0  0  0  0  0  0  0
  141.7670   72.6250  219.9230 C   0  0  0  0  0  0  0  0  0  0  0  0
  143.0270   71.8260  220.0160 C   0  0  0  0  0  0  0  0  0  0  0  0
  144.0260   72.6060  220.8450 C   0  0  0  0  0  0  0  0  0  0  0  0
  144.2140   73.9570  220.1430 C   0  0  0  0  0  0  0  0  0  0  0  0
  143.0040   74.7690  220.4820 C   0  0  0  0  0  0  0  0  0  0  0  0
  139.5680   70.4170  223.7400 C   0  0  0  0  0  0  0  0  0  0  0  0
  139.1000   69.1170  223.7520 C   0  0  0  0  0  0  0  0  0  0  0  0
  139.2330   68.3550  224.9070 C   0  0  0  0  0  0  0  0  0  0  0  0
  139.8200   68.8540  226.0510 C   0  0  0  0  0  0  0  0  0  0  0  0
  139.9690   68.1320  227.2100 C   0  0  0  0  0  0  0  0  0  0  0  0
  140.5720   68.7240  228.3020 C   0  0  0  0  0  0  0  0  0  0  0  0
  140.7290   68.0160  229.4680 F   0  0  0  0  0  0  0  0  0  0  0  0
  141.0290   70.0350  228.2450 C   0  0  0  0  0  0  0  0  0  0  0  0
  140.8850   70.7830  227.0740 C   0  0  0  0  0  0  0  0  0  0  0  0
  140.2750   70.1570  225.9980 C   0  0  0  0  0  0  0  0  0  0  0  0
  140.1450   70.8920  224.8780 N   0  0  0  0  0  0  0  0  0  0  0  0
  139.8760   73.0400  223.6400 H   0  0  0  0  0  0  0  0  0  0  0  0
  139.4207   72.9683  220.6492 H   0  0  0  0  0  0  0  0  0  0  0  0
  138.7034   74.2252  221.7520 H   0  0  0  0  0  0  0  0  0  0  0  0
  140.9505   72.0343  220.3639 H   0  0  0  0  0  0  0  0  0  0  0  0
  141.6079   72.8419  218.8564 H   0  0  0  0  0  0  0  0  0  0  0  0
  142.8192   70.8589  220.4972 H   0  0  0  0  0  0  0  0  0  0  0  0
  143.4325   71.6403  219.0105 H   0  0  0  0  0  0  0  0  0  0  0  0
  143.6387   72.7575  221.8634 H   0  0  0  0  0  0  0  0  0  0  0  0
  144.9804   72.0657  220.9300 H   0  0  0  0  0  0  0  0  0  0  0  0
  145.1237   74.4551  220.5096 H   0  0  0  0  0  0  0  0  0  0  0  0
  144.3255   73.8343  219.0556 H   0  0  0  0  0  0  0  0  0  0  0  0
  143.1728   75.2894  221.4363 H   0  0  0  0  0  0  0  0  0  0  0  0
  142.8285   75.4992  219.6783 H   0  0  0  0  0  0  0  0  0  0  0  0
  138.6266   68.6891  222.8560 H   0  0  0  0  0  0  0  0  0  0  0  0
  138.8581   67.3209  224.9086 H   0  0  0  0  0  0  0  0  0  0  0  0
  139.6117   67.0932  227.2676 H   0  0  0  0  0  0  0  0  0  0  0  0
  141.5069   70.4864  229.1270 H   0  0  0  0  0  0  0  0  0  0  0  0
  141.2397   71.8222  227.0087 H   0  0  0  0  0  0  0  0  0  0  0  0
  1  2  2  0
  2  3  1  0
  3  4  1  0
  4  5  1  0
  5  6  2  0
  5  7  1  0
  7  8  1  0
  8  9  1  0
  9 10  1  0
 10 11  1  0
 11 12  1  0
  2 13  1  0
 13 14  2  0
 14 15  1  0
 15 16  2  0
 16 17  1  0
 17 18  2  0
 18 19  1  0
 18 20  1  0
 20 21  2  0
 21 22  1  0
 22 23  2  0
 12  7  1  0
 23 13  1  0
 22 16  1  0
  3 24  1  0
  4 25  1  0
  4 26  1  0
  8 27  1  0
  8 28  1  0
  9 29  1  0
  9 30  1  0
 10 31  1  0
 10 32  1  0
 11 33  1  0
 11 34  1  0
 12 35  1  0
 12 36  1  0
 14 37  1  0
 15 38  1  0
 17 39  1  0
 20 40  1  0
 21 41  1  0
M  END
>  <smiles>  (8) 
O=C(NCC(=O)N1CCCCC1)c1ccc2cc(F)ccc2n1

>  <score_type>  (8) 
oracle

>  <origin>  (8) 
autodockgpu

>  <m_score__min__energy>  (8) 
-7.29

>  <m_primary>  (8) 
energy

>  <rmsd>  (8) 
3.0862673269941543

>  <m_score__min__rmsd>  (8) 
3.0862673269941543

>  <meeko>  (8) 
{"free_energy": -6.85, "intermolecular_energy": -7.74, "internal_energy": -1.17, "cluster_size": 8, "cluster_id": 2, "rank_in_cluster": 3}

>  <energy>  (8) 
-7.13

>  <cluster_rmsd>  (8) 
1.36

>  <cluster>  (8) 
1

$$$$

     RDKit          3D

 41 43  0  0  0  0  0  0  0  0999 V2000
  141.3140   73.3040  221.2420 O   0  0  0  0  0  0  0  0  0  0  0  0
  140.3630   73.2790  222.0800 C   0  0  0  0  0  0  0  0  0  0  0  0
  139.5710   74.4110  222.3310 N   0  0  0  0  0  0  0  0  0  0  0  0
  139.7900   75.6590  221.6560 C   0  0  0  0  0  0  0  0  0  0  0  0
  139.1800   76.8040  222.3700 C   0  0  0  0  0  0  0  0  0  0  0  0
  138.0890   76.6250  222.9630 O   0  0  0  0  0  0  0  0  0  0  0  0
  139.8710   78.0480  222.3430 N   0  0  0  0  0  0  0  0  0  0  0  0
  141.1320   78.2400  221.6530 C   0  0  0  0  0  0  0  0  0  0  0  0
  142.1410   79.0240  222.4270 C   0  0  0  0  0  0  0  0  0  0  0  0
  141.5370   79.3870  223.7680 C   0  0  0  0  0  0  0  0  0  0  0  0
  140.2550   80.1740  223.4700 C   0  0  0  0  0  0  0  0  0  0  0  0
  139.2330   79.1590  223.0640 C   0  0  0  0  0  0  0  0  0  0  0  0
  140.0670   72.0350  222.8200 C   0  0  0  0  0  0  0  0  0  0  0  0
  139.3820   70.9890  222.2330 C   0  0  0  0  0  0  0  0  0  0  0  0
  139.1280   69.8390  222.9720 C   0  0  0  0  0  0  0  0  0  0  0  0
  139.5390   69.7050  224.2830 C   0  0  0  0  0  0  0  0  0  0  0  0
  139.3070   68.5850  225.0440 C   0  0  0  0  0  0  0  0  0  0  0  0
  139.7610   68.5500  226.3480 C   0  0  0  0  0  0  0  0  0  0  0  0
  139.5370   67.4390  227.1230 F   0  0  0  0  0  0  0  0  0  0  0  0
  140.4460   69.6260  226.8980 C   0  0  0  0  0  0  0  0  0  0  0  0
  140.6900   70.7720  226.1370 C   0  0  0  0  0  0  0  0  0  0  0  0
  140.2200   70.7730  224.8320 C   0  0  0  0  0  0  0  0  0  0  0  0
  140.4640   71.8840  224.1130 N   0  0  0  0  0  0  0  0  0  0  0  0
  138.7910   74.3390  223.0390 H   0  0  0  0  0  0  0  0  0  0  0  0
  140.8734   75.8307  221.5745 H   0  0  0  0  0  0  0  0  0  0  0  0
  139.3158   75.5913  220.6657 H   0  0  0  0  0  0  0  0  0  0  0  0
  141.5590   77.2504  221.4331 H   0  0  0  0  0  0  0  0  0  0  0  0
  140.9101   78.8200  220.7451 H   0  0  0  0  0  0  0  0  0  0  0  0
  143.0460   78.4175  222.5790 H   0  0  0  0  0  0  0  0  0  0  0  0
  142.4150   79.9359  221.8762 H   0  0  0  0  0  0  0  0  0  0  0  0
  141.2999   78.4759  224.3370 H   0  0  0  0  0  0  0  0  0  0  0  0
  142.2378   79.9824  224.3716 H   0  0  0  0  0  0  0  0  0  0  0  0
  139.9210   80.7147  224.3678 H   0  0  0  0  0  0  0  0  0  0  0  0
  140.4159   80.9221  222.6798 H   0  0  0  0  0  0  0  0  0  0  0  0
  138.7335   78.7682  223.9628 H   0  0  0  0  0  0  0  0  0  0  0  0
  138.4980   79.6388  222.4010 H   0  0  0  0  0  0  0  0  0  0  0  0
  139.0405   71.0651  221.1901 H   0  0  0  0  0  0  0  0  0  0  0  0
  138.5826   69.0101  222.4972 H   0  0  0  0  0  0  0  0  0  0  0  0
  138.7661   67.7262  224.6198 H   0  0  0  0  0  0  0  0  0  0  0  0
  140.7984   69.5755  227.9388 H   0  0  0  0  0  0  0  0  0  0  0  0
  141.2305   71.6346  226.5540 H   0  0  0  0  0  0  0  0  0  0  0  0
  1  2  2  0
  2  3  1  0
  3  4  1  0
  4  5  1  0
  5  6  2  0
  5  7  1  0
  7  8  1  0
  8  9  1  0
  9 10  1  0
 10 11  1  0
 11 12  1  0
  2 13  1  0
 13 14  2  0
 14 15  1  0
 15 16  2  0
 16 17  1  0
 17 18  2  0
 18 19  1  0
 18 20  1  0
 20 21  2  0
 21 22  1  0
 22 23  2  0
 12  7  1  0
 23 13  1  0
 22 16  1  0
  3 24  1  0
  4 25  1  0
  4 26  1  0
  8 27  1  0
  8 28  1  0
  9 29  1  0
  9 30  1  0
 10 31  1  0
 10 32  1  0
 11 33  1  0
 11 34  1  0
 12 35  1  0
 12 36  1  0
 14 37  1  0
 15 38  1  0
 17 39  1  0
 20 40  1  0
 21 41  1  0
M  END
>  <smiles>  (9) 
O=C(NCC(=O)N1CCCCC1)c1ccc2cc(F)ccc2n1

>  <score_type>  (9) 
oracle

>  <origin>  (9) 
autodockgpu

>  <m_score__min__energy>  (9) 
-7.29

>  <m_primary>  (9) 
energy

>  <rmsd>  (9) 
3.792711774783362

>  <m_score__min__rmsd>  (9) 
3.792711774783362

>  <meeko>  (9) 
{"free_energy": -7.12, "intermolecular_energy": -8.02, "internal_energy": -1.0, "cluster_size": 42, "cluster_id": 1, "rank_in_cluster": 25}

>  <energy>  (9) 
-7.13

>  <cluster_rmsd>  (9) 
1.36

>  <cluster>  (9) 
1

$$$$

     RDKit          3D

 41 43  0  0  0  0  0  0  0  0999 V2000
  139.8290   73.6870  222.6500 O   0  0  0  0  0  0  0  0  0  0  0  0
  140.2800   72.5120  222.5040 C   0  0  0  0  0  0  0  0  0  0  0  0
  140.9130   72.1080  221.3170 N   0  0  0  0  0  0  0  0  0  0  0  0
  141.0850   72.9970  220.2030 C   0  0  0  0  0  0  0  0  0  0  0  0
  142.1270   74.0200  220.4500 C   0  0  0  0  0  0  0  0  0  0  0  0
  141.7840   75.1070  220.9720 O   0  0  0  0  0  0  0  0  0  0  0  0
  143.4650   73.7070  220.0790 N   0  0  0  0  0  0  0  0  0  0  0  0
  143.8460   72.4440  219.4750 C   0  0  0  0  0  0  0  0  0  0  0  0
  145.0970   71.8510  220.0370 C   0  0  0  0  0  0  0  0  0  0  0  0
  145.6120   72.7650  221.1290 C   0  0  0  0  0  0  0  0  0  0  0  0
  145.8290   74.1380  220.4810 C   0  0  0  0  0  0  0  0  0  0  0  0
  144.4690   74.7480  220.3410 C   0  0  0  0  0  0  0  0  0  0  0  0
  140.1460   71.5300  223.5990 C   0  0  0  0  0  0  0  0  0  0  0  0
  139.5350   70.3060  223.4040 C   0  0  0  0  0  0  0  0  0  0  0  0
  139.4340   69.4170  224.4680 C   0  0  0  0  0  0  0  0  0  0  0  0
  139.9270   69.7150  225.7210 C   0  0  0  0  0  0  0  0  0  0  0  0
  139.8470   68.8630  226.7950 C   0  0  0  0  0  0  0  0  0  0  0  0
  140.3720   69.2560  228.0100 C   0  0  0  0  0  0  0  0  0  0  0  0
  140.3000   68.4170  229.0950 F   0  0  0  0  0  0  0  0  0  0  0  0
  140.9790   70.4970  228.1610 C   0  0  0  0  0  0  0  0  0  0  0  0
  141.0690   71.3750  227.0790 C   0  0  0  0  0  0  0  0  0  0  0  0
  140.5310   70.9480  225.8750 C   0  0  0  0  0  0  0  0  0  0  0  0
  140.6260   71.8060  224.8420 N   0  0  0  0  0  0  0  0  0  0  0  0
  141.2720   71.1160  221.2440 H   0  0  0  0  0  0  0  0  0  0  0  0
  141.3728   72.4059  219.3211 H   0  0  0  0  0  0  0  0  0  0  0  0
  140.1317   73.5223  220.0440 H   0  0  0  0  0  0  0  0  0  0  0  0
  143.0256   71.7272  219.6269 H   0  0  0  0  0  0  0  0  0  0  0  0
  144.0416   72.6474  218.4118 H   0  0  0  0  0  0  0  0  0  0  0  0
  144.8811   70.8570  220.4559 H   0  0  0  0  0  0  0  0  0  0  0  0
  145.8534   71.7453  219.2453 H   0  0  0  0  0  0  0  0  0  0  0  0
  144.8738   72.8404  221.9410 H   0  0  0  0  0  0  0  0  0  0  0  0
  146.5454   72.3784  221.5641 H   0  0  0  0  0  0  0  0  0  0  0  0
  146.4657   74.7664  221.1211 H   0  0  0  0  0  0  0  0  0  0  0  0
  146.3327   74.0488  219.5072 H   0  0  0  0  0  0  0  0  0  0  0  0
  144.2105   75.2748  221.2714 H   0  0  0  0  0  0  0  0  0  0  0  0
  144.4797   75.4538  219.4974 H   0  0  0  0  0  0  0  0  0  0  0  0
  139.1323   70.0376  222.4162 H   0  0  0  0  0  0  0  0  0  0  0  0
  138.9453   68.4450  224.3053 H   0  0  0  0  0  0  0  0  0  0  0  0
  139.3696   67.8777  226.6884 H   0  0  0  0  0  0  0  0  0  0  0  0
  141.3908   70.7892  229.1382 H   0  0  0  0  0  0  0  0  0  0  0  0
  141.5456   72.3615  227.1777 H   0  0  0  0  0  0  0  0  0  0  0  0
  1  2  2  0
  2  3  1  0
  3  4  1  0
  4  5  1  0
  5  6  2  0
  5  7  1  0
  7  8  1  0
  8  9  1  0
  9 10  1  0
 10 11  1  0
 11 12  1  0
  2 13  1  0
 13 14  2  0
 14 15  1  0
 15 16  2  0
 16 17  1  0
 17 18  2  0
 18 19  1  0
 18 20  1  0
 20 21  2  0
 21 22  1  0
 22 23  2  0
 12  7  1  0
 23 13  1  0
 22 16  1  0
  3 24  1  0
  4 25  1  0
  4 26  1  0
  8 27  1  0
  8 28  1  0
  9 29  1  0
  9 30  1  0
 10 31  1  0
 10 32  1  0
 11 33  1  0
 11 34  1  0
 12 35  1  0
 12 36  1  0
 14 37  1  0
 15 38  1  0
 17 39  1  0
 20 40  1  0
 21 41  1  0
M  END
>  <smiles>  (10) 
O=C(NCC(=O)N1CCCCC1)c1ccc2cc(F)ccc2n1

>  <score_type>  (10) 
oracle

>  <origin>  (10) 
autodockgpu

>  <m_score__min__energy>  (10) 
-7.29

>  <m_primary>  (10) 
energy

>  <rmsd>  (10) 
3.925943704302729

>  <m_score__min__rmsd>  (10) 
3.925943704302729

>  <meeko>  (10) 
{"free_energy": -7.14, "intermolecular_energy": -8.03, "internal_energy": -0.72, "cluster_size": 8, "cluster_id": 2, "rank_in_cluster": 2}

>  <energy>  (10) 
-7.13

>  <cluster_rmsd>  (10) 
1.36

>  <cluster>  (10) 
1

$$$$

     RDKit          3D

 41 43  0  0  0  0  0  0  0  0999 V2000
  141.4510   73.2900  221.5340 O   0  0  0  0  0  0  0  0  0  0  0  0
  140.3840   73.2530  222.2180 C   0  0  0  0  0  0  0  0  0  0  0  0
  139.5490   74.3750  222.3430 N   0  0  0  0  0  0  0  0  0  0  0  0
  139.8530   75.6260  221.7080 C   0  0  0  0  0  0  0  0  0  0  0  0
  139.2100   76.7770  222.3840 C   0  0  0  0  0  0  0  0  0  0  0  0
  138.1000   76.5970  222.9390 O   0  0  0  0  0  0  0  0  0  0  0  0
  139.8940   78.0250  222.3650 N   0  0  0  0  0  0  0  0  0  0  0  0
  141.1780   78.2160  221.7180 C   0  0  0  0  0  0  0  0  0  0  0  0
  142.1530   79.0170  222.5180 C   0  0  0  0  0  0  0  0  0  0  0  0
  141.4990   79.3930  223.8310 C   0  0  0  0  0  0  0  0  0  0  0  0
  140.2230   80.1680  223.4760 C   0  0  0  0  0  0  0  0  0  0  0  0
  139.2230   79.1410  223.0470 C   0  0  0  0  0  0  0  0  0  0  0  0
  139.9940   72.0060  222.9060 C   0  0  0  0  0  0  0  0  0  0  0  0
  139.0030   71.1830  222.4060 C   0  0  0  0  0  0  0  0  0  0  0  0
  138.6720   70.0190  223.0920 C   0  0  0  0  0  0  0  0  0  0  0  0
  139.3040   69.6540  224.2630 C   0  0  0  0  0  0  0  0  0  0  0  0
  139.0060   68.5130  224.9670 C   0  0  0  0  0  0  0  0  0  0  0  0
  139.6970   68.2380  226.1300 C   0  0  0  0  0  0  0  0  0  0  0  0
  139.4110   67.1020  226.8460 F   0  0  0  0  0  0  0  0  0  0  0  0
  140.6870   69.0940  226.5950 C   0  0  0  0  0  0  0  0  0  0  0  0
  141.0030   70.2580  225.8910 C   0  0  0  0  0  0  0  0  0  0  0  0
  140.2890   70.5030  224.7280 C   0  0  0  0  0  0  0  0  0  0  0  0
  140.6060   71.6290  224.0620 N   0  0  0  0  0  0  0  0  0  0  0  0
  138.6710   74.2930  222.9250 H   0  0  0  0  0  0  0  0  0  0  0  0
  140.9431   75.7728  221.7219 H   0  0  0  0  0  0  0  0  0  0  0  0
  139.4636   75.5822  220.6802 H   0  0  0  0  0  0  0  0  0  0  0  0
  141.6188   77.2264  221.5270 H   0  0  0  0  0  0  0  0  0  0  0  0
  140.9859   78.7820  220.7945 H   0  0  0  0  0  0  0  0  0  0  0  0
  143.0558   78.4188  222.7105 H   0  0  0  0  0  0  0  0  0  0  0  0
  142.4406   79.9237  221.9656 H   0  0  0  0  0  0  0  0  0  0  0  0
  141.2471   78.4878  224.4030 H   0  0  0  0  0  0  0  0  0  0  0  0
  142.1737   80.0007  224.4518 H   0  0  0  0  0  0  0  0  0  0  0  0
  139.8533   80.7183  224.3538 H   0  0  0  0  0  0  0  0  0  0  0  0
  140.4078   80.9068  222.6822 H   0  0  0  0  0  0  0  0  0  0  0  0
  138.6935   78.7589  223.9322 H   0  0  0  0  0  0  0  0  0  0  0  0
  138.5096   79.6068  222.3513 H   0  0  0  0  0  0  0  0  0  0  0  0
  138.4808   71.4458  221.4742 H   0  0  0  0  0  0  0  0  0  0  0  0
  137.8816   69.3691  222.6883 H   0  0  0  0  0  0  0  0  0  0  0  0
  138.2255   67.8260  224.6081 H   0  0  0  0  0  0  0  0  0  0  0  0
  141.2255   68.8536  227.5236 H   0  0  0  0  0  0  0  0  0  0  0  0
  141.7830   70.9491  226.2432 H   0  0  0  0  0  0  0  0  0  0  0  0
  1  2  2  0
  2  3  1  0
  3  4  1  0
  4  5  1  0
  5  6  2  0
  5  7  1  0
  7  8  1  0
  8  9  1  0
  9 10  1  0
 10 11  1  0
 11 12  1  0
  2 13  1  0
 13 14  2  0
 14 15  1  0
 15 16  2  0
 16 17  1  0
 17 18  2  0
 18 19  1  0
 18 20  1  0
 20 21  2  0
 21 22  1  0
 22 23  2  0
 12  7  1  0
 23 13  1  0
 22 16  1  0
  3 24  1  0
  4 25  1  0
  4 26  1  0
  8 27  1  0
  8 28  1  0
  9 29  1  0
  9 30  1  0
 10 31  1  0
 10 32  1  0
 11 33  1  0
 11 34  1  0
 12 35  1  0
 12 36  1  0
 14 37  1  0
 15 38  1  0
 17 39  1  0
 20 40  1  0
 21 41  1  0
M  END
>  <smiles>  (11) 
O=C(NCC(=O)N1CCCCC1)c1ccc2cc(F)ccc2n1

>  <score_type>  (11) 
oracle

>  <origin>  (11) 
autodockgpu

>  <m_score__min__energy>  (11) 
-7.29

>  <m_primary>  (11) 
energy

>  <rmsd>  (11) 
3.8638700619196786

>  <m_score__min__rmsd>  (11) 
3.8638700619196786

>  <meeko>  (11) 
{"free_energy": -7.07, "intermolecular_energy": -7.96, "internal_energy": -1.0, "cluster_size": 42, "cluster_id": 1, "rank_in_cluster": 37}

>  <energy>  (11) 
-7.13

>  <cluster_rmsd>  (11) 
1.36

>  <cluster>  (11) 
1

$$$$

     RDKit          3D

 41 43  0  0  0  0  0  0  0  0999 V2000
  139.0220   70.7710  221.4760 O   0  0  0  0  0  0  0  0  0  0  0  0
  139.3940   71.2720  222.5800 C   0  0  0  0  0  0  0  0  0  0  0  0
  139.6650   72.6440  222.7120 N   0  0  0  0  0  0  0  0  0  0  0  0
  139.5410   73.5550  221.6100 C   0  0  0  0  0  0  0  0  0  0  0  0
  140.7360   74.4150  221.4470 C   0  0  0  0  0  0  0  0  0  0  0  0
  140.7640   75.5160  222.0470 O   0  0  0  0  0  0  0  0  0  0  0  0
  141.7880   73.9380  220.6160 N   0  0  0  0  0  0  0  0  0  0  0  0
  141.7400   72.6620  219.9290 C   0  0  0  0  0  0  0  0  0  0  0  0
  143.0120   71.8790  220.0000 C   0  0  0  0  0  0  0  0  0  0  0  0
  144.0120   72.6690  220.8190 C   0  0  0  0  0  0  0  0  0  0  0  0
  144.1720   74.0250  220.1220 C   0  0  0  0  0  0  0  0  0  0  0  0
  142.9570   74.8200  220.4820 C   0  0  0  0  0  0  0  0  0  0  0  0
  139.5480   70.4070  223.7670 C   0  0  0  0  0  0  0  0  0  0  0  0
  139.1170   69.0940  223.7670 C   0  0  0  0  0  0  0  0  0  0  0  0
  139.2860   68.3210  224.9100 C   0  0  0  0  0  0  0  0  0  0  0  0
  139.8740   68.8220  226.0530 C   0  0  0  0  0  0  0  0  0  0  0  0
  140.0580   68.0890  227.2000 C   0  0  0  0  0  0  0  0  0  0  0  0
  140.6570   68.6850  228.2930 C   0  0  0  0  0  0  0  0  0  0  0  0
  140.8480   67.9670  229.4480 F   0  0  0  0  0  0  0  0  0  0  0  0
  141.0750   70.0080  228.2480 C   0  0  0  0  0  0  0  0  0  0  0  0
  140.8960   70.7670  227.0890 C   0  0  0  0  0  0  0  0  0  0  0  0
  140.2910   70.1380  226.0120 C   0  0  0  0  0  0  0  0  0  0  0  0
  140.1250   70.8830  224.9040 N   0  0  0  0  0  0  0  0  0  0  0  0
  139.9720   73.0120  223.6530 H   0  0  0  0  0  0  0  0  0  0  0  0
  139.3958   72.9744  220.6871 H   0  0  0  0  0  0  0  0  0  0  0  0
  138.6824   74.2115  221.8144 H   0  0  0  0  0  0  0  0  0  0  0  0
  140.9378   72.0583  220.3784 H   0  0  0  0  0  0  0  0  0  0  0  0
  141.5634   72.8821  218.8658 H   0  0  0  0  0  0  0  0  0  0  0  0
  142.8241   70.9069  220.4792 H   0  0  0  0  0  0  0  0  0  0  0  0
  143.4057   71.7032  218.9880 H   0  0  0  0  0  0  0  0  0  0  0  0
  143.6369   72.8103  221.8434 H   0  0  0  0  0  0  0  0  0  0  0  0
  144.9747   72.1413  220.8878 H   0  0  0  0  0  0  0  0  0  0  0  0
  145.0804   74.5329  220.4782 H   0  0  0  0  0  0  0  0  0  0  0  0
  144.2690   73.9088  219.0325 H   0  0  0  0  0  0  0  0  0  0  0  0
  143.1321   75.3371  221.4369 H   0  0  0  0  0  0  0  0  0  0  0  0
  142.7614   75.5529  219.6854 H   0  0  0  0  0  0  0  0  0  0  0  0
  138.6447   68.6646  222.8711 H   0  0  0  0  0  0  0  0  0  0  0  0
  138.9399   67.2769  224.9028 H   0  0  0  0  0  0  0  0  0  0  0  0
  139.7321   67.0395  227.2477 H   0  0  0  0  0  0  0  0  0  0  0  0
  141.5501   70.4615  229.1304 H   0  0  0  0  0  0  0  0  0  0  0  0
  141.2205   71.8166  227.0335 H   0  0  0  0  0  0  0  0  0  0  0  0
  1  2  2  0
  2  3  1  0
  3  4  1  0
  4  5  1  0
  5  6  2  0
  5  7  1  0
  7  8  1  0
  8  9  1  0
  9 10  1  0
 10 11  1  0
 11 12  1  0
  2 13  1  0
 13 14  2  0
 14 15  1  0
 15 16  2  0
 16 17  1  0
 17 18  2  0
 18 19  1  0
 18 20  1  0
 20 21  2  0
 21 22  1  0
 22 23  2  0
 12  7  1  0
 23 13  1  0
 22 16  1  0
  3 24  1  0
  4 25  1  0
  4 26  1  0
  8 27  1  0
  8 28  1  0
  9 29  1  0
  9 30  1  0
 10 31  1  0
 10 32  1  0
 11 33  1  0
 11 34  1  0
 12 35  1  0
 12 36  1  0
 14 37  1  0
 15 38  1  0
 17 39  1  0
 20 40  1  0
 21 41  1  0
M  END
>  <smiles>  (12) 
O=C(NCC(=O)N1CCCCC1)c1ccc2cc(F)ccc2n1

>  <score_type>  (12) 
oracle

>  <origin>  (12) 
autodockgpu

>  <m_score__min__energy>  (12) 
-7.29

>  <m_primary>  (12) 
energy

>  <rmsd>  (12) 
3.062416958304292

>  <m_score__min__rmsd>  (12) 
3.062416958304292

>  <meeko>  (12) 
{"free_energy": -6.83, "intermolecular_energy": -7.72, "internal_energy": -1.17, "cluster_size": 8, "cluster_id": 2, "rank_in_cluster": 7}

>  <energy>  (12) 
-7.13

>  <cluster_rmsd>  (12) 
1.36

>  <cluster>  (12) 
1

$$$$

     RDKit          3D

 41 43  0  0  0  0  0  0  0  0999 V2000
  141.2330   73.2740  221.1680 O   0  0  0  0  0  0  0  0  0  0  0  0
  140.3220   73.2680  222.0510 C   0  0  0  0  0  0  0  0  0  0  0  0
  139.5710   74.4190  222.3400 N   0  0  0  0  0  0  0  0  0  0  0  0
  139.7880   75.6630  221.6590 C   0  0  0  0  0  0  0  0  0  0  0  0
  139.1780   76.8120  222.3680 C   0  0  0  0  0  0  0  0  0  0  0  0
  138.0850   76.6360  222.9580 O   0  0  0  0  0  0  0  0  0  0  0  0
  139.8720   78.0540  222.3400 N   0  0  0  0  0  0  0  0  0  0  0  0
  141.1360   78.2410  221.6530 C   0  0  0  0  0  0  0  0  0  0  0  0
  142.1440   79.0250  222.4290 C   0  0  0  0  0  0  0  0  0  0  0  0
  141.5370   79.3920  223.7670 C   0  0  0  0  0  0  0  0  0  0  0  0
  140.2580   80.1820  223.4620 C   0  0  0  0  0  0  0  0  0  0  0  0
  139.2340   79.1680  223.0560 C   0  0  0  0  0  0  0  0  0  0  0  0
  140.0310   72.0300  222.8010 C   0  0  0  0  0  0  0  0  0  0  0  0
  139.3540   70.9740  222.2210 C   0  0  0  0  0  0  0  0  0  0  0  0
  139.1050   69.8300  222.9700 C   0  0  0  0  0  0  0  0  0  0  0  0
  139.5130   69.7100  224.2830 C   0  0  0  0  0  0  0  0  0  0  0  0
  139.2860   68.5960  225.0540 C   0  0  0  0  0  0  0  0  0  0  0  0
  139.7360   68.5750  226.3590 C   0  0  0  0  0  0  0  0  0  0  0  0
  139.5160   67.4700  227.1440 F   0  0  0  0  0  0  0  0  0  0  0  0
  140.4130   69.6610  226.9010 C   0  0  0  0  0  0  0  0  0  0  0  0
  140.6520   70.8000  226.1310 C   0  0  0  0  0  0  0  0  0  0  0  0
  140.1860   70.7870  224.8250 C   0  0  0  0  0  0  0  0  0  0  0  0
  140.4260   71.8930  224.0970 N   0  0  0  0  0  0  0  0  0  0  0  0
  138.8230   74.3620  223.0850 H   0  0  0  0  0  0  0  0  0  0  0  0
  140.8712   75.8350  221.5752 H   0  0  0  0  0  0  0  0  0  0  0  0
  139.3123   75.5899  220.6699 H   0  0  0  0  0  0  0  0  0  0  0  0
  141.5614   77.2498  221.4372 H   0  0  0  0  0  0  0  0  0  0  0  0
  140.9188   78.8186  220.7424 H   0  0  0  0  0  0  0  0  0  0  0  0
  143.0474   78.4171  222.5851 H   0  0  0  0  0  0  0  0  0  0  0  0
  142.4211   79.9354  221.8772 H   0  0  0  0  0  0  0  0  0  0  0  0
  141.2954   78.4828  224.3371 H   0  0  0  0  0  0  0  0  0  0  0  0
  142.2373   79.9863  224.3723 H   0  0  0  0  0  0  0  0  0  0  0  0
  139.9226   80.7268  224.3568 H   0  0  0  0  0  0  0  0  0  0  0  0
  140.4237   80.9270  222.6698 H   0  0  0  0  0  0  0  0  0  0  0  0
  138.7312   78.7808  223.9545 H   0  0  0  0  0  0  0  0  0  0  0  0
  138.5015   79.6475  222.3900 H   0  0  0  0  0  0  0  0  0  0  0  0
  139.0154   71.0383  221.1764 H   0  0  0  0  0  0  0  0  0  0  0  0
  138.5656   68.9937  222.5014 H   0  0  0  0  0  0  0  0  0  0  0  0
  138.7515   67.7301  224.6362 H   0  0  0  0  0  0  0  0  0  0  0  0
  140.7626   69.6225  227.9433 H   0  0  0  0  0  0  0  0  0  0  0  0
  141.1862   71.6694  226.5417 H   0  0  0  0  0  0  0  0  0  0  0  0
  1  2  2  0
  2  3  1  0
  3  4  1  0
  4  5  1  0
  5  6  2  0
  5  7  1  0
  7  8  1  0
  8  9  1  0
  9 10  1  0
 10 11  1  0
 11 12  1  0
  2 13  1  0
 13 14  2  0
 14 15  1  0
 15 16  2  0
 16 17  1  0
 17 18  2  0
 18 19  1  0
 18 20  1  0
 20 21  2  0
 21 22  1  0
 22 23  2  0
 12  7  1  0
 23 13  1  0
 22 16  1  0
  3 24  1  0
  4 25  1  0
  4 26  1  0
  8 27  1  0
  8 28  1  0
  9 29  1  0
  9 30  1  0
 10 31  1  0
 10 32  1  0
 11 33  1  0
 11 34  1  0
 12 35  1  0
 12 36  1  0
 14 37  1  0
 15 38  1  0
 17 39  1  0
 20 40  1  0
 21 41  1  0
M  END
>  <smiles>  (13) 
O=C(NCC(=O)N1CCCCC1)c1ccc2cc(F)ccc2n1

>  <score_type>  (13) 
oracle

>  <origin>  (13) 
autodockgpu

>  <m_score__min__energy>  (13) 
-7.29

>  <m_primary>  (13) 
energy

>  <rmsd>  (13) 
3.7888294612548084

>  <m_score__min__rmsd>  (13) 
3.7888294612548084

>  <meeko>  (13) 
{"free_energy": -7.12, "intermolecular_energy": -8.02, "internal_energy": -1.01, "cluster_size": 42, "cluster_id": 1, "rank_in_cluster": 31}

>  <energy>  (13) 
-7.13

>  <cluster_rmsd>  (13) 
1.36

>  <cluster>  (13) 
1

$$$$

     RDKit          3D

 41 43  0  0  0  0  0  0  0  0999 V2000
  141.3300   73.3130  221.2700 O   0  0  0  0  0  0  0  0  0  0  0  0
  140.3740   73.2790  222.1010 C   0  0  0  0  0  0  0  0  0  0  0  0
  139.5700   74.4050  222.3450 N   0  0  0  0  0  0  0  0  0  0  0  0
  139.7830   75.6550  221.6710 C   0  0  0  0  0  0  0  0  0  0  0  0
  139.1710   76.7970  222.3880 C   0  0  0  0  0  0  0  0  0  0  0  0
  138.0830   76.6130  222.9830 O   0  0  0  0  0  0  0  0  0  0  0  0
  139.8590   78.0430  222.3620 N   0  0  0  0  0  0  0  0  0  0  0  0
  141.1180   78.2390  221.6690 C   0  0  0  0  0  0  0  0  0  0  0  0
  142.1260   79.0250  222.4420 C   0  0  0  0  0  0  0  0  0  0  0  0
  141.5240   79.3840  223.7850 C   0  0  0  0  0  0  0  0  0  0  0  0
  140.2390   80.1680  223.4910 C   0  0  0  0  0  0  0  0  0  0  0  0
  139.2190   79.1510  223.0850 C   0  0  0  0  0  0  0  0  0  0  0  0
  140.0840   72.0340  222.8400 C   0  0  0  0  0  0  0  0  0  0  0  0
  139.4050   70.9840  222.2510 C   0  0  0  0  0  0  0  0  0  0  0  0
  139.1560   69.8330  222.9900 C   0  0  0  0  0  0  0  0  0  0  0  0
  139.5670   69.7000  224.3000 C   0  0  0  0  0  0  0  0  0  0  0  0
  139.3400   68.5790  225.0610 C   0  0  0  0  0  0  0  0  0  0  0  0
  139.7930   68.5450  226.3650 C   0  0  0  0  0  0  0  0  0  0  0  0
  139.5740   67.4320  227.1400 F   0  0  0  0  0  0  0  0  0  0  0  0
  140.4720   69.6240  226.9170 C   0  0  0  0  0  0  0  0  0  0  0  0
  140.7100   70.7720  226.1570 C   0  0  0  0  0  0  0  0  0  0  0  0
  140.2420   70.7710  224.8520 C   0  0  0  0  0  0  0  0  0  0  0  0
  140.4810   71.8840  224.1340 N   0  0  0  0  0  0  0  0  0  0  0  0
  138.7860   74.3260  223.0490 H   0  0  0  0  0  0  0  0  0  0  0  0
  140.8657   75.8305  221.5869 H   0  0  0  0  0  0  0  0  0  0  0  0
  139.3064   75.5870  220.6819 H   0  0  0  0  0  0  0  0  0  0  0  0
  141.5473   77.2508  221.4472 H   0  0  0  0  0  0  0  0  0  0  0  0
  140.8928   78.8189  220.7618 H   0  0  0  0  0  0  0  0  0  0  0  0
  143.0333   78.4212  222.5910 H   0  0  0  0  0  0  0  0  0  0  0  0
  142.3957   79.9387  221.8921 H   0  0  0  0  0  0  0  0  0  0  0  0
  141.2907   78.4713  224.3530 H   0  0  0  0  0  0  0  0  0  0  0  0
  142.2245   79.9803  224.3881 H   0  0  0  0  0  0  0  0  0  0  0  0
  139.9053   80.7060  224.3905 H   0  0  0  0  0  0  0  0  0  0  0  0
  140.3963   80.9181  222.7019 H   0  0  0  0  0  0  0  0  0  0  0  0
  138.7217   78.7578  223.9839 H   0  0  0  0  0  0  0  0  0  0  0  0
  138.4818   79.6297  222.4236 H   0  0  0  0  0  0  0  0  0  0  0  0
  139.0649   71.0583  221.2076 H   0  0  0  0  0  0  0  0  0  0  0  0
  138.6140   69.0020  222.5149 H   0  0  0  0  0  0  0  0  0  0  0  0
  138.8032   67.7179  224.6362 H   0  0  0  0  0  0  0  0  0  0  0  0
  140.8241   69.5743  227.9579 H   0  0  0  0  0  0  0  0  0  0  0  0
  141.2446   71.6376  226.5752 H   0  0  0  0  0  0  0  0  0  0  0  0
  1  2  2  0
  2  3  1  0
  3  4  1  0
  4  5  1  0
  5  6  2  0
  5  7  1  0
  7  8  1  0
  8  9  1  0
  9 10  1  0
 10 11  1  0
 11 12  1  0
  2 13  1  0
 13 14  2  0
 14 15  1  0
 15 16  2  0
 16 17  1  0
 17 18  2  0
 18 19  1  0
 18 20  1  0
 20 21  2  0
 21 22  1  0
 22 23  2  0
 12  7  1  0
 23 13  1  0
 22 16  1  0
  3 24  1  0
  4 25  1  0
  4 26  1  0
  8 27  1  0
  8 28  1  0
  9 29  1  0
  9 30  1  0
 10 31  1  0
 10 32  1  0
 11 33  1  0
 11 34  1  0
 12 35  1  0
 12 36  1  0
 14 37  1  0
 15 38  1  0
 17 39  1  0
 20 40  1  0
 21 41  1  0
M  END
>  <smiles>  (14) 
O=C(NCC(=O)N1CCCCC1)c1ccc2cc(F)ccc2n1

>  <score_type>  (14) 
oracle

>  <origin>  (14) 
autodockgpu

>  <m_score__min__energy>  (14) 
-7.29

>  <m_primary>  (14) 
energy

>  <rmsd>  (14) 
3.7949513569658686

>  <m_score__min__rmsd>  (14) 
3.7949513569658686

>  <meeko>  (14) 
{"free_energy": -7.12, "intermolecular_energy": -8.02, "internal_energy": -1.0, "cluster_size": 42, "cluster_id": 1, "rank_in_cluster": 17}

>  <energy>  (14) 
-7.13

>  <cluster_rmsd>  (14) 
1.36

>  <cluster>  (14) 
1

$$$$

     RDKit          3D

 41 43  0  0  0  0  0  0  0  0999 V2000
  141.3720   73.3080  221.3480 O   0  0  0  0  0  0  0  0  0  0  0  0
  140.3800   73.2700  222.1370 C   0  0  0  0  0  0  0  0  0  0  0  0
  139.5520   74.3880  222.3330 N   0  0  0  0  0  0  0  0  0  0  0  0
  139.7780   75.6330  221.6560 C   0  0  0  0  0  0  0  0  0  0  0  0
  139.1520   76.7790  222.3530 C   0  0  0  0  0  0  0  0  0  0  0  0
  138.0550   76.5970  222.9330 O   0  0  0  0  0  0  0  0  0  0  0  0
  139.8350   78.0270  222.3250 N   0  0  0  0  0  0  0  0  0  0  0  0
  141.1040   78.2220  221.6500 C   0  0  0  0  0  0  0  0  0  0  0  0
  142.0980   79.0190  222.4310 C   0  0  0  0  0  0  0  0  0  0  0  0
  141.4740   79.3870  223.7610 C   0  0  0  0  0  0  0  0  0  0  0  0
  140.1910   80.1640  223.4410 C   0  0  0  0  0  0  0  0  0  0  0  0
  139.1810   79.1400  223.0290 C   0  0  0  0  0  0  0  0  0  0  0  0
  140.0730   72.0290  222.8760 C   0  0  0  0  0  0  0  0  0  0  0  0
  139.3740   70.9910  222.2890 C   0  0  0  0  0  0  0  0  0  0  0  0
  139.1110   69.8430  223.0270 C   0  0  0  0  0  0  0  0  0  0  0  0
  139.5270   69.7010  224.3350 C   0  0  0  0  0  0  0  0  0  0  0  0
  139.2860   68.5820  225.0950 C   0  0  0  0  0  0  0  0  0  0  0  0
  139.7450   68.5390  226.3970 C   0  0  0  0  0  0  0  0  0  0  0  0
  139.5130   67.4290  227.1700 F   0  0  0  0  0  0  0  0  0  0  0  0
  140.4450   69.6060  226.9460 C   0  0  0  0  0  0  0  0  0  0  0  0
  140.6980   70.7510  226.1860 C   0  0  0  0  0  0  0  0  0  0  0  0
  140.2230   70.7600  224.8840 C   0  0  0  0  0  0  0  0  0  0  0  0
  140.4750   71.8700  224.1660 N   0  0  0  0  0  0  0  0  0  0  0  0
  138.7380   74.3050  223.0020 H   0  0  0  0  0  0  0  0  0  0  0  0
  140.8621   75.8082  221.5924 H   0  0  0  0  0  0  0  0  0  0  0  0
  139.3211   75.5586  220.6582 H   0  0  0  0  0  0  0  0  0  0  0  0
  141.5403   77.2335  221.4437 H   0  0  0  0  0  0  0  0  0  0  0  0
  140.8903   78.7935  220.7347 H   0  0  0  0  0  0  0  0  0  0  0  0
  143.0052   78.4201  222.5990 H   0  0  0  0  0  0  0  0  0  0  0  0
  142.3731   79.9287  221.8771 H   0  0  0  0  0  0  0  0  0  0  0  0
  141.2351   78.4782  224.3329 H   0  0  0  0  0  0  0  0  0  0  0  0
  142.1630   79.9910  224.3697 H   0  0  0  0  0  0  0  0  0  0  0  0
  139.8420   80.7087  224.3307 H   0  0  0  0  0  0  0  0  0  0  0  0
  140.3575   80.9078  222.6478 H   0  0  0  0  0  0  0  0  0  0  0  0
  138.6717   78.7531  223.9240 H   0  0  0  0  0  0  0  0  0  0  0  0
  138.4525   79.6105  222.3523 H   0  0  0  0  0  0  0  0  0  0  0  0
  139.0291   71.0728  221.2477 H   0  0  0  0  0  0  0  0  0  0  0  0
  138.5535   69.0215  222.5533 H   0  0  0  0  0  0  0  0  0  0  0  0
  138.7338   67.7301  224.6714 H   0  0  0  0  0  0  0  0  0  0  0  0
  140.8022   69.5492  227.9849 H   0  0  0  0  0  0  0  0  0  0  0  0
  141.2494   71.6069  226.6024 H   0  0  0  0  0  0  0  0  0  0  0  0
  1  2  2  0
  2  3  1  0
  3  4  1  0
  4  5  1  0
  5  6  2  0
  5  7  1  0
  7  8  1  0
  8  9  1  0
  9 10  1  0
 10 11  1  0
 11 12  1  0
  2 13  1  0
 13 14  2  0
 14 15  1  0
 15 16  2  0
 16 17  1  0
 17 18  2  0
 18 19  1  0
 18 20  1  0
 20 21  2  0
 21 22  1  0
 22 23  2  0
 12  7  1  0
 23 13  1  0
 22 16  1  0
  3 24  1  0
  4 25  1  0
  4 26  1  0
  8 27  1  0
  8 28  1  0
  9 29  1  0
  9 30  1  0
 10 31  1  0
 10 32  1  0
 11 33  1  0
 11 34  1  0
 12 35  1  0
 12 36  1  0
 14 37  1  0
 15 38  1  0
 17 39  1  0
 20 40  1  0
 21 41  1  0
M  END
>  <smiles>  (15) 
O=C(NCC(=O)N1CCCCC1)c1ccc2cc(F)ccc2n1

>  <score_type>  (15) 
oracle

>  <origin>  (15) 
autodockgpu

>  <m_score__min__energy>  (15) 
-7.29

>  <m_primary>  (15) 
energy

>  <rmsd>  (15) 
3.7757658332433963

>  <m_score__min__rmsd>  (15) 
3.7757658332433963

>  <meeko>  (15) 
{"free_energy": -7.13, "intermolecular_energy": -8.02, "internal_energy": -0.99, "cluster_size": 42, "cluster_id": 1, "rank_in_cluster": 15}

>  <energy>  (15) 
-7.13

>  <cluster_rmsd>  (15) 
1.35

>  <cluster>  (15) 
1

$$$$

     RDKit          3D

 41 43  0  0  0  0  0  0  0  0999 V2000
  141.3160   73.3020  221.2480 O   0  0  0  0  0  0  0  0  0  0  0  0
  140.3640   73.2740  222.0840 C   0  0  0  0  0  0  0  0  0  0  0  0
  139.5680   74.4040  222.3320 N   0  0  0  0  0  0  0  0  0  0  0  0
  139.7850   75.6530  221.6570 C   0  0  0  0  0  0  0  0  0  0  0  0
  139.1750   76.7970  222.3730 C   0  0  0  0  0  0  0  0  0  0  0  0
  138.0860   76.6160  222.9690 O   0  0  0  0  0  0  0  0  0  0  0  0
  139.8640   78.0420  222.3430 N   0  0  0  0  0  0  0  0  0  0  0  0
  141.1230   78.2350  221.6490 C   0  0  0  0  0  0  0  0  0  0  0  0
  142.1340   79.0210  222.4200 C   0  0  0  0  0  0  0  0  0  0  0  0
  141.5330   79.3830  223.7620 C   0  0  0  0  0  0  0  0  0  0  0  0
  140.2490   80.1680  223.4680 C   0  0  0  0  0  0  0  0  0  0  0  0
  139.2270   79.1520  223.0650 C   0  0  0  0  0  0  0  0  0  0  0  0
  140.0700   72.0300  222.8240 C   0  0  0  0  0  0  0  0  0  0  0  0
  139.3880   70.9820  222.2370 C   0  0  0  0  0  0  0  0  0  0  0  0
  139.1360   69.8320  222.9760 C   0  0  0  0  0  0  0  0  0  0  0  0
  139.5470   69.6990  224.2870 C   0  0  0  0  0  0  0  0  0  0  0  0
  139.3170   68.5790  225.0480 C   0  0  0  0  0  0  0  0  0  0  0  0
  139.7690   68.5460  226.3530 C   0  0  0  0  0  0  0  0  0  0  0  0
  139.5480   67.4340  227.1280 F   0  0  0  0  0  0  0  0  0  0  0  0
  140.4510   69.6230  226.9030 C   0  0  0  0  0  0  0  0  0  0  0  0
  140.6940   70.7690  226.1420 C   0  0  0  0  0  0  0  0  0  0  0  0
  140.2250   70.7690  224.8370 C   0  0  0  0  0  0  0  0  0  0  0  0
  140.4670   71.8800  224.1180 N   0  0  0  0  0  0  0  0  0  0  0  0
  138.7860   74.3300  223.0390 H   0  0  0  0  0  0  0  0  0  0  0  0
  140.8682   75.8257  221.5738 H   0  0  0  0  0  0  0  0  0  0  0  0
  139.3095   75.5856  220.6674 H   0  0  0  0  0  0  0  0  0  0  0  0
  141.5504   77.2457  221.4285 H   0  0  0  0  0  0  0  0  0  0  0  0
  140.8978   78.8142  220.7414 H   0  0  0  0  0  0  0  0  0  0  0  0
  143.0403   78.4158  222.5695 H   0  0  0  0  0  0  0  0  0  0  0  0
  142.4057   79.9330  221.8683 H   0  0  0  0  0  0  0  0  0  0  0  0
  141.2989   78.4715  224.3316 H   0  0  0  0  0  0  0  0  0  0  0  0
  142.2345   79.9797  224.3635 H   0  0  0  0  0  0  0  0  0  0  0  0
  139.9170   80.7081  224.3669 H   0  0  0  0  0  0  0  0  0  0  0  0
  140.4066   80.9163  222.6773 H   0  0  0  0  0  0  0  0  0  0  0  0
  138.7303   78.7610  223.9652 H   0  0  0  0  0  0  0  0  0  0  0  0
  138.4898   79.6309  222.4038 H   0  0  0  0  0  0  0  0  0  0  0  0
  139.0473   71.0568  221.1938 H   0  0  0  0  0  0  0  0  0  0  0  0
  138.5921   69.0021  222.5013 H   0  0  0  0  0  0  0  0  0  0  0  0
  138.7793   67.7185  224.6234 H   0  0  0  0  0  0  0  0  0  0  0  0
  140.8021   69.5736  227.9443 H   0  0  0  0  0  0  0  0  0  0  0  0
  141.2330   71.6324  226.5591 H   0  0  0  0  0  0  0  0  0  0  0  0
  1  2  2  0
  2  3  1  0
  3  4  1  0
  4  5  1  0
  5  6  2  0
  5  7  1  0
  7  8  1  0
  8  9  1  0
  9 10  1  0
 10 11  1  0
 11 12  1  0
  2 13  1  0
 13 14  2  0
 14 15  1  0
 15 16  2  0
 16 17  1  0
 17 18  2  0
 18 19  1  0
 18 20  1  0
 20 21  2  0
 21 22  1  0
 22 23  2  0
 12  7  1  0
 23 13  1  0
 22 16  1  0
  3 24  1  0
  4 25  1  0
  4 26  1  0
  8 27  1  0
  8 28  1  0
  9 29  1  0
  9 30  1  0
 10 31  1  0
 10 32  1  0
 11 33  1  0
 11 34  1  0
 12 35  1  0
 12 36  1  0
 14 37  1  0
 15 38  1  0
 17 39  1  0
 20 40  1  0
 21 41  1  0
M  END
>  <smiles>  (16) 
O=C(NCC(=O)N1CCCCC1)c1ccc2cc(F)ccc2n1

>  <score_type>  (16) 
oracle

>  <origin>  (16) 
autodockgpu

>  <m_score__min__energy>  (16) 
-7.29

>  <m_primary>  (16) 
energy

>  <rmsd>  (16) 
3.787993357064384

>  <m_score__min__rmsd>  (16) 
3.787993357064384

>  <meeko>  (16) 
{"free_energy": -7.12, "intermolecular_energy": -8.02, "internal_energy": -1.0, "cluster_size": 42, "cluster_id": 1, "rank_in_cluster": 27}

>  <energy>  (16) 
-7.12

>  <cluster_rmsd>  (16) 
1.36

>  <cluster>  (16) 
1

$$$$

     RDKit          3D

 41 43  0  0  0  0  0  0  0  0999 V2000
  139.1420   70.7730  221.4520 O   0  0  0  0  0  0  0  0  0  0  0  0
  139.4490   71.2760  222.5740 C   0  0  0  0  0  0  0  0  0  0  0  0
  139.6760   72.6540  222.7270 N   0  0  0  0  0  0  0  0  0  0  0  0
  139.5760   73.5700  221.6260 C   0  0  0  0  0  0  0  0  0  0  0  0
  140.8060   74.3730  221.4430 C   0  0  0  0  0  0  0  0  0  0  0  0
  140.8850   75.4840  222.0190 O   0  0  0  0  0  0  0  0  0  0  0  0
  141.8350   73.8340  220.6200 N   0  0  0  0  0  0  0  0  0  0  0  0
  141.7290   72.5460  219.9600 C   0  0  0  0  0  0  0  0  0  0  0  0
  142.9650   71.7110  220.0460 C   0  0  0  0  0  0  0  0  0  0  0  0
  144.0020   72.4730  220.8450 C   0  0  0  0  0  0  0  0  0  0  0  0
  144.2190   73.8060  220.1180 C   0  0  0  0  0  0  0  0  0  0  0  0
  143.0400   74.6610  220.4640 C   0  0  0  0  0  0  0  0  0  0  0  0
  139.5750   70.4070  223.7620 C   0  0  0  0  0  0  0  0  0  0  0  0
  139.1290   69.0990  223.7520 C   0  0  0  0  0  0  0  0  0  0  0  0
  139.2700   68.3220  224.8960 C   0  0  0  0  0  0  0  0  0  0  0  0
  139.8450   68.8140  226.0490 C   0  0  0  0  0  0  0  0  0  0  0  0
  140.0020   68.0760  227.1980 C   0  0  0  0  0  0  0  0  0  0  0  0
  140.5910   68.6620  228.3010 C   0  0  0  0  0  0  0  0  0  0  0  0
  140.7550   67.9390  229.4570 F   0  0  0  0  0  0  0  0  0  0  0  0
  141.0250   69.9810  228.2660 C   0  0  0  0  0  0  0  0  0  0  0  0
  140.8730   70.7440  227.1060 C   0  0  0  0  0  0  0  0  0  0  0  0
  140.2780   70.1240  226.0180 C   0  0  0  0  0  0  0  0  0  0  0  0
  140.1390   70.8740  224.9090 N   0  0  0  0  0  0  0  0  0  0  0  0
  139.9300   73.0240  223.6840 H   0  0  0  0  0  0  0  0  0  0  0  0
  139.3889   72.9967  220.7061 H   0  0  0  0  0  0  0  0  0  0  0  0
  138.7521   74.2656  221.8438 H   0  0  0  0  0  0  0  0  0  0  0  0
  140.9024   71.9877  220.4236 H   0  0  0  0  0  0  0  0  0  0  0  0
  141.5589   72.7504  218.8926 H   0  0  0  0  0  0  0  0  0  0  0  0
  142.7360   70.7588  220.5470 H   0  0  0  0  0  0  0  0  0  0  0  0
  143.3475   71.4969  219.0371 H   0  0  0  0  0  0  0  0  0  0  0  0
  143.6375   72.6526  221.8672 H   0  0  0  0  0  0  0  0  0  0  0  0
  144.9407   71.9048  220.9225 H   0  0  0  0  0  0  0  0  0  0  0  0
  145.1498   74.2814  220.4610 H   0  0  0  0  0  0  0  0  0  0  0  0
  144.3076   73.6625  219.0310 H   0  0  0  0  0  0  0  0  0  0  0  0
  143.2407   75.1905  221.4071 H   0  0  0  0  0  0  0  0  0  0  0  0
  142.8735   75.3843  219.6522 H   0  0  0  0  0  0  0  0  0  0  0  0
  138.6669   68.6768  222.8475 H   0  0  0  0  0  0  0  0  0  0  0  0
  138.9117   67.2821  224.8812 H   0  0  0  0  0  0  0  0  0  0  0  0
  139.6623   67.0305  227.2384 H   0  0  0  0  0  0  0  0  0  0  0  0
  141.4910   70.4272  229.1569 H   0  0  0  0  0  0  0  0  0  0  0  0
  141.2103   71.7899  227.0578 H   0  0  0  0  0  0  0  0  0  0  0  0
  1  2  2  0
  2  3  1  0
  3  4  1  0
  4  5  1  0
  5  6  2  0
  5  7  1  0
  7  8  1  0
  8  9  1  0
  9 10  1  0
 10 11  1  0
 11 12  1  0
  2 13  1  0
 13 14  2  0
 14 15  1  0
 15 16  2  0
 16 17  1  0
 17 18  2  0
 18 19  1  0
 18 20  1  0
 20 21  2  0
 21 22  1  0
 22 23  2  0
 12  7  1  0
 23 13  1  0
 22 16  1  0
  3 24  1  0
  4 25  1  0
  4 26  1  0
  8 27  1  0
  8 28  1  0
  9 29  1  0
  9 30  1  0
 10 31  1  0
 10 32  1  0
 11 33  1  0
 11 34  1  0
 12 35  1  0
 12 36  1  0
 14 37  1  0
 15 38  1  0
 17 39  1  0
 20 40  1  0
 21 41  1  0
M  END
>  <smiles>  (17) 
O=C(NCC(=O)N1CCCCC1)c1ccc2cc(F)ccc2n1

>  <score_type>  (17) 
oracle

>  <origin>  (17) 
autodockgpu

>  <m_score__min__energy>  (17) 
-7.29

>  <m_primary>  (17) 
energy

>  <rmsd>  (17) 
3.1240546206224256

>  <m_score__min__rmsd>  (17) 
3.1240546206224256

>  <meeko>  (17) 
{"free_energy": -6.83, "intermolecular_energy": -7.73, "internal_energy": -1.19, "cluster_size": 8, "cluster_id": 2, "rank_in_cluster": 6}

>  <energy>  (17) 
-7.12

>  <cluster_rmsd>  (17) 
1.36

>  <cluster>  (17) 
1

$$$$

     RDKit          3D

 41 43  0  0  0  0  0  0  0  0999 V2000
  141.2420   73.2640  221.1750 O   0  0  0  0  0  0  0  0  0  0  0  0
  140.3300   73.2550  222.0560 C   0  0  0  0  0  0  0  0  0  0  0  0
  139.5740   74.4030  222.3450 N   0  0  0  0  0  0  0  0  0  0  0  0
  139.7890   75.6490  221.6650 C   0  0  0  0  0  0  0  0  0  0  0  0
  139.1780   76.7960  222.3770 C   0  0  0  0  0  0  0  0  0  0  0  0
  138.0870   76.6180  222.9690 O   0  0  0  0  0  0  0  0  0  0  0  0
  139.8700   78.0390  222.3480 N   0  0  0  0  0  0  0  0  0  0  0  0
  141.1320   78.2290  221.6590 C   0  0  0  0  0  0  0  0  0  0  0  0
  142.1410   79.0140  222.4340 C   0  0  0  0  0  0  0  0  0  0  0  0
  141.5360   79.3790  223.7730 C   0  0  0  0  0  0  0  0  0  0  0  0
  140.2550   80.1660  223.4720 C   0  0  0  0  0  0  0  0  0  0  0  0
  139.2320   79.1520  223.0670 C   0  0  0  0  0  0  0  0  0  0  0  0
  140.0420   72.0150  222.8050 C   0  0  0  0  0  0  0  0  0  0  0  0
  139.3610   70.9610  222.2260 C   0  0  0  0  0  0  0  0  0  0  0  0
  139.1140   69.8160  222.9730 C   0  0  0  0  0  0  0  0  0  0  0  0
  139.5290   69.6930  224.2840 C   0  0  0  0  0  0  0  0  0  0  0  0
  139.3040   68.5770  225.0530 C   0  0  0  0  0  0  0  0  0  0  0  0
  139.7600   68.5530  226.3560 C   0  0  0  0  0  0  0  0  0  0  0  0
  139.5440   67.4460  227.1400 F   0  0  0  0  0  0  0  0  0  0  0  0
  140.4410   69.6360  226.8980 C   0  0  0  0  0  0  0  0  0  0  0  0
  140.6780   70.7780  226.1280 C   0  0  0  0  0  0  0  0  0  0  0  0
  140.2060   70.7670  224.8250 C   0  0  0  0  0  0  0  0  0  0  0  0
  140.4420   71.8750  224.0980 N   0  0  0  0  0  0  0  0  0  0  0  0
  138.8260   74.3440  223.0890 H   0  0  0  0  0  0  0  0  0  0  0  0
  140.8719   75.8225  221.5803 H   0  0  0  0  0  0  0  0  0  0  0  0
  139.3128   75.5770  220.6761 H   0  0  0  0  0  0  0  0  0  0  0  0
  141.5586   77.2388  221.4411 H   0  0  0  0  0  0  0  0  0  0  0  0
  140.9118   78.8076  220.7497 H   0  0  0  0  0  0  0  0  0  0  0  0
  143.0454   78.4071  222.5880 H   0  0  0  0  0  0  0  0  0  0  0  0
  142.4161   79.9251  221.8824 H   0  0  0  0  0  0  0  0  0  0  0  0
  141.2977   78.4689  224.3431 H   0  0  0  0  0  0  0  0  0  0  0  0
  142.2363   79.9749  224.3767 H   0  0  0  0  0  0  0  0  0  0  0  0
  139.9207   80.7089  224.3684 H   0  0  0  0  0  0  0  0  0  0  0  0
  140.4177   80.9119  222.6800 H   0  0  0  0  0  0  0  0  0  0  0  0
  138.7314   78.7632  223.9660 H   0  0  0  0  0  0  0  0  0  0  0  0
  138.4977   79.6315  222.4030 H   0  0  0  0  0  0  0  0  0  0  0  0
  139.0176   71.0281  221.1831 H   0  0  0  0  0  0  0  0  0  0  0  0
  138.5709   68.9815  222.5054 H   0  0  0  0  0  0  0  0  0  0  0  0
  138.7668   67.7126  224.6355 H   0  0  0  0  0  0  0  0  0  0  0  0
  140.7954   69.5944  227.9385 H   0  0  0  0  0  0  0  0  0  0  0  0
  141.2149   71.6463  226.5376 H   0  0  0  0  0  0  0  0  0  0  0  0
  1  2  2  0
  2  3  1  0
  3  4  1  0
  4  5  1  0
  5  6  2  0
  5  7  1  0
  7  8  1  0
  8  9  1  0
  9 10  1  0
 10 11  1  0
 11 12  1  0
  2 13  1  0
 13 14  2  0
 14 15  1  0
 15 16  2  0
 16 17  1  0
 17 18  2  0
 18 19  1  0
 18 20  1  0
 20 21  2  0
 21 22  1  0
 22 23  2  0
 12  7  1  0
 23 13  1  0
 22 16  1  0
  3 24  1  0
  4 25  1  0
  4 26  1  0
  8 27  1  0
  8 28  1  0
  9 29  1  0
  9 30  1  0
 10 31  1  0
 10 32  1  0
 11 33  1  0
 11 34  1  0
 12 35  1  0
 12 36  1  0
 14 37  1  0
 15 38  1  0
 17 39  1  0
 20 40  1  0
 21 41  1  0
M  END
>  <smiles>  (18) 
O=C(NCC(=O)N1CCCCC1)c1ccc2cc(F)ccc2n1

>  <score_type>  (18) 
oracle

>  <origin>  (18) 
autodockgpu

>  <m_score__min__energy>  (18) 
-7.29

>  <m_primary>  (18) 
energy

>  <rmsd>  (18) 
3.785864472203215

>  <m_score__min__rmsd>  (18) 
3.785864472203215

>  <meeko>  (18) 
{"free_energy": -7.12, "intermolecular_energy": -8.02, "internal_energy": -1.0, "cluster_size": 42, "cluster_id": 1, "rank_in_cluster": 22}

>  <energy>  (18) 
-7.12

>  <cluster_rmsd>  (18) 
1.36

>  <cluster>  (18) 
1

$$$$

     RDKit          3D

 41 43  0  0  0  0  0  0  0  0999 V2000
  141.2170   73.2660  221.1650 O   0  0  0  0  0  0  0  0  0  0  0  0
  140.3110   73.2610  222.0520 C   0  0  0  0  0  0  0  0  0  0  0  0
  139.5590   74.4110  222.3430 N   0  0  0  0  0  0  0  0  0  0  0  0
  139.7710   75.6550  221.6590 C   0  0  0  0  0  0  0  0  0  0  0  0
  139.1570   76.8030  222.3640 C   0  0  0  0  0  0  0  0  0  0  0  0
  138.0580   76.6290  222.9420 O   0  0  0  0  0  0  0  0  0  0  0  0
  139.8550   78.0430  222.3480 N   0  0  0  0  0  0  0  0  0  0  0  0
  141.1270   78.2280  221.6750 C   0  0  0  0  0  0  0  0  0  0  0  0
  142.1290   79.0070  222.4650 C   0  0  0  0  0  0  0  0  0  0  0  0
  141.5080   79.3720  223.7970 C   0  0  0  0  0  0  0  0  0  0  0  0
  140.2350   80.1660  223.4810 C   0  0  0  0  0  0  0  0  0  0  0  0
  139.2130   79.1570  223.0600 C   0  0  0  0  0  0  0  0  0  0  0  0
  140.0260   72.0240  222.8070 C   0  0  0  0  0  0  0  0  0  0  0  0
  139.3440   70.9670  222.2330 C   0  0  0  0  0  0  0  0  0  0  0  0
  139.1010   69.8240  222.9860 C   0  0  0  0  0  0  0  0  0  0  0  0
  139.5190   69.7070  224.2960 C   0  0  0  0  0  0  0  0  0  0  0  0
  139.2970   68.5940  225.0700 C   0  0  0  0  0  0  0  0  0  0  0  0
  139.7570   68.5750  226.3720 C   0  0  0  0  0  0  0  0  0  0  0  0
  139.5430   67.4710  227.1600 F   0  0  0  0  0  0  0  0  0  0  0  0
  140.4380   69.6610  226.9080 C   0  0  0  0  0  0  0  0  0  0  0  0
  140.6720   70.8000  226.1330 C   0  0  0  0  0  0  0  0  0  0  0  0
  140.1960   70.7840  224.8310 C   0  0  0  0  0  0  0  0  0  0  0  0
  140.4300   71.8890  224.0990 N   0  0  0  0  0  0  0  0  0  0  0  0
  138.8160   74.3560  223.0920 H   0  0  0  0  0  0  0  0  0  0  0  0
  140.8536   75.8310  221.5749 H   0  0  0  0  0  0  0  0  0  0  0  0
  139.2951   75.5774  220.6703 H   0  0  0  0  0  0  0  0  0  0  0  0
  141.5518   77.2362  221.4609 H   0  0  0  0  0  0  0  0  0  0  0  0
  140.9216   78.8086  220.7635 H   0  0  0  0  0  0  0  0  0  0  0  0
  143.0287   78.3959  222.6295 H   0  0  0  0  0  0  0  0  0  0  0  0
  142.4151   79.9181  221.9190 H   0  0  0  0  0  0  0  0  0  0  0  0
  141.2578   78.4618  224.3617 H   0  0  0  0  0  0  0  0  0  0  0  0
  142.2032   79.9630  224.4113 H   0  0  0  0  0  0  0  0  0  0  0  0
  139.8913   80.7083  224.3742 H   0  0  0  0  0  0  0  0  0  0  0  0
  140.4115   80.9133  222.6934 H   0  0  0  0  0  0  0  0  0  0  0  0
  138.6985   78.7688  223.9514 H   0  0  0  0  0  0  0  0  0  0  0  0
  138.4902   79.6411  222.3868 H   0  0  0  0  0  0  0  0  0  0  0  0
  138.9972   71.0299  221.1910 H   0  0  0  0  0  0  0  0  0  0  0  0
  138.5585   68.9865  222.5231 H   0  0  0  0  0  0  0  0  0  0  0  0
  138.7590   67.7278  224.6574 H   0  0  0  0  0  0  0  0  0  0  0  0
  140.7948   69.6240  227.9479 H   0  0  0  0  0  0  0  0  0  0  0  0
  141.2097   71.6701  226.5378 H   0  0  0  0  0  0  0  0  0  0  0  0
  1  2  2  0
  2  3  1  0
  3  4  1  0
  4  5  1  0
  5  6  2  0
  5  7  1  0
  7  8  1  0
  8  9  1  0
  9 10  1  0
 10 11  1  0
 11 12  1  0
  2 13  1  0
 13 14  2  0
 14 15  1  0
 15 16  2  0
 16 17  1  0
 17 18  2  0
 18 19  1  0
 18 20  1  0
 20 21  2  0
 21 22  1  0
 22 23  2  0
 12  7  1  0
 23 13  1  0
 22 16  1  0
  3 24  1  0
  4 25  1  0
  4 26  1  0
  8 27  1  0
  8 28  1  0
  9 29  1  0
  9 30  1  0
 10 31  1  0
 10 32  1  0
 11 33  1  0
 11 34  1  0
 12 35  1  0
 12 36  1  0
 14 37  1  0
 15 38  1  0
 17 39  1  0
 20 40  1  0
 21 41  1  0
M  END
>  <smiles>  (19) 
O=C(NCC(=O)N1CCCCC1)c1ccc2cc(F)ccc2n1

>  <score_type>  (19) 
oracle

>  <origin>  (19) 
autodockgpu

>  <m_score__min__energy>  (19) 
-7.29

>  <m_primary>  (19) 
energy

>  <rmsd>  (19) 
3.7872727273978692

>  <m_score__min__rmsd>  (19) 
3.7872727273978692

>  <meeko>  (19) 
{"free_energy": -7.13, "intermolecular_energy": -8.02, "internal_energy": -0.99, "cluster_size": 42, "cluster_id": 1, "rank_in_cluster": 14}

>  <energy>  (19) 
-7.12

>  <cluster_rmsd>  (19) 
1.36

>  <cluster>  (19) 
1

$$$$

     RDKit          3D

 41 43  0  0  0  0  0  0  0  0999 V2000
  139.2940   70.7610  221.4120 O   0  0  0  0  0  0  0  0  0  0  0  0
  139.5430   71.2660  222.5480 C   0  0  0  0  0  0  0  0  0  0  0  0
  139.7340   72.6480  222.7140 N   0  0  0  0  0  0  0  0  0  0  0  0
  139.6620   73.5650  221.6120 C   0  0  0  0  0  0  0  0  0  0  0  0
  140.9120   74.3390  221.4350 C   0  0  0  0  0  0  0  0  0  0  0  0
  141.0140   75.4480  222.0120 O   0  0  0  0  0  0  0  0  0  0  0  0
  141.9320   73.7750  220.6180 N   0  0  0  0  0  0  0  0  0  0  0  0
  141.7990   72.4910  219.9570 C   0  0  0  0  0  0  0  0  0  0  0  0
  143.0150   71.6270  220.0480 C   0  0  0  0  0  0  0  0  0  0  0  0
  144.0650   72.3640  220.8530 C   0  0  0  0  0  0  0  0  0  0  0  0
  144.3170   73.6910  220.1290 C   0  0  0  0  0  0  0  0  0  0  0  0
  143.1570   74.5740  220.4680 C   0  0  0  0  0  0  0  0  0  0  0  0
  139.6350   70.3950  223.7370 C   0  0  0  0  0  0  0  0  0  0  0  0
  139.1610   69.0980  223.7240 C   0  0  0  0  0  0  0  0  0  0  0  0
  139.2720   68.3190  224.8690 C   0  0  0  0  0  0  0  0  0  0  0  0
  139.8450   68.7990  226.0290 C   0  0  0  0  0  0  0  0  0  0  0  0
  139.9720   68.0590  227.1800 C   0  0  0  0  0  0  0  0  0  0  0  0
  140.5610   68.6330  228.2890 C   0  0  0  0  0  0  0  0  0  0  0  0
  140.6960   67.9080  229.4480 F   0  0  0  0  0  0  0  0  0  0  0  0
  141.0250   69.9420  228.2580 C   0  0  0  0  0  0  0  0  0  0  0  0
  140.9030   70.7070  227.0960 C   0  0  0  0  0  0  0  0  0  0  0  0
  140.3070   70.0990  226.0020 C   0  0  0  0  0  0  0  0  0  0  0  0
  140.1970   70.8510  224.8910 N   0  0  0  0  0  0  0  0  0  0  0  0
  139.9400   73.0200  223.6810 H   0  0  0  0  0  0  0  0  0  0  0  0
  139.4666   72.9954  220.6915 H   0  0  0  0  0  0  0  0  0  0  0  0
  138.8537   74.2801  221.8248 H   0  0  0  0  0  0  0  0  0  0  0  0
  140.9574   71.9519  220.4165 H   0  0  0  0  0  0  0  0  0  0  0  0
  141.6386   72.7000  218.8890 H   0  0  0  0  0  0  0  0  0  0  0  0
  142.7615   70.6799  220.5467 H   0  0  0  0  0  0  0  0  0  0  0  0
  143.3975   71.4049  219.0408 H   0  0  0  0  0  0  0  0  0  0  0  0
  143.6992   72.5514  221.8733 H   0  0  0  0  0  0  0  0  0  0  0  0
  144.9897   71.7740  220.9350 H   0  0  0  0  0  0  0  0  0  0  0  0
  145.2567   74.1440  220.4779 H   0  0  0  0  0  0  0  0  0  0  0  0
  144.4081   73.5457  219.0425 H   0  0  0  0  0  0  0  0  0  0  0  0
  143.3650   75.0994  221.4118 H   0  0  0  0  0  0  0  0  0  0  0  0
  143.0120   75.3007  219.6551 H   0  0  0  0  0  0  0  0  0  0  0  0
  138.6995   68.6852  222.8148 H   0  0  0  0  0  0  0  0  0  0  0  0
  138.8912   67.2872  224.8503 H   0  0  0  0  0  0  0  0  0  0  0  0
  139.6086   67.0214  227.2173 H   0  0  0  0  0  0  0  0  0  0  0  0
  141.4911   70.3784  229.1537 H   0  0  0  0  0  0  0  0  0  0  0  0
  141.2636   71.7452  227.0509 H   0  0  0  0  0  0  0  0  0  0  0  0
  1  2  2  0
  2  3  1  0
  3  4  1  0
  4  5  1  0
  5  6  2  0
  5  7  1  0
  7  8  1  0
  8  9  1  0
  9 10  1  0
 10 11  1  0
 11 12  1  0
  2 13  1  0
 13 14  2  0
 14 15  1  0
 15 16  2  0
 16 17  1  0
 17 18  2  0
 18 19  1  0
 18 20  1  0
 20 21  2  0
 21 22  1  0
 22 23  2  0
 12  7  1  0
 23 13  1  0
 22 16  1  0
  3 24  1  0
  4 25  1  0
  4 26  1  0
  8 27  1  0
  8 28  1  0
  9 29  1  0
  9 30  1  0
 10 31  1  0
 10 32  1  0
 11 33  1  0
 11 34  1  0
 12 35  1  0
 12 36  1  0
 14 37  1  0
 15 38  1  0
 17 39  1  0
 20 40  1  0
 21 41  1  0
M  END
>  <smiles>  (20) 
O=C(NCC(=O)N1CCCCC1)c1ccc2cc(F)ccc2n1

>  <score_type>  (20) 
oracle

>  <origin>  (20) 
autodockgpu

>  <m_score__min__energy>  (20) 
-7.29

>  <m_primary>  (20) 
energy

>  <rmsd>  (20) 
3.1815793206107132

>  <m_score__min__rmsd>  (20) 
3.1815793206107132

>  <meeko>  (20) 
{"free_energy": -6.83, "intermolecular_energy": -7.73, "internal_energy": -1.18, "cluster_size": 8, "cluster_id": 2, "rank_in_cluster": 5}

>  <energy>  (20) 
-7.12

>  <cluster_rmsd>  (20) 
1.36

>  <cluster>  (20) 
1

$$$$

     RDKit          3D

 41 43  0  0  0  0  0  0  0  0999 V2000
  141.4420   72.6490  221.9440 O   0  0  0  0  0  0  0  0  0  0  0  0
  140.3530   72.6310  222.5940 C   0  0  0  0  0  0  0  0  0  0  0  0
  139.3100   73.5260  222.3070 N   0  0  0  0  0  0  0  0  0  0  0  0
  139.4140   74.5110  221.2670 C   0  0  0  0  0  0  0  0  0  0  0  0
  140.4230   75.5510  221.5700 C   0  0  0  0  0  0  0  0  0  0  0  0
  141.6030   75.3670  221.1870 O   0  0  0  0  0  0  0  0  0  0  0  0
  139.9930   76.7070  222.2810 N   0  0  0  0  0  0  0  0  0  0  0  0
  138.6240   76.9050  222.7170 C   0  0  0  0  0  0  0  0  0  0  0  0
  138.1000   78.2850  222.4810 C   0  0  0  0  0  0  0  0  0  0  0  0
  139.1860   79.1000  221.8100 C   0  0  0  0  0  0  0  0  0  0  0  0
  140.4000   79.0630  222.7470 C   0  0  0  0  0  0  0  0  0  0  0  0
  141.0240   77.7160  222.5610 C   0  0  0  0  0  0  0  0  0  0  0  0
  140.1600   71.6510  223.6810 C   0  0  0  0  0  0  0  0  0  0  0  0
  139.4740   70.4690  223.4770 C   0  0  0  0  0  0  0  0  0  0  0  0
  139.3190   69.5790  224.5340 C   0  0  0  0  0  0  0  0  0  0  0  0
  139.8320   69.8360  225.7890 C   0  0  0  0  0  0  0  0  0  0  0  0
  139.6990   68.9810  226.8560 C   0  0  0  0  0  0  0  0  0  0  0  0
  140.2500   69.3310  228.0730 C   0  0  0  0  0  0  0  0  0  0  0  0
  140.1270   68.4880  229.1510 F   0  0  0  0  0  0  0  0  0  0  0  0
  140.9330   70.5300  228.2330 C   0  0  0  0  0  0  0  0  0  0  0  0
  141.0760   71.4100  227.1580 C   0  0  0  0  0  0  0  0  0  0  0  0
  140.5110   71.0270  225.9510 C   0  0  0  0  0  0  0  0  0  0  0  0
  140.6580   71.8860  224.9260 N   0  0  0  0  0  0  0  0  0  0  0  0
  138.4220   73.4710  222.8770 H   0  0  0  0  0  0  0  0  0  0  0  0
  139.6968   74.0072  220.3310 H   0  0  0  0  0  0  0  0  0  0  0  0
  138.4370   75.0087  221.1792 H   0  0  0  0  0  0  0  0  0  0  0  0
  137.9828   76.1949  222.1742 H   0  0  0  0  0  0  0  0  0  0  0  0
  138.6120   76.7437  223.8050 H   0  0  0  0  0  0  0  0  0  0  0  0
  137.2139   78.2399  221.8308 H   0  0  0  0  0  0  0  0  0  0  0  0
  137.8143   78.7495  223.4363 H   0  0  0  0  0  0  0  0  0  0  0  0
  139.4444   78.6597  220.8357 H   0  0  0  0  0  0  0  0  0  0  0  0
  138.8541   80.1331  221.6296 H   0  0  0  0  0  0  0  0  0  0  0  0
  141.1142   79.8554  222.4786 H   0  0  0  0  0  0  0  0  0  0  0  0
  140.1060   79.2296  223.7938 H   0  0  0  0  0  0  0  0  0  0  0  0
  141.7294   77.7568  221.7179 H   0  0  0  0  0  0  0  0  0  0  0  0
  141.5534   77.4379  223.4843 H   0  0  0  0  0  0  0  0  0  0  0  0
  139.0544   70.2343  222.4876 H   0  0  0  0  0  0  0  0  0  0  0  0
  138.7703   68.6408  224.3645 H   0  0  0  0  0  0  0  0  0  0  0  0
  139.1600   68.0289  226.7424 H   0  0  0  0  0  0  0  0  0  0  0  0
  141.3636   70.7878  229.2118 H   0  0  0  0  0  0  0  0  0  0  0  0
  141.6128   72.3642  227.2641 H   0  0  0  0  0  0  0  0  0  0  0  0
  1  2  2  0
  2  3  1  0
  3  4  1  0
  4  5  1  0
  5  6  2  0
  5  7  1  0
  7  8  1  0
  8  9  1  0
  9 10  1  0
 10 11  1  0
 11 12  1  0
  2 13  1  0
 13 14  2  0
 14 15  1  0
 15 16  2  0
 16 17  1  0
 17 18  2  0
 18 19  1  0
 18 20  1  0
 20 21  2  0
 21 22  1  0
 22 23  2  0
 12  7  1  0
 23 13  1  0
 22 16  1  0
  3 24  1  0
  4 25  1  0
  4 26  1  0
  8 27  1  0
  8 28  1  0
  9 29  1  0
  9 30  1  0
 10 31  1  0
 10 32  1  0
 11 33  1  0
 11 34  1  0
 12 35  1  0
 12 36  1  0
 14 37  1  0
 15 38  1  0
 17 39  1  0
 20 40  1  0
 21 41  1  0
M  END
>  <smiles>  (21) 
O=C(NCC(=O)N1CCCCC1)c1ccc2cc(F)ccc2n1

>  <score_type>  (21) 
oracle

>  <origin>  (21) 
autodockgpu

>  <m_score__min__energy>  (21) 
-7.29

>  <m_primary>  (21) 
energy

>  <rmsd>  (21) 
3.286535196406887

>  <m_score__min__rmsd>  (21) 
3.286535196406887

>  <meeko>  (21) 
{"free_energy": -7.25, "intermolecular_energy": -8.15, "internal_energy": -0.67, "cluster_size": 42, "cluster_id": 1, "rank_in_cluster": 2}

>  <energy>  (21) 
-7.12

>  <cluster_rmsd>  (21) 
1.36

>  <cluster>  (21) 
1

$$$$

     RDKit          3D

 41 43  0  0  0  0  0  0  0  0999 V2000
  141.2430   73.2690  221.1750 O   0  0  0  0  0  0  0  0  0  0  0  0
  140.3300   73.2620  222.0540 C   0  0  0  0  0  0  0  0  0  0  0  0
  139.5750   74.4110  222.3410 N   0  0  0  0  0  0  0  0  0  0  0  0
  139.7930   75.6560  221.6600 C   0  0  0  0  0  0  0  0  0  0  0  0
  139.1800   76.8040  222.3670 C   0  0  0  0  0  0  0  0  0  0  0  0
  138.0830   76.6290  222.9500 O   0  0  0  0  0  0  0  0  0  0  0  0
  139.8750   78.0450  222.3450 N   0  0  0  0  0  0  0  0  0  0  0  0
  141.1440   78.2320  221.6670 C   0  0  0  0  0  0  0  0  0  0  0  0
  142.1480   79.0140  222.4500 C   0  0  0  0  0  0  0  0  0  0  0  0
  141.5320   79.3800  223.7850 C   0  0  0  0  0  0  0  0  0  0  0  0
  140.2560   80.1710  223.4740 C   0  0  0  0  0  0  0  0  0  0  0  0
  139.2340   79.1590  223.0590 C   0  0  0  0  0  0  0  0  0  0  0  0
  140.0380   72.0230  222.8040 C   0  0  0  0  0  0  0  0  0  0  0  0
  139.3510   70.9730  222.2270 C   0  0  0  0  0  0  0  0  0  0  0  0
  139.1010   69.8280  222.9760 C   0  0  0  0  0  0  0  0  0  0  0  0
  139.5200   69.7030  224.2840 C   0  0  0  0  0  0  0  0  0  0  0  0
  139.2930   68.5880  225.0540 C   0  0  0  0  0  0  0  0  0  0  0  0
  139.7530   68.5620  226.3560 C   0  0  0  0  0  0  0  0  0  0  0  0
  139.5340   67.4560  227.1400 F   0  0  0  0  0  0  0  0  0  0  0  0
  140.4410   69.6420  226.8950 C   0  0  0  0  0  0  0  0  0  0  0  0
  140.6800   70.7830  226.1250 C   0  0  0  0  0  0  0  0  0  0  0  0
  140.2030   70.7740  224.8240 C   0  0  0  0  0  0  0  0  0  0  0  0
  140.4430   71.8810  224.0960 N   0  0  0  0  0  0  0  0  0  0  0  0
  138.8250   74.3540  223.0830 H   0  0  0  0  0  0  0  0  0  0  0  0
  140.8763   75.8290  221.5793 H   0  0  0  0  0  0  0  0  0  0  0  0
  139.3204   75.5824  220.6694 H   0  0  0  0  0  0  0  0  0  0  0  0
  141.5699   77.2407  221.4528 H   0  0  0  0  0  0  0  0  0  0  0  0
  140.9330   78.8114  220.7561 H   0  0  0  0  0  0  0  0  0  0  0  0
  143.0498   78.4050  222.6112 H   0  0  0  0  0  0  0  0  0  0  0  0
  142.4300   79.9246  221.9010 H   0  0  0  0  0  0  0  0  0  0  0  0
  141.2862   78.4701  224.3522 H   0  0  0  0  0  0  0  0  0  0  0  0
  142.2289   79.9734  224.3951 H   0  0  0  0  0  0  0  0  0  0  0  0
  139.9153   80.7138  224.3681 H   0  0  0  0  0  0  0  0  0  0  0  0
  140.4272   80.9177  222.6847 H   0  0  0  0  0  0  0  0  0  0  0  0
  138.7246   78.7708  223.9533 H   0  0  0  0  0  0  0  0  0  0  0  0
  138.5071   79.6408  222.3886 H   0  0  0  0  0  0  0  0  0  0  0  0
  139.0049   71.0416  221.1851 H   0  0  0  0  0  0  0  0  0  0  0  0
  138.5519   68.9962  222.5106 H   0  0  0  0  0  0  0  0  0  0  0  0
  138.7510   67.7258  224.6382 H   0  0  0  0  0  0  0  0  0  0  0  0
  140.7996   69.5985  227.9340 H   0  0  0  0  0  0  0  0  0  0  0  0
  141.2220   71.6489  226.5329 H   0  0  0  0  0  0  0  0  0  0  0  0
  1  2  2  0
  2  3  1  0
  3  4  1  0
  4  5  1  0
  5  6  2  0
  5  7  1  0
  7  8  1  0
  8  9  1  0
  9 10  1  0
 10 11  1  0
 11 12  1  0
  2 13  1  0
 13 14  2  0
 14 15  1  0
 15 16  2  0
 16 17  1  0
 17 18  2  0
 18 19  1  0
 18 20  1  0
 20 21  2  0
 21 22  1  0
 22 23  2  0
 12  7  1  0
 23 13  1  0
 22 16  1  0
  3 24  1  0
  4 25  1  0
  4 26  1  0
  8 27  1  0
  8 28  1  0
  9 29  1  0
  9 30  1  0
 10 31  1  0
 10 32  1  0
 11 33  1  0
 11 34  1  0
 12 35  1  0
 12 36  1  0
 14 37  1  0
 15 38  1  0
 17 39  1  0
 20 40  1  0
 21 41  1  0
M  END
>  <smiles>  (22) 
O=C(NCC(=O)N1CCCCC1)c1ccc2cc(F)ccc2n1

>  <score_type>  (22) 
oracle

>  <origin>  (22) 
autodockgpu

>  <m_score__min__energy>  (22) 
-7.29

>  <m_primary>  (22) 
energy

>  <rmsd>  (22) 
3.790428344353324

>  <m_score__min__rmsd>  (22) 
3.790428344353324

>  <meeko>  (22) 
{"free_energy": -7.13, "intermolecular_energy": -8.02, "internal_energy": -0.99, "cluster_size": 42, "cluster_id": 1, "rank_in_cluster": 11}

>  <energy>  (22) 
-7.12

>  <cluster_rmsd>  (22) 
1.36

>  <cluster>  (22) 
1

$$$$

     RDKit          3D

 41 43  0  0  0  0  0  0  0  0999 V2000
  141.3980   73.0020  221.4180 O   0  0  0  0  0  0  0  0  0  0  0  0
  140.4400   73.0160  222.2480 C   0  0  0  0  0  0  0  0  0  0  0  0
  139.5660   74.1100  222.3460 N   0  0  0  0  0  0  0  0  0  0  0  0
  139.7040   75.2740  221.5170 C   0  0  0  0  0  0  0  0  0  0  0  0
  138.9810   76.4460  222.0600 C   0  0  0  0  0  0  0  0  0  0  0  0
  137.8360   76.2700  222.5410 O   0  0  0  0  0  0  0  0  0  0  0  0
  139.6310   77.7110  222.0060 N   0  0  0  0  0  0  0  0  0  0  0  0
  140.9560   77.8980  221.4460 C   0  0  0  0  0  0  0  0  0  0  0  0
  141.8450   78.7820  222.2590 C   0  0  0  0  0  0  0  0  0  0  0  0
  141.0810   79.2260  223.4900 C   0  0  0  0  0  0  0  0  0  0  0  0
  139.8180   79.9340  222.9860 C   0  0  0  0  0  0  0  0  0  0  0  0
  138.8810   78.8490  222.5560 C   0  0  0  0  0  0  0  0  0  0  0  0
  140.2240   71.8590  223.1410 C   0  0  0  0  0  0  0  0  0  0  0  0
  139.5970   70.7100  222.6980 C   0  0  0  0  0  0  0  0  0  0  0  0
  139.4170   69.6490  223.5780 C   0  0  0  0  0  0  0  0  0  0  0  0
  139.8460   69.7030  224.8890 C   0  0  0  0  0  0  0  0  0  0  0  0
  139.6860   68.6760  225.7870 C   0  0  0  0  0  0  0  0  0  0  0  0
  140.1510   68.8300  227.0780 C   0  0  0  0  0  0  0  0  0  0  0  0
  139.9990   67.8140  227.9890 F   0  0  0  0  0  0  0  0  0  0  0  0
  140.7750   70.0040  227.4800 C   0  0  0  0  0  0  0  0  0  0  0  0
  140.9450   71.0580  226.5790 C   0  0  0  0  0  0  0  0  0  0  0  0
  140.4670   70.8690  225.2920 C   0  0  0  0  0  0  0  0  0  0  0  0
  140.6390   71.8940  224.4370 N   0  0  0  0  0  0  0  0  0  0  0  0
  138.7830   74.0720  223.0550 H   0  0  0  0  0  0  0  0  0  0  0  0
  140.7720   75.5248  221.4361 H   0  0  0  0  0  0  0  0  0  0  0  0
  139.2682   75.0383  220.5349 H   0  0  0  0  0  0  0  0  0  0  0  0
  141.4361   76.9121  221.3589 H   0  0  0  0  0  0  0  0  0  0  0  0
  140.8212   78.3936  220.4733 H   0  0  0  0  0  0  0  0  0  0  0  0
  142.7455   78.2270  222.5607 H   0  0  0  0  0  0  0  0  0  0  0  0
  142.1508   79.6576  221.6675 H   0  0  0  0  0  0  0  0  0  0  0  0
  140.8090   78.3544  224.1034 H   0  0  0  0  0  0  0  0  0  0  0  0
  141.6894   79.8952  224.1161 H   0  0  0  0  0  0  0  0  0  0  0  0
  139.3670   80.5312  223.7922 H   0  0  0  0  0  0  0  0  0  0  0  0
  140.0448   80.6221  222.1583 H   0  0  0  0  0  0  0  0  0  0  0  0
  138.2952   78.5114  223.4236 H   0  0  0  0  0  0  0  0  0  0  0  0
  138.2115   79.2441  221.7777 H   0  0  0  0  0  0  0  0  0  0  0  0
  139.2437   70.6356  221.6589 H   0  0  0  0  0  0  0  0  0  0  0  0
  138.9170   68.7376  223.2183 H   0  0  0  0  0  0  0  0  0  0  0  0
  139.1930   67.7414  225.4811 H   0  0  0  0  0  0  0  0  0  0  0  0
  141.1374   70.1044  228.5137 H   0  0  0  0  0  0  0  0  0  0  0  0
  141.4362   71.9958  226.8777 H   0  0  0  0  0  0  0  0  0  0  0  0
  1  2  2  0
  2  3  1  0
  3  4  1  0
  4  5  1  0
  5  6  2  0
  5  7  1  0
  7  8  1  0
  8  9  1  0
  9 10  1  0
 10 11  1  0
 11 12  1  0
  2 13  1  0
 13 14  2  0
 14 15  1  0
 15 16  2  0
 16 17  1  0
 17 18  2  0
 18 19  1  0
 18 20  1  0
 20 21  2  0
 21 22  1  0
 22 23  2  0
 12  7  1  0
 23 13  1  0
 22 16  1  0
  3 24  1  0
  4 25  1  0
  4 26  1  0
  8 27  1  0
  8 28  1  0
  9 29  1  0
  9 30  1  0
 10 31  1  0
 10 32  1  0
 11 33  1  0
 11 34  1  0
 12 35  1  0
 12 36  1  0
 14 37  1  0
 15 38  1  0
 17 39  1  0
 20 40  1  0
 21 41  1  0
M  END
>  <smiles>  (23) 
O=C(NCC(=O)N1CCCCC1)c1ccc2cc(F)ccc2n1

>  <score_type>  (23) 
oracle

>  <origin>  (23) 
autodockgpu

>  <m_score__min__energy>  (23) 
-7.29

>  <m_primary>  (23) 
energy

>  <rmsd>  (23) 
3.4423322430648815

>  <m_score__min__rmsd>  (23) 
3.4423322430648815

>  <meeko>  (23) 
{"free_energy": -7.16, "intermolecular_energy": -8.05, "internal_energy": -0.94, "cluster_size": 42, "cluster_id": 1, "rank_in_cluster": 7}

>  <energy>  (23) 
-7.12

>  <cluster_rmsd>  (23) 
1.36

>  <cluster>  (23) 
1

$$$$

     RDKit          3D

 41 43  0  0  0  0  0  0  0  0999 V2000
  141.3290   72.3460  221.5560 O   0  0  0  0  0  0  0  0  0  0  0  0
  140.4050   72.5350  222.4040 C   0  0  0  0  0  0  0  0  0  0  0  0
  139.5380   73.6360  222.3150 N   0  0  0  0  0  0  0  0  0  0  0  0
  139.6450   74.6090  221.2650 C   0  0  0  0  0  0  0  0  0  0  0  0
  140.5940   75.6970  221.5940 C   0  0  0  0  0  0  0  0  0  0  0  0
  141.7890   75.5740  221.2340 O   0  0  0  0  0  0  0  0  0  0  0  0
  140.0920   76.8240  222.3020 N   0  0  0  0  0  0  0  0  0  0  0  0
  138.7070   76.9510  222.7120 C   0  0  0  0  0  0  0  0  0  0  0  0
  138.1190   78.3040  222.4730 C   0  0  0  0  0  0  0  0  0  0  0  0
  139.1760   79.1770  221.8290 C   0  0  0  0  0  0  0  0  0  0  0  0
  140.3710   79.1950  222.7900 C   0  0  0  0  0  0  0  0  0  0  0  0
  141.0660   77.8820  222.6090 C   0  0  0  0  0  0  0  0  0  0  0  0
  140.2230   71.5840  223.5190 C   0  0  0  0  0  0  0  0  0  0  0  0
  139.5890   70.3690  223.3380 C   0  0  0  0  0  0  0  0  0  0  0  0
  139.4420   69.5090  224.4190 C   0  0  0  0  0  0  0  0  0  0  0  0
  139.9120   69.8260  225.6770 C   0  0  0  0  0  0  0  0  0  0  0  0
  139.7860   69.0020  226.7690 C   0  0  0  0  0  0  0  0  0  0  0  0
  140.2900   69.4130  227.9870 C   0  0  0  0  0  0  0  0  0  0  0  0
  140.1730   68.6010  229.0880 F   0  0  0  0  0  0  0  0  0  0  0  0
  140.9210   70.6430  228.1230 C   0  0  0  0  0  0  0  0  0  0  0  0
  141.0580   71.4920  227.0230 C   0  0  0  0  0  0  0  0  0  0  0  0
  140.5390   71.0480  225.8160 C   0  0  0  0  0  0  0  0  0  0  0  0
  140.6790   71.8790  224.7670 N   0  0  0  0  0  0  0  0  0  0  0  0
  138.7840   73.7490  223.0480 H   0  0  0  0  0  0  0  0  0  0  0  0
  139.9902   74.1045  220.3505 H   0  0  0  0  0  0  0  0  0  0  0  0
  138.6522   75.0621  221.1271 H   0  0  0  0  0  0  0  0  0  0  0  0
  138.1128   76.2130  222.1532 H   0  0  0  0  0  0  0  0  0  0  0  0
  138.6824   76.7831  223.7988 H   0  0  0  0  0  0  0  0  0  0  0  0
  137.2497   78.2186  221.8044 H   0  0  0  0  0  0  0  0  0  0  0  0
  137.7909   78.7473  223.4248 H   0  0  0  0  0  0  0  0  0  0  0  0
  139.4758   78.7567  220.8577 H   0  0  0  0  0  0  0  0  0  0  0  0
  138.7961   80.1933  221.6478 H   0  0  0  0  0  0  0  0  0  0  0  0
  141.0495   80.0241  222.5406 H   0  0  0  0  0  0  0  0  0  0  0  0
  140.0482   79.3397  223.8316 H   0  0  0  0  0  0  0  0  0  0  0  0
  141.7852   77.9639  221.7807 H   0  0  0  0  0  0  0  0  0  0  0  0
  141.5903   77.6245  223.5411 H   0  0  0  0  0  0  0  0  0  0  0  0
  139.2044   70.0858  222.3471 H   0  0  0  0  0  0  0  0  0  0  0  0
  138.9348   68.5448  224.2673 H   0  0  0  0  0  0  0  0  0  0  0  0
  139.2889   68.0253  226.6740 H   0  0  0  0  0  0  0  0  0  0  0  0
  141.3151   70.9500  229.1030 H   0  0  0  0  0  0  0  0  0  0  0  0
  141.5553   72.4693  227.1099 H   0  0  0  0  0  0  0  0  0  0  0  0
  1  2  2  0
  2  3  1  0
  3  4  1  0
  4  5  1  0
  5  6  2  0
  5  7  1  0
  7  8  1  0
  8  9  1  0
  9 10  1  0
 10 11  1  0
 11 12  1  0
  2 13  1  0
 13 14  2  0
 14 15  1  0
 15 16  2  0
 16 17  1  0
 17 18  2  0
 18 19  1  0
 18 20  1  0
 20 21  2  0
 21 22  1  0
 22 23  2  0
 12  7  1  0
 23 13  1  0
 22 16  1  0
  3 24  1  0
  4 25  1  0
  4 26  1  0
  8 27  1  0
  8 28  1  0
  9 29  1  0
  9 30  1  0
 10 31  1  0
 10 32  1  0
 11 33  1  0
 11 34  1  0
 12 35  1  0
 12 36  1  0
 14 37  1  0
 15 38  1  0
 17 39  1  0
 20 40  1  0
 21 41  1  0
M  END
>  <smiles>  (24) 
O=C(NCC(=O)N1CCCCC1)c1ccc2cc(F)ccc2n1

>  <score_type>  (24) 
oracle

>  <origin>  (24) 
autodockgpu

>  <m_score__min__energy>  (24) 
-7.29

>  <m_primary>  (24) 
energy

>  <rmsd>  (24) 
3.3191108795239423

>  <m_score__min__rmsd>  (24) 
3.3191108795239423

>  <meeko>  (24) 
{"free_energy": -7.29, "intermolecular_energy": -8.19, "internal_energy": -0.69, "cluster_size": 42, "cluster_id": 1, "rank_in_cluster": 1}

>  <energy>  (24) 
-7.12

>  <cluster_rmsd>  (24) 
1.35

>  <cluster>  (24) 
1

$$$$

     RDKit          3D

 41 43  0  0  0  0  0  0  0  0999 V2000
  141.3010   73.3010  221.2710 O   0  0  0  0  0  0  0  0  0  0  0  0
  140.3450   73.2760  222.1030 C   0  0  0  0  0  0  0  0  0  0  0  0
  139.5490   74.4080  222.3440 N   0  0  0  0  0  0  0  0  0  0  0  0
  139.7690   75.6530  221.6660 C   0  0  0  0  0  0  0  0  0  0  0  0
  139.1640   76.8020  222.3790 C   0  0  0  0  0  0  0  0  0  0  0  0
  138.0750   76.6270  222.9750 O   0  0  0  0  0  0  0  0  0  0  0  0
  139.8590   78.0430  222.3480 N   0  0  0  0  0  0  0  0  0  0  0  0
  141.1200   78.2290  221.6540 C   0  0  0  0  0  0  0  0  0  0  0  0
  142.1340   79.0110  222.4240 C   0  0  0  0  0  0  0  0  0  0  0  0
  141.5340   79.3780  223.7660 C   0  0  0  0  0  0  0  0  0  0  0  0
  140.2540   80.1700  223.4690 C   0  0  0  0  0  0  0  0  0  0  0  0
  139.2280   79.1580  223.0680 C   0  0  0  0  0  0  0  0  0  0  0  0
  140.0480   72.0350  222.8470 C   0  0  0  0  0  0  0  0  0  0  0  0
  139.3490   70.9930  222.2670 C   0  0  0  0  0  0  0  0  0  0  0  0
  139.0950   69.8460  223.0100 C   0  0  0  0  0  0  0  0  0  0  0  0
  139.5190   69.7090  224.3160 C   0  0  0  0  0  0  0  0  0  0  0  0
  139.2870   68.5920  225.0800 C   0  0  0  0  0  0  0  0  0  0  0  0
  139.7540   68.5540  226.3790 C   0  0  0  0  0  0  0  0  0  0  0  0
  139.5310   67.4450  227.1570 F   0  0  0  0  0  0  0  0  0  0  0  0
  140.4530   69.6250  226.9210 C   0  0  0  0  0  0  0  0  0  0  0  0
  140.6970   70.7680  226.1570 C   0  0  0  0  0  0  0  0  0  0  0  0
  140.2140   70.7720  224.8580 C   0  0  0  0  0  0  0  0  0  0  0  0
  140.4580   71.8820  224.1360 N   0  0  0  0  0  0  0  0  0  0  0  0
  138.7640   74.3360  223.0490 H   0  0  0  0  0  0  0  0  0  0  0  0
  140.8527   75.8216  221.5809 H   0  0  0  0  0  0  0  0  0  0  0  0
  139.2915   75.5841  220.6775 H   0  0  0  0  0  0  0  0  0  0  0  0
  141.5428   77.2373  221.4352 H   0  0  0  0  0  0  0  0  0  0  0  0
  140.8981   78.8080  220.7454 H   0  0  0  0  0  0  0  0  0  0  0  0
  143.0374   78.4017  222.5747 H   0  0  0  0  0  0  0  0  0  0  0  0
  142.4101   79.9210  221.8711 H   0  0  0  0  0  0  0  0  0  0  0  0
  141.2944   78.4686  224.3366 H   0  0  0  0  0  0  0  0  0  0  0  0
  142.2382   79.9713  224.3677 H   0  0  0  0  0  0  0  0  0  0  0  0
  139.9241   80.7141  224.3663 H   0  0  0  0  0  0  0  0  0  0  0  0
  140.4159   80.9160  222.6769 H   0  0  0  0  0  0  0  0  0  0  0  0
  138.7295   78.7712  223.9691 H   0  0  0  0  0  0  0  0  0  0  0  0
  138.4935   79.6392  222.4054 H   0  0  0  0  0  0  0  0  0  0  0  0
  138.9972   71.0707  221.2277 H   0  0  0  0  0  0  0  0  0  0  0  0
  138.5381   69.0210  222.5418 H   0  0  0  0  0  0  0  0  0  0  0  0
  138.7354   67.7370  224.6620 H   0  0  0  0  0  0  0  0  0  0  0  0
  140.8164   69.5724  227.9579 H   0  0  0  0  0  0  0  0  0  0  0  0
  141.2480   71.6269  226.5678 H   0  0  0  0  0  0  0  0  0  0  0  0
  1  2  2  0
  2  3  1  0
  3  4  1  0
  4  5  1  0
  5  6  2  0
  5  7  1  0
  7  8  1  0
  8  9  1  0
  9 10  1  0
 10 11  1  0
 11 12  1  0
  2 13  1  0
 13 14  2  0
 14 15  1  0
 15 16  2  0
 16 17  1  0
 17 18  2  0
 18 19  1  0
 18 20  1  0
 20 21  2  0
 21 22  1  0
 22 23  2  0
 12  7  1  0
 23 13  1  0
 22 16  1  0
  3 24  1  0
  4 25  1  0
  4 26  1  0
  8 27  1  0
  8 28  1  0
  9 29  1  0
  9 30  1  0
 10 31  1  0
 10 32  1  0
 11 33  1  0
 11 34  1  0
 12 35  1  0
 12 36  1  0
 14 37  1  0
 15 38  1  0
 17 39  1  0
 20 40  1  0
 21 41  1  0
M  END
>  <smiles>  (25) 
O=C(NCC(=O)N1CCCCC1)c1ccc2cc(F)ccc2n1

>  <score_type>  (25) 
oracle

>  <origin>  (25) 
autodockgpu

>  <m_score__min__energy>  (25) 
-7.29

>  <m_primary>  (25) 
energy

>  <rmsd>  (25) 
3.786406613237679

>  <m_score__min__rmsd>  (25) 
3.786406613237679

>  <meeko>  (25) 
{"free_energy": -7.13, "intermolecular_energy": -8.02, "internal_energy": -1.0, "cluster_size": 42, "cluster_id": 1, "rank_in_cluster": 13}

>  <energy>  (25) 
-7.12

>  <cluster_rmsd>  (25) 
1.36

>  <cluster>  (25) 
1

$$$$

     RDKit          3D

 41 43  0  0  0  0  0  0  0  0999 V2000
  141.2910   73.2870  221.2430 O   0  0  0  0  0  0  0  0  0  0  0  0
  140.3480   73.2730  222.0900 C   0  0  0  0  0  0  0  0  0  0  0  0
  139.5690   74.4140  222.3430 N   0  0  0  0  0  0  0  0  0  0  0  0
  139.7940   75.6580  221.6620 C   0  0  0  0  0  0  0  0  0  0  0  0
  139.1830   76.8080  222.3670 C   0  0  0  0  0  0  0  0  0  0  0  0
  138.0860   76.6370  222.9490 O   0  0  0  0  0  0  0  0  0  0  0  0
  139.8810   78.0480  222.3430 N   0  0  0  0  0  0  0  0  0  0  0  0
  141.1510   78.2310  221.6650 C   0  0  0  0  0  0  0  0  0  0  0  0
  142.1560   79.0120  222.4470 C   0  0  0  0  0  0  0  0  0  0  0  0
  141.5410   79.3820  223.7800 C   0  0  0  0  0  0  0  0  0  0  0  0
  140.2660   80.1750  223.4670 C   0  0  0  0  0  0  0  0  0  0  0  0
  139.2430   79.1650  223.0540 C   0  0  0  0  0  0  0  0  0  0  0  0
  140.0460   72.0350  222.8370 C   0  0  0  0  0  0  0  0  0  0  0  0
  139.3320   71.0000  222.2640 C   0  0  0  0  0  0  0  0  0  0  0  0
  139.0740   69.8560  223.0100 C   0  0  0  0  0  0  0  0  0  0  0  0
  139.5100   69.7150  224.3110 C   0  0  0  0  0  0  0  0  0  0  0  0
  139.2750   68.6000  225.0780 C   0  0  0  0  0  0  0  0  0  0  0  0
  139.7550   68.5580  226.3730 C   0  0  0  0  0  0  0  0  0  0  0  0
  139.5290   67.4510  227.1530 F   0  0  0  0  0  0  0  0  0  0  0  0
  140.4690   69.6220  226.9070 C   0  0  0  0  0  0  0  0  0  0  0  0
  140.7160   70.7630  226.1410 C   0  0  0  0  0  0  0  0  0  0  0  0
  140.2200   70.7710  224.8460 C   0  0  0  0  0  0  0  0  0  0  0  0
  140.4680   71.8780  224.1210 N   0  0  0  0  0  0  0  0  0  0  0  0
  138.7940   74.3520  223.0590 H   0  0  0  0  0  0  0  0  0  0  0  0
  140.8782   75.8270  221.5847 H   0  0  0  0  0  0  0  0  0  0  0  0
  139.3246   75.5860  220.6698 H   0  0  0  0  0  0  0  0  0  0  0  0
  141.5749   77.2384  221.4527 H   0  0  0  0  0  0  0  0  0  0  0  0
  140.9418   78.8092  220.7529 H   0  0  0  0  0  0  0  0  0  0  0  0
  143.0562   78.4012  222.6099 H   0  0  0  0  0  0  0  0  0  0  0  0
  142.4401   79.9209  221.8964 H   0  0  0  0  0  0  0  0  0  0  0  0
  141.2934   78.4739  224.3493 H   0  0  0  0  0  0  0  0  0  0  0  0
  142.2389   79.9756  224.3887 H   0  0  0  0  0  0  0  0  0  0  0  0
  139.9261   80.7201  224.3599 H   0  0  0  0  0  0  0  0  0  0  0  0
  140.4388   80.9198  222.6762 H   0  0  0  0  0  0  0  0  0  0  0  0
  138.7323   78.7801  223.9490 H   0  0  0  0  0  0  0  0  0  0  0  0
  138.5179   79.6471  222.3819 H   0  0  0  0  0  0  0  0  0  0  0  0
  138.9714   71.0807  221.2279 H   0  0  0  0  0  0  0  0  0  0  0  0
  138.5037   69.0366  222.5480 H   0  0  0  0  0  0  0  0  0  0  0  0
  138.7111   67.7502  224.6660 H   0  0  0  0  0  0  0  0  0  0  0  0
  140.8425   69.5659  227.9401 H   0  0  0  0  0  0  0  0  0  0  0  0
  141.2786   71.6169  226.5464 H   0  0  0  0  0  0  0  0  0  0  0  0
  1  2  2  0
  2  3  1  0
  3  4  1  0
  4  5  1  0
  5  6  2  0
  5  7  1  0
  7  8  1  0
  8  9  1  0
  9 10  1  0
 10 11  1  0
 11 12  1  0
  2 13  1  0
 13 14  2  0
 14 15  1  0
 15 16  2  0
 16 17  1  0
 17 18  2  0
 18 19  1  0
 18 20  1  0
 20 21  2  0
 21 22  1  0
 22 23  2  0
 12  7  1  0
 23 13  1  0
 22 16  1  0
  3 24  1  0
  4 25  1  0
  4 26  1  0
  8 27  1  0
  8 28  1  0
  9 29  1  0
  9 30  1  0
 10 31  1  0
 10 32  1  0
 11 33  1  0
 11 34  1  0
 12 35  1  0
 12 36  1  0
 14 37  1  0
 15 38  1  0
 17 39  1  0
 20 40  1  0
 21 41  1  0
M  END
>  <smiles>  (26) 
O=C(NCC(=O)N1CCCCC1)c1ccc2cc(F)ccc2n1

>  <score_type>  (26) 
oracle

>  <origin>  (26) 
autodockgpu

>  <m_score__min__energy>  (26) 
-7.29

>  <m_primary>  (26) 
energy

>  <rmsd>  (26) 
3.7916912656118793

>  <m_score__min__rmsd>  (26) 
3.7916912656118793

>  <meeko>  (26) 
{"free_energy": -7.13, "intermolecular_energy": -8.03, "internal_energy": -0.99, "cluster_size": 42, "cluster_id": 1, "rank_in_cluster": 9}

>  <energy>  (26) 
-7.12

>  <cluster_rmsd>  (26) 
1.35

>  <cluster>  (26) 
1

$$$$

     RDKit          3D

 41 43  0  0  0  0  0  0  0  0999 V2000
  141.3850   73.2980  221.3430 O   0  0  0  0  0  0  0  0  0  0  0  0
  140.3950   73.2580  222.1350 C   0  0  0  0  0  0  0  0  0  0  0  0
  139.5690   74.3760  222.3380 N   0  0  0  0  0  0  0  0  0  0  0  0
  139.7950   75.6240  221.6660 C   0  0  0  0  0  0  0  0  0  0  0  0
  139.1750   76.7680  222.3720 C   0  0  0  0  0  0  0  0  0  0  0  0
  138.0830   76.5860  222.9610 O   0  0  0  0  0  0  0  0  0  0  0  0
  139.8600   78.0160  222.3430 N   0  0  0  0  0  0  0  0  0  0  0  0
  141.1230   78.2120  221.6570 C   0  0  0  0  0  0  0  0  0  0  0  0
  142.1240   79.0050  222.4330 C   0  0  0  0  0  0  0  0  0  0  0  0
  141.5120   79.3700  223.7700 C   0  0  0  0  0  0  0  0  0  0  0  0
  140.2270   80.1490  223.4620 C   0  0  0  0  0  0  0  0  0  0  0  0
  139.2120   79.1270  223.0560 C   0  0  0  0  0  0  0  0  0  0  0  0
  140.0880   72.0130  222.8680 C   0  0  0  0  0  0  0  0  0  0  0  0
  139.3920   70.9770  222.2760 C   0  0  0  0  0  0  0  0  0  0  0  0
  139.1290   69.8260  223.0100 C   0  0  0  0  0  0  0  0  0  0  0  0
  139.5410   69.6800  224.3190 C   0  0  0  0  0  0  0  0  0  0  0  0
  139.3000   68.5590  225.0740 C   0  0  0  0  0  0  0  0  0  0  0  0
  139.7560   68.5120  226.3770 C   0  0  0  0  0  0  0  0  0  0  0  0
  139.5230   67.3990  227.1460 F   0  0  0  0  0  0  0  0  0  0  0  0
  140.4530   69.5780  226.9310 C   0  0  0  0  0  0  0  0  0  0  0  0
  140.7060   70.7250  226.1760 C   0  0  0  0  0  0  0  0  0  0  0  0
  140.2340   70.7380  224.8730 C   0  0  0  0  0  0  0  0  0  0  0  0
  140.4870   71.8510  224.1600 N   0  0  0  0  0  0  0  0  0  0  0  0
  138.7570   74.2910  223.0090 H   0  0  0  0  0  0  0  0  0  0  0  0
  140.8792   75.7969  221.5981 H   0  0  0  0  0  0  0  0  0  0  0  0
  139.3334   75.5558  220.6699 H   0  0  0  0  0  0  0  0  0  0  0  0
  141.5565   77.2239  221.4430 H   0  0  0  0  0  0  0  0  0  0  0  0
  140.9021   78.7865  220.7453 H   0  0  0  0  0  0  0  0  0  0  0  0
  143.0317   78.4042  222.5915 H   0  0  0  0  0  0  0  0  0  0  0  0
  142.3951   79.9164  221.8799 H   0  0  0  0  0  0  0  0  0  0  0  0
  141.2771   78.4600  224.3416 H   0  0  0  0  0  0  0  0  0  0  0  0
  142.2067   79.9713  224.3749 H   0  0  0  0  0  0  0  0  0  0  0  0
  139.8860   80.6923  224.3556 H   0  0  0  0  0  0  0  0  0  0  0  0
  140.3880   80.8940  222.6689 H   0  0  0  0  0  0  0  0  0  0  0  0
  138.7103   78.7377  223.9542 H   0  0  0  0  0  0  0  0  0  0  0  0
  138.4773   79.5997  222.3876 H   0  0  0  0  0  0  0  0  0  0  0  0
  139.0493   71.0619  221.2342 H   0  0  0  0  0  0  0  0  0  0  0  0
  138.5745   69.0050  222.5319 H   0  0  0  0  0  0  0  0  0  0  0  0
  138.7500   67.7079  224.6461 H   0  0  0  0  0  0  0  0  0  0  0  0
  140.8077   69.5183  227.9705 H   0  0  0  0  0  0  0  0  0  0  0  0
  141.2554   71.5801  226.5966 H   0  0  0  0  0  0  0  0  0  0  0  0
  1  2  2  0
  2  3  1  0
  3  4  1  0
  4  5  1  0
  5  6  2  0
  5  7  1  0
  7  8  1  0
  8  9  1  0
  9 10  1  0
 10 11  1  0
 11 12  1  0
  2 13  1  0
 13 14  2  0
 14 15  1  0
 15 16  2  0
 16 17  1  0
 17 18  2  0
 18 19  1  0
 18 20  1  0
 20 21  2  0
 21 22  1  0
 22 23  2  0
 12  7  1  0
 23 13  1  0
 22 16  1  0
  3 24  1  0
  4 25  1  0
  4 26  1  0
  8 27  1  0
  8 28  1  0
  9 29  1  0
  9 30  1  0
 10 31  1  0
 10 32  1  0
 11 33  1  0
 11 34  1  0
 12 35  1  0
 12 36  1  0
 14 37  1  0
 15 38  1  0
 17 39  1  0
 20 40  1  0
 21 41  1  0
M  END
>  <smiles>  (27) 
O=C(NCC(=O)N1CCCCC1)c1ccc2cc(F)ccc2n1

>  <score_type>  (27) 
oracle

>  <origin>  (27) 
autodockgpu

>  <m_score__min__energy>  (27) 
-7.29

>  <m_primary>  (27) 
energy

>  <rmsd>  (27) 
3.780469342663127

>  <m_score__min__rmsd>  (27) 
3.780469342663127

>  <meeko>  (27) 
{"free_energy": -7.12, "intermolecular_energy": -8.02, "internal_energy": -1.0, "cluster_size": 42, "cluster_id": 1, "rank_in_cluster": 24}

>  <energy>  (27) 
-7.12

>  <cluster_rmsd>  (27) 
1.36

>  <cluster>  (27) 
1

$$$$

     RDKit          3D

 41 43  0  0  0  0  0  0  0  0999 V2000
  141.3180   73.3040  221.2500 O   0  0  0  0  0  0  0  0  0  0  0  0
  140.3670   73.2770  222.0880 C   0  0  0  0  0  0  0  0  0  0  0  0
  139.5740   74.4080  222.3390 N   0  0  0  0  0  0  0  0  0  0  0  0
  139.7910   75.6570  221.6640 C   0  0  0  0  0  0  0  0  0  0  0  0
  139.1780   76.8000  222.3780 C   0  0  0  0  0  0  0  0  0  0  0  0
  138.0880   76.6190  222.9700 O   0  0  0  0  0  0  0  0  0  0  0  0
  139.8670   78.0460  222.3510 N   0  0  0  0  0  0  0  0  0  0  0  0
  141.1280   78.2400  221.6610 C   0  0  0  0  0  0  0  0  0  0  0  0
  142.1350   79.0260  222.4350 C   0  0  0  0  0  0  0  0  0  0  0  0
  141.5300   79.3870  223.7760 C   0  0  0  0  0  0  0  0  0  0  0  0
  140.2470   80.1720  223.4770 C   0  0  0  0  0  0  0  0  0  0  0  0
  139.2270   79.1560  223.0710 C   0  0  0  0  0  0  0  0  0  0  0  0
  140.0730   72.0330  222.8280 C   0  0  0  0  0  0  0  0  0  0  0  0
  139.3910   70.9850  222.2400 C   0  0  0  0  0  0  0  0  0  0  0  0
  139.1380   69.8350  222.9800 C   0  0  0  0  0  0  0  0  0  0  0  0
  139.5490   69.7020  224.2900 C   0  0  0  0  0  0  0  0  0  0  0  0
  139.3180   68.5820  225.0520 C   0  0  0  0  0  0  0  0  0  0  0  0
  139.7710   68.5480  226.3560 C   0  0  0  0  0  0  0  0  0  0  0  0
  139.5490   67.4360  227.1310 F   0  0  0  0  0  0  0  0  0  0  0  0
  140.4530   69.6250  226.9070 C   0  0  0  0  0  0  0  0  0  0  0  0
  140.6960   70.7710  226.1460 C   0  0  0  0  0  0  0  0  0  0  0  0
  140.2270   70.7710  224.8410 C   0  0  0  0  0  0  0  0  0  0  0  0
  140.4690   71.8830  224.1220 N   0  0  0  0  0  0  0  0  0  0  0  0
  138.7930   74.3340  223.0470 H   0  0  0  0  0  0  0  0  0  0  0  0
  140.8741   75.8311  221.5833 H   0  0  0  0  0  0  0  0  0  0  0  0
  139.3180   75.5886  220.6732 H   0  0  0  0  0  0  0  0  0  0  0  0
  141.5569   77.2511  221.4416 H   0  0  0  0  0  0  0  0  0  0  0  0
  140.9054   78.8191  220.7527 H   0  0  0  0  0  0  0  0  0  0  0  0
  143.0414   78.4216  222.5868 H   0  0  0  0  0  0  0  0  0  0  0  0
  142.4070   79.9387  221.8845 H   0  0  0  0  0  0  0  0  0  0  0  0
  141.2940   78.4753  224.3444 H   0  0  0  0  0  0  0  0  0  0  0  0
  142.2294   79.9829  224.3808 H   0  0  0  0  0  0  0  0  0  0  0  0
  139.9118   80.7126  224.3745 H   0  0  0  0  0  0  0  0  0  0  0  0
  140.4073   80.9200  222.6866 H   0  0  0  0  0  0  0  0  0  0  0  0
  138.7275   78.7649  223.9696 H   0  0  0  0  0  0  0  0  0  0  0  0
  138.4916   79.6345  222.4075 H   0  0  0  0  0  0  0  0  0  0  0  0
  139.0514   71.0596  221.1964 H   0  0  0  0  0  0  0  0  0  0  0  0
  138.5931   69.0055  222.5058 H   0  0  0  0  0  0  0  0  0  0  0  0
  138.7784   67.7223  224.6280 H   0  0  0  0  0  0  0  0  0  0  0  0
  140.8038   69.5754  227.9484 H   0  0  0  0  0  0  0  0  0  0  0  0
  141.2350   71.6344  226.5631 H   0  0  0  0  0  0  0  0  0  0  0  0
  1  2  2  0
  2  3  1  0
  3  4  1  0
  4  5  1  0
  5  6  2  0
  5  7  1  0
  7  8  1  0
  8  9  1  0
  9 10  1  0
 10 11  1  0
 11 12  1  0
  2 13  1  0
 13 14  2  0
 14 15  1  0
 15 16  2  0
 16 17  1  0
 17 18  2  0
 18 19  1  0
 18 20  1  0
 20 21  2  0
 21 22  1  0
 22 23  2  0
 12  7  1  0
 23 13  1  0
 22 16  1  0
  3 24  1  0
  4 25  1  0
  4 26  1  0
  8 27  1  0
  8 28  1  0
  9 29  1  0
  9 30  1  0
 10 31  1  0
 10 32  1  0
 11 33  1  0
 11 34  1  0
 12 35  1  0
 12 36  1  0
 14 37  1  0
 15 38  1  0
 17 39  1  0
 20 40  1  0
 21 41  1  0
M  END
>  <smiles>  (28) 
O=C(NCC(=O)N1CCCCC1)c1ccc2cc(F)ccc2n1

>  <score_type>  (28) 
oracle

>  <origin>  (28) 
autodockgpu

>  <m_score__min__energy>  (28) 
-7.29

>  <m_primary>  (28) 
energy

>  <rmsd>  (28) 
3.7936247093555258

>  <m_score__min__rmsd>  (28) 
3.7936247093555258

>  <meeko>  (28) 
{"free_energy": -7.12, "intermolecular_energy": -8.02, "internal_energy": -1.0, "cluster_size": 42, "cluster_id": 1, "rank_in_cluster": 19}

>  <energy>  (28) 
-7.12

>  <cluster_rmsd>  (28) 
1.37

>  <cluster>  (28) 
1

$$$$

     RDKit          3D

 41 43  0  0  0  0  0  0  0  0999 V2000
  141.3860   72.8080  221.4360 O   0  0  0  0  0  0  0  0  0  0  0  0
  140.4510   72.8990  222.2880 C   0  0  0  0  0  0  0  0  0  0  0  0
  139.6130   74.0240  222.3450 N   0  0  0  0  0  0  0  0  0  0  0  0
  139.7640   75.1340  221.4480 C   0  0  0  0  0  0  0  0  0  0  0  0
  139.0000   76.3250  221.8850 C   0  0  0  0  0  0  0  0  0  0  0  0
  137.8070   76.1700  222.2410 O   0  0  0  0  0  0  0  0  0  0  0  0
  139.6670   77.5820  221.8770 N   0  0  0  0  0  0  0  0  0  0  0  0
  141.0480   77.7440  221.4630 C   0  0  0  0  0  0  0  0  0  0  0  0
  141.8530   78.6360  222.3510 C   0  0  0  0  0  0  0  0  0  0  0  0
  140.9640   79.1130  223.4810 C   0  0  0  0  0  0  0  0  0  0  0  0
  139.7720   79.8230  222.8280 C   0  0  0  0  0  0  0  0  0  0  0  0
  138.8750   78.7390  222.3190 C   0  0  0  0  0  0  0  0  0  0  0  0
  140.2230   71.8020  223.2510 C   0  0  0  0  0  0  0  0  0  0  0  0
  139.5630   70.6440  222.8870 C   0  0  0  0  0  0  0  0  0  0  0  0
  139.3740   69.6410  223.8300 C   0  0  0  0  0  0  0  0  0  0  0  0
  139.8270   69.7610  225.1280 C   0  0  0  0  0  0  0  0  0  0  0  0
  139.6590   68.7920  226.0870 C   0  0  0  0  0  0  0  0  0  0  0  0
  140.1500   69.0100  227.3590 C   0  0  0  0  0  0  0  0  0  0  0  0
  139.9910   68.0520  228.3300 F   0  0  0  0  0  0  0  0  0  0  0  0
  140.8090   70.1900  227.6810 C   0  0  0  0  0  0  0  0  0  0  0  0
  140.9880   71.1840  226.7180 C   0  0  0  0  0  0  0  0  0  0  0  0
  140.4820   70.9330  225.4520 C   0  0  0  0  0  0  0  0  0  0  0  0
  140.6630   71.9020  224.5350 N   0  0  0  0  0  0  0  0  0  0  0  0
  138.8480   74.0510  223.0740 H   0  0  0  0  0  0  0  0  0  0  0  0
  140.8300   75.3998  221.3921 H   0  0  0  0  0  0  0  0  0  0  0  0
  139.3716   74.8268  220.4674 H   0  0  0  0  0  0  0  0  0  0  0  0
  141.5226   76.7518  221.4491 H   0  0  0  0  0  0  0  0  0  0  0  0
  141.0270   78.2204  220.4717 H   0  0  0  0  0  0  0  0  0  0  0  0
  142.7082   78.0787  222.7609 H   0  0  0  0  0  0  0  0  0  0  0  0
  142.2326   79.4959  221.7796 H   0  0  0  0  0  0  0  0  0  0  0  0
  140.6159   78.2570  224.0778 H   0  0  0  0  0  0  0  0  0  0  0  0
  141.5082   79.7894  224.1566 H   0  0  0  0  0  0  0  0  0  0  0  0
  139.2428   80.4409  223.5683 H   0  0  0  0  0  0  0  0  0  0  0  0
  140.0962   80.4918  222.0171 H   0  0  0  0  0  0  0  0  0  0  0  0
  138.1934   78.4254  223.1234 H   0  0  0  0  0  0  0  0  0  0  0  0
  138.2999   79.1245  221.4642 H   0  0  0  0  0  0  0  0  0  0  0  0
  139.1905   70.5172  221.8598 H   0  0  0  0  0  0  0  0  0  0  0  0
  138.8467   68.7226  223.5325 H   0  0  0  0  0  0  0  0  0  0  0  0
  139.1394   67.8533  225.8445 H   0  0  0  0  0  0  0  0  0  0  0  0
  141.1919   70.3416  228.7010 H   0  0  0  0  0  0  0  0  0  0  0  0
  141.5074   72.1247  226.9530 H   0  0  0  0  0  0  0  0  0  0  0  0
  1  2  2  0
  2  3  1  0
  3  4  1  0
  4  5  1  0
  5  6  2  0
  5  7  1  0
  7  8  1  0
  8  9  1  0
  9 10  1  0
 10 11  1  0
 11 12  1  0
  2 13  1  0
 13 14  2  0
 14 15  1  0
 15 16  2  0
 16 17  1  0
 17 18  2  0
 18 19  1  0
 18 20  1  0
 20 21  2  0
 21 22  1  0
 22 23  2  0
 12  7  1  0
 23 13  1  0
 22 16  1  0
  3 24  1  0
  4 25  1  0
  4 26  1  0
  8 27  1  0
  8 28  1  0
  9 29  1  0
  9 30  1  0
 10 31  1  0
 10 32  1  0
 11 33  1  0
 11 34  1  0
 12 35  1  0
 12 36  1  0
 14 37  1  0
 15 38  1  0
 17 39  1  0
 20 40  1  0
 21 41  1  0
M  END
>  <smiles>  (29) 
O=C(NCC(=O)N1CCCCC1)c1ccc2cc(F)ccc2n1

>  <score_type>  (29) 
oracle

>  <origin>  (29) 
autodockgpu

>  <m_score__min__energy>  (29) 
-7.29

>  <m_primary>  (29) 
energy

>  <rmsd>  (29) 
3.3473412507731903

>  <m_score__min__rmsd>  (29) 
3.3473412507731903

>  <meeko>  (29) 
{"free_energy": -7.18, "intermolecular_energy": -8.07, "internal_energy": -0.89, "cluster_size": 42, "cluster_id": 1, "rank_in_cluster": 6}

>  <energy>  (29) 
-7.12

>  <cluster_rmsd>  (29) 
1.37

>  <cluster>  (29) 
1

$$$$

     RDKit          3D

 41 43  0  0  0  0  0  0  0  0999 V2000
  141.2510   73.2840  221.1840 O   0  0  0  0  0  0  0  0  0  0  0  0
  140.3340   73.2740  222.0590 C   0  0  0  0  0  0  0  0  0  0  0  0
  139.5720   74.4200  222.3420 N   0  0  0  0  0  0  0  0  0  0  0  0
  139.7860   75.6650  221.6610 C   0  0  0  0  0  0  0  0  0  0  0  0
  139.1750   76.8120  222.3710 C   0  0  0  0  0  0  0  0  0  0  0  0
  138.0820   76.6360  222.9590 O   0  0  0  0  0  0  0  0  0  0  0  0
  139.8690   78.0540  222.3450 N   0  0  0  0  0  0  0  0  0  0  0  0
  141.1340   78.2430  221.6600 C   0  0  0  0  0  0  0  0  0  0  0  0
  142.1420   79.0250  222.4380 C   0  0  0  0  0  0  0  0  0  0  0  0
  141.5330   79.3910  223.7750 C   0  0  0  0  0  0  0  0  0  0  0  0
  140.2540   80.1810  223.4710 C   0  0  0  0  0  0  0  0  0  0  0  0
  139.2310   79.1680  223.0620 C   0  0  0  0  0  0  0  0  0  0  0  0
  140.0460   72.0350  222.8100 C   0  0  0  0  0  0  0  0  0  0  0  0
  139.3720   70.9770  222.2290 C   0  0  0  0  0  0  0  0  0  0  0  0
  139.1250   69.8330  222.9780 C   0  0  0  0  0  0  0  0  0  0  0  0
  139.5330   69.7140  224.2910 C   0  0  0  0  0  0  0  0  0  0  0  0
  139.3080   68.5990  225.0610 C   0  0  0  0  0  0  0  0  0  0  0  0
  139.7580   68.5790  226.3670 C   0  0  0  0  0  0  0  0  0  0  0  0
  139.5410   67.4730  227.1520 F   0  0  0  0  0  0  0  0  0  0  0  0
  140.4320   69.6660  226.9100 C   0  0  0  0  0  0  0  0  0  0  0  0
  140.6690   70.8070  226.1390 C   0  0  0  0  0  0  0  0  0  0  0  0
  140.2030   70.7920  224.8330 C   0  0  0  0  0  0  0  0  0  0  0  0
  140.4400   71.8990  224.1050 N   0  0  0  0  0  0  0  0  0  0  0  0
  138.8200   74.3600  223.0810 H   0  0  0  0  0  0  0  0  0  0  0  0
  140.8688   75.8390  221.5759 H   0  0  0  0  0  0  0  0  0  0  0  0
  139.3093   75.5915  220.6724 H   0  0  0  0  0  0  0  0  0  0  0  0
  141.5596   77.2523  221.4422 H   0  0  0  0  0  0  0  0  0  0  0  0
  140.9172   78.8234  220.7511 H   0  0  0  0  0  0  0  0  0  0  0  0
  143.0444   78.4159  222.5949 H   0  0  0  0  0  0  0  0  0  0  0  0
  142.4215   79.9355  221.8876 H   0  0  0  0  0  0  0  0  0  0  0  0
  141.2912   78.4812  224.3440 H   0  0  0  0  0  0  0  0  0  0  0  0
  142.2327   79.9857  224.3807 H   0  0  0  0  0  0  0  0  0  0  0  0
  139.9178   80.7235  224.3669 H   0  0  0  0  0  0  0  0  0  0  0  0
  140.4199   80.9279  222.6806 H   0  0  0  0  0  0  0  0  0  0  0  0
  138.7268   78.7798  223.9592 H   0  0  0  0  0  0  0  0  0  0  0  0
  138.5002   79.6489  222.3952 H   0  0  0  0  0  0  0  0  0  0  0  0
  139.0345   71.0402  221.1840 H   0  0  0  0  0  0  0  0  0  0  0  0
  138.5872   68.9956  222.5095 H   0  0  0  0  0  0  0  0  0  0  0  0
  138.7757   67.7321  224.6426 H   0  0  0  0  0  0  0  0  0  0  0  0
  140.7809   69.6281  227.9525 H   0  0  0  0  0  0  0  0  0  0  0  0
  141.2012   71.6778  226.5495 H   0  0  0  0  0  0  0  0  0  0  0  0
  1  2  2  0
  2  3  1  0
  3  4  1  0
  4  5  1  0
  5  6  2  0
  5  7  1  0
  7  8  1  0
  8  9  1  0
  9 10  1  0
 10 11  1  0
 11 12  1  0
  2 13  1  0
 13 14  2  0
 14 15  1  0
 15 16  2  0
 16 17  1  0
 17 18  2  0
 18 19  1  0
 18 20  1  0
 20 21  2  0
 21 22  1  0
 22 23  2  0
 12  7  1  0
 23 13  1  0
 22 16  1  0
  3 24  1  0
  4 25  1  0
  4 26  1  0
  8 27  1  0
  8 28  1  0
  9 29  1  0
  9 30  1  0
 10 31  1  0
 10 32  1  0
 11 33  1  0
 11 34  1  0
 12 35  1  0
 12 36  1  0
 14 37  1  0
 15 38  1  0
 17 39  1  0
 20 40  1  0
 21 41  1  0
M  END
>  <smiles>  (30) 
O=C(NCC(=O)N1CCCCC1)c1ccc2cc(F)ccc2n1

>  <score_type>  (30) 
oracle

>  <origin>  (30) 
autodockgpu

>  <m_score__min__energy>  (30) 
-7.29

>  <m_primary>  (30) 
energy

>  <rmsd>  (30) 
3.790966832528958

>  <m_score__min__rmsd>  (30) 
3.790966832528958

>  <meeko>  (30) 
{"free_energy": -7.12, "intermolecular_energy": -8.02, "internal_energy": -0.99, "cluster_size": 42, "cluster_id": 1, "rank_in_cluster": 16}

>  <energy>  (30) 
-7.12

>  <cluster_rmsd>  (30) 
1.36

>  <cluster>  (30) 
1

$$$$

     RDKit          3D

 41 43  0  0  0  0  0  0  0  0999 V2000
  141.2020   73.2580  221.1220 O   0  0  0  0  0  0  0  0  0  0  0  0
  140.3040   73.2660  222.0160 C   0  0  0  0  0  0  0  0  0  0  0  0
  139.5790   74.4300  222.3220 N   0  0  0  0  0  0  0  0  0  0  0  0
  139.8120   75.6740  221.6440 C   0  0  0  0  0  0  0  0  0  0  0  0
  139.1970   76.8250  222.3440 C   0  0  0  0  0  0  0  0  0  0  0  0
  138.0920   76.6560  222.9130 O   0  0  0  0  0  0  0  0  0  0  0  0
  139.9000   78.0620  222.3320 N   0  0  0  0  0  0  0  0  0  0  0  0
  141.1780   78.2420  221.6690 C   0  0  0  0  0  0  0  0  0  0  0  0
  142.1770   79.0170  222.4660 C   0  0  0  0  0  0  0  0  0  0  0  0
  141.5470   79.3860  223.7930 C   0  0  0  0  0  0  0  0  0  0  0  0
  140.2800   80.1850  223.4660 C   0  0  0  0  0  0  0  0  0  0  0  0
  139.2570   79.1790  223.0380 C   0  0  0  0  0  0  0  0  0  0  0  0
  139.9980   72.0300  222.7640 C   0  0  0  0  0  0  0  0  0  0  0  0
  139.3000   70.9870  222.1850 C   0  0  0  0  0  0  0  0  0  0  0  0
  139.0370   69.8450  222.9320 C   0  0  0  0  0  0  0  0  0  0  0  0
  139.4530   69.7130  224.2410 C   0  0  0  0  0  0  0  0  0  0  0  0
  139.2130   68.6000  225.0090 C   0  0  0  0  0  0  0  0  0  0  0  0
  139.6720   68.5670  226.3120 C   0  0  0  0  0  0  0  0  0  0  0  0
  139.4400   67.4630  227.0940 F   0  0  0  0  0  0  0  0  0  0  0  0
  140.3700   69.6390  226.8530 C   0  0  0  0  0  0  0  0  0  0  0  0
  140.6230   70.7780  226.0840 C   0  0  0  0  0  0  0  0  0  0  0  0
  140.1470   70.7770  224.7820 C   0  0  0  0  0  0  0  0  0  0  0  0
  140.3990   71.8820  224.0560 N   0  0  0  0  0  0  0  0  0  0  0  0
  138.8400   74.3850  223.0760 H   0  0  0  0  0  0  0  0  0  0  0  0
  140.8971   75.8411  221.5763 H   0  0  0  0  0  0  0  0  0  0  0  0
  139.3509   75.6033  220.6478 H   0  0  0  0  0  0  0  0  0  0  0  0
  141.6005   77.2484  221.4584 H   0  0  0  0  0  0  0  0  0  0  0  0
  140.9818   78.8235  220.7561 H   0  0  0  0  0  0  0  0  0  0  0  0
  143.0726   78.4020  222.6382 H   0  0  0  0  0  0  0  0  0  0  0  0
  142.4716   79.9263  221.9215 H   0  0  0  0  0  0  0  0  0  0  0  0
  141.2884   78.4775  224.3567 H   0  0  0  0  0  0  0  0  0  0  0  0
  142.2398   79.9746  224.4123 H   0  0  0  0  0  0  0  0  0  0  0  0
  139.9314   80.7299  224.3557 H   0  0  0  0  0  0  0  0  0  0  0  0
  140.4657   80.9308  222.6790 H   0  0  0  0  0  0  0  0  0  0  0  0
  138.7343   78.7936  223.9258 H   0  0  0  0  0  0  0  0  0  0  0  0
  138.5412   79.6652  222.3588 H   0  0  0  0  0  0  0  0  0  0  0  0
  138.9559   71.0601  221.1428 H   0  0  0  0  0  0  0  0  0  0  0  0
  138.4794   69.0199  222.4648 H   0  0  0  0  0  0  0  0  0  0  0  0
  138.6616   67.7445  224.5916 H   0  0  0  0  0  0  0  0  0  0  0  0
  140.7257   69.5911  227.8928 H   0  0  0  0  0  0  0  0  0  0  0  0
  141.1751   71.6368  226.4934 H   0  0  0  0  0  0  0  0  0  0  0  0
  1  2  2  0
  2  3  1  0
  3  4  1  0
  4  5  1  0
  5  6  2  0
  5  7  1  0
  7  8  1  0
  8  9  1  0
  9 10  1  0
 10 11  1  0
 11 12  1  0
  2 13  1  0
 13 14  2  0
 14 15  1  0
 15 16  2  0
 16 17  1  0
 17 18  2  0
 18 19  1  0
 18 20  1  0
 20 21  2  0
 21 22  1  0
 22 23  2  0
 12  7  1  0
 23 13  1  0
 22 16  1  0
  3 24  1  0
  4 25  1  0
  4 26  1  0
  8 27  1  0
  8 28  1  0
  9 29  1  0
  9 30  1  0
 10 31  1  0
 10 32  1  0
 11 33  1  0
 11 34  1  0
 12 35  1  0
 12 36  1  0
 14 37  1  0
 15 38  1  0
 17 39  1  0
 20 40  1  0
 21 41  1  0
M  END
>  <smiles>  (31) 
O=C(NCC(=O)N1CCCCC1)c1ccc2cc(F)ccc2n1

>  <score_type>  (31) 
oracle

>  <origin>  (31) 
autodockgpu

>  <m_score__min__energy>  (31) 
-7.29

>  <m_primary>  (31) 
energy

>  <rmsd>  (31) 
3.8037513565032666

>  <m_score__min__rmsd>  (31) 
3.8037513565032666

>  <meeko>  (31) 
{"free_energy": -7.12, "intermolecular_energy": -8.01, "internal_energy": -0.99, "cluster_size": 42, "cluster_id": 1, "rank_in_cluster": 33}

>  <energy>  (31) 
-7.12

>  <cluster_rmsd>  (31) 
1.37

>  <cluster>  (31) 
1

$$$$

     RDKit          3D

 41 43  0  0  0  0  0  0  0  0999 V2000
  139.1170   70.7420  221.4290 O   0  0  0  0  0  0  0  0  0  0  0  0
  139.4270   71.2650  222.5410 C   0  0  0  0  0  0  0  0  0  0  0  0
  139.6470   72.6460  222.6700 N   0  0  0  0  0  0  0  0  0  0  0  0
  139.5350   73.5440  221.5550 C   0  0  0  0  0  0  0  0  0  0  0  0
  140.7270   74.4090  221.4030 C   0  0  0  0  0  0  0  0  0  0  0  0
  140.7460   75.5100  222.0020 O   0  0  0  0  0  0  0  0  0  0  0  0
  141.7890   73.9360  220.5810 N   0  0  0  0  0  0  0  0  0  0  0  0
  141.7530   72.6590  219.8950 C   0  0  0  0  0  0  0  0  0  0  0  0
  143.0280   71.8830  219.9780 C   0  0  0  0  0  0  0  0  0  0  0  0
  144.0170   72.6770  220.8040 C   0  0  0  0  0  0  0  0  0  0  0  0
  144.1770   74.0340  220.1070 C   0  0  0  0  0  0  0  0  0  0  0  0
  142.9550   74.8230  220.4560 C   0  0  0  0  0  0  0  0  0  0  0  0
  139.5640   70.4150  223.7420 C   0  0  0  0  0  0  0  0  0  0  0  0
  139.1220   69.1060  223.7560 C   0  0  0  0  0  0  0  0  0  0  0  0
  139.2740   68.3480  224.9120 C   0  0  0  0  0  0  0  0  0  0  0  0
  139.8550   68.8610  226.0530 C   0  0  0  0  0  0  0  0  0  0  0  0
  140.0230   68.1430  227.2120 C   0  0  0  0  0  0  0  0  0  0  0  0
  140.6170   68.7490  228.3020 C   0  0  0  0  0  0  0  0  0  0  0  0
  140.7920   68.0460  229.4680 F   0  0  0  0  0  0  0  0  0  0  0  0
  141.0470   70.0690  228.2420 C   0  0  0  0  0  0  0  0  0  0  0  0
  140.8840   70.8120  227.0710 C   0  0  0  0  0  0  0  0  0  0  0  0
  140.2840   70.1720  225.9970 C   0  0  0  0  0  0  0  0  0  0  0  0
  140.1350   70.9030  224.8770 N   0  0  0  0  0  0  0  0  0  0  0  0
  139.9030   73.0330  223.6200 H   0  0  0  0  0  0  0  0  0  0  0  0
  139.4090   72.9521  220.6364 H   0  0  0  0  0  0  0  0  0  0  0  0
  138.6686   74.1969  221.7368 H   0  0  0  0  0  0  0  0  0  0  0  0
  140.9500   72.0517  220.3383 H   0  0  0  0  0  0  0  0  0  0  0  0
  141.5841   72.8767  218.8301 H   0  0  0  0  0  0  0  0  0  0  0  0
  142.8406   70.9104  220.4564 H   0  0  0  0  0  0  0  0  0  0  0  0
  143.4312   71.7091  218.9694 H   0  0  0  0  0  0  0  0  0  0  0  0
  143.6329   72.8173  221.8252 H   0  0  0  0  0  0  0  0  0  0  0  0
  144.9814   72.1535  220.8811 H   0  0  0  0  0  0  0  0  0  0  0  0
  145.0798   74.5465  220.4708 H   0  0  0  0  0  0  0  0  0  0  0  0
  144.2845   73.9178  219.0184 H   0  0  0  0  0  0  0  0  0  0  0  0
  143.1196   75.3418  221.4119 H   0  0  0  0  0  0  0  0  0  0  0  0
  142.7626   75.5539  219.6568 H   0  0  0  0  0  0  0  0  0  0  0  0
  138.6546   68.6679  222.8618 H   0  0  0  0  0  0  0  0  0  0  0  0
  138.9198   67.3066  224.9166 H   0  0  0  0  0  0  0  0  0  0  0  0
  139.6882   67.0969  227.2715 H   0  0  0  0  0  0  0  0  0  0  0  0
  141.5184   70.5312  229.1219 H   0  0  0  0  0  0  0  0  0  0  0  0
  141.2167   71.8583  227.0035 H   0  0  0  0  0  0  0  0  0  0  0  0
  1  2  2  0
  2  3  1  0
  3  4  1  0
  4  5  1  0
  5  6  2  0
  5  7  1  0
  7  8  1  0
  8  9  1  0
  9 10  1  0
 10 11  1  0
 11 12  1  0
  2 13  1  0
 13 14  2  0
 14 15  1  0
 15 16  2  0
 16 17  1  0
 17 18  2  0
 18 19  1  0
 18 20  1  0
 20 21  2  0
 21 22  1  0
 22 23  2  0
 12  7  1  0
 23 13  1  0
 22 16  1  0
  3 24  1  0
  4 25  1  0
  4 26  1  0
  8 27  1  0
  8 28  1  0
  9 29  1  0
  9 30  1  0
 10 31  1  0
 10 32  1  0
 11 33  1  0
 11 34  1  0
 12 35  1  0
 12 36  1  0
 14 37  1  0
 15 38  1  0
 17 39  1  0
 20 40  1  0
 21 41  1  0
M  END
>  <smiles>  (32) 
O=C(NCC(=O)N1CCCCC1)c1ccc2cc(F)ccc2n1

>  <score_type>  (32) 
oracle

>  <origin>  (32) 
autodockgpu

>  <m_score__min__energy>  (32) 
-7.29

>  <m_primary>  (32) 
energy

>  <rmsd>  (32) 
3.05326677770678

>  <m_score__min__rmsd>  (32) 
3.05326677770678

>  <meeko>  (32) 
{"free_energy": -6.84, "intermolecular_energy": -7.74, "internal_energy": -1.17, "cluster_size": 42, "cluster_id": 1, "rank_in_cluster": 42}

>  <energy>  (32) 
-7.12

>  <cluster_rmsd>  (32) 
1.35

>  <cluster>  (32) 
1

$$$$

     RDKit          3D

 41 43  0  0  0  0  0  0  0  0999 V2000
  141.2490   73.2790  221.1730 O   0  0  0  0  0  0  0  0  0  0  0  0
  140.3330   73.2740  222.0510 C   0  0  0  0  0  0  0  0  0  0  0  0
  139.5770   74.4230  222.3320 N   0  0  0  0  0  0  0  0  0  0  0  0
  139.7940   75.6660  221.6480 C   0  0  0  0  0  0  0  0  0  0  0  0
  139.1840   76.8160  222.3540 C   0  0  0  0  0  0  0  0  0  0  0  0
  138.0890   76.6440  222.9390 O   0  0  0  0  0  0  0  0  0  0  0  0
  139.8820   78.0570  222.3280 N   0  0  0  0  0  0  0  0  0  0  0  0
  141.1490   78.2400  221.6470 C   0  0  0  0  0  0  0  0  0  0  0  0
  142.1560   79.0220  222.4260 C   0  0  0  0  0  0  0  0  0  0  0  0
  141.5440   79.3920  223.7610 C   0  0  0  0  0  0  0  0  0  0  0  0
  140.2680   80.1840  223.4510 C   0  0  0  0  0  0  0  0  0  0  0  0
  139.2440   79.1730  223.0410 C   0  0  0  0  0  0  0  0  0  0  0  0
  140.0420   72.0370  222.8040 C   0  0  0  0  0  0  0  0  0  0  0  0
  139.3580   70.9830  222.2280 C   0  0  0  0  0  0  0  0  0  0  0  0
  139.1090   69.8410  222.9800 C   0  0  0  0  0  0  0  0  0  0  0  0
  139.5230   69.7210  224.2910 C   0  0  0  0  0  0  0  0  0  0  0  0
  139.2950   68.6080  225.0640 C   0  0  0  0  0  0  0  0  0  0  0  0
  139.7510   68.5880  226.3670 C   0  0  0  0  0  0  0  0  0  0  0  0
  139.5320   67.4840  227.1540 F   0  0  0  0  0  0  0  0  0  0  0  0
  140.4340   69.6710  226.9050 C   0  0  0  0  0  0  0  0  0  0  0  0
  140.6740   70.8090  226.1320 C   0  0  0  0  0  0  0  0  0  0  0  0
  140.2020   70.7960  224.8280 C   0  0  0  0  0  0  0  0  0  0  0  0
  140.4420   71.9000  224.0980 N   0  0  0  0  0  0  0  0  0  0  0  0
  138.8250   74.3680  223.0730 H   0  0  0  0  0  0  0  0  0  0  0  0
  140.8772   75.8379  221.5640 H   0  0  0  0  0  0  0  0  0  0  0  0
  139.3185   75.5906  220.6590 H   0  0  0  0  0  0  0  0  0  0  0  0
  141.5727   77.2474  221.4342 H   0  0  0  0  0  0  0  0  0  0  0  0
  140.9371   78.8176  220.7351 H   0  0  0  0  0  0  0  0  0  0  0  0
  143.0571   78.4118  222.5866 H   0  0  0  0  0  0  0  0  0  0  0  0
  142.4382   79.9309  221.8743 H   0  0  0  0  0  0  0  0  0  0  0  0
  141.2984   78.4839  224.3311 H   0  0  0  0  0  0  0  0  0  0  0  0
  142.2431   79.9861  224.3679 H   0  0  0  0  0  0  0  0  0  0  0  0
  139.9302   80.7294  224.3446 H   0  0  0  0  0  0  0  0  0  0  0  0
  140.4384   80.9285  222.6594 H   0  0  0  0  0  0  0  0  0  0  0  0
  138.7363   78.7874  223.9374 H   0  0  0  0  0  0  0  0  0  0  0  0
  138.5158   79.6542  222.3715 H   0  0  0  0  0  0  0  0  0  0  0  0
  139.0142   71.0474  221.1851 H   0  0  0  0  0  0  0  0  0  0  0  0
  138.5644   69.0059  222.5152 H   0  0  0  0  0  0  0  0  0  0  0  0
  138.7557   67.7434  224.6496 H   0  0  0  0  0  0  0  0  0  0  0  0
  140.7879   69.6322  227.9458 H   0  0  0  0  0  0  0  0  0  0  0  0
  141.2133   71.6769  226.5392 H   0  0  0  0  0  0  0  0  0  0  0  0
  1  2  2  0
  2  3  1  0
  3  4  1  0
  4  5  1  0
  5  6  2  0
  5  7  1  0
  7  8  1  0
  8  9  1  0
  9 10  1  0
 10 11  1  0
 11 12  1  0
  2 13  1  0
 13 14  2  0
 14 15  1  0
 15 16  2  0
 16 17  1  0
 17 18  2  0
 18 19  1  0
 18 20  1  0
 20 21  2  0
 21 22  1  0
 22 23  2  0
 12  7  1  0
 23 13  1  0
 22 16  1  0
  3 24  1  0
  4 25  1  0
  4 26  1  0
  8 27  1  0
  8 28  1  0
  9 29  1  0
  9 30  1  0
 10 31  1  0
 10 32  1  0
 11 33  1  0
 11 34  1  0
 12 35  1  0
 12 36  1  0
 14 37  1  0
 15 38  1  0
 17 39  1  0
 20 40  1  0
 21 41  1  0
M  END
>  <smiles>  (33) 
O=C(NCC(=O)N1CCCCC1)c1ccc2cc(F)ccc2n1

>  <score_type>  (33) 
oracle

>  <origin>  (33) 
autodockgpu

>  <m_score__min__energy>  (33) 
-7.29

>  <m_primary>  (33) 
energy

>  <rmsd>  (33) 
3.7860780353275802

>  <m_score__min__rmsd>  (33) 
3.7860780353275802

>  <meeko>  (33) 
{"free_energy": -7.12, "intermolecular_energy": -8.02, "internal_energy": -0.99, "cluster_size": 42, "cluster_id": 1, "rank_in_cluster": 18}

>  <energy>  (33) 
-7.12

>  <cluster_rmsd>  (33) 
1.38

>  <cluster>  (33) 
1

$$$$

     RDKit          3D

 41 43  0  0  0  0  0  0  0  0999 V2000
  141.4060   73.3420  221.3940 O   0  0  0  0  0  0  0  0  0  0  0  0
  140.4010   73.2880  222.1650 C   0  0  0  0  0  0  0  0  0  0  0  0
  139.5490   74.3900  222.3440 N   0  0  0  0  0  0  0  0  0  0  0  0
  139.7650   75.6380  221.6680 C   0  0  0  0  0  0  0  0  0  0  0  0
  139.1670   76.7850  222.3900 C   0  0  0  0  0  0  0  0  0  0  0  0
  138.0890   76.6050  223.0060 O   0  0  0  0  0  0  0  0  0  0  0  0
  139.8540   78.0300  222.3430 N   0  0  0  0  0  0  0  0  0  0  0  0
  141.1000   78.2220  221.6260 C   0  0  0  0  0  0  0  0  0  0  0  0
  142.1230   79.0120  222.3760 C   0  0  0  0  0  0  0  0  0  0  0  0
  141.5460   79.3790  223.7270 C   0  0  0  0  0  0  0  0  0  0  0  0
  140.2550   80.1620  223.4530 C   0  0  0  0  0  0  0  0  0  0  0  0
  139.2280   79.1430  223.0720 C   0  0  0  0  0  0  0  0  0  0  0  0
  140.1030   72.0420  222.9010 C   0  0  0  0  0  0  0  0  0  0  0  0
  139.4540   70.9820  222.2970 C   0  0  0  0  0  0  0  0  0  0  0  0
  139.1970   69.8310  223.0330 C   0  0  0  0  0  0  0  0  0  0  0  0
  139.5710   69.7090  224.3560 C   0  0  0  0  0  0  0  0  0  0  0  0
  139.3350   68.5880  225.1140 C   0  0  0  0  0  0  0  0  0  0  0  0
  139.7500   68.5650  226.4310 C   0  0  0  0  0  0  0  0  0  0  0  0
  139.5220   67.4530  227.2040 F   0  0  0  0  0  0  0  0  0  0  0  0
  140.4010   69.6540  226.9970 C   0  0  0  0  0  0  0  0  0  0  0  0
  140.6490   70.8000  226.2390 C   0  0  0  0  0  0  0  0  0  0  0  0
  140.2180   70.7890  224.9210 C   0  0  0  0  0  0  0  0  0  0  0  0
  140.4650   71.9020  224.2050 N   0  0  0  0  0  0  0  0  0  0  0  0
  138.7250   74.2940  222.9980 H   0  0  0  0  0  0  0  0  0  0  0  0
  140.8481   75.8058  221.5746 H   0  0  0  0  0  0  0  0  0  0  0  0
  139.2795   75.5731  220.6831 H   0  0  0  0  0  0  0  0  0  0  0  0
  141.5248   77.2325  221.4015 H   0  0  0  0  0  0  0  0  0  0  0  0
  140.8580   78.7974  220.7203 H   0  0  0  0  0  0  0  0  0  0  0  0
  143.0325   78.4083  222.5119 H   0  0  0  0  0  0  0  0  0  0  0  0
  142.3833   79.9222  221.8159 H   0  0  0  0  0  0  0  0  0  0  0  0
  141.3233   78.4697  224.3045 H   0  0  0  0  0  0  0  0  0  0  0  0
  142.2577   79.9791  224.3131 H   0  0  0  0  0  0  0  0  0  0  0  0
  139.9383   80.7049  224.3558 H   0  0  0  0  0  0  0  0  0  0  0  0
  140.3973   80.9079  222.6571 H   0  0  0  0  0  0  0  0  0  0  0  0
  138.7476   78.7550  223.9823 H   0  0  0  0  0  0  0  0  0  0  0  0
  138.4789   79.6182  222.4216 H   0  0  0  0  0  0  0  0  0  0  0  0
  139.1437   71.0484  221.2438 H   0  0  0  0  0  0  0  0  0  0  0  0
  138.6795   68.9914  222.5459 H   0  0  0  0  0  0  0  0  0  0  0  0
  138.8215   67.7188  224.6771 H   0  0  0  0  0  0  0  0  0  0  0  0
  140.7228   69.6131  228.0481 H   0  0  0  0  0  0  0  0  0  0  0  0
  141.1633   71.6726  226.6681 H   0  0  0  0  0  0  0  0  0  0  0  0
  1  2  2  0
  2  3  1  0
  3  4  1  0
  4  5  1  0
  5  6  2  0
  5  7  1  0
  7  8  1  0
  8  9  1  0
  9 10  1  0
 10 11  1  0
 11 12  1  0
  2 13  1  0
 13 14  2  0
 14 15  1  0
 15 16  2  0
 16 17  1  0
 17 18  2  0
 18 19  1  0
 18 20  1  0
 20 21  2  0
 21 22  1  0
 22 23  2  0
 12  7  1  0
 23 13  1  0
 22 16  1  0
  3 24  1  0
  4 25  1  0
  4 26  1  0
  8 27  1  0
  8 28  1  0
  9 29  1  0
  9 30  1  0
 10 31  1  0
 10 32  1  0
 11 33  1  0
 11 34  1  0
 12 35  1  0
 12 36  1  0
 14 37  1  0
 15 38  1  0
 17 39  1  0
 20 40  1  0
 21 41  1  0
M  END
>  <smiles>  (34) 
O=C(NCC(=O)N1CCCCC1)c1ccc2cc(F)ccc2n1

>  <score_type>  (34) 
oracle

>  <origin>  (34) 
autodockgpu

>  <m_score__min__energy>  (34) 
-7.29

>  <m_primary>  (34) 
energy

>  <rmsd>  (34) 
3.7724448358555716

>  <m_score__min__rmsd>  (34) 
3.7724448358555716

>  <meeko>  (34) 
{"free_energy": -7.11, "intermolecular_energy": -8.01, "internal_energy": -0.99, "cluster_size": 42, "cluster_id": 1, "rank_in_cluster": 34}

>  <energy>  (34) 
-7.11

>  <cluster_rmsd>  (34) 
1.35

>  <cluster>  (34) 
1

$$$$

     RDKit          3D

 41 43  0  0  0  0  0  0  0  0999 V2000
  139.2460   70.7650  221.4480 O   0  0  0  0  0  0  0  0  0  0  0  0
  139.5100   71.2700  222.5800 C   0  0  0  0  0  0  0  0  0  0  0  0
  139.7100   72.6510  222.7410 N   0  0  0  0  0  0  0  0  0  0  0  0
  139.6290   73.5670  221.6400 C   0  0  0  0  0  0  0  0  0  0  0  0
  140.8820   74.3330  221.4450 C   0  0  0  0  0  0  0  0  0  0  0  0
  140.9960   75.4450  222.0130 O   0  0  0  0  0  0  0  0  0  0  0  0
  141.8890   73.7580  220.6210 N   0  0  0  0  0  0  0  0  0  0  0  0
  141.7430   72.4690  219.9700 C   0  0  0  0  0  0  0  0  0  0  0  0
  142.9540   71.5990  220.0550 C   0  0  0  0  0  0  0  0  0  0  0  0
  144.0170   72.3350  220.8440 C   0  0  0  0  0  0  0  0  0  0  0  0
  144.2690   73.6560  220.1080 C   0  0  0  0  0  0  0  0  0  0  0  0
  143.1180   74.5480  220.4530 C   0  0  0  0  0  0  0  0  0  0  0  0
  139.6140   70.4000  223.7690 C   0  0  0  0  0  0  0  0  0  0  0  0
  139.1460   69.1000  223.7580 C   0  0  0  0  0  0  0  0  0  0  0  0
  139.2670   68.3220  224.9040 C   0  0  0  0  0  0  0  0  0  0  0  0
  139.8420   68.8060  226.0610 C   0  0  0  0  0  0  0  0  0  0  0  0
  139.9790   68.0680  227.2110 C   0  0  0  0  0  0  0  0  0  0  0  0
  140.5700   68.6460  228.3170 C   0  0  0  0  0  0  0  0  0  0  0  0
  140.7140   67.9220  229.4750 F   0  0  0  0  0  0  0  0  0  0  0  0
  141.0260   69.9570  228.2840 C   0  0  0  0  0  0  0  0  0  0  0  0
  140.8940   70.7210  227.1220 C   0  0  0  0  0  0  0  0  0  0  0  0
  140.2960   70.1090  226.0310 C   0  0  0  0  0  0  0  0  0  0  0  0
  140.1780   70.8600  224.9200 N   0  0  0  0  0  0  0  0  0  0  0  0
  139.9290   73.0230  223.7060 H   0  0  0  0  0  0  0  0  0  0  0  0
  139.4172   72.9980  220.7227 H   0  0  0  0  0  0  0  0  0  0  0  0
  138.8284   74.2876  221.8633 H   0  0  0  0  0  0  0  0  0  0  0  0
  140.9030   71.9378  220.4413 H   0  0  0  0  0  0  0  0  0  0  0  0
  141.5741   72.6718  218.9021 H   0  0  0  0  0  0  0  0  0  0  0  0
  142.6998   70.6570  220.5630 H   0  0  0  0  0  0  0  0  0  0  0  0
  143.3248   71.3677  219.0455 H   0  0  0  0  0  0  0  0  0  0  0  0
  143.6632   72.5314  221.8669 H   0  0  0  0  0  0  0  0  0  0  0  0
  144.9391   71.7400  220.9203 H   0  0  0  0  0  0  0  0  0  0  0  0
  145.2149   74.1059  220.4438 H   0  0  0  0  0  0  0  0  0  0  0  0
  144.3477   73.5027  219.0216 H   0  0  0  0  0  0  0  0  0  0  0  0
  143.3390   75.0783  221.3911 H   0  0  0  0  0  0  0  0  0  0  0  0
  142.9691   75.2699  219.6365 H   0  0  0  0  0  0  0  0  0  0  0  0
  138.6821   68.6845  222.8512 H   0  0  0  0  0  0  0  0  0  0  0  0
  138.8924   67.2879  224.8877 H   0  0  0  0  0  0  0  0  0  0  0  0
  139.6220   67.0283  227.2506 H   0  0  0  0  0  0  0  0  0  0  0  0
  141.4936   70.3963  229.1775 H   0  0  0  0  0  0  0  0  0  0  0  0
  141.2485   71.7612  227.0747 H   0  0  0  0  0  0  0  0  0  0  0  0
  1  2  2  0
  2  3  1  0
  3  4  1  0
  4  5  1  0
  5  6  2  0
  5  7  1  0
  7  8  1  0
  8  9  1  0
  9 10  1  0
 10 11  1  0
 11 12  1  0
  2 13  1  0
 13 14  2  0
 14 15  1  0
 15 16  2  0
 16 17  1  0
 17 18  2  0
 18 19  1  0
 18 20  1  0
 20 21  2  0
 21 22  1  0
 22 23  2  0
 12  7  1  0
 23 13  1  0
 22 16  1  0
  3 24  1  0
  4 25  1  0
  4 26  1  0
  8 27  1  0
  8 28  1  0
  9 29  1  0
  9 30  1  0
 10 31  1  0
 10 32  1  0
 11 33  1  0
 11 34  1  0
 12 35  1  0
 12 36  1  0
 14 37  1  0
 15 38  1  0
 17 39  1  0
 20 40  1  0
 21 41  1  0
M  END
>  <smiles>  (35) 
O=C(NCC(=O)N1CCCCC1)c1ccc2cc(F)ccc2n1

>  <score_type>  (35) 
oracle

>  <origin>  (35) 
autodockgpu

>  <m_score__min__energy>  (35) 
-7.29

>  <m_primary>  (35) 
energy

>  <rmsd>  (35) 
3.1748627967520076

>  <m_score__min__rmsd>  (35) 
3.1748627967520076

>  <meeko>  (35) 
{"free_energy": -6.83, "intermolecular_energy": -7.72, "internal_energy": -1.19, "cluster_size": 8, "cluster_id": 2, "rank_in_cluster": 8}

>  <energy>  (35) 
-7.1

>  <cluster_rmsd>  (35) 
1.38

>  <cluster>  (35) 
1

$$$$

     RDKit          3D

 41 43  0  0  0  0  0  0  0  0999 V2000
  141.2750   73.2820  221.2140 O   0  0  0  0  0  0  0  0  0  0  0  0
  140.3450   73.2670  222.0750 C   0  0  0  0  0  0  0  0  0  0  0  0
  139.5700   74.4070  222.3430 N   0  0  0  0  0  0  0  0  0  0  0  0
  139.7860   75.6530  221.6620 C   0  0  0  0  0  0  0  0  0  0  0  0
  139.1690   76.7990  222.3680 C   0  0  0  0  0  0  0  0  0  0  0  0
  138.0710   76.6220  222.9480 O   0  0  0  0  0  0  0  0  0  0  0  0
  139.8630   78.0420  222.3480 N   0  0  0  0  0  0  0  0  0  0  0  0
  141.1330   78.2310  221.6730 C   0  0  0  0  0  0  0  0  0  0  0  0
  142.1340   79.0130  222.4590 C   0  0  0  0  0  0  0  0  0  0  0  0
  141.5150   79.3780  223.7920 C   0  0  0  0  0  0  0  0  0  0  0  0
  140.2380   80.1670  223.4780 C   0  0  0  0  0  0  0  0  0  0  0  0
  139.2190   79.1540  223.0610 C   0  0  0  0  0  0  0  0  0  0  0  0
  140.0540   72.0270  222.8240 C   0  0  0  0  0  0  0  0  0  0  0  0
  139.3710   70.9750  222.2440 C   0  0  0  0  0  0  0  0  0  0  0  0
  139.1220   69.8290  222.9910 C   0  0  0  0  0  0  0  0  0  0  0  0
  139.5360   69.7050  224.3010 C   0  0  0  0  0  0  0  0  0  0  0  0
  139.3090   68.5890  225.0700 C   0  0  0  0  0  0  0  0  0  0  0  0
  139.7650   68.5640  226.3740 C   0  0  0  0  0  0  0  0  0  0  0  0
  139.5460   67.4570  227.1560 F   0  0  0  0  0  0  0  0  0  0  0  0
  140.4480   69.6460  226.9160 C   0  0  0  0  0  0  0  0  0  0  0  0
  140.6870   70.7870  226.1470 C   0  0  0  0  0  0  0  0  0  0  0  0
  140.2150   70.7780  224.8430 C   0  0  0  0  0  0  0  0  0  0  0  0
  140.4540   71.8850  224.1170 N   0  0  0  0  0  0  0  0  0  0  0  0
  138.8060   74.3430  223.0700 H   0  0  0  0  0  0  0  0  0  0  0  0
  140.8690   75.8288  221.5830 H   0  0  0  0  0  0  0  0  0  0  0  0
  139.3153   75.5782  220.6706 H   0  0  0  0  0  0  0  0  0  0  0  0
  141.5605   77.2404  221.4587 H   0  0  0  0  0  0  0  0  0  0  0  0
  140.9235   78.8111  220.7622 H   0  0  0  0  0  0  0  0  0  0  0  0
  143.0357   78.4045  222.6222 H   0  0  0  0  0  0  0  0  0  0  0  0
  142.4165   79.9241  221.9112 H   0  0  0  0  0  0  0  0  0  0  0  0
  141.2696   78.4678  224.3589 H   0  0  0  0  0  0  0  0  0  0  0  0
  142.2096   79.9726  224.4035 H   0  0  0  0  0  0  0  0  0  0  0  0
  139.8945   80.7093  224.3713 H   0  0  0  0  0  0  0  0  0  0  0  0
  140.4098   80.9139  222.6889 H   0  0  0  0  0  0  0  0  0  0  0  0
  138.7087   78.7645  223.9543 H   0  0  0  0  0  0  0  0  0  0  0  0
  138.4923   79.6348  222.3896 H   0  0  0  0  0  0  0  0  0  0  0  0
  139.0276   71.0436  221.2012 H   0  0  0  0  0  0  0  0  0  0  0  0
  138.5780   68.9954  222.5228 H   0  0  0  0  0  0  0  0  0  0  0  0
  138.7705   67.7256  224.6523 H   0  0  0  0  0  0  0  0  0  0  0  0
  140.8024   69.6036  227.9565 H   0  0  0  0  0  0  0  0  0  0  0  0
  141.2255   71.6540  226.5572 H   0  0  0  0  0  0  0  0  0  0  0  0
  1  2  2  0
  2  3  1  0
  3  4  1  0
  4  5  1  0
  5  6  2  0
  5  7  1  0
  7  8  1  0
  8  9  1  0
  9 10  1  0
 10 11  1  0
 11 12  1  0
  2 13  1  0
 13 14  2  0
 14 15  1  0
 15 16  2  0
 16 17  1  0
 17 18  2  0
 18 19  1  0
 18 20  1  0
 20 21  2  0
 21 22  1  0
 22 23  2  0
 12  7  1  0
 23 13  1  0
 22 16  1  0
  3 24  1  0
  4 25  1  0
  4 26  1  0
  8 27  1  0
  8 28  1  0
  9 29  1  0
  9 30  1  0
 10 31  1  0
 10 32  1  0
 11 33  1  0
 11 34  1  0
 12 35  1  0
 12 36  1  0
 14 37  1  0
 15 38  1  0
 17 39  1  0
 20 40  1  0
 21 41  1  0
M  END
>  <smiles>  (36) 
O=C(NCC(=O)N1CCCCC1)c1ccc2cc(F)ccc2n1

>  <score_type>  (36) 
oracle

>  <origin>  (36) 
autodockgpu

>  <m_score__min__energy>  (36) 
-7.29

>  <m_primary>  (36) 
energy

>  <rmsd>  (36) 
3.7893372118529656

>  <m_score__min__rmsd>  (36) 
3.7893372118529656

>  <meeko>  (36) 
{"free_energy": -7.13, "intermolecular_energy": -8.02, "internal_energy": -0.99, "cluster_size": 42, "cluster_id": 1, "rank_in_cluster": 10}

>  <energy>  (36) 
-7.07

>  <cluster_rmsd>  (36) 
1.42

>  <cluster>  (36) 
1

$$$$

     RDKit          3D

 41 43  0  0  0  0  0  0  0  0999 V2000
  141.2420   73.2690  221.1790 O   0  0  0  0  0  0  0  0  0  0  0  0
  140.3260   73.2620  222.0560 C   0  0  0  0  0  0  0  0  0  0  0  0
  139.5730   74.4120  222.3440 N   0  0  0  0  0  0  0  0  0  0  0  0
  139.7950   75.6580  221.6670 C   0  0  0  0  0  0  0  0  0  0  0  0
  139.1820   76.8050  222.3740 C   0  0  0  0  0  0  0  0  0  0  0  0
  138.0860   76.6290  222.9580 O   0  0  0  0  0  0  0  0  0  0  0  0
  139.8760   78.0470  222.3520 N   0  0  0  0  0  0  0  0  0  0  0  0
  141.1440   78.2350  221.6720 C   0  0  0  0  0  0  0  0  0  0  0  0
  142.1480   79.0180  222.4540 C   0  0  0  0  0  0  0  0  0  0  0  0
  141.5340   79.3830  223.7900 C   0  0  0  0  0  0  0  0  0  0  0  0
  140.2570   80.1730  223.4800 C   0  0  0  0  0  0  0  0  0  0  0  0
  139.2350   79.1610  223.0660 C   0  0  0  0  0  0  0  0  0  0  0  0
  140.0300   72.0220  222.8020 C   0  0  0  0  0  0  0  0  0  0  0  0
  139.3420   70.9740  222.2200 C   0  0  0  0  0  0  0  0  0  0  0  0
  139.0880   69.8280  222.9650 C   0  0  0  0  0  0  0  0  0  0  0  0
  139.5030   69.6990  224.2750 C   0  0  0  0  0  0  0  0  0  0  0  0
  139.2710   68.5830  225.0420 C   0  0  0  0  0  0  0  0  0  0  0  0
  139.7280   68.5520  226.3450 C   0  0  0  0  0  0  0  0  0  0  0  0
  139.5040   67.4450  227.1250 F   0  0  0  0  0  0  0  0  0  0  0  0
  140.4160   69.6290  226.8880 C   0  0  0  0  0  0  0  0  0  0  0  0
  140.6600   70.7710  226.1220 C   0  0  0  0  0  0  0  0  0  0  0  0
  140.1870   70.7680  224.8190 C   0  0  0  0  0  0  0  0  0  0  0  0
  140.4310   71.8750  224.0940 N   0  0  0  0  0  0  0  0  0  0  0  0
  138.8210   74.3550  223.0840 H   0  0  0  0  0  0  0  0  0  0  0  0
  140.8788   75.8294  221.5903 H   0  0  0  0  0  0  0  0  0  0  0  0
  139.3251   75.5874  220.6749 H   0  0  0  0  0  0  0  0  0  0  0  0
  141.5706   77.2441  221.4573 H   0  0  0  0  0  0  0  0  0  0  0  0
  140.9315   78.8139  220.7611 H   0  0  0  0  0  0  0  0  0  0  0  0
  143.0507   78.4101  222.6136 H   0  0  0  0  0  0  0  0  0  0  0  0
  142.4277   79.9292  221.9049 H   0  0  0  0  0  0  0  0  0  0  0  0
  141.2897   78.4729  224.3574 H   0  0  0  0  0  0  0  0  0  0  0  0
  142.2312   79.9765  224.3997 H   0  0  0  0  0  0  0  0  0  0  0  0
  139.9169   80.7156  224.3743 H   0  0  0  0  0  0  0  0  0  0  0  0
  140.4272   80.9195  222.6902 H   0  0  0  0  0  0  0  0  0  0  0  0
  138.7261   78.7730  223.9607 H   0  0  0  0  0  0  0  0  0  0  0  0
  138.5075   79.6424  222.3960 H   0  0  0  0  0  0  0  0  0  0  0  0
  138.9987   71.0460  221.1774 H   0  0  0  0  0  0  0  0  0  0  0  0
  138.5391   68.9982  222.4958 H   0  0  0  0  0  0  0  0  0  0  0  0
  138.7272   67.7235  224.6229 H   0  0  0  0  0  0  0  0  0  0  0  0
  140.7711   69.5824  227.9281 H   0  0  0  0  0  0  0  0  0  0  0  0
  141.2032   71.6342  226.5342 H   0  0  0  0  0  0  0  0  0  0  0  0
  1  2  2  0
  2  3  1  0
  3  4  1  0
  4  5  1  0
  5  6  2  0
  5  7  1  0
  7  8  1  0
  8  9  1  0
  9 10  1  0
 10 11  1  0
 11 12  1  0
  2 13  1  0
 13 14  2  0
 14 15  1  0
 15 16  2  0
 16 17  1  0
 17 18  2  0
 18 19  1  0
 18 20  1  0
 20 21  2  0
 21 22  1  0
 22 23  2  0
 12  7  1  0
 23 13  1  0
 22 16  1  0
  3 24  1  0
  4 25  1  0
  4 26  1  0
  8 27  1  0
  8 28  1  0
  9 29  1  0
  9 30  1  0
 10 31  1  0
 10 32  1  0
 11 33  1  0
 11 34  1  0
 12 35  1  0
 12 36  1  0
 14 37  1  0
 15 38  1  0
 17 39  1  0
 20 40  1  0
 21 41  1  0
M  END
>  <smiles>  (37) 
O=C(NCC(=O)N1CCCCC1)c1ccc2cc(F)ccc2n1

>  <score_type>  (37) 
oracle

>  <origin>  (37) 
autodockgpu

>  <m_score__min__energy>  (37) 
-7.29

>  <m_primary>  (37) 
energy

>  <rmsd>  (37) 
3.796057635537389

>  <m_score__min__rmsd>  (37) 
3.796057635537389

>  <meeko>  (37) 
{"free_energy": -7.12, "intermolecular_energy": -8.02, "internal_energy": -1.0, "cluster_size": 42, "cluster_id": 1, "rank_in_cluster": 28}

>  <energy>  (37) 
-7.07

>  <cluster_rmsd>  (37) 
1.42

>  <cluster>  (37) 
1

$$$$

     RDKit          3D

 41 43  0  0  0  0  0  0  0  0999 V2000
  141.3560   73.2910  221.3130 O   0  0  0  0  0  0  0  0  0  0  0  0
  140.3780   73.2620  222.1190 C   0  0  0  0  0  0  0  0  0  0  0  0
  139.5720   74.3910  222.3410 N   0  0  0  0  0  0  0  0  0  0  0  0
  139.8080   75.6390  221.6730 C   0  0  0  0  0  0  0  0  0  0  0  0
  139.1880   76.7850  222.3770 C   0  0  0  0  0  0  0  0  0  0  0  0
  138.0940   76.6050  222.9620 O   0  0  0  0  0  0  0  0  0  0  0  0
  139.8760   78.0310  222.3490 N   0  0  0  0  0  0  0  0  0  0  0  0
  141.1410   78.2240  221.6680 C   0  0  0  0  0  0  0  0  0  0  0  0
  142.1420   79.0150  222.4460 C   0  0  0  0  0  0  0  0  0  0  0  0
  141.5270   79.3820  223.7810 C   0  0  0  0  0  0  0  0  0  0  0  0
  140.2450   80.1630  223.4700 C   0  0  0  0  0  0  0  0  0  0  0  0
  139.2290   79.1430  223.0610 C   0  0  0  0  0  0  0  0  0  0  0  0
  140.0630   72.0180  222.8510 C   0  0  0  0  0  0  0  0  0  0  0  0
  139.3560   70.9890  222.2580 C   0  0  0  0  0  0  0  0  0  0  0  0
  139.0850   69.8390  222.9890 C   0  0  0  0  0  0  0  0  0  0  0  0
  139.5010   69.6860  224.2960 C   0  0  0  0  0  0  0  0  0  0  0  0
  139.2520   68.5640  225.0490 C   0  0  0  0  0  0  0  0  0  0  0  0
  139.7120   68.5100  226.3510 C   0  0  0  0  0  0  0  0  0  0  0  0
  139.4720   67.3970  227.1180 F   0  0  0  0  0  0  0  0  0  0  0  0
  140.4200   69.5690  226.9060 C   0  0  0  0  0  0  0  0  0  0  0  0
  140.6810   70.7160  226.1530 C   0  0  0  0  0  0  0  0  0  0  0  0
  140.2040   70.7360  224.8510 C   0  0  0  0  0  0  0  0  0  0  0  0
  140.4640   71.8490  224.1400 N   0  0  0  0  0  0  0  0  0  0  0  0
  138.7680   74.3150  223.0230 H   0  0  0  0  0  0  0  0  0  0  0  0
  140.8934   75.8072  221.6129 H   0  0  0  0  0  0  0  0  0  0  0  0
  139.3528   75.5746  220.6737 H   0  0  0  0  0  0  0  0  0  0  0  0
  141.5728   77.2348  221.4559 H   0  0  0  0  0  0  0  0  0  0  0  0
  140.9240   78.7993  220.7559 H   0  0  0  0  0  0  0  0  0  0  0  0
  143.0478   78.4121  222.6073 H   0  0  0  0  0  0  0  0  0  0  0  0
  142.4170   79.9253  221.8932 H   0  0  0  0  0  0  0  0  0  0  0  0
  141.2888   78.4727  224.3524 H   0  0  0  0  0  0  0  0  0  0  0  0
  142.2213   79.9825  224.3871 H   0  0  0  0  0  0  0  0  0  0  0  0
  139.9026   80.7067  224.3629 H   0  0  0  0  0  0  0  0  0  0  0  0
  140.4095   80.9079  222.6775 H   0  0  0  0  0  0  0  0  0  0  0  0
  138.7245   78.7543  223.9579 H   0  0  0  0  0  0  0  0  0  0  0  0
  138.4971   79.6176  222.3909 H   0  0  0  0  0  0  0  0  0  0  0  0
  139.0112   71.0797  221.2174 H   0  0  0  0  0  0  0  0  0  0  0  0
  138.5210   69.0246  222.5109 H   0  0  0  0  0  0  0  0  0  0  0  0
  138.6932   67.7189  224.6206 H   0  0  0  0  0  0  0  0  0  0  0  0
  140.7770   69.5036  227.9444 H   0  0  0  0  0  0  0  0  0  0  0  0
  141.2397   71.5651  226.5737 H   0  0  0  0  0  0  0  0  0  0  0  0
  1  2  2  0
  2  3  1  0
  3  4  1  0
  4  5  1  0
  5  6  2  0
  5  7  1  0
  7  8  1  0
  8  9  1  0
  9 10  1  0
 10 11  1  0
 11 12  1  0
  2 13  1  0
 13 14  2  0
 14 15  1  0
 15 16  2  0
 16 17  1  0
 17 18  2  0
 18 19  1  0
 18 20  1  0
 20 21  2  0
 21 22  1  0
 22 23  2  0
 12  7  1  0
 23 13  1  0
 22 16  1  0
  3 24  1  0
  4 25  1  0
  4 26  1  0
  8 27  1  0
  8 28  1  0
  9 29  1  0
  9 30  1  0
 10 31  1  0
 10 32  1  0
 11 33  1  0
 11 34  1  0
 12 35  1  0
 12 36  1  0
 14 37  1  0
 15 38  1  0
 17 39  1  0
 20 40  1  0
 21 41  1  0
M  END
>  <smiles>  (38) 
O=C(NCC(=O)N1CCCCC1)c1ccc2cc(F)ccc2n1

>  <score_type>  (38) 
oracle

>  <origin>  (38) 
autodockgpu

>  <m_score__min__energy>  (38) 
-7.29

>  <m_primary>  (38) 
energy

>  <rmsd>  (38) 
3.794415851944153

>  <m_score__min__rmsd>  (38) 
3.794415851944153

>  <meeko>  (38) 
{"free_energy": -7.12, "intermolecular_energy": -8.02, "internal_energy": -1.0, "cluster_size": 42, "cluster_id": 1, "rank_in_cluster": 23}

>  <energy>  (38) 
-7.06

>  <cluster_rmsd>  (38) 
1.42

>  <cluster>  (38) 
1

$$$$

     RDKit          3D

 41 43  0  0  0  0  0  0  0  0999 V2000
  139.9440   73.7470  222.6720 O   0  0  0  0  0  0  0  0  0  0  0  0
  140.2250   72.5290  222.4660 C   0  0  0  0  0  0  0  0  0  0  0  0
  140.6320   72.0700  221.2020 N   0  0  0  0  0  0  0  0  0  0  0  0
  140.7520   72.9500  220.0740 C   0  0  0  0  0  0  0  0  0  0  0  0
  141.7600   74.0140  220.2890 C   0  0  0  0  0  0  0  0  0  0  0  0
  141.3710   75.1260  220.7180 O   0  0  0  0  0  0  0  0  0  0  0  0
  143.1190   73.7090  219.9960 N   0  0  0  0  0  0  0  0  0  0  0  0
  143.5540   72.4170  219.5010 C   0  0  0  0  0  0  0  0  0  0  0  0
  144.7930   71.8960  220.1540 C   0  0  0  0  0  0  0  0  0  0  0  0
  145.2400   72.8980  221.1970 C   0  0  0  0  0  0  0  0  0  0  0  0
  145.4540   74.2270  220.4620 C   0  0  0  0  0  0  0  0  0  0  0  0
  144.0880   74.7910  220.2240 C   0  0  0  0  0  0  0  0  0  0  0  0
  140.1290   71.5530  223.5710 C   0  0  0  0  0  0  0  0  0  0  0  0
  139.5670   70.3040  223.3870 C   0  0  0  0  0  0  0  0  0  0  0  0
  139.5000   69.4220  224.4590 C   0  0  0  0  0  0  0  0  0  0  0  0
  139.9800   69.7520  225.7100 C   0  0  0  0  0  0  0  0  0  0  0  0
  139.9310   68.9070  226.7920 C   0  0  0  0  0  0  0  0  0  0  0  0
  140.4390   69.3330  228.0040 C   0  0  0  0  0  0  0  0  0  0  0  0
  140.3980   68.5010  229.0960 F   0  0  0  0  0  0  0  0  0  0  0  0
  140.9960   70.5980  228.1430 C   0  0  0  0  0  0  0  0  0  0  0  0
  141.0520   71.4680  227.0530 C   0  0  0  0  0  0  0  0  0  0  0  0
  140.5330   71.0080  225.8520 C   0  0  0  0  0  0  0  0  0  0  0  0
  140.5960   71.8600  224.8120 N   0  0  0  0  0  0  0  0  0  0  0  0
  140.8550   71.0440  221.0810 H   0  0  0  0  0  0  0  0  0  0  0  0
  141.0459   72.3582  219.1946 H   0  0  0  0  0  0  0  0  0  0  0  0
  139.7774   73.4381  219.9258 H   0  0  0  0  0  0  0  0  0  0  0  0
  142.7440   71.6922  219.6703 H   0  0  0  0  0  0  0  0  0  0  0  0
  143.7908   72.5504  218.4351 H   0  0  0  0  0  0  0  0  0  0  0  0
  144.5816   70.9291  220.6341 H   0  0  0  0  0  0  0  0  0  0  0  0
  145.5844   71.7526  219.4036 H   0  0  0  0  0  0  0  0  0  0  0  0
  144.4662   73.0120  221.9704 H   0  0  0  0  0  0  0  0  0  0  0  0
  146.1626   72.5670  221.6964 H   0  0  0  0  0  0  0  0  0  0  0  0
  146.0490   74.9147  221.0810 H   0  0  0  0  0  0  0  0  0  0  0  0
  146.0004   74.0823  219.5183 H   0  0  0  0  0  0  0  0  0  0  0  0
  143.7788   75.3750  221.1034 H   0  0  0  0  0  0  0  0  0  0  0  0
  144.1186   75.4359  219.3334 H   0  0  0  0  0  0  0  0  0  0  0  0
  139.1764   70.0107  222.4014 H   0  0  0  0  0  0  0  0  0  0  0  0
  139.0503   68.4299  224.3055 H   0  0  0  0  0  0  0  0  0  0  0  0
  139.4924   67.9029  226.6945 H   0  0  0  0  0  0  0  0  0  0  0  0
  141.3951   70.9158  229.1175 H   0  0  0  0  0  0  0  0  0  0  0  0
  141.4884   72.4738  227.1426 H   0  0  0  0  0  0  0  0  0  0  0  0
  1  2  2  0
  2  3  1  0
  3  4  1  0
  4  5  1  0
  5  6  2  0
  5  7  1  0
  7  8  1  0
  8  9  1  0
  9 10  1  0
 10 11  1  0
 11 12  1  0
  2 13  1  0
 13 14  2  0
 14 15  1  0
 15 16  2  0
 16 17  1  0
 17 18  2  0
 18 19  1  0
 18 20  1  0
 20 21  2  0
 21 22  1  0
 22 23  2  0
 12  7  1  0
 23 13  1  0
 22 16  1  0
  3 24  1  0
  4 25  1  0
  4 26  1  0
  8 27  1  0
  8 28  1  0
  9 29  1  0
  9 30  1  0
 10 31  1  0
 10 32  1  0
 11 33  1  0
 11 34  1  0
 12 35  1  0
 12 36  1  0
 14 37  1  0
 15 38  1  0
 17 39  1  0
 20 40  1  0
 21 41  1  0
M  END
>  <smiles>  (39) 
O=C(NCC(=O)N1CCCCC1)c1ccc2cc(F)ccc2n1

>  <score_type>  (39) 
oracle

>  <origin>  (39) 
autodockgpu

>  <m_score__min__energy>  (39) 
-7.29

>  <m_primary>  (39) 
energy

>  <rmsd>  (39) 
3.762737795060271

>  <m_score__min__rmsd>  (39) 
3.762737795060271

>  <meeko>  (39) 
{"free_energy": -7.15, "intermolecular_energy": -8.04, "internal_energy": -0.75, "cluster_size": 8, "cluster_id": 2, "rank_in_cluster": 1}

>  <energy>  (39) 
-7.06

>  <cluster_rmsd>  (39) 
1.42

>  <cluster>  (39) 
1

$$$$

     RDKit          3D

 41 43  0  0  0  0  0  0  0  0999 V2000
  141.4260   73.0560  221.5750 O   0  0  0  0  0  0  0  0  0  0  0  0
  140.4150   73.0160  222.3390 C   0  0  0  0  0  0  0  0  0  0  0  0
  139.4630   74.0490  222.3560 N   0  0  0  0  0  0  0  0  0  0  0  0
  139.5780   75.2060  221.5150 C   0  0  0  0  0  0  0  0  0  0  0  0
  138.9080   76.3940  222.0910 C   0  0  0  0  0  0  0  0  0  0  0  0
  137.7750   76.2480  222.6080 O   0  0  0  0  0  0  0  0  0  0  0  0
  139.5930   77.6400  222.0250 N   0  0  0  0  0  0  0  0  0  0  0  0
  140.9040   77.7930  221.4230 C   0  0  0  0  0  0  0  0  0  0  0  0
  141.8450   78.6440  222.2140 C   0  0  0  0  0  0  0  0  0  0  0  0
  141.1350   79.0980  223.4720 C   0  0  0  0  0  0  0  0  0  0  0  0
  139.8770   79.8480  223.0160 C   0  0  0  0  0  0  0  0  0  0  0  0
  138.8950   78.7950  222.6080 C   0  0  0  0  0  0  0  0  0  0  0  0
  140.2170   71.8610  223.2390 C   0  0  0  0  0  0  0  0  0  0  0  0
  139.5850   70.7100  222.8100 C   0  0  0  0  0  0  0  0  0  0  0  0
  139.4240   69.6510  223.6970 C   0  0  0  0  0  0  0  0  0  0  0  0
  139.8770   69.7100  224.9990 C   0  0  0  0  0  0  0  0  0  0  0  0
  139.7360   68.6840  225.9020 C   0  0  0  0  0  0  0  0  0  0  0  0
  140.2240   68.8430  227.1840 C   0  0  0  0  0  0  0  0  0  0  0  0
  140.0910   67.8280  228.1000 F   0  0  0  0  0  0  0  0  0  0  0  0
  140.8540   70.0190  227.5710 C   0  0  0  0  0  0  0  0  0  0  0  0
  141.0050   71.0700  226.6640 C   0  0  0  0  0  0  0  0  0  0  0  0
  140.5030   70.8770  225.3870 C   0  0  0  0  0  0  0  0  0  0  0  0
  140.6570   71.9000  224.5260 N   0  0  0  0  0  0  0  0  0  0  0  0
  138.6380   73.9680  223.0120 H   0  0  0  0  0  0  0  0  0  0  0  0
  140.6446   75.4357  221.3749 H   0  0  0  0  0  0  0  0  0  0  0  0
  139.0853   74.9749  220.5591 H   0  0  0  0  0  0  0  0  0  0  0  0
  141.3517   76.7943  221.3124 H   0  0  0  0  0  0  0  0  0  0  0  0
  140.7524   78.3006  220.4590 H   0  0  0  0  0  0  0  0  0  0  0  0
  142.7384   78.0606  222.4814 H   0  0  0  0  0  0  0  0  0  0  0  0
  142.1569   79.5158  221.6201 H   0  0  0  0  0  0  0  0  0  0  0  0
  140.8574   78.2288  224.0863 H   0  0  0  0  0  0  0  0  0  0  0  0
  141.7829   79.7433  224.0834 H   0  0  0  0  0  0  0  0  0  0  0  0
  139.4706   80.4504  223.8418 H   0  0  0  0  0  0  0  0  0  0  0  0
  140.0967   80.5373  222.1873 H   0  0  0  0  0  0  0  0  0  0  0  0
  138.3275   78.4671  223.4914 H   0  0  0  0  0  0  0  0  0  0  0  0
  138.2130   79.2165  221.8549 H   0  0  0  0  0  0  0  0  0  0  0  0
  139.2130   70.6319  221.7777 H   0  0  0  0  0  0  0  0  0  0  0  0
  138.9195   68.7373  223.3496 H   0  0  0  0  0  0  0  0  0  0  0  0
  139.2404   67.7473  225.6073 H   0  0  0  0  0  0  0  0  0  0  0  0
  141.2360   70.1229  228.5973 H   0  0  0  0  0  0  0  0  0  0  0  0
  141.5005   72.0094  226.9506 H   0  0  0  0  0  0  0  0  0  0  0  0
  1  2  2  0
  2  3  1  0
  3  4  1  0
  4  5  1  0
  5  6  2  0
  5  7  1  0
  7  8  1  0
  8  9  1  0
  9 10  1  0
 10 11  1  0
 11 12  1  0
  2 13  1  0
 13 14  2  0
 14 15  1  0
 15 16  2  0
 16 17  1  0
 17 18  2  0
 18 19  1  0
 18 20  1  0
 20 21  2  0
 21 22  1  0
 22 23  2  0
 12  7  1  0
 23 13  1  0
 22 16  1  0
  3 24  1  0
  4 25  1  0
  4 26  1  0
  8 27  1  0
  8 28  1  0
  9 29  1  0
  9 30  1  0
 10 31  1  0
 10 32  1  0
 11 33  1  0
 11 34  1  0
 12 35  1  0
 12 36  1  0
 14 37  1  0
 15 38  1  0
 17 39  1  0
 20 40  1  0
 21 41  1  0
M  END
>  <smiles>  (40) 
O=C(NCC(=O)N1CCCCC1)c1ccc2cc(F)ccc2n1

>  <score_type>  (40) 
oracle

>  <origin>  (40) 
autodockgpu

>  <m_score__min__energy>  (40) 
-7.29

>  <m_primary>  (40) 
energy

>  <rmsd>  (40) 
3.4077106585168004

>  <m_score__min__rmsd>  (40) 
3.4077106585168004

>  <meeko>  (40) 
{"free_energy": -7.19, "intermolecular_energy": -8.09, "internal_energy": -0.92, "cluster_size": 42, "cluster_id": 1, "rank_in_cluster": 3}

>  <energy>  (40) 
-7.06

>  <cluster_rmsd>  (40) 
1.42

>  <cluster>  (40) 
1

$$$$

     RDKit          3D

 41 43  0  0  0  0  0  0  0  0999 V2000
  141.4520   73.2990  221.5150 O   0  0  0  0  0  0  0  0  0  0  0  0
  140.3910   73.2630  222.2080 C   0  0  0  0  0  0  0  0  0  0  0  0
  139.5600   74.3880  222.3400 N   0  0  0  0  0  0  0  0  0  0  0  0
  139.8620   75.6380  221.7040 C   0  0  0  0  0  0  0  0  0  0  0  0
  139.2200   76.7890  222.3810 C   0  0  0  0  0  0  0  0  0  0  0  0
  138.1120   76.6100  222.9390 O   0  0  0  0  0  0  0  0  0  0  0  0
  139.9040   78.0370  222.3600 N   0  0  0  0  0  0  0  0  0  0  0  0
  141.1870   78.2280  221.7100 C   0  0  0  0  0  0  0  0  0  0  0  0
  142.1640   79.0290  222.5070 C   0  0  0  0  0  0  0  0  0  0  0  0
  141.5130   79.4060  223.8220 C   0  0  0  0  0  0  0  0  0  0  0  0
  140.2370   80.1800  223.4700 C   0  0  0  0  0  0  0  0  0  0  0  0
  139.2350   79.1530  223.0440 C   0  0  0  0  0  0  0  0  0  0  0  0
  140.0040   72.0160  222.8980 C   0  0  0  0  0  0  0  0  0  0  0  0
  139.0170   71.1880  222.3980 C   0  0  0  0  0  0  0  0  0  0  0  0
  138.6900   70.0260  223.0860 C   0  0  0  0  0  0  0  0  0  0  0  0
  139.3200   69.6660  224.2590 C   0  0  0  0  0  0  0  0  0  0  0  0
  139.0230   68.5260  224.9660 C   0  0  0  0  0  0  0  0  0  0  0  0
  139.7120   68.2560  226.1320 C   0  0  0  0  0  0  0  0  0  0  0  0
  139.4290   67.1210  226.8500 F   0  0  0  0  0  0  0  0  0  0  0  0
  140.6980   69.1180  226.5980 C   0  0  0  0  0  0  0  0  0  0  0  0
  141.0110   70.2810  225.8910 C   0  0  0  0  0  0  0  0  0  0  0  0
  140.2990   70.5200  224.7250 C   0  0  0  0  0  0  0  0  0  0  0  0
  140.6140   71.6450  224.0570 N   0  0  0  0  0  0  0  0  0  0  0  0
  138.6870   74.3070  222.9290 H   0  0  0  0  0  0  0  0  0  0  0  0
  140.9520   75.7853  221.7154 H   0  0  0  0  0  0  0  0  0  0  0  0
  139.4705   75.5936  220.6770 H   0  0  0  0  0  0  0  0  0  0  0  0
  141.6273   77.2384  221.5183 H   0  0  0  0  0  0  0  0  0  0  0  0
  140.9926   78.7940  220.7871 H   0  0  0  0  0  0  0  0  0  0  0  0
  143.0671   78.4306  222.6976 H   0  0  0  0  0  0  0  0  0  0  0  0
  142.4505   79.9354  221.9534 H   0  0  0  0  0  0  0  0  0  0  0  0
  141.2627   78.5012  224.3953 H   0  0  0  0  0  0  0  0  0  0  0  0
  142.1893   80.0142  224.4407 H   0  0  0  0  0  0  0  0  0  0  0  0
  139.8697   80.7309  224.3484 H   0  0  0  0  0  0  0  0  0  0  0  0
  140.4201   80.9179  222.6750 H   0  0  0  0  0  0  0  0  0  0  0  0
  138.7081   78.7710  223.9308 H   0  0  0  0  0  0  0  0  0  0  0  0
  138.5194   79.6189  222.3506 H   0  0  0  0  0  0  0  0  0  0  0  0
  138.4954   71.4463  221.4646 H   0  0  0  0  0  0  0  0  0  0  0  0
  137.9032   69.3720  222.6821 H   0  0  0  0  0  0  0  0  0  0  0  0
  138.2450   67.8360  224.6073 H   0  0  0  0  0  0  0  0  0  0  0  0
  141.2347   68.8827  227.5289 H   0  0  0  0  0  0  0  0  0  0  0  0
  141.7873   70.9762  226.2431 H   0  0  0  0  0  0  0  0  0  0  0  0
  1  2  2  0
  2  3  1  0
  3  4  1  0
  4  5  1  0
  5  6  2  0
  5  7  1  0
  7  8  1  0
  8  9  1  0
  9 10  1  0
 10 11  1  0
 11 12  1  0
  2 13  1  0
 13 14  2  0
 14 15  1  0
 15 16  2  0
 16 17  1  0
 17 18  2  0
 18 19  1  0
 18 20  1  0
 20 21  2  0
 21 22  1  0
 22 23  2  0
 12  7  1  0
 23 13  1  0
 22 16  1  0
  3 24  1  0
  4 25  1  0
  4 26  1  0
  8 27  1  0
  8 28  1  0
  9 29  1  0
  9 30  1  0
 10 31  1  0
 10 32  1  0
 11 33  1  0
 11 34  1  0
 12 35  1  0
 12 36  1  0
 14 37  1  0
 15 38  1  0
 17 39  1  0
 20 40  1  0
 21 41  1  0
M  END
>  <smiles>  (41) 
O=C(NCC(=O)N1CCCCC1)c1ccc2cc(F)ccc2n1

>  <score_type>  (41) 
oracle

>  <origin>  (41) 
autodockgpu

>  <m_score__min__energy>  (41) 
-7.29

>  <m_primary>  (41) 
energy

>  <rmsd>  (41) 
3.8649755388753007

>  <m_score__min__rmsd>  (41) 
3.8649755388753007

>  <meeko>  (41) 
{"free_energy": -7.06, "intermolecular_energy": -7.96, "internal_energy": -1.0, "cluster_size": 42, "cluster_id": 1, "rank_in_cluster": 38}

>  <energy>  (41) 
-6.86

>  <cluster_rmsd>  (41) 
1.99

>  <cluster>  (41) 
1

$$$$

     RDKit          3D

 41 43  0  0  0  0  0  0  0  0999 V2000
  141.4720   73.2820  221.5140 O   0  0  0  0  0  0  0  0  0  0  0  0
  140.4100   73.2470  222.2040 C   0  0  0  0  0  0  0  0  0  0  0  0
  139.5770   74.3710  222.3330 N   0  0  0  0  0  0  0  0  0  0  0  0
  139.8790   75.6210  221.6950 C   0  0  0  0  0  0  0  0  0  0  0  0
  139.2360   76.7720  222.3690 C   0  0  0  0  0  0  0  0  0  0  0  0
  138.1270   76.5920  222.9270 O   0  0  0  0  0  0  0  0  0  0  0  0
  139.9190   78.0200  222.3470 N   0  0  0  0  0  0  0  0  0  0  0  0
  141.2020   78.2120  221.6980 C   0  0  0  0  0  0  0  0  0  0  0  0
  142.1770   79.0150  222.4950 C   0  0  0  0  0  0  0  0  0  0  0  0
  141.5240   79.3930  223.8080 C   0  0  0  0  0  0  0  0  0  0  0  0
  140.2480   80.1660  223.4540 C   0  0  0  0  0  0  0  0  0  0  0  0
  139.2480   79.1370  223.0280 C   0  0  0  0  0  0  0  0  0  0  0  0
  140.0210   72.0010  222.8950 C   0  0  0  0  0  0  0  0  0  0  0  0
  139.0380   71.1700  222.3930 C   0  0  0  0  0  0  0  0  0  0  0  0
  138.7090   70.0080  223.0820 C   0  0  0  0  0  0  0  0  0  0  0  0
  139.3360   69.6520  224.2580 C   0  0  0  0  0  0  0  0  0  0  0  0
  139.0380   68.5120  224.9660 C   0  0  0  0  0  0  0  0  0  0  0  0
  139.7240   68.2460  226.1340 C   0  0  0  0  0  0  0  0  0  0  0  0
  139.4390   67.1110  226.8540 F   0  0  0  0  0  0  0  0  0  0  0  0
  140.7070   69.1090  226.6020 C   0  0  0  0  0  0  0  0  0  0  0  0
  141.0210   70.2710  225.8940 C   0  0  0  0  0  0  0  0  0  0  0  0
  140.3130   70.5080  224.7260 C   0  0  0  0  0  0  0  0  0  0  0  0
  140.6280   71.6320  224.0560 N   0  0  0  0  0  0  0  0  0  0  0  0
  138.7020   74.2900  222.9200 H   0  0  0  0  0  0  0  0  0  0  0  0
  140.9689   75.7690  221.7073 H   0  0  0  0  0  0  0  0  0  0  0  0
  139.4885   75.5747  220.6677 H   0  0  0  0  0  0  0  0  0  0  0  0
  141.6438   77.2228  221.5077 H   0  0  0  0  0  0  0  0  0  0  0  0
  141.0077   78.7768  220.7743 H   0  0  0  0  0  0  0  0  0  0  0  0
  143.0805   78.4178  222.6877 H   0  0  0  0  0  0  0  0  0  0  0  0
  142.4634   79.9209  221.9405 H   0  0  0  0  0  0  0  0  0  0  0  0
  141.2734   78.4886  224.3818 H   0  0  0  0  0  0  0  0  0  0  0  0
  142.1991   80.0024  224.4267 H   0  0  0  0  0  0  0  0  0  0  0  0
  139.8791   80.7174  224.3315 H   0  0  0  0  0  0  0  0  0  0  0  0
  140.4310   80.9038  222.6589 H   0  0  0  0  0  0  0  0  0  0  0  0
  138.7200   78.7561  223.9146 H   0  0  0  0  0  0  0  0  0  0  0  0
  138.5334   79.6010  222.3323 H   0  0  0  0  0  0  0  0  0  0  0  0
  138.5203   71.4254  221.4567 H   0  0  0  0  0  0  0  0  0  0  0  0
  137.9243   69.3522  222.6767 H   0  0  0  0  0  0  0  0  0  0  0  0
  138.2623   67.8201  224.6062 H   0  0  0  0  0  0  0  0  0  0  0  0
  141.2408   68.8758  227.5351 H   0  0  0  0  0  0  0  0  0  0  0  0
  141.7957   70.9673  226.2474 H   0  0  0  0  0  0  0  0  0  0  0  0
  1  2  2  0
  2  3  1  0
  3  4  1  0
  4  5  1  0
  5  6  2  0
  5  7  1  0
  7  8  1  0
  8  9  1  0
  9 10  1  0
 10 11  1  0
 11 12  1  0
  2 13  1  0
 13 14  2  0
 14 15  1  0
 15 16  2  0
 16 17  1  0
 17 18  2  0
 18 19  1  0
 18 20  1  0
 20 21  2  0
 21 22  1  0
 22 23  2  0
 12  7  1  0
 23 13  1  0
 22 16  1  0
  3 24  1  0
  4 25  1  0
  4 26  1  0
  8 27  1  0
  8 28  1  0
  9 29  1  0
  9 30  1  0
 10 31  1  0
 10 32  1  0
 11 33  1  0
 11 34  1  0
 12 35  1  0
 12 36  1  0
 14 37  1  0
 15 38  1  0
 17 39  1  0
 20 40  1  0
 21 41  1  0
M  END
>  <smiles>  (42) 
O=C(NCC(=O)N1CCCCC1)c1ccc2cc(F)ccc2n1

>  <score_type>  (42) 
oracle

>  <origin>  (42) 
autodockgpu

>  <m_score__min__energy>  (42) 
-7.29

>  <m_primary>  (42) 
energy

>  <rmsd>  (42) 
3.8537258170411532

>  <m_score__min__rmsd>  (42) 
3.8537258170411532

>  <meeko>  (42) 
{"free_energy": -7.06, "intermolecular_energy": -7.96, "internal_energy": -1.0, "cluster_size": 42, "cluster_id": 1, "rank_in_cluster": 39}

>  <energy>  (42) 
-6.84

>  <cluster_rmsd>  (42) 
2.0

>  <cluster>  (42) 
1

$$$$

     RDKit          3D

 41 43  0  0  0  0  0  0  0  0999 V2000
  141.4470   73.0160  221.5250 O   0  0  0  0  0  0  0  0  0  0  0  0
  140.4470   73.0150  222.3060 C   0  0  0  0  0  0  0  0  0  0  0  0
  139.5400   74.0860  222.3420 N   0  0  0  0  0  0  0  0  0  0  0  0
  139.6890   75.2410  221.5040 C   0  0  0  0  0  0  0  0  0  0  0  0
  138.9640   76.4210  222.0290 C   0  0  0  0  0  0  0  0  0  0  0  0
  137.8070   76.2550  222.4860 O   0  0  0  0  0  0  0  0  0  0  0  0
  139.6250   77.6800  221.9860 N   0  0  0  0  0  0  0  0  0  0  0  0
  140.9640   77.8560  221.4550 C   0  0  0  0  0  0  0  0  0  0  0  0
  141.8420   78.7340  222.2860 C   0  0  0  0  0  0  0  0  0  0  0  0
  141.0550   79.1860  223.4980 C   0  0  0  0  0  0  0  0  0  0  0  0
  139.8080   79.9030  222.9660 C   0  0  0  0  0  0  0  0  0  0  0  0
  138.8720   78.8250  222.5180 C   0  0  0  0  0  0  0  0  0  0  0  0
  140.2160   71.8650  223.2040 C   0  0  0  0  0  0  0  0  0  0  0  0
  139.5540   70.7320  222.7740 C   0  0  0  0  0  0  0  0  0  0  0  0
  139.3620   69.6770  223.6590 C   0  0  0  0  0  0  0  0  0  0  0  0
  139.8140   69.7220  224.9620 C   0  0  0  0  0  0  0  0  0  0  0  0
  139.6430   68.7000  225.8640 C   0  0  0  0  0  0  0  0  0  0  0  0
  140.1330   68.8440  227.1470 C   0  0  0  0  0  0  0  0  0  0  0  0
  139.9710   67.8330  228.0620 F   0  0  0  0  0  0  0  0  0  0  0  0
  140.7940   70.0020  227.5360 C   0  0  0  0  0  0  0  0  0  0  0  0
  140.9760   71.0500  226.6310 C   0  0  0  0  0  0  0  0  0  0  0  0
  140.4710   70.8720  225.3520 C   0  0  0  0  0  0  0  0  0  0  0  0
  140.6550   71.8910  224.4930 N   0  0  0  0  0  0  0  0  0  0  0  0
  138.7230   74.0360  223.0110 H   0  0  0  0  0  0  0  0  0  0  0  0
  140.7584   75.4880  221.4309 H   0  0  0  0  0  0  0  0  0  0  0  0
  139.2616   74.9971  220.5202 H   0  0  0  0  0  0  0  0  0  0  0  0
  141.4381   76.8663  221.3797 H   0  0  0  0  0  0  0  0  0  0  0  0
  140.8544   78.3515  220.4791 H   0  0  0  0  0  0  0  0  0  0  0  0
  142.7310   78.1722  222.6085 H   0  0  0  0  0  0  0  0  0  0  0  0
  142.1682   79.6060  221.7001 H   0  0  0  0  0  0  0  0  0  0  0  0
  140.7631   78.3176  224.1069 H   0  0  0  0  0  0  0  0  0  0  0  0
  141.6548   79.8521  224.1356 H   0  0  0  0  0  0  0  0  0  0  0  0
  139.3448   80.5051  223.7615 H   0  0  0  0  0  0  0  0  0  0  0  0
  140.0577   80.5878  222.1422 H   0  0  0  0  0  0  0  0  0  0  0  0
  138.2651   78.4936  223.3735 H   0  0  0  0  0  0  0  0  0  0  0  0
  138.2222   79.2238  221.7251 H   0  0  0  0  0  0  0  0  0  0  0  0
  139.1820   70.6648  221.7410 H   0  0  0  0  0  0  0  0  0  0  0  0
  138.8331   68.7781  223.3094 H   0  0  0  0  0  0  0  0  0  0  0  0
  139.1219   67.7777  225.5677 H   0  0  0  0  0  0  0  0  0  0  0  0
  141.1765   70.0942  228.5632 H   0  0  0  0  0  0  0  0  0  0  0  0
  141.4965   71.9750  226.9198 H   0  0  0  0  0  0  0  0  0  0  0  0
  1  2  2  0
  2  3  1  0
  3  4  1  0
  4  5  1  0
  5  6  2  0
  5  7  1  0
  7  8  1  0
  8  9  1  0
  9 10  1  0
 10 11  1  0
 11 12  1  0
  2 13  1  0
 13 14  2  0
 14 15  1  0
 15 16  2  0
 16 17  1  0
 17 18  2  0
 18 19  1  0
 18 20  1  0
 20 21  2  0
 21 22  1  0
 22 23  2  0
 12  7  1  0
 23 13  1  0
 22 16  1  0
  3 24  1  0
  4 25  1  0
  4 26  1  0
  8 27  1  0
  8 28  1  0
  9 29  1  0
  9 30  1  0
 10 31  1  0
 10 32  1  0
 11 33  1  0
 11 34  1  0
 12 35  1  0
 12 36  1  0
 14 37  1  0
 15 38  1  0
 17 39  1  0
 20 40  1  0
 21 41  1  0
M  END
>  <smiles>  (43) 
O=C(NCC(=O)N1CCCCC1)c1ccc2cc(F)ccc2n1

>  <score_type>  (43) 
oracle

>  <origin>  (43) 
autodockgpu

>  <m_score__min__energy>  (43) 
-7.29

>  <m_primary>  (43) 
energy

>  <rmsd>  (43) 
3.427344148171225

>  <m_score__min__rmsd>  (43) 
3.427344148171225

>  <meeko>  (43) 
{"free_energy": -7.18, "intermolecular_energy": -8.07, "internal_energy": -0.92, "cluster_size": 42, "cluster_id": 1, "rank_in_cluster": 5}

>  <energy>  (43) 
-7.15

>  <cluster_rmsd>  (43) 
0.0

>  <cluster>  (43) 
2

$$$$

     RDKit          3D

 41 43  0  0  0  0  0  0  0  0999 V2000
  139.3890   70.7460  221.4030 O   0  0  0  0  0  0  0  0  0  0  0  0
  139.5790   71.2650  222.5440 C   0  0  0  0  0  0  0  0  0  0  0  0
  139.7100   72.6530  222.7090 N   0  0  0  0  0  0  0  0  0  0  0  0
  139.6400   73.5640  221.6020 C   0  0  0  0  0  0  0  0  0  0  0  0
  140.8840   74.3500  221.4340 C   0  0  0  0  0  0  0  0  0  0  0  0
  140.9780   75.4510  222.0280 O   0  0  0  0  0  0  0  0  0  0  0  0
  141.9060   73.8070  220.6060 N   0  0  0  0  0  0  0  0  0  0  0  0
  141.7820   72.5320  219.9260 C   0  0  0  0  0  0  0  0  0  0  0  0
  143.0050   71.6760  220.0020 C   0  0  0  0  0  0  0  0  0  0  0  0
  144.0510   72.4090  220.8160 C   0  0  0  0  0  0  0  0  0  0  0  0
  144.2910   73.7500  220.1110 C   0  0  0  0  0  0  0  0  0  0  0  0
  143.1240   74.6180  220.4660 C   0  0  0  0  0  0  0  0  0  0  0  0
  139.6640   70.4030  223.7400 C   0  0  0  0  0  0  0  0  0  0  0  0
  139.1770   69.1090  223.7370 C   0  0  0  0  0  0  0  0  0  0  0  0
  139.2820   68.3380  224.8880 C   0  0  0  0  0  0  0  0  0  0  0  0
  139.8600   68.8220  226.0440 C   0  0  0  0  0  0  0  0  0  0  0  0
  139.9820   68.0900  227.2000 C   0  0  0  0  0  0  0  0  0  0  0  0
  140.5780   68.6670  228.3050 C   0  0  0  0  0  0  0  0  0  0  0  0
  140.7070   67.9500  229.4680 F   0  0  0  0  0  0  0  0  0  0  0  0
  141.0540   69.9720  228.2630 C   0  0  0  0  0  0  0  0  0  0  0  0
  140.9380   70.7290  227.0950 C   0  0  0  0  0  0  0  0  0  0  0  0
  140.3350   70.1180  226.0060 C   0  0  0  0  0  0  0  0  0  0  0  0
  140.2310   70.8620  224.8890 N   0  0  0  0  0  0  0  0  0  0  0  0
  139.8670   73.0370  223.6820 H   0  0  0  0  0  0  0  0  0  0  0  0
  139.4598   72.9882  220.6823 H   0  0  0  0  0  0  0  0  0  0  0  0
  138.8223   74.2718  221.8032 H   0  0  0  0  0  0  0  0  0  0  0  0
  140.9454   71.9795  220.3786 H   0  0  0  0  0  0  0  0  0  0  0  0
  141.6183   72.7559  218.8615 H   0  0  0  0  0  0  0  0  0  0  0  0
  142.7597   70.7197  220.4870 H   0  0  0  0  0  0  0  0  0  0  0  0
  143.3872   71.4719  218.9909 H   0  0  0  0  0  0  0  0  0  0  0  0
  143.6860   72.5780  221.8398 H   0  0  0  0  0  0  0  0  0  0  0  0
  144.9806   71.8252  220.8871 H   0  0  0  0  0  0  0  0  0  0  0  0
  145.2277   74.2055  220.4648 H   0  0  0  0  0  0  0  0  0  0  0  0
  144.3813   73.6221  219.0222 H   0  0  0  0  0  0  0  0  0  0  0  0
  143.3296   75.1304  221.4174 H   0  0  0  0  0  0  0  0  0  0  0  0
  142.9712   75.3558  219.6646 H   0  0  0  0  0  0  0  0  0  0  0  0
  138.7106   68.6937  222.8315 H   0  0  0  0  0  0  0  0  0  0  0  0
  138.8922   67.3094  224.8776 H   0  0  0  0  0  0  0  0  0  0  0  0
  139.6094   67.0560  227.2455 H   0  0  0  0  0  0  0  0  0  0  0  0
  141.5248   70.4113  229.1548 H   0  0  0  0  0  0  0  0  0  0  0  0
  141.3083   71.7634  227.0414 H   0  0  0  0  0  0  0  0  0  0  0  0
  1  2  2  0
  2  3  1  0
  3  4  1  0
  4  5  1  0
  5  6  2  0
  5  7  1  0
  7  8  1  0
  8  9  1  0
  9 10  1  0
 10 11  1  0
 11 12  1  0
  2 13  1  0
 13 14  2  0
 14 15  1  0
 15 16  2  0
 16 17  1  0
 17 18  2  0
 18 19  1  0
 18 20  1  0
 20 21  2  0
 21 22  1  0
 22 23  2  0
 12  7  1  0
 23 13  1  0
 22 16  1  0
  3 24  1  0
  4 25  1  0
  4 26  1  0
  8 27  1  0
  8 28  1  0
  9 29  1  0
  9 30  1  0
 10 31  1  0
 10 32  1  0
 11 33  1  0
 11 34  1  0
 12 35  1  0
 12 36  1  0
 14 37  1  0
 15 38  1  0
 17 39  1  0
 20 40  1  0
 21 41  1  0
M  END
>  <smiles>  (44) 
O=C(NCC(=O)N1CCCCC1)c1ccc2cc(F)ccc2n1

>  <score_type>  (44) 
oracle

>  <origin>  (44) 
autodockgpu

>  <m_score__min__energy>  (44) 
-7.29

>  <m_primary>  (44) 
energy

>  <rmsd>  (44) 
3.154392280867706

>  <m_score__min__rmsd>  (44) 
3.154392280867706

>  <meeko>  (44) 
{"free_energy": -6.85, "intermolecular_energy": -7.74, "internal_energy": -1.17, "cluster_size": 8, "cluster_id": 2, "rank_in_cluster": 4}

>  <energy>  (44) 
-7.14

>  <cluster_rmsd>  (44) 
0.27

>  <cluster>  (44) 
2

$$$$

     RDKit          3D

 41 43  0  0  0  0  0  0  0  0999 V2000
  141.4590   73.2860  221.4860 O   0  0  0  0  0  0  0  0  0  0  0  0
  140.4040   73.2540  222.1880 C   0  0  0  0  0  0  0  0  0  0  0  0
  139.5800   74.3830  222.3310 N   0  0  0  0  0  0  0  0  0  0  0  0
  139.8820   75.6330  221.6950 C   0  0  0  0  0  0  0  0  0  0  0  0
  139.2340   76.7830  222.3670 C   0  0  0  0  0  0  0  0  0  0  0  0
  138.1210   76.6030  222.9150 O   0  0  0  0  0  0  0  0  0  0  0  0
  139.9180   78.0310  222.3530 N   0  0  0  0  0  0  0  0  0  0  0  0
  141.2060   78.2230  221.7150 C   0  0  0  0  0  0  0  0  0  0  0  0
  142.1760   79.0240  222.5220 C   0  0  0  0  0  0  0  0  0  0  0  0
  141.5120   79.3990  223.8310 C   0  0  0  0  0  0  0  0  0  0  0  0
  140.2390   80.1740  223.4680 C   0  0  0  0  0  0  0  0  0  0  0  0
  139.2420   79.1470  223.0320 C   0  0  0  0  0  0  0  0  0  0  0  0
  140.0160   72.0080  222.8790 C   0  0  0  0  0  0  0  0  0  0  0  0
  139.0470   71.1670  222.3650 C   0  0  0  0  0  0  0  0  0  0  0  0
  138.7170   70.0050  223.0540 C   0  0  0  0  0  0  0  0  0  0  0  0
  139.3290   69.6590  224.2410 C   0  0  0  0  0  0  0  0  0  0  0  0
  139.0310   68.5200  224.9490 C   0  0  0  0  0  0  0  0  0  0  0  0
  139.7010   68.2640  226.1290 C   0  0  0  0  0  0  0  0  0  0  0  0
  139.4150   67.1300  226.8490 F   0  0  0  0  0  0  0  0  0  0  0  0
  140.6690   69.1370  226.6080 C   0  0  0  0  0  0  0  0  0  0  0  0
  140.9840   70.2990  225.9000 C   0  0  0  0  0  0  0  0  0  0  0  0
  140.2910   70.5250  224.7200 C   0  0  0  0  0  0  0  0  0  0  0  0
  140.6070   71.6490  224.0510 N   0  0  0  0  0  0  0  0  0  0  0  0
  138.7110   74.3050  222.9270 H   0  0  0  0  0  0  0  0  0  0  0  0
  140.9716   75.7830  221.7117 H   0  0  0  0  0  0  0  0  0  0  0  0
  139.4956   75.5863  220.6662 H   0  0  0  0  0  0  0  0  0  0  0  0
  141.6484   77.2337  221.5263 H   0  0  0  0  0  0  0  0  0  0  0  0
  141.0197   78.7898  220.7909 H   0  0  0  0  0  0  0  0  0  0  0  0
  143.0776   78.4259  222.7205 H   0  0  0  0  0  0  0  0  0  0  0  0
  142.4678   79.9309  221.9721 H   0  0  0  0  0  0  0  0  0  0  0  0
  141.2560   78.4933  224.4003 H   0  0  0  0  0  0  0  0  0  0  0  0
  142.1822   80.0063  224.4571 H   0  0  0  0  0  0  0  0  0  0  0  0
  139.8634   80.7239  224.3435 H   0  0  0  0  0  0  0  0  0  0  0  0
  140.4291   80.9132  222.6759 H   0  0  0  0  0  0  0  0  0  0  0  0
  138.7071   78.7641  223.9136 H   0  0  0  0  0  0  0  0  0  0  0  0
  138.5328   79.6131  222.3321 H   0  0  0  0  0  0  0  0  0  0  0  0
  138.5416   71.4145  221.4198 H   0  0  0  0  0  0  0  0  0  0  0  0
  137.9440   69.3411  222.6397 H   0  0  0  0  0  0  0  0  0  0  0  0
  138.2672   67.8197  224.5800 H   0  0  0  0  0  0  0  0  0  0  0  0
  141.1905   68.9121  227.5501 H   0  0  0  0  0  0  0  0  0  0  0  0
  141.7474   71.0033  226.2620 H   0  0  0  0  0  0  0  0  0  0  0  0
  1  2  2  0
  2  3  1  0
  3  4  1  0
  4  5  1  0
  5  6  2  0
  5  7  1  0
  7  8  1  0
  8  9  1  0
  9 10  1  0
 10 11  1  0
 11 12  1  0
  2 13  1  0
 13 14  2  0
 14 15  1  0
 15 16  2  0
 16 17  1  0
 17 18  2  0
 18 19  1  0
 18 20  1  0
 20 21  2  0
 21 22  1  0
 22 23  2  0
 12  7  1  0
 23 13  1  0
 22 16  1  0
  3 24  1  0
  4 25  1  0
  4 26  1  0
  8 27  1  0
  8 28  1  0
  9 29  1  0
  9 30  1  0
 10 31  1  0
 10 32  1  0
 11 33  1  0
 11 34  1  0
 12 35  1  0
 12 36  1  0
 14 37  1  0
 15 38  1  0
 17 39  1  0
 20 40  1  0
 21 41  1  0
M  END
>  <smiles>  (45) 
O=C(NCC(=O)N1CCCCC1)c1ccc2cc(F)ccc2n1

>  <score_type>  (45) 
oracle

>  <origin>  (45) 
autodockgpu

>  <m_score__min__energy>  (45) 
-7.29

>  <m_primary>  (45) 
energy

>  <rmsd>  (45) 
3.862455128964467

>  <m_score__min__rmsd>  (45) 
3.862455128964467

>  <meeko>  (45) 
{"free_energy": -7.07, "intermolecular_energy": -7.96, "internal_energy": -1.0, "cluster_size": 42, "cluster_id": 1, "rank_in_cluster": 36}

>  <energy>  (45) 
-6.85

>  <cluster_rmsd>  (45) 
1.44

>  <cluster>  (45) 
2

$$$$

     RDKit          3D

 41 43  0  0  0  0  0  0  0  0999 V2000
  141.2580   73.2690  221.1890 O   0  0  0  0  0  0  0  0  0  0  0  0
  140.3400   73.2600  222.0640 C   0  0  0  0  0  0  0  0  0  0  0  0
  139.5800   74.4060  222.3460 N   0  0  0  0  0  0  0  0  0  0  0  0
  139.7960   75.6520  221.6660 C   0  0  0  0  0  0  0  0  0  0  0  0
  139.1840   76.7990  222.3740 C   0  0  0  0  0  0  0  0  0  0  0  0
  138.0890   76.6220  222.9610 O   0  0  0  0  0  0  0  0  0  0  0  0
  139.8770   78.0410  222.3500 N   0  0  0  0  0  0  0  0  0  0  0  0
  141.1430   78.2300  221.6670 C   0  0  0  0  0  0  0  0  0  0  0  0
  142.1490   79.0130  222.4460 C   0  0  0  0  0  0  0  0  0  0  0  0
  141.5370   79.3790  223.7830 C   0  0  0  0  0  0  0  0  0  0  0  0
  140.2580   80.1680  223.4760 C   0  0  0  0  0  0  0  0  0  0  0  0
  139.2370   79.1540  223.0650 C   0  0  0  0  0  0  0  0  0  0  0  0
  140.0490   72.0200  222.8130 C   0  0  0  0  0  0  0  0  0  0  0  0
  139.3770   70.9630  222.2300 C   0  0  0  0  0  0  0  0  0  0  0  0
  139.1280   69.8180  222.9770 C   0  0  0  0  0  0  0  0  0  0  0  0
  139.5320   69.6990  224.2910 C   0  0  0  0  0  0  0  0  0  0  0  0
  139.3040   68.5840  225.0610 C   0  0  0  0  0  0  0  0  0  0  0  0
  139.7490   68.5640  226.3680 C   0  0  0  0  0  0  0  0  0  0  0  0
  139.5290   67.4570  227.1520 F   0  0  0  0  0  0  0  0  0  0  0  0
  140.4220   69.6500  226.9130 C   0  0  0  0  0  0  0  0  0  0  0  0
  140.6610   70.7910  226.1440 C   0  0  0  0  0  0  0  0  0  0  0  0
  140.2000   70.7770  224.8360 C   0  0  0  0  0  0  0  0  0  0  0  0
  140.4400   71.8840  224.1090 N   0  0  0  0  0  0  0  0  0  0  0  0
  138.8260   74.3470  223.0840 H   0  0  0  0  0  0  0  0  0  0  0  0
  140.8791   75.8256  221.5838 H   0  0  0  0  0  0  0  0  0  0  0  0
  139.3213   75.5788  220.6764 H   0  0  0  0  0  0  0  0  0  0  0  0
  141.5694   77.2393  221.4508 H   0  0  0  0  0  0  0  0  0  0  0  0
  140.9275   78.8095  220.7572 H   0  0  0  0  0  0  0  0  0  0  0  0
  143.0518   78.4048  222.6044 H   0  0  0  0  0  0  0  0  0  0  0  0
  142.4286   79.9235  221.8957 H   0  0  0  0  0  0  0  0  0  0  0  0
  141.2948   78.4691  224.3517 H   0  0  0  0  0  0  0  0  0  0  0  0
  142.2351   79.9741  224.3901 H   0  0  0  0  0  0  0  0  0  0  0  0
  139.9193   80.7104  224.3710 H   0  0  0  0  0  0  0  0  0  0  0  0
  140.4250   80.9149  222.6860 H   0  0  0  0  0  0  0  0  0  0  0  0
  138.7312   78.7656  223.9613 H   0  0  0  0  0  0  0  0  0  0  0  0
  138.5073   79.6341  222.3964 H   0  0  0  0  0  0  0  0  0  0  0  0
  139.0422   71.0272  221.1842 H   0  0  0  0  0  0  0  0  0  0  0  0
  138.5922   68.9806  222.5062 H   0  0  0  0  0  0  0  0  0  0  0  0
  138.7730   67.7171  224.6409 H   0  0  0  0  0  0  0  0  0  0  0  0
  140.7687   69.6111  227.9562 H   0  0  0  0  0  0  0  0  0  0  0  0
  141.1911   71.6618  226.5572 H   0  0  0  0  0  0  0  0  0  0  0  0
  1  2  2  0
  2  3  1  0
  3  4  1  0
  4  5  1  0
  5  6  2  0
  5  7  1  0
  7  8  1  0
  8  9  1  0
  9 10  1  0
 10 11  1  0
 11 12  1  0
  2 13  1  0
 13 14  2  0
 14 15  1  0
 15 16  2  0
 16 17  1  0
 17 18  2  0
 18 19  1  0
 18 20  1  0
 20 21  2  0
 21 22  1  0
 22 23  2  0
 12  7  1  0
 23 13  1  0
 22 16  1  0
  3 24  1  0
  4 25  1  0
  4 26  1  0
  8 27  1  0
  8 28  1  0
  9 29  1  0
  9 30  1  0
 10 31  1  0
 10 32  1  0
 11 33  1  0
 11 34  1  0
 12 35  1  0
 12 36  1  0
 14 37  1  0
 15 38  1  0
 17 39  1  0
 20 40  1  0
 21 41  1  0
M  END
>  <smiles>  (46) 
O=C(NCC(=O)N1CCCCC1)c1ccc2cc(F)ccc2n1

>  <score_type>  (46) 
oracle

>  <origin>  (46) 
autodockgpu

>  <m_score__min__energy>  (46) 
-7.29

>  <m_primary>  (46) 
energy

>  <rmsd>  (46) 
3.7885401965137744

>  <m_score__min__rmsd>  (46) 
3.7885401965137744

>  <meeko>  (46) 
{"free_energy": -7.12, "intermolecular_energy": -8.02, "internal_energy": -1.01, "cluster_size": 42, "cluster_id": 1, "rank_in_cluster": 21}

>  <energy>  (46) 
-6.85

>  <cluster_rmsd>  (46) 
1.43

>  <cluster>  (46) 
2

$$$$

     RDKit          3D

 41 43  0  0  0  0  0  0  0  0999 V2000
  141.2040   73.2670  221.1290 O   0  0  0  0  0  0  0  0  0  0  0  0
  140.3030   73.2720  222.0210 C   0  0  0  0  0  0  0  0  0  0  0  0
  139.5790   74.4340  222.3300 N   0  0  0  0  0  0  0  0  0  0  0  0
  139.8140   75.6810  221.6590 C   0  0  0  0  0  0  0  0  0  0  0  0
  139.2100   76.8310  222.3700 C   0  0  0  0  0  0  0  0  0  0  0  0
  138.1200   76.6580  222.9660 O   0  0  0  0  0  0  0  0  0  0  0  0
  139.9050   78.0720  222.3360 N   0  0  0  0  0  0  0  0  0  0  0  0
  141.1650   78.2570  221.6420 C   0  0  0  0  0  0  0  0  0  0  0  0
  142.1790   79.0410  222.4110 C   0  0  0  0  0  0  0  0  0  0  0  0
  141.5800   79.4100  223.7520 C   0  0  0  0  0  0  0  0  0  0  0  0
  140.3000   80.2010  223.4540 C   0  0  0  0  0  0  0  0  0  0  0  0
  139.2730   79.1890  223.0540 C   0  0  0  0  0  0  0  0  0  0  0  0
  139.9940   72.0320  222.7620 C   0  0  0  0  0  0  0  0  0  0  0  0
  139.3160   70.9840  222.1700 C   0  0  0  0  0  0  0  0  0  0  0  0
  139.0500   69.8390  222.9110 C   0  0  0  0  0  0  0  0  0  0  0  0
  139.4430   69.7100  224.2280 C   0  0  0  0  0  0  0  0  0  0  0  0
  139.1990   68.5940  224.9910 C   0  0  0  0  0  0  0  0  0  0  0  0
  139.6340   68.5640  226.3010 C   0  0  0  0  0  0  0  0  0  0  0  0
  139.3980   67.4570  227.0780 F   0  0  0  0  0  0  0  0  0  0  0  0
  140.3130   69.6410  226.8550 C   0  0  0  0  0  0  0  0  0  0  0  0
  140.5700   70.7830  226.0930 C   0  0  0  0  0  0  0  0  0  0  0  0
  140.1180   70.7790  224.7820 C   0  0  0  0  0  0  0  0  0  0  0  0
  140.3740   71.8860  224.0610 N   0  0  0  0  0  0  0  0  0  0  0  0
  138.8380   74.3860  223.0820 H   0  0  0  0  0  0  0  0  0  0  0  0
  140.8996   75.8427  221.5853 H   0  0  0  0  0  0  0  0  0  0  0  0
  139.3455   75.6191  220.6657 H   0  0  0  0  0  0  0  0  0  0  0  0
  141.5881   77.2651  221.4249 H   0  0  0  0  0  0  0  0  0  0  0  0
  140.9429   78.8342  220.7323 H   0  0  0  0  0  0  0  0  0  0  0  0
  143.0826   78.4323  222.5624 H   0  0  0  0  0  0  0  0  0  0  0  0
  142.4542   79.9503  221.8565 H   0  0  0  0  0  0  0  0  0  0  0  0
  141.3408   78.5016  224.3243 H   0  0  0  0  0  0  0  0  0  0  0  0
  142.2844   80.0044  224.3525 H   0  0  0  0  0  0  0  0  0  0  0  0
  139.9703   80.7462  224.3506 H   0  0  0  0  0  0  0  0  0  0  0  0
  140.4622   80.9455  222.6606 H   0  0  0  0  0  0  0  0  0  0  0  0
  138.7735   78.8040  223.9553 H   0  0  0  0  0  0  0  0  0  0  0  0
  138.5389   79.6694  222.3904 H   0  0  0  0  0  0  0  0  0  0  0  0
  138.9898   71.0553  221.1219 H   0  0  0  0  0  0  0  0  0  0  0  0
  138.5091   69.0090  222.4329 H   0  0  0  0  0  0  0  0  0  0  0  0
  138.6631   67.7340  224.5631 H   0  0  0  0  0  0  0  0  0  0  0  0
  140.6507   69.5945  227.9008 H   0  0  0  0  0  0  0  0  0  0  0  0
  141.1065   71.6462  226.5137 H   0  0  0  0  0  0  0  0  0  0  0  0
  1  2  2  0
  2  3  1  0
  3  4  1  0
  4  5  1  0
  5  6  2  0
  5  7  1  0
  7  8  1  0
  8  9  1  0
  9 10  1  0
 10 11  1  0
 11 12  1  0
  2 13  1  0
 13 14  2  0
 14 15  1  0
 15 16  2  0
 16 17  1  0
 17 18  2  0
 18 19  1  0
 18 20  1  0
 20 21  2  0
 21 22  1  0
 22 23  2  0
 12  7  1  0
 23 13  1  0
 22 16  1  0
  3 24  1  0
  4 25  1  0
  4 26  1  0
  8 27  1  0
  8 28  1  0
  9 29  1  0
  9 30  1  0
 10 31  1  0
 10 32  1  0
 11 33  1  0
 11 34  1  0
 12 35  1  0
 12 36  1  0
 14 37  1  0
 15 38  1  0
 17 39  1  0
 20 40  1  0
 21 41  1  0
M  END
>  <smiles>  (47) 
O=C(NCC(=O)N1CCCCC1)c1ccc2cc(F)ccc2n1

>  <score_type>  (47) 
oracle

>  <origin>  (47) 
autodockgpu

>  <m_score__min__energy>  (47) 
-7.29

>  <m_primary>  (47) 
energy

>  <rmsd>  (47) 
3.804961640463981

>  <m_score__min__rmsd>  (47) 
3.804961640463981

>  <meeko>  (47) 
{"free_energy": -7.1, "intermolecular_energy": -7.99, "internal_energy": -1.01, "cluster_size": 42, "cluster_id": 1, "rank_in_cluster": 35}

>  <energy>  (47) 
-6.83

>  <cluster_rmsd>  (47) 
1.43

>  <cluster>  (47) 
2

$$$$

     RDKit          3D

 41 43  0  0  0  0  0  0  0  0999 V2000
  141.2330   73.2800  221.1580 O   0  0  0  0  0  0  0  0  0  0  0  0
  140.3260   73.2740  222.0430 C   0  0  0  0  0  0  0  0  0  0  0  0
  139.5740   74.4240  222.3360 N   0  0  0  0  0  0  0  0  0  0  0  0
  139.7890   75.6690  221.6540 C   0  0  0  0  0  0  0  0  0  0  0  0
  139.1970   76.8200  222.3740 C   0  0  0  0  0  0  0  0  0  0  0  0
  138.1110   76.6500  222.9780 O   0  0  0  0  0  0  0  0  0  0  0  0
  139.8990   78.0570  222.3400 N   0  0  0  0  0  0  0  0  0  0  0  0
  141.1550   78.2370  221.6370 C   0  0  0  0  0  0  0  0  0  0  0  0
  142.1790   79.0120  222.4010 C   0  0  0  0  0  0  0  0  0  0  0  0
  141.5920   79.3790  223.7480 C   0  0  0  0  0  0  0  0  0  0  0  0
  140.3150   80.1790  223.4630 C   0  0  0  0  0  0  0  0  0  0  0  0
  139.2790   79.1740  223.0680 C   0  0  0  0  0  0  0  0  0  0  0  0
  140.0380   72.0360  222.7950 C   0  0  0  0  0  0  0  0  0  0  0  0
  139.3510   70.9830  222.2200 C   0  0  0  0  0  0  0  0  0  0  0  0
  139.1050   69.8390  222.9700 C   0  0  0  0  0  0  0  0  0  0  0  0
  139.5270   69.7150  224.2780 C   0  0  0  0  0  0  0  0  0  0  0  0
  139.3030   68.6010  225.0490 C   0  0  0  0  0  0  0  0  0  0  0  0
  139.7660   68.5760  226.3500 C   0  0  0  0  0  0  0  0  0  0  0  0
  139.5510   67.4710  227.1350 F   0  0  0  0  0  0  0  0  0  0  0  0
  140.4530   69.6580  226.8870 C   0  0  0  0  0  0  0  0  0  0  0  0
  140.6890   70.7980  226.1160 C   0  0  0  0  0  0  0  0  0  0  0  0
  140.2090   70.7890  224.8150 C   0  0  0  0  0  0  0  0  0  0  0  0
  140.4450   71.8950  224.0860 N   0  0  0  0  0  0  0  0  0  0  0  0
  138.8290   74.3680  223.0830 H   0  0  0  0  0  0  0  0  0  0  0  0
  140.8720   75.8343  221.5546 H   0  0  0  0  0  0  0  0  0  0  0  0
  139.2983   75.6010  220.6719 H   0  0  0  0  0  0  0  0  0  0  0  0
  141.5706   77.2434  221.4132 H   0  0  0  0  0  0  0  0  0  0  0  0
  140.9296   78.8186  220.7310 H   0  0  0  0  0  0  0  0  0  0  0  0
  143.0803   78.3977  222.5432 H   0  0  0  0  0  0  0  0  0  0  0  0
  142.4553   79.9219  221.8480 H   0  0  0  0  0  0  0  0  0  0  0  0
  141.3514   78.4696  224.3182 H   0  0  0  0  0  0  0  0  0  0  0  0
  142.3044   79.9665  224.3457 H   0  0  0  0  0  0  0  0  0  0  0  0
  139.9957   80.7233  224.3640 H   0  0  0  0  0  0  0  0  0  0  0  0
  140.4752   80.9255  222.6711 H   0  0  0  0  0  0  0  0  0  0  0  0
  138.7855   78.7879  223.9721 H   0  0  0  0  0  0  0  0  0  0  0  0
  138.5414   79.6608  222.4131 H   0  0  0  0  0  0  0  0  0  0  0  0
  139.0024   71.0500  221.1788 H   0  0  0  0  0  0  0  0  0  0  0  0
  138.5565   69.0059  222.5062 H   0  0  0  0  0  0  0  0  0  0  0  0
  138.7608   67.7381  224.6350 H   0  0  0  0  0  0  0  0  0  0  0  0
  140.8130   69.6162  227.9256 H   0  0  0  0  0  0  0  0  0  0  0  0
  141.2314   71.6644  226.5224 H   0  0  0  0  0  0  0  0  0  0  0  0
  1  2  2  0
  2  3  1  0
  3  4  1  0
  4  5  1  0
  5  6  2  0
  5  7  1  0
  7  8  1  0
  8  9  1  0
  9 10  1  0
 10 11  1  0
 11 12  1  0
  2 13  1  0
 13 14  2  0
 14 15  1  0
 15 16  2  0
 16 17  1  0
 17 18  2  0
 18 19  1  0
 18 20  1  0
 20 21  2  0
 21 22  1  0
 22 23  2  0
 12  7  1  0
 23 13  1  0
 22 16  1  0
  3 24  1  0
  4 25  1  0
  4 26  1  0
  8 27  1  0
  8 28  1  0
  9 29  1  0
  9 30  1  0
 10 31  1  0
 10 32  1  0
 11 33  1  0
 11 34  1  0
 12 35  1  0
 12 36  1  0
 14 37  1  0
 15 38  1  0
 17 39  1  0
 20 40  1  0
 21 41  1  0
M  END
>  <smiles>  (48) 
O=C(NCC(=O)N1CCCCC1)c1ccc2cc(F)ccc2n1

>  <score_type>  (48) 
oracle

>  <origin>  (48) 
autodockgpu

>  <m_score__min__energy>  (48) 
-7.29

>  <m_primary>  (48) 
energy

>  <rmsd>  (48) 
3.788221644752563

>  <m_score__min__rmsd>  (48) 
3.788221644752563

>  <meeko>  (48) 
{"free_energy": -7.12, "intermolecular_energy": -8.02, "internal_energy": -0.99, "cluster_size": 42, "cluster_id": 1, "rank_in_cluster": 29}

>  <energy>  (48) 
-6.83

>  <cluster_rmsd>  (48) 
1.45

>  <cluster>  (48) 
2

$$$$

     RDKit          3D

 41 43  0  0  0  0  0  0  0  0999 V2000
  141.2460   73.2720  221.1730 O   0  0  0  0  0  0  0  0  0  0  0  0
  140.3340   73.2640  222.0520 C   0  0  0  0  0  0  0  0  0  0  0  0
  139.5780   74.4120  222.3410 N   0  0  0  0  0  0  0  0  0  0  0  0
  139.7940   75.6580  221.6620 C   0  0  0  0  0  0  0  0  0  0  0  0
  139.1820   76.8040  222.3720 C   0  0  0  0  0  0  0  0  0  0  0  0
  138.0880   76.6270  222.9590 O   0  0  0  0  0  0  0  0  0  0  0  0
  139.8760   78.0470  222.3480 N   0  0  0  0  0  0  0  0  0  0  0  0
  141.1410   78.2360  221.6650 C   0  0  0  0  0  0  0  0  0  0  0  0
  142.1470   79.0180  222.4450 C   0  0  0  0  0  0  0  0  0  0  0  0
  141.5360   79.3830  223.7820 C   0  0  0  0  0  0  0  0  0  0  0  0
  140.2580   80.1720  223.4770 C   0  0  0  0  0  0  0  0  0  0  0  0
  139.2360   79.1590  223.0650 C   0  0  0  0  0  0  0  0  0  0  0  0
  140.0430   72.0240  222.8010 C   0  0  0  0  0  0  0  0  0  0  0  0
  139.3630   70.9700  222.2210 C   0  0  0  0  0  0  0  0  0  0  0  0
  139.1150   69.8250  222.9680 C   0  0  0  0  0  0  0  0  0  0  0  0
  139.5280   69.7010  224.2790 C   0  0  0  0  0  0  0  0  0  0  0  0
  139.3020   68.5850  225.0470 C   0  0  0  0  0  0  0  0  0  0  0  0
  139.7560   68.5600  226.3510 C   0  0  0  0  0  0  0  0  0  0  0  0
  139.5380   67.4530  227.1340 F   0  0  0  0  0  0  0  0  0  0  0  0
  140.4370   69.6430  226.8930 C   0  0  0  0  0  0  0  0  0  0  0  0
  140.6750   70.7850  226.1250 C   0  0  0  0  0  0  0  0  0  0  0  0
  140.2050   70.7750  224.8210 C   0  0  0  0  0  0  0  0  0  0  0  0
  140.4430   71.8830  224.0940 N   0  0  0  0  0  0  0  0  0  0  0  0
  138.8290   74.3530  223.0840 H   0  0  0  0  0  0  0  0  0  0  0  0
  140.8771   75.8317  221.5796 H   0  0  0  0  0  0  0  0  0  0  0  0
  139.3195   75.5860  220.6722 H   0  0  0  0  0  0  0  0  0  0  0  0
  141.5671   77.2454  221.4477 H   0  0  0  0  0  0  0  0  0  0  0  0
  140.9257   78.8161  220.7555 H   0  0  0  0  0  0  0  0  0  0  0  0
  143.0496   78.4094  222.6027 H   0  0  0  0  0  0  0  0  0  0  0  0
  142.4263   79.9291  221.8956 H   0  0  0  0  0  0  0  0  0  0  0  0
  141.2939   78.4727  224.3501 H   0  0  0  0  0  0  0  0  0  0  0  0
  142.2346   79.9776  224.3890 H   0  0  0  0  0  0  0  0  0  0  0  0
  139.9200   80.7133  224.3730 H   0  0  0  0  0  0  0  0  0  0  0  0
  140.4249   80.9198  222.6878 H   0  0  0  0  0  0  0  0  0  0  0  0
  138.7304   78.7693  223.9609 H   0  0  0  0  0  0  0  0  0  0  0  0
  138.5058   79.6402  222.3978 H   0  0  0  0  0  0  0  0  0  0  0  0
  139.0212   71.0369  221.1776 H   0  0  0  0  0  0  0  0  0  0  0  0
  138.5722   68.9908  222.4995 H   0  0  0  0  0  0  0  0  0  0  0  0
  138.7655   67.7209  224.6282 H   0  0  0  0  0  0  0  0  0  0  0  0
  140.7910   69.6007  227.9336 H   0  0  0  0  0  0  0  0  0  0  0  0
  141.2111   71.6530  226.5363 H   0  0  0  0  0  0  0  0  0  0  0  0
  1  2  2  0
  2  3  1  0
  3  4  1  0
  4  5  1  0
  5  6  2  0
  5  7  1  0
  7  8  1  0
  8  9  1  0
  9 10  1  0
 10 11  1  0
 11 12  1  0
  2 13  1  0
 13 14  2  0
 14 15  1  0
 15 16  2  0
 16 17  1  0
 17 18  2  0
 18 19  1  0
 18 20  1  0
 20 21  2  0
 21 22  1  0
 22 23  2  0
 12  7  1  0
 23 13  1  0
 22 16  1  0
  3 24  1  0
  4 25  1  0
  4 26  1  0
  8 27  1  0
  8 28  1  0
  9 29  1  0
  9 30  1  0
 10 31  1  0
 10 32  1  0
 11 33  1  0
 11 34  1  0
 12 35  1  0
 12 36  1  0
 14 37  1  0
 15 38  1  0
 17 39  1  0
 20 40  1  0
 21 41  1  0
M  END
>  <smiles>  (49) 
O=C(NCC(=O)N1CCCCC1)c1ccc2cc(F)ccc2n1

>  <score_type>  (49) 
oracle

>  <origin>  (49) 
autodockgpu

>  <m_score__min__energy>  (49) 
-7.29

>  <m_primary>  (49) 
energy

>  <rmsd>  (49) 
3.791864568781368

>  <m_score__min__rmsd>  (49) 
3.791864568781368

>  <meeko>  (49) 
{"free_energy": -7.12, "intermolecular_energy": -8.02, "internal_energy": -1.0, "cluster_size": 42, "cluster_id": 1, "rank_in_cluster": 20}

>  <energy>  (49) 
-6.83

>  <cluster_rmsd>  (49) 
1.45

>  <cluster>  (49) 
2

$$$$

     RDKit          3D

 41 43  0  0  0  0  0  0  0  0999 V2000
  141.4580   73.2760  221.5440 O   0  0  0  0  0  0  0  0  0  0  0  0
  140.3890   73.2380  222.2230 C   0  0  0  0  0  0  0  0  0  0  0  0
  139.5520   74.3600  222.3440 N   0  0  0  0  0  0  0  0  0  0  0  0
  139.8570   75.6100  221.7090 C   0  0  0  0  0  0  0  0  0  0  0  0
  139.2100   76.7600  222.3820 C   0  0  0  0  0  0  0  0  0  0  0  0
  138.0970   76.5810  222.9300 O   0  0  0  0  0  0  0  0  0  0  0  0
  139.8950   78.0080  222.3680 N   0  0  0  0  0  0  0  0  0  0  0  0
  141.1830   78.1990  221.7290 C   0  0  0  0  0  0  0  0  0  0  0  0
  142.1540   79.0000  222.5360 C   0  0  0  0  0  0  0  0  0  0  0  0
  141.4910   79.3750  223.8450 C   0  0  0  0  0  0  0  0  0  0  0  0
  140.2180   80.1500  223.4820 C   0  0  0  0  0  0  0  0  0  0  0  0
  139.2200   79.1240  223.0460 C   0  0  0  0  0  0  0  0  0  0  0  0
  139.9970   71.9910  222.9110 C   0  0  0  0  0  0  0  0  0  0  0  0
  139.0120   71.1640  222.4060 C   0  0  0  0  0  0  0  0  0  0  0  0
  138.6800   70.0010  223.0910 C   0  0  0  0  0  0  0  0  0  0  0  0
  139.3050   69.6400  224.2670 C   0  0  0  0  0  0  0  0  0  0  0  0
  139.0040   68.4990  224.9710 C   0  0  0  0  0  0  0  0  0  0  0  0
  139.6880   68.2280  226.1400 C   0  0  0  0  0  0  0  0  0  0  0  0
  139.4000   67.0930  226.8570 F   0  0  0  0  0  0  0  0  0  0  0  0
  140.6710   69.0890  226.6120 C   0  0  0  0  0  0  0  0  0  0  0  0
  140.9890   70.2520  225.9070 C   0  0  0  0  0  0  0  0  0  0  0  0
  140.2830   70.4930  224.7390 C   0  0  0  0  0  0  0  0  0  0  0  0
  140.6010   71.6180  224.0720 N   0  0  0  0  0  0  0  0  0  0  0  0
  138.6720   74.2770  222.9220 H   0  0  0  0  0  0  0  0  0  0  0  0
  140.9468   75.7582  221.7268 H   0  0  0  0  0  0  0  0  0  0  0  0
  139.4721   75.5650  220.6795 H   0  0  0  0  0  0  0  0  0  0  0  0
  141.6247   77.2094  221.5403 H   0  0  0  0  0  0  0  0  0  0  0  0
  140.9967   78.7654  220.8046 H   0  0  0  0  0  0  0  0  0  0  0  0
  143.0555   78.4016  222.7340 H   0  0  0  0  0  0  0  0  0  0  0  0
  142.4457   79.9069  221.9861 H   0  0  0  0  0  0  0  0  0  0  0  0
  141.2352   78.4694  224.4145 H   0  0  0  0  0  0  0  0  0  0  0  0
  142.1615   79.9821  224.4710 H   0  0  0  0  0  0  0  0  0  0  0  0
  139.8428   80.7001  224.3576 H   0  0  0  0  0  0  0  0  0  0  0  0
  140.4085   80.8887  222.6895 H   0  0  0  0  0  0  0  0  0  0  0  0
  138.6844   78.7418  223.9275 H   0  0  0  0  0  0  0  0  0  0  0  0
  138.5113   79.5906  222.3459 H   0  0  0  0  0  0  0  0  0  0  0  0
  138.4952   71.4237  221.4703 H   0  0  0  0  0  0  0  0  0  0  0  0
  137.8945   69.3480  222.6828 H   0  0  0  0  0  0  0  0  0  0  0  0
  138.2275   67.8096  224.6079 H   0  0  0  0  0  0  0  0  0  0  0  0
  141.2018   68.8534  227.5462 H   0  0  0  0  0  0  0  0  0  0  0  0
  141.7650   70.9456  226.2629 H   0  0  0  0  0  0  0  0  0  0  0  0
  1  2  2  0
  2  3  1  0
  3  4  1  0
  4  5  1  0
  5  6  2  0
  5  7  1  0
  7  8  1  0
  8  9  1  0
  9 10  1  0
 10 11  1  0
 11 12  1  0
  2 13  1  0
 13 14  2  0
 14 15  1  0
 15 16  2  0
 16 17  1  0
 17 18  2  0
 18 19  1  0
 18 20  1  0
 20 21  2  0
 21 22  1  0
 22 23  2  0
 12  7  1  0
 23 13  1  0
 22 16  1  0
  3 24  1  0
  4 25  1  0
  4 26  1  0
  8 27  1  0
  8 28  1  0
  9 29  1  0
  9 30  1  0
 10 31  1  0
 10 32  1  0
 11 33  1  0
 11 34  1  0
 12 35  1  0
 12 36  1  0
 14 37  1  0
 15 38  1  0
 17 39  1  0
 20 40  1  0
 21 41  1  0
M  END
>  <smiles>  (50) 
O=C(NCC(=O)N1CCCCC1)c1ccc2cc(F)ccc2n1

>  <score_type>  (50) 
oracle

>  <origin>  (50) 
autodockgpu

>  <m_score__min__energy>  (50) 
-7.29

>  <m_primary>  (50) 
energy

>  <rmsd>  (50) 
3.859087008586147

>  <m_score__min__rmsd>  (50) 
3.859087008586147

>  <meeko>  (50) 
{"free_energy": -7.06, "intermolecular_energy": -7.96, "internal_energy": -0.99, "cluster_size": 42, "cluster_id": 1, "rank_in_cluster": 40}

>  <energy>  (50) 
-6.83

>  <cluster_rmsd>  (50) 
1.44

>  <cluster>  (50) 
2

$$$$
