
     RDKit          3D

 55 58  0  0  0  0  0  0  0  0999 V2000
  138.7170   70.6780  221.2490 O   0  0  0  0  0  0  0  0  0  0  0  0
  138.8500   71.1790  222.4000 C   0  0  0  0  0  0  0  0  0  0  0  0
  138.6310   72.6050  222.4670 N   0  0  0  0  0  0  0  0  0  0  0  0
  138.3040   73.3640  221.3140 C   0  0  0  0  0  0  0  0  0  0  0  0
  139.2320   74.3170  220.7290 C   0  0  0  0  0  0  0  0  0  0  0  0
  138.6650   75.0080  219.7600 O   0  0  0  0  0  0  0  0  0  0  0  0
  140.5530   74.6500  220.9730 N   0  0  0  0  0  0  0  0  0  0  0  0
  141.6860   73.6790  220.9100 C   0  0  0  0  0  0  0  0  0  0  0  0
  142.5720   74.0510  219.7700 C   0  0  0  0  0  0  0  0  0  0  0  0
  142.1740   75.4410  219.2500 C   0  0  0  0  0  0  0  0  0  0  0  0
  142.1880   76.3220  220.4680 C   0  0  0  0  0  0  0  0  0  0  0  0
  141.0260   75.9960  221.3360 C   0  0  1  0  0  0  0  0  0  0  0  0
  140.0200   77.0640  221.4320 C   0  0  0  0  0  0  0  0  0  0  0  0
  140.1550   77.8440  222.5560 O   0  0  0  0  0  0  0  0  0  0  0  0
  140.7980   78.9530  222.9220 C   0  0  0  0  0  0  0  0  0  0  0  0
  142.1960   78.9790  222.7110 C   0  0  0  0  0  0  0  0  0  0  0  0
  142.9590   80.0670  223.0470 C   0  0  0  0  0  0  0  0  0  0  0  0
  142.3990   81.1910  223.6100 C   0  0  0  0  0  0  0  0  0  0  0  0
  141.0410   81.1970  223.8280 C   0  0  0  0  0  0  0  0  0  0  0  0
  140.2820   80.0980  223.4860 C   0  0  0  0  0  0  0  0  0  0  0  0
  139.1920   70.4160  223.5820 C   0  0  0  0  0  0  0  0  0  0  0  0
  138.9010   69.0710  223.6120 C   0  0  0  0  0  0  0  0  0  0  0  0
  139.2160   68.3040  224.7370 C   0  0  0  0  0  0  0  0  0  0  0  0
  139.8310   68.9640  225.8050 C   0  0  0  0  0  0  0  0  0  0  0  0
  140.1740   68.2570  226.9610 C   0  0  0  0  0  0  0  0  0  0  0  0
  140.7880   68.9140  228.0270 C   0  0  0  0  0  0  0  0  0  0  0  0
  141.1220   68.2330  229.1480 F   0  0  0  0  0  0  0  0  0  0  0  0
  141.0670   70.2670  227.9640 C   0  0  0  0  0  0  0  0  0  0  0  0
  140.7190   70.9450  226.8140 C   0  0  0  0  0  0  0  0  0  0  0  0
  140.1120   70.3230  225.7440 C   0  0  0  0  0  0  0  0  0  0  0  0
  139.7840   71.0040  224.6370 N   0  0  0  0  0  0  0  0  0  0  0  0
  138.7400   73.0060  223.4470 H   0  0  0  0  0  0  0  0  0  0  0  0
  138.0708   72.6363  220.5227 H   0  0  0  0  0  0  0  0  0  0  0  0
  137.5056   74.0209  221.6896 H   0  0  0  0  0  0  0  0  0  0  0  0
  142.2570   73.7150  221.8495 H   0  0  0  0  0  0  0  0  0  0  0  0
  141.2983   72.6597  220.7660 H   0  0  0  0  0  0  0  0  0  0  0  0
  143.6182   74.0713  220.1092 H   0  0  0  0  0  0  0  0  0  0  0  0
  142.4646   73.3111  218.9632 H   0  0  0  0  0  0  0  0  0  0  0  0
  142.8992   75.7985  218.5042 H   0  0  0  0  0  0  0  0  0  0  0  0
  141.1930   75.4342  218.7523 H   0  0  0  0  0  0  0  0  0  0  0  0
  143.1203   76.1568  221.0279 H   0  0  0  0  0  0  0  0  0  0  0  0
  142.1257   77.3751  220.1564 H   0  0  0  0  0  0  0  0  0  0  0  0
  141.3346   75.9528  222.3909 H   0  0  0  0  0  0  0  0  0  0  0  0
  140.1123   77.7101  220.5465 H   0  0  0  0  0  0  0  0  0  0  0  0
  139.0354   76.5772  221.4919 H   0  0  0  0  0  0  0  0  0  0  0  0
  142.6852   78.1008  222.2644 H   0  0  0  0  0  0  0  0  0  0  0  0
  144.0431   80.0411  222.8625 H   0  0  0  0  0  0  0  0  0  0  0  0
  143.0192   82.0591  223.8778 H   0  0  0  0  0  0  0  0  0  0  0  0
  140.5601   82.0793  224.2756 H   0  0  0  0  0  0  0  0  0  0  0  0
  139.1991   80.1384  223.6751 H   0  0  0  0  0  0  0  0  0  0  0  0
  138.4175   68.5969  222.7451 H   0  0  0  0  0  0  0  0  0  0  0  0
  138.9900   67.2283  224.7802 H   0  0  0  0  0  0  0  0  0  0  0  0
  139.9592   67.1804  227.0301 H   0  0  0  0  0  0  0  0  0  0  0  0
  141.5511   70.7862  228.8043 H   0  0  0  0  0  0  0  0  0  0  0  0
  140.9338   72.0218  226.7485 H   0  0  0  0  0  0  0  0  0  0  0  0
  1  2  2  0
  2  3  1  0
  3  4  1  0
  4  5  1  0
  5  6  2  0
  5  7  1  0
  7  8  1  0
  8  9  1  0
  9 10  1  0
 10 11  1  0
 11 12  1  0
 12 13  1  0
 13 14  1  0
 14 15  1  0
 15 16  2  0
 16 17  1  0
 17 18  2  0
 18 19  1  0
 19 20  2  0
  2 21  1  0
 21 22  2  0
 22 23  1  0
 23 24  2  0
 24 25  1  0
 25 26  2  0
 26 27  1  0
 26 28  1  0
 28 29  2  0
 29 30  1  0
 30 31  2  0
 12  7  1  0
 20 15  1  0
 31 21  1  0
 30 24  1  0
  3 32  1  0
  4 33  1  0
  4 34  1  0
  8 35  1  0
  8 36  1  0
  9 37  1  0
  9 38  1  0
 10 39  1  0
 10 40  1  0
 11 41  1  0
 11 42  1  0
 12 43  1  1
 13 44  1  0
 13 45  1  0
 16 46  1  0
 17 47  1  0
 18 48  1  0
 19 49  1  0
 20 50  1  0
 22 51  1  0
 23 52  1  0
 25 53  1  0
 28 54  1  0
 29 55  1  0
M  END
>  <smiles>  (1) 
O=C(NCC(=O)N1CCCC[C@H]1COc1ccccc1)c1ccc2cc(F)ccc2n1

>  <score_type>  (1) 
oracle

>  <origin>  (1) 
autodockgpu

>  <m_score__min__energy>  (1) 
-8.7799999999999994

>  <m_primary>  (1) 
energy

>  <rmsd>  (1) 
2.0749003775507617

>  <m_score__min__rmsd>  (1) 
2.0749003775507617

>  <meeko>  (1) 
{"free_energy": -8.09, "intermolecular_energy": -10.18, "internal_energy": -1.62, "cluster_size": 28, "cluster_id": 1, "rank_in_cluster": 22}

>  <energy>  (1) 
-8.78

>  <cluster_rmsd>  (1) 
0.0

>  <cluster>  (1) 
1

$$$$

     RDKit          3D

 55 58  0  0  0  0  0  0  0  0999 V2000
  141.3670   72.7630  221.9070 O   0  0  0  0  0  0  0  0  0  0  0  0
  140.3470   72.6190  222.6380 C   0  0  0  0  0  0  0  0  0  0  0  0
  139.2630   73.5270  222.3490 N   0  0  0  0  0  0  0  0  0  0  0  0
  139.3620   74.5040  221.3250 C   0  0  0  0  0  0  0  0  0  0  0  0
  138.7510   75.8170  221.4490 C   0  0  0  0  0  0  0  0  0  0  0  0
  137.4740   75.7260  221.7640 O   0  0  0  0  0  0  0  0  0  0  0  0
  139.2170   77.1140  221.3140 N   0  0  0  0  0  0  0  0  0  0  0  0
  138.9830   78.1950  222.3170 C   0  0  0  0  0  0  0  0  0  0  0  0
  140.2900   78.5730  222.9270 C   0  0  0  0  0  0  0  0  0  0  0  0
  141.4300   77.9330  222.1200 C   0  0  0  0  0  0  0  0  0  0  0  0
  141.1710   78.3480  220.6980 C   0  0  0  0  0  0  0  0  0  0  0  0
  139.9940   77.6110  220.1680 C   0  0  1  0  0  0  0  0  0  0  0  0
  140.3090   76.6540  219.0960 C   0  0  0  0  0  0  0  0  0  0  0  0
  141.6530   76.3940  218.9730 O   0  0  0  0  0  0  0  0  0  0  0  0
  142.5290   75.4790  219.3910 C   0  0  0  0  0  0  0  0  0  0  0  0
  142.2070   74.1260  219.1350 C   0  0  0  0  0  0  0  0  0  0  0  0
  143.0340   73.1020  219.5180 C   0  0  0  0  0  0  0  0  0  0  0  0
  144.2200   73.3410  220.1730 C   0  0  0  0  0  0  0  0  0  0  0  0
  144.5610   74.6470  220.4360 C   0  0  0  0  0  0  0  0  0  0  0  0
  143.7240   75.6710  220.0460 C   0  0  0  0  0  0  0  0  0  0  0  0
  140.2380   71.6320  223.6920 C   0  0  0  0  0  0  0  0  0  0  0  0
  139.6700   70.4110  223.4030 C   0  0  0  0  0  0  0  0  0  0  0  0
  139.5480   69.4350  224.3960 C   0  0  0  0  0  0  0  0  0  0  0  0
  140.0240   69.7600  225.6690 C   0  0  0  0  0  0  0  0  0  0  0  0
  139.9340   68.8300  226.7090 C   0  0  0  0  0  0  0  0  0  0  0  0
  140.4090   69.1530  227.9800 C   0  0  0  0  0  0  0  0  0  0  0  0
  140.3240   68.2560  228.9900 F   0  0  0  0  0  0  0  0  0  0  0  0
  140.9750   70.3890  228.2370 C   0  0  0  0  0  0  0  0  0  0  0  0
  141.0540   71.2920  227.1960 C   0  0  0  0  0  0  0  0  0  0  0  0
  140.5930   71.0010  225.9290 C   0  0  0  0  0  0  0  0  0  0  0  0
  140.6810   71.8950  224.9340 N   0  0  0  0  0  0  0  0  0  0  0  0
  138.4110   73.3850  222.9710 H   0  0  0  0  0  0  0  0  0  0  0  0
  140.4369   74.6785  221.1693 H   0  0  0  0  0  0  0  0  0  0  0  0
  138.7702   74.0504  220.5163 H   0  0  0  0  0  0  0  0  0  0  0  0
  138.5393   79.0706  221.8206 H   0  0  0  0  0  0  0  0  0  0  0  0
  138.2944   77.8391  223.0975 H   0  0  0  0  0  0  0  0  0  0  0  0
  140.3993   79.6675  222.9132 H   0  0  0  0  0  0  0  0  0  0  0  0
  140.3287   78.2162  223.9668 H   0  0  0  0  0  0  0  0  0  0  0  0
  142.4057   78.3085  222.4621 H   0  0  0  0  0  0  0  0  0  0  0  0
  141.4588   76.8395  222.2357 H   0  0  0  0  0  0  0  0  0  0  0  0
  140.9716   79.4292  220.6631 H   0  0  0  0  0  0  0  0  0  0  0  0
  142.0535   78.1154  220.0839 H   0  0  0  0  0  0  0  0  0  0  0  0
  139.3352   78.2901  219.6069 H   0  0  0  0  0  0  0  0  0  0  0  0
  139.7891   75.7083  219.3092 H   0  0  0  0  0  0  0  0  0  0  0  0
  139.9782   77.1066  218.1496 H   0  0  0  0  0  0  0  0  0  0  0  0
  141.2675   73.8888  218.6144 H   0  0  0  0  0  0  0  0  0  0  0  0
  142.7425   72.0647  219.2964 H   0  0  0  0  0  0  0  0  0  0  0  0
  144.8760   72.5121  220.4773 H   0  0  0  0  0  0  0  0  0  0  0  0
  145.5021   74.8749  220.9579 H   0  0  0  0  0  0  0  0  0  0  0  0
  144.0298   76.7032  220.2720 H   0  0  0  0  0  0  0  0  0  0  0  0
  139.3102   70.2027  222.3846 H   0  0  0  0  0  0  0  0  0  0  0  0
  139.0971   68.4541  224.1847 H   0  0  0  0  0  0  0  0  0  0  0  0
  139.4877   67.8417  226.5245 H   0  0  0  0  0  0  0  0  0  0  0  0
  141.3502   70.6440  229.2391 H   0  0  0  0  0  0  0  0  0  0  0  0
  141.5008   72.2795  227.3837 H   0  0  0  0  0  0  0  0  0  0  0  0
  1  2  2  0
  2  3  1  0
  3  4  1  0
  4  5  1  0
  5  6  2  0
  5  7  1  0
  7  8  1  0
  8  9  1  0
  9 10  1  0
 10 11  1  0
 11 12  1  0
 12 13  1  0
 13 14  1  0
 14 15  1  0
 15 16  2  0
 16 17  1  0
 17 18  2  0
 18 19  1  0
 19 20  2  0
  2 21  1  0
 21 22  2  0
 22 23  1  0
 23 24  2  0
 24 25  1  0
 25 26  2  0
 26 27  1  0
 26 28  1  0
 28 29  2  0
 29 30  1  0
 30 31  2  0
 12  7  1  0
 20 15  1  0
 31 21  1  0
 30 24  1  0
  3 32  1  0
  4 33  1  0
  4 34  1  0
  8 35  1  0
  8 36  1  0
  9 37  1  0
  9 38  1  0
 10 39  1  0
 10 40  1  0
 11 41  1  0
 11 42  1  0
 12 43  1  6
 13 44  1  0
 13 45  1  0
 16 46  1  0
 17 47  1  0
 18 48  1  0
 19 49  1  0
 20 50  1  0
 22 51  1  0
 23 52  1  0
 25 53  1  0
 28 54  1  0
 29 55  1  0
M  END
>  <smiles>  (2) 
O=C(NCC(=O)N1CCCC[C@H]1COc1ccccc1)c1ccc2cc(F)ccc2n1

>  <score_type>  (2) 
oracle

>  <origin>  (2) 
autodockgpu

>  <m_score__min__energy>  (2) 
-8.7799999999999994

>  <m_primary>  (2) 
energy

>  <rmsd>  (2) 
2.7872546205498514

>  <m_score__min__rmsd>  (2) 
2.7872546205498514

>  <meeko>  (2) 
{"free_energy": -7.38, "intermolecular_energy": -9.47, "internal_energy": -2.02, "cluster_size": 16, "cluster_id": 2, "rank_in_cluster": 14}

>  <energy>  (2) 
-8.78

>  <cluster_rmsd>  (2) 
1.33

>  <cluster>  (2) 
1

$$$$

     RDKit          3D

 55 58  0  0  0  0  0  0  0  0999 V2000
  139.0000   71.2080  221.1340 O   0  0  0  0  0  0  0  0  0  0  0  0
  139.2430   71.6880  222.2770 C   0  0  0  0  0  0  0  0  0  0  0  0
  139.3110   73.1290  222.3250 N   0  0  0  0  0  0  0  0  0  0  0  0
  139.1260   73.9240  221.1640 C   0  0  0  0  0  0  0  0  0  0  0  0
  140.2460   74.4170  220.3800 C   0  0  0  0  0  0  0  0  0  0  0  0
  140.1980   73.9710  219.1400 O   0  0  0  0  0  0  0  0  0  0  0  0
  141.3240   75.2410  220.6510 N   0  0  0  0  0  0  0  0  0  0  0  0
  142.7410   74.9020  220.3230 C   0  0  0  0  0  0  0  0  0  0  0  0
  143.2280   75.8440  219.2750 C   0  0  0  0  0  0  0  0  0  0  0  0
  142.2160   76.9890  219.1120 C   0  0  0  0  0  0  0  0  0  0  0  0
  142.0210   77.5260  220.5030 C   0  0  0  0  0  0  0  0  0  0  0  0
  141.2310   76.5560  221.3070 C   0  0  1  0  0  0  0  0  0  0  0  0
  139.8910   77.0300  221.6860 C   0  0  0  0  0  0  0  0  0  0  0  0
  139.9100   78.0130  222.6470 O   0  0  0  0  0  0  0  0  0  0  0  0
  140.6850   79.0400  223.0000 C   0  0  0  0  0  0  0  0  0  0  0  0
  140.3190   80.3130  222.5060 C   0  0  0  0  0  0  0  0  0  0  0  0
  141.0410   81.4390  222.8050 C   0  0  0  0  0  0  0  0  0  0  0  0
  142.1610   81.3850  223.6030 C   0  0  0  0  0  0  0  0  0  0  0  0
  142.5420   80.1610  224.1000 C   0  0  0  0  0  0  0  0  0  0  0  0
  141.8090   79.0330  223.7930 C   0  0  0  0  0  0  0  0  0  0  0  0
  139.4420   70.8870  223.4660 C   0  0  0  0  0  0  0  0  0  0  0  0
  139.0280   69.5740  223.4620 C   0  0  0  0  0  0  0  0  0  0  0  0
  139.2040   68.7730  224.5930 C   0  0  0  0  0  0  0  0  0  0  0  0
  139.8110   69.3640  225.7040 C   0  0  0  0  0  0  0  0  0  0  0  0
  140.0180   68.6200  226.8680 C   0  0  0  0  0  0  0  0  0  0  0  0
  140.6250   69.2090  227.9780 C   0  0  0  0  0  0  0  0  0  0  0  0
  140.8270   68.4920  229.1070 F   0  0  0  0  0  0  0  0  0  0  0  0
  141.0300   70.5310  227.9490 C   0  0  0  0  0  0  0  0  0  0  0  0
  140.8150   71.2480  226.7900 C   0  0  0  0  0  0  0  0  0  0  0  0
  140.2190   70.6920  225.6770 C   0  0  0  0  0  0  0  0  0  0  0  0
  140.0210   71.4100  224.5620 N   0  0  0  0  0  0  0  0  0  0  0  0
  139.5100   73.5140  223.2970 H   0  0  0  0  0  0  0  0  0  0  0  0
  138.5091   73.3262  220.4769 H   0  0  0  0  0  0  0  0  0  0  0  0
  138.7127   74.8527  221.5844 H   0  0  0  0  0  0  0  0  0  0  0  0
  143.3629   74.9984  221.2252 H   0  0  0  0  0  0  0  0  0  0  0  0
  142.8031   73.8673  219.9548 H   0  0  0  0  0  0  0  0  0  0  0  0
  144.2031   76.2553  219.5749 H   0  0  0  0  0  0  0  0  0  0  0  0
  143.3364   75.3090  218.3200 H   0  0  0  0  0  0  0  0  0  0  0  0
  142.6162   77.7689  218.4475 H   0  0  0  0  0  0  0  0  0  0  0  0
  141.2721   76.6495  218.6605 H   0  0  0  0  0  0  0  0  0  0  0  0
  143.0018   77.6806  220.9764 H   0  0  0  0  0  0  0  0  0  0  0  0
  141.4812   78.4831  220.4523 H   0  0  0  0  0  0  0  0  0  0  0  0
  141.6671   76.4438  222.3106 H   0  0  0  0  0  0  0  0  0  0  0  0
  139.3960   77.4295  220.7886 H   0  0  0  0  0  0  0  0  0  0  0  0
  139.3516   76.1710  222.1115 H   0  0  0  0  0  0  0  0  0  0  0  0
  139.4303   80.4023  221.8640 H   0  0  0  0  0  0  0  0  0  0  0  0
  140.7178   82.4083  222.3977 H   0  0  0  0  0  0  0  0  0  0  0  0
  142.7344   82.2943  223.8363 H   0  0  0  0  0  0  0  0  0  0  0  0
  143.4313   80.0810  224.7425 H   0  0  0  0  0  0  0  0  0  0  0  0
  142.1435   78.0704  224.2072 H   0  0  0  0  0  0  0  0  0  0  0  0
  138.5555   69.1528  222.5624 H   0  0  0  0  0  0  0  0  0  0  0  0
  138.8787   67.7223  224.6082 H   0  0  0  0  0  0  0  0  0  0  0  0
  139.7018   67.5673  226.9098 H   0  0  0  0  0  0  0  0  0  0  0  0
  141.5088   70.9965  228.8231 H   0  0  0  0  0  0  0  0  0  0  0  0
  141.1303   72.3012  226.7520 H   0  0  0  0  0  0  0  0  0  0  0  0
  1  2  2  0
  2  3  1  0
  3  4  1  0
  4  5  1  0
  5  6  2  0
  5  7  1  0
  7  8  1  0
  8  9  1  0
  9 10  1  0
 10 11  1  0
 11 12  1  0
 12 13  1  0
 13 14  1  0
 14 15  1  0
 15 16  2  0
 16 17  1  0
 17 18  2  0
 18 19  1  0
 19 20  2  0
  2 21  1  0
 21 22  2  0
 22 23  1  0
 23 24  2  0
 24 25  1  0
 25 26  2  0
 26 27  1  0
 26 28  1  0
 28 29  2  0
 29 30  1  0
 30 31  2  0
 12  7  1  0
 20 15  1  0
 31 21  1  0
 30 24  1  0
  3 32  1  0
  4 33  1  0
  4 34  1  0
  8 35  1  0
  8 36  1  0
  9 37  1  0
  9 38  1  0
 10 39  1  0
 10 40  1  0
 11 41  1  0
 11 42  1  0
 12 43  1  1
 13 44  1  0
 13 45  1  0
 16 46  1  0
 17 47  1  0
 18 48  1  0
 19 49  1  0
 20 50  1  0
 22 51  1  0
 23 52  1  0
 25 53  1  0
 28 54  1  0
 29 55  1  0
M  END
>  <smiles>  (3) 
O=C(NCC(=O)N1CCCC[C@H]1COc1ccccc1)c1ccc2cc(F)ccc2n1

>  <score_type>  (3) 
oracle

>  <origin>  (3) 
autodockgpu

>  <m_score__min__energy>  (3) 
-8.7799999999999994

>  <m_primary>  (3) 
energy

>  <rmsd>  (3) 
2.182742248966789

>  <m_score__min__rmsd>  (3) 
2.182742248966789

>  <meeko>  (3) 
{"free_energy": -8.43, "intermolecular_energy": -10.51, "internal_energy": -1.62, "cluster_size": 28, "cluster_id": 1, "rank_in_cluster": 9}

>  <energy>  (3) 
-8.74

>  <cluster_rmsd>  (3) 
1.33

>  <cluster>  (3) 
1

$$$$

     RDKit          3D

 55 58  0  0  0  0  0  0  0  0999 V2000
  141.0120   72.4450  221.5270 O   0  0  0  0  0  0  0  0  0  0  0  0
  140.0860   72.5600  222.3780 C   0  0  0  0  0  0  0  0  0  0  0  0
  139.1780   73.6570  222.1370 N   0  0  0  0  0  0  0  0  0  0  0  0
  139.3390   74.5300  221.0310 C   0  0  0  0  0  0  0  0  0  0  0  0
  139.9460   75.8440  221.1670 C   0  0  0  0  0  0  0  0  0  0  0  0
  140.7430   76.1130  220.1530 O   0  0  0  0  0  0  0  0  0  0  0  0
  139.8610   76.8520  222.1120 N   0  0  0  0  0  0  0  0  0  0  0  0
  141.0420   77.5550  222.6940 C   0  0  0  0  0  0  0  0  0  0  0  0
  141.0190   78.9780  222.2500 C   0  0  0  0  0  0  0  0  0  0  0  0
  139.6620   79.2840  221.5990 C   0  0  0  0  0  0  0  0  0  0  0  0
  138.6440   78.8490  222.6170 C   0  0  0  0  0  0  0  0  0  0  0  0
  138.6030   77.3640  222.6810 C   0  0  1  0  0  0  0  0  0  0  0  0
  137.3490   76.7690  222.1970 C   0  0  0  0  0  0  0  0  0  0  0  0
  137.0890   75.5300  222.7330 O   0  0  0  0  0  0  0  0  0  0  0  0
  136.1970   74.9710  223.5530 C   0  0  0  0  0  0  0  0  0  0  0  0
  135.9330   73.5950  223.3660 C   0  0  0  0  0  0  0  0  0  0  0  0
  135.0370   72.9170  224.1510 C   0  0  0  0  0  0  0  0  0  0  0  0
  134.3470   73.5460  225.1620 C   0  0  0  0  0  0  0  0  0  0  0  0
  134.5820   74.8850  225.3690 C   0  0  0  0  0  0  0  0  0  0  0  0
  135.4860   75.5580  224.5750 C   0  0  0  0  0  0  0  0  0  0  0  0
  139.9160   71.6810  223.5160 C   0  0  0  0  0  0  0  0  0  0  0  0
  139.0810   70.5930  223.3960 C   0  0  0  0  0  0  0  0  0  0  0  0
  138.8930   69.7230  224.4740 C   0  0  0  0  0  0  0  0  0  0  0  0
  139.5840   70.0140  225.6530 C   0  0  0  0  0  0  0  0  0  0  0  0
  139.4420   69.1860  226.7710 C   0  0  0  0  0  0  0  0  0  0  0  0
  140.1320   69.4750  227.9480 C   0  0  0  0  0  0  0  0  0  0  0  0
  139.9970   68.6750  229.0320 F   0  0  0  0  0  0  0  0  0  0  0  0
  140.9630   70.5760  228.0350 C   0  0  0  0  0  0  0  0  0  0  0  0
  141.0880   71.3800  226.9200 C   0  0  0  0  0  0  0  0  0  0  0  0
  140.4200   71.1200  225.7430 C   0  0  0  0  0  0  0  0  0  0  0  0
  140.5580   71.9170  224.6730 N   0  0  0  0  0  0  0  0  0  0  0  0
  138.4010   73.7330  222.8610 H   0  0  0  0  0  0  0  0  0  0  0  0
  139.9477   73.9847  220.2948 H   0  0  0  0  0  0  0  0  0  0  0  0
  138.2974   74.7821  220.7831 H   0  0  0  0  0  0  0  0  0  0  0  0
  140.9957   77.5093  223.7921 H   0  0  0  0  0  0  0  0  0  0  0  0
  141.9701   77.0718  222.3545 H   0  0  0  0  0  0  0  0  0  0  0  0
  141.1668   79.6365  223.1186 H   0  0  0  0  0  0  0  0  0  0  0  0
  141.8248   79.1500  221.5212 H   0  0  0  0  0  0  0  0  0  0  0  0
  139.5660   80.3596  221.3894 H   0  0  0  0  0  0  0  0  0  0  0  0
  139.5358   78.7666  220.6365 H   0  0  0  0  0  0  0  0  0  0  0  0
  138.9189   79.2502  223.6037 H   0  0  0  0  0  0  0  0  0  0  0  0
  137.6532   79.2289  222.3271 H   0  0  0  0  0  0  0  0  0  0  0  0
  138.5633   77.0247  223.7266 H   0  0  0  0  0  0  0  0  0  0  0  0
  136.5198   77.4428  222.4585 H   0  0  0  0  0  0  0  0  0  0  0  0
  137.4511   76.6371  221.1097 H   0  0  0  0  0  0  0  0  0  0  0  0
  136.4615   73.0530  222.5679 H   0  0  0  0  0  0  0  0  0  0  0  0
  134.8656   71.8458  223.9687 H   0  0  0  0  0  0  0  0  0  0  0  0
  133.6288   72.9940  225.7861 H   0  0  0  0  0  0  0  0  0  0  0  0
  134.0483   75.4195  226.1687 H   0  0  0  0  0  0  0  0  0  0  0  0
  135.6488   76.6283  224.7699 H   0  0  0  0  0  0  0  0  0  0  0  0
  138.5585   70.4071  222.4460 H   0  0  0  0  0  0  0  0  0  0  0  0
  138.2305   68.8482  224.3974 H   0  0  0  0  0  0  0  0  0  0  0  0
  138.7849   68.3052  226.7220 H   0  0  0  0  0  0  0  0  0  0  0  0
  141.5074   70.8042  228.9632 H   0  0  0  0  0  0  0  0  0  0  0  0
  141.7450   72.2607  226.9729 H   0  0  0  0  0  0  0  0  0  0  0  0
  1  2  2  0
  2  3  1  0
  3  4  1  0
  4  5  1  0
  5  6  2  0
  5  7  1  0
  7  8  1  0
  8  9  1  0
  9 10  1  0
 10 11  1  0
 11 12  1  0
 12 13  1  0
 13 14  1  0
 14 15  1  0
 15 16  2  0
 16 17  1  0
 17 18  2  0
 18 19  1  0
 19 20  2  0
  2 21  1  0
 21 22  2  0
 22 23  1  0
 23 24  2  0
 24 25  1  0
 25 26  2  0
 26 27  1  0
 26 28  1  0
 28 29  2  0
 29 30  1  0
 30 31  2  0
 12  7  1  0
 20 15  1  0
 31 21  1  0
 30 24  1  0
  3 32  1  0
  4 33  1  0
  4 34  1  0
  8 35  1  0
  8 36  1  0
  9 37  1  0
  9 38  1  0
 10 39  1  0
 10 40  1  0
 11 41  1  0
 11 42  1  0
 12 43  1  1
 13 44  1  0
 13 45  1  0
 16 46  1  0
 17 47  1  0
 18 48  1  0
 19 49  1  0
 20 50  1  0
 22 51  1  0
 23 52  1  0
 25 53  1  0
 28 54  1  0
 29 55  1  0
M  END
>  <smiles>  (4) 
O=C(NCC(=O)N1CCCC[C@H]1COc1ccccc1)c1ccc2cc(F)ccc2n1

>  <score_type>  (4) 
oracle

>  <origin>  (4) 
autodockgpu

>  <m_score__min__energy>  (4) 
-8.7799999999999994

>  <m_primary>  (4) 
energy

>  <rmsd>  (4) 
3.2833962752285766

>  <m_score__min__rmsd>  (4) 
3.2833962752285766

>  <meeko>  (4) 
{"free_energy": -7.45, "intermolecular_energy": -9.54, "internal_energy": -2.38, "cluster_size": 3, "cluster_id": 5, "rank_in_cluster": 1}

>  <energy>  (4) 
-8.61

>  <cluster_rmsd>  (4) 
1.14

>  <cluster>  (4) 
1

$$$$

     RDKit          3D

 55 58  0  0  0  0  0  0  0  0999 V2000
  141.1440   72.1720  221.6420 O   0  0  0  0  0  0  0  0  0  0  0  0
  140.2390   72.2080  222.5220 C   0  0  0  0  0  0  0  0  0  0  0  0
  139.2580   73.2520  222.3380 N   0  0  0  0  0  0  0  0  0  0  0  0
  139.3320   74.1610  221.2510 C   0  0  0  0  0  0  0  0  0  0  0  0
  140.3330   75.2120  221.1900 C   0  0  0  0  0  0  0  0  0  0  0  0
  141.4880   74.8060  221.6790 O   0  0  0  0  0  0  0  0  0  0  0  0
  140.3330   76.5180  220.7310 N   0  0  0  0  0  0  0  0  0  0  0  0
  139.5170   77.6160  221.3300 C   0  0  0  0  0  0  0  0  0  0  0  0
  140.4370   78.6120  221.9500 C   0  0  0  0  0  0  0  0  0  0  0  0
  141.8780   78.3130  221.5130 C   0  0  0  0  0  0  0  0  0  0  0  0
  141.8170   78.2520  220.0120 C   0  0  0  0  0  0  0  0  0  0  0  0
  141.1240   77.0070  219.5890 C   0  0  1  0  0  0  0  0  0  0  0  0
  141.9860   76.0360  218.8980 C   0  0  0  0  0  0  0  0  0  0  0  0
  143.1710   75.7950  219.5520 O   0  0  0  0  0  0  0  0  0  0  0  0
  143.9970   74.7690  219.7610 C   0  0  0  0  0  0  0  0  0  0  0  0
  144.0300   73.7630  218.7680 C   0  0  0  0  0  0  0  0  0  0  0  0
  144.8420   72.6650  218.8770 C   0  0  0  0  0  0  0  0  0  0  0  0
  145.6670   72.4850  219.9640 C   0  0  0  0  0  0  0  0  0  0  0  0
  145.6580   73.4460  220.9470 C   0  0  0  0  0  0  0  0  0  0  0  0
  144.8380   74.5480  220.8280 C   0  0  0  0  0  0  0  0  0  0  0  0
  140.1590   71.2920  223.6400 C   0  0  0  0  0  0  0  0  0  0  0  0
  139.5760   70.0600  223.4500 C   0  0  0  0  0  0  0  0  0  0  0  0
  139.4810   69.1510  224.5070 C   0  0  0  0  0  0  0  0  0  0  0  0
  139.9990   69.5540  225.7410 C   0  0  0  0  0  0  0  0  0  0  0  0
  139.9380   68.6940  226.8410 C   0  0  0  0  0  0  0  0  0  0  0  0
  140.4560   69.0950  228.0730 C   0  0  0  0  0  0  0  0  0  0  0  0
  140.3980   68.2650  229.1400 F   0  0  0  0  0  0  0  0  0  0  0  0
  141.0360   70.3400  228.2300 C   0  0  0  0  0  0  0  0  0  0  0  0
  141.0860   71.1730  227.1310 C   0  0  0  0  0  0  0  0  0  0  0  0
  140.5830   70.8050  225.9010 C   0  0  0  0  0  0  0  0  0  0  0  0
  140.6430   71.6320  224.8480 N   0  0  0  0  0  0  0  0  0  0  0  0
  138.5010   73.2610  223.0860 H   0  0  0  0  0  0  0  0  0  0  0  0
  139.4733   73.5492  220.3478 H   0  0  0  0  0  0  0  0  0  0  0  0
  138.4018   74.7363  221.3689 H   0  0  0  0  0  0  0  0  0  0  0  0
  138.9189   78.1028  220.5456 H   0  0  0  0  0  0  0  0  0  0  0  0
  138.8396   77.2057  222.0934 H   0  0  0  0  0  0  0  0  0  0  0  0
  140.1566   79.6243  221.6234 H   0  0  0  0  0  0  0  0  0  0  0  0
  140.3638   78.5489  223.0457 H   0  0  0  0  0  0  0  0  0  0  0  0
  142.5570   79.1137  221.8414 H   0  0  0  0  0  0  0  0  0  0  0  0
  142.2609   77.3800  221.9521 H   0  0  0  0  0  0  0  0  0  0  0  0
  141.2650   79.1246  219.6327 H   0  0  0  0  0  0  0  0  0  0  0  0
  142.8391   78.2561  219.6054 H   0  0  0  0  0  0  0  0  0  0  0  0
  140.4143   77.2199  218.7760 H   0  0  0  0  0  0  0  0  0  0  0  0
  141.4384   75.0863  218.8074 H   0  0  0  0  0  0  0  0  0  0  0  0
  142.2381   76.4660  217.9174 H   0  0  0  0  0  0  0  0  0  0  0  0
  143.3852   73.8649  217.8826 H   0  0  0  0  0  0  0  0  0  0  0  0
  144.8345   71.9097  218.0773 H   0  0  0  0  0  0  0  0  0  0  0  0
  146.3140   71.5990  220.0437 H   0  0  0  0  0  0  0  0  0  0  0  0
  146.3056   73.3357  221.8293 H   0  0  0  0  0  0  0  0  0  0  0  0
  144.8570   75.2958  221.6345 H   0  0  0  0  0  0  0  0  0  0  0  0
  139.1821   69.7890  222.4593 H   0  0  0  0  0  0  0  0  0  0  0  0
  139.0189   68.1617  224.3738 H   0  0  0  0  0  0  0  0  0  0  0  0
  139.4808   67.6991  226.7353 H   0  0  0  0  0  0  0  0  0  0  0  0
  141.4449   70.6568  229.2008 H   0  0  0  0  0  0  0  0  0  0  0  0
  141.5440   72.1671  227.2402 H   0  0  0  0  0  0  0  0  0  0  0  0
  1  2  2  0
  2  3  1  0
  3  4  1  0
  4  5  1  0
  5  6  2  0
  5  7  1  0
  7  8  1  0
  8  9  1  0
  9 10  1  0
 10 11  1  0
 11 12  1  0
 12 13  1  0
 13 14  1  0
 14 15  1  0
 15 16  2  0
 16 17  1  0
 17 18  2  0
 18 19  1  0
 19 20  2  0
  2 21  1  0
 21 22  2  0
 22 23  1  0
 23 24  2  0
 24 25  1  0
 25 26  2  0
 26 27  1  0
 26 28  1  0
 28 29  2  0
 29 30  1  0
 30 31  2  0
 12  7  1  0
 20 15  1  0
 31 21  1  0
 30 24  1  0
  3 32  1  0
  4 33  1  0
  4 34  1  0
  8 35  1  0
  8 36  1  0
  9 37  1  0
  9 38  1  0
 10 39  1  0
 10 40  1  0
 11 41  1  0
 11 42  1  0
 12 43  1  6
 13 44  1  0
 13 45  1  0
 16 46  1  0
 17 47  1  0
 18 48  1  0
 19 49  1  0
 20 50  1  0
 22 51  1  0
 23 52  1  0
 25 53  1  0
 28 54  1  0
 29 55  1  0
M  END
>  <smiles>  (5) 
O=C(NCC(=O)N1CCCC[C@H]1COc1ccccc1)c1ccc2cc(F)ccc2n1

>  <score_type>  (5) 
oracle

>  <origin>  (5) 
autodockgpu

>  <m_score__min__energy>  (5) 
-8.7799999999999994

>  <m_primary>  (5) 
energy

>  <rmsd>  (5) 
2.288270961875208

>  <m_score__min__rmsd>  (5) 
2.288270961875208

>  <meeko>  (5) 
{"free_energy": -8.15, "intermolecular_energy": -10.24, "internal_energy": -1.67, "cluster_size": 16, "cluster_id": 2, "rank_in_cluster": 2}

>  <energy>  (5) 
-8.57

>  <cluster_rmsd>  (5) 
1.38

>  <cluster>  (5) 
1

$$$$

     RDKit          3D

 55 58  0  0  0  0  0  0  0  0999 V2000
  141.4570   72.1540  221.7560 O   0  0  0  0  0  0  0  0  0  0  0  0
  140.5010   72.2460  222.5750 C   0  0  0  0  0  0  0  0  0  0  0  0
  139.5980   73.3460  222.3280 N   0  0  0  0  0  0  0  0  0  0  0  0
  139.7960   74.2450  221.2480 C   0  0  0  0  0  0  0  0  0  0  0  0
  140.7570   75.3330  221.3160 C   0  0  0  0  0  0  0  0  0  0  0  0
  140.5070   76.1340  222.3330 O   0  0  0  0  0  0  0  0  0  0  0  0
  141.8580   75.6940  220.5590 N   0  0  0  0  0  0  0  0  0  0  0  0
  143.1130   74.8900  220.4700 C   0  0  0  0  0  0  0  0  0  0  0  0
  143.2510   74.3710  219.0790 C   0  0  0  0  0  0  0  0  0  0  0  0
  142.2260   75.0690  218.1730 C   0  0  0  0  0  0  0  0  0  0  0  0
  142.4530   76.5380  218.4000 C   0  0  0  0  0  0  0  0  0  0  0  0
  141.9530   76.9190  219.7480 C   0  0  1  0  0  0  0  0  0  0  0  0
  140.7850   77.8130  219.7320 C   0  0  0  0  0  0  0  0  0  0  0  0
  140.5750   78.4600  220.9270 O   0  0  0  0  0  0  0  0  0  0  0  0
  141.2890   79.1400  221.8250 C   0  0  0  0  0  0  0  0  0  0  0  0
  141.1540   78.7470  223.1770 C   0  0  0  0  0  0  0  0  0  0  0  0
  141.8400   79.3740  224.1840 C   0  0  0  0  0  0  0  0  0  0  0  0
  142.6970   80.4200  223.9280 C   0  0  0  0  0  0  0  0  0  0  0  0
  142.8500   80.8250  222.6220 C   0  0  0  0  0  0  0  0  0  0  0  0
  142.1560   80.1880  221.6160 C   0  0  0  0  0  0  0  0  0  0  0  0
  140.2940   71.3410  223.6860 C   0  0  0  0  0  0  0  0  0  0  0  0
  139.6090   70.1670  223.4680 C   0  0  0  0  0  0  0  0  0  0  0  0
  139.3900   69.2700  224.5160 C   0  0  0  0  0  0  0  0  0  0  0  0
  139.8940   69.6230  225.7710 C   0  0  0  0  0  0  0  0  0  0  0  0
  139.7110   68.7720  226.8650 C   0  0  0  0  0  0  0  0  0  0  0  0
  140.2140   69.1230  228.1170 C   0  0  0  0  0  0  0  0  0  0  0  0
  140.0390   68.3010  229.1790 F   0  0  0  0  0  0  0  0  0  0  0  0
  140.8980   70.3100  228.3030 C   0  0  0  0  0  0  0  0  0  0  0  0
  141.0670   71.1360  227.2100 C   0  0  0  0  0  0  0  0  0  0  0  0
  140.5810   70.8160  225.9600 C   0  0  0  0  0  0  0  0  0  0  0  0
  140.7580   71.6350  224.9130 N   0  0  0  0  0  0  0  0  0  0  0  0
  138.7960   73.4030  223.0250 H   0  0  0  0  0  0  0  0  0  0  0  0
  140.0892   73.6292  220.3850 H   0  0  0  0  0  0  0  0  0  0  0  0
  138.8382   74.7853  221.2197 H   0  0  0  0  0  0  0  0  0  0  0  0
  143.9773   75.5246  220.7157 H   0  0  0  0  0  0  0  0  0  0  0  0
  143.0718   74.0512  221.1805 H   0  0  0  0  0  0  0  0  0  0  0  0
  144.2669   74.5750  218.7097 H   0  0  0  0  0  0  0  0  0  0  0  0
  143.0713   73.2858  219.0710 H   0  0  0  0  0  0  0  0  0  0  0  0
  142.3993   74.8082  217.1185 H   0  0  0  0  0  0  0  0  0  0  0  0
  141.1936   74.7672  218.4033 H   0  0  0  0  0  0  0  0  0  0  0  0
  143.5291   76.7564  218.3337 H   0  0  0  0  0  0  0  0  0  0  0  0
  141.9120   77.1133  217.6343 H   0  0  0  0  0  0  0  0  0  0  0  0
  142.6725   77.5807  220.2525 H   0  0  0  0  0  0  0  0  0  0  0  0
  140.9360   78.5696  218.9479 H   0  0  0  0  0  0  0  0  0  0  0  0
  139.9004   77.1874  219.5421 H   0  0  0  0  0  0  0  0  0  0  0  0
  140.4795   77.9148  223.4271 H   0  0  0  0  0  0  0  0  0  0  0  0
  141.7025   79.0334  225.2209 H   0  0  0  0  0  0  0  0  0  0  0  0
  143.2433   80.9173  224.7430 H   0  0  0  0  0  0  0  0  0  0  0  0
  143.5268   81.6579  222.3806 H   0  0  0  0  0  0  0  0  0  0  0  0
  142.3040   80.5384  220.5839 H   0  0  0  0  0  0  0  0  0  0  0  0
  139.2315   69.9337  222.4615 H   0  0  0  0  0  0  0  0  0  0  0  0
  138.8449   68.3273  224.3605 H   0  0  0  0  0  0  0  0  0  0  0  0
  139.1689   67.8234  226.7377 H   0  0  0  0  0  0  0  0  0  0  0  0
  141.2949   70.5874  229.2907 H   0  0  0  0  0  0  0  0  0  0  0  0
  141.6092   72.0841  227.3410 H   0  0  0  0  0  0  0  0  0  0  0  0
  1  2  2  0
  2  3  1  0
  3  4  1  0
  4  5  1  0
  5  6  2  0
  5  7  1  0
  7  8  1  0
  8  9  1  0
  9 10  1  0
 10 11  1  0
 11 12  1  0
 12 13  1  0
 13 14  1  0
 14 15  1  0
 15 16  2  0
 16 17  1  0
 17 18  2  0
 18 19  1  0
 19 20  2  0
  2 21  1  0
 21 22  2  0
 22 23  1  0
 23 24  2  0
 24 25  1  0
 25 26  2  0
 26 27  1  0
 26 28  1  0
 28 29  2  0
 29 30  1  0
 30 31  2  0
 12  7  1  0
 20 15  1  0
 31 21  1  0
 30 24  1  0
  3 32  1  0
  4 33  1  0
  4 34  1  0
  8 35  1  0
  8 36  1  0
  9 37  1  0
  9 38  1  0
 10 39  1  0
 10 40  1  0
 11 41  1  0
 11 42  1  0
 12 43  1  1
 13 44  1  0
 13 45  1  0
 16 46  1  0
 17 47  1  0
 18 48  1  0
 19 49  1  0
 20 50  1  0
 22 51  1  0
 23 52  1  0
 25 53  1  0
 28 54  1  0
 29 55  1  0
M  END
>  <smiles>  (6) 
O=C(NCC(=O)N1CCCC[C@H]1COc1ccccc1)c1ccc2cc(F)ccc2n1

>  <score_type>  (6) 
oracle

>  <origin>  (6) 
autodockgpu

>  <m_score__min__energy>  (6) 
-8.7799999999999994

>  <m_primary>  (6) 
energy

>  <rmsd>  (6) 
2.2043543050940886

>  <m_score__min__rmsd>  (6) 
2.2043543050940886

>  <meeko>  (6) 
{"free_energy": -8.78, "intermolecular_energy": -10.87, "internal_energy": -1.61, "cluster_size": 28, "cluster_id": 1, "rank_in_cluster": 2}

>  <energy>  (6) 
-8.54

>  <cluster_rmsd>  (6) 
1.39

>  <cluster>  (6) 
1

$$$$

     RDKit          3D

 55 58  0  0  0  0  0  0  0  0999 V2000
  138.6090   74.6010  220.0240 O   0  0  0  0  0  0  0  0  0  0  0  0
  138.7420   75.2020  221.1270 C   0  0  0  0  0  0  0  0  0  0  0  0
  137.8720   74.7330  222.1790 N   0  0  0  0  0  0  0  0  0  0  0  0
  136.9400   73.6840  221.9650 C   0  0  0  0  0  0  0  0  0  0  0  0
  137.3490   72.2920  221.8870 C   0  0  0  0  0  0  0  0  0  0  0  0
  136.3100   71.4820  221.9210 O   0  0  0  0  0  0  0  0  0  0  0  0
  138.5720   71.6510  221.7810 N   0  0  0  0  0  0  0  0  0  0  0  0
  139.3200   71.4820  220.5000 C   0  0  0  0  0  0  0  0  0  0  0  0
  140.5770   72.2810  220.5700 C   0  0  0  0  0  0  0  0  0  0  0  0
  140.7950   72.7570  222.0140 C   0  0  0  0  0  0  0  0  0  0  0  0
  140.7100   71.5060  222.8450 C   0  0  0  0  0  0  0  0  0  0  0  0
  139.3000   71.0400  222.9060 C   0  0  1  0  0  0  0  0  0  0  0  0
  138.6860   71.1340  224.2390 C   0  0  0  0  0  0  0  0  0  0  0  0
  139.5950   71.0440  225.2670 O   0  0  0  0  0  0  0  0  0  0  0  0
  140.0460   70.1180  226.1140 C   0  0  0  0  0  0  0  0  0  0  0  0
  140.6070   70.5810  227.3260 C   0  0  0  0  0  0  0  0  0  0  0  0
  141.1000   69.7190  228.2710 C   0  0  0  0  0  0  0  0  0  0  0  0
  141.0740   68.3560  228.0840 C   0  0  0  0  0  0  0  0  0  0  0  0
  140.5350   67.8740  226.9150 C   0  0  0  0  0  0  0  0  0  0  0  0
  140.0410   68.7490  225.9710 C   0  0  0  0  0  0  0  0  0  0  0  0
  139.6820   76.2790  221.3550 C   0  0  0  0  0  0  0  0  0  0  0  0
  140.7940   76.3720  220.5500 C   0  0  0  0  0  0  0  0  0  0  0  0
  141.7230   77.3990  220.7420 C   0  0  0  0  0  0  0  0  0  0  0  0
  141.4640   78.3060  221.7730 C   0  0  0  0  0  0  0  0  0  0  0  0
  142.3510   79.3570  222.0210 C   0  0  0  0  0  0  0  0  0  0  0  0
  142.0940   80.2630  223.0500 C   0  0  0  0  0  0  0  0  0  0  0  0
  142.9510   81.2820  223.2920 F   0  0  0  0  0  0  0  0  0  0  0  0
  140.9660   80.1410  223.8410 C   0  0  0  0  0  0  0  0  0  0  0  0
  140.1040   79.0960  223.5790 C   0  0  0  0  0  0  0  0  0  0  0  0
  140.3320   78.1850  222.5690 C   0  0  0  0  0  0  0  0  0  0  0  0
  139.4790   77.1780  222.3350 N   0  0  0  0  0  0  0  0  0  0  0  0
  138.0040   75.2470  223.1020 H   0  0  0  0  0  0  0  0  0  0  0  0
  136.2136   73.7453  222.7888 H   0  0  0  0  0  0  0  0  0  0  0  0
  136.6025   73.8824  220.9370 H   0  0  0  0  0  0  0  0  0  0  0  0
  139.5646   70.4198  220.3518 H   0  0  0  0  0  0  0  0  0  0  0  0
  138.7029   71.8282  219.6578 H   0  0  0  0  0  0  0  0  0  0  0  0
  141.4270   71.6573  220.2562 H   0  0  0  0  0  0  0  0  0  0  0  0
  140.4983   73.1517  219.9025 H   0  0  0  0  0  0  0  0  0  0  0  0
  141.7830   73.2283  222.1222 H   0  0  0  0  0  0  0  0  0  0  0  0
  140.0550   73.5111  222.3200 H   0  0  0  0  0  0  0  0  0  0  0  0
  141.3347   70.7225  222.3913 H   0  0  0  0  0  0  0  0  0  0  0  0
  141.0673   71.7200  223.8631 H   0  0  0  0  0  0  0  0  0  0  0  0
  139.2493   69.9501  222.7664 H   0  0  0  0  0  0  0  0  0  0  0  0
  138.1669   72.1007  224.3163 H   0  0  0  0  0  0  0  0  0  0  0  0
  137.9969   70.2826  224.3397 H   0  0  0  0  0  0  0  0  0  0  0  0
  140.6491   71.6636  227.5163 H   0  0  0  0  0  0  0  0  0  0  0  0
  141.5261   70.1261  229.1998 H   0  0  0  0  0  0  0  0  0  0  0  0
  141.4729   67.6721  228.8477 H   0  0  0  0  0  0  0  0  0  0  0  0
  140.4978   66.7899  226.7326 H   0  0  0  0  0  0  0  0  0  0  0  0
  139.6172   68.3275  225.0476 H   0  0  0  0  0  0  0  0  0  0  0  0
  140.9531   75.6336  219.7503 H   0  0  0  0  0  0  0  0  0  0  0  0
  142.6184   77.4891  220.1094 H   0  0  0  0  0  0  0  0  0  0  0  0
  143.2541   79.4701  221.4032 H   0  0  0  0  0  0  0  0  0  0  0  0
  140.7626   80.8544  224.6532 H   0  0  0  0  0  0  0  0  0  0  0  0
  139.2018   78.9854  224.1985 H   0  0  0  0  0  0  0  0  0  0  0  0
  1  2  2  0
  2  3  1  0
  3  4  1  0
  4  5  1  0
  5  6  2  0
  5  7  1  0
  7  8  1  0
  8  9  1  0
  9 10  1  0
 10 11  1  0
 11 12  1  0
 12 13  1  0
 13 14  1  0
 14 15  1  0
 15 16  2  0
 16 17  1  0
 17 18  2  0
 18 19  1  0
 19 20  2  0
  2 21  1  0
 21 22  2  0
 22 23  1  0
 23 24  2  0
 24 25  1  0
 25 26  2  0
 26 27  1  0
 26 28  1  0
 28 29  2  0
 29 30  1  0
 30 31  2  0
 12  7  1  0
 20 15  1  0
 31 21  1  0
 30 24  1  0
  3 32  1  0
  4 33  1  0
  4 34  1  0
  8 35  1  0
  8 36  1  0
  9 37  1  0
  9 38  1  0
 10 39  1  0
 10 40  1  0
 11 41  1  0
 11 42  1  0
 12 43  1  6
 13 44  1  0
 13 45  1  0
 16 46  1  0
 17 47  1  0
 18 48  1  0
 19 49  1  0
 20 50  1  0
 22 51  1  0
 23 52  1  0
 25 53  1  0
 28 54  1  0
 29 55  1  0
M  END
>  <smiles>  (7) 
O=C(NCC(=O)N1CCCC[C@H]1COc1ccccc1)c1ccc2cc(F)ccc2n1

>  <score_type>  (7) 
oracle

>  <origin>  (7) 
autodockgpu

>  <m_score__min__energy>  (7) 
-8.7799999999999994

>  <m_primary>  (7) 
energy

>  <rmsd>  (7) 
7.698579767403648

>  <m_score__min__rmsd>  (7) 
7.698579767403648

>  <meeko>  (7) 
{"free_energy": -7.24, "intermolecular_energy": -9.33, "internal_energy": -2.04, "cluster_size": 2, "cluster_id": 3, "rank_in_cluster": 2}

>  <energy>  (7) 
-8.51

>  <cluster_rmsd>  (7) 
0.65

>  <cluster>  (7) 
1

$$$$

     RDKit          3D

 55 58  0  0  0  0  0  0  0  0999 V2000
  139.6880   71.1450  221.3870 O   0  0  0  0  0  0  0  0  0  0  0  0
  139.7710   71.5870  222.5670 C   0  0  0  0  0  0  0  0  0  0  0  0
  139.8240   73.0270  222.6700 N   0  0  0  0  0  0  0  0  0  0  0  0
  139.7940   73.8580  221.5210 C   0  0  0  0  0  0  0  0  0  0  0  0
  140.9040   73.9230  220.5850 C   0  0  0  0  0  0  0  0  0  0  0  0
  140.7130   73.1230  219.5550 O   0  0  0  0  0  0  0  0  0  0  0  0
  142.0900   74.6360  220.5450 N   0  0  0  0  0  0  0  0  0  0  0  0
  143.4410   74.0220  220.7190 C   0  0  0  0  0  0  0  0  0  0  0  0
  144.1870   74.1350  219.4330 C   0  0  0  0  0  0  0  0  0  0  0  0
  143.4270   75.0780  218.4870 C   0  0  0  0  0  0  0  0  0  0  0  0
  143.2150   76.3330  219.2880 C   0  0  0  0  0  0  0  0  0  0  0  0
  142.1890   76.0900  220.3370 C   0  0  1  0  0  0  0  0  0  0  0  0
  140.9350   76.8330  220.1440 C   0  0  0  0  0  0  0  0  0  0  0  0
  141.0190   78.1540  220.5150 O   0  0  0  0  0  0  0  0  0  0  0  0
  141.4950   78.8690  221.5350 C   0  0  0  0  0  0  0  0  0  0  0  0
  141.3670   78.3030  222.8250 C   0  0  0  0  0  0  0  0  0  0  0  0
  141.8210   78.9470  223.9460 C   0  0  0  0  0  0  0  0  0  0  0  0
  142.4260   80.1810  223.8710 C   0  0  0  0  0  0  0  0  0  0  0  0
  142.5660   80.7580  222.6300 C   0  0  0  0  0  0  0  0  0  0  0  0
  142.1060   80.1020  221.5080 C   0  0  0  0  0  0  0  0  0  0  0  0
  139.8120   70.7490  223.7460 C   0  0  0  0  0  0  0  0  0  0  0  0
  139.2810   69.4800  223.6790 C   0  0  0  0  0  0  0  0  0  0  0  0
  139.3030   68.6440  224.7980 C   0  0  0  0  0  0  0  0  0  0  0  0
  139.8810   69.1550  225.9630 C   0  0  0  0  0  0  0  0  0  0  0  0
  139.9370   68.3720  227.1200 C   0  0  0  0  0  0  0  0  0  0  0  0
  140.5140   68.8810  228.2830 C   0  0  0  0  0  0  0  0  0  0  0  0
  140.5700   68.1260  229.4050 F   0  0  0  0  0  0  0  0  0  0  0  0
  141.0400   70.1600  228.3170 C   0  0  0  0  0  0  0  0  0  0  0  0
  140.9740   70.9160  227.1640 C   0  0  0  0  0  0  0  0  0  0  0  0
  140.4090   70.4400  225.9990 C   0  0  0  0  0  0  0  0  0  0  0  0
  140.3570   71.1940  224.8920 N   0  0  0  0  0  0  0  0  0  0  0  0
  139.8870   73.3800  223.6720 H   0  0  0  0  0  0  0  0  0  0  0  0
  138.9172   73.5426  220.9364 H   0  0  0  0  0  0  0  0  0  0  0  0
  139.8089   74.8643  221.9650 H   0  0  0  0  0  0  0  0  0  0  0  0
  143.9888   74.5516  221.5124 H   0  0  0  0  0  0  0  0  0  0  0  0
  143.3381   72.9637  221.0007 H   0  0  0  0  0  0  0  0  0  0  0  0
  145.1920   74.5388  219.6253 H   0  0  0  0  0  0  0  0  0  0  0  0
  144.2762   73.1413  218.9698 H   0  0  0  0  0  0  0  0  0  0  0  0
  144.0237   75.2883  217.5871 H   0  0  0  0  0  0  0  0  0  0  0  0
  142.4793   74.6421  218.1378 H   0  0  0  0  0  0  0  0  0  0  0  0
  144.1620   76.6276  219.7638 H   0  0  0  0  0  0  0  0  0  0  0  0
  142.8712   77.1374  218.6211 H   0  0  0  0  0  0  0  0  0  0  0  0
  142.5061   76.5292  221.2944 H   0  0  0  0  0  0  0  0  0  0  0  0
  140.6630   76.7868  219.0792 H   0  0  0  0  0  0  0  0  0  0  0  0
  140.1773   76.3630  220.7882 H   0  0  0  0  0  0  0  0  0  0  0  0
  140.8894   77.3178  222.9313 H   0  0  0  0  0  0  0  0  0  0  0  0
  141.6992   78.4669  224.9282 H   0  0  0  0  0  0  0  0  0  0  0  0
  142.7869   80.6907  224.7765 H   0  0  0  0  0  0  0  0  0  0  0  0
  143.0452   81.7433  222.5329 H   0  0  0  0  0  0  0  0  0  0  0  0
  142.2351   80.5936  220.5325 H   0  0  0  0  0  0  0  0  0  0  0  0
  138.8368   69.1225  222.7384 H   0  0  0  0  0  0  0  0  0  0  0  0
  138.8835   67.6277  224.7635 H   0  0  0  0  0  0  0  0  0  0  0  0
  139.5249   67.3521  227.1128 H   0  0  0  0  0  0  0  0  0  0  0  0
  141.4963   70.5618  229.2337 H   0  0  0  0  0  0  0  0  0  0  0  0
  141.3871   71.9354  227.1745 H   0  0  0  0  0  0  0  0  0  0  0  0
  1  2  2  0
  2  3  1  0
  3  4  1  0
  4  5  1  0
  5  6  2  0
  5  7  1  0
  7  8  1  0
  8  9  1  0
  9 10  1  0
 10 11  1  0
 11 12  1  0
 12 13  1  0
 13 14  1  0
 14 15  1  0
 15 16  2  0
 16 17  1  0
 17 18  2  0
 18 19  1  0
 19 20  2  0
  2 21  1  0
 21 22  2  0
 22 23  1  0
 23 24  2  0
 24 25  1  0
 25 26  2  0
 26 27  1  0
 26 28  1  0
 28 29  2  0
 29 30  1  0
 30 31  2  0
 12  7  1  0
 20 15  1  0
 31 21  1  0
 30 24  1  0
  3 32  1  0
  4 33  1  0
  4 34  1  0
  8 35  1  0
  8 36  1  0
  9 37  1  0
  9 38  1  0
 10 39  1  0
 10 40  1  0
 11 41  1  0
 11 42  1  0
 12 43  1  1
 13 44  1  0
 13 45  1  0
 16 46  1  0
 17 47  1  0
 18 48  1  0
 19 49  1  0
 20 50  1  0
 22 51  1  0
 23 52  1  0
 25 53  1  0
 28 54  1  0
 29 55  1  0
M  END
>  <smiles>  (8) 
O=C(NCC(=O)N1CCCC[C@H]1COc1ccccc1)c1ccc2cc(F)ccc2n1

>  <score_type>  (8) 
oracle

>  <origin>  (8) 
autodockgpu

>  <m_score__min__energy>  (8) 
-8.7799999999999994

>  <m_primary>  (8) 
energy

>  <rmsd>  (8) 
2.4503240657367282

>  <m_score__min__rmsd>  (8) 
2.4503240657367282

>  <meeko>  (8) 
{"free_energy": -8.37, "intermolecular_energy": -10.46, "internal_energy": -1.63, "cluster_size": 28, "cluster_id": 1, "rank_in_cluster": 11}

>  <energy>  (8) 
-8.43

>  <cluster_rmsd>  (8) 
1.5

>  <cluster>  (8) 
1

$$$$

     RDKit          3D

 55 58  0  0  0  0  0  0  0  0999 V2000
  140.3760   71.8370  221.0860 O   0  0  0  0  0  0  0  0  0  0  0  0
  140.0960   72.2480  222.2470 C   0  0  0  0  0  0  0  0  0  0  0  0
  139.8080   73.6600  222.3350 N   0  0  0  0  0  0  0  0  0  0  0  0
  139.8530   74.5030  221.1950 C   0  0  0  0  0  0  0  0  0  0  0  0
  140.1870   75.9140  221.2900 C   0  0  0  0  0  0  0  0  0  0  0  0
  140.6970   76.2100  222.4690 O   0  0  0  0  0  0  0  0  0  0  0  0
  140.0900   76.9880  220.4220 N   0  0  0  0  0  0  0  0  0  0  0  0
  138.8000   77.6210  220.0150 C   0  0  0  0  0  0  0  0  0  0  0  0
  138.7530   79.0070  220.5640 C   0  0  0  0  0  0  0  0  0  0  0  0
  140.1400   79.3880  221.1000 C   0  0  0  0  0  0  0  0  0  0  0  0
  141.0790   79.1170  219.9560 C   0  0  0  0  0  0  0  0  0  0  0  0
  141.2340   77.6490  219.7730 C   0  0  1  0  0  0  0  0  0  0  0  0
  142.5770   77.1370  220.0840 C   0  0  0  0  0  0  0  0  0  0  0  0
  142.7790   75.8430  219.6650 O   0  0  0  0  0  0  0  0  0  0  0  0
  143.3990   74.7450  220.0990 C   0  0  0  0  0  0  0  0  0  0  0  0
  144.7650   74.8760  220.4390 C   0  0  0  0  0  0  0  0  0  0  0  0
  145.5010   73.8150  220.8980 C   0  0  0  0  0  0  0  0  0  0  0  0
  144.9450   72.5660  221.0500 C   0  0  0  0  0  0  0  0  0  0  0  0
  143.6180   72.4060  220.7280 C   0  0  0  0  0  0  0  0  0  0  0  0
  142.8850   73.4790  220.2670 C   0  0  0  0  0  0  0  0  0  0  0  0
  140.0560   71.4000  223.4200 C   0  0  0  0  0  0  0  0  0  0  0  0
  139.5570   70.1220  223.2990 C   0  0  0  0  0  0  0  0  0  0  0  0
  139.5030   69.2760  224.4100 C   0  0  0  0  0  0  0  0  0  0  0  0
  139.9730   69.7880  225.6230 C   0  0  0  0  0  0  0  0  0  0  0  0
  139.9480   68.9960  226.7740 C   0  0  0  0  0  0  0  0  0  0  0  0
  140.4180   69.5050  227.9850 C   0  0  0  0  0  0  0  0  0  0  0  0
  140.3950   68.7410  229.1020 F   0  0  0  0  0  0  0  0  0  0  0  0
  140.9130   70.7930  228.0720 C   0  0  0  0  0  0  0  0  0  0  0  0
  140.9270   71.5580  226.9230 C   0  0  0  0  0  0  0  0  0  0  0  0
  140.4710   71.0820  225.7120 C   0  0  0  0  0  0  0  0  0  0  0  0
  140.4950   71.8450  224.6100 N   0  0  0  0  0  0  0  0  0  0  0  0
  139.5680   73.9850  223.3200 H   0  0  0  0  0  0  0  0  0  0  0  0
  140.5918   74.0576  220.5125 H   0  0  0  0  0  0  0  0  0  0  0  0
  138.7958   74.5372  220.8929 H   0  0  0  0  0  0  0  0  0  0  0  0
  138.7346   77.6552  218.9175 H   0  0  0  0  0  0  0  0  0  0  0  0
  137.9552   77.0345  220.4054 H   0  0  0  0  0  0  0  0  0  0  0  0
  138.4616   79.7078  219.7678 H   0  0  0  0  0  0  0  0  0  0  0  0
  138.0168   79.0553  221.3799 H   0  0  0  0  0  0  0  0  0  0  0  0
  140.1685   80.4509  221.3818 H   0  0  0  0  0  0  0  0  0  0  0  0
  140.4082   78.8191  222.0024 H   0  0  0  0  0  0  0  0  0  0  0  0
  140.6711   79.5594  219.0352 H   0  0  0  0  0  0  0  0  0  0  0  0
  142.0603   79.5627  220.1761 H   0  0  0  0  0  0  0  0  0  0  0  0
  141.1901   77.3878  218.7054 H   0  0  0  0  0  0  0  0  0  0  0  0
  143.3189   77.7827  219.5915 H   0  0  0  0  0  0  0  0  0  0  0  0
  142.6813   77.1436  221.1790 H   0  0  0  0  0  0  0  0  0  0  0  0
  145.2507   75.8571  220.3321 H   0  0  0  0  0  0  0  0  0  0  0  0
  146.5609   73.9656  221.1507 H   0  0  0  0  0  0  0  0  0  0  0  0
  145.5443   71.7203  221.4183 H   0  0  0  0  0  0  0  0  0  0  0  0
  143.1407   71.4211  220.8382 H   0  0  0  0  0  0  0  0  0  0  0  0
  141.8263   73.3136  220.0186 H   0  0  0  0  0  0  0  0  0  0  0  0
  139.1989   69.7651  222.3221 H   0  0  0  0  0  0  0  0  0  0  0  0
  139.1080   68.2522  224.3334 H   0  0  0  0  0  0  0  0  0  0  0  0
  139.5569   67.9690  226.7252 H   0  0  0  0  0  0  0  0  0  0  0  0
  141.2838   71.1953  229.0263 H   0  0  0  0  0  0  0  0  0  0  0  0
  141.3164   72.5854  226.9755 H   0  0  0  0  0  0  0  0  0  0  0  0
  1  2  2  0
  2  3  1  0
  3  4  1  0
  4  5  1  0
  5  6  2  0
  5  7  1  0
  7  8  1  0
  8  9  1  0
  9 10  1  0
 10 11  1  0
 11 12  1  0
 12 13  1  0
 13 14  1  0
 14 15  1  0
 15 16  2  0
 16 17  1  0
 17 18  2  0
 18 19  1  0
 19 20  2  0
  2 21  1  0
 21 22  2  0
 22 23  1  0
 23 24  2  0
 24 25  1  0
 25 26  2  0
 26 27  1  0
 26 28  1  0
 28 29  2  0
 29 30  1  0
 30 31  2  0
 12  7  1  0
 20 15  1  0
 31 21  1  0
 30 24  1  0
  3 32  1  0
  4 33  1  0
  4 34  1  0
  8 35  1  0
  8 36  1  0
  9 37  1  0
  9 38  1  0
 10 39  1  0
 10 40  1  0
 11 41  1  0
 11 42  1  0
 12 43  1  6
 13 44  1  0
 13 45  1  0
 16 46  1  0
 17 47  1  0
 18 48  1  0
 19 49  1  0
 20 50  1  0
 22 51  1  0
 23 52  1  0
 25 53  1  0
 28 54  1  0
 29 55  1  0
M  END
>  <smiles>  (9) 
O=C(NCC(=O)N1CCCC[C@H]1COc1ccccc1)c1ccc2cc(F)ccc2n1

>  <score_type>  (9) 
oracle

>  <origin>  (9) 
autodockgpu

>  <m_score__min__energy>  (9) 
-8.7799999999999994

>  <m_primary>  (9) 
energy

>  <rmsd>  (9) 
2.223911540476635

>  <m_score__min__rmsd>  (9) 
2.223911540476635

>  <meeko>  (9) 
{"free_energy": -7.59, "intermolecular_energy": -9.68, "internal_energy": -2.18, "cluster_size": 16, "cluster_id": 2, "rank_in_cluster": 10}

>  <energy>  (9) 
-8.43

>  <cluster_rmsd>  (9) 
1.41

>  <cluster>  (9) 
1

$$$$

     RDKit          3D

 55 58  0  0  0  0  0  0  0  0999 V2000
  141.4740   72.6830  221.9680 O   0  0  0  0  0  0  0  0  0  0  0  0
  140.4310   72.6130  222.6760 C   0  0  0  0  0  0  0  0  0  0  0  0
  139.4080   73.5750  222.3410 N   0  0  0  0  0  0  0  0  0  0  0  0
  139.5870   74.5220  221.3000 C   0  0  0  0  0  0  0  0  0  0  0  0
  140.3340   75.7530  221.4960 C   0  0  0  0  0  0  0  0  0  0  0  0
  141.3440   75.5770  222.3230 O   0  0  0  0  0  0  0  0  0  0  0  0
  140.2150   77.0420  221.0030 N   0  0  0  0  0  0  0  0  0  0  0  0
  138.9790   77.8720  221.1200 C   0  0  0  0  0  0  0  0  0  0  0  0
  139.2640   79.0300  222.0150 C   0  0  0  0  0  0  0  0  0  0  0  0
  140.7770   79.1170  222.2660 C   0  0  0  0  0  0  0  0  0  0  0  0
  141.3920   79.1220  220.8930 C   0  0  0  0  0  0  0  0  0  0  0  0
  141.2780   77.7680  220.2890 C   0  0  1  0  0  0  0  0  0  0  0  0
  142.5620   77.0770  220.1010 C   0  0  0  0  0  0  0  0  0  0  0  0
  142.4250   75.7660  219.7080 O   0  0  0  0  0  0  0  0  0  0  0  0
  143.0950   74.6200  219.8300 C   0  0  0  0  0  0  0  0  0  0  0  0
  144.3610   74.6840  220.4570 C   0  0  0  0  0  0  0  0  0  0  0  0
  145.1360   73.5680  220.6370 C   0  0  0  0  0  0  0  0  0  0  0  0
  144.7190   72.3270  220.2130 C   0  0  0  0  0  0  0  0  0  0  0  0
  143.4920   72.2310  219.5990 C   0  0  0  0  0  0  0  0  0  0  0  0
  142.7200   73.3590  219.4230 C   0  0  0  0  0  0  0  0  0  0  0  0
  140.2410   71.6580  223.7480 C   0  0  0  0  0  0  0  0  0  0  0  0
  139.5570   70.4920  223.4850 C   0  0  0  0  0  0  0  0  0  0  0  0
  139.3540   69.5480  224.4950 C   0  0  0  0  0  0  0  0  0  0  0  0
  139.8730   69.8460  225.7580 C   0  0  0  0  0  0  0  0  0  0  0  0
  139.7060   68.9460  226.8140 C   0  0  0  0  0  0  0  0  0  0  0  0
  140.2240   69.2420  228.0750 C   0  0  0  0  0  0  0  0  0  0  0  0
  140.0650   68.3730  229.1000 F   0  0  0  0  0  0  0  0  0  0  0  0
  140.9070   70.4230  228.3060 C   0  0  0  0  0  0  0  0  0  0  0  0
  141.0590   71.2980  227.2490 C   0  0  0  0  0  0  0  0  0  0  0  0
  140.5590   71.0320  225.9920 C   0  0  0  0  0  0  0  0  0  0  0  0
  140.7200   71.8980  224.9810 N   0  0  0  0  0  0  0  0  0  0  0  0
  138.5350   73.4960  222.9450 H   0  0  0  0  0  0  0  0  0  0  0  0
  140.0871   73.9863  220.4797 H   0  0  0  0  0  0  0  0  0  0  0  0
  138.5633   74.8957  221.1506 H   0  0  0  0  0  0  0  0  0  0  0  0
  138.6826   78.2369  220.1255 H   0  0  0  0  0  0  0  0  0  0  0  0
  138.1600   77.2680  221.5377 H   0  0  0  0  0  0  0  0  0  0  0  0
  138.9168   79.9580  221.5372 H   0  0  0  0  0  0  0  0  0  0  0  0
  138.7388   78.8942  222.9719 H   0  0  0  0  0  0  0  0  0  0  0  0
  141.0280   80.0414  222.8069 H   0  0  0  0  0  0  0  0  0  0  0  0
  141.1450   78.2847  222.8839 H   0  0  0  0  0  0  0  0  0  0  0  0
  140.8658   79.8509  220.2591 H   0  0  0  0  0  0  0  0  0  0  0  0
  142.4538   79.3988  220.9700 H   0  0  0  0  0  0  0  0  0  0  0  0
  140.9640   77.8405  219.2373 H   0  0  0  0  0  0  0  0  0  0  0  0
  143.1371   77.6132  219.3317 H   0  0  0  0  0  0  0  0  0  0  0  0
  143.0734   77.0721  221.0749 H   0  0  0  0  0  0  0  0  0  0  0  0
  144.7341   75.6567  220.8101 H   0  0  0  0  0  0  0  0  0  0  0  0
  146.1136   73.6665  221.1316 H   0  0  0  0  0  0  0  0  0  0  0  0
  145.3489   71.4374  220.3609 H   0  0  0  0  0  0  0  0  0  0  0  0
  143.1270   71.2543  219.2486 H   0  0  0  0  0  0  0  0  0  0  0  0
  141.7447   73.2451  218.9272 H   0  0  0  0  0  0  0  0  0  0  0  0
  139.1681   70.3026  222.4736 H   0  0  0  0  0  0  0  0  0  0  0  0
  138.8096   68.6114  224.3044 H   0  0  0  0  0  0  0  0  0  0  0  0
  139.1650   68.0023  226.6505 H   0  0  0  0  0  0  0  0  0  0  0  0
  141.3158   70.6572  229.3000 H   0  0  0  0  0  0  0  0  0  0  0  0
  141.5988   72.2418  227.4158 H   0  0  0  0  0  0  0  0  0  0  0  0
  1  2  2  0
  2  3  1  0
  3  4  1  0
  4  5  1  0
  5  6  2  0
  5  7  1  0
  7  8  1  0
  8  9  1  0
  9 10  1  0
 10 11  1  0
 11 12  1  0
 12 13  1  0
 13 14  1  0
 14 15  1  0
 15 16  2  0
 16 17  1  0
 17 18  2  0
 18 19  1  0
 19 20  2  0
  2 21  1  0
 21 22  2  0
 22 23  1  0
 23 24  2  0
 24 25  1  0
 25 26  2  0
 26 27  1  0
 26 28  1  0
 28 29  2  0
 29 30  1  0
 30 31  2  0
 12  7  1  0
 20 15  1  0
 31 21  1  0
 30 24  1  0
  3 32  1  0
  4 33  1  0
  4 34  1  0
  8 35  1  0
  8 36  1  0
  9 37  1  0
  9 38  1  0
 10 39  1  0
 10 40  1  0
 11 41  1  0
 11 42  1  0
 12 43  1  6
 13 44  1  0
 13 45  1  0
 16 46  1  0
 17 47  1  0
 18 48  1  0
 19 49  1  0
 20 50  1  0
 22 51  1  0
 23 52  1  0
 25 53  1  0
 28 54  1  0
 29 55  1  0
M  END
>  <smiles>  (10) 
O=C(NCC(=O)N1CCCC[C@H]1COc1ccccc1)c1ccc2cc(F)ccc2n1

>  <score_type>  (10) 
oracle

>  <origin>  (10) 
autodockgpu

>  <m_score__min__energy>  (10) 
-8.7799999999999994

>  <m_primary>  (10) 
energy

>  <rmsd>  (10) 
2.5696621097372483

>  <m_score__min__rmsd>  (10) 
2.5696621097372483

>  <meeko>  (10) 
{"free_energy": -8.07, "intermolecular_energy": -10.15, "internal_energy": -1.81, "cluster_size": 16, "cluster_id": 2, "rank_in_cluster": 3}

>  <energy>  (10) 
-8.42

>  <cluster_rmsd>  (10) 
1.49

>  <cluster>  (10) 
1

$$$$

     RDKit          3D

 55 58  0  0  0  0  0  0  0  0999 V2000
  138.4980   72.3600  222.4000 O   0  0  0  0  0  0  0  0  0  0  0  0
  139.5840   71.8740  222.8230 C   0  0  0  0  0  0  0  0  0  0  0  0
  140.7630   72.3320  222.1250 N   0  0  0  0  0  0  0  0  0  0  0  0
  140.6810   73.2480  221.0450 C   0  0  0  0  0  0  0  0  0  0  0  0
  141.2410   74.5870  221.1230 C   0  0  0  0  0  0  0  0  0  0  0  0
  140.5730   75.3390  221.9750 O   0  0  0  0  0  0  0  0  0  0  0  0
  142.3080   75.2230  220.5120 N   0  0  0  0  0  0  0  0  0  0  0  0
  143.6970   74.6770  220.4730 C   0  0  0  0  0  0  0  0  0  0  0  0
  144.0410   74.3430  219.0610 C   0  0  0  0  0  0  0  0  0  0  0  0
  142.9740   74.9320  218.1260 C   0  0  0  0  0  0  0  0  0  0  0  0
  142.8960   76.3850  218.5040 C   0  0  0  0  0  0  0  0  0  0  0  0
  142.2280   76.5230  219.8260 C   0  0  1  0  0  0  0  0  0  0  0  0
  140.9150   77.1830  219.7770 C   0  0  0  0  0  0  0  0  0  0  0  0
  140.6200   77.9000  220.9130 O   0  0  0  0  0  0  0  0  0  0  0  0
  141.2630   78.6640  221.7980 C   0  0  0  0  0  0  0  0  0  0  0  0
  141.1820   78.2730  223.1540 C   0  0  0  0  0  0  0  0  0  0  0  0
  141.8050   78.9810  224.1490 C   0  0  0  0  0  0  0  0  0  0  0  0
  142.5400   80.1120  223.8750 C   0  0  0  0  0  0  0  0  0  0  0  0
  142.6370   80.5180  222.5650 C   0  0  0  0  0  0  0  0  0  0  0  0
  142.0080   79.7980  221.5710 C   0  0  0  0  0  0  0  0  0  0  0  0
  139.6790   70.9320  223.9180 C   0  0  0  0  0  0  0  0  0  0  0  0
  139.1430   69.6740  223.7610 C   0  0  0  0  0  0  0  0  0  0  0  0
  139.2160   68.7390  224.7970 C   0  0  0  0  0  0  0  0  0  0  0  0
  139.8490   69.1440  225.9750 C   0  0  0  0  0  0  0  0  0  0  0  0
  139.9570   68.2590  227.0520 C   0  0  0  0  0  0  0  0  0  0  0  0
  140.5900   68.6620  228.2280 C   0  0  0  0  0  0  0  0  0  0  0  0
  140.6960   67.8080  229.2730 F   0  0  0  0  0  0  0  0  0  0  0  0
  141.1180   69.9330  228.3540 C   0  0  0  0  0  0  0  0  0  0  0  0
  140.9990   70.7910  227.2790 C   0  0  0  0  0  0  0  0  0  0  0  0
  140.3800   70.4210  226.1030 C   0  0  0  0  0  0  0  0  0  0  0  0
  140.2780   71.2730  225.0730 N   0  0  0  0  0  0  0  0  0  0  0  0
  141.6670   71.9170  222.5010 H   0  0  0  0  0  0  0  0  0  0  0  0
  141.1708   72.7594  220.1898 H   0  0  0  0  0  0  0  0  0  0  0  0
  139.6012   73.4530  220.9993 H   0  0  0  0  0  0  0  0  0  0  0  0
  144.4013   75.4296  220.8573 H   0  0  0  0  0  0  0  0  0  0  0  0
  143.7620   73.7740  221.0978 H   0  0  0  0  0  0  0  0  0  0  0  0
  145.0239   74.7691  218.8115 H   0  0  0  0  0  0  0  0  0  0  0  0
  144.0758   73.2504  218.9386 H   0  0  0  0  0  0  0  0  0  0  0  0
  143.2756   74.8204  217.0741 H   0  0  0  0  0  0  0  0  0  0  0  0
  142.0043   74.4227  218.2277 H   0  0  0  0  0  0  0  0  0  0  0  0
  143.9118   76.8030  218.5620 H   0  0  0  0  0  0  0  0  0  0  0  0
  142.3161   76.9290  217.7438 H   0  0  0  0  0  0  0  0  0  0  0  0
  142.7647   77.2491  220.4543 H   0  0  0  0  0  0  0  0  0  0  0  0
  140.9023   77.8702  218.9181 H   0  0  0  0  0  0  0  0  0  0  0  0
  140.1571   76.3908  219.6878 H   0  0  0  0  0  0  0  0  0  0  0  0
  140.6030   77.3758  223.4182 H   0  0  0  0  0  0  0  0  0  0  0  0
  141.7154   78.6374  225.1901 H   0  0  0  0  0  0  0  0  0  0  0  0
  143.0352   80.6744  224.6803 H   0  0  0  0  0  0  0  0  0  0  0  0
  143.2165   81.4174  222.3096 H   0  0  0  0  0  0  0  0  0  0  0  0
  142.1080   80.1518  220.5343 H   0  0  0  0  0  0  0  0  0  0  0  0
  138.6539   69.4028  222.8138 H   0  0  0  0  0  0  0  0  0  0  0  0
  138.7938   67.7289  224.6899 H   0  0  0  0  0  0  0  0  0  0  0  0
  139.5422   67.2434  226.9719 H   0  0  0  0  0  0  0  0  0  0  0  0
  141.6171   70.2508  229.2813 H   0  0  0  0  0  0  0  0  0  0  0  0
  141.4128   71.8067  227.3633 H   0  0  0  0  0  0  0  0  0  0  0  0
  1  2  2  0
  2  3  1  0
  3  4  1  0
  4  5  1  0
  5  6  2  0
  5  7  1  0
  7  8  1  0
  8  9  1  0
  9 10  1  0
 10 11  1  0
 11 12  1  0
 12 13  1  0
 13 14  1  0
 14 15  1  0
 15 16  2  0
 16 17  1  0
 17 18  2  0
 18 19  1  0
 19 20  2  0
  2 21  1  0
 21 22  2  0
 22 23  1  0
 23 24  2  0
 24 25  1  0
 25 26  2  0
 26 27  1  0
 26 28  1  0
 28 29  2  0
 29 30  1  0
 30 31  2  0
 12  7  1  0
 20 15  1  0
 31 21  1  0
 30 24  1  0
  3 32  1  0
  4 33  1  0
  4 34  1  0
  8 35  1  0
  8 36  1  0
  9 37  1  0
  9 38  1  0
 10 39  1  0
 10 40  1  0
 11 41  1  0
 11 42  1  0
 12 43  1  1
 13 44  1  0
 13 45  1  0
 16 46  1  0
 17 47  1  0
 18 48  1  0
 19 49  1  0
 20 50  1  0
 22 51  1  0
 23 52  1  0
 25 53  1  0
 28 54  1  0
 29 55  1  0
M  END
>  <smiles>  (11) 
O=C(NCC(=O)N1CCCC[C@H]1COc1ccccc1)c1ccc2cc(F)ccc2n1

>  <score_type>  (11) 
oracle

>  <origin>  (11) 
autodockgpu

>  <m_score__min__energy>  (11) 
-8.7799999999999994

>  <m_primary>  (11) 
energy

>  <rmsd>  (11) 
2.4779998050698175

>  <m_score__min__rmsd>  (11) 
2.4779998050698175

>  <meeko>  (11) 
{"free_energy": -8.61, "intermolecular_energy": -10.7, "internal_energy": -1.46, "cluster_size": 28, "cluster_id": 1, "rank_in_cluster": 4}

>  <energy>  (11) 
-8.37

>  <cluster_rmsd>  (11) 
1.46

>  <cluster>  (11) 
1

$$$$

     RDKit          3D

 55 58  0  0  0  0  0  0  0  0999 V2000
  139.5120   71.2740  221.1880 O   0  0  0  0  0  0  0  0  0  0  0  0
  139.6110   71.6890  222.3760 C   0  0  0  0  0  0  0  0  0  0  0  0
  139.6310   73.1270  222.5150 N   0  0  0  0  0  0  0  0  0  0  0  0
  139.5540   73.9860  221.3880 C   0  0  0  0  0  0  0  0  0  0  0  0
  139.1710   75.3820  221.5060 C   0  0  0  0  0  0  0  0  0  0  0  0
  139.3710   75.8340  222.7280 O   0  0  0  0  0  0  0  0  0  0  0  0
  138.6580   76.3190  220.6260 N   0  0  0  0  0  0  0  0  0  0  0  0
  137.2000   76.5890  220.4470 C   0  0  0  0  0  0  0  0  0  0  0  0
  136.9060   77.9690  220.9310 C   0  0  0  0  0  0  0  0  0  0  0  0
  138.2270   78.7140  221.1710 C   0  0  0  0  0  0  0  0  0  0  0  0
  138.9870   78.5690  219.8820 C   0  0  0  0  0  0  0  0  0  0  0  0
  139.4680   77.1700  219.7390 C   0  0  1  0  0  0  0  0  0  0  0  0
  140.9300   77.0200  219.8080 C   0  0  0  0  0  0  0  0  0  0  0  0
  141.5690   78.1260  220.3180 O   0  0  0  0  0  0  0  0  0  0  0  0
  141.7060   78.7360  221.4960 C   0  0  0  0  0  0  0  0  0  0  0  0
  142.1810   80.0680  221.4720 C   0  0  0  0  0  0  0  0  0  0  0  0
  142.3580   80.7930  222.6220 C   0  0  0  0  0  0  0  0  0  0  0  0
  142.0830   80.2580  223.8590 C   0  0  0  0  0  0  0  0  0  0  0  0
  141.6190   78.9640  223.9160 C   0  0  0  0  0  0  0  0  0  0  0  0
  141.4440   78.2430  222.7540 C   0  0  0  0  0  0  0  0  0  0  0  0
  139.7000   70.8230  223.5330 C   0  0  0  0  0  0  0  0  0  0  0  0
  139.2110   69.5400  223.4410 C   0  0  0  0  0  0  0  0  0  0  0  0
  139.2800   68.6760  224.5380 C   0  0  0  0  0  0  0  0  0  0  0  0
  139.8600   69.1770  225.7070 C   0  0  0  0  0  0  0  0  0  0  0  0
  139.9610   68.3680  226.8410 C   0  0  0  0  0  0  0  0  0  0  0  0
  140.5410   68.8670  228.0080 C   0  0  0  0  0  0  0  0  0  0  0  0
  140.6410   68.0860  229.1090 F   0  0  0  0  0  0  0  0  0  0  0  0
  141.0230   70.1610  228.0670 C   0  0  0  0  0  0  0  0  0  0  0  0
  140.9120   70.9440  226.9350 C   0  0  0  0  0  0  0  0  0  0  0  0
  140.3450   70.4780  225.7680 C   0  0  0  0  0  0  0  0  0  0  0  0
  140.2490   71.2580  224.6810 N   0  0  0  0  0  0  0  0  0  0  0  0
  139.7090   73.4560  223.5240 H   0  0  0  0  0  0  0  0  0  0  0  0
  140.5530   73.9792  220.9276 H   0  0  0  0  0  0  0  0  0  0  0  0
  138.7048   73.5610  220.8328 H   0  0  0  0  0  0  0  0  0  0  0  0
  136.9362   76.5062  219.3823 H   0  0  0  0  0  0  0  0  0  0  0  0
  136.6105   75.8576  221.0193 H   0  0  0  0  0  0  0  0  0  0  0  0
  136.3137   78.5053  220.1750 H   0  0  0  0  0  0  0  0  0  0  0  0
  136.3361   77.9168  221.8704 H   0  0  0  0  0  0  0  0  0  0  0  0
  138.0392   79.7748  221.3933 H   0  0  0  0  0  0  0  0  0  0  0  0
  138.7829   78.3092  222.0295 H   0  0  0  0  0  0  0  0  0  0  0  0
  138.3263   78.8166  219.0381 H   0  0  0  0  0  0  0  0  0  0  0  0
  139.8493   79.2519  219.8886 H   0  0  0  0  0  0  0  0  0  0  0  0
  139.3031   76.8104  218.7126 H   0  0  0  0  0  0  0  0  0  0  0  0
  141.1621   76.1567  220.4490 H   0  0  0  0  0  0  0  0  0  0  0  0
  141.2913   76.8822  218.7782 H   0  0  0  0  0  0  0  0  0  0  0  0
  142.4148   80.5351  220.5039 H   0  0  0  0  0  0  0  0  0  0  0  0
  142.7285   81.8265  222.5539 H   0  0  0  0  0  0  0  0  0  0  0  0
  142.2298   80.8476  224.7760 H   0  0  0  0  0  0  0  0  0  0  0  0
  141.3877   78.5048  224.8885 H   0  0  0  0  0  0  0  0  0  0  0  0
  141.0724   77.2110  222.8374 H   0  0  0  0  0  0  0  0  0  0  0  0
  138.7631   69.1921  222.4985 H   0  0  0  0  0  0  0  0  0  0  0  0
  138.8948   67.6471  224.4836 H   0  0  0  0  0  0  0  0  0  0  0  0
  139.5826   67.3355  226.8142 H   0  0  0  0  0  0  0  0  0  0  0  0
  141.4805   70.5547  228.9866 H   0  0  0  0  0  0  0  0  0  0  0  0
  141.2896   71.9767  226.9655 H   0  0  0  0  0  0  0  0  0  0  0  0
  1  2  2  0
  2  3  1  0
  3  4  1  0
  4  5  1  0
  5  6  2  0
  5  7  1  0
  7  8  1  0
  8  9  1  0
  9 10  1  0
 10 11  1  0
 11 12  1  0
 12 13  1  0
 13 14  1  0
 14 15  1  0
 15 16  2  0
 16 17  1  0
 17 18  2  0
 18 19  1  0
 19 20  2  0
  2 21  1  0
 21 22  2  0
 22 23  1  0
 23 24  2  0
 24 25  1  0
 25 26  2  0
 26 27  1  0
 26 28  1  0
 28 29  2  0
 29 30  1  0
 30 31  2  0
 12  7  1  0
 20 15  1  0
 31 21  1  0
 30 24  1  0
  3 32  1  0
  4 33  1  0
  4 34  1  0
  8 35  1  0
  8 36  1  0
  9 37  1  0
  9 38  1  0
 10 39  1  0
 10 40  1  0
 11 41  1  0
 11 42  1  0
 12 43  1  6
 13 44  1  0
 13 45  1  0
 16 46  1  0
 17 47  1  0
 18 48  1  0
 19 49  1  0
 20 50  1  0
 22 51  1  0
 23 52  1  0
 25 53  1  0
 28 54  1  0
 29 55  1  0
M  END
>  <smiles>  (12) 
O=C(NCC(=O)N1CCCC[C@H]1COc1ccccc1)c1ccc2cc(F)ccc2n1

>  <score_type>  (12) 
oracle

>  <origin>  (12) 
autodockgpu

>  <m_score__min__energy>  (12) 
-8.7799999999999994

>  <m_primary>  (12) 
energy

>  <rmsd>  (12) 
2.19147376092968

>  <m_score__min__rmsd>  (12) 
2.19147376092968

>  <meeko>  (12) 
{"free_energy": -7.56, "intermolecular_energy": -9.65, "internal_energy": -2.11, "cluster_size": 1, "cluster_id": 4, "rank_in_cluster": 1}

>  <energy>  (12) 
-8.31

>  <cluster_rmsd>  (12) 
1.5

>  <cluster>  (12) 
1

$$$$

     RDKit          3D

 55 58  0  0  0  0  0  0  0  0999 V2000
  140.5690   71.0050  221.6430 O   0  0  0  0  0  0  0  0  0  0  0  0
  139.9890   71.5110  222.6440 C   0  0  0  0  0  0  0  0  0  0  0  0
  139.1290   72.6300  222.3420 N   0  0  0  0  0  0  0  0  0  0  0  0
  138.9700   73.1130  221.0170 C   0  0  0  0  0  0  0  0  0  0  0  0
  140.0620   73.7330  220.2850 C   0  0  0  0  0  0  0  0  0  0  0  0
  139.7220   73.9880  219.0380 O   0  0  0  0  0  0  0  0  0  0  0  0
  141.3520   74.1100  220.6160 N   0  0  0  0  0  0  0  0  0  0  0  0
  142.4790   73.1510  220.8160 C   0  0  0  0  0  0  0  0  0  0  0  0
  143.4830   73.3600  219.7340 C   0  0  0  0  0  0  0  0  0  0  0  0
  143.1510   74.6540  218.9770 C   0  0  0  0  0  0  0  0  0  0  0  0
  143.0420   75.7050  220.0470 C   0  0  0  0  0  0  0  0  0  0  0  0
  141.7930   75.4990  220.8260 C   0  0  1  0  0  0  0  0  0  0  0  0
  140.7890   76.5610  220.6570 C   0  0  0  0  0  0  0  0  0  0  0  0
  140.7020   77.4080  221.7360 O   0  0  0  0  0  0  0  0  0  0  0  0
  141.3100   78.5060  222.1860 C   0  0  0  0  0  0  0  0  0  0  0  0
  141.5350   78.5850  223.5800 C   0  0  0  0  0  0  0  0  0  0  0  0
  142.1530   79.6660  224.1530 C   0  0  0  0  0  0  0  0  0  0  0  0
  142.5860   80.7310  223.3970 C   0  0  0  0  0  0  0  0  0  0  0  0
  142.3820   80.6840  222.0370 C   0  0  0  0  0  0  0  0  0  0  0  0
  141.7600   79.5920  221.4700 C   0  0  0  0  0  0  0  0  0  0  0  0
  140.1500   71.0340  224.0020 C   0  0  0  0  0  0  0  0  0  0  0  0
  140.7020   71.8760  224.9410 C   0  0  0  0  0  0  0  0  0  0  0  0
  140.8730   71.4490  226.2610 C   0  0  0  0  0  0  0  0  0  0  0  0
  140.4610   70.1490  226.5670 C   0  0  0  0  0  0  0  0  0  0  0  0
  140.6030   69.6570  227.8670 C   0  0  0  0  0  0  0  0  0  0  0  0
  140.1920   68.3600  228.1740 C   0  0  0  0  0  0  0  0  0  0  0  0
  140.3280   67.8800  229.4330 F   0  0  0  0  0  0  0  0  0  0  0  0
  139.6410   67.5400  227.2070 C   0  0  0  0  0  0  0  0  0  0  0  0
  139.5110   68.0450  225.9290 C   0  0  0  0  0  0  0  0  0  0  0  0
  139.9080   69.3230  225.5960 C   0  0  0  0  0  0  0  0  0  0  0  0
  139.7710   69.7910  224.3480 N   0  0  0  0  0  0  0  0  0  0  0  0
  138.6450   73.0390  223.1970 H   0  0  0  0  0  0  0  0  0  0  0  0
  138.6443   72.2531  220.4133 H   0  0  0  0  0  0  0  0  0  0  0  0
  138.2808   73.9581  221.1614 H   0  0  0  0  0  0  0  0  0  0  0  0
  142.9475   73.3296  221.7951 H   0  0  0  0  0  0  0  0  0  0  0  0
  142.1022   72.1181  220.7828 H   0  0  0  0  0  0  0  0  0  0  0  0
  144.4875   73.4397  220.1752 H   0  0  0  0  0  0  0  0  0  0  0  0
  143.4572   72.5087  219.0378 H   0  0  0  0  0  0  0  0  0  0  0  0
  143.9530   74.9048  218.2672 H   0  0  0  0  0  0  0  0  0  0  0  0
  142.2278   74.5650  218.3855 H   0  0  0  0  0  0  0  0  0  0  0  0
  143.9090   75.6328  220.7202 H   0  0  0  0  0  0  0  0  0  0  0  0
  143.0196   76.7003  219.5791 H   0  0  0  0  0  0  0  0  0  0  0  0
  141.9881   75.6132  221.9025 H   0  0  0  0  0  0  0  0  0  0  0  0
  141.0547   77.1537  219.7693 H   0  0  0  0  0  0  0  0  0  0  0  0
  139.8110   76.0688  220.5515 H   0  0  0  0  0  0  0  0  0  0  0  0
  141.2047   77.7555  224.2226 H   0  0  0  0  0  0  0  0  0  0  0  0
  142.3063   79.6825  225.2421 H   0  0  0  0  0  0  0  0  0  0  0  0
  143.0806   81.5944  223.8659 H   0  0  0  0  0  0  0  0  0  0  0  0
  142.7153   81.5180  221.4019 H   0  0  0  0  0  0  0  0  0  0  0  0
  141.6146   79.5884  220.3797 H   0  0  0  0  0  0  0  0  0  0  0  0
  141.0104   72.8912  224.6507 H   0  0  0  0  0  0  0  0  0  0  0  0
  141.3124   72.1070  227.0251 H   0  0  0  0  0  0  0  0  0  0  0  0
  141.0399   70.2940  228.6501 H   0  0  0  0  0  0  0  0  0  0  0  0
  139.3164   66.5171  227.4485 H   0  0  0  0  0  0  0  0  0  0  0  0
  139.0750   67.4049  225.1479 H   0  0  0  0  0  0  0  0  0  0  0  0
  1  2  2  0
  2  3  1  0
  3  4  1  0
  4  5  1  0
  5  6  2  0
  5  7  1  0
  7  8  1  0
  8  9  1  0
  9 10  1  0
 10 11  1  0
 11 12  1  0
 12 13  1  0
 13 14  1  0
 14 15  1  0
 15 16  2  0
 16 17  1  0
 17 18  2  0
 18 19  1  0
 19 20  2  0
  2 21  1  0
 21 22  2  0
 22 23  1  0
 23 24  2  0
 24 25  1  0
 25 26  2  0
 26 27  1  0
 26 28  1  0
 28 29  2  0
 29 30  1  0
 30 31  2  0
 12  7  1  0
 20 15  1  0
 31 21  1  0
 30 24  1  0
  3 32  1  0
  4 33  1  0
  4 34  1  0
  8 35  1  0
  8 36  1  0
  9 37  1  0
  9 38  1  0
 10 39  1  0
 10 40  1  0
 11 41  1  0
 11 42  1  0
 12 43  1  1
 13 44  1  0
 13 45  1  0
 16 46  1  0
 17 47  1  0
 18 48  1  0
 19 49  1  0
 20 50  1  0
 22 51  1  0
 23 52  1  0
 25 53  1  0
 28 54  1  0
 29 55  1  0
M  END
>  <smiles>  (13) 
O=C(NCC(=O)N1CCCC[C@H]1COc1ccccc1)c1ccc2cc(F)ccc2n1

>  <score_type>  (13) 
oracle

>  <origin>  (13) 
autodockgpu

>  <m_score__min__energy>  (13) 
-8.7799999999999994

>  <m_primary>  (13) 
energy

>  <rmsd>  (13) 
3.216722439685359

>  <m_score__min__rmsd>  (13) 
3.216722439685359

>  <meeko>  (13) 
{"free_energy": -8.27, "intermolecular_energy": -10.36, "internal_energy": -1.51, "cluster_size": 28, "cluster_id": 1, "rank_in_cluster": 14}

>  <energy>  (13) 
-8.3

>  <cluster_rmsd>  (13) 
1.41

>  <cluster>  (13) 
1

$$$$

     RDKit          3D

 55 58  0  0  0  0  0  0  0  0999 V2000
  139.8380   71.8060  221.0650 O   0  0  0  0  0  0  0  0  0  0  0  0
  139.7670   72.2430  222.2480 C   0  0  0  0  0  0  0  0  0  0  0  0
  139.5840   73.6710  222.3540 N   0  0  0  0  0  0  0  0  0  0  0  0
  139.5040   74.5010  221.2060 C   0  0  0  0  0  0  0  0  0  0  0  0
  140.5920   74.5990  220.2470 C   0  0  0  0  0  0  0  0  0  0  0  0
  140.2840   74.0120  219.1080 O   0  0  0  0  0  0  0  0  0  0  0  0
  141.8530   75.1700  220.2750 N   0  0  0  0  0  0  0  0  0  0  0  0
  143.0970   74.4340  220.6480 C   0  0  0  0  0  0  0  0  0  0  0  0
  143.9740   74.3370  219.4450 C   0  0  0  0  0  0  0  0  0  0  0  0
  143.4290   75.2590  218.3440 C   0  0  0  0  0  0  0  0  0  0  0  0
  143.2890   76.6020  219.0050 C   0  0  0  0  0  0  0  0  0  0  0  0
  142.1440   76.5770  219.9530 C   0  0  1  0  0  0  0  0  0  0  0  0
  141.0110   77.4290  219.5600 C   0  0  0  0  0  0  0  0  0  0  0  0
  140.6530   78.3420  220.5240 O   0  0  0  0  0  0  0  0  0  0  0  0
  141.1710   78.8640  221.6360 C   0  0  0  0  0  0  0  0  0  0  0  0
  141.7380   80.1550  221.5310 C   0  0  0  0  0  0  0  0  0  0  0  0
  142.2980   80.7890  222.6090 C   0  0  0  0  0  0  0  0  0  0  0  0
  142.3360   80.1980  223.8510 C   0  0  0  0  0  0  0  0  0  0  0  0
  141.7930   78.9420  223.9860 C   0  0  0  0  0  0  0  0  0  0  0  0
  141.2320   78.3120  222.8960 C   0  0  0  0  0  0  0  0  0  0  0  0
  139.8560   71.4080  223.4270 C   0  0  0  0  0  0  0  0  0  0  0  0
  139.4150   70.1060  223.3550 C   0  0  0  0  0  0  0  0  0  0  0  0
  139.4860   69.2710  224.4740 C   0  0  0  0  0  0  0  0  0  0  0  0
  140.0170   69.8210  225.6440 C   0  0  0  0  0  0  0  0  0  0  0  0
  140.1170   69.0420  226.8000 C   0  0  0  0  0  0  0  0  0  0  0  0
  140.6480   69.5890  227.9690 C   0  0  0  0  0  0  0  0  0  0  0  0
  140.7470   68.8380  229.0910 F   0  0  0  0  0  0  0  0  0  0  0  0
  141.0820   70.9010  228.0080 C   0  0  0  0  0  0  0  0  0  0  0  0
  140.9740   71.6520  226.8550 C   0  0  0  0  0  0  0  0  0  0  0  0
  140.4540   71.1390  225.6850 C   0  0  0  0  0  0  0  0  0  0  0  0
  140.3590   71.8890  224.5780 N   0  0  0  0  0  0  0  0  0  0  0  0
  139.5200   74.0180  223.3580 H   0  0  0  0  0  0  0  0  0  0  0  0
  138.6250   74.1591  220.6399 H   0  0  0  0  0  0  0  0  0  0  0  0
  139.4970   75.5075  221.6497 H   0  0  0  0  0  0  0  0  0  0  0  0
  143.6231   74.9772  221.4468 H   0  0  0  0  0  0  0  0  0  0  0  0
  142.8426   73.4264  221.0087 H   0  0  0  0  0  0  0  0  0  0  0  0
  144.9963   74.6451  219.7097 H   0  0  0  0  0  0  0  0  0  0  0  0
  143.9886   73.2986  219.0824 H   0  0  0  0  0  0  0  0  0  0  0  0
  144.1326   75.3135  217.5002 H   0  0  0  0  0  0  0  0  0  0  0  0
  142.4756   74.8966  217.9321 H   0  0  0  0  0  0  0  0  0  0  0  0
  144.2129   76.8376  219.5536 H   0  0  0  0  0  0  0  0  0  0  0  0
  143.1095   77.3690  218.2372 H   0  0  0  0  0  0  0  0  0  0  0  0
  142.4160   77.0718  220.8971 H   0  0  0  0  0  0  0  0  0  0  0  0
  141.2870   77.9766  218.6468 H   0  0  0  0  0  0  0  0  0  0  0  0
  140.1465   76.7671  219.4032 H   0  0  0  0  0  0  0  0  0  0  0  0
  141.7293   80.6648  220.5563 H   0  0  0  0  0  0  0  0  0  0  0  0
  142.7270   81.7935  222.4785 H   0  0  0  0  0  0  0  0  0  0  0  0
  142.7875   80.7151  224.7105 H   0  0  0  0  0  0  0  0  0  0  0  0
  141.8063   78.4397  224.9645 H   0  0  0  0  0  0  0  0  0  0  0  0
  140.8074   77.3077  223.0414 H   0  0  0  0  0  0  0  0  0  0  0  0
  139.0039   69.7199  222.4106 H   0  0  0  0  0  0  0  0  0  0  0  0
  139.1394   68.2277  224.4353 H   0  0  0  0  0  0  0  0  0  0  0  0
  139.7766   67.9960  226.7885 H   0  0  0  0  0  0  0  0  0  0  0  0
  141.5003   71.3329  228.9291 H   0  0  0  0  0  0  0  0  0  0  0  0
  141.3150   72.6977  226.8697 H   0  0  0  0  0  0  0  0  0  0  0  0
  1  2  2  0
  2  3  1  0
  3  4  1  0
  4  5  1  0
  5  6  2  0
  5  7  1  0
  7  8  1  0
  8  9  1  0
  9 10  1  0
 10 11  1  0
 11 12  1  0
 12 13  1  0
 13 14  1  0
 14 15  1  0
 15 16  2  0
 16 17  1  0
 17 18  2  0
 18 19  1  0
 19 20  2  0
  2 21  1  0
 21 22  2  0
 22 23  1  0
 23 24  2  0
 24 25  1  0
 25 26  2  0
 26 27  1  0
 26 28  1  0
 28 29  2  0
 29 30  1  0
 30 31  2  0
 12  7  1  0
 20 15  1  0
 31 21  1  0
 30 24  1  0
  3 32  1  0
  4 33  1  0
  4 34  1  0
  8 35  1  0
  8 36  1  0
  9 37  1  0
  9 38  1  0
 10 39  1  0
 10 40  1  0
 11 41  1  0
 11 42  1  0
 12 43  1  1
 13 44  1  0
 13 45  1  0
 16 46  1  0
 17 47  1  0
 18 48  1  0
 19 49  1  0
 20 50  1  0
 22 51  1  0
 23 52  1  0
 25 53  1  0
 28 54  1  0
 29 55  1  0
M  END
>  <smiles>  (14) 
O=C(NCC(=O)N1CCCC[C@H]1COc1ccccc1)c1ccc2cc(F)ccc2n1

>  <score_type>  (14) 
oracle

>  <origin>  (14) 
autodockgpu

>  <m_score__min__energy>  (14) 
-8.7799999999999994

>  <m_primary>  (14) 
energy

>  <rmsd>  (14) 
2.3104126726357554

>  <m_score__min__rmsd>  (14) 
2.3104126726357554

>  <meeko>  (14) 
{"free_energy": -8.42, "intermolecular_energy": -10.51, "internal_energy": -1.8, "cluster_size": 28, "cluster_id": 1, "rank_in_cluster": 10}

>  <energy>  (14) 
-8.27

>  <cluster_rmsd>  (14) 
1.66

>  <cluster>  (14) 
1

$$$$

     RDKit          3D

 55 58  0  0  0  0  0  0  0  0999 V2000
  140.7420   71.8180  221.1940 O   0  0  0  0  0  0  0  0  0  0  0  0
  140.2850   72.2030  222.3060 C   0  0  0  0  0  0  0  0  0  0  0  0
  139.8840   73.5890  222.3480 N   0  0  0  0  0  0  0  0  0  0  0  0
  140.0130   74.4370  221.2180 C   0  0  0  0  0  0  0  0  0  0  0  0
  140.1980   75.8720  221.3460 C   0  0  0  0  0  0  0  0  0  0  0  0
  140.5540   76.2040  222.5710 O   0  0  0  0  0  0  0  0  0  0  0  0
  140.0880   76.9410  220.4730 N   0  0  0  0  0  0  0  0  0  0  0  0
  138.7940   77.5840  220.0960 C   0  0  0  0  0  0  0  0  0  0  0  0
  138.7760   78.9740  220.6340 C   0  0  0  0  0  0  0  0  0  0  0  0
  140.1820   79.3450  221.1290 C   0  0  0  0  0  0  0  0  0  0  0  0
  141.0860   79.0550  219.9620 C   0  0  0  0  0  0  0  0  0  0  0  0
  141.2210   77.5840  219.7870 C   0  0  1  0  0  0  0  0  0  0  0  0
  142.5670   77.0600  220.0650 C   0  0  0  0  0  0  0  0  0  0  0  0
  142.7210   75.7380  219.7200 O   0  0  0  0  0  0  0  0  0  0  0  0
  143.4720   74.6990  220.0860 C   0  0  0  0  0  0  0  0  0  0  0  0
  144.8040   74.9780  220.4700 C   0  0  0  0  0  0  0  0  0  0  0  0
  145.6650   73.9880  220.8670 C   0  0  0  0  0  0  0  0  0  0  0  0
  145.2740   72.6700  220.9090 C   0  0  0  0  0  0  0  0  0  0  0  0
  143.9840   72.3650  220.5420 C   0  0  0  0  0  0  0  0  0  0  0  0
  143.1250   73.3680  220.1450 C   0  0  0  0  0  0  0  0  0  0  0  0
  140.1570   71.3500  223.4690 C   0  0  0  0  0  0  0  0  0  0  0  0
  139.5250   70.1340  223.3360 C   0  0  0  0  0  0  0  0  0  0  0  0
  139.3830   69.2860  224.4370 C   0  0  0  0  0  0  0  0  0  0  0  0
  139.9080   69.7300  225.6540 C   0  0  0  0  0  0  0  0  0  0  0  0
  139.8010   68.9310  226.7960 C   0  0  0  0  0  0  0  0  0  0  0  0
  140.3250   69.3730  228.0110 C   0  0  0  0  0  0  0  0  0  0  0  0
  140.2240   68.6020  229.1190 F   0  0  0  0  0  0  0  0  0  0  0  0
  140.9550   70.6000  228.1110 C   0  0  0  0  0  0  0  0  0  0  0  0
  141.0490   71.3720  226.9710 C   0  0  0  0  0  0  0  0  0  0  0  0
  140.5410   70.9620  225.7560 C   0  0  0  0  0  0  0  0  0  0  0  0
  140.6450   71.7310  224.6630 N   0  0  0  0  0  0  0  0  0  0  0  0
  139.4950   73.8920  223.2910 H   0  0  0  0  0  0  0  0  0  0  0  0
  140.8796   74.0648  220.6519 H   0  0  0  0  0  0  0  0  0  0  0  0
  139.0111   74.3740  220.7683 H   0  0  0  0  0  0  0  0  0  0  0  0
  138.6990   77.6100  219.0004 H   0  0  0  0  0  0  0  0  0  0  0  0
  137.9543   77.0095  220.5142 H   0  0  0  0  0  0  0  0  0  0  0  0
  138.4700   79.6713  219.8402 H   0  0  0  0  0  0  0  0  0  0  0  0
  138.0629   79.0367  221.4692 H   0  0  0  0  0  0  0  0  0  0  0  0
  140.2291   80.4098  221.4011 H   0  0  0  0  0  0  0  0  0  0  0  0
  140.4692   78.7807  222.0285 H   0  0  0  0  0  0  0  0  0  0  0  0
  140.6572   79.4942  219.0492 H   0  0  0  0  0  0  0  0  0  0  0  0
  142.0775   79.4922  220.1513 H   0  0  0  0  0  0  0  0  0  0  0  0
  141.1455   77.3142  218.7233 H   0  0  0  0  0  0  0  0  0  0  0  0
  143.2970   77.6557  219.4974 H   0  0  0  0  0  0  0  0  0  0  0  0
  142.7254   77.1324  221.1511 H   0  0  0  0  0  0  0  0  0  0  0  0
  145.1593   76.0188  220.4496 H   0  0  0  0  0  0  0  0  0  0  0  0
  146.6918   74.2536  221.1586 H   0  0  0  0  0  0  0  0  0  0  0  0
  145.9730   71.8824  221.2270 H   0  0  0  0  0  0  0  0  0  0  0  0
  143.6376   71.3212  220.5652 H   0  0  0  0  0  0  0  0  0  0  0  0
  142.1007   73.0877  219.8581 H   0  0  0  0  0  0  0  0  0  0  0  0
  139.1293   69.8282  222.3563 H   0  0  0  0  0  0  0  0  0  0  0  0
  138.8801   68.3116  224.3501 H   0  0  0  0  0  0  0  0  0  0  0  0
  139.3028   67.9521  226.7365 H   0  0  0  0  0  0  0  0  0  0  0  0
  141.3680   70.9495  229.0687 H   0  0  0  0  0  0  0  0  0  0  0  0
  141.5475   72.3506  227.0336 H   0  0  0  0  0  0  0  0  0  0  0  0
  1  2  2  0
  2  3  1  0
  3  4  1  0
  4  5  1  0
  5  6  2  0
  5  7  1  0
  7  8  1  0
  8  9  1  0
  9 10  1  0
 10 11  1  0
 11 12  1  0
 12 13  1  0
 13 14  1  0
 14 15  1  0
 15 16  2  0
 16 17  1  0
 17 18  2  0
 18 19  1  0
 19 20  2  0
  2 21  1  0
 21 22  2  0
 22 23  1  0
 23 24  2  0
 24 25  1  0
 25 26  2  0
 26 27  1  0
 26 28  1  0
 28 29  2  0
 29 30  1  0
 30 31  2  0
 12  7  1  0
 20 15  1  0
 31 21  1  0
 30 24  1  0
  3 32  1  0
  4 33  1  0
  4 34  1  0
  8 35  1  0
  8 36  1  0
  9 37  1  0
  9 38  1  0
 10 39  1  0
 10 40  1  0
 11 41  1  0
 11 42  1  0
 12 43  1  6
 13 44  1  0
 13 45  1  0
 16 46  1  0
 17 47  1  0
 18 48  1  0
 19 49  1  0
 20 50  1  0
 22 51  1  0
 23 52  1  0
 25 53  1  0
 28 54  1  0
 29 55  1  0
M  END
>  <smiles>  (15) 
O=C(NCC(=O)N1CCCC[C@H]1COc1ccccc1)c1ccc2cc(F)ccc2n1

>  <score_type>  (15) 
oracle

>  <origin>  (15) 
autodockgpu

>  <m_score__min__energy>  (15) 
-8.7799999999999994

>  <m_primary>  (15) 
energy

>  <rmsd>  (15) 
2.243811195993326

>  <m_score__min__rmsd>  (15) 
2.243811195993326

>  <meeko>  (15) 
{"free_energy": -7.77, "intermolecular_energy": -9.85, "internal_energy": -2.05, "cluster_size": 16, "cluster_id": 2, "rank_in_cluster": 7}

>  <energy>  (15) 
-8.27

>  <cluster_rmsd>  (15) 
1.57

>  <cluster>  (15) 
1

$$$$

     RDKit          3D

 55 58  0  0  0  0  0  0  0  0999 V2000
  140.9480   72.9880  222.3440 O   0  0  0  0  0  0  0  0  0  0  0  0
  139.9120   72.5020  222.8780 C   0  0  0  0  0  0  0  0  0  0  0  0
  138.6680   73.0490  222.3910 N   0  0  0  0  0  0  0  0  0  0  0  0
  138.6370   74.0600  221.3960 C   0  0  0  0  0  0  0  0  0  0  0  0
  138.5370   75.4710  221.7320 C   0  0  0  0  0  0  0  0  0  0  0  0
  137.6610   75.6760  222.6950 O   0  0  0  0  0  0  0  0  0  0  0  0
  139.1590   76.6180  221.2690 N   0  0  0  0  0  0  0  0  0  0  0  0
  138.4300   77.8310  220.7940 C   0  0  0  0  0  0  0  0  0  0  0  0
  138.7000   78.9530  221.7390 C   0  0  0  0  0  0  0  0  0  0  0  0
  139.8390   78.5520  222.6890 C   0  0  0  0  0  0  0  0  0  0  0  0
  140.9550   78.1130  221.7820 C   0  0  0  0  0  0  0  0  0  0  0  0
  140.6160   76.8010  221.1700 C   0  0  1  0  0  0  0  0  0  0  0  0
  141.4700   75.6870  221.6100 C   0  0  0  0  0  0  0  0  0  0  0  0
  142.2480   75.1640  220.6040 O   0  0  0  0  0  0  0  0  0  0  0  0
  143.3040   74.3590  220.4840 C   0  0  0  0  0  0  0  0  0  0  0  0
  143.0390   72.9770  220.3380 C   0  0  0  0  0  0  0  0  0  0  0  0
  144.0470   72.0580  220.2060 C   0  0  0  0  0  0  0  0  0  0  0  0
  145.3710   72.4350  220.2090 C   0  0  0  0  0  0  0  0  0  0  0  0
  145.6610   73.7720  220.3500 C   0  0  0  0  0  0  0  0  0  0  0  0
  144.6400   74.6900  220.4820 C   0  0  0  0  0  0  0  0  0  0  0  0
  139.9320   71.4760  223.9000 C   0  0  0  0  0  0  0  0  0  0  0  0
  139.3830   70.2460  223.6170 C   0  0  0  0  0  0  0  0  0  0  0  0
  139.3830   69.2330  224.5800 C   0  0  0  0  0  0  0  0  0  0  0  0
  139.9600   69.5320  225.8180 C   0  0  0  0  0  0  0  0  0  0  0  0
  139.9950   68.5650  226.8260 C   0  0  0  0  0  0  0  0  0  0  0  0
  140.5700   68.8620  228.0620 C   0  0  0  0  0  0  0  0  0  0  0  0
  140.6060   67.9280  229.0410 F   0  0  0  0  0  0  0  0  0  0  0  0
  141.1130   70.1090  228.3130 C   0  0  0  0  0  0  0  0  0  0  0  0
  141.0670   71.0490  227.3040 C   0  0  0  0  0  0  0  0  0  0  0  0
  140.5060   70.7840  226.0720 C   0  0  0  0  0  0  0  0  0  0  0  0
  140.4740   71.7140  225.1070 N   0  0  0  0  0  0  0  0  0  0  0  0
  137.8070   72.6220  222.8480 H   0  0  0  0  0  0  0  0  0  0  0  0
  139.5636   73.9473  220.8141 H   0  0  0  0  0  0  0  0  0  0  0  0
  137.6705   73.8710  220.9059 H   0  0  0  0  0  0  0  0  0  0  0  0
  138.7804   78.1027  219.7873 H   0  0  0  0  0  0  0  0  0  0  0  0
  137.3498   77.6269  220.7540 H   0  0  0  0  0  0  0  0  0  0  0  0
  138.9924   79.8490  221.1719 H   0  0  0  0  0  0  0  0  0  0  0  0
  137.7929   79.1711  222.3218 H   0  0  0  0  0  0  0  0  0  0  0  0
  140.1523   79.4094  223.3028 H   0  0  0  0  0  0  0  0  0  0  0  0
  139.5369   77.7606  223.3907 H   0  0  0  0  0  0  0  0  0  0  0  0
  141.0969   78.8611  220.9882 H   0  0  0  0  0  0  0  0  0  0  0  0
  141.8819   78.0142  222.3660 H   0  0  0  0  0  0  0  0  0  0  0  0
  140.8658   76.8000  220.0987 H   0  0  0  0  0  0  0  0  0  0  0  0
  142.1322   76.0503  222.4097 H   0  0  0  0  0  0  0  0  0  0  0  0
  140.8028   74.8835  221.9551 H   0  0  0  0  0  0  0  0  0  0  0  0
  141.9950   72.6305  220.3302 H   0  0  0  0  0  0  0  0  0  0  0  0
  143.7921   70.9937  220.0950 H   0  0  0  0  0  0  0  0  0  0  0  0
  146.1727   71.6895  220.1019 H   0  0  0  0  0  0  0  0  0  0  0  0
  146.7079   74.1095  220.3575 H   0  0  0  0  0  0  0  0  0  0  0  0
  144.9098   75.7507  220.5923 H   0  0  0  0  0  0  0  0  0  0  0  0
  138.9416   70.0591  222.6270 H   0  0  0  0  0  0  0  0  0  0  0  0
  138.9482   68.2440  224.3730 H   0  0  0  0  0  0  0  0  0  0  0  0
  139.5683   67.5675  226.6447 H   0  0  0  0  0  0  0  0  0  0  0  0
  141.5674   70.3441  229.2868 H   0  0  0  0  0  0  0  0  0  0  0  0
  141.4932   72.0461  227.4888 H   0  0  0  0  0  0  0  0  0  0  0  0
  1  2  2  0
  2  3  1  0
  3  4  1  0
  4  5  1  0
  5  6  2  0
  5  7  1  0
  7  8  1  0
  8  9  1  0
  9 10  1  0
 10 11  1  0
 11 12  1  0
 12 13  1  0
 13 14  1  0
 14 15  1  0
 15 16  2  0
 16 17  1  0
 17 18  2  0
 18 19  1  0
 19 20  2  0
  2 21  1  0
 21 22  2  0
 22 23  1  0
 23 24  2  0
 24 25  1  0
 25 26  2  0
 26 27  1  0
 26 28  1  0
 28 29  2  0
 29 30  1  0
 30 31  2  0
 12  7  1  0
 20 15  1  0
 31 21  1  0
 30 24  1  0
  3 32  1  0
  4 33  1  0
  4 34  1  0
  8 35  1  0
  8 36  1  0
  9 37  1  0
  9 38  1  0
 10 39  1  0
 10 40  1  0
 11 41  1  0
 11 42  1  0
 12 43  1  6
 13 44  1  0
 13 45  1  0
 16 46  1  0
 17 47  1  0
 18 48  1  0
 19 49  1  0
 20 50  1  0
 22 51  1  0
 23 52  1  0
 25 53  1  0
 28 54  1  0
 29 55  1  0
M  END
>  <smiles>  (16) 
O=C(NCC(=O)N1CCCC[C@H]1COc1ccccc1)c1ccc2cc(F)ccc2n1

>  <score_type>  (16) 
oracle

>  <origin>  (16) 
autodockgpu

>  <m_score__min__energy>  (16) 
-8.7799999999999994

>  <m_primary>  (16) 
energy

>  <rmsd>  (16) 
2.6369634974204232

>  <m_score__min__rmsd>  (16) 
2.6369634974204232

>  <meeko>  (16) 
{"free_energy": -7.92, "intermolecular_energy": -10.01, "internal_energy": -1.58, "cluster_size": 16, "cluster_id": 2, "rank_in_cluster": 5}

>  <energy>  (16) 
-8.25

>  <cluster_rmsd>  (16) 
1.44

>  <cluster>  (16) 
1

$$$$

     RDKit          3D

 55 58  0  0  0  0  0  0  0  0999 V2000
  139.6480   71.6100  220.8200 O   0  0  0  0  0  0  0  0  0  0  0  0
  140.1680   71.9720  221.9120 C   0  0  0  0  0  0  0  0  0  0  0  0
  140.9780   73.1660  221.8290 N   0  0  0  0  0  0  0  0  0  0  0  0
  141.1680   73.8540  220.6030 C   0  0  0  0  0  0  0  0  0  0  0  0
  142.2980   74.7410  220.3830 C   0  0  0  0  0  0  0  0  0  0  0  0
  143.4430   74.0990  220.4990 O   0  0  0  0  0  0  0  0  0  0  0  0
  142.4220   76.0860  220.0780 N   0  0  0  0  0  0  0  0  0  0  0  0
  143.3280   76.6230  219.0190 C   0  0  0  0  0  0  0  0  0  0  0  0
  142.4950   77.2100  217.9310 C   0  0  0  0  0  0  0  0  0  0  0  0
  141.0380   77.3110  218.4050 C   0  0  0  0  0  0  0  0  0  0  0  0
  141.1120   78.0530  219.7100 C   0  0  0  0  0  0  0  0  0  0  0  0
  141.6940   77.1710  220.7560 C   0  0  1  0  0  0  0  0  0  0  0  0
  140.7560   76.7930  221.8230 C   0  0  0  0  0  0  0  0  0  0  0  0
  140.6990   77.7060  222.8500 O   0  0  0  0  0  0  0  0  0  0  0  0
  141.2080   78.9040  223.1410 C   0  0  0  0  0  0  0  0  0  0  0  0
  140.3020   79.9890  223.1770 C   0  0  0  0  0  0  0  0  0  0  0  0
  140.7120   81.2640  223.4660 C   0  0  0  0  0  0  0  0  0  0  0  0
  142.0310   81.5520  223.7350 C   0  0  0  0  0  0  0  0  0  0  0  0
  142.9360   80.5180  223.7080 C   0  0  0  0  0  0  0  0  0  0  0  0
  142.5140   79.2380  223.4160 C   0  0  0  0  0  0  0  0  0  0  0  0
  139.9900   71.2730  223.1670 C   0  0  0  0  0  0  0  0  0  0  0  0
  139.2510   70.1110  223.1810 C   0  0  0  0  0  0  0  0  0  0  0  0
  139.0580   69.4100  224.3750 C   0  0  0  0  0  0  0  0  0  0  0  0
  139.6430   69.9420  225.5270 C   0  0  0  0  0  0  0  0  0  0  0  0
  139.4890   69.2930  226.7550 C   0  0  0  0  0  0  0  0  0  0  0  0
  140.0730   69.8230  227.9060 C   0  0  0  0  0  0  0  0  0  0  0  0
  139.9260   69.1960  229.0960 F   0  0  0  0  0  0  0  0  0  0  0  0
  140.8090   70.9920  227.8570 C   0  0  0  0  0  0  0  0  0  0  0  0
  140.9470   71.6180  226.6350 C   0  0  0  0  0  0  0  0  0  0  0  0
  140.3830   71.1180  225.4800 C   0  0  0  0  0  0  0  0  0  0  0  0
  140.5310   71.7440  224.3050 N   0  0  0  0  0  0  0  0  0  0  0  0
  141.4010   73.4580  222.7610 H   0  0  0  0  0  0  0  0  0  0  0  0
  141.2272   73.0811  219.8226 H   0  0  0  0  0  0  0  0  0  0  0  0
  140.3206   74.5554  220.5989 H   0  0  0  0  0  0  0  0  0  0  0  0
  143.9786   77.3997  219.4473 H   0  0  0  0  0  0  0  0  0  0  0  0
  143.9552   75.8140  218.6163 H   0  0  0  0  0  0  0  0  0  0  0  0
  142.8705   78.2134  217.6815 H   0  0  0  0  0  0  0  0  0  0  0  0
  142.5485   76.5682  217.0392 H   0  0  0  0  0  0  0  0  0  0  0  0
  140.4306   77.8677  217.6761 H   0  0  0  0  0  0  0  0  0  0  0  0
  140.5663   76.3232  218.5140 H   0  0  0  0  0  0  0  0  0  0  0  0
  141.7459   78.9437  219.5887 H   0  0  0  0  0  0  0  0  0  0  0  0
  140.0997   78.3584  220.0132 H   0  0  0  0  0  0  0  0  0  0  0  0
  142.4301   77.7228  221.3591 H   0  0  0  0  0  0  0  0  0  0  0  0
  139.7512   76.6970  221.3858 H   0  0  0  0  0  0  0  0  0  0  0  0
  141.1160   75.8457  222.2508 H   0  0  0  0  0  0  0  0  0  0  0  0
  139.2381   79.8043  222.9671 H   0  0  0  0  0  0  0  0  0  0  0  0
  139.9702   82.0761  223.4835 H   0  0  0  0  0  0  0  0  0  0  0  0
  142.3511   82.5790  223.9647 H   0  0  0  0  0  0  0  0  0  0  0  0
  143.9980   80.7116  223.9195 H   0  0  0  0  0  0  0  0  0  0  0  0
  143.2667   78.4360  223.4021 H   0  0  0  0  0  0  0  0  0  0  0  0
  138.8100   69.7322  222.2472 H   0  0  0  0  0  0  0  0  0  0  0  0
  138.4712   68.4801  224.4062 H   0  0  0  0  0  0  0  0  0  0  0  0
  138.9060   68.3621  226.8143 H   0  0  0  0  0  0  0  0  0  0  0  0
  141.2703   71.4102  228.7638 H   0  0  0  0  0  0  0  0  0  0  0  0
  141.5283   72.5502  226.5801 H   0  0  0  0  0  0  0  0  0  0  0  0
  1  2  2  0
  2  3  1  0
  3  4  1  0
  4  5  1  0
  5  6  2  0
  5  7  1  0
  7  8  1  0
  8  9  1  0
  9 10  1  0
 10 11  1  0
 11 12  1  0
 12 13  1  0
 13 14  1  0
 14 15  1  0
 15 16  2  0
 16 17  1  0
 17 18  2  0
 18 19  1  0
 19 20  2  0
  2 21  1  0
 21 22  2  0
 22 23  1  0
 23 24  2  0
 24 25  1  0
 25 26  2  0
 26 27  1  0
 26 28  1  0
 28 29  2  0
 29 30  1  0
 30 31  2  0
 12  7  1  0
 20 15  1  0
 31 21  1  0
 30 24  1  0
  3 32  1  0
  4 33  1  0
  4 34  1  0
  8 35  1  0
  8 36  1  0
  9 37  1  0
  9 38  1  0
 10 39  1  0
 10 40  1  0
 11 41  1  0
 11 42  1  0
 12 43  1  1
 13 44  1  0
 13 45  1  0
 16 46  1  0
 17 47  1  0
 18 48  1  0
 19 49  1  0
 20 50  1  0
 22 51  1  0
 23 52  1  0
 25 53  1  0
 28 54  1  0
 29 55  1  0
M  END
>  <smiles>  (17) 
O=C(NCC(=O)N1CCCC[C@H]1COc1ccccc1)c1ccc2cc(F)ccc2n1

>  <score_type>  (17) 
oracle

>  <origin>  (17) 
autodockgpu

>  <m_score__min__energy>  (17) 
-8.7799999999999994

>  <m_primary>  (17) 
energy

>  <rmsd>  (17) 
2.535473387559795

>  <m_score__min__rmsd>  (17) 
2.535473387559795

>  <meeko>  (17) 
{"free_energy": -8.05, "intermolecular_energy": -10.14, "internal_energy": -1.66, "cluster_size": 28, "cluster_id": 1, "rank_in_cluster": 23}

>  <energy>  (17) 
-8.24

>  <cluster_rmsd>  (17) 
1.54

>  <cluster>  (17) 
1

$$$$

     RDKit          3D

 55 58  0  0  0  0  0  0  0  0999 V2000
  140.2830   71.8750  221.0470 O   0  0  0  0  0  0  0  0  0  0  0  0
  140.0450   72.2870  222.2170 C   0  0  0  0  0  0  0  0  0  0  0  0
  139.7760   73.7020  222.3160 N   0  0  0  0  0  0  0  0  0  0  0  0
  139.7930   74.5460  221.1750 C   0  0  0  0  0  0  0  0  0  0  0  0
  140.0880   75.9660  221.2700 C   0  0  0  0  0  0  0  0  0  0  0  0
  140.4670   76.2990  222.4870 O   0  0  0  0  0  0  0  0  0  0  0  0
  140.0610   77.0180  220.3700 N   0  0  0  0  0  0  0  0  0  0  0  0
  138.8110   77.6900  219.9050 C   0  0  0  0  0  0  0  0  0  0  0  0
  138.8030   79.0910  220.4130 C   0  0  0  0  0  0  0  0  0  0  0  0
  140.1880   79.4320  220.9830 C   0  0  0  0  0  0  0  0  0  0  0  0
  141.1490   79.0910  219.8780 C   0  0  0  0  0  0  0  0  0  0  0  0
  141.2500   77.6140  219.7400 C   0  0  1  0  0  0  0  0  0  0  0  0
  142.5610   77.0580  220.1070 C   0  0  0  0  0  0  0  0  0  0  0  0
  142.7340   75.7540  219.7060 O   0  0  0  0  0  0  0  0  0  0  0  0
  143.4450   74.6880  220.0770 C   0  0  0  0  0  0  0  0  0  0  0  0
  142.7670   73.4480  220.1100 C   0  0  0  0  0  0  0  0  0  0  0  0
  143.3980   72.2880  220.4740 C   0  0  0  0  0  0  0  0  0  0  0  0
  144.7280   72.2730  220.8280 C   0  0  0  0  0  0  0  0  0  0  0  0
  145.4160   73.4640  220.8060 C   0  0  0  0  0  0  0  0  0  0  0  0
  144.7720   74.6260  220.4380 C   0  0  0  0  0  0  0  0  0  0  0  0
  140.0350   71.4380  223.3890 C   0  0  0  0  0  0  0  0  0  0  0  0
  139.5430   70.1570  223.2780 C   0  0  0  0  0  0  0  0  0  0  0  0
  139.5170   69.3090  224.3880 C   0  0  0  0  0  0  0  0  0  0  0  0
  140.0070   69.8230  225.5920 C   0  0  0  0  0  0  0  0  0  0  0  0
  140.0110   69.0300  226.7430 C   0  0  0  0  0  0  0  0  0  0  0  0
  140.5000   69.5420  227.9450 C   0  0  0  0  0  0  0  0  0  0  0  0
  140.5060   68.7770  229.0610 F   0  0  0  0  0  0  0  0  0  0  0  0
  140.9880   70.8340  228.0230 C   0  0  0  0  0  0  0  0  0  0  0  0
  140.9740   71.6000  226.8750 C   0  0  0  0  0  0  0  0  0  0  0  0
  140.4970   71.1210  225.6730 C   0  0  0  0  0  0  0  0  0  0  0  0
  140.4950   71.8850  224.5710 N   0  0  0  0  0  0  0  0  0  0  0  0
  139.5720   74.0280  223.3080 H   0  0  0  0  0  0  0  0  0  0  0  0
  140.5414   74.1216  220.4896 H   0  0  0  0  0  0  0  0  0  0  0  0
  138.7344   74.5502  220.8760 H   0  0  0  0  0  0  0  0  0  0  0  0
  138.7808   77.6950  218.8054 H   0  0  0  0  0  0  0  0  0  0  0  0
  137.9317   77.1491  220.2848 H   0  0  0  0  0  0  0  0  0  0  0  0
  138.5652   79.7794  219.5887 H   0  0  0  0  0  0  0  0  0  0  0  0
  138.0442   79.1923  221.2029 H   0  0  0  0  0  0  0  0  0  0  0  0
  140.2511   80.5006  221.2362 H   0  0  0  0  0  0  0  0  0  0  0  0
  140.4049   78.8794  221.9090 H   0  0  0  0  0  0  0  0  0  0  0  0
  140.7877   79.5227  218.9330 H   0  0  0  0  0  0  0  0  0  0  0  0
  142.1404   79.5033  220.1172 H   0  0  0  0  0  0  0  0  0  0  0  0
  141.2284   77.3244  218.6790 H   0  0  0  0  0  0  0  0  0  0  0  0
  143.3437   77.6732  219.6392 H   0  0  0  0  0  0  0  0  0  0  0  0
  142.6225   77.0704  221.2052 H   0  0  0  0  0  0  0  0  0  0  0  0
  141.7023   73.4137  219.8355 H   0  0  0  0  0  0  0  0  0  0  0  0
  142.8287   71.3468  220.4836 H   0  0  0  0  0  0  0  0  0  0  0  0
  145.2259   71.3366  221.1198 H   0  0  0  0  0  0  0  0  0  0  0  0
  146.4805   73.4892  221.0822 H   0  0  0  0  0  0  0  0  0  0  0  0
  145.3534   75.5598  220.4325 H   0  0  0  0  0  0  0  0  0  0  0  0
  139.1676   69.7985  222.3082 H   0  0  0  0  0  0  0  0  0  0  0  0
  139.1282   68.2824  224.3176 H   0  0  0  0  0  0  0  0  0  0  0  0
  139.6277   67.9998  226.7009 H   0  0  0  0  0  0  0  0  0  0  0  0
  141.3750   71.2381  228.9700 H   0  0  0  0  0  0  0  0  0  0  0  0
  141.3573   72.6301  226.9205 H   0  0  0  0  0  0  0  0  0  0  0  0
  1  2  2  0
  2  3  1  0
  3  4  1  0
  4  5  1  0
  5  6  2  0
  5  7  1  0
  7  8  1  0
  8  9  1  0
  9 10  1  0
 10 11  1  0
 11 12  1  0
 12 13  1  0
 13 14  1  0
 14 15  1  0
 15 16  2  0
 16 17  1  0
 17 18  2  0
 18 19  1  0
 19 20  2  0
  2 21  1  0
 21 22  2  0
 22 23  1  0
 23 24  2  0
 24 25  1  0
 25 26  2  0
 26 27  1  0
 26 28  1  0
 28 29  2  0
 29 30  1  0
 30 31  2  0
 12  7  1  0
 20 15  1  0
 31 21  1  0
 30 24  1  0
  3 32  1  0
  4 33  1  0
  4 34  1  0
  8 35  1  0
  8 36  1  0
  9 37  1  0
  9 38  1  0
 10 39  1  0
 10 40  1  0
 11 41  1  0
 11 42  1  0
 12 43  1  6
 13 44  1  0
 13 45  1  0
 16 46  1  0
 17 47  1  0
 18 48  1  0
 19 49  1  0
 20 50  1  0
 22 51  1  0
 23 52  1  0
 25 53  1  0
 28 54  1  0
 29 55  1  0
M  END
>  <smiles>  (18) 
O=C(NCC(=O)N1CCCC[C@H]1COc1ccccc1)c1ccc2cc(F)ccc2n1

>  <score_type>  (18) 
oracle

>  <origin>  (18) 
autodockgpu

>  <m_score__min__energy>  (18) 
-8.7799999999999994

>  <m_primary>  (18) 
energy

>  <rmsd>  (18) 
2.2156212751485254

>  <m_score__min__rmsd>  (18) 
2.2156212751485254

>  <meeko>  (18) 
{"free_energy": -7.56, "intermolecular_energy": -9.64, "internal_energy": -2.21, "cluster_size": 16, "cluster_id": 2, "rank_in_cluster": 11}

>  <energy>  (18) 
-8.15

>  <cluster_rmsd>  (18) 
1.46

>  <cluster>  (18) 
1

$$$$

     RDKit          3D

 55 58  0  0  0  0  0  0  0  0999 V2000
  141.1130   72.4420  221.5120 O   0  0  0  0  0  0  0  0  0  0  0  0
  140.1610   72.5730  222.3310 C   0  0  0  0  0  0  0  0  0  0  0  0
  139.2610   73.6650  222.0410 N   0  0  0  0  0  0  0  0  0  0  0  0
  139.4580   74.5170  220.9240 C   0  0  0  0  0  0  0  0  0  0  0  0
  139.9140   75.8890  221.0710 C   0  0  0  0  0  0  0  0  0  0  0  0
  140.5030   76.3200  219.9740 O   0  0  0  0  0  0  0  0  0  0  0  0
  139.8570   76.8200  222.0940 N   0  0  0  0  0  0  0  0  0  0  0  0
  141.0560   77.4610  222.7100 C   0  0  0  0  0  0  0  0  0  0  0  0
  141.0440   78.9160  222.3810 C   0  0  0  0  0  0  0  0  0  0  0  0
  139.6800   79.2870  221.7790 C   0  0  0  0  0  0  0  0  0  0  0  0
  138.6730   78.7840  222.7760 C   0  0  0  0  0  0  0  0  0  0  0  0
  138.6150   77.2990  222.7240 C   0  0  1  0  0  0  0  0  0  0  0  0
  137.3460   76.7580  222.2150 C   0  0  0  0  0  0  0  0  0  0  0  0
  137.0730   75.4880  222.6660 O   0  0  0  0  0  0  0  0  0  0  0  0
  136.2160   74.8930  223.4960 C   0  0  0  0  0  0  0  0  0  0  0  0
  135.9630   73.5200  223.2750 C   0  0  0  0  0  0  0  0  0  0  0  0
  135.1010   72.8070  224.0670 C   0  0  0  0  0  0  0  0  0  0  0  0
  134.4370   73.3950  225.1180 C   0  0  0  0  0  0  0  0  0  0  0  0
  134.6610   74.7300  225.3590 C   0  0  0  0  0  0  0  0  0  0  0  0
  135.5310   75.4390  224.5570 C   0  0  0  0  0  0  0  0  0  0  0  0
  139.9550   71.7160  223.4790 C   0  0  0  0  0  0  0  0  0  0  0  0
  139.0350   70.6960  223.3910 C   0  0  0  0  0  0  0  0  0  0  0  0
  138.8100   69.8500  224.4800 C   0  0  0  0  0  0  0  0  0  0  0  0
  139.5540   70.0910  225.6380 C   0  0  0  0  0  0  0  0  0  0  0  0
  139.3800   69.2820  226.7640 C   0  0  0  0  0  0  0  0  0  0  0  0
  140.1230   69.5220  227.9200 C   0  0  0  0  0  0  0  0  0  0  0  0
  139.9570   68.7410  229.0130 F   0  0  0  0  0  0  0  0  0  0  0  0
  141.0410   70.5550  227.9760 C   0  0  0  0  0  0  0  0  0  0  0  0
  141.1970   71.3410  226.8520 C   0  0  0  0  0  0  0  0  0  0  0  0
  140.4770   71.1290  225.6960 C   0  0  0  0  0  0  0  0  0  0  0  0
  140.6460   71.9070  224.6170 N   0  0  0  0  0  0  0  0  0  0  0  0
  138.4620   73.7540  222.7390 H   0  0  0  0  0  0  0  0  0  0  0  0
  140.1956   74.0150  220.2806 H   0  0  0  0  0  0  0  0  0  0  0  0
  138.4308   74.6541  220.5551 H   0  0  0  0  0  0  0  0  0  0  0  0
  141.0267   77.3283  223.8016 H   0  0  0  0  0  0  0  0  0  0  0  0
  141.9723   76.9960  222.3174 H   0  0  0  0  0  0  0  0  0  0  0  0
  141.2135   79.5016  223.2966 H   0  0  0  0  0  0  0  0  0  0  0  0
  141.8405   79.1372  221.6553 H   0  0  0  0  0  0  0  0  0  0  0  0
  139.5936   80.3767  221.6565 H   0  0  0  0  0  0  0  0  0  0  0  0
  139.5324   78.8484  220.7811 H   0  0  0  0  0  0  0  0  0  0  0  0
  138.9680   79.1033  223.7865 H   0  0  0  0  0  0  0  0  0  0  0  0
  137.6825   79.1960  222.5329 H   0  0  0  0  0  0  0  0  0  0  0  0
  138.5884   76.8789  223.7403 H   0  0  0  0  0  0  0  0  0  0  0  0
  136.5305   77.4239  222.5337 H   0  0  0  0  0  0  0  0  0  0  0  0
  137.4334   76.7016  221.1199 H   0  0  0  0  0  0  0  0  0  0  0  0
  136.4721   73.0095  222.4442 H   0  0  0  0  0  0  0  0  0  0  0  0
  134.9365   71.7398  223.8571 H   0  0  0  0  0  0  0  0  0  0  0  0
  133.7468   72.8142  225.7475 H   0  0  0  0  0  0  0  0  0  0  0  0
  134.1465   75.2326  226.1913 H   0  0  0  0  0  0  0  0  0  0  0  0
  135.6865   76.5051  224.7791 H   0  0  0  0  0  0  0  0  0  0  0  0
  138.4732   70.5459  222.4573 H   0  0  0  0  0  0  0  0  0  0  0  0
  138.0789   69.0298  224.4280 H   0  0  0  0  0  0  0  0  0  0  0  0
  138.6558   68.4544  226.7388 H   0  0  0  0  0  0  0  0  0  0  0  0
  141.6279   70.7441  228.8869 H   0  0  0  0  0  0  0  0  0  0  0  0
  141.9228   72.1671  226.8800 H   0  0  0  0  0  0  0  0  0  0  0  0
  1  2  2  0
  2  3  1  0
  3  4  1  0
  4  5  1  0
  5  6  2  0
  5  7  1  0
  7  8  1  0
  8  9  1  0
  9 10  1  0
 10 11  1  0
 11 12  1  0
 12 13  1  0
 13 14  1  0
 14 15  1  0
 15 16  2  0
 16 17  1  0
 17 18  2  0
 18 19  1  0
 19 20  2  0
  2 21  1  0
 21 22  2  0
 22 23  1  0
 23 24  2  0
 24 25  1  0
 25 26  2  0
 26 27  1  0
 26 28  1  0
 28 29  2  0
 29 30  1  0
 30 31  2  0
 12  7  1  0
 20 15  1  0
 31 21  1  0
 30 24  1  0
  3 32  1  0
  4 33  1  0
  4 34  1  0
  8 35  1  0
  8 36  1  0
  9 37  1  0
  9 38  1  0
 10 39  1  0
 10 40  1  0
 11 41  1  0
 11 42  1  0
 12 43  1  1
 13 44  1  0
 13 45  1  0
 16 46  1  0
 17 47  1  0
 18 48  1  0
 19 49  1  0
 20 50  1  0
 22 51  1  0
 23 52  1  0
 25 53  1  0
 28 54  1  0
 29 55  1  0
M  END
>  <smiles>  (19) 
O=C(NCC(=O)N1CCCC[C@H]1COc1ccccc1)c1ccc2cc(F)ccc2n1

>  <score_type>  (19) 
oracle

>  <origin>  (19) 
autodockgpu

>  <m_score__min__energy>  (19) 
-8.7799999999999994

>  <m_primary>  (19) 
energy

>  <rmsd>  (19) 
3.3221725402272426

>  <m_score__min__rmsd>  (19) 
3.3221725402272426

>  <meeko>  (19) 
{"free_energy": -7.39, "intermolecular_energy": -9.48, "internal_energy": -2.48, "cluster_size": 3, "cluster_id": 5, "rank_in_cluster": 3}

>  <energy>  (19) 
-8.15

>  <cluster_rmsd>  (19) 
1.53

>  <cluster>  (19) 
1

$$$$

     RDKit          3D

 55 58  0  0  0  0  0  0  0  0999 V2000
  140.6110   71.9500  221.1200 O   0  0  0  0  0  0  0  0  0  0  0  0
  140.2310   72.3490  222.2560 C   0  0  0  0  0  0  0  0  0  0  0  0
  139.8950   73.7520  222.3210 N   0  0  0  0  0  0  0  0  0  0  0  0
  140.0010   74.5990  221.1880 C   0  0  0  0  0  0  0  0  0  0  0  0
  140.2990   76.0160  221.3070 C   0  0  0  0  0  0  0  0  0  0  0  0
  140.7360   76.3160  222.5130 O   0  0  0  0  0  0  0  0  0  0  0  0
  140.2270   77.0920  220.4390 N   0  0  0  0  0  0  0  0  0  0  0  0
  138.9700   77.8370  220.1320 C   0  0  0  0  0  0  0  0  0  0  0  0
  139.0920   79.2230  220.6690 C   0  0  0  0  0  0  0  0  0  0  0  0
  140.5480   79.4790  221.0870 C   0  0  0  0  0  0  0  0  0  0  0  0
  141.3610   79.1220  219.8730 C   0  0  0  0  0  0  0  0  0  0  0  0
  141.3690   77.6460  219.6930 C   0  0  1  0  0  0  0  0  0  0  0  0
  142.6820   77.0150  219.8990 C   0  0  0  0  0  0  0  0  0  0  0  0
  142.6930   75.6700  219.6140 O   0  0  0  0  0  0  0  0  0  0  0  0
  143.3780   74.5850  219.9780 C   0  0  0  0  0  0  0  0  0  0  0  0
  144.6950   74.7910  220.4510 C   0  0  0  0  0  0  0  0  0  0  0  0
  145.4890   73.7500  220.8540 C   0  0  0  0  0  0  0  0  0  0  0  0
  145.0440   72.4480  220.8160 C   0  0  0  0  0  0  0  0  0  0  0  0
  143.7670   72.2150  220.3610 C   0  0  0  0  0  0  0  0  0  0  0  0
  142.9750   73.2700  219.9580 C   0  0  0  0  0  0  0  0  0  0  0  0
  140.1280   71.4980  223.4220 C   0  0  0  0  0  0  0  0  0  0  0  0
  139.5510   70.2550  223.2890 C   0  0  0  0  0  0  0  0  0  0  0  0
  139.4340   69.4070  224.3930 C   0  0  0  0  0  0  0  0  0  0  0  0
  139.9240   69.8800  225.6130 C   0  0  0  0  0  0  0  0  0  0  0  0
  139.8400   69.0840  226.7590 C   0  0  0  0  0  0  0  0  0  0  0  0
  140.3290   69.5550  227.9770 C   0  0  0  0  0  0  0  0  0  0  0  0
  140.2490   68.7870  229.0890 F   0  0  0  0  0  0  0  0  0  0  0  0
  140.9030   70.8090  228.0770 C   0  0  0  0  0  0  0  0  0  0  0  0
  140.9750   71.5790  226.9340 C   0  0  0  0  0  0  0  0  0  0  0  0
  140.5010   71.1400  225.7160 C   0  0  0  0  0  0  0  0  0  0  0  0
  140.5830   71.9070  224.6190 N   0  0  0  0  0  0  0  0  0  0  0  0
  139.5710   74.0680  223.2850 H   0  0  0  0  0  0  0  0  0  0  0  0
  140.7937   74.1704  220.5572 H   0  0  0  0  0  0  0  0  0  0  0  0
  138.9664   74.6129  220.8146 H   0  0  0  0  0  0  0  0  0  0  0  0
  138.8182   77.8740  219.0432 H   0  0  0  0  0  0  0  0  0  0  0  0
  138.1111   77.3298  220.5957 H   0  0  0  0  0  0  0  0  0  0  0  0
  138.8003   79.9451  219.8922 H   0  0  0  0  0  0  0  0  0  0  0  0
  138.4321   79.3397  221.5413 H   0  0  0  0  0  0  0  0  0  0  0  0
  140.6947   80.5356  221.3553 H   0  0  0  0  0  0  0  0  0  0  0  0
  140.8375   78.8905  221.9701 H   0  0  0  0  0  0  0  0  0  0  0  0
  140.9193   79.5966  218.9844 H   0  0  0  0  0  0  0  0  0  0  0  0
  142.3929   79.4788  220.0071 H   0  0  0  0  0  0  0  0  0  0  0  0
  141.2155   77.3877  218.6348 H   0  0  0  0  0  0  0  0  0  0  0  0
  143.4149   77.5151  219.2487 H   0  0  0  0  0  0  0  0  0  0  0  0
  142.9299   77.1227  220.9653 H   0  0  0  0  0  0  0  0  0  0  0  0
  145.0927   75.8156  220.4965 H   0  0  0  0  0  0  0  0  0  0  0  0
  146.5062   73.9595  221.2165 H   0  0  0  0  0  0  0  0  0  0  0  0
  145.6902   71.6188  221.1398 H   0  0  0  0  0  0  0  0  0  0  0  0
  143.3773   71.1872  220.3185 H   0  0  0  0  0  0  0  0  0  0  0  0
  141.9597   73.0462  219.5989 H   0  0  0  0  0  0  0  0  0  0  0  0
  139.1796   69.9274  222.3068 H   0  0  0  0  0  0  0  0  0  0  0  0
  138.9762   68.4106  224.3057 H   0  0  0  0  0  0  0  0  0  0  0  0
  139.3869   68.0834  226.6998 H   0  0  0  0  0  0  0  0  0  0  0  0
  141.2900   71.1810  229.0371 H   0  0  0  0  0  0  0  0  0  0  0  0
  141.4272   72.5798  226.9970 H   0  0  0  0  0  0  0  0  0  0  0  0
  1  2  2  0
  2  3  1  0
  3  4  1  0
  4  5  1  0
  5  6  2  0
  5  7  1  0
  7  8  1  0
  8  9  1  0
  9 10  1  0
 10 11  1  0
 11 12  1  0
 12 13  1  0
 13 14  1  0
 14 15  1  0
 15 16  2  0
 16 17  1  0
 17 18  2  0
 18 19  1  0
 19 20  2  0
  2 21  1  0
 21 22  2  0
 22 23  1  0
 23 24  2  0
 24 25  1  0
 25 26  2  0
 26 27  1  0
 26 28  1  0
 28 29  2  0
 29 30  1  0
 30 31  2  0
 12  7  1  0
 20 15  1  0
 31 21  1  0
 30 24  1  0
  3 32  1  0
  4 33  1  0
  4 34  1  0
  8 35  1  0
  8 36  1  0
  9 37  1  0
  9 38  1  0
 10 39  1  0
 10 40  1  0
 11 41  1  0
 11 42  1  0
 12 43  1  6
 13 44  1  0
 13 45  1  0
 16 46  1  0
 17 47  1  0
 18 48  1  0
 19 49  1  0
 20 50  1  0
 22 51  1  0
 23 52  1  0
 25 53  1  0
 28 54  1  0
 29 55  1  0
M  END
>  <smiles>  (20) 
O=C(NCC(=O)N1CCCC[C@H]1COc1ccccc1)c1ccc2cc(F)ccc2n1

>  <score_type>  (20) 
oracle

>  <origin>  (20) 
autodockgpu

>  <m_score__min__energy>  (20) 
-8.7799999999999994

>  <m_primary>  (20) 
energy

>  <rmsd>  (20) 
2.3142905788699357

>  <m_score__min__rmsd>  (20) 
2.3142905788699357

>  <meeko>  (20) 
{"free_energy": -7.7, "intermolecular_energy": -9.79, "internal_energy": -2.12, "cluster_size": 16, "cluster_id": 2, "rank_in_cluster": 8}

>  <energy>  (20) 
-8.14

>  <cluster_rmsd>  (20) 
1.46

>  <cluster>  (20) 
1

$$$$

     RDKit          3D

 55 58  0  0  0  0  0  0  0  0999 V2000
  139.6330   71.4570  221.0690 O   0  0  0  0  0  0  0  0  0  0  0  0
  139.6390   71.8890  222.2550 C   0  0  0  0  0  0  0  0  0  0  0  0
  139.5500   73.3250  222.3770 N   0  0  0  0  0  0  0  0  0  0  0  0
  139.4730   74.1660  221.2370 C   0  0  0  0  0  0  0  0  0  0  0  0
  140.5220   74.2030  220.2320 C   0  0  0  0  0  0  0  0  0  0  0  0
  140.0280   74.0850  219.0160 O   0  0  0  0  0  0  0  0  0  0  0  0
  141.8990   74.3390  220.2810 N   0  0  0  0  0  0  0  0  0  0  0  0
  142.8540   73.1910  220.2670 C   0  0  0  0  0  0  0  0  0  0  0  0
  143.6330   73.2320  218.9970 C   0  0  0  0  0  0  0  0  0  0  0  0
  143.3870   74.5750  218.2940 C   0  0  0  0  0  0  0  0  0  0  0  0
  143.6910   75.6140  219.3380 C   0  0  0  0  0  0  0  0  0  0  0  0
  142.6130   75.6230  220.3630 C   0  0  1  0  0  0  0  0  0  0  0  0
  141.8010   76.8500  220.3790 C   0  0  0  0  0  0  0  0  0  0  0  0
  141.3970   77.2210  221.6390 O   0  0  0  0  0  0  0  0  0  0  0  0
  141.2460   78.3450  222.3410 C   0  0  0  0  0  0  0  0  0  0  0  0
  142.4100   79.1140  222.5720 C   0  0  0  0  0  0  0  0  0  0  0  0
  142.3730   80.2880  223.2790 C   0  0  0  0  0  0  0  0  0  0  0  0
  141.1970   80.7760  223.8010 C   0  0  0  0  0  0  0  0  0  0  0  0
  140.0470   80.0510  223.5940 C   0  0  0  0  0  0  0  0  0  0  0  0
  140.0950   78.8720  222.8810 C   0  0  0  0  0  0  0  0  0  0  0  0
  139.7270   71.0410  223.4260 C   0  0  0  0  0  0  0  0  0  0  0  0
  139.2280   69.7600  223.3570 C   0  0  0  0  0  0  0  0  0  0  0  0
  139.2950   68.9140  224.4680 C   0  0  0  0  0  0  0  0  0  0  0  0
  139.8840   69.4300  225.6260 C   0  0  0  0  0  0  0  0  0  0  0  0
  139.9840   68.6380  226.7730 C   0  0  0  0  0  0  0  0  0  0  0  0
  140.5720   69.1520  227.9290 C   0  0  0  0  0  0  0  0  0  0  0  0
  140.6710   68.3880  229.0420 F   0  0  0  0  0  0  0  0  0  0  0  0
  141.0640   70.4440  227.9640 C   0  0  0  0  0  0  0  0  0  0  0  0
  140.9550   71.2080  226.8200 C   0  0  0  0  0  0  0  0  0  0  0  0
  140.3790   70.7280  225.6630 C   0  0  0  0  0  0  0  0  0  0  0  0
  140.2840   71.4900  224.5640 N   0  0  0  0  0  0  0  0  0  0  0  0
  139.5500   73.6670  223.3840 H   0  0  0  0  0  0  0  0  0  0  0  0
  138.5507   73.8834  220.7083 H   0  0  0  0  0  0  0  0  0  0  0  0
  139.5488   75.1677  221.6851 H   0  0  0  0  0  0  0  0  0  0  0  0
  143.5391   73.2692  221.1240 H   0  0  0  0  0  0  0  0  0  0  0  0
  142.3008   72.2428  220.3365 H   0  0  0  0  0  0  0  0  0  0  0  0
  144.7049   73.1247  219.2197 H   0  0  0  0  0  0  0  0  0  0  0  0
  143.3127   72.4088  218.3415 H   0  0  0  0  0  0  0  0  0  0  0  0
  144.0560   74.6878  217.4282 H   0  0  0  0  0  0  0  0  0  0  0  0
  142.3605   74.6608  217.9082 H   0  0  0  0  0  0  0  0  0  0  0  0
  144.6517   75.3789  219.8194 H   0  0  0  0  0  0  0  0  0  0  0  0
  143.7498   76.6037  218.8616 H   0  0  0  0  0  0  0  0  0  0  0  0
  143.0432   75.6847  221.3735 H   0  0  0  0  0  0  0  0  0  0  0  0
  142.3973   77.6683  219.9490 H   0  0  0  0  0  0  0  0  0  0  0  0
  140.8923   76.6455  219.7938 H   0  0  0  0  0  0  0  0  0  0  0  0
  143.3722   78.7603  222.1732 H   0  0  0  0  0  0  0  0  0  0  0  0
  143.3045   80.8527  223.4325 H   0  0  0  0  0  0  0  0  0  0  0  0
  141.1774   81.7187  224.3674 H   0  0  0  0  0  0  0  0  0  0  0  0
  139.0892   80.4116  223.9971 H   0  0  0  0  0  0  0  0  0  0  0  0
  139.1557   78.3185  222.7347 H   0  0  0  0  0  0  0  0  0  0  0  0
  138.7738   69.3998  222.4221 H   0  0  0  0  0  0  0  0  0  0  0  0
  138.9015   67.8874  224.4325 H   0  0  0  0  0  0  0  0  0  0  0  0
  139.5985   67.6078  226.7644 H   0  0  0  0  0  0  0  0  0  0  0  0
  141.5277   70.8499  228.8752 H   0  0  0  0  0  0  0  0  0  0  0  0
  141.3418   72.2377  226.8316 H   0  0  0  0  0  0  0  0  0  0  0  0
  1  2  2  0
  2  3  1  0
  3  4  1  0
  4  5  1  0
  5  6  2  0
  5  7  1  0
  7  8  1  0
  8  9  1  0
  9 10  1  0
 10 11  1  0
 11 12  1  0
 12 13  1  0
 13 14  1  0
 14 15  1  0
 15 16  2  0
 16 17  1  0
 17 18  2  0
 18 19  1  0
 19 20  2  0
  2 21  1  0
 21 22  2  0
 22 23  1  0
 23 24  2  0
 24 25  1  0
 25 26  2  0
 26 27  1  0
 26 28  1  0
 28 29  2  0
 29 30  1  0
 30 31  2  0
 12  7  1  0
 20 15  1  0
 31 21  1  0
 30 24  1  0
  3 32  1  0
  4 33  1  0
  4 34  1  0
  8 35  1  0
  8 36  1  0
  9 37  1  0
  9 38  1  0
 10 39  1  0
 10 40  1  0
 11 41  1  0
 11 42  1  0
 12 43  1  1
 13 44  1  0
 13 45  1  0
 16 46  1  0
 17 47  1  0
 18 48  1  0
 19 49  1  0
 20 50  1  0
 22 51  1  0
 23 52  1  0
 25 53  1  0
 28 54  1  0
 29 55  1  0
M  END
>  <smiles>  (21) 
O=C(NCC(=O)N1CCCC[C@H]1COc1ccccc1)c1ccc2cc(F)ccc2n1

>  <score_type>  (21) 
oracle

>  <origin>  (21) 
autodockgpu

>  <m_score__min__energy>  (21) 
-8.7799999999999994

>  <m_primary>  (21) 
energy

>  <rmsd>  (21) 
2.3456591001933886

>  <m_score__min__rmsd>  (21) 
2.3456591001933886

>  <meeko>  (21) 
{"free_energy": -7.97, "intermolecular_energy": -10.06, "internal_energy": -1.68, "cluster_size": 28, "cluster_id": 1, "rank_in_cluster": 26}

>  <energy>  (21) 
-8.12

>  <cluster_rmsd>  (21) 
1.58

>  <cluster>  (21) 
1

$$$$

     RDKit          3D

 55 58  0  0  0  0  0  0  0  0999 V2000
  139.1350   71.5460  220.9640 O   0  0  0  0  0  0  0  0  0  0  0  0
  139.3380   72.0520  222.1030 C   0  0  0  0  0  0  0  0  0  0  0  0
  139.3180   73.4960  222.1340 N   0  0  0  0  0  0  0  0  0  0  0  0
  139.0950   74.2650  220.9620 C   0  0  0  0  0  0  0  0  0  0  0  0
  140.1890   74.7400  220.1320 C   0  0  0  0  0  0  0  0  0  0  0  0
  139.7790   75.0240  218.9120 O   0  0  0  0  0  0  0  0  0  0  0  0
  141.5390   74.9600  220.3490 N   0  0  0  0  0  0  0  0  0  0  0  0
  142.4790   73.9300  220.8830 C   0  0  0  0  0  0  0  0  0  0  0  0
  143.4600   73.5790  219.8170 C   0  0  0  0  0  0  0  0  0  0  0  0
  143.3400   74.5880  218.6650 C   0  0  0  0  0  0  0  0  0  0  0  0
  143.4670   75.9340  219.3220 C   0  0  0  0  0  0  0  0  0  0  0  0
  142.2330   76.2330  220.0960 C   0  0  1  0  0  0  0  0  0  0  0  0
  141.4340   77.3450  219.5600 C   0  0  0  0  0  0  0  0  0  0  0  0
  140.9790   78.2080  220.5290 O   0  0  0  0  0  0  0  0  0  0  0  0
  141.4760   78.8910  221.5610 C   0  0  0  0  0  0  0  0  0  0  0  0
  141.3540   78.2950  222.8380 C   0  0  0  0  0  0  0  0  0  0  0  0
  141.8300   78.9050  223.9690 C   0  0  0  0  0  0  0  0  0  0  0  0
  142.4510   80.1320  223.9170 C   0  0  0  0  0  0  0  0  0  0  0  0
  142.5850   80.7370  222.6900 C   0  0  0  0  0  0  0  0  0  0  0  0
  142.1040   80.1160  221.5580 C   0  0  0  0  0  0  0  0  0  0  0  0
  139.5750   71.2790  223.3030 C   0  0  0  0  0  0  0  0  0  0  0  0
  139.2830   69.9340  223.2960 C   0  0  0  0  0  0  0  0  0  0  0  0
  139.4980   69.1570  224.4370 C   0  0  0  0  0  0  0  0  0  0  0  0
  140.0160   69.8070  225.5610 C   0  0  0  0  0  0  0  0  0  0  0  0
  140.2560   69.0900  226.7360 C   0  0  0  0  0  0  0  0  0  0  0  0
  140.7730   69.7370  227.8590 C   0  0  0  0  0  0  0  0  0  0  0  0
  141.0080   69.0460  228.9990 F   0  0  0  0  0  0  0  0  0  0  0  0
  141.0570   71.0910  227.8320 C   0  0  0  0  0  0  0  0  0  0  0  0
  140.8110   71.7790  226.6620 C   0  0  0  0  0  0  0  0  0  0  0  0
  140.3010   71.1660  225.5370 C   0  0  0  0  0  0  0  0  0  0  0  0
  140.0710   71.8570  224.4110 N   0  0  0  0  0  0  0  0  0  0  0  0
  139.4840   73.9030  223.1030 H   0  0  0  0  0  0  0  0  0  0  0  0
  138.4567   73.6521  220.3086 H   0  0  0  0  0  0  0  0  0  0  0  0
  138.6945   75.2028  221.3744 H   0  0  0  0  0  0  0  0  0  0  0  0
  143.0111   74.3325  221.7576 H   0  0  0  0  0  0  0  0  0  0  0  0
  141.9189   73.0333  221.1866 H   0  0  0  0  0  0  0  0  0  0  0  0
  144.4790   73.6122  220.2299 H   0  0  0  0  0  0  0  0  0  0  0  0
  143.2512   72.5659  219.4429 H   0  0  0  0  0  0  0  0  0  0  0  0
  144.1456   74.4368  217.9314 H   0  0  0  0  0  0  0  0  0  0  0  0
  142.3935   74.4810  218.1149 H   0  0  0  0  0  0  0  0  0  0  0  0
  144.3323   75.9291  220.0012 H   0  0  0  0  0  0  0  0  0  0  0  0
  143.6078   76.7043  218.5495 H   0  0  0  0  0  0  0  0  0  0  0  0
  142.4877   76.6594  221.0775 H   0  0  0  0  0  0  0  0  0  0  0  0
  142.0566   77.9123  218.8525 H   0  0  0  0  0  0  0  0  0  0  0  0
  140.5495   76.9052  219.0759 H   0  0  0  0  0  0  0  0  0  0  0  0
  140.8633   77.3144  222.9256 H   0  0  0  0  0  0  0  0  0  0  0  0
  141.7131   78.4025  224.9405 H   0  0  0  0  0  0  0  0  0  0  0  0
  142.8290   80.6144  224.8305 H   0  0  0  0  0  0  0  0  0  0  0  0
  143.0767   81.7179  222.6118 H   0  0  0  0  0  0  0  0  0  0  0  0
  142.2294   80.6301  220.5937 H   0  0  0  0  0  0  0  0  0  0  0  0
  138.8776   69.4677  222.3859 H   0  0  0  0  0  0  0  0  0  0  0  0
  139.2697   68.0810  224.4503 H   0  0  0  0  0  0  0  0  0  0  0  0
  140.0368   68.0128  226.7758 H   0  0  0  0  0  0  0  0  0  0  0  0
  141.4661   71.6026  228.7157 H   0  0  0  0  0  0  0  0  0  0  0  0
  141.0297   72.8564  226.6250 H   0  0  0  0  0  0  0  0  0  0  0  0
  1  2  2  0
  2  3  1  0
  3  4  1  0
  4  5  1  0
  5  6  2  0
  5  7  1  0
  7  8  1  0
  8  9  1  0
  9 10  1  0
 10 11  1  0
 11 12  1  0
 12 13  1  0
 13 14  1  0
 14 15  1  0
 15 16  2  0
 16 17  1  0
 17 18  2  0
 18 19  1  0
 19 20  2  0
  2 21  1  0
 21 22  2  0
 22 23  1  0
 23 24  2  0
 24 25  1  0
 25 26  2  0
 26 27  1  0
 26 28  1  0
 28 29  2  0
 29 30  1  0
 30 31  2  0
 12  7  1  0
 20 15  1  0
 31 21  1  0
 30 24  1  0
  3 32  1  0
  4 33  1  0
  4 34  1  0
  8 35  1  0
  8 36  1  0
  9 37  1  0
  9 38  1  0
 10 39  1  0
 10 40  1  0
 11 41  1  0
 11 42  1  0
 12 43  1  1
 13 44  1  0
 13 45  1  0
 16 46  1  0
 17 47  1  0
 18 48  1  0
 19 49  1  0
 20 50  1  0
 22 51  1  0
 23 52  1  0
 25 53  1  0
 28 54  1  0
 29 55  1  0
M  END
>  <smiles>  (22) 
O=C(NCC(=O)N1CCCC[C@H]1COc1ccccc1)c1ccc2cc(F)ccc2n1

>  <score_type>  (22) 
oracle

>  <origin>  (22) 
autodockgpu

>  <m_score__min__energy>  (22) 
-8.7799999999999994

>  <m_primary>  (22) 
energy

>  <rmsd>  (22) 
2.225313910941265

>  <m_score__min__rmsd>  (22) 
2.225313910941265

>  <meeko>  (22) 
{"free_energy": -8.12, "intermolecular_energy": -10.21, "internal_energy": -1.88, "cluster_size": 28, "cluster_id": 1, "rank_in_cluster": 21}

>  <energy>  (22) 
-8.09

>  <cluster_rmsd>  (22) 
1.61

>  <cluster>  (22) 
1

$$$$

     RDKit          3D

 55 58  0  0  0  0  0  0  0  0999 V2000
  139.0410   70.9340  221.5520 O   0  0  0  0  0  0  0  0  0  0  0  0
  139.3900   71.3380  222.6960 C   0  0  0  0  0  0  0  0  0  0  0  0
  139.6150   72.7610  222.7920 N   0  0  0  0  0  0  0  0  0  0  0  0
  139.4600   73.6180  221.6710 C   0  0  0  0  0  0  0  0  0  0  0  0
  140.2440   74.8310  221.5120 C   0  0  0  0  0  0  0  0  0  0  0  0
  141.4690   74.6760  221.9720 O   0  0  0  0  0  0  0  0  0  0  0  0
  139.9830   76.0850  220.9860 N   0  0  0  0  0  0  0  0  0  0  0  0
  139.2760   77.1720  221.7260 C   0  0  0  0  0  0  0  0  0  0  0  0
  140.2360   78.2860  221.9720 C   0  0  0  0  0  0  0  0  0  0  0  0
  141.5090   78.0510  221.1450 C   0  0  0  0  0  0  0  0  0  0  0  0
  141.0180   77.8450  219.7390 C   0  0  0  0  0  0  0  0  0  0  0  0
  140.3540   76.5190  219.6290 C   0  0  1  0  0  0  0  0  0  0  0  0
  141.0660   75.5520  218.7800 C   0  0  0  0  0  0  0  0  0  0  0  0
  142.3960   75.4160  219.1020 O   0  0  0  0  0  0  0  0  0  0  0  0
  143.1930   74.5030  219.6580 C   0  0  0  0  0  0  0  0  0  0  0  0
  144.4320   74.9610  220.1630 C   0  0  0  0  0  0  0  0  0  0  0  0
  145.3300   74.1120  220.7560 C   0  0  0  0  0  0  0  0  0  0  0  0
  145.0680   72.7680  220.8900 C   0  0  0  0  0  0  0  0  0  0  0  0
  143.8700   72.2910  220.4090 C   0  0  0  0  0  0  0  0  0  0  0  0
  142.9740   73.1530  219.8140 C   0  0  0  0  0  0  0  0  0  0  0  0
  139.5610   70.4730  223.8440 C   0  0  0  0  0  0  0  0  0  0  0  0
  139.1420   69.1640  223.7590 C   0  0  0  0  0  0  0  0  0  0  0  0
  139.2910   68.3010  224.8470 C   0  0  0  0  0  0  0  0  0  0  0  0
  139.8750   68.8280  226.0020 C   0  0  0  0  0  0  0  0  0  0  0  0
  140.0540   68.0200  227.1290 C   0  0  0  0  0  0  0  0  0  0  0  0
  140.6380   68.5460  228.2820 C   0  0  0  0  0  0  0  0  0  0  0  0
  140.8130   67.7660  229.3740 F   0  0  0  0  0  0  0  0  0  0  0  0
  141.0480   69.8650  228.3350 C   0  0  0  0  0  0  0  0  0  0  0  0
  140.8610   70.6450  227.2120 C   0  0  0  0  0  0  0  0  0  0  0  0
  140.2880   70.1540  226.0580 C   0  0  0  0  0  0  0  0  0  0  0  0
  140.1170   70.9320  224.9800 N   0  0  0  0  0  0  0  0  0  0  0  0
  139.9020   73.0820  223.7650 H   0  0  0  0  0  0  0  0  0  0  0  0
  139.6633   73.0019  220.7827 H   0  0  0  0  0  0  0  0  0  0  0  0
  138.4470   74.0178  221.8257 H   0  0  0  0  0  0  0  0  0  0  0  0
  138.4298   77.5383  221.1261 H   0  0  0  0  0  0  0  0  0  0  0  0
  138.8954   76.7871  222.6836 H   0  0  0  0  0  0  0  0  0  0  0  0
  139.7758   79.2400  221.6751 H   0  0  0  0  0  0  0  0  0  0  0  0
  140.4925   78.3221  223.0411 H   0  0  0  0  0  0  0  0  0  0  0  0
  142.1739   78.9256  221.1995 H   0  0  0  0  0  0  0  0  0  0  0  0
  142.0915   77.1932  221.5123 H   0  0  0  0  0  0  0  0  0  0  0  0
  140.2983   78.6366  219.4834 H   0  0  0  0  0  0  0  0  0  0  0  0
  141.8713   77.8836  219.0459 H   0  0  0  0  0  0  0  0  0  0  0  0
  139.4204   76.6024  219.0534 H   0  0  0  0  0  0  0  0  0  0  0  0
  140.5798   74.5710  218.8860 H   0  0  0  0  0  0  0  0  0  0  0  0
  141.0194   75.9306  217.7483 H   0  0  0  0  0  0  0  0  0  0  0  0
  144.6822   76.0288  220.0775 H   0  0  0  0  0  0  0  0  0  0  0  0
  146.2817   74.5143  221.1333 H   0  0  0  0  0  0  0  0  0  0  0  0
  145.7948   72.0944  221.3676 H   0  0  0  0  0  0  0  0  0  0  0  0
  143.6275   71.2219  220.4994 H   0  0  0  0  0  0  0  0  0  0  0  0
  142.0265   72.7369  219.4412 H   0  0  0  0  0  0  0  0  0  0  0  0
  138.6868   68.7955  222.8279 H   0  0  0  0  0  0  0  0  0  0  0  0
  138.9630   67.2522  224.7969 H   0  0  0  0  0  0  0  0  0  0  0  0
  139.7339   66.9678  227.1067 H   0  0  0  0  0  0  0  0  0  0  0  0
  141.5088   70.2798  229.2436 H   0  0  0  0  0  0  0  0  0  0  0  0
  141.1808   71.6971  227.2385 H   0  0  0  0  0  0  0  0  0  0  0  0
  1  2  2  0
  2  3  1  0
  3  4  1  0
  4  5  1  0
  5  6  2  0
  5  7  1  0
  7  8  1  0
  8  9  1  0
  9 10  1  0
 10 11  1  0
 11 12  1  0
 12 13  1  0
 13 14  1  0
 14 15  1  0
 15 16  2  0
 16 17  1  0
 17 18  2  0
 18 19  1  0
 19 20  2  0
  2 21  1  0
 21 22  2  0
 22 23  1  0
 23 24  2  0
 24 25  1  0
 25 26  2  0
 26 27  1  0
 26 28  1  0
 28 29  2  0
 29 30  1  0
 30 31  2  0
 12  7  1  0
 20 15  1  0
 31 21  1  0
 30 24  1  0
  3 32  1  0
  4 33  1  0
  4 34  1  0
  8 35  1  0
  8 36  1  0
  9 37  1  0
  9 38  1  0
 10 39  1  0
 10 40  1  0
 11 41  1  0
 11 42  1  0
 12 43  1  6
 13 44  1  0
 13 45  1  0
 16 46  1  0
 17 47  1  0
 18 48  1  0
 19 49  1  0
 20 50  1  0
 22 51  1  0
 23 52  1  0
 25 53  1  0
 28 54  1  0
 29 55  1  0
M  END
>  <smiles>  (23) 
O=C(NCC(=O)N1CCCC[C@H]1COc1ccccc1)c1ccc2cc(F)ccc2n1

>  <score_type>  (23) 
oracle

>  <origin>  (23) 
autodockgpu

>  <m_score__min__energy>  (23) 
-8.7799999999999994

>  <m_primary>  (23) 
energy

>  <rmsd>  (23) 
2.239552029167012

>  <m_score__min__rmsd>  (23) 
2.239552029167012

>  <meeko>  (23) 
{"free_energy": -7.61, "intermolecular_energy": -9.7, "internal_energy": -2.15, "cluster_size": 16, "cluster_id": 2, "rank_in_cluster": 9}

>  <energy>  (23) 
-8.05

>  <cluster_rmsd>  (23) 
0.79

>  <cluster>  (23) 
1

$$$$

     RDKit          3D

 55 58  0  0  0  0  0  0  0  0999 V2000
  140.7100   71.9290  221.1510 O   0  0  0  0  0  0  0  0  0  0  0  0
  140.2710   72.3040  222.2740 C   0  0  0  0  0  0  0  0  0  0  0  0
  139.8680   73.6900  222.3330 N   0  0  0  0  0  0  0  0  0  0  0  0
  139.9770   74.5460  221.2070 C   0  0  0  0  0  0  0  0  0  0  0  0
  139.1460   75.7290  221.0530 C   0  0  0  0  0  0  0  0  0  0  0  0
  137.8800   75.4080  220.8790 O   0  0  0  0  0  0  0  0  0  0  0  0
  139.3970   77.0900  221.0560 N   0  0  0  0  0  0  0  0  0  0  0  0
  139.0380   78.0050  222.1810 C   0  0  0  0  0  0  0  0  0  0  0  0
  140.2930   78.5190  222.7990 C   0  0  0  0  0  0  0  0  0  0  0  0
  141.4850   78.1610  221.9000 C   0  0  0  0  0  0  0  0  0  0  0  0
  141.1080   78.6820  220.5410 C   0  0  0  0  0  0  0  0  0  0  0  0
  140.0400   77.8280  219.9560 C   0  0  1  0  0  0  0  0  0  0  0  0
  140.4580   77.0550  218.7770 C   0  0  0  0  0  0  0  0  0  0  0  0
  141.7770   76.6700  218.8150 O   0  0  0  0  0  0  0  0  0  0  0  0
  142.4910   75.6150  219.2100 C   0  0  0  0  0  0  0  0  0  0  0  0
  143.6650   75.8800  219.9520 C   0  0  0  0  0  0  0  0  0  0  0  0
  144.4740   74.8740  220.4110 C   0  0  0  0  0  0  0  0  0  0  0  0
  144.1830   73.5500  220.1690 C   0  0  0  0  0  0  0  0  0  0  0  0
  143.0480   73.2590  219.4490 C   0  0  0  0  0  0  0  0  0  0  0  0
  142.2400   74.2790  218.9920 C   0  0  0  0  0  0  0  0  0  0  0  0
  140.1640   71.4430  223.4330 C   0  0  0  0  0  0  0  0  0  0  0  0
  139.5840   70.2030  223.2880 C   0  0  0  0  0  0  0  0  0  0  0  0
  139.4640   69.3450  224.3840 C   0  0  0  0  0  0  0  0  0  0  0  0
  139.9550   69.8060  225.6090 C   0  0  0  0  0  0  0  0  0  0  0  0
  139.8670   68.9990  226.7470 C   0  0  0  0  0  0  0  0  0  0  0  0
  140.3570   69.4580  227.9700 C   0  0  0  0  0  0  0  0  0  0  0  0
  140.2740   68.6800  229.0740 F   0  0  0  0  0  0  0  0  0  0  0  0
  140.9350   70.7100  228.0820 C   0  0  0  0  0  0  0  0  0  0  0  0
  141.0110   71.4900  226.9450 C   0  0  0  0  0  0  0  0  0  0  0  0
  140.5360   71.0630  225.7230 C   0  0  0  0  0  0  0  0  0  0  0  0
  140.6210   71.8400  224.6340 N   0  0  0  0  0  0  0  0  0  0  0  0
  139.4950   73.9850  223.2850 H   0  0  0  0  0  0  0  0  0  0  0  0
  141.0191   74.8976  221.1878 H   0  0  0  0  0  0  0  0  0  0  0  0
  139.6138   73.9021  220.3925 H   0  0  0  0  0  0  0  0  0  0  0  0
  138.4426   78.8468  221.7977 H   0  0  0  0  0  0  0  0  0  0  0  0
  138.4464   77.4609  222.9320 H   0  0  0  0  0  0  0  0  0  0  0  0
  140.2289   79.6119  222.9063 H   0  0  0  0  0  0  0  0  0  0  0  0
  140.4292   78.0626  223.7905 H   0  0  0  0  0  0  0  0  0  0  0  0
  142.4031   78.6476  222.2610 H   0  0  0  0  0  0  0  0  0  0  0  0
  141.6886   77.0801  221.8896 H   0  0  0  0  0  0  0  0  0  0  0  0
  140.7406   79.7146  220.6341 H   0  0  0  0  0  0  0  0  0  0  0  0
  141.9909   78.6621  219.8851 H   0  0  0  0  0  0  0  0  0  0  0  0
  139.2620   78.4507  219.4903 H   0  0  0  0  0  0  0  0  0  0  0  0
  139.8331   76.1520  218.7129 H   0  0  0  0  0  0  0  0  0  0  0  0
  140.3361   77.7087  217.9008 H   0  0  0  0  0  0  0  0  0  0  0  0
  143.9367   76.9240  220.1670 H   0  0  0  0  0  0  0  0  0  0  0  0
  145.3763   75.1297  220.9858 H   0  0  0  0  0  0  0  0  0  0  0  0
  144.8389   72.7489  220.5406 H   0  0  0  0  0  0  0  0  0  0  0  0
  142.7845   72.2122  219.2375 H   0  0  0  0  0  0  0  0  0  0  0  0
  141.3409   74.0088  218.4188 H   0  0  0  0  0  0  0  0  0  0  0  0
  139.2125   69.8856  222.3025 H   0  0  0  0  0  0  0  0  0  0  0  0
  139.0035   68.3507  224.2873 H   0  0  0  0  0  0  0  0  0  0  0  0
  139.4107   68.0005  226.6781 H   0  0  0  0  0  0  0  0  0  0  0  0
  141.3216   71.0725  229.0459 H   0  0  0  0  0  0  0  0  0  0  0  0
  141.4671   72.4884  227.0168 H   0  0  0  0  0  0  0  0  0  0  0  0
  1  2  2  0
  2  3  1  0
  3  4  1  0
  4  5  1  0
  5  6  2  0
  5  7  1  0
  7  8  1  0
  8  9  1  0
  9 10  1  0
 10 11  1  0
 11 12  1  0
 12 13  1  0
 13 14  1  0
 14 15  1  0
 15 16  2  0
 16 17  1  0
 17 18  2  0
 18 19  1  0
 19 20  2  0
  2 21  1  0
 21 22  2  0
 22 23  1  0
 23 24  2  0
 24 25  1  0
 25 26  2  0
 26 27  1  0
 26 28  1  0
 28 29  2  0
 29 30  1  0
 30 31  2  0
 12  7  1  0
 20 15  1  0
 31 21  1  0
 30 24  1  0
  3 32  1  0
  4 33  1  0
  4 34  1  0
  8 35  1  0
  8 36  1  0
  9 37  1  0
  9 38  1  0
 10 39  1  0
 10 40  1  0
 11 41  1  0
 11 42  1  0
 12 43  1  6
 13 44  1  0
 13 45  1  0
 16 46  1  0
 17 47  1  0
 18 48  1  0
 19 49  1  0
 20 50  1  0
 22 51  1  0
 23 52  1  0
 25 53  1  0
 28 54  1  0
 29 55  1  0
M  END
>  <smiles>  (24) 
O=C(NCC(=O)N1CCCC[C@H]1COc1ccccc1)c1ccc2cc(F)ccc2n1

>  <score_type>  (24) 
oracle

>  <origin>  (24) 
autodockgpu

>  <m_score__min__energy>  (24) 
-8.7799999999999994

>  <m_primary>  (24) 
energy

>  <rmsd>  (24) 
2.7108213782017216

>  <m_score__min__rmsd>  (24) 
2.7108213782017216

>  <meeko>  (24) 
{"free_energy": -7.04, "intermolecular_energy": -9.12, "internal_energy": -2.09, "cluster_size": 16, "cluster_id": 2, "rank_in_cluster": 16}

>  <energy>  (24) 
-8.02

>  <cluster_rmsd>  (24) 
0.74

>  <cluster>  (24) 
1

$$$$

     RDKit          3D

 55 58  0  0  0  0  0  0  0  0999 V2000
  139.9110   71.5060  221.0990 O   0  0  0  0  0  0  0  0  0  0  0  0
  139.7130   71.9150  222.2780 C   0  0  0  0  0  0  0  0  0  0  0  0
  139.4080   73.3220  222.3860 N   0  0  0  0  0  0  0  0  0  0  0  0
  139.3510   74.1630  221.2450 C   0  0  0  0  0  0  0  0  0  0  0  0
  140.3560   75.1780  220.9820 C   0  0  0  0  0  0  0  0  0  0  0  0
  141.3570   75.0970  221.8360 O   0  0  0  0  0  0  0  0  0  0  0  0
  140.4850   76.1870  220.0420 N   0  0  0  0  0  0  0  0  0  0  0  0
  140.1860   77.6250  220.3120 C   0  0  0  0  0  0  0  0  0  0  0  0
  141.4570   78.4000  220.2360 C   0  0  0  0  0  0  0  0  0  0  0  0
  142.5580   77.5120  219.6370 C   0  0  0  0  0  0  0  0  0  0  0  0
  141.9730   76.9940  218.3520 C   0  0  0  0  0  0  0  0  0  0  0  0
  140.9210   75.9870  218.6510 C   0  0  1  0  0  0  0  0  0  0  0  0
  141.2580   74.6160  218.2380 C   0  0  0  0  0  0  0  0  0  0  0  0
  141.8640   73.8800  219.2280 O   0  0  0  0  0  0  0  0  0  0  0  0
  143.0720   73.7700  219.7840 C   0  0  0  0  0  0  0  0  0  0  0  0
  143.4410   72.4910  220.2610 C   0  0  0  0  0  0  0  0  0  0  0  0
  144.6570   72.2620  220.8490 C   0  0  0  0  0  0  0  0  0  0  0  0
  145.5820   73.2690  221.0050 C   0  0  0  0  0  0  0  0  0  0  0  0
  145.2530   74.5250  220.5510 C   0  0  0  0  0  0  0  0  0  0  0  0
  144.0270   74.7460  219.9600 C   0  0  0  0  0  0  0  0  0  0  0  0
  139.7790   71.0690  223.4510 C   0  0  0  0  0  0  0  0  0  0  0  0
  139.3140   69.7760  223.3650 C   0  0  0  0  0  0  0  0  0  0  0  0
  139.3610   68.9310  224.4770 C   0  0  0  0  0  0  0  0  0  0  0  0
  139.8950   69.4610  225.6550 C   0  0  0  0  0  0  0  0  0  0  0  0
  139.9720   68.6710  226.8060 C   0  0  0  0  0  0  0  0  0  0  0  0
  140.5060   69.1980  227.9830 C   0  0  0  0  0  0  0  0  0  0  0  0
  140.5820   68.4370  229.0990 F   0  0  0  0  0  0  0  0  0  0  0  0
  140.9650   70.5020  228.0350 C   0  0  0  0  0  0  0  0  0  0  0  0
  140.8780   71.2640  226.8880 C   0  0  0  0  0  0  0  0  0  0  0  0
  140.3570   70.7700  225.7100 C   0  0  0  0  0  0  0  0  0  0  0  0
  140.2830   71.5310  224.6090 N   0  0  0  0  0  0  0  0  0  0  0  0
  139.2390   73.6450  223.3860 H   0  0  0  0  0  0  0  0  0  0  0  0
  139.3527   73.4953  220.3708 H   0  0  0  0  0  0  0  0  0  0  0  0
  138.4590   74.7721  221.4534 H   0  0  0  0  0  0  0  0  0  0  0  0
  139.4766   78.0029  219.5610 H   0  0  0  0  0  0  0  0  0  0  0  0
  139.7400   77.7337  221.3116 H   0  0  0  0  0  0  0  0  0  0  0  0
  141.3106   79.2843  219.5983 H   0  0  0  0  0  0  0  0  0  0  0  0
  141.7525   78.7231  221.2451 H   0  0  0  0  0  0  0  0  0  0  0  0
  143.4666   78.1000  219.4404 H   0  0  0  0  0  0  0  0  0  0  0  0
  142.8538   76.6997  220.3171 H   0  0  0  0  0  0  0  0  0  0  0  0
  141.5306   77.8289  217.7888 H   0  0  0  0  0  0  0  0  0  0  0  0
  142.7673   76.5245  217.7531 H   0  0  0  0  0  0  0  0  0  0  0  0
  140.0398   76.1504  218.0132 H   0  0  0  0  0  0  0  0  0  0  0  0
  140.3310   74.1038  217.9409 H   0  0  0  0  0  0  0  0  0  0  0  0
  141.9749   74.6945  217.4074 H   0  0  0  0  0  0  0  0  0  0  0  0
  142.7318   71.6566  220.1570 H   0  0  0  0  0  0  0  0  0  0  0  0
  144.8997   71.2498  221.2047 H   0  0  0  0  0  0  0  0  0  0  0  0
  146.5556   73.0751  221.4788 H   0  0  0  0  0  0  0  0  0  0  0  0
  145.9683   75.3536  220.6594 H   0  0  0  0  0  0  0  0  0  0  0  0
  143.7983   75.7628  219.6082 H   0  0  0  0  0  0  0  0  0  0  0  0
  138.9026   69.4055  222.4145 H   0  0  0  0  0  0  0  0  0  0  0  0
  138.9942   67.8951  224.4275 H   0  0  0  0  0  0  0  0  0  0  0  0
  139.6110   67.6321  226.7839 H   0  0  0  0  0  0  0  0  0  0  0  0
  141.3862   70.9184  228.9619 H   0  0  0  0  0  0  0  0  0  0  0  0
  141.2372   72.3034  226.9138 H   0  0  0  0  0  0  0  0  0  0  0  0
  1  2  2  0
  2  3  1  0
  3  4  1  0
  4  5  1  0
  5  6  2  0
  5  7  1  0
  7  8  1  0
  8  9  1  0
  9 10  1  0
 10 11  1  0
 11 12  1  0
 12 13  1  0
 13 14  1  0
 14 15  1  0
 15 16  2  0
 16 17  1  0
 17 18  2  0
 18 19  1  0
 19 20  2  0
  2 21  1  0
 21 22  2  0
 22 23  1  0
 23 24  2  0
 24 25  1  0
 25 26  2  0
 26 27  1  0
 26 28  1  0
 28 29  2  0
 29 30  1  0
 30 31  2  0
 12  7  1  0
 20 15  1  0
 31 21  1  0
 30 24  1  0
  3 32  1  0
  4 33  1  0
  4 34  1  0
  8 35  1  0
  8 36  1  0
  9 37  1  0
  9 38  1  0
 10 39  1  0
 10 40  1  0
 11 41  1  0
 11 42  1  0
 12 43  1  6
 13 44  1  0
 13 45  1  0
 16 46  1  0
 17 47  1  0
 18 48  1  0
 19 49  1  0
 20 50  1  0
 22 51  1  0
 23 52  1  0
 25 53  1  0
 28 54  1  0
 29 55  1  0
M  END
>  <smiles>  (25) 
O=C(NCC(=O)N1CCCC[C@H]1COc1ccccc1)c1ccc2cc(F)ccc2n1

>  <score_type>  (25) 
oracle

>  <origin>  (25) 
autodockgpu

>  <m_score__min__energy>  (25) 
-8.7799999999999994

>  <m_primary>  (25) 
energy

>  <rmsd>  (25) 
2.0255640315217867

>  <m_score__min__rmsd>  (25) 
2.0255640315217867

>  <meeko>  (25) 
{"free_energy": -7.53, "intermolecular_energy": -9.62, "internal_energy": -2.07, "cluster_size": 16, "cluster_id": 2, "rank_in_cluster": 12}

>  <energy>  (25) 
-8.01

>  <cluster_rmsd>  (25) 
1.53

>  <cluster>  (25) 
1

$$$$

     RDKit          3D

 55 58  0  0  0  0  0  0  0  0999 V2000
  140.7660   73.4260  222.3300 O   0  0  0  0  0  0  0  0  0  0  0  0
  139.9380   72.4820  222.4620 C   0  0  0  0  0  0  0  0  0  0  0  0
  138.9480   72.3970  221.4150 N   0  0  0  0  0  0  0  0  0  0  0  0
  138.9200   73.3180  220.3360 C   0  0  0  0  0  0  0  0  0  0  0  0
  138.5000   74.6980  220.5110 C   0  0  0  0  0  0  0  0  0  0  0  0
  137.1900   74.7920  220.6230 O   0  0  0  0  0  0  0  0  0  0  0  0
  139.1700   75.9070  220.5880 N   0  0  0  0  0  0  0  0  0  0  0  0
  138.7210   77.0610  221.4240 C   0  0  0  0  0  0  0  0  0  0  0  0
  139.7170   77.2810  222.5110 C   0  0  0  0  0  0  0  0  0  0  0  0
  140.9730   76.4450  222.2250 C   0  0  0  0  0  0  0  0  0  0  0  0
  141.3690   76.8200  220.8230 C   0  0  0  0  0  0  0  0  0  0  0  0
  140.4050   76.2310  219.8560 C   0  0  1  0  0  0  0  0  0  0  0  0
  140.9740   75.1850  218.9930 C   0  0  0  0  0  0  0  0  0  0  0  0
  141.5640   74.1590  219.6920 O   0  0  0  0  0  0  0  0  0  0  0  0
  142.7880   73.7970  220.0770 C   0  0  0  0  0  0  0  0  0  0  0  0
  143.7770   74.8070  220.0910 C   0  0  0  0  0  0  0  0  0  0  0  0
  145.0690   74.5490  220.4710 C   0  0  0  0  0  0  0  0  0  0  0  0
  145.4680   73.2900  220.8560 C   0  0  0  0  0  0  0  0  0  0  0  0
  144.5290   72.2850  220.8530 C   0  0  0  0  0  0  0  0  0  0  0  0
  143.2320   72.5550  220.4710 C   0  0  0  0  0  0  0  0  0  0  0  0
  139.9500   71.5420  223.5620 C   0  0  0  0  0  0  0  0  0  0  0  0
  139.4190   70.2860  223.3690 C   0  0  0  0  0  0  0  0  0  0  0  0
  139.4140   69.3530  224.4090 C   0  0  0  0  0  0  0  0  0  0  0  0
  139.9640   69.7560  225.6290 C   0  0  0  0  0  0  0  0  0  0  0  0
  139.9910   68.8720  226.7110 C   0  0  0  0  0  0  0  0  0  0  0  0
  140.5420   69.2730  227.9290 C   0  0  0  0  0  0  0  0  0  0  0  0
  140.5700   68.4200  228.9800 F   0  0  0  0  0  0  0  0  0  0  0  0
  141.0670   70.5420  228.0900 C   0  0  0  0  0  0  0  0  0  0  0  0
  141.0300   71.3990  227.0080 C   0  0  0  0  0  0  0  0  0  0  0  0
  140.4930   71.0310  225.7920 C   0  0  0  0  0  0  0  0  0  0  0  0
  140.4680   71.8810  224.7560 N   0  0  0  0  0  0  0  0  0  0  0  0
  138.2640   71.5910  221.5410 H   0  0  0  0  0  0  0  0  0  0  0  0
  139.9446   73.3564  219.9376 H   0  0  0  0  0  0  0  0  0  0  0  0
  138.1157   72.9104  219.7059 H   0  0  0  0  0  0  0  0  0  0  0  0
  138.6488   77.9640  220.8000 H   0  0  0  0  0  0  0  0  0  0  0  0
  137.7336   76.8466  221.8587 H   0  0  0  0  0  0  0  0  0  0  0  0
  139.9864   78.3467  222.5524 H   0  0  0  0  0  0  0  0  0  0  0  0
  139.2835   76.9769  223.4752 H   0  0  0  0  0  0  0  0  0  0  0  0
  141.7754   76.6947  222.9348 H   0  0  0  0  0  0  0  0  0  0  0  0
  140.7883   75.3658  222.3312 H   0  0  0  0  0  0  0  0  0  0  0  0
  141.3649   77.9154  220.7224 H   0  0  0  0  0  0  0  0  0  0  0  0
  142.3775   76.4339  220.6134 H   0  0  0  0  0  0  0  0  0  0  0  0
  140.1353   76.9674  219.0846 H   0  0  0  0  0  0  0  0  0  0  0  0
  140.1663   74.7660  218.3749 H   0  0  0  0  0  0  0  0  0  0  0  0
  141.7605   75.6579  218.3866 H   0  0  0  0  0  0  0  0  0  0  0  0
  143.5024   75.8284  219.7886 H   0  0  0  0  0  0  0  0  0  0  0  0
  145.8035   75.3678  220.4679 H   0  0  0  0  0  0  0  0  0  0  0  0
  146.5074   73.0929  221.1574 H   0  0  0  0  0  0  0  0  0  0  0  0
  144.8127   71.2661  221.1553 H   0  0  0  0  0  0  0  0  0  0  0  0
  142.5077   71.7272  220.4817 H   0  0  0  0  0  0  0  0  0  0  0  0
  138.9963   70.0157  222.3901 H   0  0  0  0  0  0  0  0  0  0  0  0
  138.9953   68.3449  224.2734 H   0  0  0  0  0  0  0  0  0  0  0  0
  139.5773   67.8585  226.6026 H   0  0  0  0  0  0  0  0  0  0  0  0
  141.5006   70.8589  229.0500 H   0  0  0  0  0  0  0  0  0  0  0  0
  141.4438   72.4120  227.1199 H   0  0  0  0  0  0  0  0  0  0  0  0
  1  2  2  0
  2  3  1  0
  3  4  1  0
  4  5  1  0
  5  6  2  0
  5  7  1  0
  7  8  1  0
  8  9  1  0
  9 10  1  0
 10 11  1  0
 11 12  1  0
 12 13  1  0
 13 14  1  0
 14 15  1  0
 15 16  2  0
 16 17  1  0
 17 18  2  0
 18 19  1  0
 19 20  2  0
  2 21  1  0
 21 22  2  0
 22 23  1  0
 23 24  2  0
 24 25  1  0
 25 26  2  0
 26 27  1  0
 26 28  1  0
 28 29  2  0
 29 30  1  0
 30 31  2  0
 12  7  1  0
 20 15  1  0
 31 21  1  0
 30 24  1  0
  3 32  1  0
  4 33  1  0
  4 34  1  0
  8 35  1  0
  8 36  1  0
  9 37  1  0
  9 38  1  0
 10 39  1  0
 10 40  1  0
 11 41  1  0
 11 42  1  0
 12 43  1  6
 13 44  1  0
 13 45  1  0
 16 46  1  0
 17 47  1  0
 18 48  1  0
 19 49  1  0
 20 50  1  0
 22 51  1  0
 23 52  1  0
 25 53  1  0
 28 54  1  0
 29 55  1  0
M  END
>  <smiles>  (26) 
O=C(NCC(=O)N1CCCC[C@H]1COc1ccccc1)c1ccc2cc(F)ccc2n1

>  <score_type>  (26) 
oracle

>  <origin>  (26) 
autodockgpu

>  <m_score__min__energy>  (26) 
-8.7799999999999994

>  <m_primary>  (26) 
energy

>  <rmsd>  (26) 
2.402031962189311

>  <m_score__min__rmsd>  (26) 
2.402031962189311

>  <meeko>  (26) 
{"free_energy": -7.42, "intermolecular_energy": -9.51, "internal_energy": -2.09, "cluster_size": 16, "cluster_id": 2, "rank_in_cluster": 13}

>  <energy>  (26) 
-7.97

>  <cluster_rmsd>  (26) 
1.43

>  <cluster>  (26) 
1

$$$$

     RDKit          3D

 55 58  0  0  0  0  0  0  0  0999 V2000
  138.8740   71.9780  221.4660 O   0  0  0  0  0  0  0  0  0  0  0  0
  139.7240   72.0070  222.3990 C   0  0  0  0  0  0  0  0  0  0  0  0
  140.7590   73.0010  222.2430 N   0  0  0  0  0  0  0  0  0  0  0  0
  140.8040   73.8610  221.1150 C   0  0  0  0  0  0  0  0  0  0  0  0
  142.0090   74.5800  220.7390 C   0  0  0  0  0  0  0  0  0  0  0  0
  143.0930   73.8920  221.0360 O   0  0  0  0  0  0  0  0  0  0  0  0
  142.2540   75.8060  220.1440 N   0  0  0  0  0  0  0  0  0  0  0  0
  143.2630   76.0250  219.0650 C   0  0  0  0  0  0  0  0  0  0  0  0
  142.5480   76.3870  217.8070 C   0  0  0  0  0  0  0  0  0  0  0  0
  141.0760   76.6810  218.1280 C   0  0  0  0  0  0  0  0  0  0  0  0
  141.1220   77.7050  219.2280 C   0  0  0  0  0  0  0  0  0  0  0  0
  141.5680   77.0610  220.4920 C   0  0  1  0  0  0  0  0  0  0  0  0
  140.5370   77.0000  221.5400 C   0  0  0  0  0  0  0  0  0  0  0  0
  140.8920   77.6570  222.6950 O   0  0  0  0  0  0  0  0  0  0  0  0
  141.2220   78.8930  223.0710 C   0  0  0  0  0  0  0  0  0  0  0  0
  142.6000   79.2110  223.0780 C   0  0  0  0  0  0  0  0  0  0  0  0
  143.0540   80.4510  223.4460 C   0  0  0  0  0  0  0  0  0  0  0  0
  142.1880   81.4500  223.8270 C   0  0  0  0  0  0  0  0  0  0  0  0
  140.8410   81.1720  223.8300 C   0  0  0  0  0  0  0  0  0  0  0  0
  140.3940   79.9210  223.4590 C   0  0  0  0  0  0  0  0  0  0  0  0
  139.6940   71.1290  223.5500 C   0  0  0  0  0  0  0  0  0  0  0  0
  138.9970   69.9450  223.4650 C   0  0  0  0  0  0  0  0  0  0  0  0
  138.9470   69.0740  224.5570 C   0  0  0  0  0  0  0  0  0  0  0  0
  139.6280   69.4630  225.7130 C   0  0  0  0  0  0  0  0  0  0  0  0
  139.6200   68.6390  226.8420 C   0  0  0  0  0  0  0  0  0  0  0  0
  140.3000   69.0270  227.9970 C   0  0  0  0  0  0  0  0  0  0  0  0
  140.2940   68.2320  229.0920 F   0  0  0  0  0  0  0  0  0  0  0  0
  140.9910   70.2240  228.0490 C   0  0  0  0  0  0  0  0  0  0  0  0
  140.9850   71.0220  226.9230 C   0  0  0  0  0  0  0  0  0  0  0  0
  140.3230   70.6660  225.7680 C   0  0  0  0  0  0  0  0  0  0  0  0
  140.3330   71.4580  224.6870 N   0  0  0  0  0  0  0  0  0  0  0  0
  141.4610   73.0140  223.0420 H   0  0  0  0  0  0  0  0  0  0  0  0
  140.5312   73.2433  220.2466 H   0  0  0  0  0  0  0  0  0  0  0  0
  140.1357   74.6786  221.4230 H   0  0  0  0  0  0  0  0  0  0  0  0
  143.9415   76.8415  219.3531 H   0  0  0  0  0  0  0  0  0  0  0  0
  143.8514   75.1085  218.9109 H   0  0  0  0  0  0  0  0  0  0  0  0
  143.0130   77.2799  217.3637 H   0  0  0  0  0  0  0  0  0  0  0  0
  142.6104   75.5519  217.0938 H   0  0  0  0  0  0  0  0  0  0  0  0
  140.5593   77.0839  217.2444 H   0  0  0  0  0  0  0  0  0  0  0  0
  140.5261   75.7758  218.4250 H   0  0  0  0  0  0  0  0  0  0  0  0
  141.8277   78.5035  218.9553 H   0  0  0  0  0  0  0  0  0  0  0  0
  140.1186   78.1326  219.3706 H   0  0  0  0  0  0  0  0  0  0  0  0
  142.3040   77.6957  221.0072 H   0  0  0  0  0  0  0  0  0  0  0  0
  139.6152   77.4555  221.1491 H   0  0  0  0  0  0  0  0  0  0  0  0
  140.3997   75.9397  221.7989 H   0  0  0  0  0  0  0  0  0  0  0  0
  143.3278   78.4419  222.7799 H   0  0  0  0  0  0  0  0  0  0  0  0
  144.1354   80.6520  223.4365 H   0  0  0  0  0  0  0  0  0  0  0  0
  142.5620   82.4419  224.1206 H   0  0  0  0  0  0  0  0  0  0  0  0
  140.1201   81.9474  224.1283 H   0  0  0  0  0  0  0  0  0  0  0  0
  139.3101   79.7339  223.4743 H   0  0  0  0  0  0  0  0  0  0  0  0
  138.4763   69.6828  222.5322 H   0  0  0  0  0  0  0  0  0  0  0  0
  138.3954   68.1235  224.5083 H   0  0  0  0  0  0  0  0  0  0  0  0
  139.0766   67.6828  226.8199 H   0  0  0  0  0  0  0  0  0  0  0  0
  141.5282   70.5302  228.9588 H   0  0  0  0  0  0  0  0  0  0  0  0
  141.5289   71.9778  226.9485 H   0  0  0  0  0  0  0  0  0  0  0  0
  1  2  2  0
  2  3  1  0
  3  4  1  0
  4  5  1  0
  5  6  2  0
  5  7  1  0
  7  8  1  0
  8  9  1  0
  9 10  1  0
 10 11  1  0
 11 12  1  0
 12 13  1  0
 13 14  1  0
 14 15  1  0
 15 16  2  0
 16 17  1  0
 17 18  2  0
 18 19  1  0
 19 20  2  0
  2 21  1  0
 21 22  2  0
 22 23  1  0
 23 24  2  0
 24 25  1  0
 25 26  2  0
 26 27  1  0
 26 28  1  0
 28 29  2  0
 29 30  1  0
 30 31  2  0
 12  7  1  0
 20 15  1  0
 31 21  1  0
 30 24  1  0
  3 32  1  0
  4 33  1  0
  4 34  1  0
  8 35  1  0
  8 36  1  0
  9 37  1  0
  9 38  1  0
 10 39  1  0
 10 40  1  0
 11 41  1  0
 11 42  1  0
 12 43  1  1
 13 44  1  0
 13 45  1  0
 16 46  1  0
 17 47  1  0
 18 48  1  0
 19 49  1  0
 20 50  1  0
 22 51  1  0
 23 52  1  0
 25 53  1  0
 28 54  1  0
 29 55  1  0
M  END
>  <smiles>  (27) 
O=C(NCC(=O)N1CCCC[C@H]1COc1ccccc1)c1ccc2cc(F)ccc2n1

>  <score_type>  (27) 
oracle

>  <origin>  (27) 
autodockgpu

>  <m_score__min__energy>  (27) 
-8.7799999999999994

>  <m_primary>  (27) 
energy

>  <rmsd>  (27) 
2.308630254994815

>  <m_score__min__rmsd>  (27) 
2.308630254994815

>  <meeko>  (27) 
{"free_energy": -8.02, "intermolecular_energy": -10.11, "internal_energy": -1.64, "cluster_size": 28, "cluster_id": 1, "rank_in_cluster": 24}

>  <energy>  (27) 
-7.9

>  <cluster_rmsd>  (27) 
1.75

>  <cluster>  (27) 
1

$$$$

     RDKit          3D

 55 58  0  0  0  0  0  0  0  0999 V2000
  140.3870   71.8670  221.0700 O   0  0  0  0  0  0  0  0  0  0  0  0
  139.7850   72.1280  222.1490 C   0  0  0  0  0  0  0  0  0  0  0  0
  138.9640   73.3160  222.1110 N   0  0  0  0  0  0  0  0  0  0  0  0
  138.8660   74.1170  220.9440 C   0  0  0  0  0  0  0  0  0  0  0  0
  140.0370   74.5290  220.1890 C   0  0  0  0  0  0  0  0  0  0  0  0
  139.9510   74.1600  218.9270 O   0  0  0  0  0  0  0  0  0  0  0  0
  141.1950   75.2180  220.5080 N   0  0  0  0  0  0  0  0  0  0  0  0
  142.5720   74.7280  220.2000 C   0  0  0  0  0  0  0  0  0  0  0  0
  143.1880   75.6350  219.1900 C   0  0  0  0  0  0  0  0  0  0  0  0
  142.3170   76.8910  219.0380 C   0  0  0  0  0  0  0  0  0  0  0  0
  142.1500   77.4110  220.4390 C   0  0  0  0  0  0  0  0  0  0  0  0
  141.2360   76.5170  221.1990 C   0  0  1  0  0  0  0  0  0  0  0  0
  139.9500   77.1310  221.5620 C   0  0  0  0  0  0  0  0  0  0  0  0
  140.0360   78.4830  221.8000 O   0  0  0  0  0  0  0  0  0  0  0  0
  140.8070   79.3200  222.4960 C   0  0  0  0  0  0  0  0  0  0  0  0
  140.6820   80.6970  222.1990 C   0  0  0  0  0  0  0  0  0  0  0  0
  141.4230   81.6470  222.8530 C   0  0  0  0  0  0  0  0  0  0  0  0
  142.3270   81.3060  223.8330 C   0  0  0  0  0  0  0  0  0  0  0  0
  142.4700   79.9740  224.1450 C   0  0  0  0  0  0  0  0  0  0  0  0
  141.7210   79.0250  223.4820 C   0  0  0  0  0  0  0  0  0  0  0  0
  139.8840   71.3230  223.3480 C   0  0  0  0  0  0  0  0  0  0  0  0
  139.4770   70.0090  223.3030 C   0  0  0  0  0  0  0  0  0  0  0  0
  139.5580   69.2040  224.4420 C   0  0  0  0  0  0  0  0  0  0  0  0
  140.0660   69.7930  225.6030 C   0  0  0  0  0  0  0  0  0  0  0  0
  140.1750   69.0450  226.7790 C   0  0  0  0  0  0  0  0  0  0  0  0
  140.6820   69.6320  227.9380 C   0  0  0  0  0  0  0  0  0  0  0  0
  140.7900   68.9100  229.0780 F   0  0  0  0  0  0  0  0  0  0  0  0
  141.0840   70.9550  227.9490 C   0  0  0  0  0  0  0  0  0  0  0  0
  140.9670   71.6760  226.7780 C   0  0  0  0  0  0  0  0  0  0  0  0
  140.4700   71.1230  225.6170 C   0  0  0  0  0  0  0  0  0  0  0  0
  140.3660   71.8430  224.4910 N   0  0  0  0  0  0  0  0  0  0  0  0
  138.4600   73.5140  223.0270 H   0  0  0  0  0  0  0  0  0  0  0  0
  138.2279   73.5603  220.2419 H   0  0  0  0  0  0  0  0  0  0  0  0
  138.5075   75.0737  221.3517 H   0  0  0  0  0  0  0  0  0  0  0  0
  143.1790   74.7291  221.1174 H   0  0  0  0  0  0  0  0  0  0  0  0
  142.5248   73.7030  219.8035 H   0  0  0  0  0  0  0  0  0  0  0  0
  144.1958   75.9247  219.5223 H   0  0  0  0  0  0  0  0  0  0  0  0
  143.2584   75.1159  218.2227 H   0  0  0  0  0  0  0  0  0  0  0  0
  142.8191   77.6370  218.4045 H   0  0  0  0  0  0  0  0  0  0  0  0
  141.3521   76.6728  218.5571 H   0  0  0  0  0  0  0  0  0  0  0  0
  143.1302   77.4411  220.9373 H   0  0  0  0  0  0  0  0  0  0  0  0
  141.7229   78.4241  220.4034 H   0  0  0  0  0  0  0  0  0  0  0  0
  141.6319   76.3298  222.2081 H   0  0  0  0  0  0  0  0  0  0  0  0
  139.2406   76.9669  220.7375 H   0  0  0  0  0  0  0  0  0  0  0  0
  139.6179   76.6579  222.4979 H   0  0  0  0  0  0  0  0  0  0  0  0
  139.9709   81.0144  221.4221 H   0  0  0  0  0  0  0  0  0  0  0  0
  141.2920   82.7066  222.5883 H   0  0  0  0  0  0  0  0  0  0  0  0
  142.9176   82.0757  224.3514 H   0  0  0  0  0  0  0  0  0  0  0  0
  143.1826   79.6656  224.9242 H   0  0  0  0  0  0  0  0  0  0  0  0
  141.8623   77.9694  223.7574 H   0  0  0  0  0  0  0  0  0  0  0  0
  139.0855   69.5900  222.3643 H   0  0  0  0  0  0  0  0  0  0  0  0
  139.2359   68.1523  224.4256 H   0  0  0  0  0  0  0  0  0  0  0  0
  139.8602   67.9911  226.7902 H   0  0  0  0  0  0  0  0  0  0  0  0
  141.4846   71.4184  228.8627 H   0  0  0  0  0  0  0  0  0  0  0  0
  141.2817   72.7300  226.7707 H   0  0  0  0  0  0  0  0  0  0  0  0
  1  2  2  0
  2  3  1  0
  3  4  1  0
  4  5  1  0
  5  6  2  0
  5  7  1  0
  7  8  1  0
  8  9  1  0
  9 10  1  0
 10 11  1  0
 11 12  1  0
 12 13  1  0
 13 14  1  0
 14 15  1  0
 15 16  2  0
 16 17  1  0
 17 18  2  0
 18 19  1  0
 19 20  2  0
  2 21  1  0
 21 22  2  0
 22 23  1  0
 23 24  2  0
 24 25  1  0
 25 26  2  0
 26 27  1  0
 26 28  1  0
 28 29  2  0
 29 30  1  0
 30 31  2  0
 12  7  1  0
 20 15  1  0
 31 21  1  0
 30 24  1  0
  3 32  1  0
  4 33  1  0
  4 34  1  0
  8 35  1  0
  8 36  1  0
  9 37  1  0
  9 38  1  0
 10 39  1  0
 10 40  1  0
 11 41  1  0
 11 42  1  0
 12 43  1  1
 13 44  1  0
 13 45  1  0
 16 46  1  0
 17 47  1  0
 18 48  1  0
 19 49  1  0
 20 50  1  0
 22 51  1  0
 23 52  1  0
 25 53  1  0
 28 54  1  0
 29 55  1  0
M  END
>  <smiles>  (28) 
O=C(NCC(=O)N1CCCC[C@H]1COc1ccccc1)c1ccc2cc(F)ccc2n1

>  <score_type>  (28) 
oracle

>  <origin>  (28) 
autodockgpu

>  <m_score__min__energy>  (28) 
-8.7799999999999994

>  <m_primary>  (28) 
energy

>  <rmsd>  (28) 
2.196621354731031

>  <m_score__min__rmsd>  (28) 
2.196621354731031

>  <meeko>  (28) 
{"free_energy": -8.31, "intermolecular_energy": -10.4, "internal_energy": -1.42, "cluster_size": 28, "cluster_id": 1, "rank_in_cluster": 12}

>  <energy>  (28) 
-7.69

>  <cluster_rmsd>  (28) 
1.6

>  <cluster>  (28) 
1

$$$$

     RDKit          3D

 55 58  0  0  0  0  0  0  0  0999 V2000
  139.8250   73.5960  222.3920 O   0  0  0  0  0  0  0  0  0  0  0  0
  140.4140   72.4840  222.5020 C   0  0  0  0  0  0  0  0  0  0  0  0
  141.3210   72.1720  221.4230 N   0  0  0  0  0  0  0  0  0  0  0  0
  141.5110   73.0560  220.3290 C   0  0  0  0  0  0  0  0  0  0  0  0
  142.5480   74.0740  220.3310 C   0  0  0  0  0  0  0  0  0  0  0  0
  143.6110   73.6770  221.0010 O   0  0  0  0  0  0  0  0  0  0  0  0
  142.6560   75.3420  219.7850 N   0  0  0  0  0  0  0  0  0  0  0  0
  143.6410   75.7170  218.7270 C   0  0  0  0  0  0  0  0  0  0  0  0
  142.8980   76.0430  217.4760 C   0  0  0  0  0  0  0  0  0  0  0  0
  141.3990   76.1540  217.7900 C   0  0  0  0  0  0  0  0  0  0  0  0
  141.3200   77.1330  218.9290 C   0  0  0  0  0  0  0  0  0  0  0  0
  141.8280   76.4960  220.1730 C   0  0  1  0  0  0  0  0  0  0  0  0
  140.8040   76.2770  221.2060 C   0  0  0  0  0  0  0  0  0  0  0  0
  141.0280   76.9920  222.3580 O   0  0  0  0  0  0  0  0  0  0  0  0
  141.4380   78.2130  222.7040 C   0  0  0  0  0  0  0  0  0  0  0  0
  141.4790   79.1860  221.6780 C   0  0  0  0  0  0  0  0  0  0  0  0
  141.8830   80.4730  221.9190 C   0  0  0  0  0  0  0  0  0  0  0  0
  142.2710   80.8830  223.1740 C   0  0  0  0  0  0  0  0  0  0  0  0
  142.2410   79.9600  224.1930 C   0  0  0  0  0  0  0  0  0  0  0  0
  141.8330   78.6670  223.9410 C   0  0  0  0  0  0  0  0  0  0  0  0
  140.2210   71.5700  223.6070 C   0  0  0  0  0  0  0  0  0  0  0  0
  139.5150   70.4070  223.3930 C   0  0  0  0  0  0  0  0  0  0  0  0
  139.3090   69.5020  224.4370 C   0  0  0  0  0  0  0  0  0  0  0  0
  139.8470   69.8350  225.6830 C   0  0  0  0  0  0  0  0  0  0  0  0
  139.6780   68.9740  226.7720 C   0  0  0  0  0  0  0  0  0  0  0  0
  140.2150   69.3050  228.0160 C   0  0  0  0  0  0  0  0  0  0  0  0
  140.0540   68.4740  229.0720 F   0  0  0  0  0  0  0  0  0  0  0  0
  140.9200   70.4810  228.1980 C   0  0  0  0  0  0  0  0  0  0  0  0
  141.0740   71.3160  227.1100 C   0  0  0  0  0  0  0  0  0  0  0  0
  140.5550   71.0160  225.8680 C   0  0  0  0  0  0  0  0  0  0  0  0
  140.7180   71.8440  224.8270 N   0  0  0  0  0  0  0  0  0  0  0  0
  141.8120   71.2350  221.5370 H   0  0  0  0  0  0  0  0  0  0  0  0
  141.7041   72.4219  219.4511 H   0  0  0  0  0  0  0  0  0  0  0  0
  140.5934   73.6619  220.3605 H   0  0  0  0  0  0  0  0  0  0  0  0
  144.2190   76.5941  219.0535 H   0  0  0  0  0  0  0  0  0  0  0  0
  144.3323   74.8809  218.5453 H   0  0  0  0  0  0  0  0  0  0  0  0
  143.2606   76.9997  217.0721 H   0  0  0  0  0  0  0  0  0  0  0  0
  143.0609   75.2483  216.7331 H   0  0  0  0  0  0  0  0  0  0  0  0
  140.8463   76.5297  216.9163 H   0  0  0  0  0  0  0  0  0  0  0  0
  140.9537   75.1811  218.0453 H   0  0  0  0  0  0  0  0  0  0  0  0
  141.9315   78.0168  218.6947 H   0  0  0  0  0  0  0  0  0  0  0  0
  140.2732   77.4369  219.0764 H   0  0  0  0  0  0  0  0  0  0  0  0
  142.4824   77.1902  220.7206 H   0  0  0  0  0  0  0  0  0  0  0  0
  139.8270   76.5731  220.7965 H   0  0  0  0  0  0  0  0  0  0  0  0
  140.8370   75.2108  221.4745 H   0  0  0  0  0  0  0  0  0  0  0  0
  141.1783   78.9017  220.6588 H   0  0  0  0  0  0  0  0  0  0  0  0
  141.8975   81.1955  221.0897 H   0  0  0  0  0  0  0  0  0  0  0  0
  142.5954   81.9181  223.3566 H   0  0  0  0  0  0  0  0  0  0  0  0
  142.5425   80.2532  225.2094 H   0  0  0  0  0  0  0  0  0  0  0  0
  141.8228   77.9556  224.7799 H   0  0  0  0  0  0  0  0  0  0  0  0
  139.1107   70.1893  222.3934 H   0  0  0  0  0  0  0  0  0  0  0  0
  138.7479   68.5682  224.2850 H   0  0  0  0  0  0  0  0  0  0  0  0
  139.1205   68.0340  226.6473 H   0  0  0  0  0  0  0  0  0  0  0  0
  141.3444   70.7424  229.1786 H   0  0  0  0  0  0  0  0  0  0  0  0
  141.6314   72.2556  227.2382 H   0  0  0  0  0  0  0  0  0  0  0  0
  1  2  2  0
  2  3  1  0
  3  4  1  0
  4  5  1  0
  5  6  2  0
  5  7  1  0
  7  8  1  0
  8  9  1  0
  9 10  1  0
 10 11  1  0
 11 12  1  0
 12 13  1  0
 13 14  1  0
 14 15  1  0
 15 16  2  0
 16 17  1  0
 17 18  2  0
 18 19  1  0
 19 20  2  0
  2 21  1  0
 21 22  2  0
 22 23  1  0
 23 24  2  0
 24 25  1  0
 25 26  2  0
 26 27  1  0
 26 28  1  0
 28 29  2  0
 29 30  1  0
 30 31  2  0
 12  7  1  0
 20 15  1  0
 31 21  1  0
 30 24  1  0
  3 32  1  0
  4 33  1  0
  4 34  1  0
  8 35  1  0
  8 36  1  0
  9 37  1  0
  9 38  1  0
 10 39  1  0
 10 40  1  0
 11 41  1  0
 11 42  1  0
 12 43  1  1
 13 44  1  0
 13 45  1  0
 16 46  1  0
 17 47  1  0
 18 48  1  0
 19 49  1  0
 20 50  1  0
 22 51  1  0
 23 52  1  0
 25 53  1  0
 28 54  1  0
 29 55  1  0
M  END
>  <smiles>  (29) 
O=C(NCC(=O)N1CCCC[C@H]1COc1ccccc1)c1ccc2cc(F)ccc2n1

>  <score_type>  (29) 
oracle

>  <origin>  (29) 
autodockgpu

>  <m_score__min__energy>  (29) 
-8.7799999999999994

>  <m_primary>  (29) 
energy

>  <rmsd>  (29) 
2.6341519488720406

>  <m_score__min__rmsd>  (29) 
2.6341519488720406

>  <meeko>  (29) 
{"free_energy": -8.51, "intermolecular_energy": -10.6, "internal_energy": -1.47, "cluster_size": 28, "cluster_id": 1, "rank_in_cluster": 7}

>  <energy>  (29) 
-8.42

>  <cluster_rmsd>  (29) 
0.0

>  <cluster>  (29) 
2

$$$$

     RDKit          3D

 55 58  0  0  0  0  0  0  0  0999 V2000
  141.3540   72.5360  222.0270 O   0  0  0  0  0  0  0  0  0  0  0  0
  140.3040   72.3940  222.7150 C   0  0  0  0  0  0  0  0  0  0  0  0
  139.2160   73.2690  222.3450 N   0  0  0  0  0  0  0  0  0  0  0  0
  139.3440   74.2140  221.2940 C   0  0  0  0  0  0  0  0  0  0  0  0
  140.2410   75.3530  221.3850 C   0  0  0  0  0  0  0  0  0  0  0  0
  139.7980   76.2480  222.2450 O   0  0  0  0  0  0  0  0  0  0  0  0
  141.4390   75.6870  220.7770 N   0  0  0  0  0  0  0  0  0  0  0  0
  142.6730   74.8480  220.8430 C   0  0  0  0  0  0  0  0  0  0  0  0
  142.9740   74.3310  219.4770 C   0  0  0  0  0  0  0  0  0  0  0  0
  142.0920   75.0600  218.4530 C   0  0  0  0  0  0  0  0  0  0  0  0
  142.3280   76.5220  218.7180 C   0  0  0  0  0  0  0  0  0  0  0  0
  141.6700   76.9120  219.9940 C   0  0  1  0  0  0  0  0  0  0  0  0
  140.5390   77.8370  219.8350 C   0  0  0  0  0  0  0  0  0  0  0  0
  140.5810   78.9050  220.7010 O   0  0  0  0  0  0  0  0  0  0  0  0
  141.2170   79.2490  221.8210 C   0  0  0  0  0  0  0  0  0  0  0  0
  142.1030   80.3480  221.7390 C   0  0  0  0  0  0  0  0  0  0  0  0
  142.8090   80.7900  222.8280 C   0  0  0  0  0  0  0  0  0  0  0  0
  142.6900   80.1830  224.0570 C   0  0  0  0  0  0  0  0  0  0  0  0
  141.8360   79.1110  224.1690 C   0  0  0  0  0  0  0  0  0  0  0  0
  141.1300   78.6740  223.0680 C   0  0  0  0  0  0  0  0  0  0  0  0
  140.1650   71.4400  223.7950 C   0  0  0  0  0  0  0  0  0  0  0  0
  139.4900   70.2630  223.5600 C   0  0  0  0  0  0  0  0  0  0  0  0
  139.3370   69.3200  224.5800 C   0  0  0  0  0  0  0  0  0  0  0  0
  139.8940   69.6310  225.8230 C   0  0  0  0  0  0  0  0  0  0  0  0
  139.7780   68.7320  226.8870 C   0  0  0  0  0  0  0  0  0  0  0  0
  140.3340   69.0410  228.1280 C   0  0  0  0  0  0  0  0  0  0  0  0
  140.2240   68.1730  229.1610 F   0  0  0  0  0  0  0  0  0  0  0  0
  141.0070   70.2320  228.3310 C   0  0  0  0  0  0  0  0  0  0  0  0
  141.1090   71.1050  227.2670 C   0  0  0  0  0  0  0  0  0  0  0  0
  140.5700   70.8270  226.0290 C   0  0  0  0  0  0  0  0  0  0  0  0
  140.6830   71.6920  225.0100 N   0  0  0  0  0  0  0  0  0  0  0  0
  138.3400   73.1290  222.9310 H   0  0  0  0  0  0  0  0  0  0  0  0
  139.6579   73.6456  220.4061 H   0  0  0  0  0  0  0  0  0  0  0  0
  138.3564   74.6983  221.2988 H   0  0  0  0  0  0  0  0  0  0  0  0
  143.5157   75.4569  221.2022 H   0  0  0  0  0  0  0  0  0  0  0  0
  142.5180   74.0077  221.5358 H   0  0  0  0  0  0  0  0  0  0  0  0
  144.0338   74.5090  219.2420 H   0  0  0  0  0  0  0  0  0  0  0  0
  142.7684   73.2511  219.4380 H   0  0  0  0  0  0  0  0  0  0  0  0
  142.3912   74.7984  217.4273 H   0  0  0  0  0  0  0  0  0  0  0  0
  141.0309   74.7858  218.5476 H   0  0  0  0  0  0  0  0  0  0  0  0
  143.4092   76.7106  218.7914 H   0  0  0  0  0  0  0  0  0  0  0  0
  141.9052   77.1149  217.8936 H   0  0  0  0  0  0  0  0  0  0  0  0
  142.3363   77.5518  220.5913 H   0  0  0  0  0  0  0  0  0  0  0  0
  140.5462   78.2228  218.8049 H   0  0  0  0  0  0  0  0  0  0  0  0
  139.6228   77.2716  220.0607 H   0  0  0  0  0  0  0  0  0  0  0  0
  142.2293   80.8625  220.7750 H   0  0  0  0  0  0  0  0  0  0  0  0
  143.4862   81.6497  222.7166 H   0  0  0  0  0  0  0  0  0  0  0  0
  143.2613   80.5447  224.9247 H   0  0  0  0  0  0  0  0  0  0  0  0
  141.7160   78.6021  225.1368 H   0  0  0  0  0  0  0  0  0  0  0  0
  140.4565   77.8136  223.1943 H   0  0  0  0  0  0  0  0  0  0  0  0
  139.0688   70.0638  222.5636 H   0  0  0  0  0  0  0  0  0  0  0  0
  138.8014   68.3741  224.4116 H   0  0  0  0  0  0  0  0  0  0  0  0
  139.2472   67.7791  226.7452 H   0  0  0  0  0  0  0  0  0  0  0  0
  141.4470   70.4757  229.3093 H   0  0  0  0  0  0  0  0  0  0  0  0
  141.6398   72.0575  227.4121 H   0  0  0  0  0  0  0  0  0  0  0  0
  1  2  2  0
  2  3  1  0
  3  4  1  0
  4  5  1  0
  5  6  2  0
  5  7  1  0
  7  8  1  0
  8  9  1  0
  9 10  1  0
 10 11  1  0
 11 12  1  0
 12 13  1  0
 13 14  1  0
 14 15  1  0
 15 16  2  0
 16 17  1  0
 17 18  2  0
 18 19  1  0
 19 20  2  0
  2 21  1  0
 21 22  2  0
 22 23  1  0
 23 24  2  0
 24 25  1  0
 25 26  2  0
 26 27  1  0
 26 28  1  0
 28 29  2  0
 29 30  1  0
 30 31  2  0
 12  7  1  0
 20 15  1  0
 31 21  1  0
 30 24  1  0
  3 32  1  0
  4 33  1  0
  4 34  1  0
  8 35  1  0
  8 36  1  0
  9 37  1  0
  9 38  1  0
 10 39  1  0
 10 40  1  0
 11 41  1  0
 11 42  1  0
 12 43  1  1
 13 44  1  0
 13 45  1  0
 16 46  1  0
 17 47  1  0
 18 48  1  0
 19 49  1  0
 20 50  1  0
 22 51  1  0
 23 52  1  0
 25 53  1  0
 28 54  1  0
 29 55  1  0
M  END
>  <smiles>  (30) 
O=C(NCC(=O)N1CCCC[C@H]1COc1ccccc1)c1ccc2cc(F)ccc2n1

>  <score_type>  (30) 
oracle

>  <origin>  (30) 
autodockgpu

>  <m_score__min__energy>  (30) 
-8.7799999999999994

>  <m_primary>  (30) 
energy

>  <rmsd>  (30) 
2.1461975535638507

>  <m_score__min__rmsd>  (30) 
2.1461975535638507

>  <meeko>  (30) 
{"free_energy": -8.54, "intermolecular_energy": -10.63, "internal_energy": -1.65, "cluster_size": 28, "cluster_id": 1, "rank_in_cluster": 6}

>  <energy>  (30) 
-8.15

>  <cluster_rmsd>  (30) 
0.44

>  <cluster>  (30) 
2

$$$$

     RDKit          3D

 55 58  0  0  0  0  0  0  0  0999 V2000
  141.3050   72.3300  221.8390 O   0  0  0  0  0  0  0  0  0  0  0  0
  140.3260   72.2950  222.6360 C   0  0  0  0  0  0  0  0  0  0  0  0
  139.3020   73.2810  222.3790 N   0  0  0  0  0  0  0  0  0  0  0  0
  139.4150   74.2120  221.3150 C   0  0  0  0  0  0  0  0  0  0  0  0
  140.3510   75.3230  221.3570 C   0  0  0  0  0  0  0  0  0  0  0  0
  140.0220   76.1950  222.2880 O   0  0  0  0  0  0  0  0  0  0  0  0
  141.4930   75.6480  220.6450 N   0  0  0  0  0  0  0  0  0  0  0  0
  142.7790   74.8940  220.7360 C   0  0  0  0  0  0  0  0  0  0  0  0
  143.0400   74.2340  219.4240 C   0  0  0  0  0  0  0  0  0  0  0  0
  142.0620   74.7840  218.3760 C   0  0  0  0  0  0  0  0  0  0  0  0
  142.2200   76.2780  218.4540 C   0  0  0  0  0  0  0  0  0  0  0  0
  141.6060   76.7810  219.7110 C   0  0  1  0  0  0  0  0  0  0  0  0
  140.4110   77.6160  219.5130 C   0  0  0  0  0  0  0  0  0  0  0  0
  140.2400   78.5670  220.4910 O   0  0  0  0  0  0  0  0  0  0  0  0
  140.9310   79.0730  221.5140 C   0  0  0  0  0  0  0  0  0  0  0  0
  140.3120   79.0270  222.7850 C   0  0  0  0  0  0  0  0  0  0  0  0
  140.9290   79.5160  223.9070 C   0  0  0  0  0  0  0  0  0  0  0  0
  142.1840   80.0770  223.8500 C   0  0  0  0  0  0  0  0  0  0  0  0
  142.8120   80.1360  222.6280 C   0  0  0  0  0  0  0  0  0  0  0  0
  142.1840   79.6420  221.5050 C   0  0  0  0  0  0  0  0  0  0  0  0
  140.2040   71.3550  223.7310 C   0  0  0  0  0  0  0  0  0  0  0  0
  139.5920   70.1440  223.5020 C   0  0  0  0  0  0  0  0  0  0  0  0
  139.4570   69.2130  224.5360 C   0  0  0  0  0  0  0  0  0  0  0  0
  139.9670   69.5720  225.7860 C   0  0  0  0  0  0  0  0  0  0  0  0
  139.8660   68.6890  226.8640 C   0  0  0  0  0  0  0  0  0  0  0  0
  140.3760   69.0460  228.1130 C   0  0  0  0  0  0  0  0  0  0  0  0
  140.2800   68.1930  229.1590 F   0  0  0  0  0  0  0  0  0  0  0  0
  140.9860   70.2720  228.3090 C   0  0  0  0  0  0  0  0  0  0  0  0
  141.0750   71.1290  227.2310 C   0  0  0  0  0  0  0  0  0  0  0  0
  140.5810   70.8030  225.9850 C   0  0  0  0  0  0  0  0  0  0  0  0
  140.6790   71.6530  224.9530 N   0  0  0  0  0  0  0  0  0  0  0  0
  138.4830   73.2300  223.0570 H   0  0  0  0  0  0  0  0  0  0  0  0
  139.6729   73.6264  220.4202 H   0  0  0  0  0  0  0  0  0  0  0  0
  138.4442   74.7276  221.3567 H   0  0  0  0  0  0  0  0  0  0  0  0
  143.5993   75.5882  220.9709 H   0  0  0  0  0  0  0  0  0  0  0  0
  142.7138   74.1361  221.5305 H   0  0  0  0  0  0  0  0  0  0  0  0
  144.0728   74.4414  219.1073 H   0  0  0  0  0  0  0  0  0  0  0  0
  142.9005   73.1475  219.5238 H   0  0  0  0  0  0  0  0  0  0  0  0
  142.3230   74.4181  217.3720 H   0  0  0  0  0  0  0  0  0  0  0  0
  141.0265   74.4644  218.5646 H   0  0  0  0  0  0  0  0  0  0  0  0
  143.2898   76.5339  218.4415 H   0  0  0  0  0  0  0  0  0  0  0  0
  141.7193   76.7431  217.5920 H   0  0  0  0  0  0  0  0  0  0  0  0
  142.2615   77.5249  220.1874 H   0  0  0  0  0  0  0  0  0  0  0  0
  140.4993   78.1262  218.5425 H   0  0  0  0  0  0  0  0  0  0  0  0
  139.5381   76.9479  219.5543 H   0  0  0  0  0  0  0  0  0  0  0  0
  139.3080   78.5868  222.8755 H   0  0  0  0  0  0  0  0  0  0  0  0
  140.4091   79.4586  224.8747 H   0  0  0  0  0  0  0  0  0  0  0  0
  142.6711   80.4671  224.7559 H   0  0  0  0  0  0  0  0  0  0  0  0
  143.8161   80.5777  222.5468 H   0  0  0  0  0  0  0  0  0  0  0  0
  142.7160   79.7064  220.5444 H   0  0  0  0  0  0  0  0  0  0  0  0
  139.2067   69.9071  222.4993 H   0  0  0  0  0  0  0  0  0  0  0  0
  138.9704   68.2401  224.3725 H   0  0  0  0  0  0  0  0  0  0  0  0
  139.3833   67.7100  226.7279 H   0  0  0  0  0  0  0  0  0  0  0  0
  141.3875   70.5549  229.2933 H   0  0  0  0  0  0  0  0  0  0  0  0
  141.5574   72.1077  227.3704 H   0  0  0  0  0  0  0  0  0  0  0  0
  1  2  2  0
  2  3  1  0
  3  4  1  0
  4  5  1  0
  5  6  2  0
  5  7  1  0
  7  8  1  0
  8  9  1  0
  9 10  1  0
 10 11  1  0
 11 12  1  0
 12 13  1  0
 13 14  1  0
 14 15  1  0
 15 16  2  0
 16 17  1  0
 17 18  2  0
 18 19  1  0
 19 20  2  0
  2 21  1  0
 21 22  2  0
 22 23  1  0
 23 24  2  0
 24 25  1  0
 25 26  2  0
 26 27  1  0
 26 28  1  0
 28 29  2  0
 29 30  1  0
 30 31  2  0
 12  7  1  0
 20 15  1  0
 31 21  1  0
 30 24  1  0
  3 32  1  0
  4 33  1  0
  4 34  1  0
  8 35  1  0
  8 36  1  0
  9 37  1  0
  9 38  1  0
 10 39  1  0
 10 40  1  0
 11 41  1  0
 11 42  1  0
 12 43  1  1
 13 44  1  0
 13 45  1  0
 16 46  1  0
 17 47  1  0
 18 48  1  0
 19 49  1  0
 20 50  1  0
 22 51  1  0
 23 52  1  0
 25 53  1  0
 28 54  1  0
 29 55  1  0
M  END
>  <smiles>  (31) 
O=C(NCC(=O)N1CCCC[C@H]1COc1ccccc1)c1ccc2cc(F)ccc2n1

>  <score_type>  (31) 
oracle

>  <origin>  (31) 
autodockgpu

>  <m_score__min__energy>  (31) 
-8.7799999999999994

>  <m_primary>  (31) 
energy

>  <rmsd>  (31) 
2.126321786350501

>  <m_score__min__rmsd>  (31) 
2.126321786350501

>  <meeko>  (31) 
{"free_energy": -8.3, "intermolecular_energy": -10.39, "internal_energy": -1.77, "cluster_size": 28, "cluster_id": 1, "rank_in_cluster": 13}

>  <energy>  (31) 
-8.07

>  <cluster_rmsd>  (31) 
0.58

>  <cluster>  (31) 
2

$$$$

     RDKit          3D

 55 58  0  0  0  0  0  0  0  0999 V2000
  138.4060   70.7210  221.3580 O   0  0  0  0  0  0  0  0  0  0  0  0
  138.7820   71.2140  222.4580 C   0  0  0  0  0  0  0  0  0  0  0  0
  138.8270   72.6570  222.4900 N   0  0  0  0  0  0  0  0  0  0  0  0
  138.4800   73.4390  221.3580 C   0  0  0  0  0  0  0  0  0  0  0  0
  139.4730   73.8860  220.3950 C   0  0  0  0  0  0  0  0  0  0  0  0
  138.9710   73.9430  219.1780 O   0  0  0  0  0  0  0  0  0  0  0  0
  140.8020   74.2620  220.4850 N   0  0  0  0  0  0  0  0  0  0  0  0
  141.9230   73.5390  219.8140 C   0  0  0  0  0  0  0  0  0  0  0  0
  142.5080   74.4280  218.7690 C   0  0  0  0  0  0  0  0  0  0  0  0
  141.9510   75.8490  218.9420 C   0  0  0  0  0  0  0  0  0  0  0  0
  142.2150   76.1900  220.3830 C   0  0  0  0  0  0  0  0  0  0  0  0
  141.2980   75.4130  221.2580 C   0  0  1  0  0  0  0  0  0  0  0  0
  140.3040   76.2280  221.9720 C   0  0  0  0  0  0  0  0  0  0  0  0
  140.4260   77.5760  221.7300 O   0  0  0  0  0  0  0  0  0  0  0  0
  140.8380   78.6660  222.3770 C   0  0  0  0  0  0  0  0  0  0  0  0
  142.1920   79.0350  222.2080 C   0  0  0  0  0  0  0  0  0  0  0  0
  142.7240   80.1380  222.8250 C   0  0  0  0  0  0  0  0  0  0  0  0
  141.9620   80.9420  223.6420 C   0  0  0  0  0  0  0  0  0  0  0  0
  140.6410   80.6100  223.8260 C   0  0  0  0  0  0  0  0  0  0  0  0
  140.1150   79.4980  223.2020 C   0  0  0  0  0  0  0  0  0  0  0  0
  139.1470   70.4260  223.6170 C   0  0  0  0  0  0  0  0  0  0  0  0
  138.8780   69.0760  223.6150 C   0  0  0  0  0  0  0  0  0  0  0  0
  139.2160   68.2850  224.7160 C   0  0  0  0  0  0  0  0  0  0  0  0
  139.8290   68.9270  225.7960 C   0  0  0  0  0  0  0  0  0  0  0  0
  140.1940   68.1960  226.9300 C   0  0  0  0  0  0  0  0  0  0  0  0
  140.8070   68.8360  228.0080 C   0  0  0  0  0  0  0  0  0  0  0  0
  141.1610   68.1310  229.1080 F   0  0  0  0  0  0  0  0  0  0  0  0
  141.0640   70.1940  227.9780 C   0  0  0  0  0  0  0  0  0  0  0  0
  140.6940   70.8970  226.8480 C   0  0  0  0  0  0  0  0  0  0  0  0
  140.0880   70.2920  225.7670 C   0  0  0  0  0  0  0  0  0  0  0  0
  139.7390   70.9960  224.6810 N   0  0  0  0  0  0  0  0  0  0  0  0
  139.1400   73.0520  223.4270 H   0  0  0  0  0  0  0  0  0  0  0  0
  137.7448   72.8495  220.7906 H   0  0  0  0  0  0  0  0  0  0  0  0
  138.1650   74.3861  221.8203 H   0  0  0  0  0  0  0  0  0  0  0  0
  142.6940   73.2821  220.5553 H   0  0  0  0  0  0  0  0  0  0  0  0
  141.5487   72.6135  219.3520 H   0  0  0  0  0  0  0  0  0  0  0  0
  143.6028   74.4471  218.8736 H   0  0  0  0  0  0  0  0  0  0  0  0
  142.2439   74.0475  217.7713 H   0  0  0  0  0  0  0  0  0  0  0  0
  142.4705   76.5531  218.2753 H   0  0  0  0  0  0  0  0  0  0  0  0
  140.8823   75.9107  218.6889 H   0  0  0  0  0  0  0  0  0  0  0  0
  143.2570   75.9411  220.6327 H   0  0  0  0  0  0  0  0  0  0  0  0
  142.0443   77.2653  220.5400 H   0  0  0  0  0  0  0  0  0  0  0  0
  141.8433   75.0065  222.1225 H   0  0  0  0  0  0  0  0  0  0  0  0
  139.2998   75.9071  221.6579 H   0  0  0  0  0  0  0  0  0  0  0  0
  140.4724   76.0753  223.0483 H   0  0  0  0  0  0  0  0  0  0  0  0
  142.8371   78.4200  221.5633 H   0  0  0  0  0  0  0  0  0  0  0  0
  143.7835   80.3858  222.6634 H   0  0  0  0  0  0  0  0  0  0  0  0
  142.3976   81.8245  224.1333 H   0  0  0  0  0  0  0  0  0  0  0  0
  140.0028   81.2315  224.4713 H   0  0  0  0  0  0  0  0  0  0  0  0
  139.0545   79.2618  223.3738 H   0  0  0  0  0  0  0  0  0  0  0  0
  138.3936   68.6168  222.7406 H   0  0  0  0  0  0  0  0  0  0  0  0
  139.0089   67.2048  224.7323 H   0  0  0  0  0  0  0  0  0  0  0  0
  139.9978   67.1145  226.9728 H   0  0  0  0  0  0  0  0  0  0  0  0
  141.5478   70.6988  228.8272 H   0  0  0  0  0  0  0  0  0  0  0  0
  140.8898   71.9787  226.8090 H   0  0  0  0  0  0  0  0  0  0  0  0
  1  2  2  0
  2  3  1  0
  3  4  1  0
  4  5  1  0
  5  6  2  0
  5  7  1  0
  7  8  1  0
  8  9  1  0
  9 10  1  0
 10 11  1  0
 11 12  1  0
 12 13  1  0
 13 14  1  0
 14 15  1  0
 15 16  2  0
 16 17  1  0
 17 18  2  0
 18 19  1  0
 19 20  2  0
  2 21  1  0
 21 22  2  0
 22 23  1  0
 23 24  2  0
 24 25  1  0
 25 26  2  0
 26 27  1  0
 26 28  1  0
 28 29  2  0
 29 30  1  0
 30 31  2  0
 12  7  1  0
 20 15  1  0
 31 21  1  0
 30 24  1  0
  3 32  1  0
  4 33  1  0
  4 34  1  0
  8 35  1  0
  8 36  1  0
  9 37  1  0
  9 38  1  0
 10 39  1  0
 10 40  1  0
 11 41  1  0
 11 42  1  0
 12 43  1  1
 13 44  1  0
 13 45  1  0
 16 46  1  0
 17 47  1  0
 18 48  1  0
 19 49  1  0
 20 50  1  0
 22 51  1  0
 23 52  1  0
 25 53  1  0
 28 54  1  0
 29 55  1  0
M  END
>  <smiles>  (32) 
O=C(NCC(=O)N1CCCC[C@H]1COc1ccccc1)c1ccc2cc(F)ccc2n1

>  <score_type>  (32) 
oracle

>  <origin>  (32) 
autodockgpu

>  <m_score__min__energy>  (32) 
-8.7799999999999994

>  <m_primary>  (32) 
energy

>  <rmsd>  (32) 
2.116340765557683

>  <m_score__min__rmsd>  (32) 
2.116340765557683

>  <meeko>  (32) 
{"free_energy": -7.69, "intermolecular_energy": -9.78, "internal_energy": -1.67, "cluster_size": 28, "cluster_id": 1, "rank_in_cluster": 28}

>  <energy>  (32) 
-8.01

>  <cluster_rmsd>  (32) 
0.63

>  <cluster>  (32) 
2

$$$$

     RDKit          3D

 55 58  0  0  0  0  0  0  0  0999 V2000
  138.5180   71.0550  221.5860 O   0  0  0  0  0  0  0  0  0  0  0  0
  139.0770   71.4540  222.6450 C   0  0  0  0  0  0  0  0  0  0  0  0
  139.4520   72.8490  222.6420 N   0  0  0  0  0  0  0  0  0  0  0  0
  139.2100   73.6830  221.5200 C   0  0  0  0  0  0  0  0  0  0  0  0
  139.9250   74.9320  221.3180 C   0  0  0  0  0  0  0  0  0  0  0  0
  141.0490   74.9600  222.0070 O   0  0  0  0  0  0  0  0  0  0  0  0
  139.6850   76.0700  220.5680 N   0  0  0  0  0  0  0  0  0  0  0  0
  140.0390   76.2110  219.1240 C   0  0  0  0  0  0  0  0  0  0  0  0
  138.7810   76.3160  218.3300 C   0  0  0  0  0  0  0  0  0  0  0  0
  137.5960   76.5260  219.2840 C   0  0  0  0  0  0  0  0  0  0  0  0
  137.9920   77.7040  220.1310 C   0  0  0  0  0  0  0  0  0  0  0  0
  139.0590   77.2990  221.0840 C   0  0  1  0  0  0  0  0  0  0  0  0
  138.6480   77.3070  222.4960 C   0  0  0  0  0  0  0  0  0  0  0  0
  139.0660   78.4240  223.1800 O   0  0  0  0  0  0  0  0  0  0  0  0
  140.1490   79.1990  223.2470 C   0  0  0  0  0  0  0  0  0  0  0  0
  141.3990   78.5650  223.0580 C   0  0  0  0  0  0  0  0  0  0  0  0
  142.5780   79.2630  223.1040 C   0  0  0  0  0  0  0  0  0  0  0  0
  142.6030   80.6190  223.3370 C   0  0  0  0  0  0  0  0  0  0  0  0
  141.4030   81.2640  223.5250 C   0  0  0  0  0  0  0  0  0  0  0  0
  140.2230   80.5540  223.4770 C   0  0  0  0  0  0  0  0  0  0  0  0
  139.3380   70.6100  223.7920 C   0  0  0  0  0  0  0  0  0  0  0  0
  138.9640   69.2860  223.7420 C   0  0  0  0  0  0  0  0  0  0  0  0
  139.2000   68.4420  224.8310 C   0  0  0  0  0  0  0  0  0  0  0  0
  139.8230   69.0050  225.9480 C   0  0  0  0  0  0  0  0  0  0  0  0
  140.0880   68.2180  227.0720 C   0  0  0  0  0  0  0  0  0  0  0  0
  140.7110   68.7780  228.1880 C   0  0  0  0  0  0  0  0  0  0  0  0
  140.9700   68.0200  229.2780 F   0  0  0  0  0  0  0  0  0  0  0  0
  141.0740   70.1120  228.2060 C   0  0  0  0  0  0  0  0  0  0  0  0
  140.8020   70.8710  227.0860 C   0  0  0  0  0  0  0  0  0  0  0  0
  140.1890   70.3450  225.9680 C   0  0  0  0  0  0  0  0  0  0  0  0
  139.9350   71.1030  224.8920 N   0  0  0  0  0  0  0  0  0  0  0  0
  139.9160   73.1670  223.5450 H   0  0  0  0  0  0  0  0  0  0  0  0
  139.4093   73.0673  220.6305 H   0  0  0  0  0  0  0  0  0  0  0  0
  138.1848   74.0331  221.7105 H   0  0  0  0  0  0  0  0  0  0  0  0
  140.6450   77.1174  218.9785 H   0  0  0  0  0  0  0  0  0  0  0  0
  140.6182   75.3362  218.7935 H   0  0  0  0  0  0  0  0  0  0  0  0
  138.8524   77.1690  217.6391 H   0  0  0  0  0  0  0  0  0  0  0  0
  138.6307   75.3917  217.7529 H   0  0  0  0  0  0  0  0  0  0  0  0
  136.6777   76.7453  218.7195 H   0  0  0  0  0  0  0  0  0  0  0  0
  137.3844   75.6314  219.8881 H   0  0  0  0  0  0  0  0  0  0  0  0
  138.3667   78.5105  219.4836 H   0  0  0  0  0  0  0  0  0  0  0  0
  137.1162   78.0593  220.6938 H   0  0  0  0  0  0  0  0  0  0  0  0
  139.8467   78.0656  221.1270 H   0  0  0  0  0  0  0  0  0  0  0  0
  137.5498   77.2620  222.5398 H   0  0  0  0  0  0  0  0  0  0  0  0
  139.1192   76.4368  222.9763 H   0  0  0  0  0  0  0  0  0  0  0  0
  141.4260   77.4817  222.8688 H   0  0  0  0  0  0  0  0  0  0  0  0
  143.5261   78.7266  222.9511 H   0  0  0  0  0  0  0  0  0  0  0  0
  143.5542   81.1704  223.3718 H   0  0  0  0  0  0  0  0  0  0  0  0
  141.3851   82.3475  223.7138 H   0  0  0  0  0  0  0  0  0  0  0  0
  139.2829   81.1037  223.6320 H   0  0  0  0  0  0  0  0  0  0  0  0
  138.4763   68.8897  222.8392 H   0  0  0  0  0  0  0  0  0  0  0  0
  138.9082   67.3816  224.8096 H   0  0  0  0  0  0  0  0  0  0  0  0
  139.8049   67.1551  227.0770 H   0  0  0  0  0  0  0  0  0  0  0  0
  141.5643   70.5545  229.0856 H   0  0  0  0  0  0  0  0  0  0  0  0
  141.0843   71.9341  227.0849 H   0  0  0  0  0  0  0  0  0  0  0  0
  1  2  2  0
  2  3  1  0
  3  4  1  0
  4  5  1  0
  5  6  2  0
  5  7  1  0
  7  8  1  0
  8  9  1  0
  9 10  1  0
 10 11  1  0
 11 12  1  0
 12 13  1  0
 13 14  1  0
 14 15  1  0
 15 16  2  0
 16 17  1  0
 17 18  2  0
 18 19  1  0
 19 20  2  0
  2 21  1  0
 21 22  2  0
 22 23  1  0
 23 24  2  0
 24 25  1  0
 25 26  2  0
 26 27  1  0
 26 28  1  0
 28 29  2  0
 29 30  1  0
 30 31  2  0
 12  7  1  0
 20 15  1  0
 31 21  1  0
 30 24  1  0
  3 32  1  0
  4 33  1  0
  4 34  1  0
  8 35  1  0
  8 36  1  0
  9 37  1  0
  9 38  1  0
 10 39  1  0
 10 40  1  0
 11 41  1  0
 11 42  1  0
 12 43  1  1
 13 44  1  0
 13 45  1  0
 16 46  1  0
 17 47  1  0
 18 48  1  0
 19 49  1  0
 20 50  1  0
 22 51  1  0
 23 52  1  0
 25 53  1  0
 28 54  1  0
 29 55  1  0
M  END
>  <smiles>  (33) 
O=C(NCC(=O)N1CCCC[C@H]1COc1ccccc1)c1ccc2cc(F)ccc2n1

>  <score_type>  (33) 
oracle

>  <origin>  (33) 
autodockgpu

>  <m_score__min__energy>  (33) 
-8.7799999999999994

>  <m_primary>  (33) 
energy

>  <rmsd>  (33) 
2.0452209639715684

>  <m_score__min__rmsd>  (33) 
2.0452209639715684

>  <meeko>  (33) 
{"free_energy": -7.9, "intermolecular_energy": -9.99, "internal_energy": -1.89, "cluster_size": 28, "cluster_id": 1, "rank_in_cluster": 27}

>  <energy>  (33) 
-7.92

>  <cluster_rmsd>  (33) 
1.03

>  <cluster>  (33) 
2

$$$$

     RDKit          3D

 55 58  0  0  0  0  0  0  0  0999 V2000
  141.4470   72.2970  221.8200 O   0  0  0  0  0  0  0  0  0  0  0  0
  140.4460   72.3550  222.5870 C   0  0  0  0  0  0  0  0  0  0  0  0
  139.4970   73.3950  222.2640 N   0  0  0  0  0  0  0  0  0  0  0  0
  139.7000   74.2770  221.1710 C   0  0  0  0  0  0  0  0  0  0  0  0
  140.5990   75.4150  221.2540 C   0  0  0  0  0  0  0  0  0  0  0  0
  140.3890   76.1150  222.3510 O   0  0  0  0  0  0  0  0  0  0  0  0
  141.6110   75.9050  220.4470 N   0  0  0  0  0  0  0  0  0  0  0  0
  142.9340   75.2370  220.2640 C   0  0  0  0  0  0  0  0  0  0  0  0
  143.0410   74.7660  218.8530 C   0  0  0  0  0  0  0  0  0  0  0  0
  141.8980   75.3750  218.0270 C   0  0  0  0  0  0  0  0  0  0  0  0
  141.9880   76.8540  218.2830 C   0  0  0  0  0  0  0  0  0  0  0  0
  141.5330   77.1510  219.6670 C   0  0  1  0  0  0  0  0  0  0  0  0
  140.2810   77.9200  219.7420 C   0  0  0  0  0  0  0  0  0  0  0  0
  140.3510   78.9960  220.5950 O   0  0  0  0  0  0  0  0  0  0  0  0
  141.1190   79.4160  221.6020 C   0  0  0  0  0  0  0  0  0  0  0  0
  140.8250   78.9000  222.8850 C   0  0  0  0  0  0  0  0  0  0  0  0
  141.5500   79.2600  223.9920 C   0  0  0  0  0  0  0  0  0  0  0  0
  142.6000   80.1450  223.9070 C   0  0  0  0  0  0  0  0  0  0  0  0
  142.9110   80.6640  222.6720 C   0  0  0  0  0  0  0  0  0  0  0  0
  142.1770   80.2950  221.5650 C   0  0  0  0  0  0  0  0  0  0  0  0
  140.2320   71.4680  223.7110 C   0  0  0  0  0  0  0  0  0  0  0  0
  139.5430   70.2930  223.5090 C   0  0  0  0  0  0  0  0  0  0  0  0
  139.3180   69.4130  224.5710 C   0  0  0  0  0  0  0  0  0  0  0  0
  139.8210   69.7830  225.8210 C   0  0  0  0  0  0  0  0  0  0  0  0
  139.6320   68.9490  226.9270 C   0  0  0  0  0  0  0  0  0  0  0  0
  140.1330   69.3180  228.1750 C   0  0  0  0  0  0  0  0  0  0  0  0
  139.9520   68.5130  229.2490 F   0  0  0  0  0  0  0  0  0  0  0  0
  140.8210   70.5050  228.3450 C   0  0  0  0  0  0  0  0  0  0  0  0
  140.9960   71.3130  227.2400 C   0  0  0  0  0  0  0  0  0  0  0  0
  140.5130   70.9760  225.9930 C   0  0  0  0  0  0  0  0  0  0  0  0
  140.6950   71.7780  224.9350 N   0  0  0  0  0  0  0  0  0  0  0  0
  138.6580   73.4230  222.9180 H   0  0  0  0  0  0  0  0  0  0  0  0
  140.0652   73.6567  220.3392 H   0  0  0  0  0  0  0  0  0  0  0  0
  138.7182   74.7655  221.0845 H   0  0  0  0  0  0  0  0  0  0  0  0
  143.7423   75.9518  220.4779 H   0  0  0  0  0  0  0  0  0  0  0  0
  143.0208   74.3829  220.9517 H   0  0  0  0  0  0  0  0  0  0  0  0
  144.0071   75.0817  218.4324 H   0  0  0  0  0  0  0  0  0  0  0  0
  142.9724   73.6685  218.8244 H   0  0  0  0  0  0  0  0  0  0  0  0
  142.0338   75.1575  216.9573 H   0  0  0  0  0  0  0  0  0  0  0  0
  140.9171   74.9632  218.3067 H   0  0  0  0  0  0  0  0  0  0  0  0
  143.0306   77.1833  218.1621 H   0  0  0  0  0  0  0  0  0  0  0  0
  141.3469   77.3878  217.5660 H   0  0  0  0  0  0  0  0  0  0  0  0
  142.2102   77.8716  220.1488 H   0  0  0  0  0  0  0  0  0  0  0  0
  140.0376   78.2889  218.7347 H   0  0  0  0  0  0  0  0  0  0  0  0
  139.5078   77.2437  220.1354 H   0  0  0  0  0  0  0  0  0  0  0  0
  139.9921   78.1905  222.9984 H   0  0  0  0  0  0  0  0  0  0  0  0
  141.2861   78.8315  224.9701 H   0  0  0  0  0  0  0  0  0  0  0  0
  143.1742   80.4293  224.8011 H   0  0  0  0  0  0  0  0  0  0  0  0
  143.7452   81.3734  222.5675 H   0  0  0  0  0  0  0  0  0  0  0  0
  142.4539   80.7296  220.5932 H   0  0  0  0  0  0  0  0  0  0  0  0
  139.1673   70.0455  222.5052 H   0  0  0  0  0  0  0  0  0  0  0  0
  138.7690   68.4704  224.4291 H   0  0  0  0  0  0  0  0  0  0  0  0
  139.0873   68.0002  226.8126 H   0  0  0  0  0  0  0  0  0  0  0  0
  141.2162   70.7961  229.3294 H   0  0  0  0  0  0  0  0  0  0  0  0
  141.5410   72.2611  227.3583 H   0  0  0  0  0  0  0  0  0  0  0  0
  1  2  2  0
  2  3  1  0
  3  4  1  0
  4  5  1  0
  5  6  2  0
  5  7  1  0
  7  8  1  0
  8  9  1  0
  9 10  1  0
 10 11  1  0
 11 12  1  0
 12 13  1  0
 13 14  1  0
 14 15  1  0
 15 16  2  0
 16 17  1  0
 17 18  2  0
 18 19  1  0
 19 20  2  0
  2 21  1  0
 21 22  2  0
 22 23  1  0
 23 24  2  0
 24 25  1  0
 25 26  2  0
 26 27  1  0
 26 28  1  0
 28 29  2  0
 29 30  1  0
 30 31  2  0
 12  7  1  0
 20 15  1  0
 31 21  1  0
 30 24  1  0
  3 32  1  0
  4 33  1  0
  4 34  1  0
  8 35  1  0
  8 36  1  0
  9 37  1  0
  9 38  1  0
 10 39  1  0
 10 40  1  0
 11 41  1  0
 11 42  1  0
 12 43  1  1
 13 44  1  0
 13 45  1  0
 16 46  1  0
 17 47  1  0
 18 48  1  0
 19 49  1  0
 20 50  1  0
 22 51  1  0
 23 52  1  0
 25 53  1  0
 28 54  1  0
 29 55  1  0
M  END
>  <smiles>  (34) 
O=C(NCC(=O)N1CCCC[C@H]1COc1ccccc1)c1ccc2cc(F)ccc2n1

>  <score_type>  (34) 
oracle

>  <origin>  (34) 
autodockgpu

>  <m_score__min__energy>  (34) 
-8.7799999999999994

>  <m_primary>  (34) 
energy

>  <rmsd>  (34) 
2.128114360506998

>  <m_score__min__rmsd>  (34) 
2.128114360506998

>  <meeko>  (34) 
{"free_energy": -8.57, "intermolecular_energy": -10.66, "internal_energy": -1.69, "cluster_size": 28, "cluster_id": 1, "rank_in_cluster": 5}

>  <energy>  (34) 
-7.77

>  <cluster_rmsd>  (34) 
1.01

>  <cluster>  (34) 
2

$$$$

     RDKit          3D

 55 58  0  0  0  0  0  0  0  0999 V2000
  140.1790   71.8750  221.0750 O   0  0  0  0  0  0  0  0  0  0  0  0
  139.9090   72.2700  222.2440 C   0  0  0  0  0  0  0  0  0  0  0  0
  139.5280   73.6600  222.3380 N   0  0  0  0  0  0  0  0  0  0  0  0
  139.4780   74.4990  221.1950 C   0  0  0  0  0  0  0  0  0  0  0  0
  140.5870   74.5990  220.2620 C   0  0  0  0  0  0  0  0  0  0  0  0
  140.2890   74.0550  219.0990 O   0  0  0  0  0  0  0  0  0  0  0  0
  141.8600   75.1390  220.3320 N   0  0  0  0  0  0  0  0  0  0  0  0
  143.0670   74.3810  220.7790 C   0  0  0  0  0  0  0  0  0  0  0  0
  143.9940   74.2310  219.6210 C   0  0  0  0  0  0  0  0  0  0  0  0
  143.5230   75.1370  218.4740 C   0  0  0  0  0  0  0  0  0  0  0  0
  143.3900   76.5000  219.0940 C   0  0  0  0  0  0  0  0  0  0  0  0
  142.2030   76.5290  219.9890 C   0  0  1  0  0  0  0  0  0  0  0  0
  141.1120   77.4000  219.5240 C   0  0  0  0  0  0  0  0  0  0  0  0
  140.8380   78.4390  220.3820 O   0  0  0  0  0  0  0  0  0  0  0  0
  141.3890   79.0120  221.4530 C   0  0  0  0  0  0  0  0  0  0  0  0
  141.2890   78.3080  222.6760 C   0  0  0  0  0  0  0  0  0  0  0  0
  141.8190   78.8010  223.8390 C   0  0  0  0  0  0  0  0  0  0  0  0
  142.4770   80.0090  223.8750 C   0  0  0  0  0  0  0  0  0  0  0  0
  142.5910   80.7170  222.7020 C   0  0  0  0  0  0  0  0  0  0  0  0
  142.0550   80.2130  221.5360 C   0  0  0  0  0  0  0  0  0  0  0  0
  139.9650   71.4260  223.4190 C   0  0  0  0  0  0  0  0  0  0  0  0
  139.5350   70.1220  223.3220 C   0  0  0  0  0  0  0  0  0  0  0  0
  139.5740   69.2790  224.4360 C   0  0  0  0  0  0  0  0  0  0  0  0
  140.0650   69.8220  225.6270 C   0  0  0  0  0  0  0  0  0  0  0  0
  140.1320   69.0350  226.7800 C   0  0  0  0  0  0  0  0  0  0  0  0
  140.6220   69.5750  227.9690 C   0  0  0  0  0  0  0  0  0  0  0  0
  140.6890   68.8160  229.0880 F   0  0  0  0  0  0  0  0  0  0  0  0
  141.0470   70.8900  228.0320 C   0  0  0  0  0  0  0  0  0  0  0  0
  140.9710   71.6490  226.8830 C   0  0  0  0  0  0  0  0  0  0  0  0
  140.4920   71.1430  225.6930 C   0  0  0  0  0  0  0  0  0  0  0  0
  140.4280   71.9010  224.5890 N   0  0  0  0  0  0  0  0  0  0  0  0
  139.2980   73.9720  223.3300 H   0  0  0  0  0  0  0  0  0  0  0  0
  138.6103   74.1658  220.6067 H   0  0  0  0  0  0  0  0  0  0  0  0
  139.4660   75.5021  221.6464 H   0  0  0  0  0  0  0  0  0  0  0  0
  143.5709   74.9309  221.5875 H   0  0  0  0  0  0  0  0  0  0  0  0
  142.7699   73.3896  221.1517 H   0  0  0  0  0  0  0  0  0  0  0  0
  145.0109   74.5206  219.9243 H   0  0  0  0  0  0  0  0  0  0  0  0
  143.9984   73.1834  219.2855 H   0  0  0  0  0  0  0  0  0  0  0  0
  144.2643   75.1512  217.6615 H   0  0  0  0  0  0  0  0  0  0  0  0
  142.5793   74.7884  218.0291 H   0  0  0  0  0  0  0  0  0  0  0  0
  144.2942   76.7259  219.6782 H   0  0  0  0  0  0  0  0  0  0  0  0
  143.2664   77.2512  218.3000 H   0  0  0  0  0  0  0  0  0  0  0  0
  142.4455   77.0408  220.9320 H   0  0  0  0  0  0  0  0  0  0  0  0
  141.3936   77.8198  218.5470 H   0  0  0  0  0  0  0  0  0  0  0  0
  140.2051   76.7803  219.4651 H   0  0  0  0  0  0  0  0  0  0  0  0
  140.7712   77.3376  222.6935 H   0  0  0  0  0  0  0  0  0  0  0  0
  141.7162   78.2176  224.7658 H   0  0  0  0  0  0  0  0  0  0  0  0
  142.8991   80.3965  224.8140 H   0  0  0  0  0  0  0  0  0  0  0  0
  143.1104   81.6866  222.6938 H   0  0  0  0  0  0  0  0  0  0  0  0
  142.1665   80.8068  220.6168 H   0  0  0  0  0  0  0  0  0  0  0  0
  139.1582   69.7409  222.3614 H   0  0  0  0  0  0  0  0  0  0  0  0
  139.2335   68.2346  224.3783 H   0  0  0  0  0  0  0  0  0  0  0  0
  139.7976   67.9875  226.7497 H   0  0  0  0  0  0  0  0  0  0  0  0
  141.4335   71.3169  228.9692 H   0  0  0  0  0  0  0  0  0  0  0  0
  141.3048   72.6966  226.9171 H   0  0  0  0  0  0  0  0  0  0  0  0
  1  2  2  0
  2  3  1  0
  3  4  1  0
  4  5  1  0
  5  6  2  0
  5  7  1  0
  7  8  1  0
  8  9  1  0
  9 10  1  0
 10 11  1  0
 11 12  1  0
 12 13  1  0
 13 14  1  0
 14 15  1  0
 15 16  2  0
 16 17  1  0
 17 18  2  0
 18 19  1  0
 19 20  2  0
  2 21  1  0
 21 22  2  0
 22 23  1  0
 23 24  2  0
 24 25  1  0
 25 26  2  0
 26 27  1  0
 26 28  1  0
 28 29  2  0
 29 30  1  0
 30 31  2  0
 12  7  1  0
 20 15  1  0
 31 21  1  0
 30 24  1  0
  3 32  1  0
  4 33  1  0
  4 34  1  0
  8 35  1  0
  8 36  1  0
  9 37  1  0
  9 38  1  0
 10 39  1  0
 10 40  1  0
 11 41  1  0
 11 42  1  0
 12 43  1  1
 13 44  1  0
 13 45  1  0
 16 46  1  0
 17 47  1  0
 18 48  1  0
 19 49  1  0
 20 50  1  0
 22 51  1  0
 23 52  1  0
 25 53  1  0
 28 54  1  0
 29 55  1  0
M  END
>  <smiles>  (35) 
O=C(NCC(=O)N1CCCC[C@H]1COc1ccccc1)c1ccc2cc(F)ccc2n1

>  <score_type>  (35) 
oracle

>  <origin>  (35) 
autodockgpu

>  <m_score__min__energy>  (35) 
-8.7799999999999994

>  <m_primary>  (35) 
energy

>  <rmsd>  (35) 
2.3479318922139716

>  <m_score__min__rmsd>  (35) 
2.3479318922139716

>  <meeko>  (35) 
{"free_energy": -8.43, "intermolecular_energy": -10.52, "internal_energy": -1.76, "cluster_size": 28, "cluster_id": 1, "rank_in_cluster": 8}

>  <energy>  (35) 
-7.77

>  <cluster_rmsd>  (35) 
0.69

>  <cluster>  (35) 
2

$$$$

     RDKit          3D

 55 58  0  0  0  0  0  0  0  0999 V2000
  141.1610   72.3970  221.4200 O   0  0  0  0  0  0  0  0  0  0  0  0
  140.3450   72.6470  222.3500 C   0  0  0  0  0  0  0  0  0  0  0  0
  139.6620   73.9140  222.2310 N   0  0  0  0  0  0  0  0  0  0  0  0
  139.9140   74.7970  221.1490 C   0  0  0  0  0  0  0  0  0  0  0  0
  140.3870   76.1550  221.3560 C   0  0  0  0  0  0  0  0  0  0  0  0
  141.2480   76.5130  220.4240 O   0  0  0  0  0  0  0  0  0  0  0  0
  140.1270   77.1330  222.3010 N   0  0  0  0  0  0  0  0  0  0  0  0
  141.1850   77.8880  223.0380 C   0  0  0  0  0  0  0  0  0  0  0  0
  141.1320   79.3180  222.6190 C   0  0  0  0  0  0  0  0  0  0  0  0
  139.8490   79.5620  221.8110 C   0  0  0  0  0  0  0  0  0  0  0  0
  138.7410   79.0460  222.6870 C   0  0  0  0  0  0  0  0  0  0  0  0
  138.7820   77.5590  222.7200 C   0  0  1  0  0  0  0  0  0  0  0  0
  137.6330   76.9060  222.0730 C   0  0  0  0  0  0  0  0  0  0  0  0
  137.4590   75.5990  222.4610 O   0  0  0  0  0  0  0  0  0  0  0  0
  136.5610   74.8740  223.1300 C   0  0  0  0  0  0  0  0  0  0  0  0
  135.8720   75.5240  224.1800 C   0  0  0  0  0  0  0  0  0  0  0  0
  134.9270   74.8780  224.9340 C   0  0  0  0  0  0  0  0  0  0  0  0
  134.6020   73.5600  224.7050 C   0  0  0  0  0  0  0  0  0  0  0  0
  135.2550   72.9010  223.6910 C   0  0  0  0  0  0  0  0  0  0  0  0
  136.2040   73.5590  222.9380 C   0  0  0  0  0  0  0  0  0  0  0  0
  140.0860   71.7570  223.4630 C   0  0  0  0  0  0  0  0  0  0  0  0
  139.2000   70.7180  223.2920 C   0  0  0  0  0  0  0  0  0  0  0  0
  138.9260   69.8410  224.3440 C   0  0  0  0  0  0  0  0  0  0  0  0
  139.5880   70.0720  225.5530 C   0  0  0  0  0  0  0  0  0  0  0  0
  139.3610   69.2330  226.6480 C   0  0  0  0  0  0  0  0  0  0  0  0
  140.0220   69.4620  227.8550 C   0  0  0  0  0  0  0  0  0  0  0  0
  139.8050   68.6510  228.9170 F   0  0  0  0  0  0  0  0  0  0  0  0
  140.9080   70.5150  227.9930 C   0  0  0  0  0  0  0  0  0  0  0  0
  141.1160   71.3310  226.9000 C   0  0  0  0  0  0  0  0  0  0  0  0
  140.4780   71.1300  225.6950 C   0  0  0  0  0  0  0  0  0  0  0  0
  140.6980   71.9370  224.6470 N   0  0  0  0  0  0  0  0  0  0  0  0
  138.9740   74.1020  223.0200 H   0  0  0  0  0  0  0  0  0  0  0  0
  140.6662   74.3023  220.5170 H   0  0  0  0  0  0  0  0  0  0  0  0
  138.9035   74.9637  220.7477 H   0  0  0  0  0  0  0  0  0  0  0  0
  141.0070   77.8128  224.1209 H   0  0  0  0  0  0  0  0  0  0  0  0
  142.1748   77.4667  222.8082 H   0  0  0  0  0  0  0  0  0  0  0  0
  141.1332   79.9625  223.5104 H   0  0  0  0  0  0  0  0  0  0  0  0
  142.0092   79.5533  221.9983 H   0  0  0  0  0  0  0  0  0  0  0  0
  139.7160   80.6351  221.6093 H   0  0  0  0  0  0  0  0  0  0  0  0
  139.8726   79.0610  220.8320 H   0  0  0  0  0  0  0  0  0  0  0  0
  138.8677   79.4384  223.7068 H   0  0  0  0  0  0  0  0  0  0  0  0
  137.7724   79.3758  222.2832 H   0  0  0  0  0  0  0  0  0  0  0  0
  138.6369   77.1928  223.7471 H   0  0  0  0  0  0  0  0  0  0  0  0
  136.7230   77.4694  222.3271 H   0  0  0  0  0  0  0  0  0  0  0  0
  137.8294   76.9003  220.9907 H   0  0  0  0  0  0  0  0  0  0  0  0
  136.1008   76.5777  224.3978 H   0  0  0  0  0  0  0  0  0  0  0  0
  134.4167   75.4251  225.7404 H   0  0  0  0  0  0  0  0  0  0  0  0
  133.8424   73.0496  225.3153 H   0  0  0  0  0  0  0  0  0  0  0  0
  135.0202   71.8473  223.4800 H   0  0  0  0  0  0  0  0  0  0  0  0
  136.7061   72.9991  222.1353 H   0  0  0  0  0  0  0  0  0  0  0  0
  138.7042   70.5772  222.3202 H   0  0  0  0  0  0  0  0  0  0  0  0
  138.2203   69.0054  224.2261 H   0  0  0  0  0  0  0  0  0  0  0  0
  138.6596   68.3904  226.5577 H   0  0  0  0  0  0  0  0  0  0  0  0
  141.4303   70.6962  228.9440 H   0  0  0  0  0  0  0  0  0  0  0  0
  141.8172   72.1734  226.9939 H   0  0  0  0  0  0  0  0  0  0  0  0
  1  2  2  0
  2  3  1  0
  3  4  1  0
  4  5  1  0
  5  6  2  0
  5  7  1  0
  7  8  1  0
  8  9  1  0
  9 10  1  0
 10 11  1  0
 11 12  1  0
 12 13  1  0
 13 14  1  0
 14 15  1  0
 15 16  2  0
 16 17  1  0
 17 18  2  0
 18 19  1  0
 19 20  2  0
  2 21  1  0
 21 22  2  0
 22 23  1  0
 23 24  2  0
 24 25  1  0
 25 26  2  0
 26 27  1  0
 26 28  1  0
 28 29  2  0
 29 30  1  0
 30 31  2  0
 12  7  1  0
 20 15  1  0
 31 21  1  0
 30 24  1  0
  3 32  1  0
  4 33  1  0
  4 34  1  0
  8 35  1  0
  8 36  1  0
  9 37  1  0
  9 38  1  0
 10 39  1  0
 10 40  1  0
 11 41  1  0
 11 42  1  0
 12 43  1  1
 13 44  1  0
 13 45  1  0
 16 46  1  0
 17 47  1  0
 18 48  1  0
 19 49  1  0
 20 50  1  0
 22 51  1  0
 23 52  1  0
 25 53  1  0
 28 54  1  0
 29 55  1  0
M  END
>  <smiles>  (36) 
O=C(NCC(=O)N1CCCC[C@H]1COc1ccccc1)c1ccc2cc(F)ccc2n1

>  <score_type>  (36) 
oracle

>  <origin>  (36) 
autodockgpu

>  <m_score__min__energy>  (36) 
-8.7799999999999994

>  <m_primary>  (36) 
energy

>  <rmsd>  (36) 
3.4563908533638155

>  <m_score__min__rmsd>  (36) 
3.4563908533638155

>  <meeko>  (36) 
{"free_energy": -7.4, "intermolecular_energy": -9.49, "internal_energy": -2.46, "cluster_size": 3, "cluster_id": 5, "rank_in_cluster": 2}

>  <energy>  (36) 
-7.7

>  <cluster_rmsd>  (36) 
0.71

>  <cluster>  (36) 
2

$$$$

     RDKit          3D

 55 58  0  0  0  0  0  0  0  0999 V2000
  141.5090   72.1530  221.4630 O   0  0  0  0  0  0  0  0  0  0  0  0
  140.6220   72.3970  222.3280 C   0  0  0  0  0  0  0  0  0  0  0  0
  139.8650   73.6040  222.0940 N   0  0  0  0  0  0  0  0  0  0  0  0
  140.1230   74.4410  220.9780 C   0  0  0  0  0  0  0  0  0  0  0  0
  140.5310   75.8270  221.1310 C   0  0  0  0  0  0  0  0  0  0  0  0
  141.0540   76.0470  222.3200 O   0  0  0  0  0  0  0  0  0  0  0  0
  140.4930   76.9400  220.3070 N   0  0  0  0  0  0  0  0  0  0  0  0
  139.2660   77.7540  220.0570 C   0  0  0  0  0  0  0  0  0  0  0  0
  139.4640   79.1100  220.6450 C   0  0  0  0  0  0  0  0  0  0  0  0
  140.9390   79.2820  221.0390 C   0  0  0  0  0  0  0  0  0  0  0  0
  141.7090   78.9350  219.7960 C   0  0  0  0  0  0  0  0  0  0  0  0
  141.6440   77.4690  219.5580 C   0  0  1  0  0  0  0  0  0  0  0  0
  142.9290   76.7710  219.7100 C   0  0  0  0  0  0  0  0  0  0  0  0
  142.8250   75.4040  219.6010 O   0  0  0  0  0  0  0  0  0  0  0  0
  143.6220   74.3380  219.6940 C   0  0  0  0  0  0  0  0  0  0  0  0
  144.8170   74.4980  220.4330 C   0  0  0  0  0  0  0  0  0  0  0  0
  145.7090   73.4700  220.5960 C   0  0  0  0  0  0  0  0  0  0  0  0
  145.4840   72.2290  220.0460 C   0  0  0  0  0  0  0  0  0  0  0  0
  144.3300   72.0420  219.3220 C   0  0  0  0  0  0  0  0  0  0  0  0
  143.4390   73.0820  219.1640 C   0  0  0  0  0  0  0  0  0  0  0  0
  140.3560   71.5550  223.4760 C   0  0  0  0  0  0  0  0  0  0  0  0
  139.6250   70.4020  223.2990 C   0  0  0  0  0  0  0  0  0  0  0  0
  139.3490   69.5660  224.3850 C   0  0  0  0  0  0  0  0  0  0  0  0
  139.8450   69.9580  225.6310 C   0  0  0  0  0  0  0  0  0  0  0  0
  139.6050   69.1690  226.7600 C   0  0  0  0  0  0  0  0  0  0  0  0
  140.1010   69.5580  228.0050 C   0  0  0  0  0  0  0  0  0  0  0  0
  139.8710   68.7970  229.1000 F   0  0  0  0  0  0  0  0  0  0  0  0
  140.8320   70.7230  228.1480 C   0  0  0  0  0  0  0  0  0  0  0  0
  141.0550   71.4880  227.0200 C   0  0  0  0  0  0  0  0  0  0  0  0
  140.5790   71.1280  225.7770 C   0  0  0  0  0  0  0  0  0  0  0  0
  140.8100   71.8880  224.6970 N   0  0  0  0  0  0  0  0  0  0  0  0
  139.1180   73.7880  222.8300 H   0  0  0  0  0  0  0  0  0  0  0  0
  140.9194   73.9479  220.4013 H   0  0  0  0  0  0  0  0  0  0  0  0
  139.1231   74.5435  220.5312 H   0  0  0  0  0  0  0  0  0  0  0  0
  139.0942   77.8416  218.9740 H   0  0  0  0  0  0  0  0  0  0  0  0
  138.3937   77.2688  220.5191 H   0  0  0  0  0  0  0  0  0  0  0  0
  139.1899   79.8754  219.9041 H   0  0  0  0  0  0  0  0  0  0  0  0
  138.8290   79.2215  221.5363 H   0  0  0  0  0  0  0  0  0  0  0  0
  141.1407   80.3197  221.3433 H   0  0  0  0  0  0  0  0  0  0  0  0
  141.2185   78.6469  221.8925 H   0  0  0  0  0  0  0  0  0  0  0  0
  141.2728   79.4645  218.9361 H   0  0  0  0  0  0  0  0  0  0  0  0
  142.7592   79.2369  219.9224 H   0  0  0  0  0  0  0  0  0  0  0  0
  141.4573   77.2598  218.4943 H   0  0  0  0  0  0  0  0  0  0  0  0
  143.6159   77.1316  218.9302 H   0  0  0  0  0  0  0  0  0  0  0  0
  143.2985   76.9885  220.7230 H   0  0  0  0  0  0  0  0  0  0  0  0
  145.0368   75.4743  220.8896 H   0  0  0  0  0  0  0  0  0  0  0  0
  146.6255   73.6411  221.1797 H   0  0  0  0  0  0  0  0  0  0  0  0
  146.2061   71.4104  220.1815 H   0  0  0  0  0  0  0  0  0  0  0  0
  144.1178   71.0624  218.8688 H   0  0  0  0  0  0  0  0  0  0  0  0
  142.5264   72.8961  218.5786 H   0  0  0  0  0  0  0  0  0  0  0  0
  139.2559   70.1369  222.2972 H   0  0  0  0  0  0  0  0  0  0  0  0
  138.7670   68.6405  224.2639 H   0  0  0  0  0  0  0  0  0  0  0  0
  139.0240   68.2396  226.6667 H   0  0  0  0  0  0  0  0  0  0  0  0
  141.2234   71.0306  229.1289 H   0  0  0  0  0  0  0  0  0  0  0  0
  141.6335   72.4186  227.1167 H   0  0  0  0  0  0  0  0  0  0  0  0
  1  2  2  0
  2  3  1  0
  3  4  1  0
  4  5  1  0
  5  6  2  0
  5  7  1  0
  7  8  1  0
  8  9  1  0
  9 10  1  0
 10 11  1  0
 11 12  1  0
 12 13  1  0
 13 14  1  0
 14 15  1  0
 15 16  2  0
 16 17  1  0
 17 18  2  0
 18 19  1  0
 19 20  2  0
  2 21  1  0
 21 22  2  0
 22 23  1  0
 23 24  2  0
 24 25  1  0
 25 26  2  0
 26 27  1  0
 26 28  1  0
 28 29  2  0
 29 30  1  0
 30 31  2  0
 12  7  1  0
 20 15  1  0
 31 21  1  0
 30 24  1  0
  3 32  1  0
  4 33  1  0
  4 34  1  0
  8 35  1  0
  8 36  1  0
  9 37  1  0
  9 38  1  0
 10 39  1  0
 10 40  1  0
 11 41  1  0
 11 42  1  0
 12 43  1  6
 13 44  1  0
 13 45  1  0
 16 46  1  0
 17 47  1  0
 18 48  1  0
 19 49  1  0
 20 50  1  0
 22 51  1  0
 23 52  1  0
 25 53  1  0
 28 54  1  0
 29 55  1  0
M  END
>  <smiles>  (37) 
O=C(NCC(=O)N1CCCC[C@H]1COc1ccccc1)c1ccc2cc(F)ccc2n1

>  <score_type>  (37) 
oracle

>  <origin>  (37) 
autodockgpu

>  <m_score__min__energy>  (37) 
-8.7799999999999994

>  <m_primary>  (37) 
energy

>  <rmsd>  (37) 
2.334742805711913

>  <m_score__min__rmsd>  (37) 
2.334742805711913

>  <meeko>  (37) 
{"free_energy": -8.01, "intermolecular_energy": -10.1, "internal_energy": -1.81, "cluster_size": 16, "cluster_id": 2, "rank_in_cluster": 4}

>  <energy>  (37) 
-7.61

>  <cluster_rmsd>  (37) 
0.98

>  <cluster>  (37) 
2

$$$$

     RDKit          3D

 55 58  0  0  0  0  0  0  0  0999 V2000
  139.5220   71.6190  220.8310 O   0  0  0  0  0  0  0  0  0  0  0  0
  139.4280   72.0960  221.9970 C   0  0  0  0  0  0  0  0  0  0  0  0
  139.0960   73.5000  222.0510 N   0  0  0  0  0  0  0  0  0  0  0  0
  138.9050   74.2670  220.8720 C   0  0  0  0  0  0  0  0  0  0  0  0
  139.9810   75.0330  220.2670 C   0  0  0  0  0  0  0  0  0  0  0  0
  139.5420   75.7770  219.2720 O   0  0  0  0  0  0  0  0  0  0  0  0
  141.3390   75.1490  220.5130 N   0  0  0  0  0  0  0  0  0  0  0  0
  142.2240   74.0020  220.8760 C   0  0  0  0  0  0  0  0  0  0  0  0
  143.1940   73.7760  219.7660 C   0  0  0  0  0  0  0  0  0  0  0  0
  143.1300   74.9590  218.7880 C   0  0  0  0  0  0  0  0  0  0  0  0
  143.3190   76.1770  219.6480 C   0  0  0  0  0  0  0  0  0  0  0  0
  142.0970   76.4100  220.4620 C   0  0  1  0  0  0  0  0  0  0  0  0
  141.3560   77.6310  220.1090 C   0  0  0  0  0  0  0  0  0  0  0  0
  140.8130   78.2740  221.1970 O   0  0  0  0  0  0  0  0  0  0  0  0
  141.1880   79.1800  222.1020 C   0  0  0  0  0  0  0  0  0  0  0  0
  142.5770   79.3240  222.3220 C   0  0  0  0  0  0  0  0  0  0  0  0
  143.0750   80.2240  223.2270 C   0  0  0  0  0  0  0  0  0  0  0  0
  142.2450   81.0330  223.9690 C   0  0  0  0  0  0  0  0  0  0  0  0
  140.8880   80.9170  223.7770 C   0  0  0  0  0  0  0  0  0  0  0  0
  140.3960   80.0080  222.8640 C   0  0  0  0  0  0  0  0  0  0  0  0
  139.6300   71.3260  223.2060 C   0  0  0  0  0  0  0  0  0  0  0  0
  139.3100   69.9870  223.2030 C   0  0  0  0  0  0  0  0  0  0  0  0
  139.4910   69.2140  224.3530 C   0  0  0  0  0  0  0  0  0  0  0  0
  140.0040   69.8610  225.4810 C   0  0  0  0  0  0  0  0  0  0  0  0
  140.2100   69.1470  226.6650 C   0  0  0  0  0  0  0  0  0  0  0  0
  140.7230   69.7910  227.7900 C   0  0  0  0  0  0  0  0  0  0  0  0
  140.9250   69.1040  228.9390 F   0  0  0  0  0  0  0  0  0  0  0  0
  141.0350   71.1380  227.7600 C   0  0  0  0  0  0  0  0  0  0  0  0
  140.8230   71.8240  226.5810 C   0  0  0  0  0  0  0  0  0  0  0  0
  140.3180   71.2140  225.4520 C   0  0  0  0  0  0  0  0  0  0  0  0
  140.1210   71.9020  224.3190 N   0  0  0  0  0  0  0  0  0  0  0  0
  139.0160   73.8810  223.0410 H   0  0  0  0  0  0  0  0  0  0  0  0
  138.5567   73.5641  220.1009 H   0  0  0  0  0  0  0  0  0  0  0  0
  138.2263   75.0594  221.2205 H   0  0  0  0  0  0  0  0  0  0  0  0
  142.7694   74.2342  221.8026 H   0  0  0  0  0  0  0  0  0  0  0  0
  141.6187   73.0973  221.0345 H   0  0  0  0  0  0  0  0  0  0  0  0
  144.2108   73.6938  220.1775 H   0  0  0  0  0  0  0  0  0  0  0  0
  142.9389   72.8459  219.2370 H   0  0  0  0  0  0  0  0  0  0  0  0
  143.9313   74.8858  218.0380 H   0  0  0  0  0  0  0  0  0  0  0  0
  142.1822   74.9867  218.2304 H   0  0  0  0  0  0  0  0  0  0  0  0
  144.1794   76.0232  220.3158 H   0  0  0  0  0  0  0  0  0  0  0  0
  143.5014   77.0515  219.0061 H   0  0  0  0  0  0  0  0  0  0  0  0
  142.3675   76.6623  221.4979 H   0  0  0  0  0  0  0  0  0  0  0  0
  142.0452   78.3231  219.6030 H   0  0  0  0  0  0  0  0  0  0  0  0
  140.5207   77.3280  219.4605 H   0  0  0  0  0  0  0  0  0  0  0  0
  143.2770   78.6963  221.7510 H   0  0  0  0  0  0  0  0  0  0  0  0
  144.1637   80.3018  223.3637 H   0  0  0  0  0  0  0  0  0  0  0  0
  142.6548   81.7513  224.6943 H   0  0  0  0  0  0  0  0  0  0  0  0
  140.1952   81.5493  224.3517 H   0  0  0  0  0  0  0  0  0  0  0  0
  139.3054   79.9409  222.7373 H   0  0  0  0  0  0  0  0  0  0  0  0
  138.9094   69.5228  222.2898 H   0  0  0  0  0  0  0  0  0  0  0  0
  139.2407   68.1430  224.3699 H   0  0  0  0  0  0  0  0  0  0  0  0
  139.9669   68.0751  226.7091 H   0  0  0  0  0  0  0  0  0  0  0  0
  141.4393   71.6467  228.6476 H   0  0  0  0  0  0  0  0  0  0  0  0
  141.0657   72.8961  226.5406 H   0  0  0  0  0  0  0  0  0  0  0  0
  1  2  2  0
  2  3  1  0
  3  4  1  0
  4  5  1  0
  5  6  2  0
  5  7  1  0
  7  8  1  0
  8  9  1  0
  9 10  1  0
 10 11  1  0
 11 12  1  0
 12 13  1  0
 13 14  1  0
 14 15  1  0
 15 16  2  0
 16 17  1  0
 17 18  2  0
 18 19  1  0
 19 20  2  0
  2 21  1  0
 21 22  2  0
 22 23  1  0
 23 24  2  0
 24 25  1  0
 25 26  2  0
 26 27  1  0
 26 28  1  0
 28 29  2  0
 29 30  1  0
 30 31  2  0
 12  7  1  0
 20 15  1  0
 31 21  1  0
 30 24  1  0
  3 32  1  0
  4 33  1  0
  4 34  1  0
  8 35  1  0
  8 36  1  0
  9 37  1  0
  9 38  1  0
 10 39  1  0
 10 40  1  0
 11 41  1  0
 11 42  1  0
 12 43  1  1
 13 44  1  0
 13 45  1  0
 16 46  1  0
 17 47  1  0
 18 48  1  0
 19 49  1  0
 20 50  1  0
 22 51  1  0
 23 52  1  0
 25 53  1  0
 28 54  1  0
 29 55  1  0
M  END
>  <smiles>  (38) 
O=C(NCC(=O)N1CCCC[C@H]1COc1ccccc1)c1ccc2cc(F)ccc2n1

>  <score_type>  (38) 
oracle

>  <origin>  (38) 
autodockgpu

>  <m_score__min__energy>  (38) 
-8.7799999999999994

>  <m_primary>  (38) 
energy

>  <rmsd>  (38) 
2.1443732231777153

>  <m_score__min__rmsd>  (38) 
2.1443732231777153

>  <meeko>  (38) 
{"free_energy": -8.01, "intermolecular_energy": -10.1, "internal_energy": -1.64, "cluster_size": 28, "cluster_id": 1, "rank_in_cluster": 25}

>  <energy>  (38) 
-7.59

>  <cluster_rmsd>  (38) 
0.75

>  <cluster>  (38) 
2

$$$$

     RDKit          3D

 55 58  0  0  0  0  0  0  0  0999 V2000
  138.6680   71.0680  221.2200 O   0  0  0  0  0  0  0  0  0  0  0  0
  139.0090   71.5590  222.3320 C   0  0  0  0  0  0  0  0  0  0  0  0
  139.0990   73.0000  222.3540 N   0  0  0  0  0  0  0  0  0  0  0  0
  138.8310   73.7820  221.2000 C   0  0  0  0  0  0  0  0  0  0  0  0
  139.8930   74.2980  220.3540 C   0  0  0  0  0  0  0  0  0  0  0  0
  139.4560   74.5550  219.1370 O   0  0  0  0  0  0  0  0  0  0  0  0
  141.2340   74.5760  220.5520 N   0  0  0  0  0  0  0  0  0  0  0  0
  142.3100   73.5400  220.5740 C   0  0  0  0  0  0  0  0  0  0  0  0
  143.1990   73.7480  219.3950 C   0  0  0  0  0  0  0  0  0  0  0  0
  142.8720   75.1010  218.7450 C   0  0  0  0  0  0  0  0  0  0  0  0
  142.9540   76.0940  219.8710 C   0  0  0  0  0  0  0  0  0  0  0  0
  141.7880   75.9220  220.7780 C   0  0  1  0  0  0  0  0  0  0  0  0
  140.8450   77.0500  220.7770 C   0  0  0  0  0  0  0  0  0  0  0  0
  140.7240   77.6620  222.0030 O   0  0  0  0  0  0  0  0  0  0  0  0
  141.1000   78.8030  222.5830 C   0  0  0  0  0  0  0  0  0  0  0  0
  142.4850   79.0860  222.5930 C   0  0  0  0  0  0  0  0  0  0  0  0
  142.9850   80.2300  223.1610 C   0  0  0  0  0  0  0  0  0  0  0  0
  142.1600   81.1600  223.7510 C   0  0  0  0  0  0  0  0  0  0  0  0
  140.8070   80.9130  223.7560 C   0  0  0  0  0  0  0  0  0  0  0  0
  140.3140   79.7600  223.1830 C   0  0  0  0  0  0  0  0  0  0  0  0
  139.2950   70.7720  223.5130 C   0  0  0  0  0  0  0  0  0  0  0  0
  138.9620   69.4360  223.5180 C   0  0  0  0  0  0  0  0  0  0  0  0
  139.2220   68.6460  224.6410 C   0  0  0  0  0  0  0  0  0  0  0  0
  139.8260   69.2740  225.7340 C   0  0  0  0  0  0  0  0  0  0  0  0
  140.1140   68.5430  226.8900 C   0  0  0  0  0  0  0  0  0  0  0  0
  140.7180   69.1680  227.9810 C   0  0  0  0  0  0  0  0  0  0  0  0
  140.9990   68.4630  229.1020 F   0  0  0  0  0  0  0  0  0  0  0  0
  141.0400   70.5120  227.9440 C   0  0  0  0  0  0  0  0  0  0  0  0
  140.7450   71.2150  226.7930 C   0  0  0  0  0  0  0  0  0  0  0  0
  140.1500   70.6240  225.6980 C   0  0  0  0  0  0  0  0  0  0  0  0
  139.8740   71.3290  224.5920 N   0  0  0  0  0  0  0  0  0  0  0  0
  139.3810   73.3950  223.3010 H   0  0  0  0  0  0  0  0  0  0  0  0
  138.1937   73.1637  220.5508 H   0  0  0  0  0  0  0  0  0  0  0  0
  138.4172   74.7027  221.6371 H   0  0  0  0  0  0  0  0  0  0  0  0
  142.8957   73.6344  221.5003 H   0  0  0  0  0  0  0  0  0  0  0  0
  141.8636   72.5355  220.5339 H   0  0  0  0  0  0  0  0  0  0  0  0
  144.2495   73.7414  219.7212 H   0  0  0  0  0  0  0  0  0  0  0  0
  143.0387   72.9404  218.6656 H   0  0  0  0  0  0  0  0  0  0  0  0
  143.6048   75.3420  217.9609 H   0  0  0  0  0  0  0  0  0  0  0  0
  141.8849   75.1022  218.2595 H   0  0  0  0  0  0  0  0  0  0  0  0
  143.8836   75.9303  220.4358 H   0  0  0  0  0  0  0  0  0  0  0  0
  142.9467   77.1136  219.4583 H   0  0  0  0  0  0  0  0  0  0  0  0
  142.1092   75.9645  221.8292 H   0  0  0  0  0  0  0  0  0  0  0  0
  141.1944   77.7959  220.0479 H   0  0  0  0  0  0  0  0  0  0  0  0
  139.8556   76.6459  220.5167 H   0  0  0  0  0  0  0  0  0  0  0  0
  143.1808   78.3691  222.1327 H   0  0  0  0  0  0  0  0  0  0  0  0
  144.0704   80.4081  223.1445 H   0  0  0  0  0  0  0  0  0  0  0  0
  142.5705   82.0739  224.2052 H   0  0  0  0  0  0  0  0  0  0  0  0
  140.1179   81.6357  224.2174 H   0  0  0  0  0  0  0  0  0  0  0  0
  139.2267   79.5951  223.2069 H   0  0  0  0  0  0  0  0  0  0  0  0
  138.4883   68.9876  222.6323 H   0  0  0  0  0  0  0  0  0  0  0  0
  138.9628   67.5772  224.6638 H   0  0  0  0  0  0  0  0  0  0  0  0
  139.8639   67.4730  226.9395 H   0  0  0  0  0  0  0  0  0  0  0  0
  141.5160   71.0055  228.8042 H   0  0  0  0  0  0  0  0  0  0  0  0
  140.9936   72.2856  226.7476 H   0  0  0  0  0  0  0  0  0  0  0  0
  1  2  2  0
  2  3  1  0
  3  4  1  0
  4  5  1  0
  5  6  2  0
  5  7  1  0
  7  8  1  0
  8  9  1  0
  9 10  1  0
 10 11  1  0
 11 12  1  0
 12 13  1  0
 13 14  1  0
 14 15  1  0
 15 16  2  0
 16 17  1  0
 17 18  2  0
 18 19  1  0
 19 20  2  0
  2 21  1  0
 21 22  2  0
 22 23  1  0
 23 24  2  0
 24 25  1  0
 25 26  2  0
 26 27  1  0
 26 28  1  0
 28 29  2  0
 29 30  1  0
 30 31  2  0
 12  7  1  0
 20 15  1  0
 31 21  1  0
 30 24  1  0
  3 32  1  0
  4 33  1  0
  4 34  1  0
  8 35  1  0
  8 36  1  0
  9 37  1  0
  9 38  1  0
 10 39  1  0
 10 40  1  0
 11 41  1  0
 11 42  1  0
 12 43  1  1
 13 44  1  0
 13 45  1  0
 16 46  1  0
 17 47  1  0
 18 48  1  0
 19 49  1  0
 20 50  1  0
 22 51  1  0
 23 52  1  0
 25 53  1  0
 28 54  1  0
 29 55  1  0
M  END
>  <smiles>  (39) 
O=C(NCC(=O)N1CCCC[C@H]1COc1ccccc1)c1ccc2cc(F)ccc2n1

>  <score_type>  (39) 
oracle

>  <origin>  (39) 
autodockgpu

>  <m_score__min__energy>  (39) 
-8.7799999999999994

>  <m_primary>  (39) 
energy

>  <rmsd>  (39) 
2.1011166354259454

>  <m_score__min__rmsd>  (39) 
2.1011166354259454

>  <meeko>  (39) 
{"free_energy": -8.14, "intermolecular_energy": -10.22, "internal_energy": -1.67, "cluster_size": 28, "cluster_id": 1, "rank_in_cluster": 20}

>  <energy>  (39) 
-7.56

>  <cluster_rmsd>  (39) 
0.78

>  <cluster>  (39) 
2

$$$$

     RDKit          3D

 55 58  0  0  0  0  0  0  0  0999 V2000
  138.5000   71.1940  221.2750 O   0  0  0  0  0  0  0  0  0  0  0  0
  138.9220   71.6930  222.3550 C   0  0  0  0  0  0  0  0  0  0  0  0
  139.0330   73.1330  222.3530 N   0  0  0  0  0  0  0  0  0  0  0  0
  138.6980   73.9050  221.2100 C   0  0  0  0  0  0  0  0  0  0  0  0
  139.6850   74.6980  220.4980 C   0  0  0  0  0  0  0  0  0  0  0  0
  139.3910   74.7970  219.2170 O   0  0  0  0  0  0  0  0  0  0  0  0
  140.8410   75.3620  220.8720 N   0  0  0  0  0  0  0  0  0  0  0  0
  142.2190   74.8200  220.6760 C   0  0  0  0  0  0  0  0  0  0  0  0
  142.9310   75.6740  219.6820 C   0  0  0  0  0  0  0  0  0  0  0  0
  142.1140   76.9500  219.4310 C   0  0  0  0  0  0  0  0  0  0  0  0
  141.8690   77.5210  220.8000 C   0  0  0  0  0  0  0  0  0  0  0  0
  140.8770   76.6820  221.5230 C   0  0  1  0  0  0  0  0  0  0  0  0
  139.5900   77.3470  221.7780 C   0  0  0  0  0  0  0  0  0  0  0  0
  139.6720   78.3640  222.6990 O   0  0  0  0  0  0  0  0  0  0  0  0
  140.5120   79.3520  223.0130 C   0  0  0  0  0  0  0  0  0  0  0  0
  141.6190   79.0140  223.8250 C   0  0  0  0  0  0  0  0  0  0  0  0
  142.5460   79.9480  224.2080 C   0  0  0  0  0  0  0  0  0  0  0  0
  142.4440   81.2640  223.8200 C   0  0  0  0  0  0  0  0  0  0  0  0
  141.3780   81.6240  223.0290 C   0  0  0  0  0  0  0  0  0  0  0  0
  140.4510   80.6780  222.6490 C   0  0  0  0  0  0  0  0  0  0  0  0
  139.2760   70.9160  223.5240 C   0  0  0  0  0  0  0  0  0  0  0  0
  139.0340   69.5600  223.5190 C   0  0  0  0  0  0  0  0  0  0  0  0
  139.3630   68.7790  224.6300 C   0  0  0  0  0  0  0  0  0  0  0  0
  139.9380   69.4350  225.7220 C   0  0  0  0  0  0  0  0  0  0  0  0
  140.2910   68.7140  226.8660 C   0  0  0  0  0  0  0  0  0  0  0  0
  140.8650   69.3680  227.9560 C   0  0  0  0  0  0  0  0  0  0  0  0
  141.2090   68.6730  229.0660 F   0  0  0  0  0  0  0  0  0  0  0  0
  141.0950   70.7310  227.9290 C   0  0  0  0  0  0  0  0  0  0  0  0
  140.7380   71.4240  226.7890 C   0  0  0  0  0  0  0  0  0  0  0  0
  140.1700   70.8050  225.6960 C   0  0  0  0  0  0  0  0  0  0  0  0
  139.8320   71.4990  224.6010 N   0  0  0  0  0  0  0  0  0  0  0  0
  139.3840   73.5340  223.2740 H   0  0  0  0  0  0  0  0  0  0  0  0
  138.2809   73.2009  220.4749 H   0  0  0  0  0  0  0  0  0  0  0  0
  138.0463   74.6803  221.6391 H   0  0  0  0  0  0  0  0  0  0  0  0
  142.7619   74.8340  221.6326 H   0  0  0  0  0  0  0  0  0  0  0  0
  142.1661   73.7838  220.3106 H   0  0  0  0  0  0  0  0  0  0  0  0
  143.9230   75.9439  220.0733 H   0  0  0  0  0  0  0  0  0  0  0  0
  143.0492   75.1207  218.7386 H   0  0  0  0  0  0  0  0  0  0  0  0
  142.6823   77.6589  218.8109 H   0  0  0  0  0  0  0  0  0  0  0  0
  141.1775   76.7455  218.8914 H   0  0  0  0  0  0  0  0  0  0  0  0
  142.8135   77.5378  221.3635 H   0  0  0  0  0  0  0  0  0  0  0  0
  141.4784   78.5447  220.7030 H   0  0  0  0  0  0  0  0  0  0  0  0
  141.1967   76.5171  222.5625 H   0  0  0  0  0  0  0  0  0  0  0  0
  139.2199   77.7646  220.8300 H   0  0  0  0  0  0  0  0  0  0  0  0
  138.9101   76.5883  222.1930 H   0  0  0  0  0  0  0  0  0  0  0  0
  141.7396   77.9727  224.1585 H   0  0  0  0  0  0  0  0  0  0  0  0
  143.3912   79.6383  224.8403 H   0  0  0  0  0  0  0  0  0  0  0  0
  143.1929   82.0063  224.1332 H   0  0  0  0  0  0  0  0  0  0  0  0
  141.2654   82.6675  222.6996 H   0  0  0  0  0  0  0  0  0  0  0  0
  139.6114   81.0021  222.0165 H   0  0  0  0  0  0  0  0  0  0  0  0
  138.5790   69.0891  222.6351 H   0  0  0  0  0  0  0  0  0  0  0  0
  139.1775   67.6949  224.6445 H   0  0  0  0  0  0  0  0  0  0  0  0
  140.1158   67.6288  226.9068 H   0  0  0  0  0  0  0  0  0  0  0  0
  141.5480   71.2471  228.7883 H   0  0  0  0  0  0  0  0  0  0  0  0
  140.9133   72.5093  226.7518 H   0  0  0  0  0  0  0  0  0  0  0  0
  1  2  2  0
  2  3  1  0
  3  4  1  0
  4  5  1  0
  5  6  2  0
  5  7  1  0
  7  8  1  0
  8  9  1  0
  9 10  1  0
 10 11  1  0
 11 12  1  0
 12 13  1  0
 13 14  1  0
 14 15  1  0
 15 16  2  0
 16 17  1  0
 17 18  2  0
 18 19  1  0
 19 20  2  0
  2 21  1  0
 21 22  2  0
 22 23  1  0
 23 24  2  0
 24 25  1  0
 25 26  2  0
 26 27  1  0
 26 28  1  0
 28 29  2  0
 29 30  1  0
 30 31  2  0
 12  7  1  0
 20 15  1  0
 31 21  1  0
 30 24  1  0
  3 32  1  0
  4 33  1  0
  4 34  1  0
  8 35  1  0
  8 36  1  0
  9 37  1  0
  9 38  1  0
 10 39  1  0
 10 40  1  0
 11 41  1  0
 11 42  1  0
 12 43  1  1
 13 44  1  0
 13 45  1  0
 16 46  1  0
 17 47  1  0
 18 48  1  0
 19 49  1  0
 20 50  1  0
 22 51  1  0
 23 52  1  0
 25 53  1  0
 28 54  1  0
 29 55  1  0
M  END
>  <smiles>  (40) 
O=C(NCC(=O)N1CCCC[C@H]1COc1ccccc1)c1ccc2cc(F)ccc2n1

>  <score_type>  (40) 
oracle

>  <origin>  (40) 
autodockgpu

>  <m_score__min__energy>  (40) 
-8.7799999999999994

>  <m_primary>  (40) 
energy

>  <rmsd>  (40) 
2.162448393390373

>  <m_score__min__rmsd>  (40) 
2.162448393390373

>  <meeko>  (40) 
{"free_energy": -8.24, "intermolecular_energy": -10.33, "internal_energy": -1.68, "cluster_size": 28, "cluster_id": 1, "rank_in_cluster": 17}

>  <energy>  (40) 
-7.53

>  <cluster_rmsd>  (40) 
0.86

>  <cluster>  (40) 
2

$$$$

     RDKit          3D

 55 58  0  0  0  0  0  0  0  0999 V2000
  139.3570   71.1060  221.2500 O   0  0  0  0  0  0  0  0  0  0  0  0
  139.5790   71.5480  222.4120 C   0  0  0  0  0  0  0  0  0  0  0  0
  139.7460   72.9800  222.4910 N   0  0  0  0  0  0  0  0  0  0  0  0
  139.6730   73.8050  221.3390 C   0  0  0  0  0  0  0  0  0  0  0  0
  140.3030   75.1130  221.2850 C   0  0  0  0  0  0  0  0  0  0  0  0
  141.0630   75.3260  222.3400 O   0  0  0  0  0  0  0  0  0  0  0  0
  140.2790   76.1580  220.3760 N   0  0  0  0  0  0  0  0  0  0  0  0
  140.0250   77.5820  220.7460 C   0  0  0  0  0  0  0  0  0  0  0  0
  141.2670   78.3690  220.4970 C   0  0  0  0  0  0  0  0  0  0  0  0
  142.2590   77.5120  219.6960 C   0  0  0  0  0  0  0  0  0  0  0  0
  141.4760   77.0400  218.5020 C   0  0  0  0  0  0  0  0  0  0  0  0
  140.4870   76.0140  218.9260 C   0  0  1  0  0  0  0  0  0  0  0  0
  140.7550   74.6620  218.4110 C   0  0  0  0  0  0  0  0  0  0  0  0
  142.0890   74.3310  218.4130 O   0  0  0  0  0  0  0  0  0  0  0  0
  143.0240   73.9850  219.3000 C   0  0  0  0  0  0  0  0  0  0  0  0
  142.8860   72.7170  219.9100 C   0  0  0  0  0  0  0  0  0  0  0  0
  143.7880   72.2580  220.8340 C   0  0  0  0  0  0  0  0  0  0  0  0
  144.8750   73.0120  221.2150 C   0  0  0  0  0  0  0  0  0  0  0  0
  145.0360   74.2500  220.6390 C   0  0  0  0  0  0  0  0  0  0  0  0
  144.1240   74.7030  219.7100 C   0  0  0  0  0  0  0  0  0  0  0  0
  139.6640   70.7160  223.5940 C   0  0  0  0  0  0  0  0  0  0  0  0
  139.1670   69.4340  223.5410 C   0  0  0  0  0  0  0  0  0  0  0  0
  139.2320   68.6030  224.6630 C   0  0  0  0  0  0  0  0  0  0  0  0
  139.8180   69.1350  225.8150 C   0  0  0  0  0  0  0  0  0  0  0  0
  139.9160   68.3590  226.9740 C   0  0  0  0  0  0  0  0  0  0  0  0
  140.5010   68.8890  228.1240 C   0  0  0  0  0  0  0  0  0  0  0  0
  140.5980   68.1400  229.2470 F   0  0  0  0  0  0  0  0  0  0  0  0
  140.9920   70.1810  228.1430 C   0  0  0  0  0  0  0  0  0  0  0  0
  140.8840   70.9300  226.9890 C   0  0  0  0  0  0  0  0  0  0  0  0
  140.3110   70.4340  225.8370 C   0  0  0  0  0  0  0  0  0  0  0  0
  140.2180   71.1810  224.7280 N   0  0  0  0  0  0  0  0  0  0  0  0
  139.9250   73.3340  223.4790 H   0  0  0  0  0  0  0  0  0  0  0  0
  140.1069   73.2205  220.5143 H   0  0  0  0  0  0  0  0  0  0  0  0
  138.6042   74.0632  221.3086 H   0  0  0  0  0  0  0  0  0  0  0  0
  139.2037   77.9828  220.1337 H   0  0  0  0  0  0  0  0  0  0  0  0
  139.7448   77.6494  221.8076 H   0  0  0  0  0  0  0  0  0  0  0  0
  141.0192   79.2754  219.9251 H   0  0  0  0  0  0  0  0  0  0  0  0
  141.7200   78.6563  221.4573 H   0  0  0  0  0  0  0  0  0  0  0  0
  143.1242   78.1132  219.3798 H   0  0  0  0  0  0  0  0  0  0  0  0
  142.6605   76.6763  220.2880 H   0  0  0  0  0  0  0  0  0  0  0  0
  140.9477   77.8928  218.0506 H   0  0  0  0  0  0  0  0  0  0  0  0
  142.1643   76.6004  217.7652 H   0  0  0  0  0  0  0  0  0  0  0  0
  139.5148   76.1943  218.4441 H   0  0  0  0  0  0  0  0  0  0  0  0
  140.2150   73.9369  219.0376 H   0  0  0  0  0  0  0  0  0  0  0  0
  140.4170   74.6405  217.3644 H   0  0  0  0  0  0  0  0  0  0  0  0
  142.0312   72.0815  219.6354 H   0  0  0  0  0  0  0  0  0  0  0  0
  143.6400   71.2641  221.2816 H   0  0  0  0  0  0  0  0  0  0  0  0
  145.5933   72.6352  221.9581 H   0  0  0  0  0  0  0  0  0  0  0  0
  145.8933   74.8795  220.9198 H   0  0  0  0  0  0  0  0  0  0  0  0
  144.2852   75.6982  219.2700 H   0  0  0  0  0  0  0  0  0  0  0  0
  138.7157   69.0608  222.6098 H   0  0  0  0  0  0  0  0  0  0  0  0
  138.8393   67.5757  224.6403 H   0  0  0  0  0  0  0  0  0  0  0  0
  139.5310   67.3286  226.9789 H   0  0  0  0  0  0  0  0  0  0  0  0
  141.4543   70.5990  229.0494 H   0  0  0  0  0  0  0  0  0  0  0  0
  141.2691   71.9604  226.9881 H   0  0  0  0  0  0  0  0  0  0  0  0
  1  2  2  0
  2  3  1  0
  3  4  1  0
  4  5  1  0
  5  6  2  0
  5  7  1  0
  7  8  1  0
  8  9  1  0
  9 10  1  0
 10 11  1  0
 11 12  1  0
 12 13  1  0
 13 14  1  0
 14 15  1  0
 15 16  2  0
 16 17  1  0
 17 18  2  0
 18 19  1  0
 19 20  2  0
  2 21  1  0
 21 22  2  0
 22 23  1  0
 23 24  2  0
 24 25  1  0
 25 26  2  0
 26 27  1  0
 26 28  1  0
 28 29  2  0
 29 30  1  0
 30 31  2  0
 12  7  1  0
 20 15  1  0
 31 21  1  0
 30 24  1  0
  3 32  1  0
  4 33  1  0
  4 34  1  0
  8 35  1  0
  8 36  1  0
  9 37  1  0
  9 38  1  0
 10 39  1  0
 10 40  1  0
 11 41  1  0
 11 42  1  0
 12 43  1  6
 13 44  1  0
 13 45  1  0
 16 46  1  0
 17 47  1  0
 18 48  1  0
 19 49  1  0
 20 50  1  0
 22 51  1  0
 23 52  1  0
 25 53  1  0
 28 54  1  0
 29 55  1  0
M  END
>  <smiles>  (41) 
O=C(NCC(=O)N1CCCC[C@H]1COc1ccccc1)c1ccc2cc(F)ccc2n1

>  <score_type>  (41) 
oracle

>  <origin>  (41) 
autodockgpu

>  <m_score__min__energy>  (41) 
-8.7799999999999994

>  <m_primary>  (41) 
energy

>  <rmsd>  (41) 
2.0934120869762567

>  <m_score__min__rmsd>  (41) 
2.0934120869762567

>  <meeko>  (41) 
{"free_energy": -7.17, "intermolecular_energy": -9.26, "internal_energy": -2.54, "cluster_size": 16, "cluster_id": 2, "rank_in_cluster": 15}

>  <energy>  (41) 
-7.42

>  <cluster_rmsd>  (41) 
1.28

>  <cluster>  (41) 
2

$$$$

     RDKit          3D

 55 58  0  0  0  0  0  0  0  0999 V2000
  139.9650   73.6490  222.5630 O   0  0  0  0  0  0  0  0  0  0  0  0
  139.7980   72.4000  222.4780 C   0  0  0  0  0  0  0  0  0  0  0  0
  139.5130   71.9180  221.1470 N   0  0  0  0  0  0  0  0  0  0  0  0
  139.4220   72.7980  220.0380 C   0  0  0  0  0  0  0  0  0  0  0  0
  140.5230   73.6630  219.6470 C   0  0  0  0  0  0  0  0  0  0  0  0
  140.3360   74.1640  218.4430 O   0  0  0  0  0  0  0  0  0  0  0  0
  141.6960   74.0680  220.2610 N   0  0  0  0  0  0  0  0  0  0  0  0
  142.7570   73.1310  220.7370 C   0  0  0  0  0  0  0  0  0  0  0  0
  143.9830   73.3400  219.9140 C   0  0  0  0  0  0  0  0  0  0  0  0
  143.8200   74.6150  219.0740 C   0  0  0  0  0  0  0  0  0  0  0  0
  143.4510   75.6820  220.0680 C   0  0  0  0  0  0  0  0  0  0  0  0
  142.0580   75.4670  220.5400 C   0  0  1  0  0  0  0  0  0  0  0  0
  141.1070   76.5080  220.1200 C   0  0  0  0  0  0  0  0  0  0  0  0
  141.4930   77.7780  220.4810 O   0  0  0  0  0  0  0  0  0  0  0  0
  141.6720   78.4790  221.6010 C   0  0  0  0  0  0  0  0  0  0  0  0
  142.1770   79.7920  221.4580 C   0  0  0  0  0  0  0  0  0  0  0  0
  142.3990   80.6040  222.5390 C   0  0  0  0  0  0  0  0  0  0  0  0
  142.1420   80.1780  223.8230 C   0  0  0  0  0  0  0  0  0  0  0  0
  141.6500   78.9060  223.9950 C   0  0  0  0  0  0  0  0  0  0  0  0
  141.4290   78.0970  222.9010 C   0  0  0  0  0  0  0  0  0  0  0  0
  139.8790   71.4930  223.6030 C   0  0  0  0  0  0  0  0  0  0  0  0
  139.4230   70.2020  223.4510 C   0  0  0  0  0  0  0  0  0  0  0  0
  139.4850   69.3000  224.5160 C   0  0  0  0  0  0  0  0  0  0  0  0
  140.0230   69.7690  225.7170 C   0  0  0  0  0  0  0  0  0  0  0  0
  140.1150   68.9200  226.8230 C   0  0  0  0  0  0  0  0  0  0  0  0
  140.6530   69.3870  228.0230 C   0  0  0  0  0  0  0  0  0  0  0  0
  140.7430   68.5670  229.0960 F   0  0  0  0  0  0  0  0  0  0  0  0
  141.1020   70.6890  228.1420 C   0  0  0  0  0  0  0  0  0  0  0  0
  141.0010   71.5110  227.0380 C   0  0  0  0  0  0  0  0  0  0  0  0
  140.4750   71.0780  225.8400 C   0  0  0  0  0  0  0  0  0  0  0  0
  140.3880   71.8960  224.7810 N   0  0  0  0  0  0  0  0  0  0  0  0
  139.3820   70.8630  221.0960 H   0  0  0  0  0  0  0  0  0  0  0  0
  139.1996   72.1689  219.1635 H   0  0  0  0  0  0  0  0  0  0  0  0
  138.6696   73.5235  220.3808 H   0  0  0  0  0  0  0  0  0  0  0  0
  142.9821   73.3330  221.7946 H   0  0  0  0  0  0  0  0  0  0  0  0
  142.4114   72.0914  220.6377 H   0  0  0  0  0  0  0  0  0  0  0  0
  144.8558   73.4448  220.5752 H   0  0  0  0  0  0  0  0  0  0  0  0
  144.1311   72.4769  219.2483 H   0  0  0  0  0  0  0  0  0  0  0  0
  144.7621   74.8676  218.5654 H   0  0  0  0  0  0  0  0  0  0  0  0
  143.0615   74.5001  218.2857 H   0  0  0  0  0  0  0  0  0  0  0  0
  144.1387   75.6366  220.9253 H   0  0  0  0  0  0  0  0  0  0  0  0
  143.5245   76.6687  219.5873 H   0  0  0  0  0  0  0  0  0  0  0  0
  141.9964   75.6022  221.6299 H   0  0  0  0  0  0  0  0  0  0  0  0
  141.0105   76.4709  219.0249 H   0  0  0  0  0  0  0  0  0  0  0  0
  140.1537   76.3014  220.6284 H   0  0  0  0  0  0  0  0  0  0  0  0
  142.3980   80.1725  220.4498 H   0  0  0  0  0  0  0  0  0  0  0  0
  142.7913   81.6189  222.3776 H   0  0  0  0  0  0  0  0  0  0  0  0
  142.3249   80.8359  224.6853 H   0  0  0  0  0  0  0  0  0  0  0  0
  141.4324   78.5333  225.0068 H   0  0  0  0  0  0  0  0  0  0  0  0
  141.0348   77.0853  223.0774 H   0  0  0  0  0  0  0  0  0  0  0  0
  139.0075   69.8793  222.4850 H   0  0  0  0  0  0  0  0  0  0  0  0
  139.1258   68.2654  224.4134 H   0  0  0  0  0  0  0  0  0  0  0  0
  139.7624   67.8808  226.7476 H   0  0  0  0  0  0  0  0  0  0  0  0
  141.5266   71.0584  229.0872 H   0  0  0  0  0  0  0  0  0  0  0  0
  141.3533   72.5500  227.1172 H   0  0  0  0  0  0  0  0  0  0  0  0
  1  2  2  0
  2  3  1  0
  3  4  1  0
  4  5  1  0
  5  6  2  0
  5  7  1  0
  7  8  1  0
  8  9  1  0
  9 10  1  0
 10 11  1  0
 11 12  1  0
 12 13  1  0
 13 14  1  0
 14 15  1  0
 15 16  2  0
 16 17  1  0
 17 18  2  0
 18 19  1  0
 19 20  2  0
  2 21  1  0
 21 22  2  0
 22 23  1  0
 23 24  2  0
 24 25  1  0
 25 26  2  0
 26 27  1  0
 26 28  1  0
 28 29  2  0
 29 30  1  0
 30 31  2  0
 12  7  1  0
 20 15  1  0
 31 21  1  0
 30 24  1  0
  3 32  1  0
  4 33  1  0
  4 34  1  0
  8 35  1  0
  8 36  1  0
  9 37  1  0
  9 38  1  0
 10 39  1  0
 10 40  1  0
 11 41  1  0
 11 42  1  0
 12 43  1  1
 13 44  1  0
 13 45  1  0
 16 46  1  0
 17 47  1  0
 18 48  1  0
 19 49  1  0
 20 50  1  0
 22 51  1  0
 23 52  1  0
 25 53  1  0
 28 54  1  0
 29 55  1  0
M  END
>  <smiles>  (42) 
O=C(NCC(=O)N1CCCC[C@H]1COc1ccccc1)c1ccc2cc(F)ccc2n1

>  <score_type>  (42) 
oracle

>  <origin>  (42) 
autodockgpu

>  <m_score__min__energy>  (42) 
-8.7799999999999994

>  <m_primary>  (42) 
energy

>  <rmsd>  (42) 
2.6092760098605683

>  <m_score__min__rmsd>  (42) 
2.6092760098605683

>  <meeko>  (42) 
{"free_energy": -8.25, "intermolecular_energy": -10.34, "internal_energy": -1.57, "cluster_size": 28, "cluster_id": 1, "rank_in_cluster": 16}

>  <energy>  (42) 
-7.38

>  <cluster_rmsd>  (42) 
1.1

>  <cluster>  (42) 
2

$$$$

     RDKit          3D

 55 58  0  0  0  0  0  0  0  0999 V2000
  141.3460   71.9220  221.6140 O   0  0  0  0  0  0  0  0  0  0  0  0
  140.4530   72.1100  222.4870 C   0  0  0  0  0  0  0  0  0  0  0  0
  139.6180   73.2660  222.2570 N   0  0  0  0  0  0  0  0  0  0  0  0
  139.8100   74.1140  221.1360 C   0  0  0  0  0  0  0  0  0  0  0  0
  140.6800   75.2760  221.1880 C   0  0  0  0  0  0  0  0  0  0  0  0
  140.2370   76.1720  222.0470 O   0  0  0  0  0  0  0  0  0  0  0  0
  141.8530   75.6320  220.5440 N   0  0  0  0  0  0  0  0  0  0  0  0
  143.0910   74.7970  220.5390 C   0  0  0  0  0  0  0  0  0  0  0  0
  143.3400   74.3190  219.1490 C   0  0  0  0  0  0  0  0  0  0  0  0
  142.4170   75.0730  218.1800 C   0  0  0  0  0  0  0  0  0  0  0  0
  142.6590   76.5270  218.4760 C   0  0  0  0  0  0  0  0  0  0  0  0
  142.0500   76.8790  219.7860 C   0  0  1  0  0  0  0  0  0  0  0  0
  140.9090   77.8040  219.6980 C   0  0  0  0  0  0  0  0  0  0  0  0
  140.5890   78.3940  220.8980 O   0  0  0  0  0  0  0  0  0  0  0  0
  141.2190   79.0050  221.9020 C   0  0  0  0  0  0  0  0  0  0  0  0
  141.9290   80.1860  221.5850 C   0  0  0  0  0  0  0  0  0  0  0  0
  142.6110   80.8970  222.5370 C   0  0  0  0  0  0  0  0  0  0  0  0
  142.6400   80.4940  223.8530 C   0  0  0  0  0  0  0  0  0  0  0  0
  141.9590   79.3490  224.1930 C   0  0  0  0  0  0  0  0  0  0  0  0
  141.2750   78.6400  223.2280 C   0  0  0  0  0  0  0  0  0  0  0  0
  140.2530   71.2580  223.6400 C   0  0  0  0  0  0  0  0  0  0  0  0
  139.5710   70.0720  223.4790 C   0  0  0  0  0  0  0  0  0  0  0  0
  139.3590   69.2250  224.5700 C   0  0  0  0  0  0  0  0  0  0  0  0
  139.8670   69.6380  225.8050 C   0  0  0  0  0  0  0  0  0  0  0  0
  139.6910   68.8390  226.9380 C   0  0  0  0  0  0  0  0  0  0  0  0
  140.1980   69.2500  228.1710 C   0  0  0  0  0  0  0  0  0  0  0  0
  140.0290   68.4790  229.2700 F   0  0  0  0  0  0  0  0  0  0  0  0
  140.8790   70.4470  228.2970 C   0  0  0  0  0  0  0  0  0  0  0  0
  141.0410   71.2210  227.1660 C   0  0  0  0  0  0  0  0  0  0  0  0
  140.5510   70.8410  225.9340 C   0  0  0  0  0  0  0  0  0  0  0  0
  140.7210   71.6100  224.8500 N   0  0  0  0  0  0  0  0  0  0  0  0
  138.8680   73.4030  223.0000 H   0  0  0  0  0  0  0  0  0  0  0  0
  140.1987   73.4746  220.3297 H   0  0  0  0  0  0  0  0  0  0  0  0
  138.8174   74.5745  221.0230 H   0  0  0  0  0  0  0  0  0  0  0  0
  143.9451   75.3995  220.8817 H   0  0  0  0  0  0  0  0  0  0  0  0
  142.9659   73.9375  221.2140 H   0  0  0  0  0  0  0  0  0  0  0  0
  144.3894   74.5070  218.8782 H   0  0  0  0  0  0  0  0  0  0  0  0
  143.1356   73.2399  219.0882 H   0  0  0  0  0  0  0  0  0  0  0  0
  142.6772   74.8410  217.1367 H   0  0  0  0  0  0  0  0  0  0  0  0
  141.3611   74.7924  218.3077 H   0  0  0  0  0  0  0  0  0  0  0  0
  143.7417   76.7175  218.5130 H   0  0  0  0  0  0  0  0  0  0  0  0
  142.2031   77.1409  217.6852 H   0  0  0  0  0  0  0  0  0  0  0  0
  142.7380   77.5055  220.3727 H   0  0  0  0  0  0  0  0  0  0  0  0
  141.1571   78.5957  218.9757 H   0  0  0  0  0  0  0  0  0  0  0  0
  140.0359   77.2129  219.3844 H   0  0  0  0  0  0  0  0  0  0  0  0
  141.9339   80.5439  220.5449 H   0  0  0  0  0  0  0  0  0  0  0  0
  143.1478   81.8110  222.2430 H   0  0  0  0  0  0  0  0  0  0  0  0
  143.1916   81.0709  224.6100 H   0  0  0  0  0  0  0  0  0  0  0  0
  141.9598   78.9982  225.2356 H   0  0  0  0  0  0  0  0  0  0  0  0
  140.7423   77.7283  223.5364 H   0  0  0  0  0  0  0  0  0  0  0  0
  139.1911   69.7901  222.4859 H   0  0  0  0  0  0  0  0  0  0  0  0
  138.8159   68.2746  224.4617 H   0  0  0  0  0  0  0  0  0  0  0  0
  139.1514   67.8838  226.8574 H   0  0  0  0  0  0  0  0  0  0  0  0
  141.2792   70.7721  229.2687 H   0  0  0  0  0  0  0  0  0  0  0  0
  141.5806   72.1758  227.2501 H   0  0  0  0  0  0  0  0  0  0  0  0
  1  2  2  0
  2  3  1  0
  3  4  1  0
  4  5  1  0
  5  6  2  0
  5  7  1  0
  7  8  1  0
  8  9  1  0
  9 10  1  0
 10 11  1  0
 11 12  1  0
 12 13  1  0
 13 14  1  0
 14 15  1  0
 15 16  2  0
 16 17  1  0
 17 18  2  0
 18 19  1  0
 19 20  2  0
  2 21  1  0
 21 22  2  0
 22 23  1  0
 23 24  2  0
 24 25  1  0
 25 26  2  0
 26 27  1  0
 26 28  1  0
 28 29  2  0
 29 30  1  0
 30 31  2  0
 12  7  1  0
 20 15  1  0
 31 21  1  0
 30 24  1  0
  3 32  1  0
  4 33  1  0
  4 34  1  0
  8 35  1  0
  8 36  1  0
  9 37  1  0
  9 38  1  0
 10 39  1  0
 10 40  1  0
 11 41  1  0
 11 42  1  0
 12 43  1  1
 13 44  1  0
 13 45  1  0
 16 46  1  0
 17 47  1  0
 18 48  1  0
 19 49  1  0
 20 50  1  0
 22 51  1  0
 23 52  1  0
 25 53  1  0
 28 54  1  0
 29 55  1  0
M  END
>  <smiles>  (43) 
O=C(NCC(=O)N1CCCC[C@H]1COc1ccccc1)c1ccc2cc(F)ccc2n1

>  <score_type>  (43) 
oracle

>  <origin>  (43) 
autodockgpu

>  <m_score__min__energy>  (43) 
-8.7799999999999994

>  <m_primary>  (43) 
energy

>  <rmsd>  (43) 
2.2019137880576047

>  <m_score__min__rmsd>  (43) 
2.2019137880576047

>  <meeko>  (43) 
{"free_energy": -8.74, "intermolecular_energy": -10.82, "internal_energy": -1.53, "cluster_size": 28, "cluster_id": 1, "rank_in_cluster": 3}

>  <energy>  (43) 
-7.17

>  <cluster_rmsd>  (43) 
1.03

>  <cluster>  (43) 
2

$$$$

     RDKit          3D

 55 58  0  0  0  0  0  0  0  0999 V2000
  139.9660   73.6060  222.5430 O   0  0  0  0  0  0  0  0  0  0  0  0
  139.7750   72.3600  222.4720 C   0  0  0  0  0  0  0  0  0  0  0  0
  139.4570   71.8720  221.1500 N   0  0  0  0  0  0  0  0  0  0  0  0
  139.3620   72.7450  220.0360 C   0  0  0  0  0  0  0  0  0  0  0  0
  140.5130   73.4690  219.5220 C   0  0  0  0  0  0  0  0  0  0  0  0
  140.3400   73.8160  218.2620 O   0  0  0  0  0  0  0  0  0  0  0  0
  141.7230   73.8670  220.0650 N   0  0  0  0  0  0  0  0  0  0  0  0
  142.9380   73.0010  220.1260 C   0  0  0  0  0  0  0  0  0  0  0  0
  143.9850   73.5840  219.2390 C   0  0  0  0  0  0  0  0  0  0  0  0
  143.5570   74.9940  218.8070 C   0  0  0  0  0  0  0  0  0  0  0  0
  143.2490   75.7090  220.0930 C   0  0  0  0  0  0  0  0  0  0  0  0
  141.9800   75.1860  220.6650 C   0  0  1  0  0  0  0  0  0  0  0  0
  140.8720   76.1540  220.6720 C   0  0  0  0  0  0  0  0  0  0  0  0
  141.2900   77.4630  220.7010 O   0  0  0  0  0  0  0  0  0  0  0  0
  141.5430   78.4030  221.6130 C   0  0  0  0  0  0  0  0  0  0  0  0
  141.3890   78.0340  222.9690 C   0  0  0  0  0  0  0  0  0  0  0  0
  141.6230   78.9180  223.9900 C   0  0  0  0  0  0  0  0  0  0  0  0
  142.0200   80.2130  223.7440 C   0  0  0  0  0  0  0  0  0  0  0  0
  142.1780   80.6020  222.4350 C   0  0  0  0  0  0  0  0  0  0  0  0
  141.9410   79.7060  221.4150 C   0  0  0  0  0  0  0  0  0  0  0  0
  139.8590   71.4610  223.6030 C   0  0  0  0  0  0  0  0  0  0  0  0
  139.4130   70.1660  223.4580 C   0  0  0  0  0  0  0  0  0  0  0  0
  139.4790   69.2710  224.5290 C   0  0  0  0  0  0  0  0  0  0  0  0
  140.0110   69.7520  225.7290 C   0  0  0  0  0  0  0  0  0  0  0  0
  140.1070   68.9100  226.8400 C   0  0  0  0  0  0  0  0  0  0  0  0
  140.6390   69.3890  228.0380 C   0  0  0  0  0  0  0  0  0  0  0  0
  140.7330   68.5770  229.1160 F   0  0  0  0  0  0  0  0  0  0  0  0
  141.0790   70.6950  228.1500 C   0  0  0  0  0  0  0  0  0  0  0  0
  140.9750   71.5090  227.0400 C   0  0  0  0  0  0  0  0  0  0  0  0
  140.4540   71.0640  225.8430 C   0  0  0  0  0  0  0  0  0  0  0  0
  140.3630   71.8750  224.7790 N   0  0  0  0  0  0  0  0  0  0  0  0
  139.3060   70.8190  221.1100 H   0  0  0  0  0  0  0  0  0  0  0  0
  138.9827   72.1377  219.2009 H   0  0  0  0  0  0  0  0  0  0  0  0
  138.7375   73.5585  220.4338 H   0  0  0  0  0  0  0  0  0  0  0  0
  143.3106   72.9583  221.1601 H   0  0  0  0  0  0  0  0  0  0  0  0
  142.6895   71.9823  219.7935 H   0  0  0  0  0  0  0  0  0  0  0  0
  144.9387   73.6404  219.7843 H   0  0  0  0  0  0  0  0  0  0  0  0
  144.1102   72.9485  218.3499 H   0  0  0  0  0  0  0  0  0  0  0  0
  144.3721   75.4989  218.2679 H   0  0  0  0  0  0  0  0  0  0  0  0
  142.6955   74.9767  218.1233 H   0  0  0  0  0  0  0  0  0  0  0  0
  144.0681   75.5440  220.8085 H   0  0  0  0  0  0  0  0  0  0  0  0
  143.1431   76.7859  219.8951 H   0  0  0  0  0  0  0  0  0  0  0  0
  142.0822   75.0299  221.7491 H   0  0  0  0  0  0  0  0  0  0  0  0
  140.2694   76.0006  219.7646 H   0  0  0  0  0  0  0  0  0  0  0  0
  140.2932   75.9779  221.5907 H   0  0  0  0  0  0  0  0  0  0  0  0
  141.0726   77.0088  223.2115 H   0  0  0  0  0  0  0  0  0  0  0  0
  141.4905   78.5850  225.0300 H   0  0  0  0  0  0  0  0  0  0  0  0
  142.2052   80.9154  224.5700 H   0  0  0  0  0  0  0  0  0  0  0  0
  142.4939   81.6294  222.2014 H   0  0  0  0  0  0  0  0  0  0  0  0
  142.0781   80.0529  220.3802 H   0  0  0  0  0  0  0  0  0  0  0  0
  139.0023   69.8342  222.4930 H   0  0  0  0  0  0  0  0  0  0  0  0
  139.1277   68.2331  224.4321 H   0  0  0  0  0  0  0  0  0  0  0  0
  139.7626   67.8676  226.7702 H   0  0  0  0  0  0  0  0  0  0  0  0
  141.4986   71.0734  229.0938 H   0  0  0  0  0  0  0  0  0  0  0  0
  141.3204   72.5508  227.1128 H   0  0  0  0  0  0  0  0  0  0  0  0
  1  2  2  0
  2  3  1  0
  3  4  1  0
  4  5  1  0
  5  6  2  0
  5  7  1  0
  7  8  1  0
  8  9  1  0
  9 10  1  0
 10 11  1  0
 11 12  1  0
 12 13  1  0
 13 14  1  0
 14 15  1  0
 15 16  2  0
 16 17  1  0
 17 18  2  0
 18 19  1  0
 19 20  2  0
  2 21  1  0
 21 22  2  0
 22 23  1  0
 23 24  2  0
 24 25  1  0
 25 26  2  0
 26 27  1  0
 26 28  1  0
 28 29  2  0
 29 30  1  0
 30 31  2  0
 12  7  1  0
 20 15  1  0
 31 21  1  0
 30 24  1  0
  3 32  1  0
  4 33  1  0
  4 34  1  0
  8 35  1  0
  8 36  1  0
  9 37  1  0
  9 38  1  0
 10 39  1  0
 10 40  1  0
 11 41  1  0
 11 42  1  0
 12 43  1  1
 13 44  1  0
 13 45  1  0
 16 46  1  0
 17 47  1  0
 18 48  1  0
 19 49  1  0
 20 50  1  0
 22 51  1  0
 23 52  1  0
 25 53  1  0
 28 54  1  0
 29 55  1  0
M  END
>  <smiles>  (44) 
O=C(NCC(=O)N1CCCC[C@H]1COc1ccccc1)c1ccc2cc(F)ccc2n1

>  <score_type>  (44) 
oracle

>  <origin>  (44) 
autodockgpu

>  <m_score__min__energy>  (44) 
-8.7799999999999994

>  <m_primary>  (44) 
energy

>  <rmsd>  (44) 
2.6120089446239194

>  <m_score__min__rmsd>  (44) 
2.6120089446239194

>  <meeko>  (44) 
{"free_energy": -8.15, "intermolecular_energy": -10.24, "internal_energy": -1.58, "cluster_size": 28, "cluster_id": 1, "rank_in_cluster": 18}

>  <energy>  (44) 
-7.04

>  <cluster_rmsd>  (44) 
1.13

>  <cluster>  (44) 
2

$$$$

     RDKit          3D

 55 58  0  0  0  0  0  0  0  0999 V2000
  139.5220   70.9530  221.1630 O   0  0  0  0  0  0  0  0  0  0  0  0
  139.2690   71.3510  222.3340 C   0  0  0  0  0  0  0  0  0  0  0  0
  138.7570   72.6990  222.4160 N   0  0  0  0  0  0  0  0  0  0  0  0
  138.5700   73.4980  221.2580 C   0  0  0  0  0  0  0  0  0  0  0  0
  139.6800   74.1490  220.5830 C   0  0  0  0  0  0  0  0  0  0  0  0
  139.2670   74.8590  219.5520 O   0  0  0  0  0  0  0  0  0  0  0  0
  141.0480   74.1850  220.7910 N   0  0  0  0  0  0  0  0  0  0  0  0
  141.9160   72.9720  220.8620 C   0  0  0  0  0  0  0  0  0  0  0  0
  142.8390   72.9750  219.6910 C   0  0  0  0  0  0  0  0  0  0  0  0
  142.7690   74.3420  218.9940 C   0  0  0  0  0  0  0  0  0  0  0  0
  143.0210   75.3410  220.0880 C   0  0  0  0  0  0  0  0  0  0  0  0
  141.8360   75.4140  220.9830 C   0  0  1  0  0  0  0  0  0  0  0  0
  141.1140   76.6950  220.9320 C   0  0  0  0  0  0  0  0  0  0  0  0
  141.0230   77.3200  222.1540 O   0  0  0  0  0  0  0  0  0  0  0  0
  141.2450   78.5300  222.6670 C   0  0  0  0  0  0  0  0  0  0  0  0
  142.5680   79.0230  222.5900 C   0  0  0  0  0  0  0  0  0  0  0  0
  142.9110   80.2550  223.0840 C   0  0  0  0  0  0  0  0  0  0  0  0
  141.9810   81.0750  223.6810 C   0  0  0  0  0  0  0  0  0  0  0  0
  140.6850   80.6240  223.7710 C   0  0  0  0  0  0  0  0  0  0  0  0
  140.3500   79.3830  223.2710 C   0  0  0  0  0  0  0  0  0  0  0  0
  139.4630   70.5500  223.5240 C   0  0  0  0  0  0  0  0  0  0  0  0
  139.0320   69.2420  223.5220 C   0  0  0  0  0  0  0  0  0  0  0  0
  139.2030   68.4390  224.6530 C   0  0  0  0  0  0  0  0  0  0  0  0
  139.8220   69.0240  225.7610 C   0  0  0  0  0  0  0  0  0  0  0  0
  140.0250   68.2780  226.9250 C   0  0  0  0  0  0  0  0  0  0  0  0
  140.6440   68.8610  228.0310 C   0  0  0  0  0  0  0  0  0  0  0  0
  140.8420   68.1410  229.1600 F   0  0  0  0  0  0  0  0  0  0  0  0
  141.0660   70.1770  228.0000 C   0  0  0  0  0  0  0  0  0  0  0  0
  140.8550   70.8960  226.8400 C   0  0  0  0  0  0  0  0  0  0  0  0
  140.2470   70.3470  225.7310 C   0  0  0  0  0  0  0  0  0  0  0  0
  140.0540   71.0660  224.6160 N   0  0  0  0  0  0  0  0  0  0  0  0
  138.5440   73.0140  223.4100 H   0  0  0  0  0  0  0  0  0  0  0  0
  138.0932   72.8481  220.5095 H   0  0  0  0  0  0  0  0  0  0  0  0
  138.0086   74.3553  221.6578 H   0  0  0  0  0  0  0  0  0  0  0  0
  142.5003   72.9891  221.7938 H   0  0  0  0  0  0  0  0  0  0  0  0
  141.2941   72.0648  220.8465 H   0  0  0  0  0  0  0  0  0  0  0  0
  143.8677   72.7892  220.0333 H   0  0  0  0  0  0  0  0  0  0  0  0
  142.5419   72.1854  218.9851 H   0  0  0  0  0  0  0  0  0  0  0  0
  143.5398   74.4192  218.2130 H   0  0  0  0  0  0  0  0  0  0  0  0
  141.8024   74.5059  218.4951 H   0  0  0  0  0  0  0  0  0  0  0  0
  143.9008   75.0308  220.6708 H   0  0  0  0  0  0  0  0  0  0  0  0
  143.2027   76.3304  219.6429 H   0  0  0  0  0  0  0  0  0  0  0  0
  142.1504   75.4320  222.0369 H   0  0  0  0  0  0  0  0  0  0  0  0
  141.6408   77.3647  220.2363 H   0  0  0  0  0  0  0  0  0  0  0  0
  140.0877   76.4763  220.6020 H   0  0  0  0  0  0  0  0  0  0  0  0
  143.3439   78.4005  222.1205 H   0  0  0  0  0  0  0  0  0  0  0  0
  143.9536   80.5959  223.0013 H   0  0  0  0  0  0  0  0  0  0  0  0
  142.2658   82.0619  224.0745 H   0  0  0  0  0  0  0  0  0  0  0  0
  139.9153   81.2532  224.2419 H   0  0  0  0  0  0  0  0  0  0  0  0
  139.3038   79.0552  223.3605 H   0  0  0  0  0  0  0  0  0  0  0  0
  138.5501   68.8267  222.6246 H   0  0  0  0  0  0  0  0  0  0  0  0
  138.8652   67.3923  224.6703 H   0  0  0  0  0  0  0  0  0  0  0  0
  139.6961   67.2292  226.9693 H   0  0  0  0  0  0  0  0  0  0  0  0
  141.5544   70.6369  228.8717 H   0  0  0  0  0  0  0  0  0  0  0  0
  141.1840   71.9449  226.7993 H   0  0  0  0  0  0  0  0  0  0  0  0
  1  2  2  0
  2  3  1  0
  3  4  1  0
  4  5  1  0
  5  6  2  0
  5  7  1  0
  7  8  1  0
  8  9  1  0
  9 10  1  0
 10 11  1  0
 11 12  1  0
 12 13  1  0
 13 14  1  0
 14 15  1  0
 15 16  2  0
 16 17  1  0
 17 18  2  0
 18 19  1  0
 19 20  2  0
  2 21  1  0
 21 22  2  0
 22 23  1  0
 23 24  2  0
 24 25  1  0
 25 26  2  0
 26 27  1  0
 26 28  1  0
 28 29  2  0
 29 30  1  0
 30 31  2  0
 12  7  1  0
 20 15  1  0
 31 21  1  0
 30 24  1  0
  3 32  1  0
  4 33  1  0
  4 34  1  0
  8 35  1  0
  8 36  1  0
  9 37  1  0
  9 38  1  0
 10 39  1  0
 10 40  1  0
 11 41  1  0
 11 42  1  0
 12 43  1  1
 13 44  1  0
 13 45  1  0
 16 46  1  0
 17 47  1  0
 18 48  1  0
 19 49  1  0
 20 50  1  0
 22 51  1  0
 23 52  1  0
 25 53  1  0
 28 54  1  0
 29 55  1  0
M  END
>  <smiles>  (45) 
O=C(NCC(=O)N1CCCC[C@H]1COc1ccccc1)c1ccc2cc(F)ccc2n1

>  <score_type>  (45) 
oracle

>  <origin>  (45) 
autodockgpu

>  <m_score__min__energy>  (45) 
-8.7799999999999994

>  <m_primary>  (45) 
energy

>  <rmsd>  (45) 
2.2001653540598918

>  <m_score__min__rmsd>  (45) 
2.2001653540598918

>  <meeko>  (45) 
{"free_energy": -8.15, "intermolecular_energy": -10.24, "internal_energy": -1.58, "cluster_size": 28, "cluster_id": 1, "rank_in_cluster": 19}

>  <energy>  (45) 
-7.74

>  <cluster_rmsd>  (45) 
0.0

>  <cluster>  (45) 
3

$$$$

     RDKit          3D

 55 58  0  0  0  0  0  0  0  0999 V2000
  139.5980   71.1100  221.1150 O   0  0  0  0  0  0  0  0  0  0  0  0
  139.6270   71.5760  222.2880 C   0  0  0  0  0  0  0  0  0  0  0  0
  139.5670   73.0170  222.3690 N   0  0  0  0  0  0  0  0  0  0  0  0
  139.4930   73.8260  221.2060 C   0  0  0  0  0  0  0  0  0  0  0  0
  140.2490   75.0590  221.0740 C   0  0  0  0  0  0  0  0  0  0  0  0
  140.5880   75.5450  222.2510 O   0  0  0  0  0  0  0  0  0  0  0  0
  140.6850   75.8130  219.9970 N   0  0  0  0  0  0  0  0  0  0  0  0
  140.5820   77.3010  219.9200 C   0  0  0  0  0  0  0  0  0  0  0  0
  141.9570   77.8770  219.9340 C   0  0  0  0  0  0  0  0  0  0  0  0
  142.9810   76.7490  219.7370 C   0  0  0  0  0  0  0  0  0  0  0  0
  142.5310   76.0380  218.4910 C   0  0  0  0  0  0  0  0  0  0  0  0
  141.2970   75.2590  218.7780 C   0  0  1  0  0  0  0  0  0  0  0  0
  141.4700   73.8000  218.7110 C   0  0  0  0  0  0  0  0  0  0  0  0
  142.2670   73.2970  219.7120 O   0  0  0  0  0  0  0  0  0  0  0  0
  143.5630   73.0720  219.9290 C   0  0  0  0  0  0  0  0  0  0  0  0
  144.2290   73.9670  220.7980 C   0  0  0  0  0  0  0  0  0  0  0  0
  145.5600   73.8320  221.0950 C   0  0  0  0  0  0  0  0  0  0  0  0
  146.3170   72.8150  220.5580 C   0  0  0  0  0  0  0  0  0  0  0  0
  145.6980   71.9280  219.7090 C   0  0  0  0  0  0  0  0  0  0  0  0
  144.3580   72.0720  219.4180 C   0  0  0  0  0  0  0  0  0  0  0  0
  139.7120   70.7610  223.4820 C   0  0  0  0  0  0  0  0  0  0  0  0
  139.2130   69.4780  223.4480 C   0  0  0  0  0  0  0  0  0  0  0  0
  139.2780   68.6640  224.5820 C   0  0  0  0  0  0  0  0  0  0  0  0
  139.8650   69.2120  225.7260 C   0  0  0  0  0  0  0  0  0  0  0  0
  139.9630   68.4520  226.8950 C   0  0  0  0  0  0  0  0  0  0  0  0
  140.5490   68.9980  228.0380 C   0  0  0  0  0  0  0  0  0  0  0  0
  140.6450   68.2660  229.1720 F   0  0  0  0  0  0  0  0  0  0  0  0
  141.0400   70.2910  228.0380 C   0  0  0  0  0  0  0  0  0  0  0  0
  140.9330   71.0230  226.8730 C   0  0  0  0  0  0  0  0  0  0  0  0
  140.3600   70.5100  225.7290 C   0  0  0  0  0  0  0  0  0  0  0  0
  140.2670   71.2420  224.6090 N   0  0  0  0  0  0  0  0  0  0  0  0
  139.5860   73.3880  223.3660 H   0  0  0  0  0  0  0  0  0  0  0  0
  139.8003   73.1856  220.3661 H   0  0  0  0  0  0  0  0  0  0  0  0
  138.4575   74.1948  221.2481 H   0  0  0  0  0  0  0  0  0  0  0  0
  140.0696   77.5889  218.9902 H   0  0  0  0  0  0  0  0  0  0  0  0
  140.0076   77.6817  220.7774 H   0  0  0  0  0  0  0  0  0  0  0  0
  142.0567   78.6103  219.1201 H   0  0  0  0  0  0  0  0  0  0  0  0
  142.1383   78.3756  220.8976 H   0  0  0  0  0  0  0  0  0  0  0  0
  143.9920   77.1617  219.6044 H   0  0  0  0  0  0  0  0  0  0  0  0
  143.0305   76.0757  220.6054 H   0  0  0  0  0  0  0  0  0  0  0  0
  142.3224   76.7768  217.7032 H   0  0  0  0  0  0  0  0  0  0  0  0
  143.3242   75.3542  218.1544 H   0  0  0  0  0  0  0  0  0  0  0  0
  140.5652   75.3855  217.9666 H   0  0  0  0  0  0  0  0  0  0  0  0
  140.4792   73.3279  218.7841 H   0  0  0  0  0  0  0  0  0  0  0  0
  141.9685   73.5762  217.7563 H   0  0  0  0  0  0  0  0  0  0  0  0
  143.6624   74.7953  221.2485 H   0  0  0  0  0  0  0  0  0  0  0  0
  146.0342   74.5523  221.7778 H   0  0  0  0  0  0  0  0  0  0  0  0
  147.3852   72.7151  220.8009 H   0  0  0  0  0  0  0  0  0  0  0  0
  146.2721   71.1032  219.2618 H   0  0  0  0  0  0  0  0  0  0  0  0
  143.8964   71.3430  218.7357 H   0  0  0  0  0  0  0  0  0  0  0  0
  138.7606   69.0916  222.5228 H   0  0  0  0  0  0  0  0  0  0  0  0
  138.8844   67.6369  224.5746 H   0  0  0  0  0  0  0  0  0  0  0  0
  139.5776   67.4219  226.9142 H   0  0  0  0  0  0  0  0  0  0  0  0
  141.5014   70.7224  228.9385 H   0  0  0  0  0  0  0  0  0  0  0  0
  141.3189   72.0530  226.8567 H   0  0  0  0  0  0  0  0  0  0  0  0
  1  2  2  0
  2  3  1  0
  3  4  1  0
  4  5  1  0
  5  6  2  0
  5  7  1  0
  7  8  1  0
  8  9  1  0
  9 10  1  0
 10 11  1  0
 11 12  1  0
 12 13  1  0
 13 14  1  0
 14 15  1  0
 15 16  2  0
 16 17  1  0
 17 18  2  0
 18 19  1  0
 19 20  2  0
  2 21  1  0
 21 22  2  0
 22 23  1  0
 23 24  2  0
 24 25  1  0
 25 26  2  0
 26 27  1  0
 26 28  1  0
 28 29  2  0
 29 30  1  0
 30 31  2  0
 12  7  1  0
 20 15  1  0
 31 21  1  0
 30 24  1  0
  3 32  1  0
  4 33  1  0
  4 34  1  0
  8 35  1  0
  8 36  1  0
  9 37  1  0
  9 38  1  0
 10 39  1  0
 10 40  1  0
 11 41  1  0
 11 42  1  0
 12 43  1  6
 13 44  1  0
 13 45  1  0
 16 46  1  0
 17 47  1  0
 18 48  1  0
 19 49  1  0
 20 50  1  0
 22 51  1  0
 23 52  1  0
 25 53  1  0
 28 54  1  0
 29 55  1  0
M  END
>  <smiles>  (46) 
O=C(NCC(=O)N1CCCC[C@H]1COc1ccccc1)c1ccc2cc(F)ccc2n1

>  <score_type>  (46) 
oracle

>  <origin>  (46) 
autodockgpu

>  <m_score__min__energy>  (46) 
-8.7799999999999994

>  <m_primary>  (46) 
energy

>  <rmsd>  (46) 
2.0531583684743224

>  <m_score__min__rmsd>  (46) 
2.0531583684743224

>  <meeko>  (46) 
{"free_energy": -7.77, "intermolecular_energy": -9.86, "internal_energy": -2.2, "cluster_size": 16, "cluster_id": 2, "rank_in_cluster": 6}

>  <energy>  (46) 
-7.24

>  <cluster_rmsd>  (46) 
1.77

>  <cluster>  (46) 
3

$$$$

     RDKit          3D

 55 58  0  0  0  0  0  0  0  0999 V2000
  139.7010   71.7390  221.0570 O   0  0  0  0  0  0  0  0  0  0  0  0
  139.6430   72.1830  222.2380 C   0  0  0  0  0  0  0  0  0  0  0  0
  139.4040   73.6040  222.3380 N   0  0  0  0  0  0  0  0  0  0  0  0
  139.2580   74.4190  221.1860 C   0  0  0  0  0  0  0  0  0  0  0  0
  140.3550   74.6520  220.2610 C   0  0  0  0  0  0  0  0  0  0  0  0
  139.9160   74.8580  219.0360 O   0  0  0  0  0  0  0  0  0  0  0  0
  141.7320   74.7080  220.3940 N   0  0  0  0  0  0  0  0  0  0  0  0
  142.5780   73.5570  220.8310 C   0  0  0  0  0  0  0  0  0  0  0  0
  143.4430   73.1390  219.6910 C   0  0  0  0  0  0  0  0  0  0  0  0
  143.3680   74.1990  218.5820 C   0  0  0  0  0  0  0  0  0  0  0  0
  143.6920   75.4960  219.2710 C   0  0  0  0  0  0  0  0  0  0  0  0
  142.5520   75.9020  220.1350 C   0  0  1  0  0  0  0  0  0  0  0  0
  141.8550   77.1180  219.6890 C   0  0  0  0  0  0  0  0  0  0  0  0
  141.2000   77.7760  220.7030 O   0  0  0  0  0  0  0  0  0  0  0  0
  141.5120   78.5100  221.7730 C   0  0  0  0  0  0  0  0  0  0  0  0
  142.0910   79.7770  221.5300 C   0  0  0  0  0  0  0  0  0  0  0  0
  142.4500   80.6150  222.5530 C   0  0  0  0  0  0  0  0  0  0  0  0
  142.2630   80.2640  223.8710 C   0  0  0  0  0  0  0  0  0  0  0  0
  141.7010   79.0370  224.1390 C   0  0  0  0  0  0  0  0  0  0  0  0
  141.3440   78.2010  223.1030 C   0  0  0  0  0  0  0  0  0  0  0  0
  139.8000   71.3640  223.4210 C   0  0  0  0  0  0  0  0  0  0  0  0
  139.4480   70.0340  223.3600 C   0  0  0  0  0  0  0  0  0  0  0  0
  139.5850   69.2140  224.4830 C   0  0  0  0  0  0  0  0  0  0  0  0
  140.0880   69.8050  225.6450 C   0  0  0  0  0  0  0  0  0  0  0  0
  140.2510   69.0420  226.8050 C   0  0  0  0  0  0  0  0  0  0  0  0
  140.7530   69.6310  227.9660 C   0  0  0  0  0  0  0  0  0  0  0  0
  140.9130   68.8960  229.0910 F   0  0  0  0  0  0  0  0  0  0  0  0
  141.0980   70.9700  227.9930 C   0  0  0  0  0  0  0  0  0  0  0  0
  140.9280   71.7050  226.8370 C   0  0  0  0  0  0  0  0  0  0  0  0
  140.4340   71.1500  225.6750 C   0  0  0  0  0  0  0  0  0  0  0  0
  140.2790   71.8850  224.5650 N   0  0  0  0  0  0  0  0  0  0  0  0
  139.3530   73.9570  223.3410 H   0  0  0  0  0  0  0  0  0  0  0  0
  138.4461   73.9717  220.5938 H   0  0  0  0  0  0  0  0  0  0  0  0
  139.1129   75.4164  221.6267 H   0  0  0  0  0  0  0  0  0  0  0  0
  143.2070   73.8615  221.6805 H   0  0  0  0  0  0  0  0  0  0  0  0
  141.9378   72.7185  221.1425 H   0  0  0  0  0  0  0  0  0  0  0  0
  144.4830   73.0406  220.0356 H   0  0  0  0  0  0  0  0  0  0  0  0
  143.0955   72.1713  219.3001 H   0  0  0  0  0  0  0  0  0  0  0  0
  144.1024   73.9858  217.7913 H   0  0  0  0  0  0  0  0  0  0  0  0
  142.3824   74.2218  218.0941 H   0  0  0  0  0  0  0  0  0  0  0  0
  144.5921   75.3665  219.8899 H   0  0  0  0  0  0  0  0  0  0  0  0
  143.8725   76.2750  218.5156 H   0  0  0  0  0  0  0  0  0  0  0  0
  142.9162   76.2570  221.1104 H   0  0  0  0  0  0  0  0  0  0  0  0
  142.5954   77.8030  219.2503 H   0  0  0  0  0  0  0  0  0  0  0  0
  141.0930   76.8060  218.9596 H   0  0  0  0  0  0  0  0  0  0  0  0
  142.2578   80.0987  220.4914 H   0  0  0  0  0  0  0  0  0  0  0  0
  142.8981   81.5911  222.3155 H   0  0  0  0  0  0  0  0  0  0  0  0
  142.5541   80.9439  224.6852 H   0  0  0  0  0  0  0  0  0  0  0  0
  141.5366   78.7232  225.1804 H   0  0  0  0  0  0  0  0  0  0  0  0
  140.8977   77.2277  223.3549 H   0  0  0  0  0  0  0  0  0  0  0  0
  139.0566   69.6146  222.4214 H   0  0  0  0  0  0  0  0  0  0  0  0
  139.3089   68.1496  224.4536 H   0  0  0  0  0  0  0  0  0  0  0  0
  139.9830   67.9752  226.8024 H   0  0  0  0  0  0  0  0  0  0  0  0
  141.4955   71.4349  228.9073 H   0  0  0  0  0  0  0  0  0  0  0  0
  141.1962   72.7718  226.8428 H   0  0  0  0  0  0  0  0  0  0  0  0
  1  2  2  0
  2  3  1  0
  3  4  1  0
  4  5  1  0
  5  6  2  0
  5  7  1  0
  7  8  1  0
  8  9  1  0
  9 10  1  0
 10 11  1  0
 11 12  1  0
 12 13  1  0
 13 14  1  0
 14 15  1  0
 15 16  2  0
 16 17  1  0
 17 18  2  0
 18 19  1  0
 19 20  2  0
  2 21  1  0
 21 22  2  0
 22 23  1  0
 23 24  2  0
 24 25  1  0
 25 26  2  0
 26 27  1  0
 26 28  1  0
 28 29  2  0
 29 30  1  0
 30 31  2  0
 12  7  1  0
 20 15  1  0
 31 21  1  0
 30 24  1  0
  3 32  1  0
  4 33  1  0
  4 34  1  0
  8 35  1  0
  8 36  1  0
  9 37  1  0
  9 38  1  0
 10 39  1  0
 10 40  1  0
 11 41  1  0
 11 42  1  0
 12 43  1  1
 13 44  1  0
 13 45  1  0
 16 46  1  0
 17 47  1  0
 18 48  1  0
 19 49  1  0
 20 50  1  0
 22 51  1  0
 23 52  1  0
 25 53  1  0
 28 54  1  0
 29 55  1  0
M  END
>  <smiles>  (47) 
O=C(NCC(=O)N1CCCC[C@H]1COc1ccccc1)c1ccc2cc(F)ccc2n1

>  <score_type>  (47) 
oracle

>  <origin>  (47) 
autodockgpu

>  <m_score__min__energy>  (47) 
-8.7799999999999994

>  <m_primary>  (47) 
energy

>  <rmsd>  (47) 
2.347118746520748

>  <m_score__min__rmsd>  (47) 
2.347118746520748

>  <meeko>  (47) 
{"free_energy": -8.27, "intermolecular_energy": -10.36, "internal_energy": -1.91, "cluster_size": 28, "cluster_id": 1, "rank_in_cluster": 15}

>  <energy>  (47) 
-7.56

>  <cluster_rmsd>  (47) 
0.0

>  <cluster>  (47) 
4

$$$$

     RDKit          3D

 55 58  0  0  0  0  0  0  0  0999 V2000
  139.6350   73.6600  222.3530 O   0  0  0  0  0  0  0  0  0  0  0  0
  140.3350   72.6160  222.4790 C   0  0  0  0  0  0  0  0  0  0  0  0
  141.3330   72.4310  221.4530 N   0  0  0  0  0  0  0  0  0  0  0  0
  141.4910   73.3570  220.3890 C   0  0  0  0  0  0  0  0  0  0  0  0
  142.4920   74.4090  220.4240 C   0  0  0  0  0  0  0  0  0  0  0  0
  143.6280   73.9760  220.9330 O   0  0  0  0  0  0  0  0  0  0  0  0
  142.5070   75.7390  220.0380 N   0  0  0  0  0  0  0  0  0  0  0  0
  143.3280   76.2740  218.9120 C   0  0  0  0  0  0  0  0  0  0  0  0
  142.4130   76.7350  217.8290 C   0  0  0  0  0  0  0  0  0  0  0  0
  140.9720   76.7620  218.3600 C   0  0  0  0  0  0  0  0  0  0  0  0
  141.0430   77.5840  219.6170 C   0  0  0  0  0  0  0  0  0  0  0  0
  141.7290   76.8090  220.6840 C   0  0  1  0  0  0  0  0  0  0  0  0
  140.8640   76.4300  221.8120 C   0  0  0  0  0  0  0  0  0  0  0  0
  140.9770   77.2700  222.8940 O   0  0  0  0  0  0  0  0  0  0  0  0
  141.1740   78.5680  223.1260 C   0  0  0  0  0  0  0  0  0  0  0  0
  142.5120   79.0250  223.1010 C   0  0  0  0  0  0  0  0  0  0  0  0
  142.8320   80.3390  223.3230 C   0  0  0  0  0  0  0  0  0  0  0  0
  141.8630   81.2810  223.5830 C   0  0  0  0  0  0  0  0  0  0  0  0
  140.5520   80.8680  223.6140 C   0  0  0  0  0  0  0  0  0  0  0  0
  140.2400   79.5440  223.3890 C   0  0  0  0  0  0  0  0  0  0  0  0
  140.1770   71.6590  223.5540 C   0  0  0  0  0  0  0  0  0  0  0  0
  139.5010   70.4860  223.3060 C   0  0  0  0  0  0  0  0  0  0  0  0
  139.3300   69.5400  224.3200 C   0  0  0  0  0  0  0  0  0  0  0  0
  139.8700   69.8450  225.5720 C   0  0  0  0  0  0  0  0  0  0  0  0
  139.7360   68.9430  226.6320 C   0  0  0  0  0  0  0  0  0  0  0  0
  140.2750   69.2460  227.8820 C   0  0  0  0  0  0  0  0  0  0  0  0
  140.1470   68.3750  228.9100 F   0  0  0  0  0  0  0  0  0  0  0  0
  140.9490   70.4340  228.0980 C   0  0  0  0  0  0  0  0  0  0  0  0
  141.0700   71.3100  227.0380 C   0  0  0  0  0  0  0  0  0  0  0  0
  140.5470   71.0380  225.7920 C   0  0  0  0  0  0  0  0  0  0  0  0
  140.6780   71.9050  224.7780 N   0  0  0  0  0  0  0  0  0  0  0  0
  141.9160   71.5490  221.5810 H   0  0  0  0  0  0  0  0  0  0  0  0
  141.7042   72.7594  219.4904 H   0  0  0  0  0  0  0  0  0  0  0  0
  140.5534   73.9298  220.4415 H   0  0  0  0  0  0  0  0  0  0  0  0
  143.9366   77.1188  219.2667 H   0  0  0  0  0  0  0  0  0  0  0  0
  143.9955   75.4880  218.5289 H   0  0  0  0  0  0  0  0  0  0  0  0
  142.7049   77.7454  217.5065 H   0  0  0  0  0  0  0  0  0  0  0  0
  142.4779   76.0466  216.9735 H   0  0  0  0  0  0  0  0  0  0  0  0
  140.2977   77.2304  217.6279 H   0  0  0  0  0  0  0  0  0  0  0  0
  140.5781   75.7518  218.5454 H   0  0  0  0  0  0  0  0  0  0  0  0
  141.6046   78.5087  219.4181 H   0  0  0  0  0  0  0  0  0  0  0  0
  140.0239   77.8346  219.9466 H   0  0  0  0  0  0  0  0  0  0  0  0
  142.4466   77.4468  221.2209 H   0  0  0  0  0  0  0  0  0  0  0  0
  139.8189   76.4421  221.4691 H   0  0  0  0  0  0  0  0  0  0  0  0
  141.1820   75.4303  222.1429 H   0  0  0  0  0  0  0  0  0  0  0  0
  143.3188   78.3055  222.8976 H   0  0  0  0  0  0  0  0  0  0  0  0
  143.8874   80.6477  223.2927 H   0  0  0  0  0  0  0  0  0  0  0  0
  142.1295   82.3333  223.7608 H   0  0  0  0  0  0  0  0  0  0  0  0
  139.7516   81.5943  223.8184 H   0  0  0  0  0  0  0  0  0  0  0  0
  139.1805   79.2500  223.4217 H   0  0  0  0  0  0  0  0  0  0  0  0
  139.0928   70.2920  222.3031 H   0  0  0  0  0  0  0  0  0  0  0  0
  138.7938   68.5965  224.1405 H   0  0  0  0  0  0  0  0  0  0  0  0
  139.2042   67.9922  226.4796 H   0  0  0  0  0  0  0  0  0  0  0  0
  141.3753   70.6734  229.0834 H   0  0  0  0  0  0  0  0  0  0  0  0
  141.6031   72.2595  227.1933 H   0  0  0  0  0  0  0  0  0  0  0  0
  1  2  2  0
  2  3  1  0
  3  4  1  0
  4  5  1  0
  5  6  2  0
  5  7  1  0
  7  8  1  0
  8  9  1  0
  9 10  1  0
 10 11  1  0
 11 12  1  0
 12 13  1  0
 13 14  1  0
 14 15  1  0
 15 16  2  0
 16 17  1  0
 17 18  2  0
 18 19  1  0
 19 20  2  0
  2 21  1  0
 21 22  2  0
 22 23  1  0
 23 24  2  0
 24 25  1  0
 25 26  2  0
 26 27  1  0
 26 28  1  0
 28 29  2  0
 29 30  1  0
 30 31  2  0
 12  7  1  0
 20 15  1  0
 31 21  1  0
 30 24  1  0
  3 32  1  0
  4 33  1  0
  4 34  1  0
  8 35  1  0
  8 36  1  0
  9 37  1  0
  9 38  1  0
 10 39  1  0
 10 40  1  0
 11 41  1  0
 11 42  1  0
 12 43  1  1
 13 44  1  0
 13 45  1  0
 16 46  1  0
 17 47  1  0
 18 48  1  0
 19 49  1  0
 20 50  1  0
 22 51  1  0
 23 52  1  0
 25 53  1  0
 28 54  1  0
 29 55  1  0
M  END
>  <smiles>  (48) 
O=C(NCC(=O)N1CCCC[C@H]1COc1ccccc1)c1ccc2cc(F)ccc2n1

>  <score_type>  (48) 
oracle

>  <origin>  (48) 
autodockgpu

>  <m_score__min__energy>  (48) 
-8.7799999999999994

>  <m_primary>  (48) 
energy

>  <rmsd>  (48) 
2.6455345524258123

>  <m_score__min__rmsd>  (48) 
2.6455345524258123

>  <meeko>  (48) 
{"free_energy": -8.78, "intermolecular_energy": -10.87, "internal_energy": -1.55, "cluster_size": 28, "cluster_id": 1, "rank_in_cluster": 1}

>  <energy>  (48) 
-7.45

>  <cluster_rmsd>  (48) 
0.0

>  <cluster>  (48) 
5

$$$$

     RDKit          3D

 55 58  0  0  0  0  0  0  0  0999 V2000
  141.1970   72.4970  221.7220 O   0  0  0  0  0  0  0  0  0  0  0  0
  140.2460   72.4640  222.5510 C   0  0  0  0  0  0  0  0  0  0  0  0
  139.2180   73.4550  222.3310 N   0  0  0  0  0  0  0  0  0  0  0  0
  139.2980   74.3880  221.2660 C   0  0  0  0  0  0  0  0  0  0  0  0
  140.2510   75.4850  221.2700 C   0  0  0  0  0  0  0  0  0  0  0  0
  141.3010   75.2080  222.0170 O   0  0  0  0  0  0  0  0  0  0  0  0
  140.2920   76.7290  220.6630 N   0  0  0  0  0  0  0  0  0  0  0  0
  139.4380   77.8860  221.0680 C   0  0  0  0  0  0  0  0  0  0  0  0
  140.3140   78.9510  221.6350 C   0  0  0  0  0  0  0  0  0  0  0  0
  141.7830   78.6080  221.3460 C   0  0  0  0  0  0  0  0  0  0  0  0
  141.8350   78.3730  219.8610 C   0  0  0  0  0  0  0  0  0  0  0  0
  141.1690   77.0840  219.5350 C   0  0  1  0  0  0  0  0  0  0  0  0
  142.0760   76.0430  219.0290 C   0  0  0  0  0  0  0  0  0  0  0  0
  142.9630   75.5830  219.9740 O   0  0  0  0  0  0  0  0  0  0  0  0
  143.8320   74.5820  220.1130 C   0  0  0  0  0  0  0  0  0  0  0  0
  143.3680   73.2850  219.7950 C   0  0  0  0  0  0  0  0  0  0  0  0
  144.1750   72.1820  219.9000 C   0  0  0  0  0  0  0  0  0  0  0  0
  145.4800   72.2830  220.3230 C   0  0  0  0  0  0  0  0  0  0  0  0
  145.9620   73.5320  220.6400 C   0  0  0  0  0  0  0  0  0  0  0  0
  145.1430   74.6360  220.5310 C   0  0  0  0  0  0  0  0  0  0  0  0
  140.1580   71.5230  223.6480 C   0  0  0  0  0  0  0  0  0  0  0  0
  139.5690   70.2980  223.4270 C   0  0  0  0  0  0  0  0  0  0  0  0
  139.4660   69.3660  224.4620 C   0  0  0  0  0  0  0  0  0  0  0  0
  139.9840   69.7370  225.7060 C   0  0  0  0  0  0  0  0  0  0  0  0
  139.9150   68.8520  226.7860 C   0  0  0  0  0  0  0  0  0  0  0  0
  140.4320   69.2210  228.0280 C   0  0  0  0  0  0  0  0  0  0  0  0
  140.3670   68.3660  229.0760 F   0  0  0  0  0  0  0  0  0  0  0  0
  141.0180   70.4590  228.2160 C   0  0  0  0  0  0  0  0  0  0  0  0
  141.0750   71.3170  227.1370 C   0  0  0  0  0  0  0  0  0  0  0  0
  140.5740   70.9800  225.8970 C   0  0  0  0  0  0  0  0  0  0  0  0
  140.6410   71.8320  224.8640 N   0  0  0  0  0  0  0  0  0  0  0  0
  138.4230   73.4060  223.0370 H   0  0  0  0  0  0  0  0  0  0  0  0
  139.5078   73.8019  220.3591 H   0  0  0  0  0  0  0  0  0  0  0  0
  138.3377   74.9176  221.3520 H   0  0  0  0  0  0  0  0  0  0  0  0
  138.9022   78.2759  220.1900 H   0  0  0  0  0  0  0  0  0  0  0  0
  138.7035   77.5644  221.8210 H   0  0  0  0  0  0  0  0  0  0  0  0
  140.0644   79.9171  221.1720 H   0  0  0  0  0  0  0  0  0  0  0  0
  140.1580   79.0162  222.7219 H   0  0  0  0  0  0  0  0  0  0  0  0
  142.4396   79.4437  221.6298 H   0  0  0  0  0  0  0  0  0  0  0  0
  142.1267   77.7336  221.9181 H   0  0  0  0  0  0  0  0  0  0  0  0
  141.3176   79.1936  219.3424 H   0  0  0  0  0  0  0  0  0  0  0  0
  142.8847   78.3340  219.5344 H   0  0  0  0  0  0  0  0  0  0  0  0
  140.5231   77.1973  218.6518 H   0  0  0  0  0  0  0  0  0  0  0  0
  141.4707   75.1946  218.6771 H   0  0  0  0  0  0  0  0  0  0  0  0
  142.6693   76.4951  218.2206 H   0  0  0  0  0  0  0  0  0  0  0  0
  142.3301   73.1574  219.4537 H   0  0  0  0  0  0  0  0  0  0  0  0
  143.7696   71.1931  219.6399 H   0  0  0  0  0  0  0  0  0  0  0  0
  146.1192   71.3916  220.4054 H   0  0  0  0  0  0  0  0  0  0  0  0
  147.0013   73.6500  220.9806 H   0  0  0  0  0  0  0  0  0  0  0  0
  145.5620   75.6186  220.7937 H   0  0  0  0  0  0  0  0  0  0  0  0
  139.1772   70.0520  222.4290 H   0  0  0  0  0  0  0  0  0  0  0  0
  138.9978   68.3831  224.3050 H   0  0  0  0  0  0  0  0  0  0  0  0
  139.4521   67.8626  226.6562 H   0  0  0  0  0  0  0  0  0  0  0  0
  141.4260   70.7508  229.1950 H   0  0  0  0  0  0  0  0  0  0  0  0
  141.5370   72.3063  227.2707 H   0  0  0  0  0  0  0  0  0  0  0  0
  1  2  2  0
  2  3  1  0
  3  4  1  0
  4  5  1  0
  5  6  2  0
  5  7  1  0
  7  8  1  0
  8  9  1  0
  9 10  1  0
 10 11  1  0
 11 12  1  0
 12 13  1  0
 13 14  1  0
 14 15  1  0
 15 16  2  0
 16 17  1  0
 17 18  2  0
 18 19  1  0
 19 20  2  0
  2 21  1  0
 21 22  2  0
 22 23  1  0
 23 24  2  0
 24 25  1  0
 25 26  2  0
 26 27  1  0
 26 28  1  0
 28 29  2  0
 29 30  1  0
 30 31  2  0
 12  7  1  0
 20 15  1  0
 31 21  1  0
 30 24  1  0
  3 32  1  0
  4 33  1  0
  4 34  1  0
  8 35  1  0
  8 36  1  0
  9 37  1  0
  9 38  1  0
 10 39  1  0
 10 40  1  0
 11 41  1  0
 11 42  1  0
 12 43  1  6
 13 44  1  0
 13 45  1  0
 16 46  1  0
 17 47  1  0
 18 48  1  0
 19 49  1  0
 20 50  1  0
 22 51  1  0
 23 52  1  0
 25 53  1  0
 28 54  1  0
 29 55  1  0
M  END
>  <smiles>  (49) 
O=C(NCC(=O)N1CCCC[C@H]1COc1ccccc1)c1ccc2cc(F)ccc2n1

>  <score_type>  (49) 
oracle

>  <origin>  (49) 
autodockgpu

>  <m_score__min__energy>  (49) 
-8.7799999999999994

>  <m_primary>  (49) 
energy

>  <rmsd>  (49) 
2.311337981399633

>  <m_score__min__rmsd>  (49) 
2.311337981399633

>  <meeko>  (49) 
{"free_energy": -8.42, "intermolecular_energy": -10.51, "internal_energy": -1.74, "cluster_size": 16, "cluster_id": 2, "rank_in_cluster": 1}

>  <energy>  (49) 
-7.4

>  <cluster_rmsd>  (49) 
0.41

>  <cluster>  (49) 
5

$$$$

     RDKit          3D

 55 58  0  0  0  0  0  0  0  0999 V2000
  141.5180   72.8380  220.9030 O   0  0  0  0  0  0  0  0  0  0  0  0
  140.9340   73.7400  221.5650 C   0  0  0  0  0  0  0  0  0  0  0  0
  139.9900   73.2560  222.5440 N   0  0  0  0  0  0  0  0  0  0  0  0
  139.7460   71.8700  222.7240 C   0  0  0  0  0  0  0  0  0  0  0  0
  138.4070   71.3090  222.6760 C   0  0  0  0  0  0  0  0  0  0  0  0
  138.0780   70.9480  221.4520 O   0  0  0  0  0  0  0  0  0  0  0  0
  137.4260   71.0730  223.6250 N   0  0  0  0  0  0  0  0  0  0  0  0
  136.2130   71.9250  223.8050 C   0  0  0  0  0  0  0  0  0  0  0  0
  135.0090   71.1270  223.4340 C   0  0  0  0  0  0  0  0  0  0  0  0
  135.4070   69.6520  223.2770 C   0  0  0  0  0  0  0  0  0  0  0  0
  136.1100   69.3080  224.5610 C   0  0  0  0  0  0  0  0  0  0  0  0
  137.4440   69.9630  224.5920 C   0  0  1  0  0  0  0  0  0  0  0  0
  138.5800   69.0310  224.5330 C   0  0  0  0  0  0  0  0  0  0  0  0
  139.7720   69.5970  224.9190 O   0  0  0  0  0  0  0  0  0  0  0  0
  140.2300   70.3680  225.9070 C   0  0  0  0  0  0  0  0  0  0  0  0
  139.8710   69.9980  227.2230 C   0  0  0  0  0  0  0  0  0  0  0  0
  140.2860   70.7160  228.3150 C   0  0  0  0  0  0  0  0  0  0  0  0
  141.0730   71.8370  228.1810 C   0  0  0  0  0  0  0  0  0  0  0  0
  141.4390   72.2230  226.9130 C   0  0  0  0  0  0  0  0  0  0  0  0
  141.0170   71.4940  225.8210 C   0  0  0  0  0  0  0  0  0  0  0  0
  141.1670   75.1580  221.3850 C   0  0  0  0  0  0  0  0  0  0  0  0
  141.8390   75.5830  220.2610 C   0  0  0  0  0  0  0  0  0  0  0  0
  142.0820   76.9440  220.0550 C   0  0  0  0  0  0  0  0  0  0  0  0
  141.6150   77.8290  221.0310 C   0  0  0  0  0  0  0  0  0  0  0  0
  141.8240   79.2030  220.8880 C   0  0  0  0  0  0  0  0  0  0  0  0
  141.3570   80.0870  221.8610 C   0  0  0  0  0  0  0  0  0  0  0  0
  141.5570   81.4190  221.7260 F   0  0  0  0  0  0  0  0  0  0  0  0
  140.6850   79.6270  222.9790 C   0  0  0  0  0  0  0  0  0  0  0  0
  140.4900   78.2660  223.1000 C   0  0  0  0  0  0  0  0  0  0  0  0
  140.9390   77.3680  222.1550 C   0  0  0  0  0  0  0  0  0  0  0  0
  140.7380   76.0500  222.2950 N   0  0  0  0  0  0  0  0  0  0  0  0
  139.5130   74.0310  223.0960 H   0  0  0  0  0  0  0  0  0  0  0  0
  140.3242   71.3524  221.9444 H   0  0  0  0  0  0  0  0  0  0  0  0
  140.0185   71.7240  223.7797 H   0  0  0  0  0  0  0  0  0  0  0  0
  136.1368   72.2435  224.8551 H   0  0  0  0  0  0  0  0  0  0  0  0
  136.2832   72.8170  223.1652 H   0  0  0  0  0  0  0  0  0  0  0  0
  134.2486   71.2205  224.2233 H   0  0  0  0  0  0  0  0  0  0  0  0
  134.5970   71.5008  222.4850 H   0  0  0  0  0  0  0  0  0  0  0  0
  134.5156   69.0219  223.1419 H   0  0  0  0  0  0  0  0  0  0  0  0
  136.0437   69.4841  222.3958 H   0  0  0  0  0  0  0  0  0  0  0  0
  135.5095   69.6605  225.4126 H   0  0  0  0  0  0  0  0  0  0  0  0
  136.2377   68.2174  224.6259 H   0  0  0  0  0  0  0  0  0  0  0  0
  137.6331   70.4048  225.5815 H   0  0  0  0  0  0  0  0  0  0  0  0
  138.3673   68.1798  225.1965 H   0  0  0  0  0  0  0  0  0  0  0  0
  138.6923   68.7224  223.4832 H   0  0  0  0  0  0  0  0  0  0  0  0
  139.2411   69.1092  227.3755 H   0  0  0  0  0  0  0  0  0  0  0  0
  139.9831   70.3887  229.3205 H   0  0  0  0  0  0  0  0  0  0  0  0
  141.3998   72.4077  229.0627 H   0  0  0  0  0  0  0  0  0  0  0  0
  142.0686   73.1135  226.7696 H   0  0  0  0  0  0  0  0  0  0  0  0
  141.3279   71.8326  224.8217 H   0  0  0  0  0  0  0  0  0  0  0  0
  142.1867   74.8473  219.5208 H   0  0  0  0  0  0  0  0  0  0  0  0
  142.6174   77.3030  219.1636 H   0  0  0  0  0  0  0  0  0  0  0  0
  142.3577   79.5884  220.0067 H   0  0  0  0  0  0  0  0  0  0  0  0
  140.3177   80.3235  223.7471 H   0  0  0  0  0  0  0  0  0  0  0  0
  139.9568   77.8837  223.9829 H   0  0  0  0  0  0  0  0  0  0  0  0
  1  2  2  0
  2  3  1  0
  3  4  1  0
  4  5  1  0
  5  6  2  0
  5  7  1  0
  7  8  1  0
  8  9  1  0
  9 10  1  0
 10 11  1  0
 11 12  1  0
 12 13  1  0
 13 14  1  0
 14 15  1  0
 15 16  2  0
 16 17  1  0
 17 18  2  0
 18 19  1  0
 19 20  2  0
  2 21  1  0
 21 22  2  0
 22 23  1  0
 23 24  2  0
 24 25  1  0
 25 26  2  0
 26 27  1  0
 26 28  1  0
 28 29  2  0
 29 30  1  0
 30 31  2  0
 12  7  1  0
 20 15  1  0
 31 21  1  0
 30 24  1  0
  3 32  1  0
  4 33  1  0
  4 34  1  0
  8 35  1  0
  8 36  1  0
  9 37  1  0
  9 38  1  0
 10 39  1  0
 10 40  1  0
 11 41  1  0
 11 42  1  0
 12 43  1  1
 13 44  1  0
 13 45  1  0
 16 46  1  0
 17 47  1  0
 18 48  1  0
 19 49  1  0
 20 50  1  0
 22 51  1  0
 23 52  1  0
 25 53  1  0
 28 54  1  0
 29 55  1  0
M  END
>  <smiles>  (50) 
O=C(NCC(=O)N1CCCC[C@H]1COc1ccccc1)c1ccc2cc(F)ccc2n1

>  <score_type>  (50) 
oracle

>  <origin>  (50) 
autodockgpu

>  <m_score__min__energy>  (50) 
-8.7799999999999994

>  <m_primary>  (50) 
energy

>  <rmsd>  (50) 
8.587269317523646

>  <m_score__min__rmsd>  (50) 
8.587269317523646

>  <meeko>  (50) 
{"free_energy": -7.74, "intermolecular_energy": -9.83, "internal_energy": -1.95, "cluster_size": 2, "cluster_id": 3, "rank_in_cluster": 1}

>  <energy>  (50) 
-7.39

>  <cluster_rmsd>  (50) 
0.13

>  <cluster>  (50) 
5

$$$$
