
     RDKit          3D

 53 57  0  0  0  0  0  0  0  0999 V2000
  141.0690   83.3990  221.5820 C   0  0  0  0  0  0  0  0  0  0  0  0
  141.1710   81.9090  221.7300 C   0  0  0  0  0  0  0  0  0  0  0  0
  141.2170   81.3570  222.9960 C   0  0  0  0  0  0  0  0  0  0  0  0
  141.3100   79.9930  223.1810 C   0  0  0  0  0  0  0  0  0  0  0  0
  141.3580   79.1540  222.0700 C   0  0  0  0  0  0  0  0  0  0  0  0
  141.3100   79.7230  220.8170 C   0  0  0  0  0  0  0  0  0  0  0  0
  141.2180   81.0840  220.6190 C   0  0  0  0  0  0  0  0  0  0  0  0
  141.3780   78.5920  219.8350 C   0  0  0  0  0  0  0  0  0  0  0  0
  141.4650   77.4000  220.6930 C   0  0  0  0  0  0  0  0  0  0  0  0
  141.5560   76.0050  220.2820 C   0  0  0  0  0  0  0  0  0  0  0  0
  141.8720   75.7130  218.9570 C   0  0  0  0  0  0  0  0  0  0  0  0
  141.9570   74.3860  218.5750 C   0  0  0  0  0  0  0  0  0  0  0  0
  141.7330   73.3840  219.4890 C   0  0  0  0  0  0  0  0  0  0  0  0
  141.4200   73.6640  220.8030 C   0  0  0  0  0  0  0  0  0  0  0  0
  141.1750   72.6310  221.8050 C   0  0  0  0  0  0  0  0  0  0  0  0
  141.8080   71.5210  221.7780 O   0  0  0  0  0  0  0  0  0  0  0  0
  140.2380   72.7760  222.8590 N   0  0  0  0  0  0  0  0  0  0  0  0
  140.0200   71.7580  223.8160 C   0  0  0  0  0  0  0  0  0  0  0  0
  139.1240   70.7230  223.6510 C   0  0  0  0  0  0  0  0  0  0  0  0
  138.9400   69.7490  224.6090 C   0  0  0  0  0  0  0  0  0  0  0  0
  139.6470   69.7590  225.7920 C   0  0  0  0  0  0  0  0  0  0  0  0
  139.4800   68.7290  226.8530 C   0  0  0  0  0  0  0  0  0  0  0  0
  139.9540   69.1280  228.2210 C   0  0  0  0  0  0  0  0  0  0  0  0
  141.0830   68.1490  228.0900 C   0  0  0  0  0  0  0  0  0  0  0  0
  140.4250   67.5900  226.8620 C   0  0  0  0  0  0  0  0  0  0  0  0
  140.5490   70.8050  225.9510 C   0  0  0  0  0  0  0  0  0  0  0  0
  140.7350   71.7810  224.9950 C   0  0  0  0  0  0  0  0  0  0  0  0
  141.3370   74.9750  221.1780 C   0  0  0  0  0  0  0  0  0  0  0  0
  141.4510   77.7530  221.9440 N   0  0  0  0  0  0  0  0  0  0  0  0
  141.0371   83.8651  222.5779 H   0  0  0  0  0  0  0  0  0  0  0  0
  141.9436   83.7734  221.0298 H   0  0  0  0  0  0  0  0  0  0  0  0
  140.1515   83.6507  221.0298 H   0  0  0  0  0  0  0  0  0  0  0  0
  141.1787   82.0185  223.8740 H   0  0  0  0  0  0  0  0  0  0  0  0
  141.3459   79.5718  224.1965 H   0  0  0  0  0  0  0  0  0  0  0  0
  141.1828   81.5044  219.6031 H   0  0  0  0  0  0  0  0  0  0  0  0
  140.4749   78.5605  219.2079 H   0  0  0  0  0  0  0  0  0  0  0  0
  142.2228   78.6805  219.1360 H   0  0  0  0  0  0  0  0  0  0  0  0
  142.0500   76.5196  218.2306 H   0  0  0  0  0  0  0  0  0  0  0  0
  142.2052   74.1313  217.5341 H   0  0  0  0  0  0  0  0  0  0  0  0
  141.8050   72.3352  219.1653 H   0  0  0  0  0  0  0  0  0  0  0  0
  139.6870   73.6460  222.9480 H   0  0  0  0  0  0  0  0  0  0  0  0
  138.5357   70.6728  222.7229 H   0  0  0  0  0  0  0  0  0  0  0  0
  138.2120   68.9452  224.4250 H   0  0  0  0  0  0  0  0  0  0  0  0
  138.4155   68.5411  226.6493 H   0  0  0  0  0  0  0  0  0  0  0  0
  140.2724   70.1778  228.3012 H   0  0  0  0  0  0  0  0  0  0  0  0
  139.2750   69.0943  229.0858 H   0  0  0  0  0  0  0  0  0  0  0  0
  142.0641   68.6115  227.9069 H   0  0  0  0  0  0  0  0  0  0  0  0
  141.3625   67.4941  228.9285 H   0  0  0  0  0  0  0  0  0  0  0  0
  141.0823   67.5443  225.9812 H   0  0  0  0  0  0  0  0  0  0  0  0
  140.0514   66.5554  226.8515 H   0  0  0  0  0  0  0  0  0  0  0  0
  141.1388   70.8561  226.8781 H   0  0  0  0  0  0  0  0  0  0  0  0
  141.4618   72.5869  225.1747 H   0  0  0  0  0  0  0  0  0  0  0  0
  141.0891   75.2179  222.2218 H   0  0  0  0  0  0  0  0  0  0  0  0
  1  2  1  0
  2  3  2  0
  3  4  1  0
  4  5  2  0
  5  6  1  0
  6  7  2  0
  6  8  1  0
  8  9  1  0
  9 10  1  0
 10 11  2  0
 11 12  1  0
 12 13  2  0
 13 14  1  0
 14 15  1  0
 15 16  2  0
 15 17  1  0
 17 18  1  0
 18 19  2  0
 19 20  1  0
 20 21  2  0
 21 22  1  0
 22 23  1  0
 23 24  1  0
 24 25  1  0
 21 26  1  0
 26 27  2  0
 14 28  2  0
  9 29  2  0
  7  2  1  0
 28 10  1  0
 29  5  1  0
 27 18  1  0
 25 22  1  0
  1 30  1  0
  1 31  1  0
  1 32  1  0
  3 33  1  0
  4 34  1  0
  7 35  1  0
  8 36  1  0
  8 37  1  0
 11 38  1  0
 12 39  1  0
 13 40  1  0
 17 41  1  0
 19 42  1  0
 20 43  1  0
 22 44  1  0
 23 45  1  0
 23 46  1  0
 24 47  1  0
 24 48  1  0
 25 49  1  0
 25 50  1  0
 26 51  1  0
 27 52  1  0
 28 53  1  0
M  END
>  <smiles>  (1) 
Cc1ccc2c(c1)CC(c1cccc(C(=O)Nc3ccc(C4CCC4)cc3)c1)=N2

>  <score_type>  (1) 
oracle

>  <origin>  (1) 
autodockgpu

>  <m_score__min__energy>  (1) 
-8.8800000000000008

>  <m_primary>  (1) 
energy

>  <rmsd>  (1) 
9.33377999758928

>  <m_score__min__rmsd>  (1) 
9.33377999758928

>  <meeko>  (1) 
{"free_energy": -8.75, "intermolecular_energy": -9.94, "internal_energy": -0.96, "cluster_size": 35, "cluster_id": 1, "rank_in_cluster": 34}

>  <energy>  (1) 
-8.88

>  <cluster_rmsd>  (1) 
0.0

>  <cluster>  (1) 
1

$$$$

     RDKit          3D

 53 57  0  0  0  0  0  0  0  0999 V2000
  141.0720   83.3210  221.5430 C   0  0  0  0  0  0  0  0  0  0  0  0
  141.1740   81.8320  221.6940 C   0  0  0  0  0  0  0  0  0  0  0  0
  141.4170   81.2950  222.9440 C   0  0  0  0  0  0  0  0  0  0  0  0
  141.5180   79.9320  223.1310 C   0  0  0  0  0  0  0  0  0  0  0  0
  141.3720   79.0790  222.0400 C   0  0  0  0  0  0  0  0  0  0  0  0
  141.1300   79.6330  220.8030 C   0  0  0  0  0  0  0  0  0  0  0  0
  141.0270   80.9930  220.6030 C   0  0  0  0  0  0  0  0  0  0  0  0
  141.0200   78.4890  219.8390 C   0  0  0  0  0  0  0  0  0  0  0  0
  141.2280   77.3070  220.6890 C   0  0  0  0  0  0  0  0  0  0  0  0
  141.2290   75.9050  220.2890 C   0  0  0  0  0  0  0  0  0  0  0  0
  141.3130   75.5920  218.9340 C   0  0  0  0  0  0  0  0  0  0  0  0
  141.3150   74.2600  218.5630 C   0  0  0  0  0  0  0  0  0  0  0  0
  141.2350   73.2720  219.5170 C   0  0  0  0  0  0  0  0  0  0  0  0
  141.1520   73.5730  220.8600 C   0  0  0  0  0  0  0  0  0  0  0  0
  141.0640   72.5560  221.9040 C   0  0  0  0  0  0  0  0  0  0  0  0
  141.7990   71.5110  221.8710 O   0  0  0  0  0  0  0  0  0  0  0  0
  140.1790   72.6480  223.0080 N   0  0  0  0  0  0  0  0  0  0  0  0
  140.1150   71.6470  224.0050 C   0  0  0  0  0  0  0  0  0  0  0  0
  140.7260   71.7450  225.2370 C   0  0  0  0  0  0  0  0  0  0  0  0
  140.6410   70.7460  226.1830 C   0  0  0  0  0  0  0  0  0  0  0  0
  139.9350   69.5860  225.9430 C   0  0  0  0  0  0  0  0  0  0  0  0
  139.8170   68.4830  226.9350 C   0  0  0  0  0  0  0  0  0  0  0  0
  139.7500   68.9130  228.3730 C   0  0  0  0  0  0  0  0  0  0  0  0
  141.1190   68.3410  228.5850 C   0  0  0  0  0  0  0  0  0  0  0  0
  141.0320   67.6930  227.2340 C   0  0  0  0  0  0  0  0  0  0  0  0
  139.3220   69.4940  224.7000 C   0  0  0  0  0  0  0  0  0  0  0  0
  139.4050   70.4920  223.7520 C   0  0  0  0  0  0  0  0  0  0  0  0
  141.1500   74.8900  221.2240 C   0  0  0  0  0  0  0  0  0  0  0  0
  141.4220   77.6750  221.9210 N   0  0  0  0  0  0  0  0  0  0  0  0
  141.0399   83.7891  222.5379 H   0  0  0  0  0  0  0  0  0  0  0  0
  141.9467   83.6943  220.9902 H   0  0  0  0  0  0  0  0  0  0  0  0
  140.1546   83.5715  220.9902 H   0  0  0  0  0  0  0  0  0  0  0  0
  141.5322   81.9676  223.8067 H   0  0  0  0  0  0  0  0  0  0  0  0
  141.7122   79.5225  224.1333 H   0  0  0  0  0  0  0  0  0  0  0  0
  140.8326   81.4017  219.6004 H   0  0  0  0  0  0  0  0  0  0  0  0
  140.0263   78.4653  219.3678 H   0  0  0  0  0  0  0  0  0  0  0  0
  141.7403   78.5545  219.0102 H   0  0  0  0  0  0  0  0  0  0  0  0
  141.3763   76.3868  218.1762 H   0  0  0  0  0  0  0  0  0  0  0  0
  141.3809   73.9888  217.4990 H   0  0  0  0  0  0  0  0  0  0  0  0
  141.2373   72.2183  219.2013 H   0  0  0  0  0  0  0  0  0  0  0  0
  139.5520   73.4640  223.1040 H   0  0  0  0  0  0  0  0  0  0  0  0
  141.3015   72.6522  225.4734 H   0  0  0  0  0  0  0  0  0  0  0  0
  141.1475   70.8770  227.1506 H   0  0  0  0  0  0  0  0  0  0  0  0
  138.9642   67.9912  226.4441 H   0  0  0  0  0  0  0  0  0  0  0  0
  139.6874   70.0017  228.5171 H   0  0  0  0  0  0  0  0  0  0  0  0
  138.9076   68.6121  229.0131 H   0  0  0  0  0  0  0  0  0  0  0  0
  141.9153   69.0945  228.6751 H   0  0  0  0  0  0  0  0  0  0  0  0
  141.3503   67.7476  229.4819 H   0  0  0  0  0  0  0  0  0  0  0  0
  141.8845   67.9129  226.5745 H   0  0  0  0  0  0  0  0  0  0  0  0
  141.0208   66.5970  227.1413 H   0  0  0  0  0  0  0  0  0  0  0  0
  138.7464   68.5874  224.4619 H   0  0  0  0  0  0  0  0  0  0  0  0
  138.8994   70.3655  222.7833 H   0  0  0  0  0  0  0  0  0  0  0  0
  141.0837   75.1498  222.2908 H   0  0  0  0  0  0  0  0  0  0  0  0
  1  2  1  0
  2  3  2  0
  3  4  1  0
  4  5  2  0
  5  6  1  0
  6  7  2  0
  6  8  1  0
  8  9  1  0
  9 10  1  0
 10 11  2  0
 11 12  1  0
 12 13  2  0
 13 14  1  0
 14 15  1  0
 15 16  2  0
 15 17  1  0
 17 18  1  0
 18 19  2  0
 19 20  1  0
 20 21  2  0
 21 22  1  0
 22 23  1  0
 23 24  1  0
 24 25  1  0
 21 26  1  0
 26 27  2  0
 14 28  2  0
  9 29  2  0
  7  2  1  0
 28 10  1  0
 29  5  1  0
 27 18  1  0
 25 22  1  0
  1 30  1  0
  1 31  1  0
  1 32  1  0
  3 33  1  0
  4 34  1  0
  7 35  1  0
  8 36  1  0
  8 37  1  0
 11 38  1  0
 12 39  1  0
 13 40  1  0
 17 41  1  0
 19 42  1  0
 20 43  1  0
 22 44  1  0
 23 45  1  0
 23 46  1  0
 24 47  1  0
 24 48  1  0
 25 49  1  0
 25 50  1  0
 26 51  1  0
 27 52  1  0
 28 53  1  0
M  END
>  <smiles>  (2) 
Cc1ccc2c(c1)CC(c1cccc(C(=O)Nc3ccc(C4CCC4)cc3)c1)=N2

>  <score_type>  (2) 
oracle

>  <origin>  (2) 
autodockgpu

>  <m_score__min__energy>  (2) 
-8.8800000000000008

>  <m_primary>  (2) 
energy

>  <rmsd>  (2) 
9.479109600711688

>  <m_score__min__rmsd>  (2) 
9.479109600711688

>  <meeko>  (2) 
{"free_energy": -8.82, "intermolecular_energy": -10.02, "internal_energy": -0.95, "cluster_size": 35, "cluster_id": 1, "rank_in_cluster": 21}

>  <energy>  (2) 
-8.88

>  <cluster_rmsd>  (2) 
0.1

>  <cluster>  (2) 
1

$$$$

     RDKit          3D

 53 57  0  0  0  0  0  0  0  0999 V2000
  141.0690   83.3270  221.5150 C   0  0  0  0  0  0  0  0  0  0  0  0
  141.1710   81.8390  221.6740 C   0  0  0  0  0  0  0  0  0  0  0  0
  141.4320   81.3090  222.9240 C   0  0  0  0  0  0  0  0  0  0  0  0
  141.5340   79.9470  223.1170 C   0  0  0  0  0  0  0  0  0  0  0  0
  141.3700   79.0870  222.0330 C   0  0  0  0  0  0  0  0  0  0  0  0
  141.1100   79.6350  220.7970 C   0  0  0  0  0  0  0  0  0  0  0  0
  141.0060   80.9940  220.5900 C   0  0  0  0  0  0  0  0  0  0  0  0
  140.9840   78.4850  219.8420 C   0  0  0  0  0  0  0  0  0  0  0  0
  141.2030   77.3070  220.6960 C   0  0  0  0  0  0  0  0  0  0  0  0
  141.1960   75.9030  220.3040 C   0  0  0  0  0  0  0  0  0  0  0  0
  141.2560   75.5820  218.9500 C   0  0  0  0  0  0  0  0  0  0  0  0
  141.2500   74.2480  218.5870 C   0  0  0  0  0  0  0  0  0  0  0  0
  141.1870   73.2660  219.5480 C   0  0  0  0  0  0  0  0  0  0  0  0
  141.1270   73.5750  220.8910 C   0  0  0  0  0  0  0  0  0  0  0  0
  141.0580   72.5650  221.9420 C   0  0  0  0  0  0  0  0  0  0  0  0
  141.8370   71.5520  221.9360 O   0  0  0  0  0  0  0  0  0  0  0  0
  140.1430   72.6280  223.0230 N   0  0  0  0  0  0  0  0  0  0  0  0
  140.0980   71.6340  224.0280 C   0  0  0  0  0  0  0  0  0  0  0  0
  140.8240   71.6870  225.1990 C   0  0  0  0  0  0  0  0  0  0  0  0
  140.7530   70.6960  226.1550 C   0  0  0  0  0  0  0  0  0  0  0  0
  139.9450   69.5910  225.9880 C   0  0  0  0  0  0  0  0  0  0  0  0
  139.8390   68.5000  226.9940 C   0  0  0  0  0  0  0  0  0  0  0  0
  139.7060   68.9480  228.4210 C   0  0  0  0  0  0  0  0  0  0  0  0
  141.0890   68.4350  228.6870 C   0  0  0  0  0  0  0  0  0  0  0  0
  141.0730   67.7630  227.3450 C   0  0  0  0  0  0  0  0  0  0  0  0
  139.2160   69.5450  224.8060 C   0  0  0  0  0  0  0  0  0  0  0  0
  139.2860   70.5340  223.8480 C   0  0  0  0  0  0  0  0  0  0  0  0
  141.1330   74.8940  221.2470 C   0  0  0  0  0  0  0  0  0  0  0  0
  141.4160   77.6830  221.9220 N   0  0  0  0  0  0  0  0  0  0  0  0
  141.0365   83.8004  222.5074 H   0  0  0  0  0  0  0  0  0  0  0  0
  141.9439   83.6973  220.9605 H   0  0  0  0  0  0  0  0  0  0  0  0
  140.1518   83.5745  220.9605 H   0  0  0  0  0  0  0  0  0  0  0  0
  141.5608   81.9864  223.7810 H   0  0  0  0  0  0  0  0  0  0  0  0
  141.7431   79.5431  224.1186 H   0  0  0  0  0  0  0  0  0  0  0  0
  140.7970   81.3970  219.5880 H   0  0  0  0  0  0  0  0  0  0  0  0
  139.9833   78.4600  219.3859 H   0  0  0  0  0  0  0  0  0  0  0  0
  141.6922   78.5444  219.0024 H   0  0  0  0  0  0  0  0  0  0  0  0
  141.3070   76.3722  218.1865 H   0  0  0  0  0  0  0  0  0  0  0  0
  141.2959   73.9704  217.5236 H   0  0  0  0  0  0  0  0  0  0  0  0
  141.1844   72.2104  219.2386 H   0  0  0  0  0  0  0  0  0  0  0  0
  139.4800   73.4180  223.0970 H   0  0  0  0  0  0  0  0  0  0  0  0
  141.4827   72.5499  225.3767 H   0  0  0  0  0  0  0  0  0  0  0  0
  141.3543   70.7889  227.0714 H   0  0  0  0  0  0  0  0  0  0  0  0
  139.0234   67.9672  226.4833 H   0  0  0  0  0  0  0  0  0  0  0  0
  139.5950   70.0353  228.5454 H   0  0  0  0  0  0  0  0  0  0  0  0
  138.8551   68.6229  229.0377 H   0  0  0  0  0  0  0  0  0  0  0  0
  141.8512   69.2214  228.7902 H   0  0  0  0  0  0  0  0  0  0  0  0
  141.3137   67.8654  229.6008 H   0  0  0  0  0  0  0  0  0  0  0  0
  141.9378   68.0062  226.7102 H   0  0  0  0  0  0  0  0  0  0  0  0
  141.1080   66.6661  227.2700 H   0  0  0  0  0  0  0  0  0  0  0  0
  138.5556   68.6837  224.6272 H   0  0  0  0  0  0  0  0  0  0  0  0
  138.6873   70.4446  222.9296 H   0  0  0  0  0  0  0  0  0  0  0  0
  141.0864   75.1605  222.3132 H   0  0  0  0  0  0  0  0  0  0  0  0
  1  2  1  0
  2  3  2  0
  3  4  1  0
  4  5  2  0
  5  6  1  0
  6  7  2  0
  6  8  1  0
  8  9  1  0
  9 10  1  0
 10 11  2  0
 11 12  1  0
 12 13  2  0
 13 14  1  0
 14 15  1  0
 15 16  2  0
 15 17  1  0
 17 18  1  0
 18 19  2  0
 19 20  1  0
 20 21  2  0
 21 22  1  0
 22 23  1  0
 23 24  1  0
 24 25  1  0
 21 26  1  0
 26 27  2  0
 14 28  2  0
  9 29  2  0
  7  2  1  0
 28 10  1  0
 29  5  1  0
 27 18  1  0
 25 22  1  0
  1 30  1  0
  1 31  1  0
  1 32  1  0
  3 33  1  0
  4 34  1  0
  7 35  1  0
  8 36  1  0
  8 37  1  0
 11 38  1  0
 12 39  1  0
 13 40  1  0
 17 41  1  0
 19 42  1  0
 20 43  1  0
 22 44  1  0
 23 45  1  0
 23 46  1  0
 24 47  1  0
 24 48  1  0
 25 49  1  0
 25 50  1  0
 26 51  1  0
 27 52  1  0
 28 53  1  0
M  END
>  <smiles>  (3) 
Cc1ccc2c(c1)CC(c1cccc(C(=O)Nc3ccc(C4CCC4)cc3)c1)=N2

>  <score_type>  (3) 
oracle

>  <origin>  (3) 
autodockgpu

>  <m_score__min__energy>  (3) 
-8.8800000000000008

>  <m_primary>  (3) 
energy

>  <rmsd>  (3) 
9.481729813016987

>  <m_score__min__rmsd>  (3) 
9.481729813016987

>  <meeko>  (3) 
{"free_energy": -8.83, "intermolecular_energy": -10.03, "internal_energy": -0.95, "cluster_size": 35, "cluster_id": 1, "rank_in_cluster": 17}

>  <energy>  (3) 
-8.88

>  <cluster_rmsd>  (3) 
0.09

>  <cluster>  (3) 
1

$$$$

     RDKit          3D

 53 57  0  0  0  0  0  0  0  0999 V2000
  141.2400   83.2800  221.6070 C   0  0  0  0  0  0  0  0  0  0  0  0
  141.2970   81.7890  221.7580 C   0  0  0  0  0  0  0  0  0  0  0  0
  141.5300   81.2440  223.0070 C   0  0  0  0  0  0  0  0  0  0  0  0
  141.5910   79.8790  223.1940 C   0  0  0  0  0  0  0  0  0  0  0  0
  141.4150   79.0300  222.1030 C   0  0  0  0  0  0  0  0  0  0  0  0
  141.1830   79.5920  220.8670 C   0  0  0  0  0  0  0  0  0  0  0  0
  141.1200   80.9540  220.6670 C   0  0  0  0  0  0  0  0  0  0  0  0
  141.0350   78.4510  219.9050 C   0  0  0  0  0  0  0  0  0  0  0  0
  141.2110   77.2630  220.7540 C   0  0  0  0  0  0  0  0  0  0  0  0
  141.1680   75.8620  220.3540 C   0  0  0  0  0  0  0  0  0  0  0  0
  141.2200   75.5470  218.9990 C   0  0  0  0  0  0  0  0  0  0  0  0
  141.1810   74.2150  218.6280 C   0  0  0  0  0  0  0  0  0  0  0  0
  141.0910   73.2300  219.5830 C   0  0  0  0  0  0  0  0  0  0  0  0
  141.0390   73.5330  220.9280 C   0  0  0  0  0  0  0  0  0  0  0  0
  140.9440   72.5190  221.9730 C   0  0  0  0  0  0  0  0  0  0  0  0
  141.7540   71.5320  222.0120 O   0  0  0  0  0  0  0  0  0  0  0  0
  139.9670   72.5500  223.0010 N   0  0  0  0  0  0  0  0  0  0  0  0
  139.8980   71.5530  224.0010 C   0  0  0  0  0  0  0  0  0  0  0  0
  139.0520   70.4650  223.9490 C   0  0  0  0  0  0  0  0  0  0  0  0
  139.0130   69.5140  224.9460 C   0  0  0  0  0  0  0  0  0  0  0  0
  139.8250   69.6020  226.0580 C   0  0  0  0  0  0  0  0  0  0  0  0
  139.8150   68.5990  227.1570 C   0  0  0  0  0  0  0  0  0  0  0  0
  139.9280   69.1620  228.5450 C   0  0  0  0  0  0  0  0  0  0  0  0
  141.3060   68.5790  228.6440 C   0  0  0  0  0  0  0  0  0  0  0  0
  141.0470   67.8110  227.3810 C   0  0  0  0  0  0  0  0  0  0  0  0
  140.6740   70.7010  226.1030 C   0  0  0  0  0  0  0  0  0  0  0  0
  140.7150   71.6540  225.1070 C   0  0  0  0  0  0  0  0  0  0  0  0
  141.0790   74.8490  221.2910 C   0  0  0  0  0  0  0  0  0  0  0  0
  141.4220   77.6260  221.9850 N   0  0  0  0  0  0  0  0  0  0  0  0
  141.2221   83.7489  222.6019 H   0  0  0  0  0  0  0  0  0  0  0  0
  142.1256   83.6267  221.0542 H   0  0  0  0  0  0  0  0  0  0  0  0
  140.3306   83.5581  221.0542 H   0  0  0  0  0  0  0  0  0  0  0  0
  141.6696   81.9127  223.8692 H   0  0  0  0  0  0  0  0  0  0  0  0
  141.7770   79.4640  224.1956 H   0  0  0  0  0  0  0  0  0  0  0  0
  140.9336   81.3681  219.6651 H   0  0  0  0  0  0  0  0  0  0  0  0
  140.0391   78.4568  219.4380 H   0  0  0  0  0  0  0  0  0  0  0  0
  141.7541   78.4946  219.0738 H   0  0  0  0  0  0  0  0  0  0  0  0
  141.2906   76.3400  218.2399 H   0  0  0  0  0  0  0  0  0  0  0  0
  141.2222   73.9423  217.5631 H   0  0  0  0  0  0  0  0  0  0  0  0
  141.0598   72.1767  219.2676 H   0  0  0  0  0  0  0  0  0  0  0  0
  139.2760   73.3170  223.0370 H   0  0  0  0  0  0  0  0  0  0  0  0
  138.3851   70.3522  223.0816 H   0  0  0  0  0  0  0  0  0  0  0  0
  138.3188   68.6658  224.8530 H   0  0  0  0  0  0  0  0  0  0  0  0
  138.9028   68.0841  226.8211 H   0  0  0  0  0  0  0  0  0  0  0  0
  139.8969   70.2606  228.5917 H   0  0  0  0  0  0  0  0  0  0  0  0
  139.1659   68.9423  229.3072 H   0  0  0  0  0  0  0  0  0  0  0  0
  142.1168   69.3183  228.5658 H   0  0  0  0  0  0  0  0  0  0  0  0
  141.6373   68.0658  229.5588 H   0  0  0  0  0  0  0  0  0  0  0  0
  141.8154   67.9483  226.6060 H   0  0  0  0  0  0  0  0  0  0  0  0
  141.0109   66.7117  227.3945 H   0  0  0  0  0  0  0  0  0  0  0  0
  141.3416   70.8158  226.9697 H   0  0  0  0  0  0  0  0  0  0  0  0
  141.4073   72.5042  225.1960 H   0  0  0  0  0  0  0  0  0  0  0  0
  141.0393   75.1104  222.3587 H   0  0  0  0  0  0  0  0  0  0  0  0
  1  2  1  0
  2  3  2  0
  3  4  1  0
  4  5  2  0
  5  6  1  0
  6  7  2  0
  6  8  1  0
  8  9  1  0
  9 10  1  0
 10 11  2  0
 11 12  1  0
 12 13  2  0
 13 14  1  0
 14 15  1  0
 15 16  2  0
 15 17  1  0
 17 18  1  0
 18 19  2  0
 19 20  1  0
 20 21  2  0
 21 22  1  0
 22 23  1  0
 23 24  1  0
 24 25  1  0
 21 26  1  0
 26 27  2  0
 14 28  2  0
  9 29  2  0
  7  2  1  0
 28 10  1  0
 29  5  1  0
 27 18  1  0
 25 22  1  0
  1 30  1  0
  1 31  1  0
  1 32  1  0
  3 33  1  0
  4 34  1  0
  7 35  1  0
  8 36  1  0
  8 37  1  0
 11 38  1  0
 12 39  1  0
 13 40  1  0
 17 41  1  0
 19 42  1  0
 20 43  1  0
 22 44  1  0
 23 45  1  0
 23 46  1  0
 24 47  1  0
 24 48  1  0
 25 49  1  0
 25 50  1  0
 26 51  1  0
 27 52  1  0
 28 53  1  0
M  END
>  <smiles>  (4) 
Cc1ccc2c(c1)CC(c1cccc(C(=O)Nc3ccc(C4CCC4)cc3)c1)=N2

>  <score_type>  (4) 
oracle

>  <origin>  (4) 
autodockgpu

>  <m_score__min__energy>  (4) 
-8.8800000000000008

>  <m_primary>  (4) 
energy

>  <rmsd>  (4) 
9.463631103099818

>  <m_score__min__rmsd>  (4) 
9.463631103099818

>  <meeko>  (4) 
{"free_energy": -8.82, "intermolecular_energy": -10.01, "internal_energy": -0.95, "cluster_size": 35, "cluster_id": 1, "rank_in_cluster": 24}

>  <energy>  (4) 
-8.88

>  <cluster_rmsd>  (4) 
0.11

>  <cluster>  (4) 
1

$$$$

     RDKit          3D

 53 57  0  0  0  0  0  0  0  0999 V2000
  141.0740   83.3410  221.5630 C   0  0  0  0  0  0  0  0  0  0  0  0
  141.1700   81.8520  221.7160 C   0  0  0  0  0  0  0  0  0  0  0  0
  141.3940   81.3140  222.9690 C   0  0  0  0  0  0  0  0  0  0  0  0
  141.4890   79.9510  223.1570 C   0  0  0  0  0  0  0  0  0  0  0  0
  141.3560   79.0980  222.0640 C   0  0  0  0  0  0  0  0  0  0  0  0
  141.1330   79.6530  220.8240 C   0  0  0  0  0  0  0  0  0  0  0  0
  141.0360   81.0130  220.6220 C   0  0  0  0  0  0  0  0  0  0  0  0
  141.0340   78.5090  219.8590 C   0  0  0  0  0  0  0  0  0  0  0  0
  141.2260   77.3260  220.7120 C   0  0  0  0  0  0  0  0  0  0  0  0
  141.2300   75.9240  220.3120 C   0  0  0  0  0  0  0  0  0  0  0  0
  141.3150   75.6110  218.9580 C   0  0  0  0  0  0  0  0  0  0  0  0
  141.3190   74.2780  218.5870 C   0  0  0  0  0  0  0  0  0  0  0  0
  141.2400   73.2910  219.5410 C   0  0  0  0  0  0  0  0  0  0  0  0
  141.1560   73.5920  220.8840 C   0  0  0  0  0  0  0  0  0  0  0  0
  141.0710   72.5760  221.9280 C   0  0  0  0  0  0  0  0  0  0  0  0
  141.8280   71.5460  221.9110 O   0  0  0  0  0  0  0  0  0  0  0  0
  140.1630   72.6500  223.0150 N   0  0  0  0  0  0  0  0  0  0  0  0
  140.1020   71.6490  224.0120 C   0  0  0  0  0  0  0  0  0  0  0  0
  140.7280   71.7420  225.2370 C   0  0  0  0  0  0  0  0  0  0  0  0
  140.6450   70.7440  226.1840 C   0  0  0  0  0  0  0  0  0  0  0  0
  139.9250   69.5900  225.9530 C   0  0  0  0  0  0  0  0  0  0  0  0
  139.8090   68.4880  226.9460 C   0  0  0  0  0  0  0  0  0  0  0  0
  139.7810   68.9180  228.3860 C   0  0  0  0  0  0  0  0  0  0  0  0
  141.1440   68.3200  228.5670 C   0  0  0  0  0  0  0  0  0  0  0  0
  141.0150   67.6750  227.2180 C   0  0  0  0  0  0  0  0  0  0  0  0
  139.2960   69.5050  224.7170 C   0  0  0  0  0  0  0  0  0  0  0  0
  139.3780   70.5010  223.7680 C   0  0  0  0  0  0  0  0  0  0  0  0
  141.1530   74.9090  221.2480 C   0  0  0  0  0  0  0  0  0  0  0  0
  141.4050   77.6940  221.9460 N   0  0  0  0  0  0  0  0  0  0  0  0
  141.0437   83.8106  222.5573 H   0  0  0  0  0  0  0  0  0  0  0  0
  141.9502   83.7100  221.0098 H   0  0  0  0  0  0  0  0  0  0  0  0
  140.1577   83.5944  221.0098 H   0  0  0  0  0  0  0  0  0  0  0  0
  141.4986   81.9861  223.8335 H   0  0  0  0  0  0  0  0  0  0  0  0
  141.6683   79.5410  224.1618 H   0  0  0  0  0  0  0  0  0  0  0  0
  140.8566   81.4220  219.6168 H   0  0  0  0  0  0  0  0  0  0  0  0
  140.0473   78.4881  219.3732 H   0  0  0  0  0  0  0  0  0  0  0  0
  141.7669   78.5723  219.0412 H   0  0  0  0  0  0  0  0  0  0  0  0
  141.3776   76.4057  218.2001 H   0  0  0  0  0  0  0  0  0  0  0  0
  141.3857   74.0064  217.5231 H   0  0  0  0  0  0  0  0  0  0  0  0
  141.2439   72.2372  219.2256 H   0  0  0  0  0  0  0  0  0  0  0  0
  139.5170   73.4520  223.0970 H   0  0  0  0  0  0  0  0  0  0  0  0
  141.3141   72.6441  225.4665 H   0  0  0  0  0  0  0  0  0  0  0  0
  141.1644   70.8704  227.1454 H   0  0  0  0  0  0  0  0  0  0  0  0
  138.9373   68.0122  226.4730 H   0  0  0  0  0  0  0  0  0  0  0  0
  139.7418   70.0075  228.5322 H   0  0  0  0  0  0  0  0  0  0  0  0
  138.9473   68.6324  229.0443 H   0  0  0  0  0  0  0  0  0  0  0  0
  141.9561   69.0584  228.6397 H   0  0  0  0  0  0  0  0  0  0  0  0
  141.3840   67.7215  229.4582 H   0  0  0  0  0  0  0  0  0  0  0  0
  141.8568   67.8792  226.5400 H   0  0  0  0  0  0  0  0  0  0  0  0
  140.9810   66.5795  227.1252 H   0  0  0  0  0  0  0  0  0  0  0  0
  138.7077   68.6047  224.4862 H   0  0  0  0  0  0  0  0  0  0  0  0
  138.8602   70.3789  222.8052 H   0  0  0  0  0  0  0  0  0  0  0  0
  141.0875   75.1690  222.3148 H   0  0  0  0  0  0  0  0  0  0  0  0
  1  2  1  0
  2  3  2  0
  3  4  1  0
  4  5  2  0
  5  6  1  0
  6  7  2  0
  6  8  1  0
  8  9  1  0
  9 10  1  0
 10 11  2  0
 11 12  1  0
 12 13  2  0
 13 14  1  0
 14 15  1  0
 15 16  2  0
 15 17  1  0
 17 18  1  0
 18 19  2  0
 19 20  1  0
 20 21  2  0
 21 22  1  0
 22 23  1  0
 23 24  1  0
 24 25  1  0
 21 26  1  0
 26 27  2  0
 14 28  2  0
  9 29  2  0
  7  2  1  0
 28 10  1  0
 29  5  1  0
 27 18  1  0
 25 22  1  0
  1 30  1  0
  1 31  1  0
  1 32  1  0
  3 33  1  0
  4 34  1  0
  7 35  1  0
  8 36  1  0
  8 37  1  0
 11 38  1  0
 12 39  1  0
 13 40  1  0
 17 41  1  0
 19 42  1  0
 20 43  1  0
 22 44  1  0
 23 45  1  0
 23 46  1  0
 24 47  1  0
 24 48  1  0
 25 49  1  0
 25 50  1  0
 26 51  1  0
 27 52  1  0
 28 53  1  0
M  END
>  <smiles>  (5) 
Cc1ccc2c(c1)CC(c1cccc(C(=O)Nc3ccc(C4CCC4)cc3)c1)=N2

>  <score_type>  (5) 
oracle

>  <origin>  (5) 
autodockgpu

>  <m_score__min__energy>  (5) 
-8.8800000000000008

>  <m_primary>  (5) 
energy

>  <rmsd>  (5) 
9.482776811761061

>  <m_score__min__rmsd>  (5) 
9.482776811761061

>  <meeko>  (5) 
{"free_energy": -8.82, "intermolecular_energy": -10.01, "internal_energy": -0.95, "cluster_size": 35, "cluster_id": 1, "rank_in_cluster": 23}

>  <energy>  (5) 
-8.88

>  <cluster_rmsd>  (5) 
0.05

>  <cluster>  (5) 
1

$$$$

     RDKit          3D

 53 57  0  0  0  0  0  0  0  0999 V2000
  141.3700   83.2250  221.6240 C   0  0  0  0  0  0  0  0  0  0  0  0
  141.3960   81.7310  221.7570 C   0  0  0  0  0  0  0  0  0  0  0  0
  141.5570   81.1660  223.0080 C   0  0  0  0  0  0  0  0  0  0  0  0
  141.5870   79.7970  223.1780 C   0  0  0  0  0  0  0  0  0  0  0  0
  141.4520   78.9670  222.0680 C   0  0  0  0  0  0  0  0  0  0  0  0
  141.2920   79.5480  220.8300 C   0  0  0  0  0  0  0  0  0  0  0  0
  141.2610   80.9140  220.6470 C   0  0  0  0  0  0  0  0  0  0  0  0
  141.1740   78.4240  219.8450 C   0  0  0  0  0  0  0  0  0  0  0  0
  141.2880   77.2210  220.6860 C   0  0  0  0  0  0  0  0  0  0  0  0
  141.2440   75.8270  220.2640 C   0  0  0  0  0  0  0  0  0  0  0  0
  141.3620   75.5290  218.9090 C   0  0  0  0  0  0  0  0  0  0  0  0
  141.3200   74.2030  218.5180 C   0  0  0  0  0  0  0  0  0  0  0  0
  141.1640   73.2070  219.4530 C   0  0  0  0  0  0  0  0  0  0  0  0
  141.0460   73.4920  220.7980 C   0  0  0  0  0  0  0  0  0  0  0  0
  140.8790   72.4660  221.8220 C   0  0  0  0  0  0  0  0  0  0  0  0
  141.4530   71.3290  221.7180 O   0  0  0  0  0  0  0  0  0  0  0  0
  140.0850   72.6480  222.9830 N   0  0  0  0  0  0  0  0  0  0  0  0
  139.9400   71.6350  223.9600 C   0  0  0  0  0  0  0  0  0  0  0  0
  139.1020   70.5490  223.8270 C   0  0  0  0  0  0  0  0  0  0  0  0
  138.9880   69.5830  224.8030 C   0  0  0  0  0  0  0  0  0  0  0  0
  139.7130   69.6530  225.9740 C   0  0  0  0  0  0  0  0  0  0  0  0
  139.6210   68.6330  227.0530 C   0  0  0  0  0  0  0  0  0  0  0  0
  139.7340   69.1640  228.4540 C   0  0  0  0  0  0  0  0  0  0  0  0
  141.0740   68.5010  228.5720 C   0  0  0  0  0  0  0  0  0  0  0  0
  140.8000   67.7720  227.2900 C   0  0  0  0  0  0  0  0  0  0  0  0
  140.5560   70.7510  226.1010 C   0  0  0  0  0  0  0  0  0  0  0  0
  140.6710   71.7190  225.1260 C   0  0  0  0  0  0  0  0  0  0  0  0
  141.0880   74.8030  221.1810 C   0  0  0  0  0  0  0  0  0  0  0  0
  141.4430   77.5640  221.9300 N   0  0  0  0  0  0  0  0  0  0  0  0
  141.3620   83.6821  222.6245 H   0  0  0  0  0  0  0  0  0  0  0  0
  142.2624   83.5598  221.0750 H   0  0  0  0  0  0  0  0  0  0  0  0
  140.4664   83.5286  221.0750 H   0  0  0  0  0  0  0  0  0  0  0  0
  141.6634   81.8207  223.8856 H   0  0  0  0  0  0  0  0  0  0  0  0
  141.7164   79.3651  224.1814 H   0  0  0  0  0  0  0  0  0  0  0  0
  141.1321   81.3448  219.6431 H   0  0  0  0  0  0  0  0  0  0  0  0
  140.2030   78.4531  219.3289 H   0  0  0  0  0  0  0  0  0  0  0  0
  141.9340   78.4669  219.0509 H   0  0  0  0  0  0  0  0  0  0  0  0
  141.4859   76.3305  218.1659 H   0  0  0  0  0  0  0  0  0  0  0  0
  141.4119   73.9437  217.4530 H   0  0  0  0  0  0  0  0  0  0  0  0
  141.1325   72.1587  219.1212 H   0  0  0  0  0  0  0  0  0  0  0  0
  139.5890   73.5410  223.1380 H   0  0  0  0  0  0  0  0  0  0  0  0
  138.5032   70.4499  222.9096 H   0  0  0  0  0  0  0  0  0  0  0  0
  138.3032   68.7369  224.6445 H   0  0  0  0  0  0  0  0  0  0  0  0
  138.6893   68.1773  226.6866 H   0  0  0  0  0  0  0  0  0  0  0  0
  139.7646   70.2615  228.5209 H   0  0  0  0  0  0  0  0  0  0  0  0
  138.9433   68.9750  229.1950 H   0  0  0  0  0  0  0  0  0  0  0  0
  141.9273   69.1936  228.5253 H   0  0  0  0  0  0  0  0  0  0  0  0
  141.3548   67.9536  229.4839 H   0  0  0  0  0  0  0  0  0  0  0  0
  141.5927   67.8780  226.5348 H   0  0  0  0  0  0  0  0  0  0  0  0
  140.7001   66.6766  227.2826 H   0  0  0  0  0  0  0  0  0  0  0  0
  141.1562   70.8517  227.0173 H   0  0  0  0  0  0  0  0  0  0  0  0
  141.3536   72.5678  225.2801 H   0  0  0  0  0  0  0  0  0  0  0  0
  140.9951   75.0512  222.2486 H   0  0  0  0  0  0  0  0  0  0  0  0
  1  2  1  0
  2  3  2  0
  3  4  1  0
  4  5  2  0
  5  6  1  0
  6  7  2  0
  6  8  1  0
  8  9  1  0
  9 10  1  0
 10 11  2  0
 11 12  1  0
 12 13  2  0
 13 14  1  0
 14 15  1  0
 15 16  2  0
 15 17  1  0
 17 18  1  0
 18 19  2  0
 19 20  1  0
 20 21  2  0
 21 22  1  0
 22 23  1  0
 23 24  1  0
 24 25  1  0
 21 26  1  0
 26 27  2  0
 14 28  2  0
  9 29  2  0
  7  2  1  0
 28 10  1  0
 29  5  1  0
 27 18  1  0
 25 22  1  0
  1 30  1  0
  1 31  1  0
  1 32  1  0
  3 33  1  0
  4 34  1  0
  7 35  1  0
  8 36  1  0
  8 37  1  0
 11 38  1  0
 12 39  1  0
 13 40  1  0
 17 41  1  0
 19 42  1  0
 20 43  1  0
 22 44  1  0
 23 45  1  0
 23 46  1  0
 24 47  1  0
 24 48  1  0
 25 49  1  0
 25 50  1  0
 26 51  1  0
 27 52  1  0
 28 53  1  0
M  END
>  <smiles>  (6) 
Cc1ccc2c(c1)CC(c1cccc(C(=O)Nc3ccc(C4CCC4)cc3)c1)=N2

>  <score_type>  (6) 
oracle

>  <origin>  (6) 
autodockgpu

>  <m_score__min__energy>  (6) 
-8.8800000000000008

>  <m_primary>  (6) 
energy

>  <rmsd>  (6) 
9.403563354359852

>  <m_score__min__rmsd>  (6) 
9.403563354359852

>  <meeko>  (6) 
{"free_energy": -8.79, "intermolecular_energy": -9.99, "internal_energy": -0.95, "cluster_size": 35, "cluster_id": 1, "rank_in_cluster": 33}

>  <energy>  (6) 
-8.87

>  <cluster_rmsd>  (6) 
0.07

>  <cluster>  (6) 
1

$$$$

     RDKit          3D

 53 57  0  0  0  0  0  0  0  0999 V2000
  141.4270   83.1570  221.5980 C   0  0  0  0  0  0  0  0  0  0  0  0
  141.4390   81.6620  221.7250 C   0  0  0  0  0  0  0  0  0  0  0  0
  141.6270   81.0900  222.9690 C   0  0  0  0  0  0  0  0  0  0  0  0
  141.6440   79.7210  223.1330 C   0  0  0  0  0  0  0  0  0  0  0  0
  141.4690   78.8960  222.0250 C   0  0  0  0  0  0  0  0  0  0  0  0
  141.2820   79.4850  220.7940 C   0  0  0  0  0  0  0  0  0  0  0  0
  141.2630   80.8520  220.6160 C   0  0  0  0  0  0  0  0  0  0  0  0
  141.1240   78.3650  219.8080 C   0  0  0  0  0  0  0  0  0  0  0  0
  141.2460   77.1580  220.6410 C   0  0  0  0  0  0  0  0  0  0  0  0
  141.1730   75.7660  220.2160 C   0  0  0  0  0  0  0  0  0  0  0  0
  141.2220   75.4740  218.8550 C   0  0  0  0  0  0  0  0  0  0  0  0
  141.1530   74.1500  218.4600 C   0  0  0  0  0  0  0  0  0  0  0  0
  141.0380   73.1510  219.3970 C   0  0  0  0  0  0  0  0  0  0  0  0
  140.9890   73.4300  220.7470 C   0  0  0  0  0  0  0  0  0  0  0  0
  140.8670   72.4000  221.7740 C   0  0  0  0  0  0  0  0  0  0  0  0
  141.4580   71.2740  221.6520 O   0  0  0  0  0  0  0  0  0  0  0  0
  140.1020   72.5660  222.9560 N   0  0  0  0  0  0  0  0  0  0  0  0
  140.0020   71.5500  223.9350 C   0  0  0  0  0  0  0  0  0  0  0  0
  139.2560   70.4010  223.7800 C   0  0  0  0  0  0  0  0  0  0  0  0
  139.1830   69.4330  224.7590 C   0  0  0  0  0  0  0  0  0  0  0  0
  139.8560   69.5660  225.9540 C   0  0  0  0  0  0  0  0  0  0  0  0
  139.8050   68.5470  227.0370 C   0  0  0  0  0  0  0  0  0  0  0  0
  139.8700   69.0890  228.4370 C   0  0  0  0  0  0  0  0  0  0  0  0
  141.2420   68.5000  228.5770 C   0  0  0  0  0  0  0  0  0  0  0  0
  141.0260   67.7520  227.2940 C   0  0  0  0  0  0  0  0  0  0  0  0
  140.6060   70.7270  226.1030 C   0  0  0  0  0  0  0  0  0  0  0  0
  140.6810   71.6970  225.1260 C   0  0  0  0  0  0  0  0  0  0  0  0
  141.0580   74.7390  221.1340 C   0  0  0  0  0  0  0  0  0  0  0  0
  141.4390   77.4940  221.8820 N   0  0  0  0  0  0  0  0  0  0  0  0
  141.4234   83.6101  222.6003 H   0  0  0  0  0  0  0  0  0  0  0  0
  142.3225   83.4857  221.0503 H   0  0  0  0  0  0  0  0  0  0  0  0
  140.5263   83.4712  221.0503 H   0  0  0  0  0  0  0  0  0  0  0  0
  141.7658   81.7397  223.8457 H   0  0  0  0  0  0  0  0  0  0  0  0
  141.7946   79.2841  224.1312 H   0  0  0  0  0  0  0  0  0  0  0  0
  141.1118   81.2883  219.6176 H   0  0  0  0  0  0  0  0  0  0  0  0
  140.1399   78.4075  219.3183 H   0  0  0  0  0  0  0  0  0  0  0  0
  141.8630   78.4017  218.9941 H   0  0  0  0  0  0  0  0  0  0  0  0
  141.3136   76.2786  218.1105 H   0  0  0  0  0  0  0  0  0  0  0  0
  141.1904   73.8954  217.3905 H   0  0  0  0  0  0  0  0  0  0  0  0
  140.9838   72.1045  219.0625 H   0  0  0  0  0  0  0  0  0  0  0  0
  139.5950   73.4500  223.1260 H   0  0  0  0  0  0  0  0  0  0  0  0
  138.6998   70.2514  222.8428 H   0  0  0  0  0  0  0  0  0  0  0  0
  138.5738   68.5343  224.5822 H   0  0  0  0  0  0  0  0  0  0  0  0
  138.9044   68.0400  226.6604 H   0  0  0  0  0  0  0  0  0  0  0  0
  139.8404   70.1869  228.4990 H   0  0  0  0  0  0  0  0  0  0  0  0
  139.0804   68.8604  229.1679 H   0  0  0  0  0  0  0  0  0  0  0  0
  142.0572   69.2376  228.5391 H   0  0  0  0  0  0  0  0  0  0  0  0
  141.5389   67.9722  229.4953 H   0  0  0  0  0  0  0  0  0  0  0  0
  141.8222   67.8982  226.5493 H   0  0  0  0  0  0  0  0  0  0  0  0
  140.9860   66.6527  227.2901 H   0  0  0  0  0  0  0  0  0  0  0  0
  141.1629   70.8781  227.0395 H   0  0  0  0  0  0  0  0  0  0  0  0
  141.2888   72.5974  225.2985 H   0  0  0  0  0  0  0  0  0  0  0  0
  141.0210   74.9821  222.2062 H   0  0  0  0  0  0  0  0  0  0  0  0
  1  2  1  0
  2  3  2  0
  3  4  1  0
  4  5  2  0
  5  6  1  0
  6  7  2  0
  6  8  1  0
  8  9  1  0
  9 10  1  0
 10 11  2  0
 11 12  1  0
 12 13  2  0
 13 14  1  0
 14 15  1  0
 15 16  2  0
 15 17  1  0
 17 18  1  0
 18 19  2  0
 19 20  1  0
 20 21  2  0
 21 22  1  0
 22 23  1  0
 23 24  1  0
 24 25  1  0
 21 26  1  0
 26 27  2  0
 14 28  2  0
  9 29  2  0
  7  2  1  0
 28 10  1  0
 29  5  1  0
 27 18  1  0
 25 22  1  0
  1 30  1  0
  1 31  1  0
  1 32  1  0
  3 33  1  0
  4 34  1  0
  7 35  1  0
  8 36  1  0
  8 37  1  0
 11 38  1  0
 12 39  1  0
 13 40  1  0
 17 41  1  0
 19 42  1  0
 20 43  1  0
 22 44  1  0
 23 45  1  0
 23 46  1  0
 24 47  1  0
 24 48  1  0
 25 49  1  0
 25 50  1  0
 26 51  1  0
 27 52  1  0
 28 53  1  0
M  END
>  <smiles>  (7) 
Cc1ccc2c(c1)CC(c1cccc(C(=O)Nc3ccc(C4CCC4)cc3)c1)=N2

>  <score_type>  (7) 
oracle

>  <origin>  (7) 
autodockgpu

>  <m_score__min__energy>  (7) 
-8.8800000000000008

>  <m_primary>  (7) 
energy

>  <rmsd>  (7) 
9.448287316134714

>  <m_score__min__rmsd>  (7) 
9.448287316134714

>  <meeko>  (7) 
{"free_energy": -8.79, "intermolecular_energy": -9.99, "internal_energy": -0.95, "cluster_size": 35, "cluster_id": 1, "rank_in_cluster": 32}

>  <energy>  (7) 
-8.87

>  <cluster_rmsd>  (7) 
0.13

>  <cluster>  (7) 
1

$$$$

     RDKit          3D

 53 57  0  0  0  0  0  0  0  0999 V2000
  141.1200   83.3780  221.5740 C   0  0  0  0  0  0  0  0  0  0  0  0
  141.2010   81.8890  221.7300 C   0  0  0  0  0  0  0  0  0  0  0  0
  141.2920   81.3460  222.9980 C   0  0  0  0  0  0  0  0  0  0  0  0
  141.3680   79.9820  223.1900 C   0  0  0  0  0  0  0  0  0  0  0  0
  141.3540   79.1330  222.0850 C   0  0  0  0  0  0  0  0  0  0  0  0
  141.2630   79.6930  220.8300 C   0  0  0  0  0  0  0  0  0  0  0  0
  141.1860   81.0540  220.6250 C   0  0  0  0  0  0  0  0  0  0  0  0
  141.2700   78.5530  219.8560 C   0  0  0  0  0  0  0  0  0  0  0  0
  141.3720   77.3670  220.7200 C   0  0  0  0  0  0  0  0  0  0  0  0
  141.4200   75.9670  220.3160 C   0  0  0  0  0  0  0  0  0  0  0  0
  141.6560   75.6600  218.9790 C   0  0  0  0  0  0  0  0  0  0  0  0
  141.7020   74.3290  218.6050 C   0  0  0  0  0  0  0  0  0  0  0  0
  141.5170   73.3370  219.5400 C   0  0  0  0  0  0  0  0  0  0  0  0
  141.2830   73.6330  220.8670 C   0  0  0  0  0  0  0  0  0  0  0  0
  141.0810   72.6120  221.8900 C   0  0  0  0  0  0  0  0  0  0  0  0
  141.7580   71.5280  221.8840 O   0  0  0  0  0  0  0  0  0  0  0  0
  140.1400   72.7400  222.9430 N   0  0  0  0  0  0  0  0  0  0  0  0
  139.9650   71.7340  223.9210 C   0  0  0  0  0  0  0  0  0  0  0  0
  139.0900   70.6760  223.7920 C   0  0  0  0  0  0  0  0  0  0  0  0
  138.9480   69.7150  224.7700 C   0  0  0  0  0  0  0  0  0  0  0  0
  139.6790   69.7630  225.9380 C   0  0  0  0  0  0  0  0  0  0  0  0
  139.5560   68.7470  227.0190 C   0  0  0  0  0  0  0  0  0  0  0  0
  139.7550   69.2640  228.4150 C   0  0  0  0  0  0  0  0  0  0  0  0
  141.0500   68.5120  228.4850 C   0  0  0  0  0  0  0  0  0  0  0  0
  140.6830   67.8070  227.2120 C   0  0  0  0  0  0  0  0  0  0  0  0
  140.5580   70.8310  226.0610 C   0  0  0  0  0  0  0  0  0  0  0  0
  140.7030   71.7950  225.0850 C   0  0  0  0  0  0  0  0  0  0  0  0
  141.2390   74.9480  221.2330 C   0  0  0  0  0  0  0  0  0  0  0  0
  141.4170   77.7300  221.9670 N   0  0  0  0  0  0  0  0  0  0  0  0
  141.0943   83.8499  222.5673 H   0  0  0  0  0  0  0  0  0  0  0  0
  141.9999   83.7371  221.0201 H   0  0  0  0  0  0  0  0  0  0  0  0
  140.2063   83.6395  221.0201 H   0  0  0  0  0  0  0  0  0  0  0  0
  141.3041   82.0148  223.8712 H   0  0  0  0  0  0  0  0  0  0  0  0
  141.4390   79.5681  224.2067 H   0  0  0  0  0  0  0  0  0  0  0  0
  141.1144   81.4671  219.6080 H   0  0  0  0  0  0  0  0  0  0  0  0
  140.3409   78.5325  219.2674 H   0  0  0  0  0  0  0  0  0  0  0  0
  142.0861   78.6207  219.1216 H   0  0  0  0  0  0  0  0  0  0  0  0
  141.8027   76.4581  218.2363 H   0  0  0  0  0  0  0  0  0  0  0  0
  141.8875   74.0623  217.5541 H   0  0  0  0  0  0  0  0  0  0  0  0
  141.5565   72.2845  219.2225 H   0  0  0  0  0  0  0  0  0  0  0  0
  139.5540   73.5880  223.0150 H   0  0  0  0  0  0  0  0  0  0  0  0
  138.4845   70.5962  222.8772 H   0  0  0  0  0  0  0  0  0  0  0  0
  138.2355   68.8914  224.6151 H   0  0  0  0  0  0  0  0  0  0  0  0
  138.5828   68.3567  226.6864 H   0  0  0  0  0  0  0  0  0  0  0  0
  139.8622   70.3567  228.4817 H   0  0  0  0  0  0  0  0  0  0  0  0
  138.9802   69.1261  229.1835 H   0  0  0  0  0  0  0  0  0  0  0  0
  141.9459   69.1457  228.4092 H   0  0  0  0  0  0  0  0  0  0  0  0
  141.3247   67.9438  229.3859 H   0  0  0  0  0  0  0  0  0  0  0  0
  141.4537   67.8626  226.4292 H   0  0  0  0  0  0  0  0  0  0  0  0
  140.5101   66.7207  227.2062 H   0  0  0  0  0  0  0  0  0  0  0  0
  141.1642   70.9117  226.9753 H   0  0  0  0  0  0  0  0  0  0  0  0
  141.4141   72.6205  225.2363 H   0  0  0  0  0  0  0  0  0  0  0  0
  141.0544   75.2037  222.2868 H   0  0  0  0  0  0  0  0  0  0  0  0
  1  2  1  0
  2  3  2  0
  3  4  1  0
  4  5  2  0
  5  6  1  0
  6  7  2  0
  6  8  1  0
  8  9  1  0
  9 10  1  0
 10 11  2  0
 11 12  1  0
 12 13  2  0
 13 14  1  0
 14 15  1  0
 15 16  2  0
 15 17  1  0
 17 18  1  0
 18 19  2  0
 19 20  1  0
 20 21  2  0
 21 22  1  0
 22 23  1  0
 23 24  1  0
 24 25  1  0
 21 26  1  0
 26 27  2  0
 14 28  2  0
  9 29  2  0
  7  2  1  0
 28 10  1  0
 29  5  1  0
 27 18  1  0
 25 22  1  0
  1 30  1  0
  1 31  1  0
  1 32  1  0
  3 33  1  0
  4 34  1  0
  7 35  1  0
  8 36  1  0
  8 37  1  0
 11 38  1  0
 12 39  1  0
 13 40  1  0
 17 41  1  0
 19 42  1  0
 20 43  1  0
 22 44  1  0
 23 45  1  0
 23 46  1  0
 24 47  1  0
 24 48  1  0
 25 49  1  0
 25 50  1  0
 26 51  1  0
 27 52  1  0
 28 53  1  0
M  END
>  <smiles>  (8) 
Cc1ccc2c(c1)CC(c1cccc(C(=O)Nc3ccc(C4CCC4)cc3)c1)=N2

>  <score_type>  (8) 
oracle

>  <origin>  (8) 
autodockgpu

>  <m_score__min__energy>  (8) 
-8.8800000000000008

>  <m_primary>  (8) 
energy

>  <rmsd>  (8) 
9.336069448958467

>  <m_score__min__rmsd>  (8) 
9.336069448958467

>  <meeko>  (8) 
{"free_energy": -8.85, "intermolecular_energy": -10.04, "internal_energy": -0.95, "cluster_size": 35, "cluster_id": 1, "rank_in_cluster": 11}

>  <energy>  (8) 
-8.87

>  <cluster_rmsd>  (8) 
0.04

>  <cluster>  (8) 
1

$$$$

     RDKit          3D

 53 57  0  0  0  0  0  0  0  0999 V2000
  141.1030   83.3470  221.5480 C   0  0  0  0  0  0  0  0  0  0  0  0
  141.2010   81.8580  221.7040 C   0  0  0  0  0  0  0  0  0  0  0  0
  141.4980   81.3270  222.9450 C   0  0  0  0  0  0  0  0  0  0  0  0
  141.5980   79.9640  223.1360 C   0  0  0  0  0  0  0  0  0  0  0  0
  141.3960   79.1050  222.0580 C   0  0  0  0  0  0  0  0  0  0  0  0
  141.1010   79.6540  220.8300 C   0  0  0  0  0  0  0  0  0  0  0  0
  140.9990   81.0130  220.6260 C   0  0  0  0  0  0  0  0  0  0  0  0
  140.9400   78.5050  219.8800 C   0  0  0  0  0  0  0  0  0  0  0  0
  141.1780   77.3260  220.7270 C   0  0  0  0  0  0  0  0  0  0  0  0
  141.1520   75.9220  220.3360 C   0  0  0  0  0  0  0  0  0  0  0  0
  141.1850   75.5990  218.9820 C   0  0  0  0  0  0  0  0  0  0  0  0
  141.1600   74.2650  218.6190 C   0  0  0  0  0  0  0  0  0  0  0  0
  141.1040   73.2840  219.5820 C   0  0  0  0  0  0  0  0  0  0  0  0
  141.0710   73.5940  220.9260 C   0  0  0  0  0  0  0  0  0  0  0  0
  141.0110   72.5850  221.9780 C   0  0  0  0  0  0  0  0  0  0  0  0
  141.8000   71.5800  221.9760 O   0  0  0  0  0  0  0  0  0  0  0  0
  140.0940   72.6410  223.0590 N   0  0  0  0  0  0  0  0  0  0  0  0
  140.0580   71.6480  224.0650 C   0  0  0  0  0  0  0  0  0  0  0  0
  140.7700   71.7180  225.2430 C   0  0  0  0  0  0  0  0  0  0  0  0
  140.7090   70.7280  226.2010 C   0  0  0  0  0  0  0  0  0  0  0  0
  139.9250   69.6070  226.0280 C   0  0  0  0  0  0  0  0  0  0  0  0
  139.8290   68.5150  227.0350 C   0  0  0  0  0  0  0  0  0  0  0  0
  139.7470   68.9630  228.4660 C   0  0  0  0  0  0  0  0  0  0  0  0
  141.1290   68.4250  228.6900 C   0  0  0  0  0  0  0  0  0  0  0  0
  141.0610   67.7570  227.3480 C   0  0  0  0  0  0  0  0  0  0  0  0
  139.2100   69.5440  224.8380 C   0  0  0  0  0  0  0  0  0  0  0  0
  139.2690   70.5320  223.8790 C   0  0  0  0  0  0  0  0  0  0  0  0
  141.0960   74.9130  221.2810 C   0  0  0  0  0  0  0  0  0  0  0  0
  141.4310   77.7000  221.9460 N   0  0  0  0  0  0  0  0  0  0  0  0
  141.0720   83.8185  222.5414 H   0  0  0  0  0  0  0  0  0  0  0  0
  141.9788   83.7161  220.9941 H   0  0  0  0  0  0  0  0  0  0  0  0
  140.1864   83.5981  220.9941 H   0  0  0  0  0  0  0  0  0  0  0  0
  141.6578   82.0041  223.7971 H   0  0  0  0  0  0  0  0  0  0  0  0
  141.8352   79.5592  224.1309 H   0  0  0  0  0  0  0  0  0  0  0  0
  140.7627   81.4168  219.6305 H   0  0  0  0  0  0  0  0  0  0  0  0
  139.9259   78.4855  219.4542 H   0  0  0  0  0  0  0  0  0  0  0  0
  141.6231   78.5604  219.0196 H   0  0  0  0  0  0  0  0  0  0  0  0
  141.2300   76.3884  218.2172 H   0  0  0  0  0  0  0  0  0  0  0  0
  141.1850   73.9867  217.5551 H   0  0  0  0  0  0  0  0  0  0  0  0
  141.0851   72.2284  219.2733 H   0  0  0  0  0  0  0  0  0  0  0  0
  139.4230   73.4240  223.1300 H   0  0  0  0  0  0  0  0  0  0  0  0
  141.4094   72.5943  225.4254 H   0  0  0  0  0  0  0  0  0  0  0  0
  141.2987   70.8349  227.1234 H   0  0  0  0  0  0  0  0  0  0  0  0
  138.9893   67.9969  226.5487 H   0  0  0  0  0  0  0  0  0  0  0  0
  139.6590   70.0519  228.5949 H   0  0  0  0  0  0  0  0  0  0  0  0
  138.9094   68.6518  229.1076 H   0  0  0  0  0  0  0  0  0  0  0  0
  141.9076   69.1976  228.7720 H   0  0  0  0  0  0  0  0  0  0  0  0
  141.3709   67.8494  229.5956 H   0  0  0  0  0  0  0  0  0  0  0  0
  141.9102   67.9874  226.6879 H   0  0  0  0  0  0  0  0  0  0  0  0
  141.0752   66.6598  227.2702 H   0  0  0  0  0  0  0  0  0  0  0  0
  138.5700   68.6686  224.6537 H   0  0  0  0  0  0  0  0  0  0  0  0
  138.6805   70.4295  222.9553 H   0  0  0  0  0  0  0  0  0  0  0  0
  141.0709   75.1802  222.3478 H   0  0  0  0  0  0  0  0  0  0  0  0
  1  2  1  0
  2  3  2  0
  3  4  1  0
  4  5  2  0
  5  6  1  0
  6  7  2  0
  6  8  1  0
  8  9  1  0
  9 10  1  0
 10 11  2  0
 11 12  1  0
 12 13  2  0
 13 14  1  0
 14 15  1  0
 15 16  2  0
 15 17  1  0
 17 18  1  0
 18 19  2  0
 19 20  1  0
 20 21  2  0
 21 22  1  0
 22 23  1  0
 23 24  1  0
 24 25  1  0
 21 26  1  0
 26 27  2  0
 14 28  2  0
  9 29  2  0
  7  2  1  0
 28 10  1  0
 29  5  1  0
 27 18  1  0
 25 22  1  0
  1 30  1  0
  1 31  1  0
  1 32  1  0
  3 33  1  0
  4 34  1  0
  7 35  1  0
  8 36  1  0
  8 37  1  0
 11 38  1  0
 12 39  1  0
 13 40  1  0
 17 41  1  0
 19 42  1  0
 20 43  1  0
 22 44  1  0
 23 45  1  0
 23 46  1  0
 24 47  1  0
 24 48  1  0
 25 49  1  0
 25 50  1  0
 26 51  1  0
 27 52  1  0
 28 53  1  0
M  END
>  <smiles>  (9) 
Cc1ccc2c(c1)CC(c1cccc(C(=O)Nc3ccc(C4CCC4)cc3)c1)=N2

>  <score_type>  (9) 
oracle

>  <origin>  (9) 
autodockgpu

>  <m_score__min__energy>  (9) 
-8.8800000000000008

>  <m_primary>  (9) 
energy

>  <rmsd>  (9) 
9.485003432276326

>  <m_score__min__rmsd>  (9) 
9.485003432276326

>  <meeko>  (9) 
{"free_energy": -8.83, "intermolecular_energy": -10.02, "internal_energy": -0.95, "cluster_size": 35, "cluster_id": 1, "rank_in_cluster": 20}

>  <energy>  (9) 
-8.86

>  <cluster_rmsd>  (9) 
0.11

>  <cluster>  (9) 
1

$$$$

     RDKit          3D

 53 57  0  0  0  0  0  0  0  0999 V2000
  141.1130   68.1360  229.0680 C   0  0  0  0  0  0  0  0  0  0  0  0
  140.6930   68.4970  227.6750 C   0  0  0  0  0  0  0  0  0  0  0  0
  139.9120   67.6130  226.9540 C   0  0  0  0  0  0  0  0  0  0  0  0
  139.5010   67.9030  225.6690 C   0  0  0  0  0  0  0  0  0  0  0  0
  139.8800   69.1100  225.0850 C   0  0  0  0  0  0  0  0  0  0  0  0
  140.6580   69.9770  225.8200 C   0  0  0  0  0  0  0  0  0  0  0  0
  141.0750   69.6990  227.1040 C   0  0  0  0  0  0  0  0  0  0  0  0
  140.9020   71.1710  224.9460 C   0  0  0  0  0  0  0  0  0  0  0  0
  140.1840   70.8390  223.7060 C   0  0  0  0  0  0  0  0  0  0  0  0
  140.0740   71.6400  222.4930 C   0  0  0  0  0  0  0  0  0  0  0  0
  139.9690   70.9910  221.2650 C   0  0  0  0  0  0  0  0  0  0  0  0
  139.8640   71.7580  220.1190 C   0  0  0  0  0  0  0  0  0  0  0  0
  139.8640   73.1310  220.1990 C   0  0  0  0  0  0  0  0  0  0  0  0
  139.9670   73.7820  221.4110 C   0  0  0  0  0  0  0  0  0  0  0  0
  139.9720   75.2360  221.5400 C   0  0  0  0  0  0  0  0  0  0  0  0
  138.9060   75.9180  221.3650 O   0  0  0  0  0  0  0  0  0  0  0  0
  141.1320   75.9850  221.8620 N   0  0  0  0  0  0  0  0  0  0  0  0
  141.1070   77.3940  221.9810 C   0  0  0  0  0  0  0  0  0  0  0  0
  141.3900   78.0750  223.1460 C   0  0  0  0  0  0  0  0  0  0  0  0
  141.3550   79.4510  223.2220 C   0  0  0  0  0  0  0  0  0  0  0  0
  141.0310   80.2240  222.1270 C   0  0  0  0  0  0  0  0  0  0  0  0
  140.9810   81.7110  222.1640 C   0  0  0  0  0  0  0  0  0  0  0  0
  139.6180   82.3150  221.9760 C   0  0  0  0  0  0  0  0  0  0  0  0
  140.0530   82.8210  220.6330 C   0  0  0  0  0  0  0  0  0  0  0  0
  141.4650   82.4470  220.9750 C   0  0  0  0  0  0  0  0  0  0  0  0
  140.7470   79.5310  220.9560 C   0  0  0  0  0  0  0  0  0  0  0  0
  140.7820   78.1540  220.8780 C   0  0  0  0  0  0  0  0  0  0  0  0
  140.0710   73.0220  222.5410 C   0  0  0  0  0  0  0  0  0  0  0  0
  139.6210   69.6730  223.8190 N   0  0  0  0  0  0  0  0  0  0  0  0
  140.4849   68.6759  229.7919 H   0  0  0  0  0  0  0  0  0  0  0  0
  140.9957   67.0525  229.2171 H   0  0  0  0  0  0  0  0  0  0  0  0
  142.1666   68.4147  229.2171 H   0  0  0  0  0  0  0  0  0  0  0  0
  139.6123   66.6597  227.4137 H   0  0  0  0  0  0  0  0  0  0  0  0
  138.8796   67.1875  225.1106 H   0  0  0  0  0  0  0  0  0  0  0  0
  141.6965   70.4151  227.6617 H   0  0  0  0  0  0  0  0  0  0  0  0
  140.4943   72.0841  225.4044 H   0  0  0  0  0  0  0  0  0  0  0  0
  141.9711   71.3718  224.7823 H   0  0  0  0  0  0  0  0  0  0  0  0
  139.9696   69.8925  221.2080 H   0  0  0  0  0  0  0  0  0  0  0  0
  139.7800   71.2672  219.1381 H   0  0  0  0  0  0  0  0  0  0  0  0
  139.7800   73.7234  219.2759 H   0  0  0  0  0  0  0  0  0  0  0  0
  142.0330   75.5040  222.0190 H   0  0  0  0  0  0  0  0  0  0  0  0
  141.6529   77.5002  224.0463 H   0  0  0  0  0  0  0  0  0  0  0  0
  141.5907   79.9432  224.1771 H   0  0  0  0  0  0  0  0  0  0  0  0
  141.5257   81.8105  223.1145 H   0  0  0  0  0  0  0  0  0  0  0  0
  138.7991   81.5815  221.9397 H   0  0  0  0  0  0  0  0  0  0  0  0
  139.1950   82.9985  222.7269 H   0  0  0  0  0  0  0  0  0  0  0  0
  139.6313   82.2660  219.7820 H   0  0  0  0  0  0  0  0  0  0  0  0
  139.8027   83.8410  220.3059 H   0  0  0  0  0  0  0  0  0  0  0  0
  141.9563   81.8122  220.2229 H   0  0  0  0  0  0  0  0  0  0  0  0
  142.2378   83.2232  221.0767 H   0  0  0  0  0  0  0  0  0  0  0  0
  140.4836   80.1039  220.0547 H   0  0  0  0  0  0  0  0  0  0  0  0
  140.5479   77.6571  219.9250 H   0  0  0  0  0  0  0  0  0  0  0  0
  140.1547   73.5232  223.5166 H   0  0  0  0  0  0  0  0  0  0  0  0
  1  2  1  0
  2  3  2  0
  3  4  1  0
  4  5  2  0
  5  6  1  0
  6  7  2  0
  6  8  1  0
  8  9  1  0
  9 10  1  0
 10 11  2  0
 11 12  1  0
 12 13  2  0
 13 14  1  0
 14 15  1  0
 15 16  2  0
 15 17  1  0
 17 18  1  0
 18 19  2  0
 19 20  1  0
 20 21  2  0
 21 22  1  0
 22 23  1  0
 23 24  1  0
 24 25  1  0
 21 26  1  0
 26 27  2  0
 14 28  2  0
  9 29  2  0
  7  2  1  0
 28 10  1  0
 29  5  1  0
 27 18  1  0
 25 22  1  0
  1 30  1  0
  1 31  1  0
  1 32  1  0
  3 33  1  0
  4 34  1  0
  7 35  1  0
  8 36  1  0
  8 37  1  0
 11 38  1  0
 12 39  1  0
 13 40  1  0
 17 41  1  0
 19 42  1  0
 20 43  1  0
 22 44  1  0
 23 45  1  0
 23 46  1  0
 24 47  1  0
 24 48  1  0
 25 49  1  0
 25 50  1  0
 26 51  1  0
 27 52  1  0
 28 53  1  0
M  END
>  <smiles>  (10) 
Cc1ccc2c(c1)CC(c1cccc(C(=O)Nc3ccc(C4CCC4)cc3)c1)=N2

>  <score_type>  (10) 
oracle

>  <origin>  (10) 
autodockgpu

>  <m_score__min__energy>  (10) 
-8.8800000000000008

>  <m_primary>  (10) 
energy

>  <rmsd>  (10) 
4.118956544363865

>  <m_score__min__rmsd>  (10) 
4.118956544363865

>  <meeko>  (10) 
{"free_energy": -8.7, "intermolecular_energy": -9.9, "internal_energy": -0.93, "cluster_size": 15, "cluster_id": 2, "rank_in_cluster": 2}

>  <energy>  (10) 
-8.86

>  <cluster_rmsd>  (10) 
0.09

>  <cluster>  (10) 
1

$$$$

     RDKit          3D

 53 57  0  0  0  0  0  0  0  0999 V2000
  141.0200   68.1430  229.0740 C   0  0  0  0  0  0  0  0  0  0  0  0
  140.6070   68.5110  227.6800 C   0  0  0  0  0  0  0  0  0  0  0  0
  139.7630   67.6700  226.9800 C   0  0  0  0  0  0  0  0  0  0  0  0
  139.3560   67.9680  225.6960 C   0  0  0  0  0  0  0  0  0  0  0  0
  139.8040   69.1390  225.0910 C   0  0  0  0  0  0  0  0  0  0  0  0
  140.6440   69.9650  225.8040 C   0  0  0  0  0  0  0  0  0  0  0  0
  141.0580   69.6790  227.0880 C   0  0  0  0  0  0  0  0  0  0  0  0
  140.9540   71.1290  224.9110 C   0  0  0  0  0  0  0  0  0  0  0  0
  140.2020   70.8260  223.6830 C   0  0  0  0  0  0  0  0  0  0  0  0
  140.1290   71.6150  222.4600 C   0  0  0  0  0  0  0  0  0  0  0  0
  140.0480   70.9550  221.2360 C   0  0  0  0  0  0  0  0  0  0  0  0
  139.9780   71.7110  220.0800 C   0  0  0  0  0  0  0  0  0  0  0  0
  139.9890   73.0850  220.1470 C   0  0  0  0  0  0  0  0  0  0  0  0
  140.0680   73.7470  221.3540 C   0  0  0  0  0  0  0  0  0  0  0  0
  140.0820   75.2020  221.4690 C   0  0  0  0  0  0  0  0  0  0  0  0
  138.9990   75.8790  221.4230 O   0  0  0  0  0  0  0  0  0  0  0  0
  141.2700   75.9580  221.6370 N   0  0  0  0  0  0  0  0  0  0  0  0
  141.2540   77.3680  221.7450 C   0  0  0  0  0  0  0  0  0  0  0  0
  141.0240   78.0490  222.9210 C   0  0  0  0  0  0  0  0  0  0  0  0
  141.0160   79.4260  222.9860 C   0  0  0  0  0  0  0  0  0  0  0  0
  141.2390   80.2000  221.8670 C   0  0  0  0  0  0  0  0  0  0  0  0
  141.2400   81.6880  221.8920 C   0  0  0  0  0  0  0  0  0  0  0  0
  139.8870   82.3320  221.9970 C   0  0  0  0  0  0  0  0  0  0  0  0
  140.0310   82.8130  220.5830 C   0  0  0  0  0  0  0  0  0  0  0  0
  141.4730   82.3990  220.6150 C   0  0  0  0  0  0  0  0  0  0  0  0
  141.4720   79.5070  220.6860 C   0  0  0  0  0  0  0  0  0  0  0  0
  141.4800   78.1300  220.6180 C   0  0  0  0  0  0  0  0  0  0  0  0
  140.1370   72.9980  222.4940 C   0  0  0  0  0  0  0  0  0  0  0  0
  139.5670   69.7000  223.8190 N   0  0  0  0  0  0  0  0  0  0  0  0
  140.4013   68.6943  229.7973 H   0  0  0  0  0  0  0  0  0  0  0  0
  140.8833   67.0618  229.2236 H   0  0  0  0  0  0  0  0  0  0  0  0
  142.0783   68.4030  229.2236 H   0  0  0  0  0  0  0  0  0  0  0  0
  139.4085   66.7440  227.4563 H   0  0  0  0  0  0  0  0  0  0  0  0
  138.6833   67.2863  225.1549 H   0  0  0  0  0  0  0  0  0  0  0  0
  141.7299   70.3618  227.6287 H   0  0  0  0  0  0  0  0  0  0  0  0
  140.6104   72.0724  225.3604 H   0  0  0  0  0  0  0  0  0  0  0  0
  142.0318   71.2593  224.7336 H   0  0  0  0  0  0  0  0  0  0  0  0
  140.0399   69.8560  221.1898 H   0  0  0  0  0  0  0  0  0  0  0  0
  139.9132   71.2112  219.1022 H   0  0  0  0  0  0  0  0  0  0  0  0
  139.9335   73.6689  219.2164 H   0  0  0  0  0  0  0  0  0  0  0  0
  142.1860   75.4820  221.6830 H   0  0  0  0  0  0  0  0  0  0  0  0
  140.8403   77.4734  223.8402 H   0  0  0  0  0  0  0  0  0  0  0  0
  140.8276   79.9180  223.9516 H   0  0  0  0  0  0  0  0  0  0  0  0
  141.9817   81.7785  222.6993 H   0  0  0  0  0  0  0  0  0  0  0  0
  139.0597   81.6238  222.1519 H   0  0  0  0  0  0  0  0  0  0  0  0
  139.6583   83.0349  222.8116 H   0  0  0  0  0  0  0  0  0  0  0  0
  139.4183   82.2634  219.8532 H   0  0  0  0  0  0  0  0  0  0  0  0
  139.7433   83.8370  220.3025 H   0  0  0  0  0  0  0  0  0  0  0  0
  141.7706   81.7431  219.7836 H   0  0  0  0  0  0  0  0  0  0  0  0
  142.2706   83.1522  220.5345 H   0  0  0  0  0  0  0  0  0  0  0  0
  141.6580   80.0810  219.7663 H   0  0  0  0  0  0  0  0  0  0  0  0
  141.6686   77.6339  219.6545 H   0  0  0  0  0  0  0  0  0  0  0  0
  140.2007   73.5086  223.4662 H   0  0  0  0  0  0  0  0  0  0  0  0
  1  2  1  0
  2  3  2  0
  3  4  1  0
  4  5  2  0
  5  6  1  0
  6  7  2  0
  6  8  1  0
  8  9  1  0
  9 10  1  0
 10 11  2  0
 11 12  1  0
 12 13  2  0
 13 14  1  0
 14 15  1  0
 15 16  2  0
 15 17  1  0
 17 18  1  0
 18 19  2  0
 19 20  1  0
 20 21  2  0
 21 22  1  0
 22 23  1  0
 23 24  1  0
 24 25  1  0
 21 26  1  0
 26 27  2  0
 14 28  2  0
  9 29  2  0
  7  2  1  0
 28 10  1  0
 29  5  1  0
 27 18  1  0
 25 22  1  0
  1 30  1  0
  1 31  1  0
  1 32  1  0
  3 33  1  0
  4 34  1  0
  7 35  1  0
  8 36  1  0
  8 37  1  0
 11 38  1  0
 12 39  1  0
 13 40  1  0
 17 41  1  0
 19 42  1  0
 20 43  1  0
 22 44  1  0
 23 45  1  0
 23 46  1  0
 24 47  1  0
 24 48  1  0
 25 49  1  0
 25 50  1  0
 26 51  1  0
 27 52  1  0
 28 53  1  0
M  END
>  <smiles>  (11) 
Cc1ccc2c(c1)CC(c1cccc(C(=O)Nc3ccc(C4CCC4)cc3)c1)=N2

>  <score_type>  (11) 
oracle

>  <origin>  (11) 
autodockgpu

>  <m_score__min__energy>  (11) 
-8.8800000000000008

>  <m_primary>  (11) 
energy

>  <rmsd>  (11) 
4.09558711948618

>  <m_score__min__rmsd>  (11) 
4.09558711948618

>  <meeko>  (11) 
{"free_energy": -8.66, "intermolecular_energy": -9.85, "internal_energy": -0.96, "cluster_size": 15, "cluster_id": 2, "rank_in_cluster": 9}

>  <energy>  (11) 
-8.85

>  <cluster_rmsd>  (11) 
0.15

>  <cluster>  (11) 
1

$$$$

     RDKit          3D

 53 57  0  0  0  0  0  0  0  0999 V2000
  141.0900   83.3350  221.5900 C   0  0  0  0  0  0  0  0  0  0  0  0
  141.1890   81.8460  221.7420 C   0  0  0  0  0  0  0  0  0  0  0  0
  141.4570   81.3100  222.9870 C   0  0  0  0  0  0  0  0  0  0  0  0
  141.5570   79.9460  223.1740 C   0  0  0  0  0  0  0  0  0  0  0  0
  141.3860   79.0920  222.0870 C   0  0  0  0  0  0  0  0  0  0  0  0
  141.1190   79.6460  220.8550 C   0  0  0  0  0  0  0  0  0  0  0  0
  141.0170   81.0060  220.6540 C   0  0  0  0  0  0  0  0  0  0  0  0
  140.9860   78.5010  219.8950 C   0  0  0  0  0  0  0  0  0  0  0  0
  141.2070   77.3190  220.7430 C   0  0  0  0  0  0  0  0  0  0  0  0
  141.1960   75.9170  220.3440 C   0  0  0  0  0  0  0  0  0  0  0  0
  141.2530   75.6010  218.9890 C   0  0  0  0  0  0  0  0  0  0  0  0
  141.2430   74.2680  218.6200 C   0  0  0  0  0  0  0  0  0  0  0  0
  141.1770   73.2830  219.5760 C   0  0  0  0  0  0  0  0  0  0  0  0
  141.1200   73.5860  220.9210 C   0  0  0  0  0  0  0  0  0  0  0  0
  141.0490   72.5710  221.9680 C   0  0  0  0  0  0  0  0  0  0  0  0
  141.8310   71.5610  221.9620 O   0  0  0  0  0  0  0  0  0  0  0  0
  140.1270   72.6270  223.0440 N   0  0  0  0  0  0  0  0  0  0  0  0
  140.0800   71.6280  224.0450 C   0  0  0  0  0  0  0  0  0  0  0  0
  140.7280   71.7210  225.2590 C   0  0  0  0  0  0  0  0  0  0  0  0
  140.6580   70.7250  226.2090 C   0  0  0  0  0  0  0  0  0  0  0  0
  139.9310   69.5740  225.9930 C   0  0  0  0  0  0  0  0  0  0  0  0
  139.8280   68.4740  226.9900 C   0  0  0  0  0  0  0  0  0  0  0  0
  139.6970   68.9120  228.4210 C   0  0  0  0  0  0  0  0  0  0  0  0
  141.0820   68.3990  228.6810 C   0  0  0  0  0  0  0  0  0  0  0  0
  141.0650   67.7380  227.3340 C   0  0  0  0  0  0  0  0  0  0  0  0
  139.2800   69.4880  224.7680 C   0  0  0  0  0  0  0  0  0  0  0  0
  139.3490   70.4820  223.8150 C   0  0  0  0  0  0  0  0  0  0  0  0
  141.1300   74.9030  221.2830 C   0  0  0  0  0  0  0  0  0  0  0  0
  141.4280   77.6880  221.9690 N   0  0  0  0  0  0  0  0  0  0  0  0
  141.0588   83.8038  222.5846 H   0  0  0  0  0  0  0  0  0  0  0  0
  141.9654   83.7061  221.0370 H   0  0  0  0  0  0  0  0  0  0  0  0
  140.1731   83.5870  221.0370 H   0  0  0  0  0  0  0  0  0  0  0  0
  141.5933   81.9834  223.8460 H   0  0  0  0  0  0  0  0  0  0  0  0
  141.7699   79.5371  224.1727 H   0  0  0  0  0  0  0  0  0  0  0  0
  140.8044   81.4139  219.6548 H   0  0  0  0  0  0  0  0  0  0  0  0
  139.9830   78.4799  219.4437 H   0  0  0  0  0  0  0  0  0  0  0  0
  141.6898   78.5629  219.0519 H   0  0  0  0  0  0  0  0  0  0  0  0
  141.3049   76.3942  218.2287 H   0  0  0  0  0  0  0  0  0  0  0  0
  141.2881   73.9948  217.5554 H   0  0  0  0  0  0  0  0  0  0  0  0
  141.1694   72.2288  219.2618 H   0  0  0  0  0  0  0  0  0  0  0  0
  139.4620   73.4140  223.1170 H   0  0  0  0  0  0  0  0  0  0  0  0
  141.3213   72.6214  225.4765 H   0  0  0  0  0  0  0  0  0  0  0  0
  141.1944   70.8514  227.1610 H   0  0  0  0  0  0  0  0  0  0  0  0
  139.0131   67.9425  226.4768 H   0  0  0  0  0  0  0  0  0  0  0  0
  139.5846   69.9982  228.5532 H   0  0  0  0  0  0  0  0  0  0  0  0
  138.8478   68.5813  229.0370 H   0  0  0  0  0  0  0  0  0  0  0  0
  141.8431   69.1858  228.7894 H   0  0  0  0  0  0  0  0  0  0  0  0
  141.3091   67.8225  229.5899 H   0  0  0  0  0  0  0  0  0  0  0  0
  141.9280   67.9886  226.6996 H   0  0  0  0  0  0  0  0  0  0  0  0
  141.1026   66.6418  227.2507 H   0  0  0  0  0  0  0  0  0  0  0  0
  138.6847   68.5891  224.5497 H   0  0  0  0  0  0  0  0  0  0  0  0
  138.8151   70.3593  222.8611 H   0  0  0  0  0  0  0  0  0  0  0  0
  141.0843   75.1647  222.3505 H   0  0  0  0  0  0  0  0  0  0  0  0
  1  2  1  0
  2  3  2  0
  3  4  1  0
  4  5  2  0
  5  6  1  0
  6  7  2  0
  6  8  1  0
  8  9  1  0
  9 10  1  0
 10 11  2  0
 11 12  1  0
 12 13  2  0
 13 14  1  0
 14 15  1  0
 15 16  2  0
 15 17  1  0
 17 18  1  0
 18 19  2  0
 19 20  1  0
 20 21  2  0
 21 22  1  0
 22 23  1  0
 23 24  1  0
 24 25  1  0
 21 26  1  0
 26 27  2  0
 14 28  2  0
  9 29  2  0
  7  2  1  0
 28 10  1  0
 29  5  1  0
 27 18  1  0
 25 22  1  0
  1 30  1  0
  1 31  1  0
  1 32  1  0
  3 33  1  0
  4 34  1  0
  7 35  1  0
  8 36  1  0
  8 37  1  0
 11 38  1  0
 12 39  1  0
 13 40  1  0
 17 41  1  0
 19 42  1  0
 20 43  1  0
 22 44  1  0
 23 45  1  0
 23 46  1  0
 24 47  1  0
 24 48  1  0
 25 49  1  0
 25 50  1  0
 26 51  1  0
 27 52  1  0
 28 53  1  0
M  END
>  <smiles>  (12) 
Cc1ccc2c(c1)CC(c1cccc(C(=O)Nc3ccc(C4CCC4)cc3)c1)=N2

>  <score_type>  (12) 
oracle

>  <origin>  (12) 
autodockgpu

>  <m_score__min__energy>  (12) 
-8.8800000000000008

>  <m_primary>  (12) 
energy

>  <rmsd>  (12) 
9.498226801226245

>  <m_score__min__rmsd>  (12) 
9.498226801226245

>  <meeko>  (12) 
{"free_energy": -8.85, "intermolecular_energy": -10.04, "internal_energy": -0.95, "cluster_size": 35, "cluster_id": 1, "rank_in_cluster": 12}

>  <energy>  (12) 
-8.85

>  <cluster_rmsd>  (12) 
0.26

>  <cluster>  (12) 
1

$$$$

     RDKit          3D

 53 57  0  0  0  0  0  0  0  0999 V2000
  141.0190   68.1340  229.0520 C   0  0  0  0  0  0  0  0  0  0  0  0
  140.6120   68.5120  227.6590 C   0  0  0  0  0  0  0  0  0  0  0  0
  139.7500   67.6870  226.9600 C   0  0  0  0  0  0  0  0  0  0  0  0
  139.3480   67.9940  225.6760 C   0  0  0  0  0  0  0  0  0  0  0  0
  139.8190   69.1570  225.0710 C   0  0  0  0  0  0  0  0  0  0  0  0
  140.6760   69.9660  225.7840 C   0  0  0  0  0  0  0  0  0  0  0  0
  141.0850   69.6700  227.0670 C   0  0  0  0  0  0  0  0  0  0  0  0
  141.0080   71.1240  224.8910 C   0  0  0  0  0  0  0  0  0  0  0  0
  140.2490   70.8370  223.6640 C   0  0  0  0  0  0  0  0  0  0  0  0
  140.1900   71.6280  222.4410 C   0  0  0  0  0  0  0  0  0  0  0  0
  140.1660   70.9700  221.2140 C   0  0  0  0  0  0  0  0  0  0  0  0
  140.1100   71.7290  220.0590 C   0  0  0  0  0  0  0  0  0  0  0  0
  140.0780   73.1020  220.1300 C   0  0  0  0  0  0  0  0  0  0  0  0
  140.1000   73.7620  221.3410 C   0  0  0  0  0  0  0  0  0  0  0  0
  140.0680   75.2160  221.4610 C   0  0  0  0  0  0  0  0  0  0  0  0
  138.9940   75.8730  221.2450 O   0  0  0  0  0  0  0  0  0  0  0  0
  141.2000   75.9930  221.8160 N   0  0  0  0  0  0  0  0  0  0  0  0
  141.1410   77.4010  221.9240 C   0  0  0  0  0  0  0  0  0  0  0  0
  140.6640   78.0710  223.0310 C   0  0  0  0  0  0  0  0  0  0  0  0
  140.6210   79.4470  223.0980 C   0  0  0  0  0  0  0  0  0  0  0  0
  141.0570   80.2320  222.0510 C   0  0  0  0  0  0  0  0  0  0  0  0
  141.0290   81.7200  222.0810 C   0  0  0  0  0  0  0  0  0  0  0  0
  139.6640   82.3410  221.9970 C   0  0  0  0  0  0  0  0  0  0  0  0
  139.9970   82.8320  220.6200 C   0  0  0  0  0  0  0  0  0  0  0  0
  141.4270   82.4410  220.8520 C   0  0  0  0  0  0  0  0  0  0  0  0
  141.5370   79.5510  220.9400 C   0  0  0  0  0  0  0  0  0  0  0  0
  141.5800   78.1740  220.8700 C   0  0  0  0  0  0  0  0  0  0  0  0
  140.1560   73.0100  222.4800 C   0  0  0  0  0  0  0  0  0  0  0  0
  139.5910   69.7240  223.8010 N   0  0  0  0  0  0  0  0  0  0  0  0
  140.4126   68.6972  229.7767 H   0  0  0  0  0  0  0  0  0  0  0  0
  140.8602   67.0557  229.2005 H   0  0  0  0  0  0  0  0  0  0  0  0
  142.0826   68.3719  229.2005 H   0  0  0  0  0  0  0  0  0  0  0  0
  139.3775   66.7683  227.4367 H   0  0  0  0  0  0  0  0  0  0  0  0
  138.6616   67.3261  225.1350 H   0  0  0  0  0  0  0  0  0  0  0  0
  141.7712   70.3386  227.6074 H   0  0  0  0  0  0  0  0  0  0  0  0
  140.6838   72.0738  225.3413 H   0  0  0  0  0  0  0  0  0  0  0  0
  142.0879   71.2327  224.7124 H   0  0  0  0  0  0  0  0  0  0  0  0
  140.1910   69.8714  221.1644 H   0  0  0  0  0  0  0  0  0  0  0  0
  140.0910   71.2315  219.0781 H   0  0  0  0  0  0  0  0  0  0  0  0
  140.0338   73.6873  219.1997 H   0  0  0  0  0  0  0  0  0  0  0  0
  142.1060   75.5330  222.0060 H   0  0  0  0  0  0  0  0  0  0  0  0
  140.3051   77.4865  223.8910 H   0  0  0  0  0  0  0  0  0  0  0  0
  140.2305   79.9296  224.0061 H   0  0  0  0  0  0  0  0  0  0  0  0
  141.6480   81.8185  222.9849 H   0  0  0  0  0  0  0  0  0  0  0  0
  138.8353   81.6185  222.0316 H   0  0  0  0  0  0  0  0  0  0  0  0
  139.3111   83.0354  222.7737 H   0  0  0  0  0  0  0  0  0  0  0  0
  139.5018   82.2770  219.8096 H   0  0  0  0  0  0  0  0  0  0  0  0
  139.7346   83.8530  220.3058 H   0  0  0  0  0  0  0  0  0  0  0  0
  141.8488   81.7944  220.0684 H   0  0  0  0  0  0  0  0  0  0  0  0
  142.2156   83.2071  220.8861 H   0  0  0  0  0  0  0  0  0  0  0  0
  141.8980   80.1340  220.0799 H   0  0  0  0  0  0  0  0  0  0  0  0
  141.9688   77.6873  219.9634 H   0  0  0  0  0  0  0  0  0  0  0  0
  140.1746   73.5179  223.4555 H   0  0  0  0  0  0  0  0  0  0  0  0
  1  2  1  0
  2  3  2  0
  3  4  1  0
  4  5  2  0
  5  6  1  0
  6  7  2  0
  6  8  1  0
  8  9  1  0
  9 10  1  0
 10 11  2  0
 11 12  1  0
 12 13  2  0
 13 14  1  0
 14 15  1  0
 15 16  2  0
 15 17  1  0
 17 18  1  0
 18 19  2  0
 19 20  1  0
 20 21  2  0
 21 22  1  0
 22 23  1  0
 23 24  1  0
 24 25  1  0
 21 26  1  0
 26 27  2  0
 14 28  2  0
  9 29  2  0
  7  2  1  0
 28 10  1  0
 29  5  1  0
 27 18  1  0
 25 22  1  0
  1 30  1  0
  1 31  1  0
  1 32  1  0
  3 33  1  0
  4 34  1  0
  7 35  1  0
  8 36  1  0
  8 37  1  0
 11 38  1  0
 12 39  1  0
 13 40  1  0
 17 41  1  0
 19 42  1  0
 20 43  1  0
 22 44  1  0
 23 45  1  0
 23 46  1  0
 24 47  1  0
 24 48  1  0
 25 49  1  0
 25 50  1  0
 26 51  1  0
 27 52  1  0
 28 53  1  0
M  END
>  <smiles>  (13) 
Cc1ccc2c(c1)CC(c1cccc(C(=O)Nc3ccc(C4CCC4)cc3)c1)=N2

>  <score_type>  (13) 
oracle

>  <origin>  (13) 
autodockgpu

>  <m_score__min__energy>  (13) 
-8.8800000000000008

>  <m_primary>  (13) 
energy

>  <rmsd>  (13) 
4.064531279183664

>  <m_score__min__rmsd>  (13) 
4.064531279183664

>  <meeko>  (13) 
{"free_energy": -8.63, "intermolecular_energy": -9.82, "internal_energy": -0.96, "cluster_size": 15, "cluster_id": 2, "rank_in_cluster": 13}

>  <energy>  (13) 
-8.84

>  <cluster_rmsd>  (13) 
0.25

>  <cluster>  (13) 
1

$$$$

     RDKit          3D

 53 57  0  0  0  0  0  0  0  0999 V2000
  141.1540   83.3330  221.5580 C   0  0  0  0  0  0  0  0  0  0  0  0
  141.2350   81.8440  221.7180 C   0  0  0  0  0  0  0  0  0  0  0  0
  141.3460   81.3060  222.9860 C   0  0  0  0  0  0  0  0  0  0  0  0
  141.4230   79.9430  223.1820 C   0  0  0  0  0  0  0  0  0  0  0  0
  141.3880   79.0900  222.0810 C   0  0  0  0  0  0  0  0  0  0  0  0
  141.2770   79.6450  220.8260 C   0  0  0  0  0  0  0  0  0  0  0  0
  141.1990   81.0060  220.6170 C   0  0  0  0  0  0  0  0  0  0  0  0
  141.2650   78.5020  219.8560 C   0  0  0  0  0  0  0  0  0  0  0  0
  141.3790   77.3180  220.7230 C   0  0  0  0  0  0  0  0  0  0  0  0
  141.4180   75.9170  220.3240 C   0  0  0  0  0  0  0  0  0  0  0  0
  141.6360   75.6040  218.9850 C   0  0  0  0  0  0  0  0  0  0  0  0
  141.6720   74.2710  218.6150 C   0  0  0  0  0  0  0  0  0  0  0  0
  141.4960   73.2840  219.5560 C   0  0  0  0  0  0  0  0  0  0  0  0
  141.2800   73.5850  220.8850 C   0  0  0  0  0  0  0  0  0  0  0  0
  141.0890   72.5680  221.9140 C   0  0  0  0  0  0  0  0  0  0  0  0
  141.8040   71.5100  221.9390 O   0  0  0  0  0  0  0  0  0  0  0  0
  140.1170   72.6740  222.9410 N   0  0  0  0  0  0  0  0  0  0  0  0
  139.9520   71.6730  223.9270 C   0  0  0  0  0  0  0  0  0  0  0  0
  139.0950   70.6010  223.8010 C   0  0  0  0  0  0  0  0  0  0  0  0
  138.9620   69.6450  224.7860 C   0  0  0  0  0  0  0  0  0  0  0  0
  139.6870   69.7130  225.9580 C   0  0  0  0  0  0  0  0  0  0  0  0
  139.5740   68.7040  227.0460 C   0  0  0  0  0  0  0  0  0  0  0  0
  139.7890   69.2290  228.4370 C   0  0  0  0  0  0  0  0  0  0  0  0
  141.0840   68.4760  228.4970 C   0  0  0  0  0  0  0  0  0  0  0  0
  140.7020   67.7640  227.2320 C   0  0  0  0  0  0  0  0  0  0  0  0
  140.5490   70.7960  226.0760 C   0  0  0  0  0  0  0  0  0  0  0  0
  140.6830   71.7540  225.0930 C   0  0  0  0  0  0  0  0  0  0  0  0
  141.2450   74.9020  221.2470 C   0  0  0  0  0  0  0  0  0  0  0  0
  141.4460   77.6860  221.9680 N   0  0  0  0  0  0  0  0  0  0  0  0
  141.1282   83.8075  222.5501 H   0  0  0  0  0  0  0  0  0  0  0  0
  142.0340   83.6906  221.0033 H   0  0  0  0  0  0  0  0  0  0  0  0
  140.2404   83.5930  221.0033 H   0  0  0  0  0  0  0  0  0  0  0  0
  141.3735   81.9782  223.8563 H   0  0  0  0  0  0  0  0  0  0  0  0
  141.5113   79.5329  224.1989 H   0  0  0  0  0  0  0  0  0  0  0  0
  141.1103   81.4156  219.6000 H   0  0  0  0  0  0  0  0  0  0  0  0
  140.3261   78.4816  219.2832 H   0  0  0  0  0  0  0  0  0  0  0  0
  142.0686   78.5653  219.1075 H   0  0  0  0  0  0  0  0  0  0  0  0
  141.7765   76.3988  218.2376 H   0  0  0  0  0  0  0  0  0  0  0  0
  141.8423   73.9996  217.5627 H   0  0  0  0  0  0  0  0  0  0  0  0
  141.5282   72.2303  219.2420 H   0  0  0  0  0  0  0  0  0  0  0  0
  139.4990   73.5020  222.9880 H   0  0  0  0  0  0  0  0  0  0  0  0
  138.4965   70.5046  222.8831 H   0  0  0  0  0  0  0  0  0  0  0  0
  138.2625   68.8098  224.6340 H   0  0  0  0  0  0  0  0  0  0  0  0
  138.5966   68.3131  226.7267 H   0  0  0  0  0  0  0  0  0  0  0  0
  139.8981   70.3220  228.4962 H   0  0  0  0  0  0  0  0  0  0  0  0
  139.0226   69.0964  229.2149 H   0  0  0  0  0  0  0  0  0  0  0  0
  141.9797   69.1083  228.4076 H   0  0  0  0  0  0  0  0  0  0  0  0
  141.3682   67.9127  229.3980 H   0  0  0  0  0  0  0  0  0  0  0  0
  141.4641   67.8143  226.4403 H   0  0  0  0  0  0  0  0  0  0  0  0
  140.5279   66.6779  227.2344 H   0  0  0  0  0  0  0  0  0  0  0  0
  141.1500   70.8936  226.9921 H   0  0  0  0  0  0  0  0  0  0  0  0
  141.3805   72.5916  225.2409 H   0  0  0  0  0  0  0  0  0  0  0  0
  141.0744   75.1621  222.3021 H   0  0  0  0  0  0  0  0  0  0  0  0
  1  2  1  0
  2  3  2  0
  3  4  1  0
  4  5  2  0
  5  6  1  0
  6  7  2  0
  6  8  1  0
  8  9  1  0
  9 10  1  0
 10 11  2  0
 11 12  1  0
 12 13  2  0
 13 14  1  0
 14 15  1  0
 15 16  2  0
 15 17  1  0
 17 18  1  0
 18 19  2  0
 19 20  1  0
 20 21  2  0
 21 22  1  0
 22 23  1  0
 23 24  1  0
 24 25  1  0
 21 26  1  0
 26 27  2  0
 14 28  2  0
  9 29  2  0
  7  2  1  0
 28 10  1  0
 29  5  1  0
 27 18  1  0
 25 22  1  0
  1 30  1  0
  1 31  1  0
  1 32  1  0
  3 33  1  0
  4 34  1  0
  7 35  1  0
  8 36  1  0
  8 37  1  0
 11 38  1  0
 12 39  1  0
 13 40  1  0
 17 41  1  0
 19 42  1  0
 20 43  1  0
 22 44  1  0
 23 45  1  0
 23 46  1  0
 24 47  1  0
 24 48  1  0
 25 49  1  0
 25 50  1  0
 26 51  1  0
 27 52  1  0
 28 53  1  0
M  END
>  <smiles>  (14) 
Cc1ccc2c(c1)CC(c1cccc(C(=O)Nc3ccc(C4CCC4)cc3)c1)=N2

>  <score_type>  (14) 
oracle

>  <origin>  (14) 
autodockgpu

>  <m_score__min__energy>  (14) 
-8.8800000000000008

>  <m_primary>  (14) 
energy

>  <rmsd>  (14) 
9.378130608242742

>  <m_score__min__rmsd>  (14) 
9.378130608242742

>  <meeko>  (14) 
{"free_energy": -8.87, "intermolecular_energy": -10.07, "internal_energy": -0.95, "cluster_size": 35, "cluster_id": 1, "rank_in_cluster": 7}

>  <energy>  (14) 
-8.84

>  <cluster_rmsd>  (14) 
0.26

>  <cluster>  (14) 
1

$$$$

     RDKit          3D

 53 57  0  0  0  0  0  0  0  0999 V2000
  141.1570   83.3190  221.5610 C   0  0  0  0  0  0  0  0  0  0  0  0
  141.2400   81.8290  221.7190 C   0  0  0  0  0  0  0  0  0  0  0  0
  141.3920   81.2900  222.9820 C   0  0  0  0  0  0  0  0  0  0  0  0
  141.4720   79.9260  223.1750 C   0  0  0  0  0  0  0  0  0  0  0  0
  141.3990   79.0740  222.0760 C   0  0  0  0  0  0  0  0  0  0  0  0
  141.2470   79.6310  220.8250 C   0  0  0  0  0  0  0  0  0  0  0  0
  141.1650   80.9910  220.6190 C   0  0  0  0  0  0  0  0  0  0  0  0
  141.1990   78.4870  219.8550 C   0  0  0  0  0  0  0  0  0  0  0  0
  141.3400   77.3030  220.7180 C   0  0  0  0  0  0  0  0  0  0  0  0
  141.3620   75.9020  220.3170 C   0  0  0  0  0  0  0  0  0  0  0  0
  141.5490   75.5880  218.9730 C   0  0  0  0  0  0  0  0  0  0  0  0
  141.5700   74.2560  218.6020 C   0  0  0  0  0  0  0  0  0  0  0  0
  141.4080   73.2690  219.5460 C   0  0  0  0  0  0  0  0  0  0  0  0
  141.2220   73.5700  220.8800 C   0  0  0  0  0  0  0  0  0  0  0  0
  141.0460   72.5540  221.9120 C   0  0  0  0  0  0  0  0  0  0  0  0
  141.7980   71.5220  221.9590 O   0  0  0  0  0  0  0  0  0  0  0  0
  140.0500   72.6320  222.9190 N   0  0  0  0  0  0  0  0  0  0  0  0
  139.9020   71.6320  223.9080 C   0  0  0  0  0  0  0  0  0  0  0  0
  138.9920   70.5990  223.8310 C   0  0  0  0  0  0  0  0  0  0  0  0
  138.8780   69.6430  224.8170 C   0  0  0  0  0  0  0  0  0  0  0  0
  139.6730   69.6710  225.9430 C   0  0  0  0  0  0  0  0  0  0  0  0
  139.5830   68.6600  227.0310 C   0  0  0  0  0  0  0  0  0  0  0  0
  139.7710   69.1930  228.4230 C   0  0  0  0  0  0  0  0  0  0  0  0
  141.0870   68.4780  228.4940 C   0  0  0  0  0  0  0  0  0  0  0  0
  140.7370   67.7540  227.2280 C   0  0  0  0  0  0  0  0  0  0  0  0
  140.5880   70.7150  226.0140 C   0  0  0  0  0  0  0  0  0  0  0  0
  140.7050   71.6730  225.0290 C   0  0  0  0  0  0  0  0  0  0  0  0
  141.2020   74.8870  221.2430 C   0  0  0  0  0  0  0  0  0  0  0  0
  141.4490   77.6700  221.9600 N   0  0  0  0  0  0  0  0  0  0  0  0
  141.1306   83.7921  222.5537 H   0  0  0  0  0  0  0  0  0  0  0  0
  142.0365   83.6785  221.0067 H   0  0  0  0  0  0  0  0  0  0  0  0
  140.2430   83.5786  221.0067 H   0  0  0  0  0  0  0  0  0  0  0  0
  141.4504   81.9617  223.8512 H   0  0  0  0  0  0  0  0  0  0  0  0
  141.5924   79.5153  224.1883 H   0  0  0  0  0  0  0  0  0  0  0  0
  141.0429   81.4010  219.6056 H   0  0  0  0  0  0  0  0  0  0  0  0
  140.2410   78.4687  219.3148 H   0  0  0  0  0  0  0  0  0  0  0  0
  141.9764   78.5484  219.0792 H   0  0  0  0  0  0  0  0  0  0  0  0
  141.6772   76.3823  218.2229 H   0  0  0  0  0  0  0  0  0  0  0  0
  141.7171   73.9844  217.5463 H   0  0  0  0  0  0  0  0  0  0  0  0
  141.4271   72.2154  219.2305 H   0  0  0  0  0  0  0  0  0  0  0  0
  139.4030   73.4370  222.9480 H   0  0  0  0  0  0  0  0  0  0  0  0
  138.3340   70.5357  222.9518 H   0  0  0  0  0  0  0  0  0  0  0  0
  138.1357   68.8392  224.7030 H   0  0  0  0  0  0  0  0  0  0  0  0
  138.6209   68.2391  226.7037 H   0  0  0  0  0  0  0  0  0  0  0  0
  139.8476   70.2888  228.4815 H   0  0  0  0  0  0  0  0  0  0  0  0
  139.0026   69.0392  229.1950 H   0  0  0  0  0  0  0  0  0  0  0  0
  141.9645   69.1362  228.4109 H   0  0  0  0  0  0  0  0  0  0  0  0
  141.3800   67.9241  229.3981 H   0  0  0  0  0  0  0  0  0  0  0  0
  141.5038   67.8258  226.4426 H   0  0  0  0  0  0  0  0  0  0  0  0
  140.5951   66.6632  227.2308 H   0  0  0  0  0  0  0  0  0  0  0  0
  141.2464   70.7797  226.8928 H   0  0  0  0  0  0  0  0  0  0  0  0
  141.4464   72.4783  225.1383 H   0  0  0  0  0  0  0  0  0  0  0  0
  141.0545   75.1475  222.3015 H   0  0  0  0  0  0  0  0  0  0  0  0
  1  2  1  0
  2  3  2  0
  3  4  1  0
  4  5  2  0
  5  6  1  0
  6  7  2  0
  6  8  1  0
  8  9  1  0
  9 10  1  0
 10 11  2  0
 11 12  1  0
 12 13  2  0
 13 14  1  0
 14 15  1  0
 15 16  2  0
 15 17  1  0
 17 18  1  0
 18 19  2  0
 19 20  1  0
 20 21  2  0
 21 22  1  0
 22 23  1  0
 23 24  1  0
 24 25  1  0
 21 26  1  0
 26 27  2  0
 14 28  2  0
  9 29  2  0
  7  2  1  0
 28 10  1  0
 29  5  1  0
 27 18  1  0
 25 22  1  0
  1 30  1  0
  1 31  1  0
  1 32  1  0
  3 33  1  0
  4 34  1  0
  7 35  1  0
  8 36  1  0
  8 37  1  0
 11 38  1  0
 12 39  1  0
 13 40  1  0
 17 41  1  0
 19 42  1  0
 20 43  1  0
 22 44  1  0
 23 45  1  0
 23 46  1  0
 24 47  1  0
 24 48  1  0
 25 49  1  0
 25 50  1  0
 26 51  1  0
 27 52  1  0
 28 53  1  0
M  END
>  <smiles>  (15) 
Cc1ccc2c(c1)CC(c1cccc(C(=O)Nc3ccc(C4CCC4)cc3)c1)=N2

>  <score_type>  (15) 
oracle

>  <origin>  (15) 
autodockgpu

>  <m_score__min__energy>  (15) 
-8.8800000000000008

>  <m_primary>  (15) 
energy

>  <rmsd>  (15) 
9.398474893227956

>  <m_score__min__rmsd>  (15) 
9.398474893227956

>  <meeko>  (15) 
{"free_energy": -8.88, "intermolecular_energy": -10.07, "internal_energy": -0.95, "cluster_size": 35, "cluster_id": 1, "rank_in_cluster": 3}

>  <energy>  (15) 
-8.84

>  <cluster_rmsd>  (15) 
0.26

>  <cluster>  (15) 
1

$$$$

     RDKit          3D

 53 57  0  0  0  0  0  0  0  0999 V2000
  141.0840   83.3380  221.5350 C   0  0  0  0  0  0  0  0  0  0  0  0
  141.1880   81.8500  221.6900 C   0  0  0  0  0  0  0  0  0  0  0  0
  141.5050   81.3200  222.9270 C   0  0  0  0  0  0  0  0  0  0  0  0
  141.6110   79.9570  223.1170 C   0  0  0  0  0  0  0  0  0  0  0  0
  141.3960   79.0980  222.0420 C   0  0  0  0  0  0  0  0  0  0  0  0
  141.0810   79.6460  220.8180 C   0  0  0  0  0  0  0  0  0  0  0  0
  140.9720   81.0050  220.6150 C   0  0  0  0  0  0  0  0  0  0  0  0
  140.9090   78.4960  219.8710 C   0  0  0  0  0  0  0  0  0  0  0  0
  141.1620   77.3170  220.7150 C   0  0  0  0  0  0  0  0  0  0  0  0
  141.1340   75.9130  220.3250 C   0  0  0  0  0  0  0  0  0  0  0  0
  141.1580   75.5900  218.9710 C   0  0  0  0  0  0  0  0  0  0  0  0
  141.1320   74.2550  218.6090 C   0  0  0  0  0  0  0  0  0  0  0  0
  141.0820   73.2750  219.5720 C   0  0  0  0  0  0  0  0  0  0  0  0
  141.0580   73.5860  220.9160 C   0  0  0  0  0  0  0  0  0  0  0  0
  141.0050   72.5770  221.9700 C   0  0  0  0  0  0  0  0  0  0  0  0
  141.8060   71.5830  221.9730 O   0  0  0  0  0  0  0  0  0  0  0  0
  140.0810   72.6230  223.0450 N   0  0  0  0  0  0  0  0  0  0  0  0
  140.0510   71.6310  224.0520 C   0  0  0  0  0  0  0  0  0  0  0  0
  140.9480   71.5660  225.0980 C   0  0  0  0  0  0  0  0  0  0  0  0
  140.8860   70.5820  226.0610 C   0  0  0  0  0  0  0  0  0  0  0  0
  139.9170   69.6020  226.0280 C   0  0  0  0  0  0  0  0  0  0  0  0
  139.8140   68.5220  227.0460 C   0  0  0  0  0  0  0  0  0  0  0  0
  139.7430   68.9850  228.4730 C   0  0  0  0  0  0  0  0  0  0  0  0
  141.1200   68.4340  228.6960 C   0  0  0  0  0  0  0  0  0  0  0  0
  141.0390   67.7530  227.3610 C   0  0  0  0  0  0  0  0  0  0  0  0
  139.0170   69.6730  224.9710 C   0  0  0  0  0  0  0  0  0  0  0  0
  139.0770   70.6570  224.0060 C   0  0  0  0  0  0  0  0  0  0  0  0
  141.0840   74.9050  221.2710 C   0  0  0  0  0  0  0  0  0  0  0  0
  141.4320   77.6930  221.9300 N   0  0  0  0  0  0  0  0  0  0  0  0
  141.0511   83.8087  222.5286 H   0  0  0  0  0  0  0  0  0  0  0  0
  141.9583   83.7110  220.9813 H   0  0  0  0  0  0  0  0  0  0  0  0
  140.1663   83.5857  220.9813 H   0  0  0  0  0  0  0  0  0  0  0  0
  141.6761   81.9978  223.7763 H   0  0  0  0  0  0  0  0  0  0  0  0
  141.8630   79.5528  224.1085 H   0  0  0  0  0  0  0  0  0  0  0  0
  140.7196   81.4082  219.6232 H   0  0  0  0  0  0  0  0  0  0  0  0
  139.8889   78.4740  219.4600 H   0  0  0  0  0  0  0  0  0  0  0  0
  141.5797   78.5527  219.0010 H   0  0  0  0  0  0  0  0  0  0  0  0
  141.1968   76.3791  218.2056 H   0  0  0  0  0  0  0  0  0  0  0  0
  141.1514   73.9761  217.5451 H   0  0  0  0  0  0  0  0  0  0  0  0
  141.0606   72.2192  219.2640 H   0  0  0  0  0  0  0  0  0  0  0  0
  139.4000   73.3970  223.1110 H   0  0  0  0  0  0  0  0  0  0  0  0
  141.7403   72.3260  225.1659 H   0  0  0  0  0  0  0  0  0  0  0  0
  141.6265   70.5785  226.8744 H   0  0  0  0  0  0  0  0  0  0  0  0
  138.9665   68.0085  226.5685 H   0  0  0  0  0  0  0  0  0  0  0  0
  139.6675   70.0760  228.5915 H   0  0  0  0  0  0  0  0  0  0  0  0
  138.9049   68.6895  229.1213 H   0  0  0  0  0  0  0  0  0  0  0  0
  141.9074   69.1988  228.7667 H   0  0  0  0  0  0  0  0  0  0  0  0
  141.3595   67.8648  229.6063 H   0  0  0  0  0  0  0  0  0  0  0  0
  141.8878   67.9671  226.6949 H   0  0  0  0  0  0  0  0  0  0  0  0
  141.0408   66.6550  227.2940 H   0  0  0  0  0  0  0  0  0  0  0  0
  138.2244   68.9134  224.9012 H   0  0  0  0  0  0  0  0  0  0  0  0
  138.3389   70.6643  223.1904 H   0  0  0  0  0  0  0  0  0  0  0  0
  141.0647   75.1726  222.3378 H   0  0  0  0  0  0  0  0  0  0  0  0
  1  2  1  0
  2  3  2  0
  3  4  1  0
  4  5  2  0
  5  6  1  0
  6  7  2  0
  6  8  1  0
  8  9  1  0
  9 10  1  0
 10 11  2  0
 11 12  1  0
 12 13  2  0
 13 14  1  0
 14 15  1  0
 15 16  2  0
 15 17  1  0
 17 18  1  0
 18 19  2  0
 19 20  1  0
 20 21  2  0
 21 22  1  0
 22 23  1  0
 23 24  1  0
 24 25  1  0
 21 26  1  0
 26 27  2  0
 14 28  2  0
  9 29  2  0
  7  2  1  0
 28 10  1  0
 29  5  1  0
 27 18  1  0
 25 22  1  0
  1 30  1  0
  1 31  1  0
  1 32  1  0
  3 33  1  0
  4 34  1  0
  7 35  1  0
  8 36  1  0
  8 37  1  0
 11 38  1  0
 12 39  1  0
 13 40  1  0
 17 41  1  0
 19 42  1  0
 20 43  1  0
 22 44  1  0
 23 45  1  0
 23 46  1  0
 24 47  1  0
 24 48  1  0
 25 49  1  0
 25 50  1  0
 26 51  1  0
 27 52  1  0
 28 53  1  0
M  END
>  <smiles>  (16) 
Cc1ccc2c(c1)CC(c1cccc(C(=O)Nc3ccc(C4CCC4)cc3)c1)=N2

>  <score_type>  (16) 
oracle

>  <origin>  (16) 
autodockgpu

>  <m_score__min__energy>  (16) 
-8.8800000000000008

>  <m_primary>  (16) 
energy

>  <rmsd>  (16) 
9.486892821863455

>  <m_score__min__rmsd>  (16) 
9.486892821863455

>  <meeko>  (16) 
{"free_energy": -8.81, "intermolecular_energy": -10.0, "internal_energy": -0.94, "cluster_size": 35, "cluster_id": 1, "rank_in_cluster": 28}

>  <energy>  (16) 
-8.83

>  <cluster_rmsd>  (16) 
0.26

>  <cluster>  (16) 
1

$$$$

     RDKit          3D

 53 57  0  0  0  0  0  0  0  0999 V2000
  141.1820   68.1290  229.0850 C   0  0  0  0  0  0  0  0  0  0  0  0
  140.6790   68.4700  227.7130 C   0  0  0  0  0  0  0  0  0  0  0  0
  139.8290   67.5920  227.0670 C   0  0  0  0  0  0  0  0  0  0  0  0
  139.3410   67.8640  225.8060 C   0  0  0  0  0  0  0  0  0  0  0  0
  139.7120   69.0460  225.1690 C   0  0  0  0  0  0  0  0  0  0  0  0
  140.5590   69.9070  225.8290 C   0  0  0  0  0  0  0  0  0  0  0  0
  141.0540   69.6470  227.0890 C   0  0  0  0  0  0  0  0  0  0  0  0
  140.7770   71.0740  224.9120 C   0  0  0  0  0  0  0  0  0  0  0  0
  139.9690   70.7330  223.7300 C   0  0  0  0  0  0  0  0  0  0  0  0
  139.8000   71.5090  222.5070 C   0  0  0  0  0  0  0  0  0  0  0  0
  139.4820   70.8430  221.3260 C   0  0  0  0  0  0  0  0  0  0  0  0
  139.3220   71.5860  220.1710 C   0  0  0  0  0  0  0  0  0  0  0  0
  139.4750   72.9530  220.1970 C   0  0  0  0  0  0  0  0  0  0  0  0
  139.7890   73.6210  221.3620 C   0  0  0  0  0  0  0  0  0  0  0  0
  139.9610   75.0680  221.4330 C   0  0  0  0  0  0  0  0  0  0  0  0
  140.4430   75.7250  220.4490 O   0  0  0  0  0  0  0  0  0  0  0  0
  139.6150   75.8380  222.5730 N   0  0  0  0  0  0  0  0  0  0  0  0
  139.7930   77.2410  222.6140 C   0  0  0  0  0  0  0  0  0  0  0  0
  138.7580   78.1510  222.5790 C   0  0  0  0  0  0  0  0  0  0  0  0
  138.9730   79.5120  222.6200 C   0  0  0  0  0  0  0  0  0  0  0  0
  140.2450   80.0380  222.7000 C   0  0  0  0  0  0  0  0  0  0  0  0
  140.5210   81.4990  222.7470 C   0  0  0  0  0  0  0  0  0  0  0  0
  139.7790   82.3300  221.7390 C   0  0  0  0  0  0  0  0  0  0  0  0
  141.0730   82.5730  221.0210 C   0  0  0  0  0  0  0  0  0  0  0  0
  141.8060   81.9760  222.1870 C   0  0  0  0  0  0  0  0  0  0  0  0
  141.2820   79.1150  222.7360 C   0  0  0  0  0  0  0  0  0  0  0  0
  141.0710   77.7530  222.6940 C   0  0  0  0  0  0  0  0  0  0  0  0
  139.9470   72.8840  222.5020 C   0  0  0  0  0  0  0  0  0  0  0  0
  139.3840   69.5870  223.9090 N   0  0  0  0  0  0  0  0  0  0  0  0
  140.5200   68.5778  229.8403 H   0  0  0  0  0  0  0  0  0  0  0  0
  141.1934   67.0362  229.2103 H   0  0  0  0  0  0  0  0  0  0  0  0
  142.2013   68.5230  229.2103 H   0  0  0  0  0  0  0  0  0  0  0  0
  139.5360   66.6579  227.5686 H   0  0  0  0  0  0  0  0  0  0  0  0
  138.6648   67.1538  225.3077 H   0  0  0  0  0  0  0  0  0  0  0  0
  141.7305   70.3577  227.5863 H   0  0  0  0  0  0  0  0  0  0  0  0
  140.4251   72.0085  225.3734 H   0  0  0  0  0  0  0  0  0  0  0  0
  141.8378   71.2414  224.6739 H   0  0  0  0  0  0  0  0  0  0  0  0
  139.3608   69.7498  221.3124 H   0  0  0  0  0  0  0  0  0  0  0  0
  139.0711   71.0815  219.2263 H   0  0  0  0  0  0  0  0  0  0  0  0
  139.3439   73.5263  219.2674 H   0  0  0  0  0  0  0  0  0  0  0  0
  139.2190   75.3780  223.4090 H   0  0  0  0  0  0  0  0  0  0  0  0
  137.7250   77.7782  222.5162 H   0  0  0  0  0  0  0  0  0  0  0  0
  138.1103   80.1938  222.5882 H   0  0  0  0  0  0  0  0  0  0  0  0
  140.3329   81.6056  223.8255 H   0  0  0  0  0  0  0  0  0  0  0  0
  139.0341   81.7719  221.1528 H   0  0  0  0  0  0  0  0  0  0  0  0
  139.1439   83.1697  222.0575 H   0  0  0  0  0  0  0  0  0  0  0  0
  141.1820   82.0105  220.0820 H   0  0  0  0  0  0  0  0  0  0  0  0
  141.3305   83.5743  220.6453 H   0  0  0  0  0  0  0  0  0  0  0  0
  142.5041   81.1708  221.9145 H   0  0  0  0  0  0  0  0  0  0  0  0
  142.4843   82.5931  222.7945 H   0  0  0  0  0  0  0  0  0  0  0  0
  142.3155   79.4861  222.8007 H   0  0  0  0  0  0  0  0  0  0  0  0
  141.9310   77.0678  222.7246 H   0  0  0  0  0  0  0  0  0  0  0  0
  140.1980   73.3986  223.4412 H   0  0  0  0  0  0  0  0  0  0  0  0
  1  2  1  0
  2  3  2  0
  3  4  1  0
  4  5  2  0
  5  6  1  0
  6  7  2  0
  6  8  1  0
  8  9  1  0
  9 10  1  0
 10 11  2  0
 11 12  1  0
 12 13  2  0
 13 14  1  0
 14 15  1  0
 15 16  2  0
 15 17  1  0
 17 18  1  0
 18 19  2  0
 19 20  1  0
 20 21  2  0
 21 22  1  0
 22 23  1  0
 23 24  1  0
 24 25  1  0
 21 26  1  0
 26 27  2  0
 14 28  2  0
  9 29  2  0
  7  2  1  0
 28 10  1  0
 29  5  1  0
 27 18  1  0
 25 22  1  0
  1 30  1  0
  1 31  1  0
  1 32  1  0
  3 33  1  0
  4 34  1  0
  7 35  1  0
  8 36  1  0
  8 37  1  0
 11 38  1  0
 12 39  1  0
 13 40  1  0
 17 41  1  0
 19 42  1  0
 20 43  1  0
 22 44  1  0
 23 45  1  0
 23 46  1  0
 24 47  1  0
 24 48  1  0
 25 49  1  0
 25 50  1  0
 26 51  1  0
 27 52  1  0
 28 53  1  0
M  END
>  <smiles>  (17) 
Cc1ccc2c(c1)CC(c1cccc(C(=O)Nc3ccc(C4CCC4)cc3)c1)=N2

>  <score_type>  (17) 
oracle

>  <origin>  (17) 
autodockgpu

>  <m_score__min__energy>  (17) 
-8.8800000000000008

>  <m_primary>  (17) 
energy

>  <rmsd>  (17) 
4.26519762370591

>  <m_score__min__rmsd>  (17) 
4.26519762370591

>  <meeko>  (17) 
{"free_energy": -8.63, "intermolecular_energy": -9.83, "internal_energy": -0.96, "cluster_size": 15, "cluster_id": 2, "rank_in_cluster": 12}

>  <energy>  (17) 
-8.83

>  <cluster_rmsd>  (17) 
0.25

>  <cluster>  (17) 
1

$$$$

     RDKit          3D

 53 57  0  0  0  0  0  0  0  0999 V2000
  140.5670   68.1470  228.9790 C   0  0  0  0  0  0  0  0  0  0  0  0
  140.6270   69.2120  227.9240 C   0  0  0  0  0  0  0  0  0  0  0  0
  141.0610   70.4790  228.2670 C   0  0  0  0  0  0  0  0  0  0  0  0
  141.1330   71.4890  227.3300 C   0  0  0  0  0  0  0  0  0  0  0  0
  140.7610   71.2300  226.0130 C   0  0  0  0  0  0  0  0  0  0  0  0
  140.3330   69.9610  225.6920 C   0  0  0  0  0  0  0  0  0  0  0  0
  140.2560   68.9430  226.6170 C   0  0  0  0  0  0  0  0  0  0  0  0
  140.0070   69.9820  224.2280 C   0  0  0  0  0  0  0  0  0  0  0  0
  140.3060   71.3670  223.8320 C   0  0  0  0  0  0  0  0  0  0  0  0
  140.1760   71.9690  222.5110 C   0  0  0  0  0  0  0  0  0  0  0  0
  139.9650   71.1400  221.4110 C   0  0  0  0  0  0  0  0  0  0  0  0
  139.8420   71.7200  220.1610 C   0  0  0  0  0  0  0  0  0  0  0  0
  139.9260   73.0850  220.0160 C   0  0  0  0  0  0  0  0  0  0  0  0
  140.1340   73.9130  221.0990 C   0  0  0  0  0  0  0  0  0  0  0  0
  140.2300   75.3650  220.9890 C   0  0  0  0  0  0  0  0  0  0  0  0
  139.4260   76.0260  220.2480 O   0  0  0  0  0  0  0  0  0  0  0  0
  141.2000   76.1360  221.6790 N   0  0  0  0  0  0  0  0  0  0  0  0
  141.2710   77.5420  221.5530 C   0  0  0  0  0  0  0  0  0  0  0  0
  141.0330   78.4220  222.5880 C   0  0  0  0  0  0  0  0  0  0  0  0
  141.1110   79.7890  222.4250 C   0  0  0  0  0  0  0  0  0  0  0  0
  141.4330   80.3510  221.2080 C   0  0  0  0  0  0  0  0  0  0  0  0
  141.5280   81.8200  220.9880 C   0  0  0  0  0  0  0  0  0  0  0  0
  140.4340   82.6380  221.6130 C   0  0  0  0  0  0  0  0  0  0  0  0
  139.9010   82.9300  220.2420 C   0  0  0  0  0  0  0  0  0  0  0  0
  141.1510   82.3430  219.6560 C   0  0  0  0  0  0  0  0  0  0  0  0
  141.6720   79.4590  220.1700 C   0  0  0  0  0  0  0  0  0  0  0  0
  141.5940   78.0910  220.3300 C   0  0  0  0  0  0  0  0  0  0  0  0
  140.2550   73.3380  222.3330 C   0  0  0  0  0  0  0  0  0  0  0  0
  140.7290   72.0400  224.8600 N   0  0  0  0  0  0  0  0  0  0  0  0
  140.5934   68.6149  229.9742 H   0  0  0  0  0  0  0  0  0  0  0  0
  139.6351   67.5732  228.8682 H   0  0  0  0  0  0  0  0  0  0  0  0
  141.4286   67.4721  228.8682 H   0  0  0  0  0  0  0  0  0  0  0  0
  141.3545   70.6857  229.3068 H   0  0  0  0  0  0  0  0  0  0  0  0
  141.4815   72.4910  227.6207 H   0  0  0  0  0  0  0  0  0  0  0  0
  139.9084   67.9411  226.3247 H   0  0  0  0  0  0  0  0  0  0  0  0
  140.6364   69.2697  223.6743 H   0  0  0  0  0  0  0  0  0  0  0  0
  138.9683   69.6892  224.0151 H   0  0  0  0  0  0  0  0  0  0  0  0
  139.8977   70.0489  221.5338 H   0  0  0  0  0  0  0  0  0  0  0  0
  139.6760   71.0856  219.2778 H   0  0  0  0  0  0  0  0  0  0  0  0
  139.8250   73.5263  219.0135 H   0  0  0  0  0  0  0  0  0  0  0  0
  141.8870   75.6720  222.2980 H   0  0  0  0  0  0  0  0  0  0  0  0
  140.7719   78.0194  223.5778 H   0  0  0  0  0  0  0  0  0  0  0  0
  140.9119   80.4455  223.2849 H   0  0  0  0  0  0  0  0  0  0  0  0
  142.5719   81.9087  221.3233 H   0  0  0  0  0  0  0  0  0  0  0  0
  139.7479   82.0630  222.2523 H   0  0  0  0  0  0  0  0  0  0  0  0
  140.6685   83.4534  222.3131 H   0  0  0  0  0  0  0  0  0  0  0  0
  138.9816   82.3822  219.9878 H   0  0  0  0  0  0  0  0  0  0  0  0
  139.5712   83.9432  219.9686 H   0  0  0  0  0  0  0  0  0  0  0  0
  140.9703   81.5630  218.9017 H   0  0  0  0  0  0  0  0  0  0  0  0
  141.8495   82.9742  219.0871 H   0  0  0  0  0  0  0  0  0  0  0  0
  141.9342   79.8601  219.1798 H   0  0  0  0  0  0  0  0  0  0  0  0
  141.7916   77.4309  219.4726 H   0  0  0  0  0  0  0  0  0  0  0  0
  140.4199   73.9823  223.2091 H   0  0  0  0  0  0  0  0  0  0  0  0
  1  2  1  0
  2  3  2  0
  3  4  1  0
  4  5  2  0
  5  6  1  0
  6  7  2  0
  6  8  1  0
  8  9  1  0
  9 10  1  0
 10 11  2  0
 11 12  1  0
 12 13  2  0
 13 14  1  0
 14 15  1  0
 15 16  2  0
 15 17  1  0
 17 18  1  0
 18 19  2  0
 19 20  1  0
 20 21  2  0
 21 22  1  0
 22 23  1  0
 23 24  1  0
 24 25  1  0
 21 26  1  0
 26 27  2  0
 14 28  2  0
  9 29  2  0
  7  2  1  0
 28 10  1  0
 29  5  1  0
 27 18  1  0
 25 22  1  0
  1 30  1  0
  1 31  1  0
  1 32  1  0
  3 33  1  0
  4 34  1  0
  7 35  1  0
  8 36  1  0
  8 37  1  0
 11 38  1  0
 12 39  1  0
 13 40  1  0
 17 41  1  0
 19 42  1  0
 20 43  1  0
 22 44  1  0
 23 45  1  0
 23 46  1  0
 24 47  1  0
 24 48  1  0
 25 49  1  0
 25 50  1  0
 26 51  1  0
 27 52  1  0
 28 53  1  0
M  END
>  <smiles>  (18) 
Cc1ccc2c(c1)CC(c1cccc(C(=O)Nc3ccc(C4CCC4)cc3)c1)=N2

>  <score_type>  (18) 
oracle

>  <origin>  (18) 
autodockgpu

>  <m_score__min__energy>  (18) 
-8.8800000000000008

>  <m_primary>  (18) 
energy

>  <rmsd>  (18) 
3.957204263798519

>  <m_score__min__rmsd>  (18) 
3.957204263798519

>  <meeko>  (18) 
{"free_energy": -8.52, "intermolecular_energy": -9.71, "internal_energy": -0.95, "cluster_size": 15, "cluster_id": 2, "rank_in_cluster": 15}

>  <energy>  (18) 
-8.83

>  <cluster_rmsd>  (18) 
0.26

>  <cluster>  (18) 
1

$$$$

     RDKit          3D

 53 57  0  0  0  0  0  0  0  0999 V2000
  141.1650   83.3460  221.5810 C   0  0  0  0  0  0  0  0  0  0  0  0
  141.2470   81.8560  221.7340 C   0  0  0  0  0  0  0  0  0  0  0  0
  141.5210   81.3170  222.9770 C   0  0  0  0  0  0  0  0  0  0  0  0
  141.6060   79.9530  223.1650 C   0  0  0  0  0  0  0  0  0  0  0  0
  141.4120   79.1000  222.0810 C   0  0  0  0  0  0  0  0  0  0  0  0
  141.1400   79.6550  220.8510 C   0  0  0  0  0  0  0  0  0  0  0  0
  141.0530   81.0160  220.6500 C   0  0  0  0  0  0  0  0  0  0  0  0
  140.9820   78.5110  219.8950 C   0  0  0  0  0  0  0  0  0  0  0  0
  141.1960   77.3270  220.7420 C   0  0  0  0  0  0  0  0  0  0  0  0
  141.1630   75.9250  220.3460 C   0  0  0  0  0  0  0  0  0  0  0  0
  141.1870   75.6070  218.9900 C   0  0  0  0  0  0  0  0  0  0  0  0
  141.1550   74.2740  218.6230 C   0  0  0  0  0  0  0  0  0  0  0  0
  141.1020   73.2900  219.5820 C   0  0  0  0  0  0  0  0  0  0  0  0
  141.0780   73.5950  220.9270 C   0  0  0  0  0  0  0  0  0  0  0  0
  141.0200   72.5820  221.9760 C   0  0  0  0  0  0  0  0  0  0  0  0
  141.8090   71.5770  221.9680 O   0  0  0  0  0  0  0  0  0  0  0  0
  140.1060   72.6340  223.0590 N   0  0  0  0  0  0  0  0  0  0  0  0
  140.0720   71.6380  224.0620 C   0  0  0  0  0  0  0  0  0  0  0  0
  140.9370   71.5940  225.1350 C   0  0  0  0  0  0  0  0  0  0  0  0
  140.8720   70.6050  226.0930 C   0  0  0  0  0  0  0  0  0  0  0  0
  139.9310   69.5990  226.0270 C   0  0  0  0  0  0  0  0  0  0  0  0
  139.8260   68.5120  227.0380 C   0  0  0  0  0  0  0  0  0  0  0  0
  139.7470   68.9670  228.4680 C   0  0  0  0  0  0  0  0  0  0  0  0
  141.1240   68.4180  228.6940 C   0  0  0  0  0  0  0  0  0  0  0  0
  141.0500   67.7450  227.3550 C   0  0  0  0  0  0  0  0  0  0  0  0
  139.0630   69.6500  224.9430 C   0  0  0  0  0  0  0  0  0  0  0  0
  139.1260   70.6380  223.9830 C   0  0  0  0  0  0  0  0  0  0  0  0
  141.1090   74.9130  221.2870 C   0  0  0  0  0  0  0  0  0  0  0  0
  141.4350   77.6950  221.9650 N   0  0  0  0  0  0  0  0  0  0  0  0
  141.1391   83.8158  222.5753 H   0  0  0  0  0  0  0  0  0  0  0  0
  142.0446   83.7068  221.0278 H   0  0  0  0  0  0  0  0  0  0  0  0
  140.2511   83.6080  221.0278 H   0  0  0  0  0  0  0  0  0  0  0  0
  141.6744   81.9895  223.8339 H   0  0  0  0  0  0  0  0  0  0  0  0
  141.8250   79.5427  224.1618 H   0  0  0  0  0  0  0  0  0  0  0  0
  140.8347   81.4251  219.6525 H   0  0  0  0  0  0  0  0  0  0  0  0
  139.9742   78.5027  219.4542 H   0  0  0  0  0  0  0  0  0  0  0  0
  141.6781   78.5624  219.0448 H   0  0  0  0  0  0  0  0  0  0  0  0
  141.2305   76.3989  218.2277 H   0  0  0  0  0  0  0  0  0  0  0  0
  141.1720   73.9994  217.5580 H   0  0  0  0  0  0  0  0  0  0  0  0
  141.0782   72.2356  219.2695 H   0  0  0  0  0  0  0  0  0  0  0  0
  139.4350   73.4170  223.1350 H   0  0  0  0  0  0  0  0  0  0  0  0
  141.7056   72.3752  225.2297 H   0  0  0  0  0  0  0  0  0  0  0  0
  141.5868   70.6185  226.9290 H   0  0  0  0  0  0  0  0  0  0  0  0
  138.9827   67.9989  226.5527 H   0  0  0  0  0  0  0  0  0  0  0  0
  139.6683   70.0571  228.5924 H   0  0  0  0  0  0  0  0  0  0  0  0
  138.9066   68.6660  229.1107 H   0  0  0  0  0  0  0  0  0  0  0  0
  141.9094   69.1842  228.7726 H   0  0  0  0  0  0  0  0  0  0  0  0
  141.3610   67.8441  229.6020 H   0  0  0  0  0  0  0  0  0  0  0  0
  141.9015   67.9647  226.6942 H   0  0  0  0  0  0  0  0  0  0  0  0
  141.0540   66.6474  227.2823 H   0  0  0  0  0  0  0  0  0  0  0  0
  138.2936   68.8698  224.8467 H   0  0  0  0  0  0  0  0  0  0  0  0
  138.4136   70.6282  223.1449 H   0  0  0  0  0  0  0  0  0  0  0  0
  141.0905   75.1762  222.3549 H   0  0  0  0  0  0  0  0  0  0  0  0
  1  2  1  0
  2  3  2  0
  3  4  1  0
  4  5  2  0
  5  6  1  0
  6  7  2  0
  6  8  1  0
  8  9  1  0
  9 10  1  0
 10 11  2  0
 11 12  1  0
 12 13  2  0
 13 14  1  0
 14 15  1  0
 15 16  2  0
 15 17  1  0
 17 18  1  0
 18 19  2  0
 19 20  1  0
 20 21  2  0
 21 22  1  0
 22 23  1  0
 23 24  1  0
 24 25  1  0
 21 26  1  0
 26 27  2  0
 14 28  2  0
  9 29  2  0
  7  2  1  0
 28 10  1  0
 29  5  1  0
 27 18  1  0
 25 22  1  0
  1 30  1  0
  1 31  1  0
  1 32  1  0
  3 33  1  0
  4 34  1  0
  7 35  1  0
  8 36  1  0
  8 37  1  0
 11 38  1  0
 12 39  1  0
 13 40  1  0
 17 41  1  0
 19 42  1  0
 20 43  1  0
 22 44  1  0
 23 45  1  0
 23 46  1  0
 24 47  1  0
 24 48  1  0
 25 49  1  0
 25 50  1  0
 26 51  1  0
 27 52  1  0
 28 53  1  0
M  END
>  <smiles>  (19) 
Cc1ccc2c(c1)CC(c1cccc(C(=O)Nc3ccc(C4CCC4)cc3)c1)=N2

>  <score_type>  (19) 
oracle

>  <origin>  (19) 
autodockgpu

>  <m_score__min__energy>  (19) 
-8.8800000000000008

>  <m_primary>  (19) 
energy

>  <rmsd>  (19) 
9.490952353061852

>  <m_score__min__rmsd>  (19) 
9.490952353061852

>  <meeko>  (19) 
{"free_energy": -8.81, "intermolecular_energy": -10.0, "internal_energy": -0.95, "cluster_size": 35, "cluster_id": 1, "rank_in_cluster": 27}

>  <energy>  (19) 
-8.83

>  <cluster_rmsd>  (19) 
0.22

>  <cluster>  (19) 
1

$$$$

     RDKit          3D

 53 57  0  0  0  0  0  0  0  0999 V2000
  141.0230   68.1380  229.0910 C   0  0  0  0  0  0  0  0  0  0  0  0
  140.6040   68.5130  227.7010 C   0  0  0  0  0  0  0  0  0  0  0  0
  139.7550   67.6760  227.0020 C   0  0  0  0  0  0  0  0  0  0  0  0
  139.3420   67.9800  225.7210 C   0  0  0  0  0  0  0  0  0  0  0  0
  139.7890   69.1540  225.1190 C   0  0  0  0  0  0  0  0  0  0  0  0
  140.6330   69.9750  225.8320 C   0  0  0  0  0  0  0  0  0  0  0  0
  141.0530   69.6830  227.1120 C   0  0  0  0  0  0  0  0  0  0  0  0
  140.9400   71.1430  224.9420 C   0  0  0  0  0  0  0  0  0  0  0  0
  140.1810   70.8460  223.7170 C   0  0  0  0  0  0  0  0  0  0  0  0
  140.1030   71.6410  222.4980 C   0  0  0  0  0  0  0  0  0  0  0  0
  140.0320   70.9860  221.2700 C   0  0  0  0  0  0  0  0  0  0  0  0
  139.9570   71.7480  220.1180 C   0  0  0  0  0  0  0  0  0  0  0  0
  139.9530   73.1210  220.1920 C   0  0  0  0  0  0  0  0  0  0  0  0
  140.0220   73.7780  221.4030 C   0  0  0  0  0  0  0  0  0  0  0  0
  140.0210   75.2330  221.5260 C   0  0  0  0  0  0  0  0  0  0  0  0
  138.9520   75.9090  221.3480 O   0  0  0  0  0  0  0  0  0  0  0  0
  141.1780   75.9880  221.8430 N   0  0  0  0  0  0  0  0  0  0  0  0
  141.1480   77.3980  221.9550 C   0  0  0  0  0  0  0  0  0  0  0  0
  141.0950   78.0750  223.1550 C   0  0  0  0  0  0  0  0  0  0  0  0
  141.0660   79.4520  223.2230 C   0  0  0  0  0  0  0  0  0  0  0  0
  141.0880   80.2290  222.0840 C   0  0  0  0  0  0  0  0  0  0  0  0
  141.0590   81.7170  222.1110 C   0  0  0  0  0  0  0  0  0  0  0  0
  139.6920   82.3360  222.0410 C   0  0  0  0  0  0  0  0  0  0  0  0
  140.0090   82.8250  220.6590 C   0  0  0  0  0  0  0  0  0  0  0  0
  141.4430   82.4360  220.8760 C   0  0  0  0  0  0  0  0  0  0  0  0
  141.1420   79.5390  220.8790 C   0  0  0  0  0  0  0  0  0  0  0  0
  141.1700   78.1620  220.8080 C   0  0  0  0  0  0  0  0  0  0  0  0
  140.0960   73.0230  222.5400 C   0  0  0  0  0  0  0  0  0  0  0  0
  139.5450   69.7210  223.8520 N   0  0  0  0  0  0  0  0  0  0  0  0
  140.4091   68.6875  229.8198 H   0  0  0  0  0  0  0  0  0  0  0  0
  140.8847   67.0565  229.2365 H   0  0  0  0  0  0  0  0  0  0  0  0
  142.0826   68.3950  229.2365 H   0  0  0  0  0  0  0  0  0  0  0  0
  139.4014   66.7487  227.4764 H   0  0  0  0  0  0  0  0  0  0  0  0
  138.6659   67.3015  225.1801 H   0  0  0  0  0  0  0  0  0  0  0  0
  141.7283   70.3628  227.6523 H   0  0  0  0  0  0  0  0  0  0  0  0
  140.6001   72.0849  225.3972 H   0  0  0  0  0  0  0  0  0  0  0  0
  142.0170   71.2728  224.7595 H   0  0  0  0  0  0  0  0  0  0  0  0
  140.0355   69.8872  221.2180 H   0  0  0  0  0  0  0  0  0  0  0  0
  139.9003   71.2529  219.1374 H   0  0  0  0  0  0  0  0  0  0  0  0
  139.8934   73.7090  219.2643 H   0  0  0  0  0  0  0  0  0  0  0  0
  142.0820   75.5120  222.0010 H   0  0  0  0  0  0  0  0  0  0  0  0
  141.0752   77.4967  224.0905 H   0  0  0  0  0  0  0  0  0  0  0  0
  141.0244   79.9413  224.2073 H   0  0  0  0  0  0  0  0  0  0  0  0
  141.6881   81.8184  223.0076 H   0  0  0  0  0  0  0  0  0  0  0  0
  138.8648   81.6123  222.0862 H   0  0  0  0  0  0  0  0  0  0  0  0
  139.3468   83.0313  222.8203 H   0  0  0  0  0  0  0  0  0  0  0  0
  139.5056   82.2678  219.8552 H   0  0  0  0  0  0  0  0  0  0  0  0
  139.7418   83.8450  220.3458 H   0  0  0  0  0  0  0  0  0  0  0  0
  141.8569   81.7883  220.0892 H   0  0  0  0  0  0  0  0  0  0  0  0
  142.2311   83.2030  220.8997 H   0  0  0  0  0  0  0  0  0  0  0  0
  141.1633   80.1154  219.9423 H   0  0  0  0  0  0  0  0  0  0  0  0
  141.2103   77.6683  219.8258 H   0  0  0  0  0  0  0  0  0  0  0  0
  140.1515   73.5288  223.5152 H   0  0  0  0  0  0  0  0  0  0  0  0
  1  2  1  0
  2  3  2  0
  3  4  1  0
  4  5  2  0
  5  6  1  0
  6  7  2  0
  6  8  1  0
  8  9  1  0
  9 10  1  0
 10 11  2  0
 11 12  1  0
 12 13  2  0
 13 14  1  0
 14 15  1  0
 15 16  2  0
 15 17  1  0
 17 18  1  0
 18 19  2  0
 19 20  1  0
 20 21  2  0
 21 22  1  0
 22 23  1  0
 23 24  1  0
 24 25  1  0
 21 26  1  0
 26 27  2  0
 14 28  2  0
  9 29  2  0
  7  2  1  0
 28 10  1  0
 29  5  1  0
 27 18  1  0
 25 22  1  0
  1 30  1  0
  1 31  1  0
  1 32  1  0
  3 33  1  0
  4 34  1  0
  7 35  1  0
  8 36  1  0
  8 37  1  0
 11 38  1  0
 12 39  1  0
 13 40  1  0
 17 41  1  0
 19 42  1  0
 20 43  1  0
 22 44  1  0
 23 45  1  0
 23 46  1  0
 24 47  1  0
 24 48  1  0
 25 49  1  0
 25 50  1  0
 26 51  1  0
 27 52  1  0
 28 53  1  0
M  END
>  <smiles>  (20) 
Cc1ccc2c(c1)CC(c1cccc(C(=O)Nc3ccc(C4CCC4)cc3)c1)=N2

>  <score_type>  (20) 
oracle

>  <origin>  (20) 
autodockgpu

>  <m_score__min__energy>  (20) 
-8.8800000000000008

>  <m_primary>  (20) 
energy

>  <rmsd>  (20) 
4.107954319685547

>  <m_score__min__rmsd>  (20) 
4.107954319685547

>  <meeko>  (20) 
{"free_energy": -8.69, "intermolecular_energy": -9.88, "internal_energy": -0.96, "cluster_size": 15, "cluster_id": 2, "rank_in_cluster": 3}

>  <energy>  (20) 
-8.83

>  <cluster_rmsd>  (20) 
0.27

>  <cluster>  (20) 
1

$$$$

     RDKit          3D

 53 57  0  0  0  0  0  0  0  0999 V2000
  141.1360   83.3060  221.5880 C   0  0  0  0  0  0  0  0  0  0  0  0
  141.2240   81.8160  221.7430 C   0  0  0  0  0  0  0  0  0  0  0  0
  141.3800   81.2760  223.0060 C   0  0  0  0  0  0  0  0  0  0  0  0
  141.4650   79.9120  223.1970 C   0  0  0  0  0  0  0  0  0  0  0  0
  141.3930   79.0620  222.0960 C   0  0  0  0  0  0  0  0  0  0  0  0
  141.2370   79.6190  220.8470 C   0  0  0  0  0  0  0  0  0  0  0  0
  141.1510   80.9790  220.6420 C   0  0  0  0  0  0  0  0  0  0  0  0
  141.1920   78.4770  219.8760 C   0  0  0  0  0  0  0  0  0  0  0  0
  141.3380   77.2920  220.7360 C   0  0  0  0  0  0  0  0  0  0  0  0
  141.3650   75.8910  220.3340 C   0  0  0  0  0  0  0  0  0  0  0  0
  141.5570   75.5800  218.9900 C   0  0  0  0  0  0  0  0  0  0  0  0
  141.5820   74.2480  218.6170 C   0  0  0  0  0  0  0  0  0  0  0  0
  141.4190   73.2600  219.5590 C   0  0  0  0  0  0  0  0  0  0  0  0
  141.2280   73.5590  220.8920 C   0  0  0  0  0  0  0  0  0  0  0  0
  141.0500   72.5410  221.9230 C   0  0  0  0  0  0  0  0  0  0  0  0
  141.7990   71.5060  221.9650 O   0  0  0  0  0  0  0  0  0  0  0  0
  140.0580   72.6200  222.9330 N   0  0  0  0  0  0  0  0  0  0  0  0
  139.9080   71.6180  223.9190 C   0  0  0  0  0  0  0  0  0  0  0  0
  138.9610   70.6170  223.8650 C   0  0  0  0  0  0  0  0  0  0  0  0
  138.8460   69.6580  224.8490 C   0  0  0  0  0  0  0  0  0  0  0  0
  139.6790   69.6510  225.9480 C   0  0  0  0  0  0  0  0  0  0  0  0
  139.5900   68.6350  227.0320 C   0  0  0  0  0  0  0  0  0  0  0  0
  139.7560   69.1660  228.4280 C   0  0  0  0  0  0  0  0  0  0  0  0
  141.0810   68.4690  228.5110 C   0  0  0  0  0  0  0  0  0  0  0  0
  140.7540   67.7440  227.2380 C   0  0  0  0  0  0  0  0  0  0  0  0
  140.6310   70.6620  225.9950 C   0  0  0  0  0  0  0  0  0  0  0  0
  140.7480   71.6230  225.0130 C   0  0  0  0  0  0  0  0  0  0  0  0
  141.2040   74.8750  221.2580 C   0  0  0  0  0  0  0  0  0  0  0  0
  141.4480   77.6580  221.9780 N   0  0  0  0  0  0  0  0  0  0  0  0
  141.1082   83.7770  222.5817 H   0  0  0  0  0  0  0  0  0  0  0  0
  142.0142   83.6696  221.0344 H   0  0  0  0  0  0  0  0  0  0  0  0
  140.2211   83.5637  221.0344 H   0  0  0  0  0  0  0  0  0  0  0  0
  141.4375   81.9468  223.8759 H   0  0  0  0  0  0  0  0  0  0  0  0
  141.5885   79.4999  224.2094 H   0  0  0  0  0  0  0  0  0  0  0  0
  141.0274   81.3896  219.6290 H   0  0  0  0  0  0  0  0  0  0  0  0
  140.2334   78.4563  219.3369 H   0  0  0  0  0  0  0  0  0  0  0  0
  141.9687   78.5425  219.0998 H   0  0  0  0  0  0  0  0  0  0  0  0
  141.6859   76.3759  218.2417 H   0  0  0  0  0  0  0  0  0  0  0  0
  141.7331   73.9781  217.5614 H   0  0  0  0  0  0  0  0  0  0  0  0
  141.4414   72.2068  219.2424 H   0  0  0  0  0  0  0  0  0  0  0  0
  139.4130   73.4270  222.9650 H   0  0  0  0  0  0  0  0  0  0  0  0
  138.2734   70.5824  223.0071 H   0  0  0  0  0  0  0  0  0  0  0  0
  138.0727   68.8813  224.7553 H   0  0  0  0  0  0  0  0  0  0  0  0
  138.6369   68.2025  226.6934 H   0  0  0  0  0  0  0  0  0  0  0  0
  139.8168   70.2625  228.4908 H   0  0  0  0  0  0  0  0  0  0  0  0
  138.9816   68.9990  229.1912 H   0  0  0  0  0  0  0  0  0  0  0  0
  141.9501   69.1394  228.4394 H   0  0  0  0  0  0  0  0  0  0  0  0
  141.3721   67.9162  229.4164 H   0  0  0  0  0  0  0  0  0  0  0  0
  141.5280   67.8289  226.4610 H   0  0  0  0  0  0  0  0  0  0  0  0
  140.6270   66.6514  227.2356 H   0  0  0  0  0  0  0  0  0  0  0  0
  141.3203   70.6973  226.8515 H   0  0  0  0  0  0  0  0  0  0  0  0
  141.5195   72.4019  225.1031 H   0  0  0  0  0  0  0  0  0  0  0  0
  141.0525   75.1334  222.3164 H   0  0  0  0  0  0  0  0  0  0  0  0
  1  2  1  0
  2  3  2  0
  3  4  1  0
  4  5  2  0
  5  6  1  0
  6  7  2  0
  6  8  1  0
  8  9  1  0
  9 10  1  0
 10 11  2  0
 11 12  1  0
 12 13  2  0
 13 14  1  0
 14 15  1  0
 15 16  2  0
 15 17  1  0
 17 18  1  0
 18 19  2  0
 19 20  1  0
 20 21  2  0
 21 22  1  0
 22 23  1  0
 23 24  1  0
 24 25  1  0
 21 26  1  0
 26 27  2  0
 14 28  2  0
  9 29  2  0
  7  2  1  0
 28 10  1  0
 29  5  1  0
 27 18  1  0
 25 22  1  0
  1 30  1  0
  1 31  1  0
  1 32  1  0
  3 33  1  0
  4 34  1  0
  7 35  1  0
  8 36  1  0
  8 37  1  0
 11 38  1  0
 12 39  1  0
 13 40  1  0
 17 41  1  0
 19 42  1  0
 20 43  1  0
 22 44  1  0
 23 45  1  0
 23 46  1  0
 24 47  1  0
 24 48  1  0
 25 49  1  0
 25 50  1  0
 26 51  1  0
 27 52  1  0
 28 53  1  0
M  END
>  <smiles>  (21) 
Cc1ccc2c(c1)CC(c1cccc(C(=O)Nc3ccc(C4CCC4)cc3)c1)=N2

>  <score_type>  (21) 
oracle

>  <origin>  (21) 
autodockgpu

>  <m_score__min__energy>  (21) 
-8.8800000000000008

>  <m_primary>  (21) 
energy

>  <rmsd>  (21) 
9.413168808007205

>  <m_score__min__rmsd>  (21) 
9.413168808007205

>  <meeko>  (21) 
{"free_energy": -8.87, "intermolecular_energy": -10.07, "internal_energy": -0.95, "cluster_size": 35, "cluster_id": 1, "rank_in_cluster": 6}

>  <energy>  (21) 
-8.82

>  <cluster_rmsd>  (21) 
0.26

>  <cluster>  (21) 
1

$$$$

     RDKit          3D

 53 57  0  0  0  0  0  0  0  0999 V2000
  141.0990   83.3380  221.5810 C   0  0  0  0  0  0  0  0  0  0  0  0
  141.1840   81.8490  221.7400 C   0  0  0  0  0  0  0  0  0  0  0  0
  141.2860   81.3090  223.0080 C   0  0  0  0  0  0  0  0  0  0  0  0
  141.3660   79.9450  223.2010 C   0  0  0  0  0  0  0  0  0  0  0  0
  141.3430   79.0950  222.0980 C   0  0  0  0  0  0  0  0  0  0  0  0
  141.2400   79.6520  220.8430 C   0  0  0  0  0  0  0  0  0  0  0  0
  141.1600   81.0130  220.6360 C   0  0  0  0  0  0  0  0  0  0  0  0
  141.2400   78.5110  219.8710 C   0  0  0  0  0  0  0  0  0  0  0  0
  141.3510   77.3260  220.7360 C   0  0  0  0  0  0  0  0  0  0  0  0
  141.3980   75.9250  220.3350 C   0  0  0  0  0  0  0  0  0  0  0  0
  141.6200   75.6160  218.9950 C   0  0  0  0  0  0  0  0  0  0  0  0
  141.6640   74.2840  218.6230 C   0  0  0  0  0  0  0  0  0  0  0  0
  141.4910   73.2940  219.5620 C   0  0  0  0  0  0  0  0  0  0  0  0
  141.2710   73.5920  220.8910 C   0  0  0  0  0  0  0  0  0  0  0  0
  141.0820   72.5720  221.9180 C   0  0  0  0  0  0  0  0  0  0  0  0
  141.8240   71.5330  221.9620 O   0  0  0  0  0  0  0  0  0  0  0  0
  140.0830   72.6540  222.9220 N   0  0  0  0  0  0  0  0  0  0  0  0
  139.9220   71.6510  223.9050 C   0  0  0  0  0  0  0  0  0  0  0  0
  138.9260   70.6990  223.8800 C   0  0  0  0  0  0  0  0  0  0  0  0
  138.8010   69.7360  224.8600 C   0  0  0  0  0  0  0  0  0  0  0  0
  139.6750   69.6760  225.9240 C   0  0  0  0  0  0  0  0  0  0  0  0
  139.5780   68.6550  227.0030 C   0  0  0  0  0  0  0  0  0  0  0  0
  139.7400   69.1770  228.4020 C   0  0  0  0  0  0  0  0  0  0  0  0
  141.0620   68.4750  228.4870 C   0  0  0  0  0  0  0  0  0  0  0  0
  140.7370   67.7590  227.2090 C   0  0  0  0  0  0  0  0  0  0  0  0
  140.6780   70.6390  225.9430 C   0  0  0  0  0  0  0  0  0  0  0  0
  140.8040   71.6030  224.9650 C   0  0  0  0  0  0  0  0  0  0  0  0
  141.2280   74.9080  221.2560 C   0  0  0  0  0  0  0  0  0  0  0  0
  141.4070   77.6910  221.9820 N   0  0  0  0  0  0  0  0  0  0  0  0
  141.0720   83.8118  222.5734 H   0  0  0  0  0  0  0  0  0  0  0  0
  141.9780   83.6983  221.0265 H   0  0  0  0  0  0  0  0  0  0  0  0
  140.1847   83.5959  221.0265 H   0  0  0  0  0  0  0  0  0  0  0  0
  141.3037   81.9793  223.8800 H   0  0  0  0  0  0  0  0  0  0  0  0
  141.4472   79.5325  224.2175 H   0  0  0  0  0  0  0  0  0  0  0  0
  141.0791   81.4246  219.6191 H   0  0  0  0  0  0  0  0  0  0  0  0
  140.3059   78.4885  219.2905 H   0  0  0  0  0  0  0  0  0  0  0  0
  142.0496   78.5787  219.1294 H   0  0  0  0  0  0  0  0  0  0  0  0
  141.7572   76.4130  218.2493 H   0  0  0  0  0  0  0  0  0  0  0  0
  141.8383   74.0154  217.5706 H   0  0  0  0  0  0  0  0  0  0  0  0
  141.5289   72.2410  219.2463 H   0  0  0  0  0  0  0  0  0  0  0  0
  139.4430   73.4650  222.9520 H   0  0  0  0  0  0  0  0  0  0  0  0
  138.2051   70.7072  223.0492 H   0  0  0  0  0  0  0  0  0  0  0  0
  137.9862   69.0002  224.7907 H   0  0  0  0  0  0  0  0  0  0  0  0
  138.6245   68.2286  226.6582 H   0  0  0  0  0  0  0  0  0  0  0  0
  139.8045   70.2729  228.4713 H   0  0  0  0  0  0  0  0  0  0  0  0
  138.9617   69.0083  229.1608 H   0  0  0  0  0  0  0  0  0  0  0  0
  141.9339   69.1425  228.4227 H   0  0  0  0  0  0  0  0  0  0  0  0
  141.3477   67.9163  229.3904 H   0  0  0  0  0  0  0  0  0  0  0  0
  141.5144   67.8451  226.4356 H   0  0  0  0  0  0  0  0  0  0  0  0
  140.6054   66.6669  227.2002 H   0  0  0  0  0  0  0  0  0  0  0  0
  141.4006   70.6315  226.7723 H   0  0  0  0  0  0  0  0  0  0  0  0
  141.6164   72.3417  225.0306 H   0  0  0  0  0  0  0  0  0  0  0  0
  141.0534   75.1652  222.3111 H   0  0  0  0  0  0  0  0  0  0  0  0
  1  2  1  0
  2  3  2  0
  3  4  1  0
  4  5  2  0
  5  6  1  0
  6  7  2  0
  6  8  1  0
  8  9  1  0
  9 10  1  0
 10 11  2  0
 11 12  1  0
 12 13  2  0
 13 14  1  0
 14 15  1  0
 15 16  2  0
 15 17  1  0
 17 18  1  0
 18 19  2  0
 19 20  1  0
 20 21  2  0
 21 22  1  0
 22 23  1  0
 23 24  1  0
 24 25  1  0
 21 26  1  0
 26 27  2  0
 14 28  2  0
  9 29  2  0
  7  2  1  0
 28 10  1  0
 29  5  1  0
 27 18  1  0
 25 22  1  0
  1 30  1  0
  1 31  1  0
  1 32  1  0
  3 33  1  0
  4 34  1  0
  7 35  1  0
  8 36  1  0
  8 37  1  0
 11 38  1  0
 12 39  1  0
 13 40  1  0
 17 41  1  0
 19 42  1  0
 20 43  1  0
 22 44  1  0
 23 45  1  0
 23 46  1  0
 24 47  1  0
 24 48  1  0
 25 49  1  0
 25 50  1  0
 26 51  1  0
 27 52  1  0
 28 53  1  0
M  END
>  <smiles>  (22) 
Cc1ccc2c(c1)CC(c1cccc(C(=O)Nc3ccc(C4CCC4)cc3)c1)=N2

>  <score_type>  (22) 
oracle

>  <origin>  (22) 
autodockgpu

>  <m_score__min__energy>  (22) 
-8.8800000000000008

>  <m_primary>  (22) 
energy

>  <rmsd>  (22) 
9.39016534170654

>  <m_score__min__rmsd>  (22) 
9.39016534170654

>  <meeko>  (22) 
{"free_energy": -8.88, "intermolecular_energy": -10.07, "internal_energy": -0.94, "cluster_size": 35, "cluster_id": 1, "rank_in_cluster": 5}

>  <energy>  (22) 
-8.82

>  <cluster_rmsd>  (22) 
0.18

>  <cluster>  (22) 
1

$$$$

     RDKit          3D

 53 57  0  0  0  0  0  0  0  0999 V2000
  141.1160   83.3260  221.5370 C   0  0  0  0  0  0  0  0  0  0  0  0
  141.2040   81.8370  221.7000 C   0  0  0  0  0  0  0  0  0  0  0  0
  141.3420   81.3030  222.9680 C   0  0  0  0  0  0  0  0  0  0  0  0
  141.4270   79.9400  223.1650 C   0  0  0  0  0  0  0  0  0  0  0  0
  141.3740   79.0850  222.0680 C   0  0  0  0  0  0  0  0  0  0  0  0
  141.2360   79.6360  220.8130 C   0  0  0  0  0  0  0  0  0  0  0  0
  141.1500   80.9960  220.6020 C   0  0  0  0  0  0  0  0  0  0  0  0
  141.2080   78.4900  219.8470 C   0  0  0  0  0  0  0  0  0  0  0  0
  141.3430   77.3090  220.7150 C   0  0  0  0  0  0  0  0  0  0  0  0
  141.3790   75.9070  220.3190 C   0  0  0  0  0  0  0  0  0  0  0  0
  141.5860   75.5900  218.9790 C   0  0  0  0  0  0  0  0  0  0  0  0
  141.6190   74.2570  218.6120 C   0  0  0  0  0  0  0  0  0  0  0  0
  141.4500   73.2720  219.5570 C   0  0  0  0  0  0  0  0  0  0  0  0
  141.2450   73.5760  220.8870 C   0  0  0  0  0  0  0  0  0  0  0  0
  141.0600   72.5620  221.9200 C   0  0  0  0  0  0  0  0  0  0  0  0
  141.7920   71.5150  221.9560 O   0  0  0  0  0  0  0  0  0  0  0  0
  140.0780   72.6580  222.9390 N   0  0  0  0  0  0  0  0  0  0  0  0
  139.9210   71.6600  223.9280 C   0  0  0  0  0  0  0  0  0  0  0  0
  139.0190   70.6210  223.8390 C   0  0  0  0  0  0  0  0  0  0  0  0
  138.8960   69.6670  224.8260 C   0  0  0  0  0  0  0  0  0  0  0  0
  139.6750   69.7030  225.9640 C   0  0  0  0  0  0  0  0  0  0  0  0
  139.5740   68.6940  227.0530 C   0  0  0  0  0  0  0  0  0  0  0  0
  139.7770   69.2250  228.4440 C   0  0  0  0  0  0  0  0  0  0  0  0
  141.0830   68.4900  228.5090 C   0  0  0  0  0  0  0  0  0  0  0  0
  140.7150   67.7710  227.2450 C   0  0  0  0  0  0  0  0  0  0  0  0
  140.5810   70.7530  226.0460 C   0  0  0  0  0  0  0  0  0  0  0  0
  140.7070   71.7090  225.0600 C   0  0  0  0  0  0  0  0  0  0  0  0
  141.2120   74.8940  221.2460 C   0  0  0  0  0  0  0  0  0  0  0  0
  141.4340   77.6810  221.9570 N   0  0  0  0  0  0  0  0  0  0  0  0
  141.0878   83.8023  222.5281 H   0  0  0  0  0  0  0  0  0  0  0  0
  141.9944   83.6866  220.9817 H   0  0  0  0  0  0  0  0  0  0  0  0
  140.2012   83.5806  220.9817 H   0  0  0  0  0  0  0  0  0  0  0  0
  141.3848   81.9775  223.8359 H   0  0  0  0  0  0  0  0  0  0  0  0
  141.5358   79.5324  224.1809 H   0  0  0  0  0  0  0  0  0  0  0  0
  141.0411   81.4026  219.5857 H   0  0  0  0  0  0  0  0  0  0  0  0
  140.2578   78.4650  219.2933 H   0  0  0  0  0  0  0  0  0  0  0  0
  141.9963   78.5534  219.0824 H   0  0  0  0  0  0  0  0  0  0  0  0
  141.7204   76.3828  218.2284 H   0  0  0  0  0  0  0  0  0  0  0  0
  141.7812   73.9831  217.5591 H   0  0  0  0  0  0  0  0  0  0  0  0
  141.4790   72.2175  219.2451 H   0  0  0  0  0  0  0  0  0  0  0  0
  139.4480   73.4760  222.9760 H   0  0  0  0  0  0  0  0  0  0  0  0
  138.3754   70.5511  222.9497 H   0  0  0  0  0  0  0  0  0  0  0  0
  138.1601   68.8586  224.7036 H   0  0  0  0  0  0  0  0  0  0  0  0
  138.6039   68.2877  226.7307 H   0  0  0  0  0  0  0  0  0  0  0  0
  139.8704   70.3195  228.5014 H   0  0  0  0  0  0  0  0  0  0  0  0
  139.0102   69.0833  229.2199 H   0  0  0  0  0  0  0  0  0  0  0  0
  141.9699   69.1347  228.4210 H   0  0  0  0  0  0  0  0  0  0  0  0
  141.3724   67.9322  229.4118 H   0  0  0  0  0  0  0  0  0  0  0  0
  141.4788   67.8307  226.4556 H   0  0  0  0  0  0  0  0  0  0  0  0
  140.5562   66.6825  227.2494 H   0  0  0  0  0  0  0  0  0  0  0  0
  141.2250   70.8249  226.9349 H   0  0  0  0  0  0  0  0  0  0  0  0
  141.4420   72.5189  225.1777 H   0  0  0  0  0  0  0  0  0  0  0  0
  141.0481   75.1568  222.3015 H   0  0  0  0  0  0  0  0  0  0  0  0
  1  2  1  0
  2  3  2  0
  3  4  1  0
  4  5  2  0
  5  6  1  0
  6  7  2  0
  6  8  1  0
  8  9  1  0
  9 10  1  0
 10 11  2  0
 11 12  1  0
 12 13  2  0
 13 14  1  0
 14 15  1  0
 15 16  2  0
 15 17  1  0
 17 18  1  0
 18 19  2  0
 19 20  1  0
 20 21  2  0
 21 22  1  0
 22 23  1  0
 23 24  1  0
 24 25  1  0
 21 26  1  0
 26 27  2  0
 14 28  2  0
  9 29  2  0
  7  2  1  0
 28 10  1  0
 29  5  1  0
 27 18  1  0
 25 22  1  0
  1 30  1  0
  1 31  1  0
  1 32  1  0
  3 33  1  0
  4 34  1  0
  7 35  1  0
  8 36  1  0
  8 37  1  0
 11 38  1  0
 12 39  1  0
 13 40  1  0
 17 41  1  0
 19 42  1  0
 20 43  1  0
 22 44  1  0
 23 45  1  0
 23 46  1  0
 24 47  1  0
 24 48  1  0
 25 49  1  0
 25 50  1  0
 26 51  1  0
 27 52  1  0
 28 53  1  0
M  END
>  <smiles>  (23) 
Cc1ccc2c(c1)CC(c1cccc(C(=O)Nc3ccc(C4CCC4)cc3)c1)=N2

>  <score_type>  (23) 
oracle

>  <origin>  (23) 
autodockgpu

>  <m_score__min__energy>  (23) 
-8.8800000000000008

>  <m_primary>  (23) 
energy

>  <rmsd>  (23) 
9.3841683954735

>  <m_score__min__rmsd>  (23) 
9.3841683954735

>  <meeko>  (23) 
{"free_energy": -8.88, "intermolecular_energy": -10.07, "internal_energy": -0.95, "cluster_size": 35, "cluster_id": 1, "rank_in_cluster": 2}

>  <energy>  (23) 
-8.82

>  <cluster_rmsd>  (23) 
0.25

>  <cluster>  (23) 
1

$$$$

     RDKit          3D

 53 57  0  0  0  0  0  0  0  0999 V2000
  141.0050   68.1400  229.0720 C   0  0  0  0  0  0  0  0  0  0  0  0
  140.6010   68.5170  227.6780 C   0  0  0  0  0  0  0  0  0  0  0  0
  139.7550   67.6840  226.9700 C   0  0  0  0  0  0  0  0  0  0  0  0
  139.3570   67.9900  225.6850 C   0  0  0  0  0  0  0  0  0  0  0  0
  139.8160   69.1610  225.0870 C   0  0  0  0  0  0  0  0  0  0  0  0
  140.6580   69.9780  225.8090 C   0  0  0  0  0  0  0  0  0  0  0  0
  141.0630   69.6840  227.0930 C   0  0  0  0  0  0  0  0  0  0  0  0
  140.9800   71.1440  224.9210 C   0  0  0  0  0  0  0  0  0  0  0  0
  140.2320   70.8510  223.6890 C   0  0  0  0  0  0  0  0  0  0  0  0
  140.1700   71.6460  222.4680 C   0  0  0  0  0  0  0  0  0  0  0  0
  140.1220   70.9910  221.2400 C   0  0  0  0  0  0  0  0  0  0  0  0
  140.0630   71.7530  220.0870 C   0  0  0  0  0  0  0  0  0  0  0  0
  140.0520   73.1260  220.1610 C   0  0  0  0  0  0  0  0  0  0  0  0
  140.0990   73.7830  221.3730 C   0  0  0  0  0  0  0  0  0  0  0  0
  140.0900   75.2370  221.4960 C   0  0  0  0  0  0  0  0  0  0  0  0
  139.0040   75.9020  221.3890 O   0  0  0  0  0  0  0  0  0  0  0  0
  141.2570   76.0050  221.7380 N   0  0  0  0  0  0  0  0  0  0  0  0
  141.2190   77.4140  221.8520 C   0  0  0  0  0  0  0  0  0  0  0  0
  141.0170   78.0870  223.0380 C   0  0  0  0  0  0  0  0  0  0  0  0
  140.9860   79.4630  223.1080 C   0  0  0  0  0  0  0  0  0  0  0  0
  141.1560   80.2450  221.9860 C   0  0  0  0  0  0  0  0  0  0  0  0
  141.1300   81.7330  222.0160 C   0  0  0  0  0  0  0  0  0  0  0  0
  139.7630   82.3530  222.0580 C   0  0  0  0  0  0  0  0  0  0  0  0
  139.9670   82.8430  220.6550 C   0  0  0  0  0  0  0  0  0  0  0  0
  141.4120   82.4530  220.7540 C   0  0  0  0  0  0  0  0  0  0  0  0
  141.3600   79.5610  220.7940 C   0  0  0  0  0  0  0  0  0  0  0  0
  141.3920   78.1840  220.7210 C   0  0  0  0  0  0  0  0  0  0  0  0
  140.1580   73.0280  222.5110 C   0  0  0  0  0  0  0  0  0  0  0  0
  139.5880   69.7290  223.8170 N   0  0  0  0  0  0  0  0  0  0  0  0
  140.3989   68.7056  229.7950 H   0  0  0  0  0  0  0  0  0  0  0  0
  140.8435   67.0623  229.2218 H   0  0  0  0  0  0  0  0  0  0  0  0
  142.0690   68.3756  229.2218 H   0  0  0  0  0  0  0  0  0  0  0  0
  139.3918   66.7585  227.4407 H   0  0  0  0  0  0  0  0  0  0  0  0
  138.6829   67.3149  225.1375 H   0  0  0  0  0  0  0  0  0  0  0  0
  141.7369   70.3599  227.6399 H   0  0  0  0  0  0  0  0  0  0  0  0
  140.6407   72.0880  225.3724 H   0  0  0  0  0  0  0  0  0  0  0  0
  142.0594   71.2675  224.7489 H   0  0  0  0  0  0  0  0  0  0  0  0
  140.1308   69.8923  221.1880 H   0  0  0  0  0  0  0  0  0  0  0  0
  140.0247   71.2578  219.1055 H   0  0  0  0  0  0  0  0  0  0  0  0
  140.0046   73.7139  219.2325 H   0  0  0  0  0  0  0  0  0  0  0  0
  142.1740   75.5390  221.8360 H   0  0  0  0  0  0  0  0  0  0  0  0
  140.8756   77.5053  223.9609 H   0  0  0  0  0  0  0  0  0  0  0  0
  140.8218   79.9481  224.0815 H   0  0  0  0  0  0  0  0  0  0  0  0
  141.8303   81.8330  222.8584 H   0  0  0  0  0  0  0  0  0  0  0  0
  138.9415   81.6300  222.1698 H   0  0  0  0  0  0  0  0  0  0  0  0
  139.4830   83.0479  222.8634 H   0  0  0  0  0  0  0  0  0  0  0  0
  139.3993   82.2870  219.8944 H   0  0  0  0  0  0  0  0  0  0  0  0
  139.6762   83.8636  220.3655 H   0  0  0  0  0  0  0  0  0  0  0  0
  141.7597   81.8056  219.9355 H   0  0  0  0  0  0  0  0  0  0  0  0
  142.2000   83.2195  220.7140 H   0  0  0  0  0  0  0  0  0  0  0  0
  141.5018   80.1415  219.8705 H   0  0  0  0  0  0  0  0  0  0  0  0
  141.5573   77.6945  219.7499 H   0  0  0  0  0  0  0  0  0  0  0  0
  140.1970   73.5335  223.4872 H   0  0  0  0  0  0  0  0  0  0  0  0
  1  2  1  0
  2  3  2  0
  3  4  1  0
  4  5  2  0
  5  6  1  0
  6  7  2  0
  6  8  1  0
  8  9  1  0
  9 10  1  0
 10 11  2  0
 11 12  1  0
 12 13  2  0
 13 14  1  0
 14 15  1  0
 15 16  2  0
 15 17  1  0
 17 18  1  0
 18 19  2  0
 19 20  1  0
 20 21  2  0
 21 22  1  0
 22 23  1  0
 23 24  1  0
 24 25  1  0
 21 26  1  0
 26 27  2  0
 14 28  2  0
  9 29  2  0
  7  2  1  0
 28 10  1  0
 29  5  1  0
 27 18  1  0
 25 22  1  0
  1 30  1  0
  1 31  1  0
  1 32  1  0
  3 33  1  0
  4 34  1  0
  7 35  1  0
  8 36  1  0
  8 37  1  0
 11 38  1  0
 12 39  1  0
 13 40  1  0
 17 41  1  0
 19 42  1  0
 20 43  1  0
 22 44  1  0
 23 45  1  0
 23 46  1  0
 24 47  1  0
 24 48  1  0
 25 49  1  0
 25 50  1  0
 26 51  1  0
 27 52  1  0
 28 53  1  0
M  END
>  <smiles>  (24) 
Cc1ccc2c(c1)CC(c1cccc(C(=O)Nc3ccc(C4CCC4)cc3)c1)=N2

>  <score_type>  (24) 
oracle

>  <origin>  (24) 
autodockgpu

>  <m_score__min__energy>  (24) 
-8.8800000000000008

>  <m_primary>  (24) 
energy

>  <rmsd>  (24) 
4.079897797490094

>  <m_score__min__rmsd>  (24) 
4.079897797490094

>  <meeko>  (24) 
{"free_energy": -8.67, "intermolecular_energy": -9.86, "internal_energy": -0.96, "cluster_size": 15, "cluster_id": 2, "rank_in_cluster": 7}

>  <energy>  (24) 
-8.82

>  <cluster_rmsd>  (24) 
0.24

>  <cluster>  (24) 
1

$$$$

     RDKit          3D

 53 57  0  0  0  0  0  0  0  0999 V2000
  141.1670   83.2840  221.6010 C   0  0  0  0  0  0  0  0  0  0  0  0
  141.2490   81.7940  221.7520 C   0  0  0  0  0  0  0  0  0  0  0  0
  141.4890   81.2540  223.0020 C   0  0  0  0  0  0  0  0  0  0  0  0
  141.5720   79.8900  223.1880 C   0  0  0  0  0  0  0  0  0  0  0  0
  141.4130   79.0390  222.0980 C   0  0  0  0  0  0  0  0  0  0  0  0
  141.1750   79.5960  220.8610 C   0  0  0  0  0  0  0  0  0  0  0  0
  141.0890   80.9570  220.6610 C   0  0  0  0  0  0  0  0  0  0  0  0
  141.0480   78.4530  219.8980 C   0  0  0  0  0  0  0  0  0  0  0  0
  141.2420   77.2680  220.7480 C   0  0  0  0  0  0  0  0  0  0  0  0
  141.2250   75.8670  220.3470 C   0  0  0  0  0  0  0  0  0  0  0  0
  141.3080   75.5520  218.9930 C   0  0  0  0  0  0  0  0  0  0  0  0
  141.2920   74.2200  218.6220 C   0  0  0  0  0  0  0  0  0  0  0  0
  141.1950   73.2340  219.5760 C   0  0  0  0  0  0  0  0  0  0  0  0
  141.1120   73.5360  220.9190 C   0  0  0  0  0  0  0  0  0  0  0  0
  141.0080   72.5210  221.9630 C   0  0  0  0  0  0  0  0  0  0  0  0
  141.8080   71.5250  221.9980 O   0  0  0  0  0  0  0  0  0  0  0  0
  140.0330   72.5600  222.9920 N   0  0  0  0  0  0  0  0  0  0  0  0
  139.9550   71.5620  223.9910 C   0  0  0  0  0  0  0  0  0  0  0  0
  139.1350   70.4570  223.9140 C   0  0  0  0  0  0  0  0  0  0  0  0
  139.0860   69.5050  224.9100 C   0  0  0  0  0  0  0  0  0  0  0  0
  139.8610   69.6110  226.0460 C   0  0  0  0  0  0  0  0  0  0  0  0
  139.8400   68.6080  227.1450 C   0  0  0  0  0  0  0  0  0  0  0  0
  139.9440   69.1710  228.5340 C   0  0  0  0  0  0  0  0  0  0  0  0
  141.3200   68.5840  228.6430 C   0  0  0  0  0  0  0  0  0  0  0  0
  141.0680   67.8160  227.3790 C   0  0  0  0  0  0  0  0  0  0  0  0
  140.6850   70.7280  226.1160 C   0  0  0  0  0  0  0  0  0  0  0  0
  140.7360   71.6810  225.1210 C   0  0  0  0  0  0  0  0  0  0  0  0
  141.1290   74.8530  221.2830 C   0  0  0  0  0  0  0  0  0  0  0  0
  141.4440   77.6340  221.9790 N   0  0  0  0  0  0  0  0  0  0  0  0
  141.1412   83.7525  222.5959 H   0  0  0  0  0  0  0  0  0  0  0  0
  142.0466   83.6455  221.0482 H   0  0  0  0  0  0  0  0  0  0  0  0
  140.2530   83.5468  221.0482 H   0  0  0  0  0  0  0  0  0  0  0  0
  141.6161   81.9250  223.8644 H   0  0  0  0  0  0  0  0  0  0  0  0
  141.7624   79.4778  224.1899 H   0  0  0  0  0  0  0  0  0  0  0  0
  140.8979   81.3682  219.6588 H   0  0  0  0  0  0  0  0  0  0  0  0
  140.0531   78.4423  219.4288 H   0  0  0  0  0  0  0  0  0  0  0  0
  141.7677   78.5087  219.0680 H   0  0  0  0  0  0  0  0  0  0  0  0
  141.3846   76.3456  218.2351 H   0  0  0  0  0  0  0  0  0  0  0  0
  141.3572   73.9475  217.5583 H   0  0  0  0  0  0  0  0  0  0  0  0
  141.1834   72.1803  219.2605 H   0  0  0  0  0  0  0  0  0  0  0  0
  139.3500   73.3350  223.0310 H   0  0  0  0  0  0  0  0  0  0  0  0
  138.4972   70.3302  223.0268 H   0  0  0  0  0  0  0  0  0  0  0  0
  138.4139   68.6417  224.7962 H   0  0  0  0  0  0  0  0  0  0  0  0
  138.9291   68.0957  226.8018 H   0  0  0  0  0  0  0  0  0  0  0  0
  139.9156   70.2697  228.5804 H   0  0  0  0  0  0  0  0  0  0  0  0
  139.1756   68.9536  229.2905 H   0  0  0  0  0  0  0  0  0  0  0  0
  142.1334   69.3210  228.5701 H   0  0  0  0  0  0  0  0  0  0  0  0
  141.6434   68.0704  229.5604 H   0  0  0  0  0  0  0  0  0  0  0  0
  141.8427   67.9501  226.6096 H   0  0  0  0  0  0  0  0  0  0  0  0
  141.0281   66.7168  227.3932 H   0  0  0  0  0  0  0  0  0  0  0  0
  141.3233   70.8571  227.0025 H   0  0  0  0  0  0  0  0  0  0  0  0
  141.4071   72.5457  225.2299 H   0  0  0  0  0  0  0  0  0  0  0  0
  141.0646   75.1140  222.3496 H   0  0  0  0  0  0  0  0  0  0  0  0
  1  2  1  0
  2  3  2  0
  3  4  1  0
  4  5  2  0
  5  6  1  0
  6  7  2  0
  6  8  1  0
  8  9  1  0
  9 10  1  0
 10 11  2  0
 11 12  1  0
 12 13  2  0
 13 14  1  0
 14 15  1  0
 15 16  2  0
 15 17  1  0
 17 18  1  0
 18 19  2  0
 19 20  1  0
 20 21  2  0
 21 22  1  0
 22 23  1  0
 23 24  1  0
 24 25  1  0
 21 26  1  0
 26 27  2  0
 14 28  2  0
  9 29  2  0
  7  2  1  0
 28 10  1  0
 29  5  1  0
 27 18  1  0
 25 22  1  0
  1 30  1  0
  1 31  1  0
  1 32  1  0
  3 33  1  0
  4 34  1  0
  7 35  1  0
  8 36  1  0
  8 37  1  0
 11 38  1  0
 12 39  1  0
 13 40  1  0
 17 41  1  0
 19 42  1  0
 20 43  1  0
 22 44  1  0
 23 45  1  0
 23 46  1  0
 24 47  1  0
 24 48  1  0
 25 49  1  0
 25 50  1  0
 26 51  1  0
 27 52  1  0
 28 53  1  0
M  END
>  <smiles>  (25) 
Cc1ccc2c(c1)CC(c1cccc(C(=O)Nc3ccc(C4CCC4)cc3)c1)=N2

>  <score_type>  (25) 
oracle

>  <origin>  (25) 
autodockgpu

>  <m_score__min__energy>  (25) 
-8.8800000000000008

>  <m_primary>  (25) 
energy

>  <rmsd>  (25) 
9.454143835728123

>  <m_score__min__rmsd>  (25) 
9.454143835728123

>  <meeko>  (25) 
{"free_energy": -8.83, "intermolecular_energy": -10.02, "internal_energy": -0.95, "cluster_size": 35, "cluster_id": 1, "rank_in_cluster": 19}

>  <energy>  (25) 
-8.82

>  <cluster_rmsd>  (25) 
0.17

>  <cluster>  (25) 
1

$$$$

     RDKit          3D

 53 57  0  0  0  0  0  0  0  0999 V2000
  141.1560   83.3140  221.5880 C   0  0  0  0  0  0  0  0  0  0  0  0
  141.2370   81.8240  221.7450 C   0  0  0  0  0  0  0  0  0  0  0  0
  141.3580   81.2830  223.0110 C   0  0  0  0  0  0  0  0  0  0  0  0
  141.4350   79.9200  223.2040 C   0  0  0  0  0  0  0  0  0  0  0  0
  141.3910   79.0690  222.1020 C   0  0  0  0  0  0  0  0  0  0  0  0
  141.2710   79.6270  220.8480 C   0  0  0  0  0  0  0  0  0  0  0  0
  141.1920   80.9880  220.6420 C   0  0  0  0  0  0  0  0  0  0  0  0
  141.2500   78.4860  219.8760 C   0  0  0  0  0  0  0  0  0  0  0  0
  141.3710   77.3000  220.7400 C   0  0  0  0  0  0  0  0  0  0  0  0
  141.4050   75.9000  220.3380 C   0  0  0  0  0  0  0  0  0  0  0  0
  141.6180   75.5890  218.9970 C   0  0  0  0  0  0  0  0  0  0  0  0
  141.6510   74.2570  218.6240 C   0  0  0  0  0  0  0  0  0  0  0  0
  141.4760   73.2680  219.5640 C   0  0  0  0  0  0  0  0  0  0  0  0
  141.2650   73.5670  220.8940 C   0  0  0  0  0  0  0  0  0  0  0  0
  141.0740   72.5480  221.9220 C   0  0  0  0  0  0  0  0  0  0  0  0
  141.8230   71.5150  221.9740 O   0  0  0  0  0  0  0  0  0  0  0  0
  140.0670   72.6260  222.9170 N   0  0  0  0  0  0  0  0  0  0  0  0
  139.9040   71.6240  223.9020 C   0  0  0  0  0  0  0  0  0  0  0  0
  138.8860   70.6940  223.8960 C   0  0  0  0  0  0  0  0  0  0  0  0
  138.7620   69.7320  224.8750 C   0  0  0  0  0  0  0  0  0  0  0  0
  139.6560   69.6500  225.9210 C   0  0  0  0  0  0  0  0  0  0  0  0
  139.5590   68.6280  226.9990 C   0  0  0  0  0  0  0  0  0  0  0  0
  139.7180   69.1500  228.3990 C   0  0  0  0  0  0  0  0  0  0  0  0
  141.0410   68.4500  228.4850 C   0  0  0  0  0  0  0  0  0  0  0  0
  140.7200   67.7330  227.2060 C   0  0  0  0  0  0  0  0  0  0  0  0
  140.6800   70.5900  225.9200 C   0  0  0  0  0  0  0  0  0  0  0  0
  140.8070   71.5530  224.9420 C   0  0  0  0  0  0  0  0  0  0  0  0
  141.2330   74.8830  221.2590 C   0  0  0  0  0  0  0  0  0  0  0  0
  141.4470   77.6650  221.9850 N   0  0  0  0  0  0  0  0  0  0  0  0
  141.1303   83.7865  222.5810 H   0  0  0  0  0  0  0  0  0  0  0  0
  142.0360   83.6727  221.0339 H   0  0  0  0  0  0  0  0  0  0  0  0
  140.2423   83.5752  221.0339 H   0  0  0  0  0  0  0  0  0  0  0  0
  141.3936   81.9534  223.8823 H   0  0  0  0  0  0  0  0  0  0  0  0
  141.5304   79.5081  224.2195 H   0  0  0  0  0  0  0  0  0  0  0  0
  141.0956   81.3996  219.6265 H   0  0  0  0  0  0  0  0  0  0  0  0
  140.3061   78.4671  219.3114 H   0  0  0  0  0  0  0  0  0  0  0  0
  142.0471   78.5504  219.1207 H   0  0  0  0  0  0  0  0  0  0  0  0
  141.7569   76.3851  218.2507 H   0  0  0  0  0  0  0  0  0  0  0  0
  141.8180   73.9876  217.5707 H   0  0  0  0  0  0  0  0  0  0  0  0
  141.5050   72.2148  219.2479 H   0  0  0  0  0  0  0  0  0  0  0  0
  139.4210   73.4320  222.9400 H   0  0  0  0  0  0  0  0  0  0  0  0
  138.1472   70.7209  223.0815 H   0  0  0  0  0  0  0  0  0  0  0  0
  137.9309   69.0134  224.8205 H   0  0  0  0  0  0  0  0  0  0  0  0
  138.6067   68.1999  226.6527 H   0  0  0  0  0  0  0  0  0  0  0  0
  139.7806   70.2460  228.4689 H   0  0  0  0  0  0  0  0  0  0  0  0
  138.9390   68.9799  229.1568 H   0  0  0  0  0  0  0  0  0  0  0  0
  141.9118   69.1192  228.4222 H   0  0  0  0  0  0  0  0  0  0  0  0
  141.3259   67.8913  229.3887 H   0  0  0  0  0  0  0  0  0  0  0  0
  141.4985   67.8208  226.4339 H   0  0  0  0  0  0  0  0  0  0  0  0
  140.5908   66.6407  227.1963 H   0  0  0  0  0  0  0  0  0  0  0  0
  141.4198   70.5643  226.7336 H   0  0  0  0  0  0  0  0  0  0  0  0
  141.6375   72.2726  224.9916 H   0  0  0  0  0  0  0  0  0  0  0  0
  141.0657   75.1409  222.3152 H   0  0  0  0  0  0  0  0  0  0  0  0
  1  2  1  0
  2  3  2  0
  3  4  1  0
  4  5  2  0
  5  6  1  0
  6  7  2  0
  6  8  1  0
  8  9  1  0
  9 10  1  0
 10 11  2  0
 11 12  1  0
 12 13  2  0
 13 14  1  0
 14 15  1  0
 15 16  2  0
 15 17  1  0
 17 18  1  0
 18 19  2  0
 19 20  1  0
 20 21  2  0
 21 22  1  0
 22 23  1  0
 23 24  1  0
 24 25  1  0
 21 26  1  0
 26 27  2  0
 14 28  2  0
  9 29  2  0
  7  2  1  0
 28 10  1  0
 29  5  1  0
 27 18  1  0
 25 22  1  0
  1 30  1  0
  1 31  1  0
  1 32  1  0
  3 33  1  0
  4 34  1  0
  7 35  1  0
  8 36  1  0
  8 37  1  0
 11 38  1  0
 12 39  1  0
 13 40  1  0
 17 41  1  0
 19 42  1  0
 20 43  1  0
 22 44  1  0
 23 45  1  0
 23 46  1  0
 24 47  1  0
 24 48  1  0
 25 49  1  0
 25 50  1  0
 26 51  1  0
 27 52  1  0
 28 53  1  0
M  END
>  <smiles>  (26) 
Cc1ccc2c(c1)CC(c1cccc(C(=O)Nc3ccc(C4CCC4)cc3)c1)=N2

>  <score_type>  (26) 
oracle

>  <origin>  (26) 
autodockgpu

>  <m_score__min__energy>  (26) 
-8.8800000000000008

>  <m_primary>  (26) 
energy

>  <rmsd>  (26) 
9.40882446356887

>  <m_score__min__rmsd>  (26) 
9.40882446356887

>  <meeko>  (26) 
{"free_energy": -8.87, "intermolecular_energy": -10.06, "internal_energy": -0.94, "cluster_size": 35, "cluster_id": 1, "rank_in_cluster": 8}

>  <energy>  (26) 
-8.81

>  <cluster_rmsd>  (26) 
0.27

>  <cluster>  (26) 
1

$$$$

     RDKit          3D

 53 57  0  0  0  0  0  0  0  0999 V2000
  141.0830   83.3640  221.5360 C   0  0  0  0  0  0  0  0  0  0  0  0
  141.1820   81.8760  221.6960 C   0  0  0  0  0  0  0  0  0  0  0  0
  141.2790   81.3360  222.9650 C   0  0  0  0  0  0  0  0  0  0  0  0
  141.3710   79.9740  223.1600 C   0  0  0  0  0  0  0  0  0  0  0  0
  141.3670   79.1230  222.0570 C   0  0  0  0  0  0  0  0  0  0  0  0
  141.2700   79.6790  220.8010 C   0  0  0  0  0  0  0  0  0  0  0  0
  141.1770   81.0390  220.5930 C   0  0  0  0  0  0  0  0  0  0  0  0
  141.2900   78.5370  219.8290 C   0  0  0  0  0  0  0  0  0  0  0  0
  141.4060   77.3540  220.6960 C   0  0  0  0  0  0  0  0  0  0  0  0
  141.4720   75.9540  220.2960 C   0  0  0  0  0  0  0  0  0  0  0  0
  141.7240   75.6460  218.9610 C   0  0  0  0  0  0  0  0  0  0  0  0
  141.7850   74.3150  218.5900 C   0  0  0  0  0  0  0  0  0  0  0  0
  141.6000   73.3240  219.5250 C   0  0  0  0  0  0  0  0  0  0  0  0
  141.3490   73.6190  220.8490 C   0  0  0  0  0  0  0  0  0  0  0  0
  141.1460   72.5980  221.8720 C   0  0  0  0  0  0  0  0  0  0  0  0
  141.8360   71.5230  221.8780 O   0  0  0  0  0  0  0  0  0  0  0  0
  140.1890   72.7180  222.9120 N   0  0  0  0  0  0  0  0  0  0  0  0
  140.0130   71.7120  223.8900 C   0  0  0  0  0  0  0  0  0  0  0  0
  139.1640   70.6350  223.7460 C   0  0  0  0  0  0  0  0  0  0  0  0
  139.0200   69.6750  224.7240 C   0  0  0  0  0  0  0  0  0  0  0  0
  139.7220   69.7430  225.9090 C   0  0  0  0  0  0  0  0  0  0  0  0
  139.5960   68.7290  226.9910 C   0  0  0  0  0  0  0  0  0  0  0  0
  139.8840   69.2280  228.3780 C   0  0  0  0  0  0  0  0  0  0  0  0
  141.1410   68.4100  228.3870 C   0  0  0  0  0  0  0  0  0  0  0  0
  140.6810   67.7320  227.1300 C   0  0  0  0  0  0  0  0  0  0  0  0
  140.5760   70.8310  226.0470 C   0  0  0  0  0  0  0  0  0  0  0  0
  140.7220   71.7930  225.0700 C   0  0  0  0  0  0  0  0  0  0  0  0
  141.2890   74.9350  221.2120 C   0  0  0  0  0  0  0  0  0  0  0  0
  141.4470   77.7200  221.9420 N   0  0  0  0  0  0  0  0  0  0  0  0
  141.0514   83.8382  222.5281 H   0  0  0  0  0  0  0  0  0  0  0  0
  141.9586   83.7322  220.9813 H   0  0  0  0  0  0  0  0  0  0  0  0
  140.1663   83.6129  220.9813 H   0  0  0  0  0  0  0  0  0  0  0  0
  141.2829   82.0066  223.8370 H   0  0  0  0  0  0  0  0  0  0  0  0
  141.4469   79.5631  224.1775 H   0  0  0  0  0  0  0  0  0  0  0  0
  141.1007   81.4491  219.5752 H   0  0  0  0  0  0  0  0  0  0  0  0
  140.3611   78.5044  219.2407 H   0  0  0  0  0  0  0  0  0  0  0  0
  142.1049   78.6126  219.0940 H   0  0  0  0  0  0  0  0  0  0  0  0
  141.8712   76.4439  218.2182 H   0  0  0  0  0  0  0  0  0  0  0  0
  141.9826   74.0478  217.5414 H   0  0  0  0  0  0  0  0  0  0  0  0
  141.6534   72.2714  219.2099 H   0  0  0  0  0  0  0  0  0  0  0  0
  139.5930   73.5590  222.9730 H   0  0  0  0  0  0  0  0  0  0  0  0
  138.5813   70.5388  222.8180 H   0  0  0  0  0  0  0  0  0  0  0  0
  138.3295   68.8355  224.5557 H   0  0  0  0  0  0  0  0  0  0  0  0
  138.5902   68.3903  226.7017 H   0  0  0  0  0  0  0  0  0  0  0  0
  140.0501   70.3134  228.4429 H   0  0  0  0  0  0  0  0  0  0  0  0
  139.1386   69.1260  229.1805 H   0  0  0  0  0  0  0  0  0  0  0  0
  142.0640   68.9974  228.2726 H   0  0  0  0  0  0  0  0  0  0  0  0
  141.4266   67.8236  229.2727 H   0  0  0  0  0  0  0  0  0  0  0  0
  141.4174   67.7525  226.3131 H   0  0  0  0  0  0  0  0  0  0  0  0
  140.4525   66.6560  227.1289 H   0  0  0  0  0  0  0  0  0  0  0  0
  141.1597   70.9286  226.9742 H   0  0  0  0  0  0  0  0  0  0  0  0
  141.4116   72.6343  225.2337 H   0  0  0  0  0  0  0  0  0  0  0  0
  141.0894   75.1908  222.2631 H   0  0  0  0  0  0  0  0  0  0  0  0
  1  2  1  0
  2  3  2  0
  3  4  1  0
  4  5  2  0
  5  6  1  0
  6  7  2  0
  6  8  1  0
  8  9  1  0
  9 10  1  0
 10 11  2  0
 11 12  1  0
 12 13  2  0
 13 14  1  0
 14 15  1  0
 15 16  2  0
 15 17  1  0
 17 18  1  0
 18 19  2  0
 19 20  1  0
 20 21  2  0
 21 22  1  0
 22 23  1  0
 23 24  1  0
 24 25  1  0
 21 26  1  0
 26 27  2  0
 14 28  2  0
  9 29  2  0
  7  2  1  0
 28 10  1  0
 29  5  1  0
 27 18  1  0
 25 22  1  0
  1 30  1  0
  1 31  1  0
  1 32  1  0
  3 33  1  0
  4 34  1  0
  7 35  1  0
  8 36  1  0
  8 37  1  0
 11 38  1  0
 12 39  1  0
 13 40  1  0
 17 41  1  0
 19 42  1  0
 20 43  1  0
 22 44  1  0
 23 45  1  0
 23 46  1  0
 24 47  1  0
 24 48  1  0
 25 49  1  0
 25 50  1  0
 26 51  1  0
 27 52  1  0
 28 53  1  0
M  END
>  <smiles>  (27) 
Cc1ccc2c(c1)CC(c1cccc(C(=O)Nc3ccc(C4CCC4)cc3)c1)=N2

>  <score_type>  (27) 
oracle

>  <origin>  (27) 
autodockgpu

>  <m_score__min__energy>  (27) 
-8.8800000000000008

>  <m_primary>  (27) 
energy

>  <rmsd>  (27) 
9.350332406512763

>  <m_score__min__rmsd>  (27) 
9.350332406512763

>  <meeko>  (27) 
{"free_energy": -8.82, "intermolecular_energy": -10.01, "internal_energy": -0.95, "cluster_size": 35, "cluster_id": 1, "rank_in_cluster": 25}

>  <energy>  (27) 
-8.81

>  <cluster_rmsd>  (27) 
0.23

>  <cluster>  (27) 
1

$$$$

     RDKit          3D

 53 57  0  0  0  0  0  0  0  0999 V2000
  141.1170   83.3510  221.5440 C   0  0  0  0  0  0  0  0  0  0  0  0
  141.2100   81.8610  221.6950 C   0  0  0  0  0  0  0  0  0  0  0  0
  141.5480   81.3260  222.9240 C   0  0  0  0  0  0  0  0  0  0  0  0
  141.6450   79.9620  223.1090 C   0  0  0  0  0  0  0  0  0  0  0  0
  141.3970   79.1070  222.0380 C   0  0  0  0  0  0  0  0  0  0  0  0
  141.0610   79.6590  220.8220 C   0  0  0  0  0  0  0  0  0  0  0  0
  140.9610   81.0200  220.6240 C   0  0  0  0  0  0  0  0  0  0  0  0
  140.8560   78.5130  219.8780 C   0  0  0  0  0  0  0  0  0  0  0  0
  141.1170   77.3310  220.7150 C   0  0  0  0  0  0  0  0  0  0  0  0
  141.0650   75.9270  220.3230 C   0  0  0  0  0  0  0  0  0  0  0  0
  141.0520   75.6070  218.9680 C   0  0  0  0  0  0  0  0  0  0  0  0
  141.0040   74.2730  218.6050 C   0  0  0  0  0  0  0  0  0  0  0  0
  140.9710   73.2910  219.5680 C   0  0  0  0  0  0  0  0  0  0  0  0
  140.9830   73.6000  220.9130 C   0  0  0  0  0  0  0  0  0  0  0  0
  140.9480   72.5900  221.9660 C   0  0  0  0  0  0  0  0  0  0  0  0
  141.7700   71.6120  221.9710 O   0  0  0  0  0  0  0  0  0  0  0  0
  140.0190   72.6150  223.0380 N   0  0  0  0  0  0  0  0  0  0  0  0
  140.0080   71.6230  224.0450 C   0  0  0  0  0  0  0  0  0  0  0  0
  140.7610   71.6850  225.1980 C   0  0  0  0  0  0  0  0  0  0  0  0
  140.7220   70.6950  226.1570 C   0  0  0  0  0  0  0  0  0  0  0  0
  139.9210   69.5820  226.0110 C   0  0  0  0  0  0  0  0  0  0  0  0
  139.8490   68.4910  227.0200 C   0  0  0  0  0  0  0  0  0  0  0  0
  139.7720   68.9400  228.4510 C   0  0  0  0  0  0  0  0  0  0  0  0
  141.1630   68.4220  228.6650 C   0  0  0  0  0  0  0  0  0  0  0  0
  141.0940   67.7510  227.3250 C   0  0  0  0  0  0  0  0  0  0  0  0
  139.1650   69.5270  224.8460 C   0  0  0  0  0  0  0  0  0  0  0  0
  139.2020   70.5150  223.8850 C   0  0  0  0  0  0  0  0  0  0  0  0
  141.0310   74.9180  221.2680 C   0  0  0  0  0  0  0  0  0  0  0  0
  141.4170   77.7020  221.9230 N   0  0  0  0  0  0  0  0  0  0  0  0
  141.0878   83.8193  222.5389 H   0  0  0  0  0  0  0  0  0  0  0  0
  141.9939   83.7190  220.9912 H   0  0  0  0  0  0  0  0  0  0  0  0
  140.2011   83.6071  220.9912 H   0  0  0  0  0  0  0  0  0  0  0  0
  141.7434   82.0005  223.7707 H   0  0  0  0  0  0  0  0  0  0  0  0
  141.9158   79.5536  224.0938 H   0  0  0  0  0  0  0  0  0  0  0  0
  140.6899   81.4275  219.6389 H   0  0  0  0  0  0  0  0  0  0  0  0
  139.8266   78.5015  219.4906 H   0  0  0  0  0  0  0  0  0  0  0  0
  141.5065   78.5643  218.9925 H   0  0  0  0  0  0  0  0  0  0  0  0
  141.0793   76.3972  218.2033 H   0  0  0  0  0  0  0  0  0  0  0  0
  140.9921   73.9959  217.5405 H   0  0  0  0  0  0  0  0  0  0  0  0
  140.9342   72.2359  219.2590 H   0  0  0  0  0  0  0  0  0  0  0  0
  139.3220   73.3750  223.1020 H   0  0  0  0  0  0  0  0  0  0  0  0
  141.4156   72.5543  225.3586 H   0  0  0  0  0  0  0  0  0  0  0  0
  141.3438   70.7953  227.0588 H   0  0  0  0  0  0  0  0  0  0  0  0
  139.0132   67.9603  226.5407 H   0  0  0  0  0  0  0  0  0  0  0  0
  139.6696   70.0277  228.5790 H   0  0  0  0  0  0  0  0  0  0  0  0
  138.9440   68.6180  229.0996 H   0  0  0  0  0  0  0  0  0  0  0  0
  141.9313   69.2057  228.7397 H   0  0  0  0  0  0  0  0  0  0  0  0
  141.4201   67.8514  229.5696 H   0  0  0  0  0  0  0  0  0  0  0  0
  141.9348   67.9921  226.6580 H   0  0  0  0  0  0  0  0  0  0  0  0
  141.1230   66.6540  227.2490 H   0  0  0  0  0  0  0  0  0  0  0  0
  138.5095   68.6586  224.6838 H   0  0  0  0  0  0  0  0  0  0  0  0
  138.5823   70.4187  222.9813 H   0  0  0  0  0  0  0  0  0  0  0  0
  141.0430   75.1843  222.3352 H   0  0  0  0  0  0  0  0  0  0  0  0
  1  2  1  0
  2  3  2  0
  3  4  1  0
  4  5  2  0
  5  6  1  0
  6  7  2  0
  6  8  1  0
  8  9  1  0
  9 10  1  0
 10 11  2  0
 11 12  1  0
 12 13  2  0
 13 14  1  0
 14 15  1  0
 15 16  2  0
 15 17  1  0
 17 18  1  0
 18 19  2  0
 19 20  1  0
 20 21  2  0
 21 22  1  0
 22 23  1  0
 23 24  1  0
 24 25  1  0
 21 26  1  0
 26 27  2  0
 14 28  2  0
  9 29  2  0
  7  2  1  0
 28 10  1  0
 29  5  1  0
 27 18  1  0
 25 22  1  0
  1 30  1  0
  1 31  1  0
  1 32  1  0
  3 33  1  0
  4 34  1  0
  7 35  1  0
  8 36  1  0
  8 37  1  0
 11 38  1  0
 12 39  1  0
 13 40  1  0
 17 41  1  0
 19 42  1  0
 20 43  1  0
 22 44  1  0
 23 45  1  0
 23 46  1  0
 24 47  1  0
 24 48  1  0
 25 49  1  0
 25 50  1  0
 26 51  1  0
 27 52  1  0
 28 53  1  0
M  END
>  <smiles>  (28) 
Cc1ccc2c(c1)CC(c1cccc(C(=O)Nc3ccc(C4CCC4)cc3)c1)=N2

>  <score_type>  (28) 
oracle

>  <origin>  (28) 
autodockgpu

>  <m_score__min__energy>  (28) 
-8.8800000000000008

>  <m_primary>  (28) 
energy

>  <rmsd>  (28) 
9.49303440493558

>  <m_score__min__rmsd>  (28) 
9.49303440493558

>  <meeko>  (28) 
{"free_energy": -8.8, "intermolecular_energy": -9.99, "internal_energy": -0.95, "cluster_size": 35, "cluster_id": 1, "rank_in_cluster": 31}

>  <energy>  (28) 
-8.81

>  <cluster_rmsd>  (28) 
0.24

>  <cluster>  (28) 
1

$$$$

     RDKit          3D

 53 57  0  0  0  0  0  0  0  0999 V2000
  141.1960   83.3630  221.5920 C   0  0  0  0  0  0  0  0  0  0  0  0
  141.2770   81.8720  221.7360 C   0  0  0  0  0  0  0  0  0  0  0  0
  141.5920   81.3280  222.9670 C   0  0  0  0  0  0  0  0  0  0  0  0
  141.6780   79.9630  223.1470 C   0  0  0  0  0  0  0  0  0  0  0  0
  141.4420   79.1150  222.0680 C   0  0  0  0  0  0  0  0  0  0  0  0
  141.1300   79.6750  220.8500 C   0  0  0  0  0  0  0  0  0  0  0  0
  141.0410   81.0370  220.6570 C   0  0  0  0  0  0  0  0  0  0  0  0
  140.9340   78.5350  219.8960 C   0  0  0  0  0  0  0  0  0  0  0  0
  141.1730   77.3470  220.7310 C   0  0  0  0  0  0  0  0  0  0  0  0
  141.1190   75.9460  220.3320 C   0  0  0  0  0  0  0  0  0  0  0  0
  141.1180   75.6330  218.9750 C   0  0  0  0  0  0  0  0  0  0  0  0
  141.0680   74.3010  218.6040 C   0  0  0  0  0  0  0  0  0  0  0  0
  141.0210   73.3150  219.5620 C   0  0  0  0  0  0  0  0  0  0  0  0
  141.0220   73.6160  220.9080 C   0  0  0  0  0  0  0  0  0  0  0  0
  140.9730   72.6010  221.9550 C   0  0  0  0  0  0  0  0  0  0  0  0
  141.7630   71.5970  221.9390 O   0  0  0  0  0  0  0  0  0  0  0  0
  140.0650   72.6480  223.0440 N   0  0  0  0  0  0  0  0  0  0  0  0
  140.0390   71.6500  224.0450 C   0  0  0  0  0  0  0  0  0  0  0  0
  140.8720   71.6370  225.1430 C   0  0  0  0  0  0  0  0  0  0  0  0
  140.8160   70.6440  226.0980 C   0  0  0  0  0  0  0  0  0  0  0  0
  139.9170   69.6030  226.0020 C   0  0  0  0  0  0  0  0  0  0  0  0
  139.8220   68.5120  227.0090 C   0  0  0  0  0  0  0  0  0  0  0  0
  139.7230   68.9600  228.4400 C   0  0  0  0  0  0  0  0  0  0  0  0
  141.1080   68.4360  228.6760 C   0  0  0  0  0  0  0  0  0  0  0  0
  141.0580   67.7650  227.3340 C   0  0  0  0  0  0  0  0  0  0  0  0
  139.0810   69.6230  224.8930 C   0  0  0  0  0  0  0  0  0  0  0  0
  139.1350   70.6150  223.9360 C   0  0  0  0  0  0  0  0  0  0  0  0
  141.0720   74.9320  221.2710 C   0  0  0  0  0  0  0  0  0  0  0  0
  141.4560   77.7100  221.9470 N   0  0  0  0  0  0  0  0  0  0  0  0
  141.1708   83.8268  222.5891 H   0  0  0  0  0  0  0  0  0  0  0  0
  142.0757   83.7265  221.0406 H   0  0  0  0  0  0  0  0  0  0  0  0
  140.2821   83.6290  221.0406 H   0  0  0  0  0  0  0  0  0  0  0  0
  141.7778   81.9969  223.8202 H   0  0  0  0  0  0  0  0  0  0  0  0
  141.9307   79.5482  224.1340 H   0  0  0  0  0  0  0  0  0  0  0  0
  140.7885   81.4506  219.6695 H   0  0  0  0  0  0  0  0  0  0  0  0
  139.9114   78.5321  219.4908 H   0  0  0  0  0  0  0  0  0  0  0  0
  141.6000   78.5869  219.0221 H   0  0  0  0  0  0  0  0  0  0  0  0
  141.1561   76.4272  218.2149 H   0  0  0  0  0  0  0  0  0  0  0  0
  141.0658   74.0293  217.5381 H   0  0  0  0  0  0  0  0  0  0  0  0
  140.9817   72.2617  219.2472 H   0  0  0  0  0  0  0  0  0  0  0  0
  139.3940   73.4300  223.1250 H   0  0  0  0  0  0  0  0  0  0  0  0
  141.6069   72.4468  225.2616 H   0  0  0  0  0  0  0  0  0  0  0  0
  141.5038   70.6832  226.9555 H   0  0  0  0  0  0  0  0  0  0  0  0
  138.9912   67.9865  226.5154 H   0  0  0  0  0  0  0  0  0  0  0  0
  139.6230   70.0480  228.5676 H   0  0  0  0  0  0  0  0  0  0  0  0
  138.8831   68.6408  229.0745 H   0  0  0  0  0  0  0  0  0  0  0  0
  141.8783   69.2164  228.7633 H   0  0  0  0  0  0  0  0  0  0  0  0
  141.3479   67.8640  229.5845 H   0  0  0  0  0  0  0  0  0  0  0  0
  141.9110   68.0018  226.6811 H   0  0  0  0  0  0  0  0  0  0  0  0
  141.0826   66.6679  227.2580 H   0  0  0  0  0  0  0  0  0  0  0  0
  138.3452   68.8142  224.7729 H   0  0  0  0  0  0  0  0  0  0  0  0
  138.4493   70.5798  223.0766 H   0  0  0  0  0  0  0  0  0  0  0  0
  141.0750   75.1922  222.3398 H   0  0  0  0  0  0  0  0  0  0  0  0
  1  2  1  0
  2  3  2  0
  3  4  1  0
  4  5  2  0
  5  6  1  0
  6  7  2  0
  6  8  1  0
  8  9  1  0
  9 10  1  0
 10 11  2  0
 11 12  1  0
 12 13  2  0
 13 14  1  0
 14 15  1  0
 15 16  2  0
 15 17  1  0
 17 18  1  0
 18 19  2  0
 19 20  1  0
 20 21  2  0
 21 22  1  0
 22 23  1  0
 23 24  1  0
 24 25  1  0
 21 26  1  0
 26 27  2  0
 14 28  2  0
  9 29  2  0
  7  2  1  0
 28 10  1  0
 29  5  1  0
 27 18  1  0
 25 22  1  0
  1 30  1  0
  1 31  1  0
  1 32  1  0
  3 33  1  0
  4 34  1  0
  7 35  1  0
  8 36  1  0
  8 37  1  0
 11 38  1  0
 12 39  1  0
 13 40  1  0
 17 41  1  0
 19 42  1  0
 20 43  1  0
 22 44  1  0
 23 45  1  0
 23 46  1  0
 24 47  1  0
 24 48  1  0
 25 49  1  0
 25 50  1  0
 26 51  1  0
 27 52  1  0
 28 53  1  0
M  END
>  <smiles>  (29) 
Cc1ccc2c(c1)CC(c1cccc(C(=O)Nc3ccc(C4CCC4)cc3)c1)=N2

>  <score_type>  (29) 
oracle

>  <origin>  (29) 
autodockgpu

>  <m_score__min__energy>  (29) 
-8.8800000000000008

>  <m_primary>  (29) 
energy

>  <rmsd>  (29) 
9.477573736673337

>  <m_score__min__rmsd>  (29) 
9.477573736673337

>  <meeko>  (29) 
{"free_energy": -8.8, "intermolecular_energy": -10.0, "internal_energy": -0.95, "cluster_size": 35, "cluster_id": 1, "rank_in_cluster": 29}

>  <energy>  (29) 
-8.8

>  <cluster_rmsd>  (29) 
0.26

>  <cluster>  (29) 
1

$$$$

     RDKit          3D

 53 57  0  0  0  0  0  0  0  0999 V2000
  140.9690   68.1470  229.0890 C   0  0  0  0  0  0  0  0  0  0  0  0
  140.5630   68.5240  227.6950 C   0  0  0  0  0  0  0  0  0  0  0  0
  139.6760   67.7160  227.0070 C   0  0  0  0  0  0  0  0  0  0  0  0
  139.2740   68.0240  225.7240 C   0  0  0  0  0  0  0  0  0  0  0  0
  139.7700   69.1700  225.1070 C   0  0  0  0  0  0  0  0  0  0  0  0
  140.6520   69.9610  225.8090 C   0  0  0  0  0  0  0  0  0  0  0  0
  141.0620   69.6650  227.0910 C   0  0  0  0  0  0  0  0  0  0  0  0
  141.0090   71.1040  224.9050 C   0  0  0  0  0  0  0  0  0  0  0  0
  140.2340   70.8270  223.6850 C   0  0  0  0  0  0  0  0  0  0  0  0
  140.1880   71.6100  222.4560 C   0  0  0  0  0  0  0  0  0  0  0  0
  140.1550   70.9440  221.2340 C   0  0  0  0  0  0  0  0  0  0  0  0
  140.1100   71.6950  220.0730 C   0  0  0  0  0  0  0  0  0  0  0  0
  140.1000   73.0690  220.1340 C   0  0  0  0  0  0  0  0  0  0  0  0
  140.1320   73.7370  221.3410 C   0  0  0  0  0  0  0  0  0  0  0  0
  140.1230   75.1930  221.4500 C   0  0  0  0  0  0  0  0  0  0  0  0
  139.0570   75.8640  221.2370 O   0  0  0  0  0  0  0  0  0  0  0  0
  141.2690   75.9550  221.7910 N   0  0  0  0  0  0  0  0  0  0  0  0
  141.2320   77.3650  221.8890 C   0  0  0  0  0  0  0  0  0  0  0  0
  141.0560   78.0520  223.0720 C   0  0  0  0  0  0  0  0  0  0  0  0
  141.0240   79.4290  223.1260 C   0  0  0  0  0  0  0  0  0  0  0  0
  141.1670   80.1980  221.9900 C   0  0  0  0  0  0  0  0  0  0  0  0
  141.1390   81.6850  222.0040 C   0  0  0  0  0  0  0  0  0  0  0  0
  139.7700   82.3050  222.0190 C   0  0  0  0  0  0  0  0  0  0  0  0
  139.9950   82.7790  220.6140 C   0  0  0  0  0  0  0  0  0  0  0  0
  141.4390   82.3920  220.7380 C   0  0  0  0  0  0  0  0  0  0  0  0
  141.3440   79.4990  220.8020 C   0  0  0  0  0  0  0  0  0  0  0  0
  141.3750   78.1210  220.7450 C   0  0  0  0  0  0  0  0  0  0  0  0
  140.1760   72.9930  222.4860 C   0  0  0  0  0  0  0  0  0  0  0  0
  139.5490   69.7320  223.8340 N   0  0  0  0  0  0  0  0  0  0  0  0
  140.3620   68.7107  229.8128 H   0  0  0  0  0  0  0  0  0  0  0  0
  140.8102   67.0688  229.2382 H   0  0  0  0  0  0  0  0  0  0  0  0
  142.0325   68.3851  229.2382 H   0  0  0  0  0  0  0  0  0  0  0  0
  139.2835   66.8103  227.4924 H   0  0  0  0  0  0  0  0  0  0  0  0
  138.5673   67.3698  225.1923 H   0  0  0  0  0  0  0  0  0  0  0  0
  141.7689   70.3199  227.6215 H   0  0  0  0  0  0  0  0  0  0  0  0
  140.7129   72.0654  225.3499 H   0  0  0  0  0  0  0  0  0  0  0  0
  142.0902   71.1835  224.7188 H   0  0  0  0  0  0  0  0  0  0  0  0
  140.1645   69.8448  221.1924 H   0  0  0  0  0  0  0  0  0  0  0  0
  140.0821   71.1906  219.0959 H   0  0  0  0  0  0  0  0  0  0  0  0
  140.0657   73.6484  219.1996 H   0  0  0  0  0  0  0  0  0  0  0  0
  142.1700   75.4830  221.9770 H   0  0  0  0  0  0  0  0  0  0  0  0
  140.9370   77.4812  224.0048 H   0  0  0  0  0  0  0  0  0  0  0  0
  140.8812   79.9258  224.0970 H   0  0  0  0  0  0  0  0  0  0  0  0
  141.8264   81.7944  222.8558 H   0  0  0  0  0  0  0  0  0  0  0  0
  138.9473   81.5828  222.1267 H   0  0  0  0  0  0  0  0  0  0  0  0
  139.4775   83.0087  222.8123 H   0  0  0  0  0  0  0  0  0  0  0  0
  139.4391   82.2138  219.8514 H   0  0  0  0  0  0  0  0  0  0  0  0
  139.7078   83.7961  220.3090 H   0  0  0  0  0  0  0  0  0  0  0  0
  141.7993   81.7363  219.9316 H   0  0  0  0  0  0  0  0  0  0  0  0
  142.2267   83.1589  220.7011 H   0  0  0  0  0  0  0  0  0  0  0  0
  141.4644   80.0681  219.8684 H   0  0  0  0  0  0  0  0  0  0  0  0
  141.5154   77.6198  219.7759 H   0  0  0  0  0  0  0  0  0  0  0  0
  140.2026   73.5075  223.4579 H   0  0  0  0  0  0  0  0  0  0  0  0
  1  2  1  0
  2  3  2  0
  3  4  1  0
  4  5  2  0
  5  6  1  0
  6  7  2  0
  6  8  1  0
  8  9  1  0
  9 10  1  0
 10 11  2  0
 11 12  1  0
 12 13  2  0
 13 14  1  0
 14 15  1  0
 15 16  2  0
 15 17  1  0
 17 18  1  0
 18 19  2  0
 19 20  1  0
 20 21  2  0
 21 22  1  0
 22 23  1  0
 23 24  1  0
 24 25  1  0
 21 26  1  0
 26 27  2  0
 14 28  2  0
  9 29  2  0
  7  2  1  0
 28 10  1  0
 29  5  1  0
 27 18  1  0
 25 22  1  0
  1 30  1  0
  1 31  1  0
  1 32  1  0
  3 33  1  0
  4 34  1  0
  7 35  1  0
  8 36  1  0
  8 37  1  0
 11 38  1  0
 12 39  1  0
 13 40  1  0
 17 41  1  0
 19 42  1  0
 20 43  1  0
 22 44  1  0
 23 45  1  0
 23 46  1  0
 24 47  1  0
 24 48  1  0
 25 49  1  0
 25 50  1  0
 26 51  1  0
 27 52  1  0
 28 53  1  0
M  END
>  <smiles>  (30) 
Cc1ccc2c(c1)CC(c1cccc(C(=O)Nc3ccc(C4CCC4)cc3)c1)=N2

>  <score_type>  (30) 
oracle

>  <origin>  (30) 
autodockgpu

>  <m_score__min__energy>  (30) 
-8.8800000000000008

>  <m_primary>  (30) 
energy

>  <rmsd>  (30) 
4.101486220873555

>  <m_score__min__rmsd>  (30) 
4.101486220873555

>  <meeko>  (30) 
{"free_energy": -8.68, "intermolecular_energy": -9.88, "internal_energy": -0.96, "cluster_size": 15, "cluster_id": 2, "rank_in_cluster": 4}

>  <energy>  (30) 
-8.8

>  <cluster_rmsd>  (30) 
0.2

>  <cluster>  (30) 
1

$$$$

     RDKit          3D

 53 57  0  0  0  0  0  0  0  0999 V2000
  141.1210   83.3250  221.5780 C   0  0  0  0  0  0  0  0  0  0  0  0
  141.2120   81.8360  221.7320 C   0  0  0  0  0  0  0  0  0  0  0  0
  141.4000   81.2960  222.9900 C   0  0  0  0  0  0  0  0  0  0  0  0
  141.4890   79.9320  223.1790 C   0  0  0  0  0  0  0  0  0  0  0  0
  141.3880   79.0810  222.0820 C   0  0  0  0  0  0  0  0  0  0  0  0
  141.2000   79.6380  220.8360 C   0  0  0  0  0  0  0  0  0  0  0  0
  141.1100   80.9990  220.6340 C   0  0  0  0  0  0  0  0  0  0  0  0
  141.1290   78.4960  219.8670 C   0  0  0  0  0  0  0  0  0  0  0  0
  141.2960   77.3110  220.7240 C   0  0  0  0  0  0  0  0  0  0  0  0
  141.3110   75.9100  220.3220 C   0  0  0  0  0  0  0  0  0  0  0  0
  141.4440   75.5990  218.9710 C   0  0  0  0  0  0  0  0  0  0  0  0
  141.4590   74.2670  218.5980 C   0  0  0  0  0  0  0  0  0  0  0  0
  141.3430   73.2780  219.5470 C   0  0  0  0  0  0  0  0  0  0  0  0
  141.2110   73.5770  220.8870 C   0  0  0  0  0  0  0  0  0  0  0  0
  141.0850   72.5600  221.9260 C   0  0  0  0  0  0  0  0  0  0  0  0
  141.8140   71.5100  221.9140 O   0  0  0  0  0  0  0  0  0  0  0  0
  140.1660   72.6540  223.0010 N   0  0  0  0  0  0  0  0  0  0  0  0
  140.0650   71.6520  223.9940 C   0  0  0  0  0  0  0  0  0  0  0  0
  140.7140   71.7020  225.2090 C   0  0  0  0  0  0  0  0  0  0  0  0
  140.5910   70.7030  226.1520 C   0  0  0  0  0  0  0  0  0  0  0  0
  139.8050   69.5930  225.9250 C   0  0  0  0  0  0  0  0  0  0  0  0
  139.6440   68.4920  226.9140 C   0  0  0  0  0  0  0  0  0  0  0  0
  139.7710   68.8960  228.3550 C   0  0  0  0  0  0  0  0  0  0  0  0
  141.0700   68.1510  228.4250 C   0  0  0  0  0  0  0  0  0  0  0  0
  140.7710   67.5480  227.0840 C   0  0  0  0  0  0  0  0  0  0  0  0
  139.1540   69.5500  224.6980 C   0  0  0  0  0  0  0  0  0  0  0  0
  139.2760   70.5470  223.7540 C   0  0  0  0  0  0  0  0  0  0  0  0
  141.1970   74.8940  221.2530 C   0  0  0  0  0  0  0  0  0  0  0  0
  141.4390   77.6770  221.9630 N   0  0  0  0  0  0  0  0  0  0  0  0
  141.0923   83.7953  222.5720 H   0  0  0  0  0  0  0  0  0  0  0  0
  141.9985   83.6907  221.0245 H   0  0  0  0  0  0  0  0  0  0  0  0
  140.2055   83.5811  221.0245 H   0  0  0  0  0  0  0  0  0  0  0  0
  141.4803   81.9668  223.8581 H   0  0  0  0  0  0  0  0  0  0  0  0
  141.6385   79.5206  224.1881 H   0  0  0  0  0  0  0  0  0  0  0  0
  140.9607   81.4099  219.6246 H   0  0  0  0  0  0  0  0  0  0  0  0
  140.1569   78.4760  219.3527 H   0  0  0  0  0  0  0  0  0  0  0  0
  141.8854   78.5605  219.0709 H   0  0  0  0  0  0  0  0  0  0  0  0
  141.5351   76.3949  218.2172 H   0  0  0  0  0  0  0  0  0  0  0  0
  141.5643   73.9972  217.5368 H   0  0  0  0  0  0  0  0  0  0  0  0
  141.3558   72.2247  219.2300 H   0  0  0  0  0  0  0  0  0  0  0  0
  139.5410   73.4740  223.0790 H   0  0  0  0  0  0  0  0  0  0  0  0
  141.3524   72.5690  225.4344 H   0  0  0  0  0  0  0  0  0  0  0  0
  141.1316   70.7937  227.1057 H   0  0  0  0  0  0  0  0  0  0  0  0
  138.6921   68.1222  226.5051 H   0  0  0  0  0  0  0  0  0  0  0  0
  139.8621   69.9805  228.5146 H   0  0  0  0  0  0  0  0  0  0  0  0
  138.9628   68.6904  229.0724 H   0  0  0  0  0  0  0  0  0  0  0  0
  141.9610   68.7959  228.4425 H   0  0  0  0  0  0  0  0  0  0  0  0
  141.3092   67.5140  229.2893 H   0  0  0  0  0  0  0  0  0  0  0  0
  141.5767   67.6722  226.3455 H   0  0  0  0  0  0  0  0  0  0  0  0
  140.6110   66.4644  226.9829 H   0  0  0  0  0  0  0  0  0  0  0  0
  138.5147   68.6842  224.4706 H   0  0  0  0  0  0  0  0  0  0  0  0
  138.7379   70.4601  222.7985 H   0  0  0  0  0  0  0  0  0  0  0  0
  141.0922   75.1525  222.3170 H   0  0  0  0  0  0  0  0  0  0  0  0
  1  2  1  0
  2  3  2  0
  3  4  1  0
  4  5  2  0
  5  6  1  0
  6  7  2  0
  6  8  1  0
  8  9  1  0
  9 10  1  0
 10 11  2  0
 11 12  1  0
 12 13  2  0
 13 14  1  0
 14 15  1  0
 15 16  2  0
 15 17  1  0
 17 18  1  0
 18 19  2  0
 19 20  1  0
 20 21  2  0
 21 22  1  0
 22 23  1  0
 23 24  1  0
 24 25  1  0
 21 26  1  0
 26 27  2  0
 14 28  2  0
  9 29  2  0
  7  2  1  0
 28 10  1  0
 29  5  1  0
 27 18  1  0
 25 22  1  0
  1 30  1  0
  1 31  1  0
  1 32  1  0
  3 33  1  0
  4 34  1  0
  7 35  1  0
  8 36  1  0
  8 37  1  0
 11 38  1  0
 12 39  1  0
 13 40  1  0
 17 41  1  0
 19 42  1  0
 20 43  1  0
 22 44  1  0
 23 45  1  0
 23 46  1  0
 24 47  1  0
 24 48  1  0
 25 49  1  0
 25 50  1  0
 26 51  1  0
 27 52  1  0
 28 53  1  0
M  END
>  <smiles>  (31) 
Cc1ccc2c(c1)CC(c1cccc(C(=O)Nc3ccc(C4CCC4)cc3)c1)=N2

>  <score_type>  (31) 
oracle

>  <origin>  (31) 
autodockgpu

>  <m_score__min__energy>  (31) 
-8.8800000000000008

>  <m_primary>  (31) 
energy

>  <rmsd>  (31) 
9.494781218361792

>  <m_score__min__rmsd>  (31) 
9.494781218361792

>  <meeko>  (31) 
{"free_energy": -8.8, "intermolecular_energy": -10.0, "internal_energy": -0.95, "cluster_size": 35, "cluster_id": 1, "rank_in_cluster": 30}

>  <energy>  (31) 
-8.8

>  <cluster_rmsd>  (31) 
0.3

>  <cluster>  (31) 
1

$$$$

     RDKit          3D

 53 57  0  0  0  0  0  0  0  0999 V2000
  141.0720   83.3580  221.5470 C   0  0  0  0  0  0  0  0  0  0  0  0
  141.1770   81.8700  221.7020 C   0  0  0  0  0  0  0  0  0  0  0  0
  141.4440   81.3370  222.9490 C   0  0  0  0  0  0  0  0  0  0  0  0
  141.5490   79.9750  223.1390 C   0  0  0  0  0  0  0  0  0  0  0  0
  141.3840   79.1180  222.0540 C   0  0  0  0  0  0  0  0  0  0  0  0
  141.1180   79.6680  220.8200 C   0  0  0  0  0  0  0  0  0  0  0  0
  141.0110   81.0270  220.6160 C   0  0  0  0  0  0  0  0  0  0  0  0
  140.9910   78.5200  219.8620 C   0  0  0  0  0  0  0  0  0  0  0  0
  141.2150   77.3410  220.7130 C   0  0  0  0  0  0  0  0  0  0  0  0
  141.2100   75.9380  220.3180 C   0  0  0  0  0  0  0  0  0  0  0  0
  141.2770   75.6190  218.9640 C   0  0  0  0  0  0  0  0  0  0  0  0
  141.2730   74.2850  218.5970 C   0  0  0  0  0  0  0  0  0  0  0  0
  141.2030   73.3020  219.5560 C   0  0  0  0  0  0  0  0  0  0  0  0
  141.1370   73.6080  220.8990 C   0  0  0  0  0  0  0  0  0  0  0  0
  141.0610   72.5950  221.9480 C   0  0  0  0  0  0  0  0  0  0  0  0
  141.8350   71.5780  221.9410 O   0  0  0  0  0  0  0  0  0  0  0  0
  140.1450   72.6600  223.0280 N   0  0  0  0  0  0  0  0  0  0  0  0
  140.0930   71.6640  224.0310 C   0  0  0  0  0  0  0  0  0  0  0  0
  140.7360   71.7590  225.2460 C   0  0  0  0  0  0  0  0  0  0  0  0
  140.6620   70.7650  226.1980 C   0  0  0  0  0  0  0  0  0  0  0  0
  139.9350   69.6130  225.9810 C   0  0  0  0  0  0  0  0  0  0  0  0
  139.8290   68.5150  226.9810 C   0  0  0  0  0  0  0  0  0  0  0  0
  139.7080   68.9550  228.4120 C   0  0  0  0  0  0  0  0  0  0  0  0
  141.0910   68.4320  228.6650 C   0  0  0  0  0  0  0  0  0  0  0  0
  141.0610   67.7690  227.3190 C   0  0  0  0  0  0  0  0  0  0  0  0
  139.2900   69.5250  224.7540 C   0  0  0  0  0  0  0  0  0  0  0  0
  139.3630   70.5170  223.8000 C   0  0  0  0  0  0  0  0  0  0  0  0
  141.1410   74.9260  221.2580 C   0  0  0  0  0  0  0  0  0  0  0  0
  141.4320   77.7140  221.9390 N   0  0  0  0  0  0  0  0  0  0  0  0
  141.0388   83.8287  222.5406 H   0  0  0  0  0  0  0  0  0  0  0  0
  141.9460   83.7316  220.9933 H   0  0  0  0  0  0  0  0  0  0  0  0
  140.1542   83.6051  220.9933 H   0  0  0  0  0  0  0  0  0  0  0  0
  141.5754   82.0126  223.8071 H   0  0  0  0  0  0  0  0  0  0  0  0
  141.7613   79.5692  224.1391 H   0  0  0  0  0  0  0  0  0  0  0  0
  140.7990   81.4318  219.6154 H   0  0  0  0  0  0  0  0  0  0  0  0
  139.9889   78.4941  219.4090 H   0  0  0  0  0  0  0  0  0  0  0  0
  141.6960   78.5827  219.0200 H   0  0  0  0  0  0  0  0  0  0  0  0
  141.3319   76.4109  218.2025 H   0  0  0  0  0  0  0  0  0  0  0  0
  141.3260   74.0095  217.5334 H   0  0  0  0  0  0  0  0  0  0  0  0
  141.1996   72.2470  219.2446 H   0  0  0  0  0  0  0  0  0  0  0  0
  139.4860   73.4530  223.1030 H   0  0  0  0  0  0  0  0  0  0  0  0
  141.3290   72.6595  225.4638 H   0  0  0  0  0  0  0  0  0  0  0  0
  141.1945   70.8932  227.1519 H   0  0  0  0  0  0  0  0  0  0  0  0
  139.0071   67.9898  226.4724 H   0  0  0  0  0  0  0  0  0  0  0  0
  139.6040   70.0421  228.5440 H   0  0  0  0  0  0  0  0  0  0  0  0
  138.8595   68.6310  229.0326 H   0  0  0  0  0  0  0  0  0  0  0  0
  141.8585   69.2132  228.7677 H   0  0  0  0  0  0  0  0  0  0  0  0
  141.3192   67.8553  229.5735 H   0  0  0  0  0  0  0  0  0  0  0  0
  141.9226   68.0111  226.6795 H   0  0  0  0  0  0  0  0  0  0  0  0
  141.0887   66.6724  227.2371 H   0  0  0  0  0  0  0  0  0  0  0  0
  138.6959   68.6257  224.5344 H   0  0  0  0  0  0  0  0  0  0  0  0
  138.8333   70.3925  222.8440 H   0  0  0  0  0  0  0  0  0  0  0  0
  141.0879   75.1898  222.3246 H   0  0  0  0  0  0  0  0  0  0  0  0
  1  2  1  0
  2  3  2  0
  3  4  1  0
  4  5  2  0
  5  6  1  0
  6  7  2  0
  6  8  1  0
  8  9  1  0
  9 10  1  0
 10 11  2  0
 11 12  1  0
 12 13  2  0
 13 14  1  0
 14 15  1  0
 15 16  2  0
 15 17  1  0
 17 18  1  0
 18 19  2  0
 19 20  1  0
 20 21  2  0
 21 22  1  0
 22 23  1  0
 23 24  1  0
 24 25  1  0
 21 26  1  0
 26 27  2  0
 14 28  2  0
  9 29  2  0
  7  2  1  0
 28 10  1  0
 29  5  1  0
 27 18  1  0
 25 22  1  0
  1 30  1  0
  1 31  1  0
  1 32  1  0
  3 33  1  0
  4 34  1  0
  7 35  1  0
  8 36  1  0
  8 37  1  0
 11 38  1  0
 12 39  1  0
 13 40  1  0
 17 41  1  0
 19 42  1  0
 20 43  1  0
 22 44  1  0
 23 45  1  0
 23 46  1  0
 24 47  1  0
 24 48  1  0
 25 49  1  0
 25 50  1  0
 26 51  1  0
 27 52  1  0
 28 53  1  0
M  END
>  <smiles>  (32) 
Cc1ccc2c(c1)CC(c1cccc(C(=O)Nc3ccc(C4CCC4)cc3)c1)=N2

>  <score_type>  (32) 
oracle

>  <origin>  (32) 
autodockgpu

>  <m_score__min__energy>  (32) 
-8.8800000000000008

>  <m_primary>  (32) 
energy

>  <rmsd>  (32) 
9.467221086851609

>  <m_score__min__rmsd>  (32) 
9.467221086851609

>  <meeko>  (32) 
{"free_energy": -8.84, "intermolecular_energy": -10.03, "internal_energy": -0.95, "cluster_size": 35, "cluster_id": 1, "rank_in_cluster": 14}

>  <energy>  (32) 
-8.79

>  <cluster_rmsd>  (32) 
0.32

>  <cluster>  (32) 
1

$$$$

     RDKit          3D

 53 57  0  0  0  0  0  0  0  0999 V2000
  141.1010   83.3270  221.5890 C   0  0  0  0  0  0  0  0  0  0  0  0
  141.1970   81.8390  221.7430 C   0  0  0  0  0  0  0  0  0  0  0  0
  141.4630   81.3030  222.9890 C   0  0  0  0  0  0  0  0  0  0  0  0
  141.5600   79.9400  223.1770 C   0  0  0  0  0  0  0  0  0  0  0  0
  141.3870   79.0850  222.0920 C   0  0  0  0  0  0  0  0  0  0  0  0
  141.1220   79.6370  220.8580 C   0  0  0  0  0  0  0  0  0  0  0  0
  141.0230   80.9970  220.6560 C   0  0  0  0  0  0  0  0  0  0  0  0
  140.9870   78.4910  219.9000 C   0  0  0  0  0  0  0  0  0  0  0  0
  141.2050   77.3100  220.7500 C   0  0  0  0  0  0  0  0  0  0  0  0
  141.1900   75.9070  220.3530 C   0  0  0  0  0  0  0  0  0  0  0  0
  141.2400   75.5900  218.9980 C   0  0  0  0  0  0  0  0  0  0  0  0
  141.2270   74.2570  218.6300 C   0  0  0  0  0  0  0  0  0  0  0  0
  141.1650   73.2720  219.5890 C   0  0  0  0  0  0  0  0  0  0  0  0
  141.1150   73.5770  220.9330 C   0  0  0  0  0  0  0  0  0  0  0  0
  141.0490   72.5640  221.9810 C   0  0  0  0  0  0  0  0  0  0  0  0
  141.8340   71.5560  221.9760 O   0  0  0  0  0  0  0  0  0  0  0  0
  140.1300   72.6180  223.0600 N   0  0  0  0  0  0  0  0  0  0  0  0
  140.0870   71.6210  224.0620 C   0  0  0  0  0  0  0  0  0  0  0  0
  140.7800   71.6930  225.2510 C   0  0  0  0  0  0  0  0  0  0  0  0
  140.7130   70.6990  226.2040 C   0  0  0  0  0  0  0  0  0  0  0  0
  139.9430   69.5710  226.0150 C   0  0  0  0  0  0  0  0  0  0  0  0
  139.8420   68.4750  227.0160 C   0  0  0  0  0  0  0  0  0  0  0  0
  139.7170   68.9170  228.4460 C   0  0  0  0  0  0  0  0  0  0  0  0
  141.1020   68.4020  228.7020 C   0  0  0  0  0  0  0  0  0  0  0  0
  141.0790   67.7370  227.3570 C   0  0  0  0  0  0  0  0  0  0  0  0
  139.2470   69.5060  224.8140 C   0  0  0  0  0  0  0  0  0  0  0  0
  139.3130   70.4990  223.8590 C   0  0  0  0  0  0  0  0  0  0  0  0
  141.1290   74.8950  221.2930 C   0  0  0  0  0  0  0  0  0  0  0  0
  141.4260   77.6800  221.9760 N   0  0  0  0  0  0  0  0  0  0  0  0
  141.0707   83.7973  222.5829 H   0  0  0  0  0  0  0  0  0  0  0  0
  141.9772   83.6956  221.0355 H   0  0  0  0  0  0  0  0  0  0  0  0
  140.1847   83.5800  221.0355 H   0  0  0  0  0  0  0  0  0  0  0  0
  141.6000   81.9768  223.8476 H   0  0  0  0  0  0  0  0  0  0  0  0
  141.7723   79.5319  224.1762 H   0  0  0  0  0  0  0  0  0  0  0  0
  140.8110   81.4041  219.6563 H   0  0  0  0  0  0  0  0  0  0  0  0
  139.9842   78.4714  219.4482 H   0  0  0  0  0  0  0  0  0  0  0  0
  141.6914   78.5500  219.0572 H   0  0  0  0  0  0  0  0  0  0  0  0
  141.2888   76.3826  218.2369 H   0  0  0  0  0  0  0  0  0  0  0  0
  141.2664   73.9827  217.5655 H   0  0  0  0  0  0  0  0  0  0  0  0
  141.1551   72.2174  219.2764 H   0  0  0  0  0  0  0  0  0  0  0  0
  139.4610   73.4030  223.1330 H   0  0  0  0  0  0  0  0  0  0  0  0
  141.4085   72.5743  225.4465 H   0  0  0  0  0  0  0  0  0  0  0  0
  141.2868   70.8083  227.1361 H   0  0  0  0  0  0  0  0  0  0  0  0
  139.0237   67.9439  226.5077 H   0  0  0  0  0  0  0  0  0  0  0  0
  139.6071   70.0038  228.5758 H   0  0  0  0  0  0  0  0  0  0  0  0
  138.8694   68.5896  229.0660 H   0  0  0  0  0  0  0  0  0  0  0  0
  141.8649   69.1877  228.8053 H   0  0  0  0  0  0  0  0  0  0  0  0
  141.3313   67.8276  229.6117 H   0  0  0  0  0  0  0  0  0  0  0  0
  141.9401   67.9840  226.7187 H   0  0  0  0  0  0  0  0  0  0  0  0
  141.1142   66.6405  227.2764 H   0  0  0  0  0  0  0  0  0  0  0  0
  138.6172   68.6260  224.6167 H   0  0  0  0  0  0  0  0  0  0  0  0
  138.7415   70.3942  222.9250 H   0  0  0  0  0  0  0  0  0  0  0  0
  141.0907   75.1582  222.3604 H   0  0  0  0  0  0  0  0  0  0  0  0
  1  2  1  0
  2  3  2  0
  3  4  1  0
  4  5  2  0
  5  6  1  0
  6  7  2  0
  6  8  1  0
  8  9  1  0
  9 10  1  0
 10 11  2  0
 11 12  1  0
 12 13  2  0
 13 14  1  0
 14 15  1  0
 15 16  2  0
 15 17  1  0
 17 18  1  0
 18 19  2  0
 19 20  1  0
 20 21  2  0
 21 22  1  0
 22 23  1  0
 23 24  1  0
 24 25  1  0
 21 26  1  0
 26 27  2  0
 14 28  2  0
  9 29  2  0
  7  2  1  0
 28 10  1  0
 29  5  1  0
 27 18  1  0
 25 22  1  0
  1 30  1  0
  1 31  1  0
  1 32  1  0
  3 33  1  0
  4 34  1  0
  7 35  1  0
  8 36  1  0
  8 37  1  0
 11 38  1  0
 12 39  1  0
 13 40  1  0
 17 41  1  0
 19 42  1  0
 20 43  1  0
 22 44  1  0
 23 45  1  0
 23 46  1  0
 24 47  1  0
 24 48  1  0
 25 49  1  0
 25 50  1  0
 26 51  1  0
 27 52  1  0
 28 53  1  0
M  END
>  <smiles>  (33) 
Cc1ccc2c(c1)CC(c1cccc(C(=O)Nc3ccc(C4CCC4)cc3)c1)=N2

>  <score_type>  (33) 
oracle

>  <origin>  (33) 
autodockgpu

>  <m_score__min__energy>  (33) 
-8.8800000000000008

>  <m_primary>  (33) 
energy

>  <rmsd>  (33) 
9.506236460091275

>  <m_score__min__rmsd>  (33) 
9.506236460091275

>  <meeko>  (33) 
{"free_energy": -8.83, "intermolecular_energy": -10.03, "internal_energy": -0.95, "cluster_size": 35, "cluster_id": 1, "rank_in_cluster": 16}

>  <energy>  (33) 
-8.79

>  <cluster_rmsd>  (33) 
0.23

>  <cluster>  (33) 
1

$$$$

     RDKit          3D

 53 57  0  0  0  0  0  0  0  0999 V2000
  141.4150   83.2300  221.5990 C   0  0  0  0  0  0  0  0  0  0  0  0
  141.4360   81.7370  221.7450 C   0  0  0  0  0  0  0  0  0  0  0  0
  141.6680   81.1830  222.9900 C   0  0  0  0  0  0  0  0  0  0  0  0
  141.6960   79.8160  223.1720 C   0  0  0  0  0  0  0  0  0  0  0  0
  141.4860   78.9760  222.0810 C   0  0  0  0  0  0  0  0  0  0  0  0
  141.2560   79.5470  220.8500 C   0  0  0  0  0  0  0  0  0  0  0  0
  141.2260   80.9110  220.6540 C   0  0  0  0  0  0  0  0  0  0  0  0
  141.0690   78.4130  219.8850 C   0  0  0  0  0  0  0  0  0  0  0  0
  141.2230   77.2180  220.7300 C   0  0  0  0  0  0  0  0  0  0  0  0
  141.1400   75.8200  220.3260 C   0  0  0  0  0  0  0  0  0  0  0  0
  141.1500   75.5100  218.9680 C   0  0  0  0  0  0  0  0  0  0  0  0
  141.0720   74.1800  218.5940 C   0  0  0  0  0  0  0  0  0  0  0  0
  140.9880   73.1930  219.5480 C   0  0  0  0  0  0  0  0  0  0  0  0
  140.9770   73.4920  220.8950 C   0  0  0  0  0  0  0  0  0  0  0  0
  140.8880   72.4760  221.9390 C   0  0  0  0  0  0  0  0  0  0  0  0
  141.6890   71.4810  221.9620 O   0  0  0  0  0  0  0  0  0  0  0  0
  139.9280   72.5130  222.9820 N   0  0  0  0  0  0  0  0  0  0  0  0
  139.8640   71.5150  223.9810 C   0  0  0  0  0  0  0  0  0  0  0  0
  138.9350   70.4960  223.9950 C   0  0  0  0  0  0  0  0  0  0  0  0
  138.9050   69.5410  224.9880 C   0  0  0  0  0  0  0  0  0  0  0  0
  139.8100   69.5540  226.0280 C   0  0  0  0  0  0  0  0  0  0  0  0
  139.8130   68.5430  227.1200 C   0  0  0  0  0  0  0  0  0  0  0  0
  139.8890   69.0990  228.5140 C   0  0  0  0  0  0  0  0  0  0  0  0
  141.2820   68.5560  228.6290 C   0  0  0  0  0  0  0  0  0  0  0  0
  141.0650   67.7900  227.3580 C   0  0  0  0  0  0  0  0  0  0  0  0
  140.7430   70.5830  226.0070 C   0  0  0  0  0  0  0  0  0  0  0  0
  140.7760   71.5410  225.0150 C   0  0  0  0  0  0  0  0  0  0  0  0
  141.0540   74.8060  221.2620 C   0  0  0  0  0  0  0  0  0  0  0  0
  141.4560   77.5720  221.9590 N   0  0  0  0  0  0  0  0  0  0  0  0
  141.4084   83.6958  222.5955 H   0  0  0  0  0  0  0  0  0  0  0  0
  142.3086   83.5571  221.0472 H   0  0  0  0  0  0  0  0  0  0  0  0
  140.5125   83.5318  221.0472 H   0  0  0  0  0  0  0  0  0  0  0  0
  141.8335   81.8453  223.8525 H   0  0  0  0  0  0  0  0  0  0  0  0
  141.8826   79.3929  224.1701 H   0  0  0  0  0  0  0  0  0  0  0  0
  141.0398   81.3329  219.6553 H   0  0  0  0  0  0  0  0  0  0  0  0
  140.0690   78.4458  219.4279 H   0  0  0  0  0  0  0  0  0  0  0  0
  141.7802   78.4408  219.0463 H   0  0  0  0  0  0  0  0  0  0  0  0
  141.2183   76.3044  218.2102 H   0  0  0  0  0  0  0  0  0  0  0  0
  141.0772   73.9107  217.5275 H   0  0  0  0  0  0  0  0  0  0  0  0
  140.9283   72.1416  219.2301 H   0  0  0  0  0  0  0  0  0  0  0  0
  139.2450   73.2880  223.0300 H   0  0  0  0  0  0  0  0  0  0  0  0
  138.1921   70.4437  223.1854 H   0  0  0  0  0  0  0  0  0  0  0  0
  138.1414   68.7501  224.9500 H   0  0  0  0  0  0  0  0  0  0  0  0
  138.9216   68.0041  226.7665 H   0  0  0  0  0  0  0  0  0  0  0  0
  139.8249   70.1958  228.5680 H   0  0  0  0  0  0  0  0  0  0  0  0
  139.1227   68.8514  229.2633 H   0  0  0  0  0  0  0  0  0  0  0  0
  142.0715   69.3195  228.5678 H   0  0  0  0  0  0  0  0  0  0  0  0
  141.6147   68.0460  229.5451 H   0  0  0  0  0  0  0  0  0  0  0  0
  141.8406   67.9553  226.5957 H   0  0  0  0  0  0  0  0  0  0  0  0
  141.0612   66.6900  227.3639 H   0  0  0  0  0  0  0  0  0  0  0  0
  141.4869   70.6361  226.8156 H   0  0  0  0  0  0  0  0  0  0  0  0
  141.5377   72.3339  225.0491 H   0  0  0  0  0  0  0  0  0  0  0  0
  141.0474   75.0641  222.3313 H   0  0  0  0  0  0  0  0  0  0  0  0
  1  2  1  0
  2  3  2  0
  3  4  1  0
  4  5  2  0
  5  6  1  0
  6  7  2  0
  6  8  1  0
  8  9  1  0
  9 10  1  0
 10 11  2  0
 11 12  1  0
 12 13  2  0
 13 14  1  0
 14 15  1  0
 15 16  2  0
 15 17  1  0
 17 18  1  0
 18 19  2  0
 19 20  1  0
 20 21  2  0
 21 22  1  0
 22 23  1  0
 23 24  1  0
 24 25  1  0
 21 26  1  0
 26 27  2  0
 14 28  2  0
  9 29  2  0
  7  2  1  0
 28 10  1  0
 29  5  1  0
 27 18  1  0
 25 22  1  0
  1 30  1  0
  1 31  1  0
  1 32  1  0
  3 33  1  0
  4 34  1  0
  7 35  1  0
  8 36  1  0
  8 37  1  0
 11 38  1  0
 12 39  1  0
 13 40  1  0
 17 41  1  0
 19 42  1  0
 20 43  1  0
 22 44  1  0
 23 45  1  0
 23 46  1  0
 24 47  1  0
 24 48  1  0
 25 49  1  0
 25 50  1  0
 26 51  1  0
 27 52  1  0
 28 53  1  0
M  END
>  <smiles>  (34) 
Cc1ccc2c(c1)CC(c1cccc(C(=O)Nc3ccc(C4CCC4)cc3)c1)=N2

>  <score_type>  (34) 
oracle

>  <origin>  (34) 
autodockgpu

>  <m_score__min__energy>  (34) 
-8.8800000000000008

>  <m_primary>  (34) 
energy

>  <rmsd>  (34) 
9.48513814491799

>  <m_score__min__rmsd>  (34) 
9.48513814491799

>  <meeko>  (34) 
{"free_energy": -8.81, "intermolecular_energy": -10.0, "internal_energy": -0.94, "cluster_size": 35, "cluster_id": 1, "rank_in_cluster": 26}

>  <energy>  (34) 
-8.75

>  <cluster_rmsd>  (34) 
0.25

>  <cluster>  (34) 
1

$$$$

     RDKit          3D

 53 57  0  0  0  0  0  0  0  0999 V2000
  141.1060   83.3160  221.5630 C   0  0  0  0  0  0  0  0  0  0  0  0
  141.2020   81.8280  221.7210 C   0  0  0  0  0  0  0  0  0  0  0  0
  141.4550   81.2950  222.9710 C   0  0  0  0  0  0  0  0  0  0  0  0
  141.5510   79.9320  223.1630 C   0  0  0  0  0  0  0  0  0  0  0  0
  141.3900   79.0750  222.0770 C   0  0  0  0  0  0  0  0  0  0  0  0
  141.1380   79.6250  220.8400 C   0  0  0  0  0  0  0  0  0  0  0  0
  141.0400   80.9840  220.6340 C   0  0  0  0  0  0  0  0  0  0  0  0
  141.0130   78.4770  219.8830 C   0  0  0  0  0  0  0  0  0  0  0  0
  141.2230   77.2970  220.7370 C   0  0  0  0  0  0  0  0  0  0  0  0
  141.2140   75.8940  220.3430 C   0  0  0  0  0  0  0  0  0  0  0  0
  141.2760   75.5740  218.9890 C   0  0  0  0  0  0  0  0  0  0  0  0
  141.2670   74.2400  218.6240 C   0  0  0  0  0  0  0  0  0  0  0  0
  141.1990   73.2570  219.5830 C   0  0  0  0  0  0  0  0  0  0  0  0
  141.1380   73.5640  220.9270 C   0  0  0  0  0  0  0  0  0  0  0  0
  141.0630   72.5530  221.9760 C   0  0  0  0  0  0  0  0  0  0  0  0
  141.8380   71.5370  221.9700 O   0  0  0  0  0  0  0  0  0  0  0  0
  140.1480   72.6180  223.0570 N   0  0  0  0  0  0  0  0  0  0  0  0
  140.0980   71.6230  224.0610 C   0  0  0  0  0  0  0  0  0  0  0  0
  140.7490   71.7160  225.2720 C   0  0  0  0  0  0  0  0  0  0  0  0
  140.6760   70.7230  226.2260 C   0  0  0  0  0  0  0  0  0  0  0  0
  139.9420   69.5750  226.0140 C   0  0  0  0  0  0  0  0  0  0  0  0
  139.8360   68.4790  227.0150 C   0  0  0  0  0  0  0  0  0  0  0  0
  139.7230   68.9210  228.4470 C   0  0  0  0  0  0  0  0  0  0  0  0
  141.1050   68.3930  228.6940 C   0  0  0  0  0  0  0  0  0  0  0  0
  141.0670   67.7290  227.3490 C   0  0  0  0  0  0  0  0  0  0  0  0
  139.2880   69.4890  224.7910 C   0  0  0  0  0  0  0  0  0  0  0  0
  139.3590   70.4810  223.8360 C   0  0  0  0  0  0  0  0  0  0  0  0
  141.1460   74.8830  221.2850 C   0  0  0  0  0  0  0  0  0  0  0  0
  141.4320   77.6700  221.9640 N   0  0  0  0  0  0  0  0  0  0  0  0
  141.0755   83.7889  222.5557 H   0  0  0  0  0  0  0  0  0  0  0  0
  141.9823   83.6832  221.0087 H   0  0  0  0  0  0  0  0  0  0  0  0
  140.1898   83.5675  221.0087 H   0  0  0  0  0  0  0  0  0  0  0  0
  141.5823   81.9707  223.8296 H   0  0  0  0  0  0  0  0  0  0  0  0
  141.7529   79.5258  224.1651 H   0  0  0  0  0  0  0  0  0  0  0  0
  140.8381   81.3889  219.6313 H   0  0  0  0  0  0  0  0  0  0  0  0
  140.0148   78.4562  219.4214 H   0  0  0  0  0  0  0  0  0  0  0  0
  141.7260   78.5348  219.0473 H   0  0  0  0  0  0  0  0  0  0  0  0
  141.3309   76.3649  218.2265 H   0  0  0  0  0  0  0  0  0  0  0  0
  141.3145   73.9638  217.5603 H   0  0  0  0  0  0  0  0  0  0  0  0
  141.1931   72.2020  219.2718 H   0  0  0  0  0  0  0  0  0  0  0  0
  139.4880   73.4110  223.1310 H   0  0  0  0  0  0  0  0  0  0  0  0
  141.3478   72.6138  225.4851 H   0  0  0  0  0  0  0  0  0  0  0  0
  141.2149   70.8493  227.1766 H   0  0  0  0  0  0  0  0  0  0  0  0
  139.0100   67.9565  226.5103 H   0  0  0  0  0  0  0  0  0  0  0  0
  139.6238   70.0086  228.5785 H   0  0  0  0  0  0  0  0  0  0  0  0
  138.8761   68.6009  229.0717 H   0  0  0  0  0  0  0  0  0  0  0  0
  141.8759   69.1715  228.7927 H   0  0  0  0  0  0  0  0  0  0  0  0
  141.3349   67.8161  229.6019 H   0  0  0  0  0  0  0  0  0  0  0  0
  141.9269   67.9675  226.7058 H   0  0  0  0  0  0  0  0  0  0  0  0
  141.0904   66.6322  227.2682 H   0  0  0  0  0  0  0  0  0  0  0  0
  138.6886   68.5921  224.5758 H   0  0  0  0  0  0  0  0  0  0  0  0
  138.8203   70.3600  222.8846 H   0  0  0  0  0  0  0  0  0  0  0  0
  141.0970   75.1481  222.3515 H   0  0  0  0  0  0  0  0  0  0  0  0
  1  2  1  0
  2  3  2  0
  3  4  1  0
  4  5  2  0
  5  6  1  0
  6  7  2  0
  6  8  1  0
  8  9  1  0
  9 10  1  0
 10 11  2  0
 11 12  1  0
 12 13  2  0
 13 14  1  0
 14 15  1  0
 15 16  2  0
 15 17  1  0
 17 18  1  0
 18 19  2  0
 19 20  1  0
 20 21  2  0
 21 22  1  0
 22 23  1  0
 23 24  1  0
 24 25  1  0
 21 26  1  0
 26 27  2  0
 14 28  2  0
  9 29  2  0
  7  2  1  0
 28 10  1  0
 29  5  1  0
 27 18  1  0
 25 22  1  0
  1 30  1  0
  1 31  1  0
  1 32  1  0
  3 33  1  0
  4 34  1  0
  7 35  1  0
  8 36  1  0
  8 37  1  0
 11 38  1  0
 12 39  1  0
 13 40  1  0
 17 41  1  0
 19 42  1  0
 20 43  1  0
 22 44  1  0
 23 45  1  0
 23 46  1  0
 24 47  1  0
 24 48  1  0
 25 49  1  0
 25 50  1  0
 26 51  1  0
 27 52  1  0
 28 53  1  0
M  END
>  <smiles>  (35) 
Cc1ccc2c(c1)CC(c1cccc(C(=O)Nc3ccc(C4CCC4)cc3)c1)=N2

>  <score_type>  (35) 
oracle

>  <origin>  (35) 
autodockgpu

>  <m_score__min__energy>  (35) 
-8.8800000000000008

>  <m_primary>  (35) 
energy

>  <rmsd>  (35) 
9.504760686561331

>  <m_score__min__rmsd>  (35) 
9.504760686561331

>  <meeko>  (35) 
{"free_energy": -8.83, "intermolecular_energy": -10.03, "internal_energy": -0.95, "cluster_size": 35, "cluster_id": 1, "rank_in_cluster": 18}

>  <energy>  (35) 
-8.74

>  <cluster_rmsd>  (35) 
0.28

>  <cluster>  (35) 
1

$$$$

     RDKit          3D

 53 57  0  0  0  0  0  0  0  0999 V2000
  141.1210   83.3440  221.5930 C   0  0  0  0  0  0  0  0  0  0  0  0
  141.2110   81.8550  221.7460 C   0  0  0  0  0  0  0  0  0  0  0  0
  141.3870   81.3140  223.0060 C   0  0  0  0  0  0  0  0  0  0  0  0
  141.4750   79.9510  223.1950 C   0  0  0  0  0  0  0  0  0  0  0  0
  141.3850   79.1000  222.0960 C   0  0  0  0  0  0  0  0  0  0  0  0
  141.2090   79.6580  220.8490 C   0  0  0  0  0  0  0  0  0  0  0  0
  141.1200   81.0190  220.6460 C   0  0  0  0  0  0  0  0  0  0  0  0
  141.1480   78.5160  219.8780 C   0  0  0  0  0  0  0  0  0  0  0  0
  141.3080   77.3310  220.7360 C   0  0  0  0  0  0  0  0  0  0  0  0
  141.3270   75.9300  220.3330 C   0  0  0  0  0  0  0  0  0  0  0  0
  141.5080   75.6190  218.9870 C   0  0  0  0  0  0  0  0  0  0  0  0
  141.5260   74.2880  218.6140 C   0  0  0  0  0  0  0  0  0  0  0  0
  141.3680   73.2990  219.5560 C   0  0  0  0  0  0  0  0  0  0  0  0
  141.1890   73.5980  220.8910 C   0  0  0  0  0  0  0  0  0  0  0  0
  141.0170   72.5800  221.9230 C   0  0  0  0  0  0  0  0  0  0  0  0
  141.7600   71.5410  221.9550 O   0  0  0  0  0  0  0  0  0  0  0  0
  140.0370   72.6640  222.9440 N   0  0  0  0  0  0  0  0  0  0  0  0
  139.8920   71.6620  223.9310 C   0  0  0  0  0  0  0  0  0  0  0  0
  138.9850   70.6270  223.8530 C   0  0  0  0  0  0  0  0  0  0  0  0
  138.8740   69.6690  224.8380 C   0  0  0  0  0  0  0  0  0  0  0  0
  139.6710   69.6970  225.9630 C   0  0  0  0  0  0  0  0  0  0  0  0
  139.5850   68.6850  227.0500 C   0  0  0  0  0  0  0  0  0  0  0  0
  139.7610   69.2170  228.4430 C   0  0  0  0  0  0  0  0  0  0  0  0
  141.0840   68.5150  228.5200 C   0  0  0  0  0  0  0  0  0  0  0  0
  140.7460   67.7890  227.2510 C   0  0  0  0  0  0  0  0  0  0  0  0
  140.5830   70.7440  226.0350 C   0  0  0  0  0  0  0  0  0  0  0  0
  140.6960   71.7030  225.0510 C   0  0  0  0  0  0  0  0  0  0  0  0
  141.1710   74.9140  221.2580 C   0  0  0  0  0  0  0  0  0  0  0  0
  141.4380   77.6960  221.9760 N   0  0  0  0  0  0  0  0  0  0  0  0
  141.0926   83.8137  222.5873 H   0  0  0  0  0  0  0  0  0  0  0  0
  141.9987   83.7095  221.0398 H   0  0  0  0  0  0  0  0  0  0  0  0
  140.2057   83.6011  221.0398 H   0  0  0  0  0  0  0  0  0  0  0  0
  141.4582   81.9844  223.8752 H   0  0  0  0  0  0  0  0  0  0  0  0
  141.6151   79.5391  224.2053 H   0  0  0  0  0  0  0  0  0  0  0  0
  140.9802   81.4303  219.6354 H   0  0  0  0  0  0  0  0  0  0  0  0
  140.1807   78.4954  219.3546 H   0  0  0  0  0  0  0  0  0  0  0  0
  141.9116   78.5815  219.0889 H   0  0  0  0  0  0  0  0  0  0  0  0
  141.6337   76.4147  218.2380 H   0  0  0  0  0  0  0  0  0  0  0  0
  141.6676   74.0185  217.5570 H   0  0  0  0  0  0  0  0  0  0  0  0
  141.3847   72.2460  219.2382 H   0  0  0  0  0  0  0  0  0  0  0  0
  139.3980   73.4760  222.9840 H   0  0  0  0  0  0  0  0  0  0  0  0
  138.3267   70.5632  222.9740 H   0  0  0  0  0  0  0  0  0  0  0  0
  138.1330   68.8641  224.7240 H   0  0  0  0  0  0  0  0  0  0  0  0
  138.6278   68.2567  226.7179 H   0  0  0  0  0  0  0  0  0  0  0  0
  139.8264   70.3134  228.5036 H   0  0  0  0  0  0  0  0  0  0  0  0
  138.9903   69.0541  229.2108 H   0  0  0  0  0  0  0  0  0  0  0  0
  141.9554   69.1818  228.4416 H   0  0  0  0  0  0  0  0  0  0  0  0
  141.3786   67.9633  229.4249 H   0  0  0  0  0  0  0  0  0  0  0  0
  141.5157   67.8685  226.4691 H   0  0  0  0  0  0  0  0  0  0  0  0
  140.6138   66.6970  227.2518 H   0  0  0  0  0  0  0  0  0  0  0  0
  141.2417   70.8099  226.9135 H   0  0  0  0  0  0  0  0  0  0  0  0
  141.4356   72.5099  225.1603 H   0  0  0  0  0  0  0  0  0  0  0  0
  141.0286   75.1722  222.3177 H   0  0  0  0  0  0  0  0  0  0  0  0
  1  2  1  0
  2  3  2  0
  3  4  1  0
  4  5  2  0
  5  6  1  0
  6  7  2  0
  6  8  1  0
  8  9  1  0
  9 10  1  0
 10 11  2  0
 11 12  1  0
 12 13  2  0
 13 14  1  0
 14 15  1  0
 15 16  2  0
 15 17  1  0
 17 18  1  0
 18 19  2  0
 19 20  1  0
 20 21  2  0
 21 22  1  0
 22 23  1  0
 23 24  1  0
 24 25  1  0
 21 26  1  0
 26 27  2  0
 14 28  2  0
  9 29  2  0
  7  2  1  0
 28 10  1  0
 29  5  1  0
 27 18  1  0
 25 22  1  0
  1 30  1  0
  1 31  1  0
  1 32  1  0
  3 33  1  0
  4 34  1  0
  7 35  1  0
  8 36  1  0
  8 37  1  0
 11 38  1  0
 12 39  1  0
 13 40  1  0
 17 41  1  0
 19 42  1  0
 20 43  1  0
 22 44  1  0
 23 45  1  0
 23 46  1  0
 24 47  1  0
 24 48  1  0
 25 49  1  0
 25 50  1  0
 26 51  1  0
 27 52  1  0
 28 53  1  0
M  END
>  <smiles>  (36) 
Cc1ccc2c(c1)CC(c1cccc(C(=O)Nc3ccc(C4CCC4)cc3)c1)=N2

>  <score_type>  (36) 
oracle

>  <origin>  (36) 
autodockgpu

>  <m_score__min__energy>  (36) 
-8.8800000000000008

>  <m_primary>  (36) 
energy

>  <rmsd>  (36) 
9.383897256158079

>  <m_score__min__rmsd>  (36) 
9.383897256158079

>  <meeko>  (36) 
{"free_energy": -8.88, "intermolecular_energy": -10.07, "internal_energy": -0.95, "cluster_size": 35, "cluster_id": 1, "rank_in_cluster": 4}

>  <energy>  (36) 
-8.73

>  <cluster_rmsd>  (36) 
0.0

>  <cluster>  (36) 
2

$$$$

     RDKit          3D

 53 57  0  0  0  0  0  0  0  0999 V2000
  141.3150   68.1450  229.0740 C   0  0  0  0  0  0  0  0  0  0  0  0
  140.8100   68.4650  227.6980 C   0  0  0  0  0  0  0  0  0  0  0  0
  140.0670   67.5210  227.0140 C   0  0  0  0  0  0  0  0  0  0  0  0
  139.5830   67.7710  225.7470 C   0  0  0  0  0  0  0  0  0  0  0  0
  139.8460   68.9980  225.1430 C   0  0  0  0  0  0  0  0  0  0  0  0
  140.5870   69.9260  225.8410 C   0  0  0  0  0  0  0  0  0  0  0  0
  141.0770   69.6880  227.1070 C   0  0  0  0  0  0  0  0  0  0  0  0
  140.7050   71.1280  224.9530 C   0  0  0  0  0  0  0  0  0  0  0  0
  139.9620   70.7350  223.7450 C   0  0  0  0  0  0  0  0  0  0  0  0
  139.7420   71.5170  222.5350 C   0  0  0  0  0  0  0  0  0  0  0  0
  139.3440   70.8610  221.3730 C   0  0  0  0  0  0  0  0  0  0  0  0
  139.1360   71.6110  220.2290 C   0  0  0  0  0  0  0  0  0  0  0  0
  139.3210   72.9730  220.2480 C   0  0  0  0  0  0  0  0  0  0  0  0
  139.7150   73.6310  221.3950 C   0  0  0  0  0  0  0  0  0  0  0  0
  139.9220   75.0750  221.4580 C   0  0  0  0  0  0  0  0  0  0  0  0
  140.4130   75.7150  220.4670 O   0  0  0  0  0  0  0  0  0  0  0  0
  139.6040   75.8580  222.5960 N   0  0  0  0  0  0  0  0  0  0  0  0
  139.8160   77.2560  222.6300 C   0  0  0  0  0  0  0  0  0  0  0  0
  138.8070   78.1920  222.5510 C   0  0  0  0  0  0  0  0  0  0  0  0
  139.0540   79.5470  222.5870 C   0  0  0  0  0  0  0  0  0  0  0  0
  140.3360   80.0420  222.7030 C   0  0  0  0  0  0  0  0  0  0  0  0
  140.6490   81.4960  222.7450 C   0  0  0  0  0  0  0  0  0  0  0  0
  139.7450   82.3740  221.9280 C   0  0  0  0  0  0  0  0  0  0  0  0
  140.8810   82.6250  220.9820 C   0  0  0  0  0  0  0  0  0  0  0  0
  141.8110   81.9740  221.9630 C   0  0  0  0  0  0  0  0  0  0  0  0
  141.3480   79.0930  222.7820 C   0  0  0  0  0  0  0  0  0  0  0  0
  141.1030   77.7360  222.7460 C   0  0  0  0  0  0  0  0  0  0  0  0
  139.9190   72.8890  222.5230 C   0  0  0  0  0  0  0  0  0  0  0  0
  139.4920   69.5320  223.8870 N   0  0  0  0  0  0  0  0  0  0  0  0
  140.6350   68.5759  229.8236 H   0  0  0  0  0  0  0  0  0  0  0  0
  141.3594   67.0536  229.2037 H   0  0  0  0  0  0  0  0  0  0  0  0
  142.3209   68.5709  229.2037 H   0  0  0  0  0  0  0  0  0  0  0  0
  139.8577   66.5515  227.4896 H   0  0  0  0  0  0  0  0  0  0  0  0
  138.9940   67.0074  225.2178 H   0  0  0  0  0  0  0  0  0  0  0  0
  141.6663   70.4519  227.6354 H   0  0  0  0  0  0  0  0  0  0  0  0
  140.2503   72.0117  225.4245 H   0  0  0  0  0  0  0  0  0  0  0  0
  141.7485   71.4059  224.7435 H   0  0  0  0  0  0  0  0  0  0  0  0
  139.1982   69.7707  221.3647 H   0  0  0  0  0  0  0  0  0  0  0  0
  138.8209   71.1147  219.2993 H   0  0  0  0  0  0  0  0  0  0  0  0
  139.1511   73.5514  219.3279 H   0  0  0  0  0  0  0  0  0  0  0  0
  139.2030   75.4120  223.4380 H   0  0  0  0  0  0  0  0  0  0  0  0
  137.7676   77.8447  222.4558 H   0  0  0  0  0  0  0  0  0  0  0  0
  138.2100   80.2495  222.5218 H   0  0  0  0  0  0  0  0  0  0  0  0
  140.6760   81.5654  223.8425 H   0  0  0  0  0  0  0  0  0  0  0  0
  138.8895   81.8487  221.4784 H   0  0  0  0  0  0  0  0  0  0  0  0
  139.2012   83.2104  222.3913 H   0  0  0  0  0  0  0  0  0  0  0  0
  140.7948   82.0967  220.0210 H   0  0  0  0  0  0  0  0  0  0  0  0
  141.0830   83.6357  220.5978 H   0  0  0  0  0  0  0  0  0  0  0  0
  142.4254   81.1690  221.5335 H   0  0  0  0  0  0  0  0  0  0  0  0
  142.6070   82.5579  222.4481 H   0  0  0  0  0  0  0  0  0  0  0  0
  142.3880   79.4384  222.8772 H   0  0  0  0  0  0  0  0  0  0  0  0
  141.9436   77.0294  222.8105 H   0  0  0  0  0  0  0  0  0  0  0  0
  140.2327   73.3960  223.4474 H   0  0  0  0  0  0  0  0  0  0  0  0
  1  2  1  0
  2  3  2  0
  3  4  1  0
  4  5  2  0
  5  6  1  0
  6  7  2  0
  6  8  1  0
  8  9  1  0
  9 10  1  0
 10 11  2  0
 11 12  1  0
 12 13  2  0
 13 14  1  0
 14 15  1  0
 15 16  2  0
 15 17  1  0
 17 18  1  0
 18 19  2  0
 19 20  1  0
 20 21  2  0
 21 22  1  0
 22 23  1  0
 23 24  1  0
 24 25  1  0
 21 26  1  0
 26 27  2  0
 14 28  2  0
  9 29  2  0
  7  2  1  0
 28 10  1  0
 29  5  1  0
 27 18  1  0
 25 22  1  0
  1 30  1  0
  1 31  1  0
  1 32  1  0
  3 33  1  0
  4 34  1  0
  7 35  1  0
  8 36  1  0
  8 37  1  0
 11 38  1  0
 12 39  1  0
 13 40  1  0
 17 41  1  0
 19 42  1  0
 20 43  1  0
 22 44  1  0
 23 45  1  0
 23 46  1  0
 24 47  1  0
 24 48  1  0
 25 49  1  0
 25 50  1  0
 26 51  1  0
 27 52  1  0
 28 53  1  0
M  END
>  <smiles>  (37) 
Cc1ccc2c(c1)CC(c1cccc(C(=O)Nc3ccc(C4CCC4)cc3)c1)=N2

>  <score_type>  (37) 
oracle

>  <origin>  (37) 
autodockgpu

>  <m_score__min__energy>  (37) 
-8.8800000000000008

>  <m_primary>  (37) 
energy

>  <rmsd>  (37) 
4.255004878443977

>  <m_score__min__rmsd>  (37) 
4.255004878443977

>  <meeko>  (37) 
{"free_energy": -8.64, "intermolecular_energy": -9.84, "internal_energy": -0.96, "cluster_size": 15, "cluster_id": 2, "rank_in_cluster": 10}

>  <energy>  (37) 
-8.7

>  <cluster_rmsd>  (37) 
0.08

>  <cluster>  (37) 
2

$$$$

     RDKit          3D

 53 57  0  0  0  0  0  0  0  0999 V2000
  141.0980   83.3070  221.5910 C   0  0  0  0  0  0  0  0  0  0  0  0
  141.1850   81.8180  221.7490 C   0  0  0  0  0  0  0  0  0  0  0  0
  141.3000   81.2780  223.0160 C   0  0  0  0  0  0  0  0  0  0  0  0
  141.3820   79.9140  223.2090 C   0  0  0  0  0  0  0  0  0  0  0  0
  141.3480   79.0630  222.1070 C   0  0  0  0  0  0  0  0  0  0  0  0
  141.2330   79.6210  220.8530 C   0  0  0  0  0  0  0  0  0  0  0  0
  141.1500   80.9810  220.6460 C   0  0  0  0  0  0  0  0  0  0  0  0
  141.2230   78.4780  219.8810 C   0  0  0  0  0  0  0  0  0  0  0  0
  141.3430   77.2940  220.7450 C   0  0  0  0  0  0  0  0  0  0  0  0
  141.3860   75.8930  220.3440 C   0  0  0  0  0  0  0  0  0  0  0  0
  141.6000   75.5830  219.0030 C   0  0  0  0  0  0  0  0  0  0  0  0
  141.6410   74.2510  218.6310 C   0  0  0  0  0  0  0  0  0  0  0  0
  141.4720   73.2620  219.5710 C   0  0  0  0  0  0  0  0  0  0  0  0
  141.2590   73.5600  220.9020 C   0  0  0  0  0  0  0  0  0  0  0  0
  141.0750   72.5410  221.9300 C   0  0  0  0  0  0  0  0  0  0  0  0
  141.7950   71.4850  221.9500 O   0  0  0  0  0  0  0  0  0  0  0  0
  140.1060   72.6420  222.9610 N   0  0  0  0  0  0  0  0  0  0  0  0
  139.9490   71.6380  223.9450 C   0  0  0  0  0  0  0  0  0  0  0  0
  139.0540   70.5950  223.8470 C   0  0  0  0  0  0  0  0  0  0  0  0
  138.9300   69.6350  224.8290 C   0  0  0  0  0  0  0  0  0  0  0  0
  139.7020   69.6710  225.9710 C   0  0  0  0  0  0  0  0  0  0  0  0
  139.6000   68.6580  227.0560 C   0  0  0  0  0  0  0  0  0  0  0  0
  139.7880   69.1840  228.4510 C   0  0  0  0  0  0  0  0  0  0  0  0
  141.0990   68.4590  228.5230 C   0  0  0  0  0  0  0  0  0  0  0  0
  140.7470   67.7420  227.2530 C   0  0  0  0  0  0  0  0  0  0  0  0
  140.6020   70.7260  226.0630 C   0  0  0  0  0  0  0  0  0  0  0  0
  140.7280   71.6870  225.0820 C   0  0  0  0  0  0  0  0  0  0  0  0
  141.2200   74.8760  221.2660 C   0  0  0  0  0  0  0  0  0  0  0  0
  141.4110   77.6600  221.9910 N   0  0  0  0  0  0  0  0  0  0  0  0
  141.0704   83.7801  222.5837 H   0  0  0  0  0  0  0  0  0  0  0  0
  141.9765   83.6689  221.0367 H   0  0  0  0  0  0  0  0  0  0  0  0
  140.1833   83.5641  221.0367 H   0  0  0  0  0  0  0  0  0  0  0  0
  141.3267   81.9485  223.8876 H   0  0  0  0  0  0  0  0  0  0  0  0
  141.4735   79.5022  224.2249 H   0  0  0  0  0  0  0  0  0  0  0  0
  141.0582   81.3917  219.6297 H   0  0  0  0  0  0  0  0  0  0  0  0
  140.2829   78.4550  219.3103 H   0  0  0  0  0  0  0  0  0  0  0  0
  142.0250   78.5452  219.1312 H   0  0  0  0  0  0  0  0  0  0  0  0
  141.7335   76.3796  218.2563 H   0  0  0  0  0  0  0  0  0  0  0  0
  141.8097   73.9819  217.5778 H   0  0  0  0  0  0  0  0  0  0  0  0
  141.5073   72.2089  219.2552 H   0  0  0  0  0  0  0  0  0  0  0  0
  139.4860   73.4670  223.0110 H   0  0  0  0  0  0  0  0  0  0  0  0
  138.4158   70.5257  222.9537 H   0  0  0  0  0  0  0  0  0  0  0  0
  138.1995   68.8230  224.6986 H   0  0  0  0  0  0  0  0  0  0  0  0
  138.6349   68.2469  226.7249 H   0  0  0  0  0  0  0  0  0  0  0  0
  139.8724   70.2789  228.5142 H   0  0  0  0  0  0  0  0  0  0  0  0
  139.0163   69.0326  229.2201 H   0  0  0  0  0  0  0  0  0  0  0  0
  141.9814   69.1111  228.4447 H   0  0  0  0  0  0  0  0  0  0  0  0
  141.3856   67.8997  229.4258 H   0  0  0  0  0  0  0  0  0  0  0  0
  141.5166   67.8107  226.4701 H   0  0  0  0  0  0  0  0  0  0  0  0
  140.5967   66.6523  227.2514 H   0  0  0  0  0  0  0  0  0  0  0  0
  141.2406   70.7975  226.9558 H   0  0  0  0  0  0  0  0  0  0  0  0
  141.4572   72.5009  225.2077 H   0  0  0  0  0  0  0  0  0  0  0  0
  141.0519   75.1339  222.3220 H   0  0  0  0  0  0  0  0  0  0  0  0
  1  2  1  0
  2  3  2  0
  3  4  1  0
  4  5  2  0
  5  6  1  0
  6  7  2  0
  6  8  1  0
  8  9  1  0
  9 10  1  0
 10 11  2  0
 11 12  1  0
 12 13  2  0
 13 14  1  0
 14 15  1  0
 15 16  2  0
 15 17  1  0
 17 18  1  0
 18 19  2  0
 19 20  1  0
 20 21  2  0
 21 22  1  0
 22 23  1  0
 23 24  1  0
 24 25  1  0
 21 26  1  0
 26 27  2  0
 14 28  2  0
  9 29  2  0
  7  2  1  0
 28 10  1  0
 29  5  1  0
 27 18  1  0
 25 22  1  0
  1 30  1  0
  1 31  1  0
  1 32  1  0
  3 33  1  0
  4 34  1  0
  7 35  1  0
  8 36  1  0
  8 37  1  0
 11 38  1  0
 12 39  1  0
 13 40  1  0
 17 41  1  0
 19 42  1  0
 20 43  1  0
 22 44  1  0
 23 45  1  0
 23 46  1  0
 24 47  1  0
 24 48  1  0
 25 49  1  0
 25 50  1  0
 26 51  1  0
 27 52  1  0
 28 53  1  0
M  END
>  <smiles>  (38) 
Cc1ccc2c(c1)CC(c1cccc(C(=O)Nc3ccc(C4CCC4)cc3)c1)=N2

>  <score_type>  (38) 
oracle

>  <origin>  (38) 
autodockgpu

>  <m_score__min__energy>  (38) 
-8.8800000000000008

>  <m_primary>  (38) 
energy

>  <rmsd>  (38) 
9.408075617938243

>  <m_score__min__rmsd>  (38) 
9.408075617938243

>  <meeko>  (38) 
{"free_energy": -8.86, "intermolecular_energy": -10.06, "internal_energy": -0.95, "cluster_size": 35, "cluster_id": 1, "rank_in_cluster": 9}

>  <energy>  (38) 
-8.69

>  <cluster_rmsd>  (38) 
0.19

>  <cluster>  (38) 
2

$$$$

     RDKit          3D

 53 57  0  0  0  0  0  0  0  0999 V2000
  141.0570   83.3100  221.5540 C   0  0  0  0  0  0  0  0  0  0  0  0
  141.1490   81.8210  221.7120 C   0  0  0  0  0  0  0  0  0  0  0  0
  141.2940   81.2830  222.9770 C   0  0  0  0  0  0  0  0  0  0  0  0
  141.3820   79.9200  223.1700 C   0  0  0  0  0  0  0  0  0  0  0  0
  141.3240   79.0680  222.0700 C   0  0  0  0  0  0  0  0  0  0  0  0
  141.1780   79.6230  220.8180 C   0  0  0  0  0  0  0  0  0  0  0  0
  141.0890   80.9830  220.6110 C   0  0  0  0  0  0  0  0  0  0  0  0
  141.1470   78.4790  219.8480 C   0  0  0  0  0  0  0  0  0  0  0  0
  141.2880   77.2960  220.7110 C   0  0  0  0  0  0  0  0  0  0  0  0
  141.3240   75.8950  220.3110 C   0  0  0  0  0  0  0  0  0  0  0  0
  141.5190   75.5830  218.9680 C   0  0  0  0  0  0  0  0  0  0  0  0
  141.5520   74.2510  218.5970 C   0  0  0  0  0  0  0  0  0  0  0  0
  141.3950   73.2630  219.5400 C   0  0  0  0  0  0  0  0  0  0  0  0
  141.2010   73.5630  220.8730 C   0  0  0  0  0  0  0  0  0  0  0  0
  141.0290   72.5450  221.9050 C   0  0  0  0  0  0  0  0  0  0  0  0
  141.7830   71.5140  221.9480 O   0  0  0  0  0  0  0  0  0  0  0  0
  140.0360   72.6200  222.9150 N   0  0  0  0  0  0  0  0  0  0  0  0
  139.8920   71.6190  223.9030 C   0  0  0  0  0  0  0  0  0  0  0  0
  138.9470   70.6170  223.8540 C   0  0  0  0  0  0  0  0  0  0  0  0
  138.8370   69.6580  224.8390 C   0  0  0  0  0  0  0  0  0  0  0  0
  139.6750   69.6530  225.9340 C   0  0  0  0  0  0  0  0  0  0  0  0
  139.5930   68.6380  227.0190 C   0  0  0  0  0  0  0  0  0  0  0  0
  139.7500   69.1710  228.4140 C   0  0  0  0  0  0  0  0  0  0  0  0
  141.0810   68.4860  228.5010 C   0  0  0  0  0  0  0  0  0  0  0  0
  140.7630   67.7570  227.2290 C   0  0  0  0  0  0  0  0  0  0  0  0
  140.6260   70.6650  225.9760 C   0  0  0  0  0  0  0  0  0  0  0  0
  140.7370   71.6260  224.9930 C   0  0  0  0  0  0  0  0  0  0  0  0
  141.1690   74.8790  221.2370 C   0  0  0  0  0  0  0  0  0  0  0  0
  141.3850   77.6640  221.9540 N   0  0  0  0  0  0  0  0  0  0  0  0
  141.0278   83.7829  222.5467 H   0  0  0  0  0  0  0  0  0  0  0  0
  141.9343   83.6748  220.9997 H   0  0  0  0  0  0  0  0  0  0  0  0
  140.1415   83.5640  220.9997 H   0  0  0  0  0  0  0  0  0  0  0  0
  141.3401   81.9549  223.8467 H   0  0  0  0  0  0  0  0  0  0  0  0
  141.4970   79.5096  224.1841 H   0  0  0  0  0  0  0  0  0  0  0  0
  140.9732   81.3924  219.5966 H   0  0  0  0  0  0  0  0  0  0  0  0
  140.1942   78.4543  219.2989 H   0  0  0  0  0  0  0  0  0  0  0  0
  141.9315   78.5460  219.0799 H   0  0  0  0  0  0  0  0  0  0  0  0
  141.6440   76.3785  218.2186 H   0  0  0  0  0  0  0  0  0  0  0  0
  141.7047   73.9807  217.5417 H   0  0  0  0  0  0  0  0  0  0  0  0
  141.4247   72.2095  219.2249 H   0  0  0  0  0  0  0  0  0  0  0  0
  139.3880   73.4240  222.9460 H   0  0  0  0  0  0  0  0  0  0  0  0
  138.2560   70.5809  222.9989 H   0  0  0  0  0  0  0  0  0  0  0  0
  138.0642   68.8804  224.7492 H   0  0  0  0  0  0  0  0  0  0  0  0
  138.6446   68.1973  226.6779 H   0  0  0  0  0  0  0  0  0  0  0  0
  139.8007   70.2681  228.4762 H   0  0  0  0  0  0  0  0  0  0  0  0
  138.9750   68.9976  229.1751 H   0  0  0  0  0  0  0  0  0  0  0  0
  141.9443   69.1640  228.4303 H   0  0  0  0  0  0  0  0  0  0  0  0
  141.3752   67.9372  229.4078 H   0  0  0  0  0  0  0  0  0  0  0  0
  141.5381   67.8469  226.4537 H   0  0  0  0  0  0  0  0  0  0  0  0
  140.6446   66.6634  227.2279 H   0  0  0  0  0  0  0  0  0  0  0  0
  141.3195   70.7013  226.8291 H   0  0  0  0  0  0  0  0  0  0  0  0
  141.5076   72.4062  225.0792 H   0  0  0  0  0  0  0  0  0  0  0  0
  141.0159   75.1380  222.2950 H   0  0  0  0  0  0  0  0  0  0  0  0
  1  2  1  0
  2  3  2  0
  3  4  1  0
  4  5  2  0
  5  6  1  0
  6  7  2  0
  6  8  1  0
  8  9  1  0
  9 10  1  0
 10 11  2  0
 11 12  1  0
 12 13  2  0
 13 14  1  0
 14 15  1  0
 15 16  2  0
 15 17  1  0
 17 18  1  0
 18 19  2  0
 19 20  1  0
 20 21  2  0
 21 22  1  0
 22 23  1  0
 23 24  1  0
 24 25  1  0
 21 26  1  0
 26 27  2  0
 14 28  2  0
  9 29  2  0
  7  2  1  0
 28 10  1  0
 29  5  1  0
 27 18  1  0
 25 22  1  0
  1 30  1  0
  1 31  1  0
  1 32  1  0
  3 33  1  0
  4 34  1  0
  7 35  1  0
  8 36  1  0
  8 37  1  0
 11 38  1  0
 12 39  1  0
 13 40  1  0
 17 41  1  0
 19 42  1  0
 20 43  1  0
 22 44  1  0
 23 45  1  0
 23 46  1  0
 24 47  1  0
 24 48  1  0
 25 49  1  0
 25 50  1  0
 26 51  1  0
 27 52  1  0
 28 53  1  0
M  END
>  <smiles>  (39) 
Cc1ccc2c(c1)CC(c1cccc(C(=O)Nc3ccc(C4CCC4)cc3)c1)=N2

>  <score_type>  (39) 
oracle

>  <origin>  (39) 
autodockgpu

>  <m_score__min__energy>  (39) 
-8.8800000000000008

>  <m_primary>  (39) 
energy

>  <rmsd>  (39) 
9.404878379689777

>  <m_score__min__rmsd>  (39) 
9.404878379689777

>  <meeko>  (39) 
{"free_energy": -8.86, "intermolecular_energy": -10.06, "internal_energy": -0.95, "cluster_size": 35, "cluster_id": 1, "rank_in_cluster": 10}

>  <energy>  (39) 
-8.68

>  <cluster_rmsd>  (39) 
0.29

>  <cluster>  (39) 
2

$$$$

     RDKit          3D

 53 57  0  0  0  0  0  0  0  0999 V2000
  140.9930   68.1210  229.1100 C   0  0  0  0  0  0  0  0  0  0  0  0
  140.5840   68.5130  227.7210 C   0  0  0  0  0  0  0  0  0  0  0  0
  139.7110   67.7020  227.0200 C   0  0  0  0  0  0  0  0  0  0  0  0
  139.3070   68.0220  225.7400 C   0  0  0  0  0  0  0  0  0  0  0  0
  139.7860   69.1850  225.1420 C   0  0  0  0  0  0  0  0  0  0  0  0
  140.6530   69.9800  225.8570 C   0  0  0  0  0  0  0  0  0  0  0  0
  141.0660   69.6710  227.1360 C   0  0  0  0  0  0  0  0  0  0  0  0
  140.9930   71.1420  224.9710 C   0  0  0  0  0  0  0  0  0  0  0  0
  140.2250   70.8710  223.7450 C   0  0  0  0  0  0  0  0  0  0  0  0
  140.1680   71.6720  222.5290 C   0  0  0  0  0  0  0  0  0  0  0  0
  140.1310   71.0230  221.2970 C   0  0  0  0  0  0  0  0  0  0  0  0
  140.0770   71.7910  220.1480 C   0  0  0  0  0  0  0  0  0  0  0  0
  140.0600   73.1640  220.2290 C   0  0  0  0  0  0  0  0  0  0  0  0
  140.0960   73.8140  221.4450 C   0  0  0  0  0  0  0  0  0  0  0  0
  140.0810   75.2680  221.5750 C   0  0  0  0  0  0  0  0  0  0  0  0
  138.9810   75.9180  221.5890 O   0  0  0  0  0  0  0  0  0  0  0  0
  141.2570   76.0520  221.6930 N   0  0  0  0  0  0  0  0  0  0  0  0
  141.2120   77.4590  221.8180 C   0  0  0  0  0  0  0  0  0  0  0  0
  141.0040   78.1220  223.0090 C   0  0  0  0  0  0  0  0  0  0  0  0
  140.9670   79.4980  223.0890 C   0  0  0  0  0  0  0  0  0  0  0  0
  141.1360   80.2890  221.9730 C   0  0  0  0  0  0  0  0  0  0  0  0
  141.1020   81.7760  222.0140 C   0  0  0  0  0  0  0  0  0  0  0  0
  139.7330   82.3920  221.9720 C   0  0  0  0  0  0  0  0  0  0  0  0
  140.0270   82.8950  220.5900 C   0  0  0  0  0  0  0  0  0  0  0  0
  141.4640   82.5080  220.7800 C   0  0  0  0  0  0  0  0  0  0  0  0
  141.3450   79.6140  220.7760 C   0  0  0  0  0  0  0  0  0  0  0  0
  141.3820   78.2380  220.6930 C   0  0  0  0  0  0  0  0  0  0  0  0
  140.1500   73.0540  222.5780 C   0  0  0  0  0  0  0  0  0  0  0  0
  139.5570   69.7630  223.8770 N   0  0  0  0  0  0  0  0  0  0  0  0
  140.3997   68.6897  229.8412 H   0  0  0  0  0  0  0  0  0  0  0  0
  140.8181   67.0445  229.2537 H   0  0  0  0  0  0  0  0  0  0  0  0
  142.0611   68.3414  229.2537 H   0  0  0  0  0  0  0  0  0  0  0  0
  139.3311   66.7838  227.4918 H   0  0  0  0  0  0  0  0  0  0  0  0
  138.6127   67.3642  225.1967 H   0  0  0  0  0  0  0  0  0  0  0  0
  141.7614   70.3288  227.6779 H   0  0  0  0  0  0  0  0  0  0  0  0
  140.6803   72.0917  225.4297 H   0  0  0  0  0  0  0  0  0  0  0  0
  142.0731   71.2417  224.7884 H   0  0  0  0  0  0  0  0  0  0  0  0
  140.1444   69.9246  221.2392 H   0  0  0  0  0  0  0  0  0  0  0  0
  140.0475   71.3009  219.1636 H   0  0  0  0  0  0  0  0  0  0  0  0
  140.0167   73.7568  219.3034 H   0  0  0  0  0  0  0  0  0  0  0  0
  142.1850   75.5980  221.6900 H   0  0  0  0  0  0  0  0  0  0  0  0
  140.8627   77.5328  223.9271 H   0  0  0  0  0  0  0  0  0  0  0  0
  140.7988   79.9753  224.0657 H   0  0  0  0  0  0  0  0  0  0  0  0
  141.7448   81.8703  222.9017 H   0  0  0  0  0  0  0  0  0  0  0  0
  138.9083   81.6659  222.0234 H   0  0  0  0  0  0  0  0  0  0  0  0
  139.3985   83.0788  222.7634 H   0  0  0  0  0  0  0  0  0  0  0  0
  139.5121   82.3443  219.7889 H   0  0  0  0  0  0  0  0  0  0  0  0
  139.7525   83.9174  220.2910 H   0  0  0  0  0  0  0  0  0  0  0  0
  141.8668   81.8690  219.9803 H   0  0  0  0  0  0  0  0  0  0  0  0
  142.2504   83.2769  220.7985 H   0  0  0  0  0  0  0  0  0  0  0  0
  141.4867   80.2017  219.8570 H   0  0  0  0  0  0  0  0  0  0  0  0
  141.5490   77.7564  219.7183 H   0  0  0  0  0  0  0  0  0  0  0  0
  140.1800   73.5548  223.5569 H   0  0  0  0  0  0  0  0  0  0  0  0
  1  2  1  0
  2  3  2  0
  3  4  1  0
  4  5  2  0
  5  6  1  0
  6  7  2  0
  6  8  1  0
  8  9  1  0
  9 10  1  0
 10 11  2  0
 11 12  1  0
 12 13  2  0
 13 14  1  0
 14 15  1  0
 15 16  2  0
 15 17  1  0
 17 18  1  0
 18 19  2  0
 19 20  1  0
 20 21  2  0
 21 22  1  0
 22 23  1  0
 23 24  1  0
 24 25  1  0
 21 26  1  0
 26 27  2  0
 14 28  2  0
  9 29  2  0
  7  2  1  0
 28 10  1  0
 29  5  1  0
 27 18  1  0
 25 22  1  0
  1 30  1  0
  1 31  1  0
  1 32  1  0
  3 33  1  0
  4 34  1  0
  7 35  1  0
  8 36  1  0
  8 37  1  0
 11 38  1  0
 12 39  1  0
 13 40  1  0
 17 41  1  0
 19 42  1  0
 20 43  1  0
 22 44  1  0
 23 45  1  0
 23 46  1  0
 24 47  1  0
 24 48  1  0
 25 49  1  0
 25 50  1  0
 26 51  1  0
 27 52  1  0
 28 53  1  0
M  END
>  <smiles>  (40) 
Cc1ccc2c(c1)CC(c1cccc(C(=O)Nc3ccc(C4CCC4)cc3)c1)=N2

>  <score_type>  (40) 
oracle

>  <origin>  (40) 
autodockgpu

>  <m_score__min__energy>  (40) 
-8.8800000000000008

>  <m_primary>  (40) 
energy

>  <rmsd>  (40) 
4.081228405808035

>  <m_score__min__rmsd>  (40) 
4.081228405808035

>  <meeko>  (40) 
{"free_energy": -8.66, "intermolecular_energy": -9.86, "internal_energy": -0.96, "cluster_size": 15, "cluster_id": 2, "rank_in_cluster": 8}

>  <energy>  (40) 
-8.67

>  <cluster_rmsd>  (40) 
0.2

>  <cluster>  (40) 
2

$$$$

     RDKit          3D

 53 57  0  0  0  0  0  0  0  0999 V2000
  140.8580   68.1440  229.0140 C   0  0  0  0  0  0  0  0  0  0  0  0
  140.4780   68.5400  227.6180 C   0  0  0  0  0  0  0  0  0  0  0  0
  139.5880   67.7540  226.9110 C   0  0  0  0  0  0  0  0  0  0  0  0
  139.2100   68.0790  225.6250 C   0  0  0  0  0  0  0  0  0  0  0  0
  139.7340   69.2210  225.0250 C   0  0  0  0  0  0  0  0  0  0  0  0
  140.6190   69.9920  225.7460 C   0  0  0  0  0  0  0  0  0  0  0  0
  141.0050   69.6780  227.0320 C   0  0  0  0  0  0  0  0  0  0  0  0
  141.0070   71.1360  224.8570 C   0  0  0  0  0  0  0  0  0  0  0  0
  140.2460   70.8820  223.6240 C   0  0  0  0  0  0  0  0  0  0  0  0
  140.2300   71.6770  222.4020 C   0  0  0  0  0  0  0  0  0  0  0  0
  140.2750   71.0230  221.1730 C   0  0  0  0  0  0  0  0  0  0  0  0
  140.2590   71.7850  220.0180 C   0  0  0  0  0  0  0  0  0  0  0  0
  140.2000   73.1570  220.0910 C   0  0  0  0  0  0  0  0  0  0  0  0
  140.1560   73.8130  221.3040 C   0  0  0  0  0  0  0  0  0  0  0  0
  140.0940   75.2660  221.4260 C   0  0  0  0  0  0  0  0  0  0  0  0
  139.0450   75.9130  221.0890 O   0  0  0  0  0  0  0  0  0  0  0  0
  141.1680   76.0520  221.9150 N   0  0  0  0  0  0  0  0  0  0  0  0
  141.0800   77.4600  222.0220 C   0  0  0  0  0  0  0  0  0  0  0  0
  140.4960   78.1180  223.0830 C   0  0  0  0  0  0  0  0  0  0  0  0
  140.4290   79.4930  223.1510 C   0  0  0  0  0  0  0  0  0  0  0  0
  140.9490   80.2890  222.1510 C   0  0  0  0  0  0  0  0  0  0  0  0
  140.8990   81.7760  222.1830 C   0  0  0  0  0  0  0  0  0  0  0  0
  139.5450   82.3810  221.9430 C   0  0  0  0  0  0  0  0  0  0  0  0
  140.0300   82.8830  220.6160 C   0  0  0  0  0  0  0  0  0  0  0  0
  141.4280   82.5080  221.0110 C   0  0  0  0  0  0  0  0  0  0  0  0
  141.5360   79.6180  221.0850 C   0  0  0  0  0  0  0  0  0  0  0  0
  141.6040   78.2430  221.0150 C   0  0  0  0  0  0  0  0  0  0  0  0
  140.1720   73.0580  222.4430 C   0  0  0  0  0  0  0  0  0  0  0  0
  139.5400   69.7980  223.7540 N   0  0  0  0  0  0  0  0  0  0  0  0
  140.2826   68.7436  229.7347 H   0  0  0  0  0  0  0  0  0  0  0  0
  140.6370   67.0771  229.1655 H   0  0  0  0  0  0  0  0  0  0  0  0
  141.9331   68.3209  229.1655 H   0  0  0  0  0  0  0  0  0  0  0  0
  139.1729   66.8514  227.3832 H   0  0  0  0  0  0  0  0  0  0  0  0
  138.5003   67.4411  225.0778 H   0  0  0  0  0  0  0  0  0  0  0  0
  141.7145   70.3163  227.5789 H   0  0  0  0  0  0  0  0  0  0  0  0
  140.7198   72.0984  225.3058 H   0  0  0  0  0  0  0  0  0  0  0  0
  142.0919   71.1993  224.6870 H   0  0  0  0  0  0  0  0  0  0  0  0
  140.3222   69.9252  221.1217 H   0  0  0  0  0  0  0  0  0  0  0  0
  140.2937   71.2905  219.0360 H   0  0  0  0  0  0  0  0  0  0  0  0
  140.1876   73.7447  219.1613 H   0  0  0  0  0  0  0  0  0  0  0  0
  142.0500   75.6010  222.2080 H   0  0  0  0  0  0  0  0  0  0  0  0
  140.0682   77.5247  223.9046 H   0  0  0  0  0  0  0  0  0  0  0  0
  139.9506   79.9660  224.0213 H   0  0  0  0  0  0  0  0  0  0  0  0
  141.4075   81.8774  223.1531 H   0  0  0  0  0  0  0  0  0  0  0  0
  138.7271   81.6483  221.8782 H   0  0  0  0  0  0  0  0  0  0  0  0
  139.0953   83.0670  222.6759 H   0  0  0  0  0  0  0  0  0  0  0  0
  139.6394   82.3264  219.7514 H   0  0  0  0  0  0  0  0  0  0  0  0
  139.7934   83.9025  220.2774 H   0  0  0  0  0  0  0  0  0  0  0  0
  141.9459   81.8705  220.2793 H   0  0  0  0  0  0  0  0  0  0  0  0
  142.1977   83.2833  221.1392 H   0  0  0  0  0  0  0  0  0  0  0  0
  141.9645   80.2091  220.2622 H   0  0  0  0  0  0  0  0  0  0  0  0
  142.0813   77.7653  220.1467 H   0  0  0  0  0  0  0  0  0  0  0  0
  140.1378   73.5629  223.4197 H   0  0  0  0  0  0  0  0  0  0  0  0
  1  2  1  0
  2  3  2  0
  3  4  1  0
  4  5  2  0
  5  6  1  0
  6  7  2  0
  6  8  1  0
  8  9  1  0
  9 10  1  0
 10 11  2  0
 11 12  1  0
 12 13  2  0
 13 14  1  0
 14 15  1  0
 15 16  2  0
 15 17  1  0
 17 18  1  0
 18 19  2  0
 19 20  1  0
 20 21  2  0
 21 22  1  0
 22 23  1  0
 23 24  1  0
 24 25  1  0
 21 26  1  0
 26 27  2  0
 14 28  2  0
  9 29  2  0
  7  2  1  0
 28 10  1  0
 29  5  1  0
 27 18  1  0
 25 22  1  0
  1 30  1  0
  1 31  1  0
  1 32  1  0
  3 33  1  0
  4 34  1  0
  7 35  1  0
  8 36  1  0
  8 37  1  0
 11 38  1  0
 12 39  1  0
 13 40  1  0
 17 41  1  0
 19 42  1  0
 20 43  1  0
 22 44  1  0
 23 45  1  0
 23 46  1  0
 24 47  1  0
 24 48  1  0
 25 49  1  0
 25 50  1  0
 26 51  1  0
 27 52  1  0
 28 53  1  0
M  END
>  <smiles>  (41) 
Cc1ccc2c(c1)CC(c1cccc(C(=O)Nc3ccc(C4CCC4)cc3)c1)=N2

>  <score_type>  (41) 
oracle

>  <origin>  (41) 
autodockgpu

>  <m_score__min__energy>  (41) 
-8.8800000000000008

>  <m_primary>  (41) 
energy

>  <rmsd>  (41) 
4.02103917979486

>  <m_score__min__rmsd>  (41) 
4.02103917979486

>  <meeko>  (41) 
{"free_energy": -8.6, "intermolecular_energy": -9.79, "internal_energy": -0.96, "cluster_size": 15, "cluster_id": 2, "rank_in_cluster": 14}

>  <energy>  (41) 
-8.67

>  <cluster_rmsd>  (41) 
0.24

>  <cluster>  (41) 
2

$$$$

     RDKit          3D

 53 57  0  0  0  0  0  0  0  0999 V2000
  141.1350   83.3330  221.5960 C   0  0  0  0  0  0  0  0  0  0  0  0
  141.2270   81.8440  221.7450 C   0  0  0  0  0  0  0  0  0  0  0  0
  141.4700   81.3030  222.9940 C   0  0  0  0  0  0  0  0  0  0  0  0
  141.5620   79.9390  223.1780 C   0  0  0  0  0  0  0  0  0  0  0  0
  141.4070   79.0880  222.0860 C   0  0  0  0  0  0  0  0  0  0  0  0
  141.1650   79.6460  220.8510 C   0  0  0  0  0  0  0  0  0  0  0  0
  141.0710   81.0070  220.6530 C   0  0  0  0  0  0  0  0  0  0  0  0
  141.0450   78.5040  219.8860 C   0  0  0  0  0  0  0  0  0  0  0  0
  141.2460   77.3190  220.7340 C   0  0  0  0  0  0  0  0  0  0  0  0
  141.2370   75.9180  220.3320 C   0  0  0  0  0  0  0  0  0  0  0  0
  141.3040   75.6060  218.9760 C   0  0  0  0  0  0  0  0  0  0  0  0
  141.2950   74.2750  218.6030 C   0  0  0  0  0  0  0  0  0  0  0  0
  141.2230   73.2860  219.5560 C   0  0  0  0  0  0  0  0  0  0  0  0
  141.1560   73.5850  220.9010 C   0  0  0  0  0  0  0  0  0  0  0  0
  141.0780   72.5680  221.9440 C   0  0  0  0  0  0  0  0  0  0  0  0
  141.8410   71.5430  221.9260 O   0  0  0  0  0  0  0  0  0  0  0  0
  140.1700   72.6360  223.0320 N   0  0  0  0  0  0  0  0  0  0  0  0
  140.1150   71.6350  224.0290 C   0  0  0  0  0  0  0  0  0  0  0  0
  140.7380   71.7320  225.2550 C   0  0  0  0  0  0  0  0  0  0  0  0
  140.6610   70.7320  226.2010 C   0  0  0  0  0  0  0  0  0  0  0  0
  139.9520   69.5730  225.9680 C   0  0  0  0  0  0  0  0  0  0  0  0
  139.8430   68.4700  226.9600 C   0  0  0  0  0  0  0  0  0  0  0  0
  139.7600   68.9010  228.3970 C   0  0  0  0  0  0  0  0  0  0  0  0
  141.1360   68.3470  228.6180 C   0  0  0  0  0  0  0  0  0  0  0  0
  141.0660   67.6960  227.2680 C   0  0  0  0  0  0  0  0  0  0  0  0
  139.3260   69.4830  224.7300 C   0  0  0  0  0  0  0  0  0  0  0  0
  139.4020   70.4810  223.7820 C   0  0  0  0  0  0  0  0  0  0  0  0
  141.1650   74.9020  221.2670 C   0  0  0  0  0  0  0  0  0  0  0  0
  141.4470   77.6840  221.9650 N   0  0  0  0  0  0  0  0  0  0  0  0
  141.1061   83.8000  222.5915 H   0  0  0  0  0  0  0  0  0  0  0  0
  142.0121   83.7011  221.0436 H   0  0  0  0  0  0  0  0  0  0  0  0
  140.2192   83.5903  221.0436 H   0  0  0  0  0  0  0  0  0  0  0  0
  141.5923   81.9732  223.8576 H   0  0  0  0  0  0  0  0  0  0  0  0
  141.7562   79.5265  224.1791 H   0  0  0  0  0  0  0  0  0  0  0  0
  140.8767   81.4183  219.6514 H   0  0  0  0  0  0  0  0  0  0  0  0
  140.0503   78.4881  219.4167 H   0  0  0  0  0  0  0  0  0  0  0  0
  141.7644   78.5654  219.0562 H   0  0  0  0  0  0  0  0  0  0  0  0
  141.3628   76.4015  218.2186 H   0  0  0  0  0  0  0  0  0  0  0  0
  141.3457   74.0053  217.5378 H   0  0  0  0  0  0  0  0  0  0  0  0
  141.2188   72.2328  219.2385 H   0  0  0  0  0  0  0  0  0  0  0  0
  139.5200   73.4350  223.1150 H   0  0  0  0  0  0  0  0  0  0  0  0
  141.3165   72.6385  225.4864 H   0  0  0  0  0  0  0  0  0  0  0  0
  141.1771   70.8620  227.1637 H   0  0  0  0  0  0  0  0  0  0  0  0
  139.0006   67.9660  226.4637 H   0  0  0  0  0  0  0  0  0  0  0  0
  139.6819   69.9889  228.5394 H   0  0  0  0  0  0  0  0  0  0  0  0
  138.9174   68.5900  229.0320 H   0  0  0  0  0  0  0  0  0  0  0  0
  141.9217   69.1111  228.7116 H   0  0  0  0  0  0  0  0  0  0  0  0
  141.3696   67.7580  229.5172 H   0  0  0  0  0  0  0  0  0  0  0  0
  141.9198   67.9257  226.6136 H   0  0  0  0  0  0  0  0  0  0  0  0
  141.0694   66.5998  227.1771 H   0  0  0  0  0  0  0  0  0  0  0  0
  138.7459   68.5778  224.4972 H   0  0  0  0  0  0  0  0  0  0  0  0
  138.8880   70.3553  222.8176 H   0  0  0  0  0  0  0  0  0  0  0  0
  141.1135   75.1606  222.3349 H   0  0  0  0  0  0  0  0  0  0  0  0
  1  2  1  0
  2  3  2  0
  3  4  1  0
  4  5  2  0
  5  6  1  0
  6  7  2  0
  6  8  1  0
  8  9  1  0
  9 10  1  0
 10 11  2  0
 11 12  1  0
 12 13  2  0
 13 14  1  0
 14 15  1  0
 15 16  2  0
 15 17  1  0
 17 18  1  0
 18 19  2  0
 19 20  1  0
 20 21  2  0
 21 22  1  0
 22 23  1  0
 23 24  1  0
 24 25  1  0
 21 26  1  0
 26 27  2  0
 14 28  2  0
  9 29  2  0
  7  2  1  0
 28 10  1  0
 29  5  1  0
 27 18  1  0
 25 22  1  0
  1 30  1  0
  1 31  1  0
  1 32  1  0
  3 33  1  0
  4 34  1  0
  7 35  1  0
  8 36  1  0
  8 37  1  0
 11 38  1  0
 12 39  1  0
 13 40  1  0
 17 41  1  0
 19 42  1  0
 20 43  1  0
 22 44  1  0
 23 45  1  0
 23 46  1  0
 24 47  1  0
 24 48  1  0
 25 49  1  0
 25 50  1  0
 26 51  1  0
 27 52  1  0
 28 53  1  0
M  END
>  <smiles>  (42) 
Cc1ccc2c(c1)CC(c1cccc(C(=O)Nc3ccc(C4CCC4)cc3)c1)=N2

>  <score_type>  (42) 
oracle

>  <origin>  (42) 
autodockgpu

>  <m_score__min__energy>  (42) 
-8.8800000000000008

>  <m_primary>  (42) 
energy

>  <rmsd>  (42) 
9.49557064209387

>  <m_score__min__rmsd>  (42) 
9.49557064209387

>  <meeko>  (42) 
{"free_energy": -8.84, "intermolecular_energy": -10.03, "internal_energy": -0.95, "cluster_size": 35, "cluster_id": 1, "rank_in_cluster": 15}

>  <energy>  (42) 
-8.67

>  <cluster_rmsd>  (42) 
0.28

>  <cluster>  (42) 
2

$$$$

     RDKit          3D

 53 57  0  0  0  0  0  0  0  0999 V2000
  141.1240   83.3910  221.5940 C   0  0  0  0  0  0  0  0  0  0  0  0
  141.2150   81.9030  221.7530 C   0  0  0  0  0  0  0  0  0  0  0  0
  141.3130   81.3620  223.0210 C   0  0  0  0  0  0  0  0  0  0  0  0
  141.3980   79.9990  223.2150 C   0  0  0  0  0  0  0  0  0  0  0  0
  141.3850   79.1490  222.1120 C   0  0  0  0  0  0  0  0  0  0  0  0
  141.2860   79.7060  220.8570 C   0  0  0  0  0  0  0  0  0  0  0  0
  141.2010   81.0660  220.6490 C   0  0  0  0  0  0  0  0  0  0  0  0
  141.2960   78.5640  219.8840 C   0  0  0  0  0  0  0  0  0  0  0  0
  141.4080   77.3800  220.7500 C   0  0  0  0  0  0  0  0  0  0  0  0
  141.4630   75.9800  220.3490 C   0  0  0  0  0  0  0  0  0  0  0  0
  141.7040   75.6710  219.0130 C   0  0  0  0  0  0  0  0  0  0  0  0
  141.7560   74.3400  218.6410 C   0  0  0  0  0  0  0  0  0  0  0  0
  141.5730   73.3490  219.5770 C   0  0  0  0  0  0  0  0  0  0  0  0
  141.3340   73.6450  220.9030 C   0  0  0  0  0  0  0  0  0  0  0  0
  141.1340   72.6250  221.9270 C   0  0  0  0  0  0  0  0  0  0  0  0
  141.8310   71.5540  221.9380 O   0  0  0  0  0  0  0  0  0  0  0  0
  140.1740   72.7410  222.9640 N   0  0  0  0  0  0  0  0  0  0  0  0
  140.0010   71.7360  223.9440 C   0  0  0  0  0  0  0  0  0  0  0  0
  139.1880   70.6340  223.7840 C   0  0  0  0  0  0  0  0  0  0  0  0
  139.0450   69.6760  224.7650 C   0  0  0  0  0  0  0  0  0  0  0  0
  139.7140   69.7710  225.9670 C   0  0  0  0  0  0  0  0  0  0  0  0
  139.5890   68.7600  227.0520 C   0  0  0  0  0  0  0  0  0  0  0  0
  139.8370   69.2720  228.4420 C   0  0  0  0  0  0  0  0  0  0  0  0
  141.1110   68.4830  228.4800 C   0  0  0  0  0  0  0  0  0  0  0  0
  140.6920   67.7880  227.2180 C   0  0  0  0  0  0  0  0  0  0  0  0
  140.5310   70.8840  226.1210 C   0  0  0  0  0  0  0  0  0  0  0  0
  140.6750   71.8440  225.1420 C   0  0  0  0  0  0  0  0  0  0  0  0
  141.2840   74.9610  221.2680 C   0  0  0  0  0  0  0  0  0  0  0  0
  141.4550   77.7450  221.9970 N   0  0  0  0  0  0  0  0  0  0  0  0
  141.0950   83.8647  222.5863 H   0  0  0  0  0  0  0  0  0  0  0  0
  142.0016   83.7549  221.0395 H   0  0  0  0  0  0  0  0  0  0  0  0
  140.2086   83.6452  221.0395 H   0  0  0  0  0  0  0  0  0  0  0  0
  141.3234   82.0320  223.8933 H   0  0  0  0  0  0  0  0  0  0  0  0
  141.4754   79.5871  224.2320 H   0  0  0  0  0  0  0  0  0  0  0  0
  141.1240   81.4767  219.6315 H   0  0  0  0  0  0  0  0  0  0  0  0
  140.3649   78.5371  219.2988 H   0  0  0  0  0  0  0  0  0  0  0  0
  142.1088   78.6352  219.1463 H   0  0  0  0  0  0  0  0  0  0  0  0
  141.8499   76.4683  218.2694 H   0  0  0  0  0  0  0  0  0  0  0  0
  141.9447   74.0725  217.5909 H   0  0  0  0  0  0  0  0  0  0  0  0
  141.6182   72.2963  219.2610 H   0  0  0  0  0  0  0  0  0  0  0  0
  139.5710   73.5790  223.0220 H   0  0  0  0  0  0  0  0  0  0  0  0
  138.6343   70.5151  222.8410 H   0  0  0  0  0  0  0  0  0  0  0  0
  138.3824   68.8166  224.5848 H   0  0  0  0  0  0  0  0  0  0  0  0
  138.5970   68.3977  226.7442 H   0  0  0  0  0  0  0  0  0  0  0  0
  139.9772   70.3612  228.5048 H   0  0  0  0  0  0  0  0  0  0  0  0
  139.0780   69.1571  229.2298 H   0  0  0  0  0  0  0  0  0  0  0  0
  142.0226   69.0906  228.3806 H   0  0  0  0  0  0  0  0  0  0  0  0
  141.3919   67.9076  229.3744 H   0  0  0  0  0  0  0  0  0  0  0  0
  141.4442   67.8204  226.4160 H   0  0  0  0  0  0  0  0  0  0  0  0
  140.4875   66.7072  227.2182 H   0  0  0  0  0  0  0  0  0  0  0  0
  141.0860   71.0043  227.0631 H   0  0  0  0  0  0  0  0  0  0  0  0
  141.3352   72.7060  225.3187 H   0  0  0  0  0  0  0  0  0  0  0  0
  141.0963   75.2173  222.3211 H   0  0  0  0  0  0  0  0  0  0  0  0
  1  2  1  0
  2  3  2  0
  3  4  1  0
  4  5  2  0
  5  6  1  0
  6  7  2  0
  6  8  1  0
  8  9  1  0
  9 10  1  0
 10 11  2  0
 11 12  1  0
 12 13  2  0
 13 14  1  0
 14 15  1  0
 15 16  2  0
 15 17  1  0
 17 18  1  0
 18 19  2  0
 19 20  1  0
 20 21  2  0
 21 22  1  0
 22 23  1  0
 23 24  1  0
 24 25  1  0
 21 26  1  0
 26 27  2  0
 14 28  2  0
  9 29  2  0
  7  2  1  0
 28 10  1  0
 29  5  1  0
 27 18  1  0
 25 22  1  0
  1 30  1  0
  1 31  1  0
  1 32  1  0
  3 33  1  0
  4 34  1  0
  7 35  1  0
  8 36  1  0
  8 37  1  0
 11 38  1  0
 12 39  1  0
 13 40  1  0
 17 41  1  0
 19 42  1  0
 20 43  1  0
 22 44  1  0
 23 45  1  0
 23 46  1  0
 24 47  1  0
 24 48  1  0
 25 49  1  0
 25 50  1  0
 26 51  1  0
 27 52  1  0
 28 53  1  0
M  END
>  <smiles>  (43) 
Cc1ccc2c(c1)CC(c1cccc(C(=O)Nc3ccc(C4CCC4)cc3)c1)=N2

>  <score_type>  (43) 
oracle

>  <origin>  (43) 
autodockgpu

>  <m_score__min__energy>  (43) 
-8.8800000000000008

>  <m_primary>  (43) 
energy

>  <rmsd>  (43) 
9.346023518238736

>  <m_score__min__rmsd>  (43) 
9.346023518238736

>  <meeko>  (43) 
{"free_energy": -8.82, "intermolecular_energy": -10.02, "internal_energy": -0.95, "cluster_size": 35, "cluster_id": 1, "rank_in_cluster": 22}

>  <energy>  (43) 
-8.66

>  <cluster_rmsd>  (43) 
0.28

>  <cluster>  (43) 
2

$$$$

     RDKit          3D

 53 57  0  0  0  0  0  0  0  0999 V2000
  141.0770   83.3460  221.5870 C   0  0  0  0  0  0  0  0  0  0  0  0
  141.1750   81.8570  221.7400 C   0  0  0  0  0  0  0  0  0  0  0  0
  141.4200   81.3210  222.9900 C   0  0  0  0  0  0  0  0  0  0  0  0
  141.5180   79.9570  223.1780 C   0  0  0  0  0  0  0  0  0  0  0  0
  141.3660   79.1040  222.0880 C   0  0  0  0  0  0  0  0  0  0  0  0
  141.1210   79.6580  220.8510 C   0  0  0  0  0  0  0  0  0  0  0  0
  141.0220   81.0180  220.6490 C   0  0  0  0  0  0  0  0  0  0  0  0
  141.0060   78.5130  219.8890 C   0  0  0  0  0  0  0  0  0  0  0  0
  141.2130   77.3300  220.7400 C   0  0  0  0  0  0  0  0  0  0  0  0
  141.2090   75.9280  220.3410 C   0  0  0  0  0  0  0  0  0  0  0  0
  141.2780   75.6140  218.9860 C   0  0  0  0  0  0  0  0  0  0  0  0
  141.2750   74.2810  218.6160 C   0  0  0  0  0  0  0  0  0  0  0  0
  141.2050   73.2950  219.5720 C   0  0  0  0  0  0  0  0  0  0  0  0
  141.1370   73.5970  220.9160 C   0  0  0  0  0  0  0  0  0  0  0  0
  141.0610   72.5820  221.9620 C   0  0  0  0  0  0  0  0  0  0  0  0
  141.8390   71.5680  221.9550 O   0  0  0  0  0  0  0  0  0  0  0  0
  140.1400   72.6400  223.0380 N   0  0  0  0  0  0  0  0  0  0  0  0
  140.0890   71.6410  224.0380 C   0  0  0  0  0  0  0  0  0  0  0  0
  140.7460   71.7250  225.2470 C   0  0  0  0  0  0  0  0  0  0  0  0
  140.6710   70.7290  226.1970 C   0  0  0  0  0  0  0  0  0  0  0  0
  139.9300   69.5860  225.9840 C   0  0  0  0  0  0  0  0  0  0  0  0
  139.8220   68.4860  226.9810 C   0  0  0  0  0  0  0  0  0  0  0  0
  139.7050   68.9230  228.4140 C   0  0  0  0  0  0  0  0  0  0  0  0
  141.0860   68.3960  228.6630 C   0  0  0  0  0  0  0  0  0  0  0  0
  141.0530   67.7360  227.3160 C   0  0  0  0  0  0  0  0  0  0  0  0
  139.2700   69.5080  224.7640 C   0  0  0  0  0  0  0  0  0  0  0  0
  139.3430   70.5040  223.8120 C   0  0  0  0  0  0  0  0  0  0  0  0
  141.1400   74.9140  221.2790 C   0  0  0  0  0  0  0  0  0  0  0  0
  141.4120   77.6990  221.9700 N   0  0  0  0  0  0  0  0  0  0  0  0
  141.0461   83.8155  222.5813 H   0  0  0  0  0  0  0  0  0  0  0  0
  141.9527   83.7162  221.0338 H   0  0  0  0  0  0  0  0  0  0  0  0
  140.1603   83.5982  221.0338 H   0  0  0  0  0  0  0  0  0  0  0  0
  141.5392   81.9942  223.8517 H   0  0  0  0  0  0  0  0  0  0  0  0
  141.7144   79.5476  224.1799 H   0  0  0  0  0  0  0  0  0  0  0  0
  140.8264   81.4265  219.6465 H   0  0  0  0  0  0  0  0  0  0  0  0
  140.0112   78.4913  219.4201 H   0  0  0  0  0  0  0  0  0  0  0  0
  141.7250   78.5758  219.0589 H   0  0  0  0  0  0  0  0  0  0  0  0
  141.3336   76.4081  218.2269 H   0  0  0  0  0  0  0  0  0  0  0  0
  141.3289   74.0084  217.5517 H   0  0  0  0  0  0  0  0  0  0  0  0
  141.2032   72.2409  219.2575 H   0  0  0  0  0  0  0  0  0  0  0  0
  139.4780   73.4300  223.1120 H   0  0  0  0  0  0  0  0  0  0  0  0
  141.3513   72.6182  225.4611 H   0  0  0  0  0  0  0  0  0  0  0  0
  141.2143   70.8488  227.1459 H   0  0  0  0  0  0  0  0  0  0  0  0
  138.9979   67.9645  226.4723 H   0  0  0  0  0  0  0  0  0  0  0  0
  139.6043   70.0100  228.5489 H   0  0  0  0  0  0  0  0  0  0  0  0
  138.8568   68.5998  229.0354 H   0  0  0  0  0  0  0  0  0  0  0  0
  141.8557   69.1751  228.7663 H   0  0  0  0  0  0  0  0  0  0  0  0
  141.3137   67.8165  229.5698 H   0  0  0  0  0  0  0  0  0  0  0  0
  141.9145   67.9774  226.6760 H   0  0  0  0  0  0  0  0  0  0  0  0
  141.0780   66.6395  227.2317 H   0  0  0  0  0  0  0  0  0  0  0  0
  138.6643   68.6155  224.5482 H   0  0  0  0  0  0  0  0  0  0  0  0
  138.8000   70.3895  222.8622 H   0  0  0  0  0  0  0  0  0  0  0  0
  141.0861   75.1750  222.3462 H   0  0  0  0  0  0  0  0  0  0  0  0
  1  2  1  0
  2  3  2  0
  3  4  1  0
  4  5  2  0
  5  6  1  0
  6  7  2  0
  6  8  1  0
  8  9  1  0
  9 10  1  0
 10 11  2  0
 11 12  1  0
 12 13  2  0
 13 14  1  0
 14 15  1  0
 15 16  2  0
 15 17  1  0
 17 18  1  0
 18 19  2  0
 19 20  1  0
 20 21  2  0
 21 22  1  0
 22 23  1  0
 23 24  1  0
 24 25  1  0
 21 26  1  0
 26 27  2  0
 14 28  2  0
  9 29  2  0
  7  2  1  0
 28 10  1  0
 29  5  1  0
 27 18  1  0
 25 22  1  0
  1 30  1  0
  1 31  1  0
  1 32  1  0
  3 33  1  0
  4 34  1  0
  7 35  1  0
  8 36  1  0
  8 37  1  0
 11 38  1  0
 12 39  1  0
 13 40  1  0
 17 41  1  0
 19 42  1  0
 20 43  1  0
 22 44  1  0
 23 45  1  0
 23 46  1  0
 24 47  1  0
 24 48  1  0
 25 49  1  0
 25 50  1  0
 26 51  1  0
 27 52  1  0
 28 53  1  0
M  END
>  <smiles>  (44) 
Cc1ccc2c(c1)CC(c1cccc(C(=O)Nc3ccc(C4CCC4)cc3)c1)=N2

>  <score_type>  (44) 
oracle

>  <origin>  (44) 
autodockgpu

>  <m_score__min__energy>  (44) 
-8.8800000000000008

>  <m_primary>  (44) 
energy

>  <rmsd>  (44) 
9.488905780650665

>  <m_score__min__rmsd>  (44) 
9.488905780650665

>  <meeko>  (44) 
{"free_energy": -8.84, "intermolecular_energy": -10.04, "internal_energy": -0.95, "cluster_size": 35, "cluster_id": 1, "rank_in_cluster": 13}

>  <energy>  (44) 
-8.66

>  <cluster_rmsd>  (44) 
0.34

>  <cluster>  (44) 
2

$$$$

     RDKit          3D

 53 57  0  0  0  0  0  0  0  0999 V2000
  141.1180   83.3240  221.5920 C   0  0  0  0  0  0  0  0  0  0  0  0
  141.2070   81.8350  221.7470 C   0  0  0  0  0  0  0  0  0  0  0  0
  141.3440   81.2940  223.0120 C   0  0  0  0  0  0  0  0  0  0  0  0
  141.4290   79.9300  223.2030 C   0  0  0  0  0  0  0  0  0  0  0  0
  141.3770   79.0810  222.1010 C   0  0  0  0  0  0  0  0  0  0  0  0
  141.2400   79.6390  220.8490 C   0  0  0  0  0  0  0  0  0  0  0  0
  141.1540   80.9990  220.6450 C   0  0  0  0  0  0  0  0  0  0  0  0
  141.2140   78.4970  219.8770 C   0  0  0  0  0  0  0  0  0  0  0  0
  141.3490   77.3120  220.7380 C   0  0  0  0  0  0  0  0  0  0  0  0
  141.3850   75.9120  220.3350 C   0  0  0  0  0  0  0  0  0  0  0  0
  141.5950   75.6020  218.9940 C   0  0  0  0  0  0  0  0  0  0  0  0
  141.6290   74.2710  218.6200 C   0  0  0  0  0  0  0  0  0  0  0  0
  141.4580   73.2810  219.5590 C   0  0  0  0  0  0  0  0  0  0  0  0
  141.2500   73.5780  220.8900 C   0  0  0  0  0  0  0  0  0  0  0  0
  141.0640   72.5590  221.9180 C   0  0  0  0  0  0  0  0  0  0  0  0
  141.8080   71.5210  221.9610 O   0  0  0  0  0  0  0  0  0  0  0  0
  140.0670   72.6400  222.9230 N   0  0  0  0  0  0  0  0  0  0  0  0
  139.9090   71.6370  223.9070 C   0  0  0  0  0  0  0  0  0  0  0  0
  138.8540   70.7490  223.9410 C   0  0  0  0  0  0  0  0  0  0  0  0
  138.7350   69.7840  224.9190 C   0  0  0  0  0  0  0  0  0  0  0  0
  139.6720   69.6570  225.9230 C   0  0  0  0  0  0  0  0  0  0  0  0
  139.5820   68.6310  226.9970 C   0  0  0  0  0  0  0  0  0  0  0  0
  139.7420   69.1480  228.3980 C   0  0  0  0  0  0  0  0  0  0  0  0
  141.0680   68.4540  228.4790 C   0  0  0  0  0  0  0  0  0  0  0  0
  140.7470   67.7410  227.1980 C   0  0  0  0  0  0  0  0  0  0  0  0
  140.7320   70.5550  225.8810 C   0  0  0  0  0  0  0  0  0  0  0  0
  140.8530   71.5210  224.9050 C   0  0  0  0  0  0  0  0  0  0  0  0
  141.2170   74.8940  221.2570 C   0  0  0  0  0  0  0  0  0  0  0  0
  141.4380   77.6770  221.9820 N   0  0  0  0  0  0  0  0  0  0  0  0
  141.0898   83.7950  222.5856 H   0  0  0  0  0  0  0  0  0  0  0  0
  141.9960   83.6881  221.0383 H   0  0  0  0  0  0  0  0  0  0  0  0
  140.2029   83.5810  221.0383 H   0  0  0  0  0  0  0  0  0  0  0  0
  141.3861   81.9641  223.8833 H   0  0  0  0  0  0  0  0  0  0  0  0
  141.5369   79.5173  224.2169 H   0  0  0  0  0  0  0  0  0  0  0  0
  141.0458   81.4105  219.6306 H   0  0  0  0  0  0  0  0  0  0  0  0
  140.2644   78.4741  219.3222 H   0  0  0  0  0  0  0  0  0  0  0  0
  142.0034   78.5650  219.1139 H   0  0  0  0  0  0  0  0  0  0  0  0
  141.7310   76.3988  218.2479 H   0  0  0  0  0  0  0  0  0  0  0  0
  141.7937   74.0029  217.5660 H   0  0  0  0  0  0  0  0  0  0  0  0
  141.4877   72.2282  219.2415 H   0  0  0  0  0  0  0  0  0  0  0  0
  139.4260   73.4500  222.9540 H   0  0  0  0  0  0  0  0  0  0  0  0
  138.0809   70.8128  223.1611 H   0  0  0  0  0  0  0  0  0  0  0  0
  137.8735   69.1003  224.8978 H   0  0  0  0  0  0  0  0  0  0  0  0
  138.6308   68.2001  226.6512 H   0  0  0  0  0  0  0  0  0  0  0  0
  139.7998   70.2440  228.4719 H   0  0  0  0  0  0  0  0  0  0  0  0
  138.9654   68.9712  229.1567 H   0  0  0  0  0  0  0  0  0  0  0  0
  141.9357   69.1273  228.4170 H   0  0  0  0  0  0  0  0  0  0  0  0
  141.3575   67.8932  229.3799 H   0  0  0  0  0  0  0  0  0  0  0  0
  141.5233   67.8353  226.4244 H   0  0  0  0  0  0  0  0  0  0  0  0
  140.6225   66.6481  227.1844 H   0  0  0  0  0  0  0  0  0  0  0  0
  141.5069   70.4923  226.6592 H   0  0  0  0  0  0  0  0  0  0  0  0
  141.7126   72.2071  224.9227 H   0  0  0  0  0  0  0  0  0  0  0  0
  141.0524   75.1509  222.3138 H   0  0  0  0  0  0  0  0  0  0  0  0
  1  2  1  0
  2  3  2  0
  3  4  1  0
  4  5  2  0
  5  6  1  0
  6  7  2  0
  6  8  1  0
  8  9  1  0
  9 10  1  0
 10 11  2  0
 11 12  1  0
 12 13  2  0
 13 14  1  0
 14 15  1  0
 15 16  2  0
 15 17  1  0
 17 18  1  0
 18 19  2  0
 19 20  1  0
 20 21  2  0
 21 22  1  0
 22 23  1  0
 23 24  1  0
 24 25  1  0
 21 26  1  0
 26 27  2  0
 14 28  2  0
  9 29  2  0
  7  2  1  0
 28 10  1  0
 29  5  1  0
 27 18  1  0
 25 22  1  0
  1 30  1  0
  1 31  1  0
  1 32  1  0
  3 33  1  0
  4 34  1  0
  7 35  1  0
  8 36  1  0
  8 37  1  0
 11 38  1  0
 12 39  1  0
 13 40  1  0
 17 41  1  0
 19 42  1  0
 20 43  1  0
 22 44  1  0
 23 45  1  0
 23 46  1  0
 24 47  1  0
 24 48  1  0
 25 49  1  0
 25 50  1  0
 26 51  1  0
 27 52  1  0
 28 53  1  0
M  END
>  <smiles>  (45) 
Cc1ccc2c(c1)CC(c1cccc(C(=O)Nc3ccc(C4CCC4)cc3)c1)=N2

>  <score_type>  (45) 
oracle

>  <origin>  (45) 
autodockgpu

>  <m_score__min__energy>  (45) 
-8.8800000000000008

>  <m_primary>  (45) 
energy

>  <rmsd>  (45) 
9.402631113795684

>  <m_score__min__rmsd>  (45) 
9.402631113795684

>  <meeko>  (45) 
{"free_energy": -8.88, "intermolecular_energy": -10.07, "internal_energy": -0.94, "cluster_size": 35, "cluster_id": 1, "rank_in_cluster": 1}

>  <energy>  (45) 
-8.64

>  <cluster_rmsd>  (45) 
1.06

>  <cluster>  (45) 
2

$$$$

     RDKit          3D

 53 57  0  0  0  0  0  0  0  0999 V2000
  140.9520   68.1420  229.0400 C   0  0  0  0  0  0  0  0  0  0  0  0
  140.5560   68.5250  227.6450 C   0  0  0  0  0  0  0  0  0  0  0  0
  139.6840   67.7150  226.9430 C   0  0  0  0  0  0  0  0  0  0  0  0
  139.2920   68.0280  225.6580 C   0  0  0  0  0  0  0  0  0  0  0  0
  139.7850   69.1820  225.0540 C   0  0  0  0  0  0  0  0  0  0  0  0
  140.6520   69.9770  225.7700 C   0  0  0  0  0  0  0  0  0  0  0  0
  141.0520   69.6760  227.0540 C   0  0  0  0  0  0  0  0  0  0  0  0
  141.0070   71.1280  224.8770 C   0  0  0  0  0  0  0  0  0  0  0  0
  140.2480   70.8530  223.6470 C   0  0  0  0  0  0  0  0  0  0  0  0
  140.2070   71.6440  222.4240 C   0  0  0  0  0  0  0  0  0  0  0  0
  140.1900   70.9860  221.1960 C   0  0  0  0  0  0  0  0  0  0  0  0
  140.1500   71.7450  220.0400 C   0  0  0  0  0  0  0  0  0  0  0  0
  140.1290   73.1180  220.1110 C   0  0  0  0  0  0  0  0  0  0  0  0
  140.1450   73.7780  221.3220 C   0  0  0  0  0  0  0  0  0  0  0  0
  140.1240   75.2330  221.4410 C   0  0  0  0  0  0  0  0  0  0  0  0
  139.0570   75.8980  221.2150 O   0  0  0  0  0  0  0  0  0  0  0  0
  141.2590   76.0010  221.8060 N   0  0  0  0  0  0  0  0  0  0  0  0
  141.2090   77.4100  221.9130 C   0  0  0  0  0  0  0  0  0  0  0  0
  141.2190   78.0930  223.1110 C   0  0  0  0  0  0  0  0  0  0  0  0
  141.1690   79.4700  223.1740 C   0  0  0  0  0  0  0  0  0  0  0  0
  141.1050   80.2400  222.0320 C   0  0  0  0  0  0  0  0  0  0  0  0
  141.0500   81.7270  222.0540 C   0  0  0  0  0  0  0  0  0  0  0  0
  139.6730   82.3230  221.9760 C   0  0  0  0  0  0  0  0  0  0  0  0
  139.9880   82.8120  220.5940 C   0  0  0  0  0  0  0  0  0  0  0  0
  141.4270   82.4490  220.8180 C   0  0  0  0  0  0  0  0  0  0  0  0
  141.0960   79.5450  220.8290 C   0  0  0  0  0  0  0  0  0  0  0  0
  141.1460   78.1680  220.7630 C   0  0  0  0  0  0  0  0  0  0  0  0
  140.1840   73.0270  222.4620 C   0  0  0  0  0  0  0  0  0  0  0  0
  139.5710   69.7520  223.7820 N   0  0  0  0  0  0  0  0  0  0  0  0
  140.3555   68.7190  229.7620 H   0  0  0  0  0  0  0  0  0  0  0  0
  140.7711   67.0675  229.1906 H   0  0  0  0  0  0  0  0  0  0  0  0
  142.0199   68.3587  229.1906 H   0  0  0  0  0  0  0  0  0  0  0  0
  139.2947   66.8025  227.4182 H   0  0  0  0  0  0  0  0  0  0  0  0
  138.5960   67.3717  225.1150 H   0  0  0  0  0  0  0  0  0  0  0  0
  141.7478   70.3332  227.5963 H   0  0  0  0  0  0  0  0  0  0  0  0
  140.6974   72.0837  225.3250 H   0  0  0  0  0  0  0  0  0  0  0  0
  142.0893   71.2177  224.7024 H   0  0  0  0  0  0  0  0  0  0  0  0
  140.2080   69.8873  221.1467 H   0  0  0  0  0  0  0  0  0  0  0  0
  140.1349   71.2475  219.0590 H   0  0  0  0  0  0  0  0  0  0  0  0
  140.0987   73.7037  219.1804 H   0  0  0  0  0  0  0  0  0  0  0  0
  142.1590   75.5340  222.0040 H   0  0  0  0  0  0  0  0  0  0  0  0
  141.2685   77.5199  224.0486 H   0  0  0  0  0  0  0  0  0  0  0  0
  141.1805   79.9645  224.1565 H   0  0  0  0  0  0  0  0  0  0  0  0
  141.6731   81.8415  222.9532 H   0  0  0  0  0  0  0  0  0  0  0  0
  138.8577   81.5859  222.0203 H   0  0  0  0  0  0  0  0  0  0  0  0
  139.3128   83.0152  222.7513 H   0  0  0  0  0  0  0  0  0  0  0  0
  139.4978   82.2432  219.7901 H   0  0  0  0  0  0  0  0  0  0  0  0
  139.7048   83.8262  220.2760 H   0  0  0  0  0  0  0  0  0  0  0  0
  141.8555   81.8062  220.0349 H   0  0  0  0  0  0  0  0  0  0  0  0
  142.2016   83.2296  220.8425 H   0  0  0  0  0  0  0  0  0  0  0  0
  141.0470   80.1164  219.8903 H   0  0  0  0  0  0  0  0  0  0  0  0
  141.1355   77.6694  219.7825 H   0  0  0  0  0  0  0  0  0  0  0  0
  140.1975   73.5355  223.4373 H   0  0  0  0  0  0  0  0  0  0  0  0
  1  2  1  0
  2  3  2  0
  3  4  1  0
  4  5  2  0
  5  6  1  0
  6  7  2  0
  6  8  1  0
  8  9  1  0
  9 10  1  0
 10 11  2  0
 11 12  1  0
 12 13  2  0
 13 14  1  0
 14 15  1  0
 15 16  2  0
 15 17  1  0
 17 18  1  0
 18 19  2  0
 19 20  1  0
 20 21  2  0
 21 22  1  0
 22 23  1  0
 23 24  1  0
 24 25  1  0
 21 26  1  0
 26 27  2  0
 14 28  2  0
  9 29  2  0
  7  2  1  0
 28 10  1  0
 29  5  1  0
 27 18  1  0
 25 22  1  0
  1 30  1  0
  1 31  1  0
  1 32  1  0
  3 33  1  0
  4 34  1  0
  7 35  1  0
  8 36  1  0
  8 37  1  0
 11 38  1  0
 12 39  1  0
 13 40  1  0
 17 41  1  0
 19 42  1  0
 20 43  1  0
 22 44  1  0
 23 45  1  0
 23 46  1  0
 24 47  1  0
 24 48  1  0
 25 49  1  0
 25 50  1  0
 26 51  1  0
 27 52  1  0
 28 53  1  0
M  END
>  <smiles>  (46) 
Cc1ccc2c(c1)CC(c1cccc(C(=O)Nc3ccc(C4CCC4)cc3)c1)=N2

>  <score_type>  (46) 
oracle

>  <origin>  (46) 
autodockgpu

>  <m_score__min__energy>  (46) 
-8.8800000000000008

>  <m_primary>  (46) 
energy

>  <rmsd>  (46) 
4.077638941953785

>  <m_score__min__rmsd>  (46) 
4.077638941953785

>  <meeko>  (46) 
{"free_energy": -8.67, "intermolecular_energy": -9.86, "internal_energy": -0.95, "cluster_size": 15, "cluster_id": 2, "rank_in_cluster": 6}

>  <energy>  (46) 
-8.63

>  <cluster_rmsd>  (46) 
1.06

>  <cluster>  (46) 
2

$$$$

     RDKit          3D

 53 57  0  0  0  0  0  0  0  0999 V2000
  141.1500   83.3880  221.5820 C   0  0  0  0  0  0  0  0  0  0  0  0
  141.2330   81.8970  221.7260 C   0  0  0  0  0  0  0  0  0  0  0  0
  141.5760   81.3540  222.9500 C   0  0  0  0  0  0  0  0  0  0  0  0
  141.6640   79.9890  223.1290 C   0  0  0  0  0  0  0  0  0  0  0  0
  141.4020   79.1400  222.0560 C   0  0  0  0  0  0  0  0  0  0  0  0
  141.0620   79.7000  220.8450 C   0  0  0  0  0  0  0  0  0  0  0  0
  140.9710   81.0620  220.6530 C   0  0  0  0  0  0  0  0  0  0  0  0
  140.8420   78.5590  219.8970 C   0  0  0  0  0  0  0  0  0  0  0  0
  141.0990   77.3720  220.7270 C   0  0  0  0  0  0  0  0  0  0  0  0
  141.0350   75.9710  220.3290 C   0  0  0  0  0  0  0  0  0  0  0  0
  141.0080   75.6560  218.9730 C   0  0  0  0  0  0  0  0  0  0  0  0
  140.9480   74.3240  218.6050 C   0  0  0  0  0  0  0  0  0  0  0  0
  140.9150   73.3390  219.5640 C   0  0  0  0  0  0  0  0  0  0  0  0
  140.9410   73.6410  220.9090 C   0  0  0  0  0  0  0  0  0  0  0  0
  140.9070   72.6270  221.9580 C   0  0  0  0  0  0  0  0  0  0  0  0
  141.7420   71.6590  221.9680 O   0  0  0  0  0  0  0  0  0  0  0  0
  139.9680   72.6370  223.0210 N   0  0  0  0  0  0  0  0  0  0  0  0
  139.9580   71.6400  224.0240 C   0  0  0  0  0  0  0  0  0  0  0  0
  140.9810   71.4450  224.9270 C   0  0  0  0  0  0  0  0  0  0  0  0
  140.9340   70.4600  225.8910 C   0  0  0  0  0  0  0  0  0  0  0  0
  139.8520   69.6130  226.0030 C   0  0  0  0  0  0  0  0  0  0  0  0
  139.7600   68.5380  227.0270 C   0  0  0  0  0  0  0  0  0  0  0  0
  139.6830   69.0090  228.4520 C   0  0  0  0  0  0  0  0  0  0  0  0
  141.0650   68.4760  228.6800 C   0  0  0  0  0  0  0  0  0  0  0  0
  140.9930   67.7850  227.3490 C   0  0  0  0  0  0  0  0  0  0  0  0
  138.8250   69.8170  225.0890 C   0  0  0  0  0  0  0  0  0  0  0  0
  138.8700   70.8000  224.1240 C   0  0  0  0  0  0  0  0  0  0  0  0
  141.0010   74.9580  221.2700 C   0  0  0  0  0  0  0  0  0  0  0  0
  141.4110   77.7350  221.9350 N   0  0  0  0  0  0  0  0  0  0  0  0
  141.1242   83.8518  222.5791 H   0  0  0  0  0  0  0  0  0  0  0  0
  142.0292   83.7526  221.0307 H   0  0  0  0  0  0  0  0  0  0  0  0
  140.2357   83.6528  221.0307 H   0  0  0  0  0  0  0  0  0  0  0  0
  141.7829   82.0235  223.7980 H   0  0  0  0  0  0  0  0  0  0  0  0
  141.9386   79.5746  224.1103 H   0  0  0  0  0  0  0  0  0  0  0  0
  140.6969   81.4755  219.6712 H   0  0  0  0  0  0  0  0  0  0  0  0
  139.8100   78.5571  219.5161 H   0  0  0  0  0  0  0  0  0  0  0  0
  141.4873   78.6091  219.0076 H   0  0  0  0  0  0  0  0  0  0  0  0
  141.0338   76.4490  218.2111 H   0  0  0  0  0  0  0  0  0  0  0  0
  140.9266   74.0512  217.5396 H   0  0  0  0  0  0  0  0  0  0  0  0
  140.8667   72.2856  219.2508 H   0  0  0  0  0  0  0  0  0  0  0  0
  139.2610   73.3880  223.0810 H   0  0  0  0  0  0  0  0  0  0  0  0
  141.8652   72.0975  224.8770 H   0  0  0  0  0  0  0  0  0  0  0  0
  141.7789   70.3476  226.5863 H   0  0  0  0  0  0  0  0  0  0  0  0
  138.9191   68.0123  226.5511 H   0  0  0  0  0  0  0  0  0  0  0  0
  139.5948   70.0998  228.5637 H   0  0  0  0  0  0  0  0  0  0  0  0
  138.8479   68.7075  229.1014 H   0  0  0  0  0  0  0  0  0  0  0  0
  141.8434   69.2504  228.7463 H   0  0  0  0  0  0  0  0  0  0  0  0
  141.3103   67.9158  229.5943 H   0  0  0  0  0  0  0  0  0  0  0  0
  141.8403   68.0040  226.6825 H   0  0  0  0  0  0  0  0  0  0  0  0
  141.0069   66.6867  227.2897 H   0  0  0  0  0  0  0  0  0  0  0  0
  137.9392   69.1667  225.1379 H   0  0  0  0  0  0  0  0  0  0  0  0
  138.0279   70.9154  223.4257 H   0  0  0  0  0  0  0  0  0  0  0  0
  141.0229   75.2193  222.3383 H   0  0  0  0  0  0  0  0  0  0  0  0
  1  2  1  0
  2  3  2  0
  3  4  1  0
  4  5  2  0
  5  6  1  0
  6  7  2  0
  6  8  1  0
  8  9  1  0
  9 10  1  0
 10 11  2  0
 11 12  1  0
 12 13  2  0
 13 14  1  0
 14 15  1  0
 15 16  2  0
 15 17  1  0
 17 18  1  0
 18 19  2  0
 19 20  1  0
 20 21  2  0
 21 22  1  0
 22 23  1  0
 23 24  1  0
 24 25  1  0
 21 26  1  0
 26 27  2  0
 14 28  2  0
  9 29  2  0
  7  2  1  0
 28 10  1  0
 29  5  1  0
 27 18  1  0
 25 22  1  0
  1 30  1  0
  1 31  1  0
  1 32  1  0
  3 33  1  0
  4 34  1  0
  7 35  1  0
  8 36  1  0
  8 37  1  0
 11 38  1  0
 12 39  1  0
 13 40  1  0
 17 41  1  0
 19 42  1  0
 20 43  1  0
 22 44  1  0
 23 45  1  0
 23 46  1  0
 24 47  1  0
 24 48  1  0
 25 49  1  0
 25 50  1  0
 26 51  1  0
 27 52  1  0
 28 53  1  0
M  END
>  <smiles>  (47) 
Cc1ccc2c(c1)CC(c1cccc(C(=O)Nc3ccc(C4CCC4)cc3)c1)=N2

>  <score_type>  (47) 
oracle

>  <origin>  (47) 
autodockgpu

>  <m_score__min__energy>  (47) 
-8.8800000000000008

>  <m_primary>  (47) 
energy

>  <rmsd>  (47) 
9.467614184582931

>  <m_score__min__rmsd>  (47) 
9.467614184582931

>  <meeko>  (47) 
{"free_energy": -8.74, "intermolecular_energy": -9.93, "internal_energy": -0.93, "cluster_size": 35, "cluster_id": 1, "rank_in_cluster": 35}

>  <energy>  (47) 
-8.63

>  <cluster_rmsd>  (47) 
1.06

>  <cluster>  (47) 
2

$$$$

     RDKit          3D

 53 57  0  0  0  0  0  0  0  0999 V2000
  141.1790   68.1380  229.0960 C   0  0  0  0  0  0  0  0  0  0  0  0
  140.6880   68.4720  227.7180 C   0  0  0  0  0  0  0  0  0  0  0  0
  139.8710   67.5750  227.0550 C   0  0  0  0  0  0  0  0  0  0  0  0
  139.3960   67.8390  225.7880 C   0  0  0  0  0  0  0  0  0  0  0  0
  139.7460   69.0330  225.1610 C   0  0  0  0  0  0  0  0  0  0  0  0
  140.5600   69.9140  225.8370 C   0  0  0  0  0  0  0  0  0  0  0  0
  141.0420   69.6620  227.1040 C   0  0  0  0  0  0  0  0  0  0  0  0
  140.7610   71.0900  224.9280 C   0  0  0  0  0  0  0  0  0  0  0  0
  139.9810   70.7330  223.7330 C   0  0  0  0  0  0  0  0  0  0  0  0
  139.8100   71.5090  222.5110 C   0  0  0  0  0  0  0  0  0  0  0  0
  139.4940   70.8430  221.3290 C   0  0  0  0  0  0  0  0  0  0  0  0
  139.3330   71.5870  220.1740 C   0  0  0  0  0  0  0  0  0  0  0  0
  139.4820   72.9540  220.2010 C   0  0  0  0  0  0  0  0  0  0  0  0
  139.7950   73.6220  221.3670 C   0  0  0  0  0  0  0  0  0  0  0  0
  139.9630   75.0700  221.4390 C   0  0  0  0  0  0  0  0  0  0  0  0
  140.4370   75.7290  220.4530 O   0  0  0  0  0  0  0  0  0  0  0  0
  139.6210   75.8370  222.5820 N   0  0  0  0  0  0  0  0  0  0  0  0
  139.7950   77.2400  222.6250 C   0  0  0  0  0  0  0  0  0  0  0  0
  138.7570   78.1460  222.6180 C   0  0  0  0  0  0  0  0  0  0  0  0
  138.9680   79.5080  222.6600 C   0  0  0  0  0  0  0  0  0  0  0  0
  140.2400   80.0380  222.7100 C   0  0  0  0  0  0  0  0  0  0  0  0
  140.5130   81.5000  222.7560 C   0  0  0  0  0  0  0  0  0  0  0  0
  139.7820   82.3260  221.7350 C   0  0  0  0  0  0  0  0  0  0  0  0
  141.0850   82.5700  221.0340 C   0  0  0  0  0  0  0  0  0  0  0  0
  141.8030   81.9780  222.2120 C   0  0  0  0  0  0  0  0  0  0  0  0
  141.2810   79.1180  222.7170 C   0  0  0  0  0  0  0  0  0  0  0  0
  141.0730   77.7560  222.6750 C   0  0  0  0  0  0  0  0  0  0  0  0
  139.9530   72.8840  222.5060 C   0  0  0  0  0  0  0  0  0  0  0  0
  139.4230   69.5710  223.8980 N   0  0  0  0  0  0  0  0  0  0  0  0
  140.5115   68.5921  229.8432 H   0  0  0  0  0  0  0  0  0  0  0  0
  141.1876   67.0459  229.2275 H   0  0  0  0  0  0  0  0  0  0  0  0
  142.1979   68.5312  229.2275 H   0  0  0  0  0  0  0  0  0  0  0  0
  139.5944   66.6316  227.5484 H   0  0  0  0  0  0  0  0  0  0  0  0
  138.7464   67.1134  225.2766 H   0  0  0  0  0  0  0  0  0  0  0  0
  141.6917   70.3881  227.6146 H   0  0  0  0  0  0  0  0  0  0  0  0
  140.3774   72.0129  225.3874 H   0  0  0  0  0  0  0  0  0  0  0  0
  141.8205   71.2863  224.7069 H   0  0  0  0  0  0  0  0  0  0  0  0
  139.3751   69.7495  221.3144 H   0  0  0  0  0  0  0  0  0  0  0  0
  139.0844   71.0825  219.2286 H   0  0  0  0  0  0  0  0  0  0  0  0
  139.3486   73.5277  219.2720 H   0  0  0  0  0  0  0  0  0  0  0  0
  139.2320   75.3740  223.4200 H   0  0  0  0  0  0  0  0  0  0  0  0
  137.7241   77.7698  222.5775 H   0  0  0  0  0  0  0  0  0  0  0  0
  138.1024   80.1868  222.6535 H   0  0  0  0  0  0  0  0  0  0  0  0
  140.3112   81.6096  223.8318 H   0  0  0  0  0  0  0  0  0  0  0  0
  139.0466   81.7640  221.1406 H   0  0  0  0  0  0  0  0  0  0  0  0
  139.1402   83.1650  222.0420 H   0  0  0  0  0  0  0  0  0  0  0  0
  141.2082   82.0050  220.0983 H   0  0  0  0  0  0  0  0  0  0  0  0
  141.3454   83.5707  220.6588 H   0  0  0  0  0  0  0  0  0  0  0  0
  142.5065   81.1735  221.9515 H   0  0  0  0  0  0  0  0  0  0  0  0
  142.4713   82.5988  222.8268 H   0  0  0  0  0  0  0  0  0  0  0  0
  142.3146   79.4922  222.7577 H   0  0  0  0  0  0  0  0  0  0  0  0
  141.9355   77.0734  222.6814 H   0  0  0  0  0  0  0  0  0  0  0  0
  140.2011   73.3987  223.4459 H   0  0  0  0  0  0  0  0  0  0  0  0
  1  2  1  0
  2  3  2  0
  3  4  1  0
  4  5  2  0
  5  6  1  0
  6  7  2  0
  6  8  1  0
  8  9  1  0
  9 10  1  0
 10 11  2  0
 11 12  1  0
 12 13  2  0
 13 14  1  0
 14 15  1  0
 15 16  2  0
 15 17  1  0
 17 18  1  0
 18 19  2  0
 19 20  1  0
 20 21  2  0
 21 22  1  0
 22 23  1  0
 23 24  1  0
 24 25  1  0
 21 26  1  0
 26 27  2  0
 14 28  2  0
  9 29  2  0
  7  2  1  0
 28 10  1  0
 29  5  1  0
 27 18  1  0
 25 22  1  0
  1 30  1  0
  1 31  1  0
  1 32  1  0
  3 33  1  0
  4 34  1  0
  7 35  1  0
  8 36  1  0
  8 37  1  0
 11 38  1  0
 12 39  1  0
 13 40  1  0
 17 41  1  0
 19 42  1  0
 20 43  1  0
 22 44  1  0
 23 45  1  0
 23 46  1  0
 24 47  1  0
 24 48  1  0
 25 49  1  0
 25 50  1  0
 26 51  1  0
 27 52  1  0
 28 53  1  0
M  END
>  <smiles>  (48) 
Cc1ccc2c(c1)CC(c1cccc(C(=O)Nc3ccc(C4CCC4)cc3)c1)=N2

>  <score_type>  (48) 
oracle

>  <origin>  (48) 
autodockgpu

>  <m_score__min__energy>  (48) 
-8.8800000000000008

>  <m_primary>  (48) 
energy

>  <rmsd>  (48) 
4.270326247987329

>  <m_score__min__rmsd>  (48) 
4.270326247987329

>  <meeko>  (48) 
{"free_energy": -8.63, "intermolecular_energy": -9.83, "internal_energy": -0.96, "cluster_size": 15, "cluster_id": 2, "rank_in_cluster": 11}

>  <energy>  (48) 
-8.63

>  <cluster_rmsd>  (48) 
0.34

>  <cluster>  (48) 
2

$$$$

     RDKit          3D

 53 57  0  0  0  0  0  0  0  0999 V2000
  141.1220   68.1340  229.0860 C   0  0  0  0  0  0  0  0  0  0  0  0
  140.6980   68.5050  227.6960 C   0  0  0  0  0  0  0  0  0  0  0  0
  139.9130   67.6280  226.9710 C   0  0  0  0  0  0  0  0  0  0  0  0
  139.4990   67.9270  225.6900 C   0  0  0  0  0  0  0  0  0  0  0  0
  139.8790   69.1370  225.1130 C   0  0  0  0  0  0  0  0  0  0  0  0
  140.6600   69.9980  225.8510 C   0  0  0  0  0  0  0  0  0  0  0  0
  141.0810   69.7110  227.1320 C   0  0  0  0  0  0  0  0  0  0  0  0
  140.9050   71.1970  224.9840 C   0  0  0  0  0  0  0  0  0  0  0  0
  140.1820   70.8740  223.7430 C   0  0  0  0  0  0  0  0  0  0  0  0
  140.0700   71.6820  222.5360 C   0  0  0  0  0  0  0  0  0  0  0  0
  139.9760   71.0420  221.3030 C   0  0  0  0  0  0  0  0  0  0  0  0
  139.8690   71.8170  220.1620 C   0  0  0  0  0  0  0  0  0  0  0  0
  139.8570   73.1890  220.2520 C   0  0  0  0  0  0  0  0  0  0  0  0
  139.9500   73.8320  221.4690 C   0  0  0  0  0  0  0  0  0  0  0  0
  139.9420   75.2850  221.6090 C   0  0  0  0  0  0  0  0  0  0  0  0
  138.8600   75.9540  221.4870 O   0  0  0  0  0  0  0  0  0  0  0  0
  141.1060   76.0470  221.8840 N   0  0  0  0  0  0  0  0  0  0  0  0
  141.0690   77.4540  222.0150 C   0  0  0  0  0  0  0  0  0  0  0  0
  141.3940   78.1310  223.1710 C   0  0  0  0  0  0  0  0  0  0  0  0
  141.3450   79.5060  223.2590 C   0  0  0  0  0  0  0  0  0  0  0  0
  140.9640   80.2820  222.1850 C   0  0  0  0  0  0  0  0  0  0  0  0
  140.8960   81.7680  222.2350 C   0  0  0  0  0  0  0  0  0  0  0  0
  139.5420   82.3620  221.9720 C   0  0  0  0  0  0  0  0  0  0  0  0
  140.0520   82.8870  220.6640 C   0  0  0  0  0  0  0  0  0  0  0  0
  141.4450   82.5220  221.0860 C   0  0  0  0  0  0  0  0  0  0  0  0
  140.6380   79.5930  221.0230 C   0  0  0  0  0  0  0  0  0  0  0  0
  140.6860   78.2180  220.9330 C   0  0  0  0  0  0  0  0  0  0  0  0
  140.0560   73.0640  222.5950 C   0  0  0  0  0  0  0  0  0  0  0  0
  139.6170   69.7090  223.8510 N   0  0  0  0  0  0  0  0  0  0  0  0
  140.5023   68.6762  229.8154 H   0  0  0  0  0  0  0  0  0  0  0  0
  140.9959   67.0509  229.2310 H   0  0  0  0  0  0  0  0  0  0  0  0
  142.1787   68.4028  229.2310 H   0  0  0  0  0  0  0  0  0  0  0  0
  139.6125   66.6722  227.4251 H   0  0  0  0  0  0  0  0  0  0  0  0
  138.8743   67.2166  225.1287 H   0  0  0  0  0  0  0  0  0  0  0  0
  141.7056   70.4221  227.6925 H   0  0  0  0  0  0  0  0  0  0  0  0
  140.5010   72.1083  225.4491 H   0  0  0  0  0  0  0  0  0  0  0  0
  141.9741   71.3963  224.8187 H   0  0  0  0  0  0  0  0  0  0  0  0
  139.9866   69.9440  221.2375 H   0  0  0  0  0  0  0  0  0  0  0  0
  139.7931   71.3329  219.1772 H   0  0  0  0  0  0  0  0  0  0  0  0
  139.7713   73.7874  219.3330 H   0  0  0  0  0  0  0  0  0  0  0  0
  142.0190   75.5770  221.9960 H   0  0  0  0  0  0  0  0  0  0  0  0
  141.7034   77.5536  224.0547 H   0  0  0  0  0  0  0  0  0  0  0  0
  141.6158   79.9945  224.2067 H   0  0  0  0  0  0  0  0  0  0  0  0
  141.3801   81.8612  223.2184 H   0  0  0  0  0  0  0  0  0  0  0  0
  138.7336   81.6219  221.8783 H   0  0  0  0  0  0  0  0  0  0  0  0
  139.0682   83.0331  222.7035 H   0  0  0  0  0  0  0  0  0  0  0  0
  139.6877   82.3380  219.7832 H   0  0  0  0  0  0  0  0  0  0  0  0
  139.8119   83.9084  220.3339 H   0  0  0  0  0  0  0  0  0  0  0  0
  141.9869   81.9004  220.3580 H   0  0  0  0  0  0  0  0  0  0  0  0
  142.2032   83.3034  221.2426 H   0  0  0  0  0  0  0  0  0  0  0  0
  140.3288   80.1686  220.1381 H   0  0  0  0  0  0  0  0  0  0  0  0
  140.4158   77.7251  219.9875 H   0  0  0  0  0  0  0  0  0  0  0  0
  140.1322   73.5585  223.5746 H   0  0  0  0  0  0  0  0  0  0  0  0
  1  2  1  0
  2  3  2  0
  3  4  1  0
  4  5  2  0
  5  6  1  0
  6  7  2  0
  6  8  1  0
  8  9  1  0
  9 10  1  0
 10 11  2  0
 11 12  1  0
 12 13  2  0
 13 14  1  0
 14 15  1  0
 15 16  2  0
 15 17  1  0
 17 18  1  0
 18 19  2  0
 19 20  1  0
 20 21  2  0
 21 22  1  0
 22 23  1  0
 23 24  1  0
 24 25  1  0
 21 26  1  0
 26 27  2  0
 14 28  2  0
  9 29  2  0
  7  2  1  0
 28 10  1  0
 29  5  1  0
 27 18  1  0
 25 22  1  0
  1 30  1  0
  1 31  1  0
  1 32  1  0
  3 33  1  0
  4 34  1  0
  7 35  1  0
  8 36  1  0
  8 37  1  0
 11 38  1  0
 12 39  1  0
 13 40  1  0
 17 41  1  0
 19 42  1  0
 20 43  1  0
 22 44  1  0
 23 45  1  0
 23 46  1  0
 24 47  1  0
 24 48  1  0
 25 49  1  0
 25 50  1  0
 26 51  1  0
 27 52  1  0
 28 53  1  0
M  END
>  <smiles>  (49) 
Cc1ccc2c(c1)CC(c1cccc(C(=O)Nc3ccc(C4CCC4)cc3)c1)=N2

>  <score_type>  (49) 
oracle

>  <origin>  (49) 
autodockgpu

>  <m_score__min__energy>  (49) 
-8.8800000000000008

>  <m_primary>  (49) 
energy

>  <rmsd>  (49) 
4.108421624750672

>  <m_score__min__rmsd>  (49) 
4.108421624750672

>  <meeko>  (49) 
{"free_energy": -8.73, "intermolecular_energy": -9.92, "internal_energy": -0.93, "cluster_size": 15, "cluster_id": 2, "rank_in_cluster": 1}

>  <energy>  (49) 
-8.6

>  <cluster_rmsd>  (49) 
0.4

>  <cluster>  (49) 
2

$$$$

     RDKit          3D

 53 57  0  0  0  0  0  0  0  0999 V2000
  141.1030   68.1550  229.0940 C   0  0  0  0  0  0  0  0  0  0  0  0
  140.6730   68.5040  227.7000 C   0  0  0  0  0  0  0  0  0  0  0  0
  139.9070   67.6030  226.9830 C   0  0  0  0  0  0  0  0  0  0  0  0
  139.4880   67.8810  225.6980 C   0  0  0  0  0  0  0  0  0  0  0  0
  139.8430   69.0930  225.1100 C   0  0  0  0  0  0  0  0  0  0  0  0
  140.6050   69.9770  225.8400 C   0  0  0  0  0  0  0  0  0  0  0  0
  141.0300   69.7110  227.1240 C   0  0  0  0  0  0  0  0  0  0  0  0
  140.8250   71.1730  224.9620 C   0  0  0  0  0  0  0  0  0  0  0  0
  140.1100   70.8220  223.7240 C   0  0  0  0  0  0  0  0  0  0  0  0
  139.9820   71.6170  222.5090 C   0  0  0  0  0  0  0  0  0  0  0  0
  139.8340   70.9620  221.2890 C   0  0  0  0  0  0  0  0  0  0  0  0
  139.7120   71.7240  220.1410 C   0  0  0  0  0  0  0  0  0  0  0  0
  139.7380   73.0970  220.2110 C   0  0  0  0  0  0  0  0  0  0  0  0
  139.8850   73.7540  221.4160 C   0  0  0  0  0  0  0  0  0  0  0  0
  139.9180   75.2080  221.5350 C   0  0  0  0  0  0  0  0  0  0  0  0
  138.8540   75.9050  221.4100 O   0  0  0  0  0  0  0  0  0  0  0  0
  141.1040   75.9410  221.7910 N   0  0  0  0  0  0  0  0  0  0  0  0
  141.1070   77.3510  221.9010 C   0  0  0  0  0  0  0  0  0  0  0  0
  141.0970   78.0310  223.1000 C   0  0  0  0  0  0  0  0  0  0  0  0
  141.0990   79.4080  223.1660 C   0  0  0  0  0  0  0  0  0  0  0  0
  141.1120   80.1830  222.0250 C   0  0  0  0  0  0  0  0  0  0  0  0
  141.1160   81.6710  222.0500 C   0  0  0  0  0  0  0  0  0  0  0  0
  139.7620   82.3200  221.9990 C   0  0  0  0  0  0  0  0  0  0  0  0
  140.0690   82.8000  220.6120 C   0  0  0  0  0  0  0  0  0  0  0  0
  141.4970   82.3800  220.8080 C   0  0  0  0  0  0  0  0  0  0  0  0
  141.1230   79.4910  220.8210 C   0  0  0  0  0  0  0  0  0  0  0  0
  141.1200   78.1140  220.7520 C   0  0  0  0  0  0  0  0  0  0  0  0
  140.0050   72.9990  222.5480 C   0  0  0  0  0  0  0  0  0  0  0  0
  139.5700   69.6470  223.8430 N   0  0  0  0  0  0  0  0  0  0  0  0
  140.4598   68.6771  229.8177 H   0  0  0  0  0  0  0  0  0  0  0  0
  141.0163   67.0686  229.2433 H   0  0  0  0  0  0  0  0  0  0  0  0
  142.1483   68.4633  229.2433 H   0  0  0  0  0  0  0  0  0  0  0  0
  139.6261   66.6457  227.4463 H   0  0  0  0  0  0  0  0  0  0  0  0
  138.8792   67.1522  225.1429 H   0  0  0  0  0  0  0  0  0  0  0  0
  141.6386   70.4408  227.6780 H   0  0  0  0  0  0  0  0  0  0  0  0
  140.4010   72.0797  225.4181 H   0  0  0  0  0  0  0  0  0  0  0  0
  141.8896   71.3942  224.7957 H   0  0  0  0  0  0  0  0  0  0  0  0
  139.8145   69.8633  221.2394 H   0  0  0  0  0  0  0  0  0  0  0  0
  139.5935   71.2285  219.1661 H   0  0  0  0  0  0  0  0  0  0  0  0
  139.6395   73.6847  219.2864 H   0  0  0  0  0  0  0  0  0  0  0  0
  142.0050   75.4470  221.9040 H   0  0  0  0  0  0  0  0  0  0  0  0
  141.0871   77.4547  224.0369 H   0  0  0  0  0  0  0  0  0  0  0  0
  141.0900   79.8994  224.1501 H   0  0  0  0  0  0  0  0  0  0  0  0
  141.7604   81.7595  222.9371 H   0  0  0  0  0  0  0  0  0  0  0  0
  138.9198   81.6148  222.0576 H   0  0  0  0  0  0  0  0  0  0  0  0
  139.4438   83.0239  222.7821 H   0  0  0  0  0  0  0  0  0  0  0  0
  139.5415   82.2530  219.8167 H   0  0  0  0  0  0  0  0  0  0  0  0
  139.8196   83.8253  220.3012 H   0  0  0  0  0  0  0  0  0  0  0  0
  141.8847   81.7224  220.0160 H   0  0  0  0  0  0  0  0  0  0  0  0
  142.3020   83.1296  220.8186 H   0  0  0  0  0  0  0  0  0  0  0  0
  141.1346   80.0656  219.8831 H   0  0  0  0  0  0  0  0  0  0  0  0
  141.1281   77.6185  219.7700 H   0  0  0  0  0  0  0  0  0  0  0  0
  140.1233   73.5046  223.5178 H   0  0  0  0  0  0  0  0  0  0  0  0
  1  2  1  0
  2  3  2  0
  3  4  1  0
  4  5  2  0
  5  6  1  0
  6  7  2  0
  6  8  1  0
  8  9  1  0
  9 10  1  0
 10 11  2  0
 11 12  1  0
 12 13  2  0
 13 14  1  0
 14 15  1  0
 15 16  2  0
 15 17  1  0
 17 18  1  0
 18 19  2  0
 19 20  1  0
 20 21  2  0
 21 22  1  0
 22 23  1  0
 23 24  1  0
 24 25  1  0
 21 26  1  0
 26 27  2  0
 14 28  2  0
  9 29  2  0
  7  2  1  0
 28 10  1  0
 29  5  1  0
 27 18  1  0
 25 22  1  0
  1 30  1  0
  1 31  1  0
  1 32  1  0
  3 33  1  0
  4 34  1  0
  7 35  1  0
  8 36  1  0
  8 37  1  0
 11 38  1  0
 12 39  1  0
 13 40  1  0
 17 41  1  0
 19 42  1  0
 20 43  1  0
 22 44  1  0
 23 45  1  0
 23 46  1  0
 24 47  1  0
 24 48  1  0
 25 49  1  0
 25 50  1  0
 26 51  1  0
 27 52  1  0
 28 53  1  0
M  END
>  <smiles>  (50) 
Cc1ccc2c(c1)CC(c1cccc(C(=O)Nc3ccc(C4CCC4)cc3)c1)=N2

>  <score_type>  (50) 
oracle

>  <origin>  (50) 
autodockgpu

>  <m_score__min__energy>  (50) 
-8.8800000000000008

>  <m_primary>  (50) 
energy

>  <rmsd>  (50) 
4.134069456695775

>  <m_score__min__rmsd>  (50) 
4.134069456695775

>  <meeko>  (50) 
{"free_energy": -8.67, "intermolecular_energy": -9.86, "internal_energy": -0.96, "cluster_size": 15, "cluster_id": 2, "rank_in_cluster": 5}

>  <energy>  (50) 
-8.52

>  <cluster_rmsd>  (50) 
1.01

>  <cluster>  (50) 
2

$$$$
