
     RDKit          3D

 63 67  0  0  0  0  0  0  0  0999 V2000
  141.8150   78.2030  219.1160 O   0  0  0  0  0  0  0  0  0  0  0  0
  141.4880   77.7810  220.2560 C   0  0  0  0  0  0  0  0  0  0  0  0
  141.6630   78.6280  221.3210 C   0  0  0  0  0  0  0  0  0  0  0  0
  142.1880   79.9020  221.1010 C   0  0  0  0  0  0  0  0  0  0  0  0
  142.3600   80.7470  222.1860 C   0  0  0  0  0  0  0  0  0  0  0  0
  142.0120   80.3190  223.4640 C   0  0  0  0  0  0  0  0  0  0  0  0
  142.1740   81.1320  224.5380 F   0  0  0  0  0  0  0  0  0  0  0  0
  141.4940   79.0550  223.6570 C   0  0  0  0  0  0  0  0  0  0  0  0
  141.3160   78.1950  222.5790 C   0  0  0  0  0  0  0  0  0  0  0  0
  140.8180   76.9570  222.7100 N   0  0  0  0  0  0  0  0  0  0  0  0
  140.6610   76.1590  221.6440 C   0  0  0  0  0  0  0  0  0  0  0  0
  140.0650   74.8450  221.8910 C   0  0  0  0  0  0  0  0  0  0  0  0
  140.7740   73.7410  221.7640 C   0  0  0  0  0  0  0  0  0  0  0  0
  140.3720   72.4410  222.2760 C   0  0  0  0  0  0  0  0  0  0  0  0
  139.9350   71.4040  221.4800 C   0  0  0  0  0  0  0  0  0  0  0  0
  139.5560   70.1710  222.0010 C   0  0  0  0  0  0  0  0  0  0  0  0
  139.6220   69.9840  223.3600 C   0  0  0  0  0  0  0  0  0  0  0  0
  140.0580   71.0050  224.2100 C   0  0  0  0  0  0  0  0  0  0  0  0
  140.1180   70.7910  225.6140 N   0  0  0  0  0  0  0  0  0  0  0  0
  139.5890   69.5530  226.1340 C   0  0  0  0  0  0  0  0  0  0  0  0
  139.9130   69.3190  227.5740 C   0  0  0  0  0  0  0  0  0  0  0  0
  139.9780   70.4980  228.3140 O   0  0  0  0  0  0  0  0  0  0  0  0
  141.0550   71.2400  227.8340 C   0  0  0  0  0  0  0  0  0  0  0  0
  140.6920   71.7950  226.4630 C   0  0  0  0  0  0  0  0  0  0  0  0
  140.4190   72.2030  223.6330 C   0  0  0  0  0  0  0  0  0  0  0  0
  140.9800   76.5190  220.3980 N   0  0  0  0  0  0  0  0  0  0  0  0
  140.8920   75.7270  219.2230 C   0  0  0  0  0  0  0  0  0  0  0  0
  142.1880   75.2150  218.6570 C   0  0  0  0  0  0  0  0  0  0  0  0
  143.3310   75.5470  219.5090 C   0  0  0  0  0  0  0  0  0  0  0  0
  143.6670   74.5110  220.5540 C   0  0  0  0  0  0  0  0  0  0  0  0
  144.0420   73.2830  219.7500 C   0  0  0  0  0  0  0  0  0  0  0  0
  142.7730   72.7860  219.1160 C   0  0  0  0  0  0  0  0  0  0  0  0
  142.0130   73.7770  218.3060 C   0  0  0  0  0  0  0  0  0  0  0  0
  142.4600   80.2291  220.0866 H   0  0  0  0  0  0  0  0  0  0  0  0
  142.7716   81.7562  222.0372 H   0  0  0  0  0  0  0  0  0  0  0  0
  141.2201   78.7254  224.6701 H   0  0  0  0  0  0  0  0  0  0  0  0
  139.0079   74.7777  222.1875 H   0  0  0  0  0  0  0  0  0  0  0  0
  141.7358   73.8079  221.2343 H   0  0  0  0  0  0  0  0  0  0  0  0
  139.8840   71.5571  220.3919 H   0  0  0  0  0  0  0  0  0  0  0  0
  139.2109   69.3633  221.3388 H   0  0  0  0  0  0  0  0  0  0  0  0
  139.3267   69.0143  223.7871 H   0  0  0  0  0  0  0  0  0  0  0  0
  138.4948   69.5688  226.0224 H   0  0  0  0  0  0  0  0  0  0  0  0
  140.0575   68.7381  225.5626 H   0  0  0  0  0  0  0  0  0  0  0  0
  139.1348   68.6744  228.0086 H   0  0  0  0  0  0  0  0  0  0  0  0
  140.9060   68.8476  227.6164 H   0  0  0  0  0  0  0  0  0  0  0  0
  141.2703   72.0692  228.5240 H   0  0  0  0  0  0  0  0  0  0  0  0
  141.9463   70.6001  227.7557 H   0  0  0  0  0  0  0  0  0  0  0  0
  139.9651   72.6107  226.5907 H   0  0  0  0  0  0  0  0  0  0  0  0
  141.6150   72.1571  225.9866 H   0  0  0  0  0  0  0  0  0  0  0  0
  140.7637   73.0141  224.2913 H   0  0  0  0  0  0  0  0  0  0  0  0
  140.2616   74.8557  219.4543 H   0  0  0  0  0  0  0  0  0  0  0  0
  140.4834   76.3967  218.4519 H   0  0  0  0  0  0  0  0  0  0  0  0
  142.4450   75.7304  217.7198 H   0  0  0  0  0  0  0  0  0  0  0  0
  144.2116   75.6790  218.8632 H   0  0  0  0  0  0  0  0  0  0  0  0
  143.0524   76.4590  220.0573 H   0  0  0  0  0  0  0  0  0  0  0  0
  144.5113   74.8433  221.1759 H   0  0  0  0  0  0  0  0  0  0  0  0
  142.8329   74.3238  221.2463 H   0  0  0  0  0  0  0  0  0  0  0  0
  144.7768   73.5458  218.9748 H   0  0  0  0  0  0  0  0  0  0  0  0
  144.4966   72.5118  220.3892 H   0  0  0  0  0  0  0  0  0  0  0  0
  143.0336   71.9437  218.4583 H   0  0  0  0  0  0  0  0  0  0  0  0
  142.1105   72.5182  219.9523 H   0  0  0  0  0  0  0  0  0  0  0  0
  142.3186   73.6520  217.2567 H   0  0  0  0  0  0  0  0  0  0  0  0
  140.9540   73.5602  218.5097 H   0  0  0  0  0  0  0  0  0  0  0  0
  1  2  2  0
  2  3  1  0
  3  4  2  0
  4  5  1  0
  5  6  2  0
  6  7  1  0
  6  8  1  0
  8  9  2  0
  9 10  1  0
 10 11  2  0
 11 12  1  0
 12 13  2  0
 13 14  1  0
 14 15  2  0
 15 16  1  0
 16 17  2  0
 17 18  1  0
 18 19  1  0
 19 20  1  0
 20 21  1  0
 21 22  1  0
 22 23  1  0
 23 24  1  0
 18 25  2  0
 11 26  1  0
 26 27  1  0
 27 28  1  0
 28 29  1  0
 29 30  1  0
 30 31  1  0
 31 32  1  0
 32 33  1  0
 26  2  1  0
 33 28  1  0
  9  3  1  0
 25 14  1  0
 24 19  1  0
  4 34  1  0
  5 35  1  0
  8 36  1  0
 12 37  1  0
 13 38  1  0
 15 39  1  0
 16 40  1  0
 17 41  1  0
 20 42  1  0
 20 43  1  0
 21 44  1  0
 21 45  1  0
 23 46  1  0
 23 47  1  0
 24 48  1  0
 24 49  1  0
 25 50  1  0
 27 51  1  0
 27 52  1  0
 28 53  1  0
 29 54  1  0
 29 55  1  0
 30 56  1  0
 30 57  1  0
 31 58  1  0
 31 59  1  0
 32 60  1  0
 32 61  1  0
 33 62  1  0
 33 63  1  0
M  END
>  <smiles>  (1) 
O=c1c2ccc(F)cc2nc(/C=C/c2cccc(N3CCOCC3)c2)n1CC1CCCCC1

>  <score_type>  (1) 
oracle

>  <origin>  (1) 
autodockgpu

>  <m_score__min__energy>  (1) 
-9.0299999999999994

>  <m_primary>  (1) 
energy

>  <rmsd>  (1) 
4.086106741774115

>  <m_score__min__rmsd>  (1) 
4.086106741774115

>  <meeko>  (1) 
{"free_energy": -7.96, "intermolecular_energy": -9.75, "internal_energy": -1.9, "cluster_size": 8, "cluster_id": 2, "rank_in_cluster": 8}

>  <energy>  (1) 
-9.03

>  <cluster_rmsd>  (1) 
0.0

>  <cluster>  (1) 
1

$$$$

     RDKit          3D

 63 67  0  0  0  0  0  0  0  0999 V2000
  139.1650   67.6440  225.3550 O   0  0  0  0  0  0  0  0  0  0  0  0
  139.3160   68.8820  225.1850 C   0  0  0  0  0  0  0  0  0  0  0  0
  139.9710   69.5820  226.1680 C   0  0  0  0  0  0  0  0  0  0  0  0
  140.4330   68.9040  227.2960 C   0  0  0  0  0  0  0  0  0  0  0  0
  141.0910   69.6230  228.2810 C   0  0  0  0  0  0  0  0  0  0  0  0
  141.2800   70.9940  228.1330 C   0  0  0  0  0  0  0  0  0  0  0  0
  141.9220   71.7150  229.0870 F   0  0  0  0  0  0  0  0  0  0  0  0
  140.8150   71.6430  227.0080 C   0  0  0  0  0  0  0  0  0  0  0  0
  140.1520   70.9360  226.0110 C   0  0  0  0  0  0  0  0  0  0  0  0
  139.6790   71.5160  224.8990 N   0  0  0  0  0  0  0  0  0  0  0  0
  139.0450   70.7970  223.9600 C   0  0  0  0  0  0  0  0  0  0  0  0
  138.6110   71.5190  222.7640 C   0  0  0  0  0  0  0  0  0  0  0  0
  139.3960   71.6260  221.7100 C   0  0  0  0  0  0  0  0  0  0  0  0
  140.3040   72.7360  221.4690 C   0  0  0  0  0  0  0  0  0  0  0  0
  139.9630   74.0590  221.6460 C   0  0  0  0  0  0  0  0  0  0  0  0
  140.8550   75.1000  221.4060 C   0  0  0  0  0  0  0  0  0  0  0  0
  142.1230   74.7910  220.9760 C   0  0  0  0  0  0  0  0  0  0  0  0
  142.5170   73.4640  220.7810 C   0  0  0  0  0  0  0  0  0  0  0  0
  143.8340   73.1660  220.3360 N   0  0  0  0  0  0  0  0  0  0  0  0
  144.9030   74.0450  220.7460 C   0  0  0  0  0  0  0  0  0  0  0  0
  146.2670   73.5200  220.4320 C   0  0  0  0  0  0  0  0  0  0  0  0
  146.3000   72.7610  219.2630 O   0  0  0  0  0  0  0  0  0  0  0  0
  145.5310   71.6200  219.4780 C   0  0  0  0  0  0  0  0  0  0  0  0
  144.0620   72.0190  219.5040 C   0  0  0  0  0  0  0  0  0  0  0  0
  141.5880   72.4790  221.0360 C   0  0  0  0  0  0  0  0  0  0  0  0
  138.8370   69.4810  224.0530 N   0  0  0  0  0  0  0  0  0  0  0  0
  138.1390   68.6530  223.1350 C   0  0  0  0  0  0  0  0  0  0  0  0
  136.6370   68.6750  223.2160 C   0  0  0  0  0  0  0  0  0  0  0  0
  136.1610   69.2580  224.4700 C   0  0  0  0  0  0  0  0  0  0  0  0
  135.9320   70.7500  224.4310 C   0  0  0  0  0  0  0  0  0  0  0  0
  134.8340   70.9280  223.4020 C   0  0  0  0  0  0  0  0  0  0  0  0
  135.4450   70.6020  222.0680 C   0  0  0  0  0  0  0  0  0  0  0  0
  136.1070   69.2740  221.9570 C   0  0  0  0  0  0  0  0  0  0  0  0
  140.2781   67.8201  227.4016 H   0  0  0  0  0  0  0  0  0  0  0  0
  141.4640   69.1103  229.1799 H   0  0  0  0  0  0  0  0  0  0  0  0
  140.9697   72.7266  226.8990 H   0  0  0  0  0  0  0  0  0  0  0  0
  137.6127   71.9805  222.7436 H   0  0  0  0  0  0  0  0  0  0  0  0
  139.3617   70.8204  220.9618 H   0  0  0  0  0  0  0  0  0  0  0  0
  138.9468   74.3019  221.9902 H   0  0  0  0  0  0  0  0  0  0  0  0
  140.5518   76.1465  221.5571 H   0  0  0  0  0  0  0  0  0  0  0  0
  142.8405   75.6019  220.7818 H   0  0  0  0  0  0  0  0  0  0  0  0
  144.7756   75.0095  220.2328 H   0  0  0  0  0  0  0  0  0  0  0  0
  144.8392   74.1399  221.8400 H   0  0  0  0  0  0  0  0  0  0  0  0
  146.9532   74.3720  220.3169 H   0  0  0  0  0  0  0  0  0  0  0  0
  146.5667   72.8624  221.2613 H   0  0  0  0  0  0  0  0  0  0  0  0
  145.7042   70.8985  218.6660 H   0  0  0  0  0  0  0  0  0  0  0  0
  145.8100   71.1549  220.4350 H   0  0  0  0  0  0  0  0  0  0  0  0
  143.7388   72.2532  218.4790 H   0  0  0  0  0  0  0  0  0  0  0  0
  143.4873   71.1775  219.9182 H   0  0  0  0  0  0  0  0  0  0  0  0
  141.8865   71.4309  220.8861 H   0  0  0  0  0  0  0  0  0  0  0  0
  138.4232   68.9668  222.1197 H   0  0  0  0  0  0  0  0  0  0  0  0
  138.4285   67.6239  223.3943 H   0  0  0  0  0  0  0  0  0  0  0  0
  136.2251   67.6564  223.2685 H   0  0  0  0  0  0  0  0  0  0  0  0
  135.2093   68.7730  224.7327 H   0  0  0  0  0  0  0  0  0  0  0  0
  136.9559   69.0872  225.2109 H   0  0  0  0  0  0  0  0  0  0  0  0
  135.6093   71.1215  225.4148 H   0  0  0  0  0  0  0  0  0  0  0  0
  136.8437   71.3108  224.1773 H   0  0  0  0  0  0  0  0  0  0  0  0
  133.9987   70.2447  223.6150 H   0  0  0  0  0  0  0  0  0  0  0  0
  134.4352   71.9530  223.4179 H   0  0  0  0  0  0  0  0  0  0  0  0
  134.6457   70.6429  221.3134 H   0  0  0  0  0  0  0  0  0  0  0  0
  136.2443   71.3433  221.9206 H   0  0  0  0  0  0  0  0  0  0  0  0
  135.3721   68.5707  221.5385 H   0  0  0  0  0  0  0  0  0  0  0  0
  136.9926   69.4476  221.3280 H   0  0  0  0  0  0  0  0  0  0  0  0
  1  2  2  0
  2  3  1  0
  3  4  2  0
  4  5  1  0
  5  6  2  0
  6  7  1  0
  6  8  1  0
  8  9  2  0
  9 10  1  0
 10 11  2  0
 11 12  1  0
 12 13  2  0
 13 14  1  0
 14 15  2  0
 15 16  1  0
 16 17  2  0
 17 18  1  0
 18 19  1  0
 19 20  1  0
 20 21  1  0
 21 22  1  0
 22 23  1  0
 23 24  1  0
 18 25  2  0
 11 26  1  0
 26 27  1  0
 27 28  1  0
 28 29  1  0
 29 30  1  0
 30 31  1  0
 31 32  1  0
 32 33  1  0
 26  2  1  0
 33 28  1  0
  9  3  1  0
 25 14  1  0
 24 19  1  0
  4 34  1  0
  5 35  1  0
  8 36  1  0
 12 37  1  0
 13 38  1  0
 15 39  1  0
 16 40  1  0
 17 41  1  0
 20 42  1  0
 20 43  1  0
 21 44  1  0
 21 45  1  0
 23 46  1  0
 23 47  1  0
 24 48  1  0
 24 49  1  0
 25 50  1  0
 27 51  1  0
 27 52  1  0
 28 53  1  0
 29 54  1  0
 29 55  1  0
 30 56  1  0
 30 57  1  0
 31 58  1  0
 31 59  1  0
 32 60  1  0
 32 61  1  0
 33 62  1  0
 33 63  1  0
M  END
>  <smiles>  (2) 
O=c1c2ccc(F)cc2nc(/C=C/c2cccc(N3CCOCC3)c2)n1CC1CCCCC1

>  <score_type>  (2) 
oracle

>  <origin>  (2) 
autodockgpu

>  <m_score__min__energy>  (2) 
-9.0299999999999994

>  <m_primary>  (2) 
energy

>  <rmsd>  (2) 
11.666466864343553

>  <m_score__min__rmsd>  (2) 
11.666466864343553

>  <meeko>  (2) 
{"free_energy": -8.73, "intermolecular_energy": -10.52, "internal_energy": -1.83, "cluster_size": 18, "cluster_id": 1, "rank_in_cluster": 8}

>  <energy>  (2) 
-9.02

>  <cluster_rmsd>  (2) 
1.21

>  <cluster>  (2) 
1

$$$$

     RDKit          3D

 63 67  0  0  0  0  0  0  0  0999 V2000
  138.7710   68.3560  224.8730 O   0  0  0  0  0  0  0  0  0  0  0  0
  139.2980   69.4850  224.6930 C   0  0  0  0  0  0  0  0  0  0  0  0
  139.9160   70.0750  225.7670 C   0  0  0  0  0  0  0  0  0  0  0  0
  139.9340   69.4110  226.9940 C   0  0  0  0  0  0  0  0  0  0  0  0
  140.5610   70.0200  228.0700 C   0  0  0  0  0  0  0  0  0  0  0  0
  141.1570   71.2680  227.9140 C   0  0  0  0  0  0  0  0  0  0  0  0
  141.7750   71.8790  228.9560 F   0  0  0  0  0  0  0  0  0  0  0  0
  141.1260   71.9050  226.6900 C   0  0  0  0  0  0  0  0  0  0  0  0
  140.5010   71.3090  225.6020 C   0  0  0  0  0  0  0  0  0  0  0  0
  140.4420   71.8830  224.3910 N   0  0  0  0  0  0  0  0  0  0  0  0
  139.8290   71.2730  223.3660 C   0  0  0  0  0  0  0  0  0  0  0  0
  139.8630   71.9660  222.0770 C   0  0  0  0  0  0  0  0  0  0  0  0
  140.3450   73.1880  221.9730 C   0  0  0  0  0  0  0  0  0  0  0  0
  139.5420   74.3980  222.0370 C   0  0  0  0  0  0  0  0  0  0  0  0
  138.1670   74.4120  221.9620 C   0  0  0  0  0  0  0  0  0  0  0  0
  137.4260   75.5880  222.0260 C   0  0  0  0  0  0  0  0  0  0  0  0
  138.0950   76.7780  222.1690 C   0  0  0  0  0  0  0  0  0  0  0  0
  139.4910   76.8170  222.2500 C   0  0  0  0  0  0  0  0  0  0  0  0
  140.1640   78.0600  222.3980 N   0  0  0  0  0  0  0  0  0  0  0  0
  139.5320   79.0840  223.1950 C   0  0  0  0  0  0  0  0  0  0  0  0
  140.4180   80.2520  223.4870 C   0  0  0  0  0  0  0  0  0  0  0  0
  141.3130   80.5250  222.4540 O   0  0  0  0  0  0  0  0  0  0  0  0
  142.1870   79.4450  222.3550 C   0  0  0  0  0  0  0  0  0  0  0  0
  141.4350   78.2620  221.7600 C   0  0  0  0  0  0  0  0  0  0  0  0
  140.1670   75.6190  222.1800 C   0  0  0  0  0  0  0  0  0  0  0  0
  139.2420   70.0770  223.4620 N   0  0  0  0  0  0  0  0  0  0  0  0
  138.5340   69.3820  222.4470 C   0  0  0  0  0  0  0  0  0  0  0  0
  137.0590   69.6590  222.3440 C   0  0  0  0  0  0  0  0  0  0  0  0
  136.2870   68.9140  223.3390 C   0  0  0  0  0  0  0  0  0  0  0  0
  136.0760   69.6320  224.6490 C   0  0  0  0  0  0  0  0  0  0  0  0
  135.2690   70.8580  224.2740 C   0  0  0  0  0  0  0  0  0  0  0  0
  136.1910   71.7520  223.4930 C   0  0  0  0  0  0  0  0  0  0  0  0
  136.8590   71.1370  222.3140 C   0  0  0  0  0  0  0  0  0  0  0  0
  139.4604   68.4245  227.1053 H   0  0  0  0  0  0  0  0  0  0  0  0
  140.5875   69.5166  229.0477 H   0  0  0  0  0  0  0  0  0  0  0  0
  141.5994   72.8913  226.5753 H   0  0  0  0  0  0  0  0  0  0  0  0
  139.4796   71.4579  221.1798 H   0  0  0  0  0  0  0  0  0  0  0  0
  141.4296   73.3002  221.8278 H   0  0  0  0  0  0  0  0  0  0  0  0
  137.6339   73.4567  221.8471 H   0  0  0  0  0  0  0  0  0  0  0  0
  136.3280   75.5645  221.9634 H   0  0  0  0  0  0  0  0  0  0  0  0
  137.5239   77.7167  222.2208 H   0  0  0  0  0  0  0  0  0  0  0  0
  138.6458   79.4473  222.6540 H   0  0  0  0  0  0  0  0  0  0  0  0
  139.2758   78.6259  224.1617 H   0  0  0  0  0  0  0  0  0  0  0  0
  139.7878   81.1389  223.6490 H   0  0  0  0  0  0  0  0  0  0  0  0
  141.0102   80.0023  224.3797 H   0  0  0  0  0  0  0  0  0  0  0  0
  143.0326   79.7115  221.7039 H   0  0  0  0  0  0  0  0  0  0  0  0
  142.5723   79.1818  223.3511 H   0  0  0  0  0  0  0  0  0  0  0  0
  141.2696   78.4482  220.6886 H   0  0  0  0  0  0  0  0  0  0  0  0
  142.0424   77.3583  221.9161 H   0  0  0  0  0  0  0  0  0  0  0  0
  141.2651   75.6371  222.2415 H   0  0  0  0  0  0  0  0  0  0  0  0
  138.9911   69.6448  221.4816 H   0  0  0  0  0  0  0  0  0  0  0  0
  138.6111   68.3182  222.7162 H   0  0  0  0  0  0  0  0  0  0  0  0
  136.6459   69.2735  221.4002 H   0  0  0  0  0  0  0  0  0  0  0  0
  135.2994   68.6918  222.9085 H   0  0  0  0  0  0  0  0  0  0  0  0
  136.8737   68.0133  223.5726 H   0  0  0  0  0  0  0  0  0  0  0  0
  135.5190   68.9992  225.3556 H   0  0  0  0  0  0  0  0  0  0  0  0
  137.0229   69.8867  225.1476 H   0  0  0  0  0  0  0  0  0  0  0  0
  134.4052   70.5704  223.6567 H   0  0  0  0  0  0  0  0  0  0  0  0
  134.8819   71.3687  225.1680 H   0  0  0  0  0  0  0  0  0  0  0  0
  135.6033   72.6105  223.1359 H   0  0  0  0  0  0  0  0  0  0  0  0
  137.0026   72.0163  224.1868 H   0  0  0  0  0  0  0  0  0  0  0  0
  136.2508   71.3717  221.4280 H   0  0  0  0  0  0  0  0  0  0  0  0
  137.8733   71.5626  222.3059 H   0  0  0  0  0  0  0  0  0  0  0  0
  1  2  2  0
  2  3  1  0
  3  4  2  0
  4  5  1  0
  5  6  2  0
  6  7  1  0
  6  8  1  0
  8  9  2  0
  9 10  1  0
 10 11  2  0
 11 12  1  0
 12 13  2  0
 13 14  1  0
 14 15  2  0
 15 16  1  0
 16 17  2  0
 17 18  1  0
 18 19  1  0
 19 20  1  0
 20 21  1  0
 21 22  1  0
 22 23  1  0
 23 24  1  0
 18 25  2  0
 11 26  1  0
 26 27  1  0
 27 28  1  0
 28 29  1  0
 29 30  1  0
 30 31  1  0
 31 32  1  0
 32 33  1  0
 26  2  1  0
 33 28  1  0
  9  3  1  0
 25 14  1  0
 24 19  1  0
  4 34  1  0
  5 35  1  0
  8 36  1  0
 12 37  1  0
 13 38  1  0
 15 39  1  0
 16 40  1  0
 17 41  1  0
 20 42  1  0
 20 43  1  0
 21 44  1  0
 21 45  1  0
 23 46  1  0
 23 47  1  0
 24 48  1  0
 24 49  1  0
 25 50  1  0
 27 51  1  0
 27 52  1  0
 28 53  1  0
 29 54  1  0
 29 55  1  0
 30 56  1  0
 30 57  1  0
 31 58  1  0
 31 59  1  0
 32 60  1  0
 32 61  1  0
 33 62  1  0
 33 63  1  0
M  END
>  <smiles>  (3) 
O=c1c2ccc(F)cc2nc(/C=C/c2cccc(N3CCOCC3)c2)n1CC1CCCCC1

>  <score_type>  (3) 
oracle

>  <origin>  (3) 
autodockgpu

>  <m_score__min__energy>  (3) 
-9.0299999999999994

>  <m_primary>  (3) 
energy

>  <rmsd>  (3) 
11.314059573009452

>  <m_score__min__rmsd>  (3) 
11.314059573009452

>  <meeko>  (3) 
{"free_energy": -8.17, "intermolecular_energy": -9.96, "internal_energy": -2.07, "cluster_size": 15, "cluster_id": 3, "rank_in_cluster": 4}

>  <energy>  (3) 
-9.01

>  <cluster_rmsd>  (3) 
0.53

>  <cluster>  (3) 
1

$$$$

     RDKit          3D

 63 67  0  0  0  0  0  0  0  0999 V2000
  138.5440   68.5470  224.8490 O   0  0  0  0  0  0  0  0  0  0  0  0
  139.1810   69.6150  224.6540 C   0  0  0  0  0  0  0  0  0  0  0  0
  139.8250   70.1760  225.7290 C   0  0  0  0  0  0  0  0  0  0  0  0
  139.7480   69.5490  226.9730 C   0  0  0  0  0  0  0  0  0  0  0  0
  140.4030   70.1260  228.0500 C   0  0  0  0  0  0  0  0  0  0  0  0
  141.1190   71.3070  227.8770 C   0  0  0  0  0  0  0  0  0  0  0  0
  141.7660   71.8870  228.9190 F   0  0  0  0  0  0  0  0  0  0  0  0
  141.1810   71.9080  226.6370 C   0  0  0  0  0  0  0  0  0  0  0  0
  140.5290   71.3430  225.5470 C   0  0  0  0  0  0  0  0  0  0  0  0
  140.5560   71.8840  224.3210 N   0  0  0  0  0  0  0  0  0  0  0  0
  139.9140   71.3050  223.2950 C   0  0  0  0  0  0  0  0  0  0  0  0
  140.0460   71.9530  221.9900 C   0  0  0  0  0  0  0  0  0  0  0  0
  140.6420   73.1220  221.8670 C   0  0  0  0  0  0  0  0  0  0  0  0
  139.9630   74.4050  221.9410 C   0  0  0  0  0  0  0  0  0  0  0  0
  138.5930   74.5500  221.9340 C   0  0  0  0  0  0  0  0  0  0  0  0
  137.9710   75.7930  222.0060 C   0  0  0  0  0  0  0  0  0  0  0  0
  138.7580   76.9160  222.0880 C   0  0  0  0  0  0  0  0  0  0  0  0
  140.1530   76.8220  222.0990 C   0  0  0  0  0  0  0  0  0  0  0  0
  140.9480   77.9970  222.1840 N   0  0  0  0  0  0  0  0  0  0  0  0
  141.2100   78.7290  220.9670 C   0  0  0  0  0  0  0  0  0  0  0  0
  141.8440   80.0630  221.1920 C   0  0  0  0  0  0  0  0  0  0  0  0
  142.6940   80.0800  222.2980 O   0  0  0  0  0  0  0  0  0  0  0  0
  141.9140   79.8710  223.4330 C   0  0  0  0  0  0  0  0  0  0  0  0
  141.4640   78.4170  223.4560 C   0  0  0  0  0  0  0  0  0  0  0  0
  140.7070   75.5630  222.0240 C   0  0  0  0  0  0  0  0  0  0  0  0
  139.2120   70.1740  223.4070 N   0  0  0  0  0  0  0  0  0  0  0  0
  138.4670   69.5190  222.3910 C   0  0  0  0  0  0  0  0  0  0  0  0
  137.0230   69.9180  222.2530 C   0  0  0  0  0  0  0  0  0  0  0  0
  136.1550   69.1700  223.1630 C   0  0  0  0  0  0  0  0  0  0  0  0
  135.9440   69.8120  224.5130 C   0  0  0  0  0  0  0  0  0  0  0  0
  135.2480   71.1200  224.1950 C   0  0  0  0  0  0  0  0  0  0  0  0
  136.2680   71.9900  223.5140 C   0  0  0  0  0  0  0  0  0  0  0  0
  136.9360   71.4050  222.3200 C   0  0  0  0  0  0  0  0  0  0  0  0
  139.1791   68.6157  227.0967 H   0  0  0  0  0  0  0  0  0  0  0  0
  140.3569   69.6507  229.0409 H   0  0  0  0  0  0  0  0  0  0  0  0
  141.7502   72.8406  226.5098 H   0  0  0  0  0  0  0  0  0  0  0  0
  139.6409   71.4560  221.0962 H   0  0  0  0  0  0  0  0  0  0  0  0
  141.7287   73.1271  221.6965 H   0  0  0  0  0  0  0  0  0  0  0  0
  137.9663   73.6483  221.8690 H   0  0  0  0  0  0  0  0  0  0  0  0
  136.8740   75.8743  221.9974 H   0  0  0  0  0  0  0  0  0  0  0  0
  138.2825   77.9062  222.1460 H   0  0  0  0  0  0  0  0  0  0  0  0
  141.8821   78.1270  220.3377 H   0  0  0  0  0  0  0  0  0  0  0  0
  140.2374   78.9127  220.4871 H   0  0  0  0  0  0  0  0  0  0  0  0
  142.4261   80.3304  220.2977 H   0  0  0  0  0  0  0  0  0  0  0  0
  141.0362   80.7842  221.3851 H   0  0  0  0  0  0  0  0  0  0  0  0
  142.5059   80.0894  224.3341 H   0  0  0  0  0  0  0  0  0  0  0  0
  141.0367   80.5342  223.4117 H   0  0  0  0  0  0  0  0  0  0  0  0
  142.3236   77.7827  223.7183 H   0  0  0  0  0  0  0  0  0  0  0  0
  140.6591   78.3206  224.1995 H   0  0  0  0  0  0  0  0  0  0  0  0
  141.8036   75.4767  222.0307 H   0  0  0  0  0  0  0  0  0  0  0  0
  138.9627   69.7215  221.4302 H   0  0  0  0  0  0  0  0  0  0  0  0
  138.4489   68.4583  222.6819 H   0  0  0  0  0  0  0  0  0  0  0  0
  136.6232   69.6315  221.2691 H   0  0  0  0  0  0  0  0  0  0  0  0
  135.1725   69.0564  222.6816 H   0  0  0  0  0  0  0  0  0  0  0  0
  136.6607   68.2118  223.3532 H   0  0  0  0  0  0  0  0  0  0  0  0
  135.3116   69.1784  225.1522 H   0  0  0  0  0  0  0  0  0  0  0  0
  136.8853   69.9573  225.0633 H   0  0  0  0  0  0  0  0  0  0  0  0
  134.3924   70.9428  223.5268 H   0  0  0  0  0  0  0  0  0  0  0  0
  134.8620   71.5981  225.1074 H   0  0  0  0  0  0  0  0  0  0  0  0
  135.7631   72.9145  223.1972 H   0  0  0  0  0  0  0  0  0  0  0  0
  137.0673   72.1424  224.2542 H   0  0  0  0  0  0  0  0  0  0  0  0
  136.3844   71.7454  221.4312 H   0  0  0  0  0  0  0  0  0  0  0  0
  137.9790   71.7495  222.3790 H   0  0  0  0  0  0  0  0  0  0  0  0
  1  2  2  0
  2  3  1  0
  3  4  2  0
  4  5  1  0
  5  6  2  0
  6  7  1  0
  6  8  1  0
  8  9  2  0
  9 10  1  0
 10 11  2  0
 11 12  1  0
 12 13  2  0
 13 14  1  0
 14 15  2  0
 15 16  1  0
 16 17  2  0
 17 18  1  0
 18 19  1  0
 19 20  1  0
 20 21  1  0
 21 22  1  0
 22 23  1  0
 23 24  1  0
 18 25  2  0
 11 26  1  0
 26 27  1  0
 27 28  1  0
 28 29  1  0
 29 30  1  0
 30 31  1  0
 31 32  1  0
 32 33  1  0
 26  2  1  0
 33 28  1  0
  9  3  1  0
 25 14  1  0
 24 19  1  0
  4 34  1  0
  5 35  1  0
  8 36  1  0
 12 37  1  0
 13 38  1  0
 15 39  1  0
 16 40  1  0
 17 41  1  0
 20 42  1  0
 20 43  1  0
 21 44  1  0
 21 45  1  0
 23 46  1  0
 23 47  1  0
 24 48  1  0
 24 49  1  0
 25 50  1  0
 27 51  1  0
 27 52  1  0
 28 53  1  0
 29 54  1  0
 29 55  1  0
 30 56  1  0
 30 57  1  0
 31 58  1  0
 31 59  1  0
 32 60  1  0
 32 61  1  0
 33 62  1  0
 33 63  1  0
M  END
>  <smiles>  (4) 
O=c1c2ccc(F)cc2nc(/C=C/c2cccc(N3CCOCC3)c2)n1CC1CCCCC1

>  <score_type>  (4) 
oracle

>  <origin>  (4) 
autodockgpu

>  <m_score__min__energy>  (4) 
-9.0299999999999994

>  <m_primary>  (4) 
energy

>  <rmsd>  (4) 
11.186138181591227

>  <m_score__min__rmsd>  (4) 
11.186138181591227

>  <meeko>  (4) 
{"free_energy": -8.36, "intermolecular_energy": -10.14, "internal_energy": -2.07, "cluster_size": 15, "cluster_id": 3, "rank_in_cluster": 1}

>  <energy>  (4) 
-8.97

>  <cluster_rmsd>  (4) 
0.13

>  <cluster>  (4) 
1

$$$$

     RDKit          3D

 63 67  0  0  0  0  0  0  0  0999 V2000
  142.8140   76.9720  219.6860 O   0  0  0  0  0  0  0  0  0  0  0  0
  141.9330   76.6510  220.5260 C   0  0  0  0  0  0  0  0  0  0  0  0
  141.4290   77.6440  221.3280 C   0  0  0  0  0  0  0  0  0  0  0  0
  141.9050   78.9470  221.1820 C   0  0  0  0  0  0  0  0  0  0  0  0
  141.3880   79.9400  221.9990 C   0  0  0  0  0  0  0  0  0  0  0  0
  140.4120   79.6280  222.9410 C   0  0  0  0  0  0  0  0  0  0  0  0
  139.8930   80.5860  223.7500 F   0  0  0  0  0  0  0  0  0  0  0  0
  139.9560   78.3320  223.0670 C   0  0  0  0  0  0  0  0  0  0  0  0
  140.4650   77.3240  222.2560 C   0  0  0  0  0  0  0  0  0  0  0  0
  140.0580   76.0490  222.3360 N   0  0  0  0  0  0  0  0  0  0  0  0
  140.5750   75.1070  221.5330 C   0  0  0  0  0  0  0  0  0  0  0  0
  140.0270   73.7570  221.6710 C   0  0  0  0  0  0  0  0  0  0  0  0
  140.6990   72.8090  222.2920 C   0  0  0  0  0  0  0  0  0  0  0  0
  140.1050   71.5990  222.8360 C   0  0  0  0  0  0  0  0  0  0  0  0
  139.2990   70.7470  222.1130 C   0  0  0  0  0  0  0  0  0  0  0  0
  138.7430   69.5960  222.6630 C   0  0  0  0  0  0  0  0  0  0  0  0
  139.0110   69.3010  223.9770 C   0  0  0  0  0  0  0  0  0  0  0  0
  139.8230   70.1340  224.7530 C   0  0  0  0  0  0  0  0  0  0  0  0
  140.0880   69.8100  226.1120 N   0  0  0  0  0  0  0  0  0  0  0  0
  140.0040   68.4250  226.5080 C   0  0  0  0  0  0  0  0  0  0  0  0
  140.5290   68.1600  227.8820 C   0  0  0  0  0  0  0  0  0  0  0  0
  140.3190   69.2240  228.7580 O   0  0  0  0  0  0  0  0  0  0  0  0
  141.0740   70.3020  228.3010 C   0  0  0  0  0  0  0  0  0  0  0  0
  140.4250   70.8530  227.0390 C   0  0  0  0  0  0  0  0  0  0  0  0
  140.3430   71.2590  224.1510 C   0  0  0  0  0  0  0  0  0  0  0  0
  141.5130   75.3520  220.6140 N   0  0  0  0  0  0  0  0  0  0  0  0
  142.1470   74.4140  219.7590 C   0  0  0  0  0  0  0  0  0  0  0  0
  143.0640   73.4170  220.4150 C   0  0  0  0  0  0  0  0  0  0  0  0
  143.2500   72.2180  219.5970 C   0  0  0  0  0  0  0  0  0  0  0  0
  144.4120   72.2790  218.6350 C   0  0  0  0  0  0  0  0  0  0  0  0
  145.6270   72.4100  219.5310 C   0  0  0  0  0  0  0  0  0  0  0  0
  145.5620   73.7840  220.1370 C   0  0  0  0  0  0  0  0  0  0  0  0
  144.3010   74.1290  220.8470 C   0  0  0  0  0  0  0  0  0  0  0  0
  142.6757   79.1818  220.4331 H   0  0  0  0  0  0  0  0  0  0  0  0
  141.7490   80.9746  221.9030 H   0  0  0  0  0  0  0  0  0  0  0  0
  139.1844   78.0946  223.8142 H   0  0  0  0  0  0  0  0  0  0  0  0
  139.0369   73.5299  221.2490 H   0  0  0  0  0  0  0  0  0  0  0  0
  141.7848   72.9425  222.4068 H   0  0  0  0  0  0  0  0  0  0  0  0
  139.0868   70.9858  221.0604 H   0  0  0  0  0  0  0  0  0  0  0  0
  138.1028   68.9369  222.0583 H   0  0  0  0  0  0  0  0  0  0  0  0
  138.5798   68.3944  224.4267 H   0  0  0  0  0  0  0  0  0  0  0  0
  138.9484   68.1176  226.4743 H   0  0  0  0  0  0  0  0  0  0  0  0
  140.6305   67.8521  225.8085 H   0  0  0  0  0  0  0  0  0  0  0  0
  140.0246   67.2692  228.2846 H   0  0  0  0  0  0  0  0  0  0  0  0
  141.6157   68.0121  227.7971 H   0  0  0  0  0  0  0  0  0  0  0  0
  141.1060   71.0851  229.0728 H   0  0  0  0  0  0  0  0  0  0  0  0
  142.1008   69.9740  228.0816 H   0  0  0  0  0  0  0  0  0  0  0  0
  139.5073   71.3920  227.3171 H   0  0  0  0  0  0  0  0  0  0  0  0
  141.1460   71.5244  226.5498 H   0  0  0  0  0  0  0  0  0  0  0  0
  140.9828   71.9219  224.7520 H   0  0  0  0  0  0  0  0  0  0  0  0
  141.3585   73.8504  219.2388 H   0  0  0  0  0  0  0  0  0  0  0  0
  142.7930   75.0126  219.0999 H   0  0  0  0  0  0  0  0  0  0  0  0
  142.6139   73.0017  221.3287 H   0  0  0  0  0  0  0  0  0  0  0  0
  143.4101   71.3648  220.2726 H   0  0  0  0  0  0  0  0  0  0  0  0
  142.3440   72.1212  218.9808 H   0  0  0  0  0  0  0  0  0  0  0  0
  144.4685   71.3606  218.0322 H   0  0  0  0  0  0  0  0  0  0  0  0
  144.3241   73.1093  217.9188 H   0  0  0  0  0  0  0  0  0  0  0  0
  145.6016   71.6445  220.3206 H   0  0  0  0  0  0  0  0  0  0  0  0
  146.5583   72.2687  218.9629 H   0  0  0  0  0  0  0  0  0  0  0  0
  146.3882   73.8725  220.8578 H   0  0  0  0  0  0  0  0  0  0  0  0
  145.6239   74.4829  219.2898 H   0  0  0  0  0  0  0  0  0  0  0  0
  144.4520   73.9135  221.9151 H   0  0  0  0  0  0  0  0  0  0  0  0
  144.1194   75.1874  220.6085 H   0  0  0  0  0  0  0  0  0  0  0  0
  1  2  2  0
  2  3  1  0
  3  4  2  0
  4  5  1  0
  5  6  2  0
  6  7  1  0
  6  8  1  0
  8  9  2  0
  9 10  1  0
 10 11  2  0
 11 12  1  0
 12 13  2  0
 13 14  1  0
 14 15  2  0
 15 16  1  0
 16 17  2  0
 17 18  1  0
 18 19  1  0
 19 20  1  0
 20 21  1  0
 21 22  1  0
 22 23  1  0
 23 24  1  0
 18 25  2  0
 11 26  1  0
 26 27  1  0
 27 28  1  0
 28 29  1  0
 29 30  1  0
 30 31  1  0
 31 32  1  0
 32 33  1  0
 26  2  1  0
 33 28  1  0
  9  3  1  0
 25 14  1  0
 24 19  1  0
  4 34  1  0
  5 35  1  0
  8 36  1  0
 12 37  1  0
 13 38  1  0
 15 39  1  0
 16 40  1  0
 17 41  1  0
 20 42  1  0
 20 43  1  0
 21 44  1  0
 21 45  1  0
 23 46  1  0
 23 47  1  0
 24 48  1  0
 24 49  1  0
 25 50  1  0
 27 51  1  0
 27 52  1  0
 28 53  1  0
 29 54  1  0
 29 55  1  0
 30 56  1  0
 30 57  1  0
 31 58  1  0
 31 59  1  0
 32 60  1  0
 32 61  1  0
 33 62  1  0
 33 63  1  0
M  END
>  <smiles>  (5) 
O=c1c2ccc(F)cc2nc(/C=C/c2cccc(N3CCOCC3)c2)n1CC1CCCCC1

>  <score_type>  (5) 
oracle

>  <origin>  (5) 
autodockgpu

>  <m_score__min__energy>  (5) 
-9.0299999999999994

>  <m_primary>  (5) 
energy

>  <rmsd>  (5) 
4.989278715044634

>  <m_score__min__rmsd>  (5) 
4.989278715044634

>  <meeko>  (5) 
{"free_energy": -8.37, "intermolecular_energy": -10.16, "internal_energy": -1.49, "cluster_size": 8, "cluster_id": 2, "rank_in_cluster": 5}

>  <energy>  (5) 
-8.93

>  <cluster_rmsd>  (5) 
0.83

>  <cluster>  (5) 
1

$$$$

     RDKit          3D

 63 67  0  0  0  0  0  0  0  0999 V2000
  138.8350   68.2850  224.7870 O   0  0  0  0  0  0  0  0  0  0  0  0
  139.3340   69.4280  224.6180 C   0  0  0  0  0  0  0  0  0  0  0  0
  139.9190   70.0330  225.7030 C   0  0  0  0  0  0  0  0  0  0  0  0
  139.9350   69.3670  226.9280 C   0  0  0  0  0  0  0  0  0  0  0  0
  140.5280   69.9890  228.0160 C   0  0  0  0  0  0  0  0  0  0  0  0
  141.0930   71.2530  227.8720 C   0  0  0  0  0  0  0  0  0  0  0  0
  141.6780   71.8780  228.9250 F   0  0  0  0  0  0  0  0  0  0  0  0
  141.0650   71.8920  226.6490 C   0  0  0  0  0  0  0  0  0  0  0  0
  140.4740   71.2820  225.5490 C   0  0  0  0  0  0  0  0  0  0  0  0
  140.4190   71.8570  224.3390 N   0  0  0  0  0  0  0  0  0  0  0  0
  139.8390   71.2330  223.3030 C   0  0  0  0  0  0  0  0  0  0  0  0
  139.8750   71.9290  222.0160 C   0  0  0  0  0  0  0  0  0  0  0  0
  140.4930   73.0860  221.8840 C   0  0  0  0  0  0  0  0  0  0  0  0
  139.8410   74.3820  221.9690 C   0  0  0  0  0  0  0  0  0  0  0  0
  138.4740   74.5550  221.9770 C   0  0  0  0  0  0  0  0  0  0  0  0
  137.8800   75.8100  222.0590 C   0  0  0  0  0  0  0  0  0  0  0  0
  138.6900   76.9160  222.1350 C   0  0  0  0  0  0  0  0  0  0  0  0
  140.0830   76.7940  222.1310 C   0  0  0  0  0  0  0  0  0  0  0  0
  140.9030   77.9520  222.2110 N   0  0  0  0  0  0  0  0  0  0  0  0
  141.1590   78.6870  220.9960 C   0  0  0  0  0  0  0  0  0  0  0  0
  141.8240   80.0070  221.2190 C   0  0  0  0  0  0  0  0  0  0  0  0
  142.6920   79.9990  222.3100 O   0  0  0  0  0  0  0  0  0  0  0  0
  141.9270   79.7970  223.4570 C   0  0  0  0  0  0  0  0  0  0  0  0
  141.4480   78.3520  223.4770 C   0  0  0  0  0  0  0  0  0  0  0  0
  140.6100   75.5240  222.0480 C   0  0  0  0  0  0  0  0  0  0  0  0
  139.2820   70.0220  223.3870 N   0  0  0  0  0  0  0  0  0  0  0  0
  138.6090   69.3100  222.3600 C   0  0  0  0  0  0  0  0  0  0  0  0
  137.1400   69.5880  222.2000 C   0  0  0  0  0  0  0  0  0  0  0  0
  136.4940   69.8950  223.4760 C   0  0  0  0  0  0  0  0  0  0  0  0
  136.4760   71.3580  223.8450 C   0  0  0  0  0  0  0  0  0  0  0  0
  135.6490   72.0040  222.7520 C   0  0  0  0  0  0  0  0  0  0  0  0
  136.4740   71.9370  221.4970 C   0  0  0  0  0  0  0  0  0  0  0  0
  136.9650   70.5870  221.1070 C   0  0  0  0  0  0  0  0  0  0  0  0
  139.4860   68.3679  227.0291 H   0  0  0  0  0  0  0  0  0  0  0  0
  140.5520   69.4837  228.9928 H   0  0  0  0  0  0  0  0  0  0  0  0
  141.5135   72.8909  226.5442 H   0  0  0  0  0  0  0  0  0  0  0  0
  139.3779   71.4790  221.1440 H   0  0  0  0  0  0  0  0  0  0  0  0
  141.5768   73.0693  221.6966 H   0  0  0  0  0  0  0  0  0  0  0  0
  137.8279   73.6668  221.9162 H   0  0  0  0  0  0  0  0  0  0  0  0
  136.7850   75.9142  222.0629 H   0  0  0  0  0  0  0  0  0  0  0  0
  138.2352   77.9155  222.2002 H   0  0  0  0  0  0  0  0  0  0  0  0
  141.8079   78.0761  220.3512 H   0  0  0  0  0  0  0  0  0  0  0  0
  140.1822   78.8939  220.5345 H   0  0  0  0  0  0  0  0  0  0  0  0
  142.3964   80.2687  220.3168 H   0  0  0  0  0  0  0  0  0  0  0  0
  141.0345   80.7432  221.4303 H   0  0  0  0  0  0  0  0  0  0  0  0
  142.5384   79.9965  224.3494 H   0  0  0  0  0  0  0  0  0  0  0  0
  141.0631   80.4779  223.4556 H   0  0  0  0  0  0  0  0  0  0  0  0
  142.2987   77.6985  223.7206 H   0  0  0  0  0  0  0  0  0  0  0  0
  140.6535   78.2663  224.2329 H   0  0  0  0  0  0  0  0  0  0  0  0
  141.7046   75.4148  222.0446 H   0  0  0  0  0  0  0  0  0  0  0  0
  139.1007   69.5545  221.4069 H   0  0  0  0  0  0  0  0  0  0  0  0
  138.6740   68.2510  222.6505 H   0  0  0  0  0  0  0  0  0  0  0  0
  136.5974   68.6858  221.8811 H   0  0  0  0  0  0  0  0  0  0  0  0
  135.4531   69.5429  223.4251 H   0  0  0  0  0  0  0  0  0  0  0  0
  137.0882   69.3893  224.2513 H   0  0  0  0  0  0  0  0  0  0  0  0
  136.0074   71.5069  224.8290 H   0  0  0  0  0  0  0  0  0  0  0  0
  137.4860   71.7872  223.9201 H   0  0  0  0  0  0  0  0  0  0  0  0
  134.7048   71.4564  222.6158 H   0  0  0  0  0  0  0  0  0  0  0  0
  135.3955   73.0437  223.0066 H   0  0  0  0  0  0  0  0  0  0  0  0
  135.8598   72.3230  220.6701 H   0  0  0  0  0  0  0  0  0  0  0  0
  137.3764   72.5308  221.7047 H   0  0  0  0  0  0  0  0  0  0  0  0
  136.2469   70.1682  220.3866 H   0  0  0  0  0  0  0  0  0  0  0  0
  137.9767   70.7551  220.7093 H   0  0  0  0  0  0  0  0  0  0  0  0
  1  2  2  0
  2  3  1  0
  3  4  2  0
  4  5  1  0
  5  6  2  0
  6  7  1  0
  6  8  1  0
  8  9  2  0
  9 10  1  0
 10 11  2  0
 11 12  1  0
 12 13  2  0
 13 14  1  0
 14 15  2  0
 15 16  1  0
 16 17  2  0
 17 18  1  0
 18 19  1  0
 19 20  1  0
 20 21  1  0
 21 22  1  0
 22 23  1  0
 23 24  1  0
 18 25  2  0
 11 26  1  0
 26 27  1  0
 27 28  1  0
 28 29  1  0
 29 30  1  0
 30 31  1  0
 31 32  1  0
 32 33  1  0
 26  2  1  0
 33 28  1  0
  9  3  1  0
 25 14  1  0
 24 19  1  0
  4 34  1  0
  5 35  1  0
  8 36  1  0
 12 37  1  0
 13 38  1  0
 15 39  1  0
 16 40  1  0
 17 41  1  0
 20 42  1  0
 20 43  1  0
 21 44  1  0
 21 45  1  0
 23 46  1  0
 23 47  1  0
 24 48  1  0
 24 49  1  0
 25 50  1  0
 27 51  1  0
 27 52  1  0
 28 53  1  0
 29 54  1  0
 29 55  1  0
 30 56  1  0
 30 57  1  0
 31 58  1  0
 31 59  1  0
 32 60  1  0
 32 61  1  0
 33 62  1  0
 33 63  1  0
M  END
>  <smiles>  (6) 
O=c1c2ccc(F)cc2nc(/C=C/c2cccc(N3CCOCC3)c2)n1CC1CCCCC1

>  <score_type>  (6) 
oracle

>  <origin>  (6) 
autodockgpu

>  <m_score__min__energy>  (6) 
-9.0299999999999994

>  <m_primary>  (6) 
energy

>  <rmsd>  (6) 
10.924843889652214

>  <m_score__min__rmsd>  (6) 
10.924843889652214

>  <meeko>  (6) 
{"free_energy": -8.17, "intermolecular_energy": -9.96, "internal_energy": -2.21, "cluster_size": 15, "cluster_id": 3, "rank_in_cluster": 7}

>  <energy>  (6) 
-8.9

>  <cluster_rmsd>  (6) 
0.82

>  <cluster>  (6) 
1

$$$$

     RDKit          3D

 63 67  0  0  0  0  0  0  0  0999 V2000
  139.1850   67.6140  225.3570 O   0  0  0  0  0  0  0  0  0  0  0  0
  139.3580   68.8540  225.2190 C   0  0  0  0  0  0  0  0  0  0  0  0
  140.0330   69.5150  226.2140 C   0  0  0  0  0  0  0  0  0  0  0  0
  140.4930   68.7990  227.3190 C   0  0  0  0  0  0  0  0  0  0  0  0
  141.1720   69.4800  228.3170 C   0  0  0  0  0  0  0  0  0  0  0  0
  141.3840   70.8510  228.2040 C   0  0  0  0  0  0  0  0  0  0  0  0
  142.0470   71.5350  229.1710 F   0  0  0  0  0  0  0  0  0  0  0  0
  140.9200   71.5380  227.1010 C   0  0  0  0  0  0  0  0  0  0  0  0
  140.2360   70.8700  226.0920 C   0  0  0  0  0  0  0  0  0  0  0  0
  139.7640   71.4880  225.0000 N   0  0  0  0  0  0  0  0  0  0  0  0
  139.1100   70.8050  224.0480 C   0  0  0  0  0  0  0  0  0  0  0  0
  138.6780   71.5670  222.8760 C   0  0  0  0  0  0  0  0  0  0  0  0
  139.4270   71.6360  221.7940 C   0  0  0  0  0  0  0  0  0  0  0  0
  140.3250   72.7350  221.4820 C   0  0  0  0  0  0  0  0  0  0  0  0
  139.9740   74.0640  221.5780 C   0  0  0  0  0  0  0  0  0  0  0  0
  140.8570   75.0950  221.2720 C   0  0  0  0  0  0  0  0  0  0  0  0
  142.1260   74.7710  220.8590 C   0  0  0  0  0  0  0  0  0  0  0  0
  142.5310   73.4380  220.7460 C   0  0  0  0  0  0  0  0  0  0  0  0
  143.8490   73.1240  220.3170 N   0  0  0  0  0  0  0  0  0  0  0  0
  144.9350   73.9360  220.8140 C   0  0  0  0  0  0  0  0  0  0  0  0
  146.2890   73.3850  220.5020 C   0  0  0  0  0  0  0  0  0  0  0  0
  146.3310   72.7050  219.2850 O   0  0  0  0  0  0  0  0  0  0  0  0
  145.5180   71.5800  219.4020 C   0  0  0  0  0  0  0  0  0  0  0  0
  144.0630   72.0280  219.4160 C   0  0  0  0  0  0  0  0  0  0  0  0
  141.6110   72.4630  221.0640 C   0  0  0  0  0  0  0  0  0  0  0  0
  138.8790   69.4910  224.1080 N   0  0  0  0  0  0  0  0  0  0  0  0
  138.1580   68.7000  223.1750 C   0  0  0  0  0  0  0  0  0  0  0  0
  136.6600   68.7010  223.3070 C   0  0  0  0  0  0  0  0  0  0  0  0
  136.2190   69.2710  224.5800 C   0  0  0  0  0  0  0  0  0  0  0  0
  135.9670   70.7590  224.5570 C   0  0  0  0  0  0  0  0  0  0  0  0
  134.8330   70.9270  223.5680 C   0  0  0  0  0  0  0  0  0  0  0  0
  135.4010   70.6160  222.2120 C   0  0  0  0  0  0  0  0  0  0  0  0
  136.0780   69.2980  222.0710 C   0  0  0  0  0  0  0  0  0  0  0  0
  140.3203   67.7154  227.3968 H   0  0  0  0  0  0  0  0  0  0  0  0
  141.5434   68.9369  229.1985 H   0  0  0  0  0  0  0  0  0  0  0  0
  141.0925   72.6213  227.0196 H   0  0  0  0  0  0  0  0  0  0  0  0
  137.7113   72.0913  222.8985 H   0  0  0  0  0  0  0  0  0  0  0  0
  139.3684   70.8038  221.0771 H   0  0  0  0  0  0  0  0  0  0  0  0
  138.9567   74.3198  221.9093 H   0  0  0  0  0  0  0  0  0  0  0  0
  140.5454   76.1464  221.3590 H   0  0  0  0  0  0  0  0  0  0  0  0
  142.8360   75.5744  220.6129 H   0  0  0  0  0  0  0  0  0  0  0  0
  144.8549   74.9364  220.3636 H   0  0  0  0  0  0  0  0  0  0  0  0
  144.8426   73.9604  221.9098 H   0  0  0  0  0  0  0  0  0  0  0  0
  147.0066   74.2179  220.4636 H   0  0  0  0  0  0  0  0  0  0  0  0
  146.5417   72.6630  221.2925 H   0  0  0  0  0  0  0  0  0  0  0  0
  145.6903   70.9085  218.5479 H   0  0  0  0  0  0  0  0  0  0  0  0
  145.7535   71.0427  220.3325 H   0  0  0  0  0  0  0  0  0  0  0  0
  143.7776   72.3413  218.4009 H   0  0  0  0  0  0  0  0  0  0  0  0
  143.4491   71.1815  219.7572 H   0  0  0  0  0  0  0  0  0  0  0  0
  141.9188   71.4103  220.9800 H   0  0  0  0  0  0  0  0  0  0  0  0
  138.4044   69.0652  222.1671 H   0  0  0  0  0  0  0  0  0  0  0  0
  138.4660   67.6631  223.3748 H   0  0  0  0  0  0  0  0  0  0  0  0
  136.2650   67.6762  223.3675 H   0  0  0  0  0  0  0  0  0  0  0  0
  135.2841   68.7707  224.8728 H   0  0  0  0  0  0  0  0  0  0  0  0
  137.0415   69.1085  225.2921 H   0  0  0  0  0  0  0  0  0  0  0  0
  135.6728   71.1205  225.5534 H   0  0  0  0  0  0  0  0  0  0  0  0
  136.8613   71.3340  224.2751 H   0  0  0  0  0  0  0  0  0  0  0  0
  134.0148   70.2314  223.8061 H   0  0  0  0  0  0  0  0  0  0  0  0
  134.4219   71.9467  223.6031 H   0  0  0  0  0  0  0  0  0  0  0  0
  134.5750   70.6486  221.4863 H   0  0  0  0  0  0  0  0  0  0  0  0
  136.1838   71.3695  222.0402 H   0  0  0  0  0  0  0  0  0  0  0  0
  135.3391   68.5860  221.6746 H   0  0  0  0  0  0  0  0  0  0  0  0
  136.9385   69.4875  221.4125 H   0  0  0  0  0  0  0  0  0  0  0  0
  1  2  2  0
  2  3  1  0
  3  4  2  0
  4  5  1  0
  5  6  2  0
  6  7  1  0
  6  8  1  0
  8  9  2  0
  9 10  1  0
 10 11  2  0
 11 12  1  0
 12 13  2  0
 13 14  1  0
 14 15  2  0
 15 16  1  0
 16 17  2  0
 17 18  1  0
 18 19  1  0
 19 20  1  0
 20 21  1  0
 21 22  1  0
 22 23  1  0
 23 24  1  0
 18 25  2  0
 11 26  1  0
 26 27  1  0
 27 28  1  0
 28 29  1  0
 29 30  1  0
 30 31  1  0
 31 32  1  0
 32 33  1  0
 26  2  1  0
 33 28  1  0
  9  3  1  0
 25 14  1  0
 24 19  1  0
  4 34  1  0
  5 35  1  0
  8 36  1  0
 12 37  1  0
 13 38  1  0
 15 39  1  0
 16 40  1  0
 17 41  1  0
 20 42  1  0
 20 43  1  0
 21 44  1  0
 21 45  1  0
 23 46  1  0
 23 47  1  0
 24 48  1  0
 24 49  1  0
 25 50  1  0
 27 51  1  0
 27 52  1  0
 28 53  1  0
 29 54  1  0
 29 55  1  0
 30 56  1  0
 30 57  1  0
 31 58  1  0
 31 59  1  0
 32 60  1  0
 32 61  1  0
 33 62  1  0
 33 63  1  0
M  END
>  <smiles>  (7) 
O=c1c2ccc(F)cc2nc(/C=C/c2cccc(N3CCOCC3)c2)n1CC1CCCCC1

>  <score_type>  (7) 
oracle

>  <origin>  (7) 
autodockgpu

>  <m_score__min__energy>  (7) 
-9.0299999999999994

>  <m_primary>  (7) 
energy

>  <rmsd>  (7) 
11.74832257052317

>  <m_score__min__rmsd>  (7) 
11.74832257052317

>  <meeko>  (7) 
{"free_energy": -8.71, "intermolecular_energy": -10.5, "internal_energy": -1.83, "cluster_size": 18, "cluster_id": 1, "rank_in_cluster": 9}

>  <energy>  (7) 
-8.75

>  <cluster_rmsd>  (7) 
0.42

>  <cluster>  (7) 
1

$$$$

     RDKit          3D

 63 67  0  0  0  0  0  0  0  0999 V2000
  138.8280   68.1440  225.1460 O   0  0  0  0  0  0  0  0  0  0  0  0
  139.3190   69.2820  224.9270 C   0  0  0  0  0  0  0  0  0  0  0  0
  139.9290   69.9240  225.9750 C   0  0  0  0  0  0  0  0  0  0  0  0
  139.9800   69.2980  227.2210 C   0  0  0  0  0  0  0  0  0  0  0  0
  140.5990   69.9580  228.2720 C   0  0  0  0  0  0  0  0  0  0  0  0
  141.1550   71.2180  228.0720 C   0  0  0  0  0  0  0  0  0  0  0  0
  141.7650   71.8790  229.0870 F   0  0  0  0  0  0  0  0  0  0  0  0
  141.0930   71.8160  226.8300 C   0  0  0  0  0  0  0  0  0  0  0  0
  140.4750   71.1690  225.7660 C   0  0  0  0  0  0  0  0  0  0  0  0
  140.3870   71.7040  224.5400 N   0  0  0  0  0  0  0  0  0  0  0  0
  139.7820   71.0440  223.5400 C   0  0  0  0  0  0  0  0  0  0  0  0
  139.7820   71.6980  222.2310 C   0  0  0  0  0  0  0  0  0  0  0  0
  139.2760   72.9040  222.0710 C   0  0  0  0  0  0  0  0  0  0  0  0
  140.0390   74.0700  221.6580 C   0  0  0  0  0  0  0  0  0  0  0  0
  141.0180   74.0420  220.6890 C   0  0  0  0  0  0  0  0  0  0  0  0
  141.7330   75.1760  220.3160 C   0  0  0  0  0  0  0  0  0  0  0  0
  141.4490   76.3660  220.9390 C   0  0  0  0  0  0  0  0  0  0  0  0
  140.4640   76.4460  221.9290 C   0  0  0  0  0  0  0  0  0  0  0  0
  140.1850   77.6880  222.5620 N   0  0  0  0  0  0  0  0  0  0  0  0
  141.2970   78.4600  223.0620 C   0  0  0  0  0  0  0  0  0  0  0  0
  140.9270   79.8430  223.4880 C   0  0  0  0  0  0  0  0  0  0  0  0
  139.6380   79.9210  224.0150 O   0  0  0  0  0  0  0  0  0  0  0  0
  138.7440   79.6240  222.9890 C   0  0  0  0  0  0  0  0  0  0  0  0
  138.8260   78.1340  222.6860 C   0  0  0  0  0  0  0  0  0  0  0  0
  139.7920   75.2890  222.2540 C   0  0  0  0  0  0  0  0  0  0  0  0
  139.2320   69.8350  223.6790 N   0  0  0  0  0  0  0  0  0  0  0  0
  138.5350   69.0880  222.6930 C   0  0  0  0  0  0  0  0  0  0  0  0
  137.0570   69.3410  222.5770 C   0  0  0  0  0  0  0  0  0  0  0  0
  136.4930   69.8920  223.8100 C   0  0  0  0  0  0  0  0  0  0  0  0
  136.4910   71.3990  223.8900 C   0  0  0  0  0  0  0  0  0  0  0  0
  135.5930   71.8290  222.7490 C   0  0  0  0  0  0  0  0  0  0  0  0
  136.3360   71.5160  221.4810 C   0  0  0  0  0  0  0  0  0  0  0  0
  136.8080   70.1130  221.3260 C   0  0  0  0  0  0  0  0  0  0  0  0
  139.5382   68.3012  227.3667 H   0  0  0  0  0  0  0  0  0  0  0  0
  140.6505   69.4854  229.2640 H   0  0  0  0  0  0  0  0  0  0  0  0
  141.5358   72.8118  226.6807 H   0  0  0  0  0  0  0  0  0  0  0  0
  140.2121   71.1734  221.3651 H   0  0  0  0  0  0  0  0  0  0  0  0
  138.2012   73.0376  222.2634 H   0  0  0  0  0  0  0  0  0  0  0  0
  141.2429   73.0871  220.1914 H   0  0  0  0  0  0  0  0  0  0  0  0
  142.5092   75.1202  219.5386 H   0  0  0  0  0  0  0  0  0  0  0  0
  142.0052   77.2715  220.6550 H   0  0  0  0  0  0  0  0  0  0  0  0
  141.7238   77.9328  223.9279 H   0  0  0  0  0  0  0  0  0  0  0  0
  142.0151   78.5607  222.2348 H   0  0  0  0  0  0  0  0  0  0  0  0
  141.6409   80.1769  224.2554 H   0  0  0  0  0  0  0  0  0  0  0  0
  140.9581   80.4836  222.5943 H   0  0  0  0  0  0  0  0  0  0  0  0
  137.7217   79.8823  223.3025 H   0  0  0  0  0  0  0  0  0  0  0  0
  138.9994   80.2039  222.0898 H   0  0  0  0  0  0  0  0  0  0  0  0
  138.3420   77.5777  223.5023 H   0  0  0  0  0  0  0  0  0  0  0  0
  138.3182   77.9521  221.7273 H   0  0  0  0  0  0  0  0  0  0  0  0
  139.0156   75.3397  223.0316 H   0  0  0  0  0  0  0  0  0  0  0  0
  138.9902   69.3159  221.7179 H   0  0  0  0  0  0  0  0  0  0  0  0
  138.6259   68.0376  223.0066 H   0  0  0  0  0  0  0  0  0  0  0  0
  136.4987   68.3990  222.4725 H   0  0  0  0  0  0  0  0  0  0  0  0
  135.4530   69.5439  223.8954 H   0  0  0  0  0  0  0  0  0  0  0  0
  137.1385   69.5405  224.6284 H   0  0  0  0  0  0  0  0  0  0  0  0
  136.0858   71.7382  224.8548 H   0  0  0  0  0  0  0  0  0  0  0  0
  137.5017   71.8268  223.8157 H   0  0  0  0  0  0  0  0  0  0  0  0
  134.6447   71.2726  222.7811 H   0  0  0  0  0  0  0  0  0  0  0  0
  135.3512   72.9001  222.8146 H   0  0  0  0  0  0  0  0  0  0  0  0
  135.6682   71.7408  220.6363 H   0  0  0  0  0  0  0  0  0  0  0  0
  137.2471   72.1315  221.5137 H   0  0  0  0  0  0  0  0  0  0  0  0
  136.0477   69.5692  220.7461 H   0  0  0  0  0  0  0  0  0  0  0  0
  137.7913   70.1943  220.8397 H   0  0  0  0  0  0  0  0  0  0  0  0
  1  2  2  0
  2  3  1  0
  3  4  2  0
  4  5  1  0
  5  6  2  0
  6  7  1  0
  6  8  1  0
  8  9  2  0
  9 10  1  0
 10 11  2  0
 11 12  1  0
 12 13  2  0
 13 14  1  0
 14 15  2  0
 15 16  1  0
 16 17  2  0
 17 18  1  0
 18 19  1  0
 19 20  1  0
 20 21  1  0
 21 22  1  0
 22 23  1  0
 23 24  1  0
 18 25  2  0
 11 26  1  0
 26 27  1  0
 27 28  1  0
 28 29  1  0
 29 30  1  0
 30 31  1  0
 31 32  1  0
 32 33  1  0
 26  2  1  0
 33 28  1  0
  9  3  1  0
 25 14  1  0
 24 19  1  0
  4 34  1  0
  5 35  1  0
  8 36  1  0
 12 37  1  0
 13 38  1  0
 15 39  1  0
 16 40  1  0
 17 41  1  0
 20 42  1  0
 20 43  1  0
 21 44  1  0
 21 45  1  0
 23 46  1  0
 23 47  1  0
 24 48  1  0
 24 49  1  0
 25 50  1  0
 27 51  1  0
 27 52  1  0
 28 53  1  0
 29 54  1  0
 29 55  1  0
 30 56  1  0
 30 57  1  0
 31 58  1  0
 31 59  1  0
 32 60  1  0
 32 61  1  0
 33 62  1  0
 33 63  1  0
M  END
>  <smiles>  (8) 
O=c1c2ccc(F)cc2nc(/C=C/c2cccc(N3CCOCC3)c2)n1CC1CCCCC1

>  <score_type>  (8) 
oracle

>  <origin>  (8) 
autodockgpu

>  <m_score__min__energy>  (8) 
-9.0299999999999994

>  <m_primary>  (8) 
energy

>  <rmsd>  (8) 
11.091899711664626

>  <m_score__min__rmsd>  (8) 
11.091899711664626

>  <meeko>  (8) 
{"free_energy": -8.17, "intermolecular_energy": -9.96, "internal_energy": -1.96, "cluster_size": 15, "cluster_id": 3, "rank_in_cluster": 6}

>  <energy>  (8) 
-8.73

>  <cluster_rmsd>  (8) 
0.56

>  <cluster>  (8) 
1

$$$$

     RDKit          3D

 63 67  0  0  0  0  0  0  0  0999 V2000
  139.0760   67.5280  225.4250 O   0  0  0  0  0  0  0  0  0  0  0  0
  139.2440   68.7600  225.2310 C   0  0  0  0  0  0  0  0  0  0  0  0
  139.9030   69.4720  226.2020 C   0  0  0  0  0  0  0  0  0  0  0  0
  140.3520   68.8120  227.3460 C   0  0  0  0  0  0  0  0  0  0  0  0
  141.0160   69.5430  228.3190 C   0  0  0  0  0  0  0  0  0  0  0  0
  141.2230   70.9080  228.1430 C   0  0  0  0  0  0  0  0  0  0  0  0
  141.8700   71.6410  229.0840 F   0  0  0  0  0  0  0  0  0  0  0  0
  140.7690   71.5390  227.0030 C   0  0  0  0  0  0  0  0  0  0  0  0
  140.1010   70.8210  226.0190 C   0  0  0  0  0  0  0  0  0  0  0  0
  139.6400   71.3830  224.8920 N   0  0  0  0  0  0  0  0  0  0  0  0
  139.0010   70.6530  223.9660 C   0  0  0  0  0  0  0  0  0  0  0  0
  138.5810   71.3560  222.7540 C   0  0  0  0  0  0  0  0  0  0  0  0
  139.4030   71.5100  221.7350 C   0  0  0  0  0  0  0  0  0  0  0  0
  140.2610   72.6660  221.5370 C   0  0  0  0  0  0  0  0  0  0  0  0
  141.5050   72.6070  220.9480 C   0  0  0  0  0  0  0  0  0  0  0  0
  142.3040   73.7340  220.7730 C   0  0  0  0  0  0  0  0  0  0  0  0
  141.8290   74.9480  221.2040 C   0  0  0  0  0  0  0  0  0  0  0  0
  140.5730   75.0600  221.8070 C   0  0  0  0  0  0  0  0  0  0  0  0
  140.1010   76.3270  222.2470 N   0  0  0  0  0  0  0  0  0  0  0  0
  141.0740   77.3580  222.5140 C   0  0  0  0  0  0  0  0  0  0  0  0
  140.4750   78.7090  222.7350 C   0  0  0  0  0  0  0  0  0  0  0  0
  139.2240   78.6540  223.3500 O   0  0  0  0  0  0  0  0  0  0  0  0
  138.3470   78.0250  222.4680 C   0  0  0  0  0  0  0  0  0  0  0  0
  138.6910   76.5430  222.4110 C   0  0  0  0  0  0  0  0  0  0  0  0
  139.8310   73.9090  221.9530 C   0  0  0  0  0  0  0  0  0  0  0  0
  138.7760   69.3410  224.0850 N   0  0  0  0  0  0  0  0  0  0  0  0
  138.0720   68.5030  223.1820 C   0  0  0  0  0  0  0  0  0  0  0  0
  138.8980   67.5390  222.3750 C   0  0  0  0  0  0  0  0  0  0  0  0
  138.1310   66.3600  221.9700 C   0  0  0  0  0  0  0  0  0  0  0  0
  137.4290   66.4850  220.6390 C   0  0  0  0  0  0  0  0  0  0  0  0
  138.5560   66.6570  219.6420 C   0  0  0  0  0  0  0  0  0  0  0  0
  139.1420   68.0190  219.8920 C   0  0  0  0  0  0  0  0  0  0  0  0
  139.5790   68.2980  221.2870 C   0  0  0  0  0  0  0  0  0  0  0  0
  140.1825   67.7326  227.4736 H   0  0  0  0  0  0  0  0  0  0  0  0
  141.3791   69.0444  229.2298 H   0  0  0  0  0  0  0  0  0  0  0  0
  140.9372   72.6182  226.8724 H   0  0  0  0  0  0  0  0  0  0  0  0
  137.5611   71.7634  222.6917 H   0  0  0  0  0  0  0  0  0  0  0  0
  139.4421   70.7083  220.9828 H   0  0  0  0  0  0  0  0  0  0  0  0
  141.8814   71.6327  220.6029 H   0  0  0  0  0  0  0  0  0  0  0  0
  143.2938   73.6534  220.2999 H   0  0  0  0  0  0  0  0  0  0  0  0
  142.4476   75.8480  221.0725 H   0  0  0  0  0  0  0  0  0  0  0  0
  141.6386   77.0772  223.4153 H   0  0  0  0  0  0  0  0  0  0  0  0
  141.7144   77.4331  221.6228 H   0  0  0  0  0  0  0  0  0  0  0  0
  141.1542   79.2941  223.3725 H   0  0  0  0  0  0  0  0  0  0  0  0
  140.3375   79.1747  221.7480 H   0  0  0  0  0  0  0  0  0  0  0  0
  137.3129   78.1516  222.8211 H   0  0  0  0  0  0  0  0  0  0  0  0
  138.4398   78.4700  221.4663 H   0  0  0  0  0  0  0  0  0  0  0  0
  138.3645   76.0658  223.3468 H   0  0  0  0  0  0  0  0  0  0  0  0
  138.1758   76.1064  221.5427 H   0  0  0  0  0  0  0  0  0  0  0  0
  138.8414   73.9850  222.4272 H   0  0  0  0  0  0  0  0  0  0  0  0
  137.3491   67.9151  223.7667 H   0  0  0  0  0  0  0  0  0  0  0  0
  137.6198   69.1843  222.4463 H   0  0  0  0  0  0  0  0  0  0  0  0
  139.6975   67.0924  222.9844 H   0  0  0  0  0  0  0  0  0  0  0  0
  138.8218   65.5059  221.9131 H   0  0  0  0  0  0  0  0  0  0  0  0
  137.3411   66.2315  222.7247 H   0  0  0  0  0  0  0  0  0  0  0  0
  136.8469   65.5782  220.4178 H   0  0  0  0  0  0  0  0  0  0  0  0
  136.7135   67.3202  220.6158 H   0  0  0  0  0  0  0  0  0  0  0  0
  139.3202   65.8806  219.7944 H   0  0  0  0  0  0  0  0  0  0  0  0
  138.1909   66.5643  218.6085 H   0  0  0  0  0  0  0  0  0  0  0  0
  140.0177   68.1336  219.2363 H   0  0  0  0  0  0  0  0  0  0  0  0
  138.3294   68.7320  219.6889 H   0  0  0  0  0  0  0  0  0  0  0  0
  140.6541   68.0738  221.3489 H   0  0  0  0  0  0  0  0  0  0  0  0
  139.3135   69.3507  221.4641 H   0  0  0  0  0  0  0  0  0  0  0  0
  1  2  2  0
  2  3  1  0
  3  4  2  0
  4  5  1  0
  5  6  2  0
  6  7  1  0
  6  8  1  0
  8  9  2  0
  9 10  1  0
 10 11  2  0
 11 12  1  0
 12 13  2  0
 13 14  1  0
 14 15  2  0
 15 16  1  0
 16 17  2  0
 17 18  1  0
 18 19  1  0
 19 20  1  0
 20 21  1  0
 21 22  1  0
 22 23  1  0
 23 24  1  0
 18 25  2  0
 11 26  1  0
 26 27  1  0
 27 28  1  0
 28 29  1  0
 29 30  1  0
 30 31  1  0
 31 32  1  0
 32 33  1  0
 26  2  1  0
 33 28  1  0
  9  3  1  0
 25 14  1  0
 24 19  1  0
  4 34  1  0
  5 35  1  0
  8 36  1  0
 12 37  1  0
 13 38  1  0
 15 39  1  0
 16 40  1  0
 17 41  1  0
 20 42  1  0
 20 43  1  0
 21 44  1  0
 21 45  1  0
 23 46  1  0
 23 47  1  0
 24 48  1  0
 24 49  1  0
 25 50  1  0
 27 51  1  0
 27 52  1  0
 28 53  1  0
 29 54  1  0
 29 55  1  0
 30 56  1  0
 30 57  1  0
 31 58  1  0
 31 59  1  0
 32 60  1  0
 32 61  1  0
 33 62  1  0
 33 63  1  0
M  END
>  <smiles>  (9) 
O=c1c2ccc(F)cc2nc(/C=C/c2cccc(N3CCOCC3)c2)n1CC1CCCCC1

>  <score_type>  (9) 
oracle

>  <origin>  (9) 
autodockgpu

>  <m_score__min__energy>  (9) 
-9.0299999999999994

>  <m_primary>  (9) 
energy

>  <rmsd>  (9) 
11.916315224752406

>  <m_score__min__rmsd>  (9) 
11.916315224752406

>  <meeko>  (9) 
{"free_energy": -8.04, "intermolecular_energy": -9.83, "internal_energy": -1.7, "cluster_size": 1, "cluster_id": 6, "rank_in_cluster": 1}

>  <energy>  (9) 
-8.71

>  <cluster_rmsd>  (9) 
0.58

>  <cluster>  (9) 
1

$$$$

     RDKit          3D

 63 67  0  0  0  0  0  0  0  0999 V2000
  138.3120   80.5270  223.3760 O   0  0  0  0  0  0  0  0  0  0  0  0
  139.1460   79.6070  223.1700 C   0  0  0  0  0  0  0  0  0  0  0  0
  140.4780   79.9200  223.2800 C   0  0  0  0  0  0  0  0  0  0  0  0
  140.8470   81.2240  223.6090 C   0  0  0  0  0  0  0  0  0  0  0  0
  142.1950   81.5270  223.7160 C   0  0  0  0  0  0  0  0  0  0  0  0
  143.1500   80.5380  223.4960 C   0  0  0  0  0  0  0  0  0  0  0  0
  144.4750   80.8160  223.5960 F   0  0  0  0  0  0  0  0  0  0  0  0
  142.7600   79.2550  223.1720 C   0  0  0  0  0  0  0  0  0  0  0  0
  141.4120   78.9360  223.0600 C   0  0  0  0  0  0  0  0  0  0  0  0
  140.9790   77.7060  222.7480 N   0  0  0  0  0  0  0  0  0  0  0  0
  139.6680   77.4390  222.6510 C   0  0  0  0  0  0  0  0  0  0  0  0
  139.3020   76.0540  222.3520 C   0  0  0  0  0  0  0  0  0  0  0  0
  139.7390   75.4540  221.2630 C   0  0  0  0  0  0  0  0  0  0  0  0
  140.9820   75.7820  220.5850 C   0  0  0  0  0  0  0  0  0  0  0  0
  141.2240   76.9900  219.9670 C   0  0  0  0  0  0  0  0  0  0  0  0
  142.4260   77.2740  219.3250 C   0  0  0  0  0  0  0  0  0  0  0  0
  143.4050   76.3110  219.3090 C   0  0  0  0  0  0  0  0  0  0  0  0
  143.2080   75.0700  219.9220 C   0  0  0  0  0  0  0  0  0  0  0  0
  144.2350   74.0880  219.8940 N   0  0  0  0  0  0  0  0  0  0  0  0
  145.3320   74.2260  220.8220 C   0  0  0  0  0  0  0  0  0  0  0  0
  146.2250   73.0300  220.8810 C   0  0  0  0  0  0  0  0  0  0  0  0
  146.3330   72.3720  219.6570 O   0  0  0  0  0  0  0  0  0  0  0  0
  145.0780   71.8530  219.3440 C   0  0  0  0  0  0  0  0  0  0  0  0
  144.1560   73.0010  218.9590 C   0  0  0  0  0  0  0  0  0  0  0  0
  141.9970   74.8500  220.5410 C   0  0  0  0  0  0  0  0  0  0  0  0
  138.7110   78.3500  222.8510 N   0  0  0  0  0  0  0  0  0  0  0  0
  137.3090   78.1690  222.7250 C   0  0  0  0  0  0  0  0  0  0  0  0
  136.7170   78.4240  221.3660 C   0  0  0  0  0  0  0  0  0  0  0  0
  137.3500   79.5580  220.6920 C   0  0  0  0  0  0  0  0  0  0  0  0
  138.5390   79.2050  219.8320 C   0  0  0  0  0  0  0  0  0  0  0  0
  137.9640   78.3040  218.7590 C   0  0  0  0  0  0  0  0  0  0  0  0
  137.5900   77.0170  219.4390 C   0  0  0  0  0  0  0  0  0  0  0  0
  136.6860   77.1360  220.6160 C   0  0  0  0  0  0  0  0  0  0  0  0
  140.0831   81.9968  223.7802 H   0  0  0  0  0  0  0  0  0  0  0  0
  142.5104   82.5486  223.9747 H   0  0  0  0  0  0  0  0  0  0  0  0
  143.5210   78.4793  223.0012 H   0  0  0  0  0  0  0  0  0  0  0  0
  138.6511   75.5044  223.0480 H   0  0  0  0  0  0  0  0  0  0  0  0
  139.1205   74.6497  220.8380 H   0  0  0  0  0  0  0  0  0  0  0  0
  140.4374   77.7588  219.9817 H   0  0  0  0  0  0  0  0  0  0  0  0
  142.5882   78.2484  218.8411 H   0  0  0  0  0  0  0  0  0  0  0  0
  144.3604   76.5196  218.8053 H   0  0  0  0  0  0  0  0  0  0  0  0
  145.9351   75.0947  220.5195 H   0  0  0  0  0  0  0  0  0  0  0  0
  144.8920   74.3473  221.8228 H   0  0  0  0  0  0  0  0  0  0  0  0
  147.2279   73.3561  221.1937 H   0  0  0  0  0  0  0  0  0  0  0  0
  145.7821   72.3227  221.5977 H   0  0  0  0  0  0  0  0  0  0  0  0
  145.1674   71.1517  218.5012 H   0  0  0  0  0  0  0  0  0  0  0  0
  144.6669   71.3180  220.2128 H   0  0  0  0  0  0  0  0  0  0  0  0
  144.4420   73.3679  217.9622 H   0  0  0  0  0  0  0  0  0  0  0  0
  143.1227   72.6238  218.9613 H   0  0  0  0  0  0  0  0  0  0  0  0
  141.8308   73.8772  221.0269 H   0  0  0  0  0  0  0  0  0  0  0  0
  137.0808   77.1283  222.9986 H   0  0  0  0  0  0  0  0  0  0  0  0
  136.8583   78.9252  223.3845 H   0  0  0  0  0  0  0  0  0  0  0  0
  135.6723   78.7593  221.4441 H   0  0  0  0  0  0  0  0  0  0  0  0
  136.5960   80.0387  220.0514 H   0  0  0  0  0  0  0  0  0  0  0  0
  137.7300   80.2159  221.4875 H   0  0  0  0  0  0  0  0  0  0  0  0
  138.9814   80.1086  219.3874 H   0  0  0  0  0  0  0  0  0  0  0  0
  139.3444   78.7204  220.4034 H   0  0  0  0  0  0  0  0  0  0  0  0
  137.0743   78.7687  218.3090 H   0  0  0  0  0  0  0  0  0  0  0  0
  138.6915   78.1312  217.9523 H   0  0  0  0  0  0  0  0  0  0  0  0
  137.0917   76.3769  218.6960 H   0  0  0  0  0  0  0  0  0  0  0  0
  138.5319   76.6055  219.8307 H   0  0  0  0  0  0  0  0  0  0  0  0
  135.6563   76.9839  220.2602 H   0  0  0  0  0  0  0  0  0  0  0  0
  137.0463   76.3810  221.3302 H   0  0  0  0  0  0  0  0  0  0  0  0
  1  2  2  0
  2  3  1  0
  3  4  2  0
  4  5  1  0
  5  6  2  0
  6  7  1  0
  6  8  1  0
  8  9  2  0
  9 10  1  0
 10 11  2  0
 11 12  1  0
 12 13  2  0
 13 14  1  0
 14 15  2  0
 15 16  1  0
 16 17  2  0
 17 18  1  0
 18 19  1  0
 19 20  1  0
 20 21  1  0
 21 22  1  0
 22 23  1  0
 23 24  1  0
 18 25  2  0
 11 26  1  0
 26 27  1  0
 27 28  1  0
 28 29  1  0
 29 30  1  0
 30 31  1  0
 31 32  1  0
 32 33  1  0
 26  2  1  0
 33 28  1  0
  9  3  1  0
 25 14  1  0
 24 19  1  0
  4 34  1  0
  5 35  1  0
  8 36  1  0
 12 37  1  0
 13 38  1  0
 15 39  1  0
 16 40  1  0
 17 41  1  0
 20 42  1  0
 20 43  1  0
 21 44  1  0
 21 45  1  0
 23 46  1  0
 23 47  1  0
 24 48  1  0
 24 49  1  0
 25 50  1  0
 27 51  1  0
 27 52  1  0
 28 53  1  0
 29 54  1  0
 29 55  1  0
 30 56  1  0
 30 57  1  0
 31 58  1  0
 31 59  1  0
 32 60  1  0
 32 61  1  0
 33 62  1  0
 33 63  1  0
M  END
>  <smiles>  (10) 
O=c1c2ccc(F)cc2nc(/C=C/c2cccc(N3CCOCC3)c2)n1CC1CCCCC1

>  <score_type>  (10) 
oracle

>  <origin>  (10) 
autodockgpu

>  <m_score__min__energy>  (10) 
-9.0299999999999994

>  <m_primary>  (10) 
energy

>  <rmsd>  (10) 
4.619239679766663

>  <m_score__min__rmsd>  (10) 
4.619239679766663

>  <meeko>  (10) 
{"free_energy": -7.32, "intermolecular_energy": -9.11, "internal_energy": -2.44, "cluster_size": 2, "cluster_id": 9, "rank_in_cluster": 1}

>  <energy>  (10) 
-8.67

>  <cluster_rmsd>  (10) 
0.62

>  <cluster>  (10) 
1

$$$$

     RDKit          3D

 63 67  0  0  0  0  0  0  0  0999 V2000
  138.7210   68.4800  224.9430 O   0  0  0  0  0  0  0  0  0  0  0  0
  139.3470   69.5560  224.7530 C   0  0  0  0  0  0  0  0  0  0  0  0
  139.9640   70.1310  225.8360 C   0  0  0  0  0  0  0  0  0  0  0  0
  139.8740   69.5100  227.0820 C   0  0  0  0  0  0  0  0  0  0  0  0
  140.5020   70.1020  228.1670 C   0  0  0  0  0  0  0  0  0  0  0  0
  141.2040   71.2920  228.0000 C   0  0  0  0  0  0  0  0  0  0  0  0
  141.8240   71.8870  229.0500 F   0  0  0  0  0  0  0  0  0  0  0  0
  141.2790   71.8880  226.7580 C   0  0  0  0  0  0  0  0  0  0  0  0
  140.6540   71.3070  225.6600 C   0  0  0  0  0  0  0  0  0  0  0  0
  140.6960   71.8430  224.4320 N   0  0  0  0  0  0  0  0  0  0  0  0
  140.0800   71.2490  223.3980 C   0  0  0  0  0  0  0  0  0  0  0  0
  140.2260   71.8920  222.0920 C   0  0  0  0  0  0  0  0  0  0  0  0
  141.2580   71.6290  221.3150 C   0  0  0  0  0  0  0  0  0  0  0  0
  142.2600   72.6050  220.9180 C   0  0  0  0  0  0  0  0  0  0  0  0
  143.6100   72.3360  220.8540 C   0  0  0  0  0  0  0  0  0  0  0  0
  144.5450   73.2920  220.4710 C   0  0  0  0  0  0  0  0  0  0  0  0
  144.1020   74.5500  220.1440 C   0  0  0  0  0  0  0  0  0  0  0  0
  142.7420   74.8730  220.1930 C   0  0  0  0  0  0  0  0  0  0  0  0
  142.3040   76.1810  219.8510 N   0  0  0  0  0  0  0  0  0  0  0  0
  141.4520   76.8770  220.7860 C   0  0  0  0  0  0  0  0  0  0  0  0
  141.2440   78.3190  220.4520 C   0  0  0  0  0  0  0  0  0  0  0  0
  141.2410   78.5630  219.0790 O   0  0  0  0  0  0  0  0  0  0  0  0
  142.5160   78.2760  218.5960 C   0  0  0  0  0  0  0  0  0  0  0  0
  142.7130   76.7660  218.6060 C   0  0  0  0  0  0  0  0  0  0  0  0
  141.8660   73.8820  220.5810 C   0  0  0  0  0  0  0  0  0  0  0  0
  139.3930   70.1080  223.5030 N   0  0  0  0  0  0  0  0  0  0  0  0
  138.6750   69.4380  222.4790 C   0  0  0  0  0  0  0  0  0  0  0  0
  137.2260   69.8120  222.3160 C   0  0  0  0  0  0  0  0  0  0  0  0
  136.3400   68.9210  223.0660 C   0  0  0  0  0  0  0  0  0  0  0  0
  136.0380   69.3650  224.4770 C   0  0  0  0  0  0  0  0  0  0  0  0
  135.3140   70.6840  224.3020 C   0  0  0  0  0  0  0  0  0  0  0  0
  136.3350   71.6680  223.8040 C   0  0  0  0  0  0  0  0  0  0  0  0
  137.0840   71.2720  222.5800 C   0  0  0  0  0  0  0  0  0  0  0  0
  139.3160   68.5696  227.2012 H   0  0  0  0  0  0  0  0  0  0  0  0
  140.4454   69.6313  229.1596 H   0  0  0  0  0  0  0  0  0  0  0  0
  141.8365   72.8283  226.6356 H   0  0  0  0  0  0  0  0  0  0  0  0
  139.4619   72.6069  221.7527 H   0  0  0  0  0  0  0  0  0  0  0  0
  141.3687   70.6004  220.9413 H   0  0  0  0  0  0  0  0  0  0  0  0
  143.9615   71.3271  221.1157 H   0  0  0  0  0  0  0  0  0  0  0  0
  145.6163   73.0456  220.4309 H   0  0  0  0  0  0  0  0  0  0  0  0
  144.8291   75.3167  219.8383 H   0  0  0  0  0  0  0  0  0  0  0  0
  140.4714   76.3788  220.7993 H   0  0  0  0  0  0  0  0  0  0  0  0
  141.9537   76.8431  221.7643 H   0  0  0  0  0  0  0  0  0  0  0  0
  140.2773   78.6397  220.8676 H   0  0  0  0  0  0  0  0  0  0  0  0
  142.0832   78.8827  220.8856 H   0  0  0  0  0  0  0  0  0  0  0  0
  142.6168   78.6557  217.5685 H   0  0  0  0  0  0  0  0  0  0  0  0
  143.2746   78.7573  219.2308 H   0  0  0  0  0  0  0  0  0  0  0  0
  142.1179   76.3244  217.7931 H   0  0  0  0  0  0  0  0  0  0  0  0
  143.7851   76.5613  218.4691 H   0  0  0  0  0  0  0  0  0  0  0  0
  140.7937   74.1236  220.6240 H   0  0  0  0  0  0  0  0  0  0  0  0
  139.1824   69.6453  221.5253 H   0  0  0  0  0  0  0  0  0  0  0  0
  138.6694   68.3785  222.7745 H   0  0  0  0  0  0  0  0  0  0  0  0
  136.8866   69.6535  221.2817 H   0  0  0  0  0  0  0  0  0  0  0  0
  135.3880   68.8469  222.5200 H   0  0  0  0  0  0  0  0  0  0  0  0
  136.8689   67.9603  223.1514 H   0  0  0  0  0  0  0  0  0  0  0  0
  135.3964   68.6321  224.9881 H   0  0  0  0  0  0  0  0  0  0  0  0
  136.9443   69.4593  225.0932 H   0  0  0  0  0  0  0  0  0  0  0  0
  134.5005   70.5768  223.5694 H   0  0  0  0  0  0  0  0  0  0  0  0
  134.8656   71.0205  225.2484 H   0  0  0  0  0  0  0  0  0  0  0  0
  135.8141   72.6126  223.5883 H   0  0  0  0  0  0  0  0  0  0  0  0
  137.0893   71.7400  224.6014 H   0  0  0  0  0  0  0  0  0  0  0  0
  136.5675   71.7166  221.7166 H   0  0  0  0  0  0  0  0  0  0  0  0
  138.1099   71.6337  222.7435 H   0  0  0  0  0  0  0  0  0  0  0  0
  1  2  2  0
  2  3  1  0
  3  4  2  0
  4  5  1  0
  5  6  2  0
  6  7  1  0
  6  8  1  0
  8  9  2  0
  9 10  1  0
 10 11  2  0
 11 12  1  0
 12 13  2  0
 13 14  1  0
 14 15  2  0
 15 16  1  0
 16 17  2  0
 17 18  1  0
 18 19  1  0
 19 20  1  0
 20 21  1  0
 21 22  1  0
 22 23  1  0
 23 24  1  0
 18 25  2  0
 11 26  1  0
 26 27  1  0
 27 28  1  0
 28 29  1  0
 29 30  1  0
 30 31  1  0
 31 32  1  0
 32 33  1  0
 26  2  1  0
 33 28  1  0
  9  3  1  0
 25 14  1  0
 24 19  1  0
  4 34  1  0
  5 35  1  0
  8 36  1  0
 12 37  1  0
 13 38  1  0
 15 39  1  0
 16 40  1  0
 17 41  1  0
 20 42  1  0
 20 43  1  0
 21 44  1  0
 21 45  1  0
 23 46  1  0
 23 47  1  0
 24 48  1  0
 24 49  1  0
 25 50  1  0
 27 51  1  0
 27 52  1  0
 28 53  1  0
 29 54  1  0
 29 55  1  0
 30 56  1  0
 30 57  1  0
 31 58  1  0
 31 59  1  0
 32 60  1  0
 32 61  1  0
 33 62  1  0
 33 63  1  0
M  END
>  <smiles>  (11) 
O=c1c2ccc(F)cc2nc(/C=C/c2cccc(N3CCOCC3)c2)n1CC1CCCCC1

>  <score_type>  (11) 
oracle

>  <origin>  (11) 
autodockgpu

>  <m_score__min__energy>  (11) 
-9.0299999999999994

>  <m_primary>  (11) 
energy

>  <rmsd>  (11) 
11.272378663451889

>  <m_score__min__rmsd>  (11) 
11.272378663451889

>  <meeko>  (11) 
{"free_energy": -7.94, "intermolecular_energy": -9.73, "internal_energy": -1.75, "cluster_size": 1, "cluster_id": 8, "rank_in_cluster": 1}

>  <energy>  (11) 
-8.66

>  <cluster_rmsd>  (11) 
0.56

>  <cluster>  (11) 
1

$$$$

     RDKit          3D

 63 67  0  0  0  0  0  0  0  0999 V2000
  138.8200   68.2770  224.8120 O   0  0  0  0  0  0  0  0  0  0  0  0
  139.3670   69.3980  224.6360 C   0  0  0  0  0  0  0  0  0  0  0  0
  139.9340   70.0060  225.7280 C   0  0  0  0  0  0  0  0  0  0  0  0
  139.8830   69.3670  226.9680 C   0  0  0  0  0  0  0  0  0  0  0  0
  140.4590   69.9930  228.0620 C   0  0  0  0  0  0  0  0  0  0  0  0
  141.0740   71.2330  227.9120 C   0  0  0  0  0  0  0  0  0  0  0  0
  141.6430   71.8600  228.9710 F   0  0  0  0  0  0  0  0  0  0  0  0
  141.1130   71.8440  226.6750 C   0  0  0  0  0  0  0  0  0  0  0  0
  140.5390   71.2300  225.5680 C   0  0  0  0  0  0  0  0  0  0  0  0
  140.5480   71.7790  224.3450 N   0  0  0  0  0  0  0  0  0  0  0  0
  139.9830   71.1530  223.3020 C   0  0  0  0  0  0  0  0  0  0  0  0
  140.0900   71.8180  222.0030 C   0  0  0  0  0  0  0  0  0  0  0  0
  140.6310   73.0140  221.8920 C   0  0  0  0  0  0  0  0  0  0  0  0
  139.8870   74.2620  221.9450 C   0  0  0  0  0  0  0  0  0  0  0  0
  138.5110   74.3350  221.9700 C   0  0  0  0  0  0  0  0  0  0  0  0
  137.8270   75.5470  222.0210 C   0  0  0  0  0  0  0  0  0  0  0  0
  138.5560   76.7100  222.0470 C   0  0  0  0  0  0  0  0  0  0  0  0
  139.9530   76.6890  222.0240 C   0  0  0  0  0  0  0  0  0  0  0  0
  140.6880   77.9060  222.0520 N   0  0  0  0  0  0  0  0  0  0  0  0
  141.4040   78.2390  223.2610 C   0  0  0  0  0  0  0  0  0  0  0  0
  142.3300   79.4020  223.1110 C   0  0  0  0  0  0  0  0  0  0  0  0
  141.8620   80.3550  222.2070 O   0  0  0  0  0  0  0  0  0  0  0  0
  141.8390   79.7650  220.9450 C   0  0  0  0  0  0  0  0  0  0  0  0
  140.6990   78.7580  220.8970 C   0  0  0  0  0  0  0  0  0  0  0  0
  140.5710   75.4590  221.9740 C   0  0  0  0  0  0  0  0  0  0  0  0
  139.3800   69.9640  223.3920 N   0  0  0  0  0  0  0  0  0  0  0  0
  138.7190   69.2540  222.3560 C   0  0  0  0  0  0  0  0  0  0  0  0
  137.2540   69.5440  222.1700 C   0  0  0  0  0  0  0  0  0  0  0  0
  136.6260   70.0260  223.4000 C   0  0  0  0  0  0  0  0  0  0  0  0
  136.6450   71.5240  223.5790 C   0  0  0  0  0  0  0  0  0  0  0  0
  135.8240   72.0450  222.4170 C   0  0  0  0  0  0  0  0  0  0  0  0
  136.6380   71.7990  221.1770 C   0  0  0  0  0  0  0  0  0  0  0  0
  137.0940   70.4000  220.9590 C   0  0  0  0  0  0  0  0  0  0  0  0
  139.3956   68.3867  227.0746 H   0  0  0  0  0  0  0  0  0  0  0  0
  140.4303   69.5097  229.0497 H   0  0  0  0  0  0  0  0  0  0  0  0
  141.6016   72.8233  226.5645 H   0  0  0  0  0  0  0  0  0  0  0  0
  139.7120   71.3103  221.1033 H   0  0  0  0  0  0  0  0  0  0  0  0
  141.7202   73.0725  221.7494 H   0  0  0  0  0  0  0  0  0  0  0  0
  137.9310   73.4005  221.9489 H   0  0  0  0  0  0  0  0  0  0  0  0
  136.7274   75.5719  222.0400 H   0  0  0  0  0  0  0  0  0  0  0  0
  138.0309   77.6758  222.0866 H   0  0  0  0  0  0  0  0  0  0  0  0
  140.6698   78.4787  224.0443 H   0  0  0  0  0  0  0  0  0  0  0  0
  142.0231   77.3668  223.5179 H   0  0  0  0  0  0  0  0  0  0  0  0
  142.4538   79.8811  224.0934 H   0  0  0  0  0  0  0  0  0  0  0  0
  143.2834   79.0167  222.7205 H   0  0  0  0  0  0  0  0  0  0  0  0
  141.6826   80.5378  220.1780 H   0  0  0  0  0  0  0  0  0  0  0  0
  142.7955   79.2573  220.7515 H   0  0  0  0  0  0  0  0  0  0  0  0
  139.7449   79.3032  220.8482 H   0  0  0  0  0  0  0  0  0  0  0  0
  140.8404   78.1254  220.0083 H   0  0  0  0  0  0  0  0  0  0  0  0
  141.6705   75.4300  221.9562 H   0  0  0  0  0  0  0  0  0  0  0  0
  139.2290   69.4912  221.4107 H   0  0  0  0  0  0  0  0  0  0  0  0
  138.7704   68.1955  222.6508 H   0  0  0  0  0  0  0  0  0  0  0  0
  136.6874   68.6222  221.9721 H   0  0  0  0  0  0  0  0  0  0  0  0
  135.5769   69.6953  223.4001 H   0  0  0  0  0  0  0  0  0  0  0  0
  137.2146   69.6089  224.2304 H   0  0  0  0  0  0  0  0  0  0  0  0
  136.1884   71.8085  224.5385 H   0  0  0  0  0  0  0  0  0  0  0  0
  137.6653   71.9348  223.5930 H   0  0  0  0  0  0  0  0  0  0  0  0
  134.8665   71.5069  222.3564 H   0  0  0  0  0  0  0  0  0  0  0  0
  135.5957   73.1142  222.5382 H   0  0  0  0  0  0  0  0  0  0  0  0
  136.0269   72.0919  220.3105 H   0  0  0  0  0  0  0  0  0  0  0  0
  137.5558   72.3919  221.3042 H   0  0  0  0  0  0  0  0  0  0  0  0
  136.3608   69.9106  220.3011 H   0  0  0  0  0  0  0  0  0  0  0  0
  138.1060   70.4915  220.5378 H   0  0  0  0  0  0  0  0  0  0  0  0
  1  2  2  0
  2  3  1  0
  3  4  2  0
  4  5  1  0
  5  6  2  0
  6  7  1  0
  6  8  1  0
  8  9  2  0
  9 10  1  0
 10 11  2  0
 11 12  1  0
 12 13  2  0
 13 14  1  0
 14 15  2  0
 15 16  1  0
 16 17  2  0
 17 18  1  0
 18 19  1  0
 19 20  1  0
 20 21  1  0
 21 22  1  0
 22 23  1  0
 23 24  1  0
 18 25  2  0
 11 26  1  0
 26 27  1  0
 27 28  1  0
 28 29  1  0
 29 30  1  0
 30 31  1  0
 31 32  1  0
 32 33  1  0
 26  2  1  0
 33 28  1  0
  9  3  1  0
 25 14  1  0
 24 19  1  0
  4 34  1  0
  5 35  1  0
  8 36  1  0
 12 37  1  0
 13 38  1  0
 15 39  1  0
 16 40  1  0
 17 41  1  0
 20 42  1  0
 20 43  1  0
 21 44  1  0
 21 45  1  0
 23 46  1  0
 23 47  1  0
 24 48  1  0
 24 49  1  0
 25 50  1  0
 27 51  1  0
 27 52  1  0
 28 53  1  0
 29 54  1  0
 29 55  1  0
 30 56  1  0
 30 57  1  0
 31 58  1  0
 31 59  1  0
 32 60  1  0
 32 61  1  0
 33 62  1  0
 33 63  1  0
M  END
>  <smiles>  (12) 
O=c1c2ccc(F)cc2nc(/C=C/c2cccc(N3CCOCC3)c2)n1CC1CCCCC1

>  <score_type>  (12) 
oracle

>  <origin>  (12) 
autodockgpu

>  <m_score__min__energy>  (12) 
-9.0299999999999994

>  <m_primary>  (12) 
energy

>  <rmsd>  (12) 
10.862331833428527

>  <m_score__min__rmsd>  (12) 
10.862331833428527

>  <meeko>  (12) 
{"free_energy": -8.02, "intermolecular_energy": -9.81, "internal_energy": -2.25, "cluster_size": 15, "cluster_id": 3, "rank_in_cluster": 13}

>  <energy>  (12) 
-8.66

>  <cluster_rmsd>  (12) 
0.56

>  <cluster>  (12) 
1

$$$$

     RDKit          3D

 63 67  0  0  0  0  0  0  0  0999 V2000
  138.3020   68.4270  225.1980 O   0  0  0  0  0  0  0  0  0  0  0  0
  139.0060   69.4470  224.9750 C   0  0  0  0  0  0  0  0  0  0  0  0
  139.7240   69.9650  226.0250 C   0  0  0  0  0  0  0  0  0  0  0  0
  139.6440   69.3510  227.2740 C   0  0  0  0  0  0  0  0  0  0  0  0
  140.3730   69.8850  228.3250 C   0  0  0  0  0  0  0  0  0  0  0  0
  141.1640   71.0120  228.1220 C   0  0  0  0  0  0  0  0  0  0  0  0
  141.8850   71.5500  229.1380 F   0  0  0  0  0  0  0  0  0  0  0  0
  141.2270   71.6020  226.8760 C   0  0  0  0  0  0  0  0  0  0  0  0
  140.5010   71.0800  225.8120 C   0  0  0  0  0  0  0  0  0  0  0  0
  140.5260   71.6130  224.5820 N   0  0  0  0  0  0  0  0  0  0  0  0
  139.8100   71.0760  223.5820 C   0  0  0  0  0  0  0  0  0  0  0  0
  139.9450   71.7080  222.2690 C   0  0  0  0  0  0  0  0  0  0  0  0
  139.6520   72.9810  222.0920 C   0  0  0  0  0  0  0  0  0  0  0  0
  140.5220   73.9420  221.4350 C   0  0  0  0  0  0  0  0  0  0  0  0
  140.2050   75.2730  221.2640 C   0  0  0  0  0  0  0  0  0  0  0  0
  141.0600   76.1690  220.6300 C   0  0  0  0  0  0  0  0  0  0  0  0
  142.2630   75.7070  220.1580 C   0  0  0  0  0  0  0  0  0  0  0  0
  142.6310   74.3660  220.3060 C   0  0  0  0  0  0  0  0  0  0  0  0
  143.8810   73.9070  219.8100 N   0  0  0  0  0  0  0  0  0  0  0  0
  145.0380   74.0350  220.6640 C   0  0  0  0  0  0  0  0  0  0  0  0
  146.2440   73.3140  220.1550 C   0  0  0  0  0  0  0  0  0  0  0  0
  146.3150   73.2900  218.7630 O   0  0  0  0  0  0  0  0  0  0  0  0
  145.2390   72.5370  218.2980 C   0  0  0  0  0  0  0  0  0  0  0  0
  143.9600   73.3390  218.4940 C   0  0  0  0  0  0  0  0  0  0  0  0
  141.7410   73.5280  220.9430 C   0  0  0  0  0  0  0  0  0  0  0  0
  139.0360   69.9970  223.7240 N   0  0  0  0  0  0  0  0  0  0  0  0
  138.2130   69.3930  222.7380 C   0  0  0  0  0  0  0  0  0  0  0  0
  136.7530   69.7530  222.7660 C   0  0  0  0  0  0  0  0  0  0  0  0
  136.4480   70.7380  223.8030 C   0  0  0  0  0  0  0  0  0  0  0  0
  136.5380   72.1780  223.3600 C   0  0  0  0  0  0  0  0  0  0  0  0
  135.4740   72.3030  222.2890 C   0  0  0  0  0  0  0  0  0  0  0  0
  135.9610   71.5090  221.1100 C   0  0  0  0  0  0  0  0  0  0  0  0
  136.3240   70.0910  221.3780 C   0  0  0  0  0  0  0  0  0  0  0  0
  139.0151   68.4608  227.4225 H   0  0  0  0  0  0  0  0  0  0  0  0
  140.3264   69.4179  229.3198 H   0  0  0  0  0  0  0  0  0  0  0  0
  141.8561   72.4914  226.7240 H   0  0  0  0  0  0  0  0  0  0  0  0
  140.2970   71.1105  221.4151 H   0  0  0  0  0  0  0  0  0  0  0  0
  138.6825   73.3405  222.4673 H   0  0  0  0  0  0  0  0  0  0  0  0
  139.2399   75.6402  221.6431 H   0  0  0  0  0  0  0  0  0  0  0  0
  140.7777   77.2253  220.5096 H   0  0  0  0  0  0  0  0  0  0  0  0
  142.9496   76.4035  219.6546 H   0  0  0  0  0  0  0  0  0  0  0  0
  145.2851   75.1029  220.7560 H   0  0  0  0  0  0  0  0  0  0  0  0
  144.7758   73.5797  221.6304 H   0  0  0  0  0  0  0  0  0  0  0  0
  147.1426   73.8155  220.5436 H   0  0  0  0  0  0  0  0  0  0  0  0
  146.1751   72.2717  220.4998 H   0  0  0  0  0  0  0  0  0  0  0  0
  145.3767   72.3155  217.2294 H   0  0  0  0  0  0  0  0  0  0  0  0
  145.1763   71.5902  218.8545 H   0  0  0  0  0  0  0  0  0  0  0  0
  143.9330   74.1520  217.7535 H   0  0  0  0  0  0  0  0  0  0  0  0
  143.1067   72.6569  218.3652 H   0  0  0  0  0  0  0  0  0  0  0  0
  142.0190   72.4708  221.0653 H   0  0  0  0  0  0  0  0  0  0  0  0
  138.6084   69.6794  221.7523 H   0  0  0  0  0  0  0  0  0  0  0  0
  138.2496   68.3144  222.9510 H   0  0  0  0  0  0  0  0  0  0  0  0
  136.1376   68.8961  223.0773 H   0  0  0  0  0  0  0  0  0  0  0  0
  135.4234   70.5535  224.1583 H   0  0  0  0  0  0  0  0  0  0  0  0
  137.2109   70.6082  224.5847 H   0  0  0  0  0  0  0  0  0  0  0  0
  136.3293   72.8583  224.1989 H   0  0  0  0  0  0  0  0  0  0  0  0
  137.5399   72.4445  222.9925 H   0  0  0  0  0  0  0  0  0  0  0  0
  134.5189   71.8963  222.6528 H   0  0  0  0  0  0  0  0  0  0  0  0
  135.3042   73.3554  222.0175 H   0  0  0  0  0  0  0  0  0  0  0  0
  135.1655   71.5140  220.3503 H   0  0  0  0  0  0  0  0  0  0  0  0
  136.8941   71.9968  220.7916 H   0  0  0  0  0  0  0  0  0  0  0  0
  135.4449   69.4731  221.1426 H   0  0  0  0  0  0  0  0  0  0  0  0
  137.2071   69.8986  220.7510 H   0  0  0  0  0  0  0  0  0  0  0  0
  1  2  2  0
  2  3  1  0
  3  4  2  0
  4  5  1  0
  5  6  2  0
  6  7  1  0
  6  8  1  0
  8  9  2  0
  9 10  1  0
 10 11  2  0
 11 12  1  0
 12 13  2  0
 13 14  1  0
 14 15  2  0
 15 16  1  0
 16 17  2  0
 17 18  1  0
 18 19  1  0
 19 20  1  0
 20 21  1  0
 21 22  1  0
 22 23  1  0
 23 24  1  0
 18 25  2  0
 11 26  1  0
 26 27  1  0
 27 28  1  0
 28 29  1  0
 29 30  1  0
 30 31  1  0
 31 32  1  0
 32 33  1  0
 26  2  1  0
 33 28  1  0
  9  3  1  0
 25 14  1  0
 24 19  1  0
  4 34  1  0
  5 35  1  0
  8 36  1  0
 12 37  1  0
 13 38  1  0
 15 39  1  0
 16 40  1  0
 17 41  1  0
 20 42  1  0
 20 43  1  0
 21 44  1  0
 21 45  1  0
 23 46  1  0
 23 47  1  0
 24 48  1  0
 24 49  1  0
 25 50  1  0
 27 51  1  0
 27 52  1  0
 28 53  1  0
 29 54  1  0
 29 55  1  0
 30 56  1  0
 30 57  1  0
 31 58  1  0
 31 59  1  0
 32 60  1  0
 32 61  1  0
 33 62  1  0
 33 63  1  0
M  END
>  <smiles>  (13) 
O=c1c2ccc(F)cc2nc(/C=C/c2cccc(N3CCOCC3)c2)n1CC1CCCCC1

>  <score_type>  (13) 
oracle

>  <origin>  (13) 
autodockgpu

>  <m_score__min__energy>  (13) 
-9.0299999999999994

>  <m_primary>  (13) 
energy

>  <rmsd>  (13) 
10.943764181286934

>  <m_score__min__rmsd>  (13) 
10.943764181286934

>  <meeko>  (13) 
{"free_energy": -8.19, "intermolecular_energy": -9.98, "internal_energy": -1.86, "cluster_size": 18, "cluster_id": 1, "rank_in_cluster": 18}

>  <energy>  (13) 
-8.5

>  <cluster_rmsd>  (13) 
0.53

>  <cluster>  (13) 
1

$$$$

     RDKit          3D

 63 67  0  0  0  0  0  0  0  0999 V2000
  138.9110   67.6880  225.4160 O   0  0  0  0  0  0  0  0  0  0  0  0
  139.3040   68.7890  224.9500 C   0  0  0  0  0  0  0  0  0  0  0  0
  139.9320   69.6550  225.8110 C   0  0  0  0  0  0  0  0  0  0  0  0
  140.1050   69.2860  227.1440 C   0  0  0  0  0  0  0  0  0  0  0  0
  140.7400   70.1700  228.0030 C   0  0  0  0  0  0  0  0  0  0  0  0
  141.1900   71.3980  227.5280 C   0  0  0  0  0  0  0  0  0  0  0  0
  141.8130   72.2770  228.3530 F   0  0  0  0  0  0  0  0  0  0  0  0
  141.0080   71.7410  226.2040 C   0  0  0  0  0  0  0  0  0  0  0  0
  140.3730   70.8660  225.3310 C   0  0  0  0  0  0  0  0  0  0  0  0
  140.1700   71.1490  224.0360 N   0  0  0  0  0  0  0  0  0  0  0  0
  139.5530   70.2750  223.2260 C   0  0  0  0  0  0  0  0  0  0  0  0
  139.4240   70.6630  221.8210 C   0  0  0  0  0  0  0  0  0  0  0  0
  139.1750   71.9110  221.4790 C   0  0  0  0  0  0  0  0  0  0  0  0
  140.1840   72.9530  221.3750 C   0  0  0  0  0  0  0  0  0  0  0  0
  139.9600   74.2740  221.6980 C   0  0  0  0  0  0  0  0  0  0  0  0
  140.9460   75.2490  221.5870 C   0  0  0  0  0  0  0  0  0  0  0  0
  142.1900   74.8760  221.1380 C   0  0  0  0  0  0  0  0  0  0  0  0
  142.4670   73.5490  220.7980 C   0  0  0  0  0  0  0  0  0  0  0  0
  143.7610   73.1840  220.3350 N   0  0  0  0  0  0  0  0  0  0  0  0
  144.8840   73.9870  220.7570 C   0  0  0  0  0  0  0  0  0  0  0  0
  146.2110   73.3900  220.4200 C   0  0  0  0  0  0  0  0  0  0  0  0
  146.1910   72.6590  219.2330 O   0  0  0  0  0  0  0  0  0  0  0  0
  145.3570   71.5600  219.4260 C   0  0  0  0  0  0  0  0  0  0  0  0
  143.9140   72.0460  219.4740 C   0  0  0  0  0  0  0  0  0  0  0  0
  141.4480   72.6310  220.9290 C   0  0  0  0  0  0  0  0  0  0  0  0
  139.1000   69.0850  223.6310 N   0  0  0  0  0  0  0  0  0  0  0  0
  138.3990   68.1230  222.8590 C   0  0  0  0  0  0  0  0  0  0  0  0
  136.9130   68.3210  222.7240 C   0  0  0  0  0  0  0  0  0  0  0  0
  136.3420   69.0120  223.8810 C   0  0  0  0  0  0  0  0  0  0  0  0
  136.3010   70.5170  223.7650 C   0  0  0  0  0  0  0  0  0  0  0  0
  135.3850   70.7720  222.5860 C   0  0  0  0  0  0  0  0  0  0  0  0
  136.1290   70.3160  221.3620 C   0  0  0  0  0  0  0  0  0  0  0  0
  136.6360   68.9170  221.3860 C   0  0  0  0  0  0  0  0  0  0  0  0
  139.7447   68.3123  227.5074 H   0  0  0  0  0  0  0  0  0  0  0  0
  140.8879   69.9007  229.0592 H   0  0  0  0  0  0  0  0  0  0  0  0
  141.3679   72.7135  225.8371 H   0  0  0  0  0  0  0  0  0  0  0  0
  139.5368   69.8998  221.0369 H   0  0  0  0  0  0  0  0  0  0  0  0
  138.1326   72.1832  221.2570 H   0  0  0  0  0  0  0  0  0  0  0  0
  138.9630   74.5687  222.0574 H   0  0  0  0  0  0  0  0  0  0  0  0
  140.7346   76.2953  221.8527 H   0  0  0  0  0  0  0  0  0  0  0  0
  142.9811   75.6346  221.0446 H   0  0  0  0  0  0  0  0  0  0  0  0
  144.8113   74.9696  220.2679 H   0  0  0  0  0  0  0  0  0  0  0  0
  144.8334   74.0584  221.8535 H   0  0  0  0  0  0  0  0  0  0  0  0
  146.9461   74.2022  220.3198 H   0  0  0  0  0  0  0  0  0  0  0  0
  146.4763   72.6958  221.2309 H   0  0  0  0  0  0  0  0  0  0  0  0
  145.4813   70.8502  218.5949 H   0  0  0  0  0  0  0  0  0  0  0  0
  145.6143   71.0545  220.3685 H   0  0  0  0  0  0  0  0  0  0  0  0
  143.5984   72.3241  218.4576 H   0  0  0  0  0  0  0  0  0  0  0  0
  143.2927   71.2306  219.8730 H   0  0  0  0  0  0  0  0  0  0  0  0
  141.6544   71.5838  220.6631 H   0  0  0  0  0  0  0  0  0  0  0  0
  138.8299   68.1289  221.8469 H   0  0  0  0  0  0  0  0  0  0  0  0
  138.5172   67.1734  223.4015 H   0  0  0  0  0  0  0  0  0  0  0  0
  136.3789   67.3596  222.7466 H   0  0  0  0  0  0  0  0  0  0  0  0
  135.3121   68.6517  224.0204 H   0  0  0  0  0  0  0  0  0  0  0  0
  137.0009   68.7856  224.7322 H   0  0  0  0  0  0  0  0  0  0  0  0
  135.8928   70.9683  224.6814 H   0  0  0  0  0  0  0  0  0  0  0  0
  137.2996   70.9571  223.6266 H   0  0  0  0  0  0  0  0  0  0  0  0
  134.4521   70.2002  222.6988 H   0  0  0  0  0  0  0  0  0  0  0  0
  135.1150   71.8360  222.5144 H   0  0  0  0  0  0  0  0  0  0  0  0
  135.4509   70.4128  220.5013 H   0  0  0  0  0  0  0  0  0  0  0  0
  137.0239   70.9532  221.3064 H   0  0  0  0  0  0  0  0  0  0  0  0
  135.8863   68.2836  220.8893 H   0  0  0  0  0  0  0  0  0  0  0  0
  137.6137   68.9585  220.8836 H   0  0  0  0  0  0  0  0  0  0  0  0
  1  2  2  0
  2  3  1  0
  3  4  2  0
  4  5  1  0
  5  6  2  0
  6  7  1  0
  6  8  1  0
  8  9  2  0
  9 10  1  0
 10 11  2  0
 11 12  1  0
 12 13  2  0
 13 14  1  0
 14 15  2  0
 15 16  1  0
 16 17  2  0
 17 18  1  0
 18 19  1  0
 19 20  1  0
 20 21  1  0
 21 22  1  0
 22 23  1  0
 23 24  1  0
 18 25  2  0
 11 26  1  0
 26 27  1  0
 27 28  1  0
 28 29  1  0
 29 30  1  0
 30 31  1  0
 31 32  1  0
 32 33  1  0
 26  2  1  0
 33 28  1  0
  9  3  1  0
 25 14  1  0
 24 19  1  0
  4 34  1  0
  5 35  1  0
  8 36  1  0
 12 37  1  0
 13 38  1  0
 15 39  1  0
 16 40  1  0
 17 41  1  0
 20 42  1  0
 20 43  1  0
 21 44  1  0
 21 45  1  0
 23 46  1  0
 23 47  1  0
 24 48  1  0
 24 49  1  0
 25 50  1  0
 27 51  1  0
 27 52  1  0
 28 53  1  0
 29 54  1  0
 29 55  1  0
 30 56  1  0
 30 57  1  0
 31 58  1  0
 31 59  1  0
 32 60  1  0
 32 61  1  0
 33 62  1  0
 33 63  1  0
M  END
>  <smiles>  (14) 
O=c1c2ccc(F)cc2nc(/C=C/c2cccc(N3CCOCC3)c2)n1CC1CCCCC1

>  <score_type>  (14) 
oracle

>  <origin>  (14) 
autodockgpu

>  <m_score__min__energy>  (14) 
-9.0299999999999994

>  <m_primary>  (14) 
energy

>  <rmsd>  (14) 
11.344859738623859

>  <m_score__min__rmsd>  (14) 
11.344859738623859

>  <meeko>  (14) 
{"free_energy": -8.49, "intermolecular_energy": -10.28, "internal_energy": -2.09, "cluster_size": 18, "cluster_id": 1, "rank_in_cluster": 14}

>  <energy>  (14) 
-8.49

>  <cluster_rmsd>  (14) 
0.45

>  <cluster>  (14) 
1

$$$$

     RDKit          3D

 63 67  0  0  0  0  0  0  0  0999 V2000
  138.8250   68.3400  224.8490 O   0  0  0  0  0  0  0  0  0  0  0  0
  139.3390   69.4760  224.6740 C   0  0  0  0  0  0  0  0  0  0  0  0
  139.9570   70.0660  225.7480 C   0  0  0  0  0  0  0  0  0  0  0  0
  139.9890   69.3930  226.9700 C   0  0  0  0  0  0  0  0  0  0  0  0
  140.6160   70.0010  228.0470 C   0  0  0  0  0  0  0  0  0  0  0  0
  141.1970   71.2570  227.8970 C   0  0  0  0  0  0  0  0  0  0  0  0
  141.8140   71.8680  228.9390 F   0  0  0  0  0  0  0  0  0  0  0  0
  141.1520   71.9020  226.6770 C   0  0  0  0  0  0  0  0  0  0  0  0
  140.5270   71.3070  225.5880 C   0  0  0  0  0  0  0  0  0  0  0  0
  140.4550   71.8880  224.3820 N   0  0  0  0  0  0  0  0  0  0  0  0
  139.8430   71.2790  223.3560 C   0  0  0  0  0  0  0  0  0  0  0  0
  139.8620   71.9800  222.0720 C   0  0  0  0  0  0  0  0  0  0  0  0
  140.3540   73.1990  221.9680 C   0  0  0  0  0  0  0  0  0  0  0  0
  139.5610   74.4150  222.0380 C   0  0  0  0  0  0  0  0  0  0  0  0
  138.1850   74.4400  221.9630 C   0  0  0  0  0  0  0  0  0  0  0  0
  137.4540   75.6220  222.0330 C   0  0  0  0  0  0  0  0  0  0  0  0
  138.1330   76.8060  222.1810 C   0  0  0  0  0  0  0  0  0  0  0  0
  139.5290   76.8340  222.2630 C   0  0  0  0  0  0  0  0  0  0  0  0
  140.2130   78.0700  222.4170 N   0  0  0  0  0  0  0  0  0  0  0  0
  139.5760   79.1050  223.1970 C   0  0  0  0  0  0  0  0  0  0  0  0
  140.4680   80.2650  223.4990 C   0  0  0  0  0  0  0  0  0  0  0  0
  141.3860   80.5240  222.4810 O   0  0  0  0  0  0  0  0  0  0  0  0
  142.2500   79.4330  222.4040 C   0  0  0  0  0  0  0  0  0  0  0  0
  141.4970   78.2550  221.8020 C   0  0  0  0  0  0  0  0  0  0  0  0
  140.1950   75.6300  222.1870 C   0  0  0  0  0  0  0  0  0  0  0  0
  139.2690   70.0760  223.4470 N   0  0  0  0  0  0  0  0  0  0  0  0
  138.5630   69.3800  222.4320 C   0  0  0  0  0  0  0  0  0  0  0  0
  137.0860   69.6470  222.3350 C   0  0  0  0  0  0  0  0  0  0  0  0
  136.3280   68.9310  223.3610 C   0  0  0  0  0  0  0  0  0  0  0  0
  136.1270   69.6910  224.6500 C   0  0  0  0  0  0  0  0  0  0  0  0
  135.3100   70.9000  224.2420 C   0  0  0  0  0  0  0  0  0  0  0  0
  136.2190   71.7720  223.4230 C   0  0  0  0  0  0  0  0  0  0  0  0
  136.8780   71.1210  222.2580 C   0  0  0  0  0  0  0  0  0  0  0  0
  139.5264   68.4007  227.0767 H   0  0  0  0  0  0  0  0  0  0  0  0
  140.6543   69.4904  229.0206 H   0  0  0  0  0  0  0  0  0  0  0  0
  141.6142   72.8940  226.5664 H   0  0  0  0  0  0  0  0  0  0  0  0
  139.4589   71.4817  221.1780 H   0  0  0  0  0  0  0  0  0  0  0  0
  141.4388   73.3026  221.8180 H   0  0  0  0  0  0  0  0  0  0  0  0
  137.6442   73.4896  221.8433 H   0  0  0  0  0  0  0  0  0  0  0  0
  136.3558   75.6080  221.9711 H   0  0  0  0  0  0  0  0  0  0  0  0
  137.5694   77.7490  222.2360 H   0  0  0  0  0  0  0  0  0  0  0  0
  138.7038   79.4742  222.6376 H   0  0  0  0  0  0  0  0  0  0  0  0
  139.2968   78.6549  224.1611 H   0  0  0  0  0  0  0  0  0  0  0  0
  139.8439   81.1590  223.6445 H   0  0  0  0  0  0  0  0  0  0  0  0
  141.0410   80.0137  224.4038 H   0  0  0  0  0  0  0  0  0  0  0  0
  143.1104   79.6866  221.7673 H   0  0  0  0  0  0  0  0  0  0  0  0
  142.6133   79.1713  223.4087 H   0  0  0  0  0  0  0  0  0  0  0  0
  141.3534   78.4367  220.7267 H   0  0  0  0  0  0  0  0  0  0  0  0
  142.0919   77.3459  221.9745 H   0  0  0  0  0  0  0  0  0  0  0  0
  141.2932   75.6389  222.2486 H   0  0  0  0  0  0  0  0  0  0  0  0
  139.0150   69.6497  221.4661 H   0  0  0  0  0  0  0  0  0  0  0  0
  138.6486   68.3158  222.6968 H   0  0  0  0  0  0  0  0  0  0  0  0
  136.6653   69.2294  221.4084 H   0  0  0  0  0  0  0  0  0  0  0  0
  135.3372   68.6905  222.9482 H   0  0  0  0  0  0  0  0  0  0  0  0
  136.9210   68.0407  223.6173 H   0  0  0  0  0  0  0  0  0  0  0  0
  135.5803   69.0794  225.3828 H   0  0  0  0  0  0  0  0  0  0  0  0
  137.0774   69.9661  225.1307 H   0  0  0  0  0  0  0  0  0  0  0  0
  134.4419   70.5876  223.6431 H   0  0  0  0  0  0  0  0  0  0  0  0
  134.9290   71.4383  225.1224 H   0  0  0  0  0  0  0  0  0  0  0  0
  135.6233   72.6155  223.0438 H   0  0  0  0  0  0  0  0  0  0  0  0
  137.0362   72.0634  224.0992 H   0  0  0  0  0  0  0  0  0  0  0  0
  136.2593   71.3230  221.3712 H   0  0  0  0  0  0  0  0  0  0  0  0
  137.8899   71.5510  222.2250 H   0  0  0  0  0  0  0  0  0  0  0  0
  1  2  2  0
  2  3  1  0
  3  4  2  0
  4  5  1  0
  5  6  2  0
  6  7  1  0
  6  8  1  0
  8  9  2  0
  9 10  1  0
 10 11  2  0
 11 12  1  0
 12 13  2  0
 13 14  1  0
 14 15  2  0
 15 16  1  0
 16 17  2  0
 17 18  1  0
 18 19  1  0
 19 20  1  0
 20 21  1  0
 21 22  1  0
 22 23  1  0
 23 24  1  0
 18 25  2  0
 11 26  1  0
 26 27  1  0
 27 28  1  0
 28 29  1  0
 29 30  1  0
 30 31  1  0
 31 32  1  0
 32 33  1  0
 26  2  1  0
 33 28  1  0
  9  3  1  0
 25 14  1  0
 24 19  1  0
  4 34  1  0
  5 35  1  0
  8 36  1  0
 12 37  1  0
 13 38  1  0
 15 39  1  0
 16 40  1  0
 17 41  1  0
 20 42  1  0
 20 43  1  0
 21 44  1  0
 21 45  1  0
 23 46  1  0
 23 47  1  0
 24 48  1  0
 24 49  1  0
 25 50  1  0
 27 51  1  0
 27 52  1  0
 28 53  1  0
 29 54  1  0
 29 55  1  0
 30 56  1  0
 30 57  1  0
 31 58  1  0
 31 59  1  0
 32 60  1  0
 32 61  1  0
 33 62  1  0
 33 63  1  0
M  END
>  <smiles>  (15) 
O=c1c2ccc(F)cc2nc(/C=C/c2cccc(N3CCOCC3)c2)n1CC1CCCCC1

>  <score_type>  (15) 
oracle

>  <origin>  (15) 
autodockgpu

>  <m_score__min__energy>  (15) 
-9.0299999999999994

>  <m_primary>  (15) 
energy

>  <rmsd>  (15) 
11.30227300977887

>  <m_score__min__rmsd>  (15) 
11.30227300977887

>  <meeko>  (15) 
{"free_energy": -8.17, "intermolecular_energy": -9.96, "internal_energy": -2.07, "cluster_size": 15, "cluster_id": 3, "rank_in_cluster": 5}

>  <energy>  (15) 
-8.46

>  <cluster_rmsd>  (15) 
1.36

>  <cluster>  (15) 
1

$$$$

     RDKit          3D

 63 67  0  0  0  0  0  0  0  0999 V2000
  142.9100   77.2660  219.1990 O   0  0  0  0  0  0  0  0  0  0  0  0
  142.1240   76.7210  220.0180 C   0  0  0  0  0  0  0  0  0  0  0  0
  141.5390   77.5220  220.9660 C   0  0  0  0  0  0  0  0  0  0  0  0
  141.8340   78.8860  220.9830 C   0  0  0  0  0  0  0  0  0  0  0  0
  141.2360   79.6840  221.9460 C   0  0  0  0  0  0  0  0  0  0  0  0
  140.3610   79.1210  222.8710 C   0  0  0  0  0  0  0  0  0  0  0  0
  139.7660   79.8850  223.8210 F   0  0  0  0  0  0  0  0  0  0  0  0
  140.0840   77.7690  222.8330 C   0  0  0  0  0  0  0  0  0  0  0  0
  140.6760   76.9560  221.8740 C   0  0  0  0  0  0  0  0  0  0  0  0
  140.4430   75.6380  221.7930 N   0  0  0  0  0  0  0  0  0  0  0  0
  141.0340   74.8880  220.8510 C   0  0  0  0  0  0  0  0  0  0  0  0
  140.6740   73.4700  220.8210 C   0  0  0  0  0  0  0  0  0  0  0  0
  141.0920   72.6410  221.7570 C   0  0  0  0  0  0  0  0  0  0  0  0
  140.2180   71.9100  222.6590 C   0  0  0  0  0  0  0  0  0  0  0  0
  138.9660   71.4500  222.3100 C   0  0  0  0  0  0  0  0  0  0  0  0
  138.1520   70.7520  223.1970 C   0  0  0  0  0  0  0  0  0  0  0  0
  138.6180   70.5150  224.4670 C   0  0  0  0  0  0  0  0  0  0  0  0
  139.8800   70.9600  224.8690 C   0  0  0  0  0  0  0  0  0  0  0  0
  140.3430   70.7040  226.1880 N   0  0  0  0  0  0  0  0  0  0  0  0
  140.8710   71.8110  226.9490 C   0  0  0  0  0  0  0  0  0  0  0  0
  141.1050   71.4940  228.3910 C   0  0  0  0  0  0  0  0  0  0  0  0
  141.4820   70.1670  228.6000 O   0  0  0  0  0  0  0  0  0  0  0  0
  140.4060   69.3600  228.2370 C   0  0  0  0  0  0  0  0  0  0  0  0
  140.2750   69.3720  226.7210 C   0  0  0  0  0  0  0  0  0  0  0  0
  140.6380   71.6450  223.9450 C   0  0  0  0  0  0  0  0  0  0  0  0
  141.8820   75.3770  219.9410 N   0  0  0  0  0  0  0  0  0  0  0  0
  142.5850   74.6540  218.9430 C   0  0  0  0  0  0  0  0  0  0  0  0
  144.0830   74.6080  219.0750 C   0  0  0  0  0  0  0  0  0  0  0  0
  144.5100   74.4820  220.4690 C   0  0  0  0  0  0  0  0  0  0  0  0
  144.6730   73.0640  220.9590 C   0  0  0  0  0  0  0  0  0  0  0  0
  145.7800   72.4990  220.0930 C   0  0  0  0  0  0  0  0  0  0  0  0
  145.2090   72.3610  218.7090 C   0  0  0  0  0  0  0  0  0  0  0  0
  144.6090   73.5890  218.1220 C   0  0  0  0  0  0  0  0  0  0  0  0
  142.5272   79.3192  220.2469 H   0  0  0  0  0  0  0  0  0  0  0  0
  141.4528   80.7619  221.9793 H   0  0  0  0  0  0  0  0  0  0  0  0
  139.3902   77.3325  223.5666 H   0  0  0  0  0  0  0  0  0  0  0  0
  140.0439   73.0893  220.0036 H   0  0  0  0  0  0  0  0  0  0  0  0
  142.1768   72.4924  221.8625 H   0  0  0  0  0  0  0  0  0  0  0  0
  138.5966   71.6420  221.2918 H   0  0  0  0  0  0  0  0  0  0  0  0
  137.1575   70.3980  222.8878 H   0  0  0  0  0  0  0  0  0  0  0  0
  137.9865   69.9651  225.1803 H   0  0  0  0  0  0  0  0  0  0  0  0
  141.8285   72.1148  226.5008 H   0  0  0  0  0  0  0  0  0  0  0  0
  140.1177   72.6118  226.9149 H   0  0  0  0  0  0  0  0  0  0  0  0
  141.9030   72.1496  228.7697 H   0  0  0  0  0  0  0  0  0  0  0  0
  140.1560   71.6558  228.9232 H   0  0  0  0  0  0  0  0  0  0  0  0
  140.5812   68.3313  228.5850 H   0  0  0  0  0  0  0  0  0  0  0  0
  139.4814   69.7406  228.6955 H   0  0  0  0  0  0  0  0  0  0  0  0
  141.0908   68.7740  226.2888 H   0  0  0  0  0  0  0  0  0  0  0  0
  139.2930   68.9503  226.4604 H   0  0  0  0  0  0  0  0  0  0  0  0
  141.6334   72.0001  224.2502 H   0  0  0  0  0  0  0  0  0  0  0  0
  142.2164   73.6177  218.9594 H   0  0  0  0  0  0  0  0  0  0  0  0
  142.3927   75.1935  218.0039 H   0  0  0  0  0  0  0  0  0  0  0  0
  144.5381   75.5658  218.7824 H   0  0  0  0  0  0  0  0  0  0  0  0
  145.4775   74.9941  220.5774 H   0  0  0  0  0  0  0  0  0  0  0  0
  143.7098   74.9282  221.0778 H   0  0  0  0  0  0  0  0  0  0  0  0
  144.9610   73.0483  222.0205 H   0  0  0  0  0  0  0  0  0  0  0  0
  143.7420   72.4826  220.8868 H   0  0  0  0  0  0  0  0  0  0  0  0
  146.6413   73.1831  220.0825 H   0  0  0  0  0  0  0  0  0  0  0  0
  146.1314   71.5301  220.4774 H   0  0  0  0  0  0  0  0  0  0  0  0
  146.0198   72.0317  218.0425 H   0  0  0  0  0  0  0  0  0  0  0  0
  144.3805   71.6434  218.8019 H   0  0  0  0  0  0  0  0  0  0  0  0
  145.3821   74.0757  217.5093 H   0  0  0  0  0  0  0  0  0  0  0  0
  143.7281   73.2379  217.5646 H   0  0  0  0  0  0  0  0  0  0  0  0
  1  2  2  0
  2  3  1  0
  3  4  2  0
  4  5  1  0
  5  6  2  0
  6  7  1  0
  6  8  1  0
  8  9  2  0
  9 10  1  0
 10 11  2  0
 11 12  1  0
 12 13  2  0
 13 14  1  0
 14 15  2  0
 15 16  1  0
 16 17  2  0
 17 18  1  0
 18 19  1  0
 19 20  1  0
 20 21  1  0
 21 22  1  0
 22 23  1  0
 23 24  1  0
 18 25  2  0
 11 26  1  0
 26 27  1  0
 27 28  1  0
 28 29  1  0
 29 30  1  0
 30 31  1  0
 31 32  1  0
 32 33  1  0
 26  2  1  0
 33 28  1  0
  9  3  1  0
 25 14  1  0
 24 19  1  0
  4 34  1  0
  5 35  1  0
  8 36  1  0
 12 37  1  0
 13 38  1  0
 15 39  1  0
 16 40  1  0
 17 41  1  0
 20 42  1  0
 20 43  1  0
 21 44  1  0
 21 45  1  0
 23 46  1  0
 23 47  1  0
 24 48  1  0
 24 49  1  0
 25 50  1  0
 27 51  1  0
 27 52  1  0
 28 53  1  0
 29 54  1  0
 29 55  1  0
 30 56  1  0
 30 57  1  0
 31 58  1  0
 31 59  1  0
 32 60  1  0
 32 61  1  0
 33 62  1  0
 33 63  1  0
M  END
>  <smiles>  (16) 
O=c1c2ccc(F)cc2nc(/C=C/c2cccc(N3CCOCC3)c2)n1CC1CCCCC1

>  <score_type>  (16) 
oracle

>  <origin>  (16) 
autodockgpu

>  <m_score__min__energy>  (16) 
-9.0299999999999994

>  <m_primary>  (16) 
energy

>  <rmsd>  (16) 
5.133242571854115

>  <m_score__min__rmsd>  (16) 
5.133242571854115

>  <meeko>  (16) 
{"free_energy": -8.48, "intermolecular_energy": -10.27, "internal_energy": -1.67, "cluster_size": 8, "cluster_id": 2, "rank_in_cluster": 3}

>  <energy>  (16) 
-8.21

>  <cluster_rmsd>  (16) 
0.41

>  <cluster>  (16) 
1

$$$$

     RDKit          3D

 63 67  0  0  0  0  0  0  0  0999 V2000
  138.9440   67.6720  225.4340 O   0  0  0  0  0  0  0  0  0  0  0  0
  139.3550   68.8150  225.1020 C   0  0  0  0  0  0  0  0  0  0  0  0
  139.9660   69.5750  226.0680 C   0  0  0  0  0  0  0  0  0  0  0  0
  140.1050   69.0590  227.3560 C   0  0  0  0  0  0  0  0  0  0  0  0
  140.7230   69.8380  228.3220 C   0  0  0  0  0  0  0  0  0  0  0  0
  141.1920   71.1070  227.9970 C   0  0  0  0  0  0  0  0  0  0  0  0
  141.8000   71.8840  228.9280 F   0  0  0  0  0  0  0  0  0  0  0  0
  141.0440   71.5960  226.7150 C   0  0  0  0  0  0  0  0  0  0  0  0
  140.4250   70.8280  225.7360 C   0  0  0  0  0  0  0  0  0  0  0  0
  140.2550   71.2540  224.4750 N   0  0  0  0  0  0  0  0  0  0  0  0
  139.6530   70.4800  223.5600 C   0  0  0  0  0  0  0  0  0  0  0  0
  139.5610   71.0220  222.2040 C   0  0  0  0  0  0  0  0  0  0  0  0
  139.2750   72.2910  221.9950 C   0  0  0  0  0  0  0  0  0  0  0  0
  140.2450   73.2990  221.5990 C   0  0  0  0  0  0  0  0  0  0  0  0
  140.0030   74.6550  221.6360 C   0  0  0  0  0  0  0  0  0  0  0  0
  140.9530   75.5950  221.2490 C   0  0  0  0  0  0  0  0  0  0  0  0
  142.1770   75.1510  220.8160 C   0  0  0  0  0  0  0  0  0  0  0  0
  142.4730   73.7860  220.7600 C   0  0  0  0  0  0  0  0  0  0  0  0
  143.7470   73.3470  220.3080 N   0  0  0  0  0  0  0  0  0  0  0  0
  144.9100   74.0860  220.7370 C   0  0  0  0  0  0  0  0  0  0  0  0
  146.2040   73.4130  220.4120 C   0  0  0  0  0  0  0  0  0  0  0  0
  146.1520   72.6820  219.2260 O   0  0  0  0  0  0  0  0  0  0  0  0
  145.2550   71.6330  219.4150 C   0  0  0  0  0  0  0  0  0  0  0  0
  143.8420   72.2000  219.4510 C   0  0  0  0  0  0  0  0  0  0  0  0
  141.4900   72.9050  221.1560 C   0  0  0  0  0  0  0  0  0  0  0  0
  139.1850   69.2560  223.8190 N   0  0  0  0  0  0  0  0  0  0  0  0
  138.4960   68.3910  222.9290 C   0  0  0  0  0  0  0  0  0  0  0  0
  137.0130   68.6050  222.7940 C   0  0  0  0  0  0  0  0  0  0  0  0
  136.4400   69.2520  223.9740 C   0  0  0  0  0  0  0  0  0  0  0  0
  136.4100   70.7610  223.9210 C   0  0  0  0  0  0  0  0  0  0  0  0
  135.5030   71.0710  222.7480 C   0  0  0  0  0  0  0  0  0  0  0  0
  136.2520   70.6610  221.5110 C   0  0  0  0  0  0  0  0  0  0  0  0
  136.7500   69.2580  221.4800 C   0  0  0  0  0  0  0  0  0  0  0  0
  139.7316   68.0537  227.6007 H   0  0  0  0  0  0  0  0  0  0  0  0
  140.8426   69.4529  229.3454 H   0  0  0  0  0  0  0  0  0  0  0  0
  141.4184   72.6000  226.4665 H   0  0  0  0  0  0  0  0  0  0  0  0
  139.7337   70.3583  221.3440 H   0  0  0  0  0  0  0  0  0  0  0  0
  138.2308   72.6097  222.1293 H   0  0  0  0  0  0  0  0  0  0  0  0
  139.0213   75.0078  221.9848 H   0  0  0  0  0  0  0  0  0  0  0  0
  140.7277   76.6709  221.2893 H   0  0  0  0  0  0  0  0  0  0  0  0
  142.9388   75.8821  220.5075 H   0  0  0  0  0  0  0  0  0  0  0  0
  144.8972   75.0697  220.2449 H   0  0  0  0  0  0  0  0  0  0  0  0
  144.8548   74.1636  221.8329 H   0  0  0  0  0  0  0  0  0  0  0  0
  146.9852   74.1815  220.3167 H   0  0  0  0  0  0  0  0  0  0  0  0
  146.4224   72.7064  221.2262 H   0  0  0  0  0  0  0  0  0  0  0  0
  145.3449   70.9152  218.5864 H   0  0  0  0  0  0  0  0  0  0  0  0
  145.4760   71.1164  220.3607 H   0  0  0  0  0  0  0  0  0  0  0  0
  143.5502   72.4927  218.4316 H   0  0  0  0  0  0  0  0  0  0  0  0
  143.1727   71.4222  219.8473 H   0  0  0  0  0  0  0  0  0  0  0  0
  141.7107   71.8281  221.1165 H   0  0  0  0  0  0  0  0  0  0  0  0
  138.9430   68.5138  221.9314 H   0  0  0  0  0  0  0  0  0  0  0  0
  138.6056   67.3848  223.3598 H   0  0  0  0  0  0  0  0  0  0  0  0
  136.4715   67.6477  222.7745 H   0  0  0  0  0  0  0  0  0  0  0  0
  135.4067   68.8938  224.0921 H   0  0  0  0  0  0  0  0  0  0  0  0
  137.0926   68.9862  224.8187 H   0  0  0  0  0  0  0  0  0  0  0  0
  135.9991   71.1765  224.8529 H   0  0  0  0  0  0  0  0  0  0  0  0
  137.4123   71.1997  223.8074 H   0  0  0  0  0  0  0  0  0  0  0  0
  134.5656   70.5014  222.8312 H   0  0  0  0  0  0  0  0  0  0  0  0
  135.2402   72.1388  222.7190 H   0  0  0  0  0  0  0  0  0  0  0  0
  135.5802   70.7980  220.6508 H   0  0  0  0  0  0  0  0  0  0  0  0
  137.1515   71.2938  221.4876 H   0  0  0  0  0  0  0  0  0  0  0  0
  135.9999   68.6510  220.9518 H   0  0  0  0  0  0  0  0  0  0  0  0
  137.7316   69.3137  220.9866 H   0  0  0  0  0  0  0  0  0  0  0  0
  1  2  2  0
  2  3  1  0
  3  4  2  0
  4  5  1  0
  5  6  2  0
  6  7  1  0
  6  8  1  0
  8  9  2  0
  9 10  1  0
 10 11  2  0
 11 12  1  0
 12 13  2  0
 13 14  1  0
 14 15  2  0
 15 16  1  0
 16 17  2  0
 17 18  1  0
 18 19  1  0
 19 20  1  0
 20 21  1  0
 21 22  1  0
 22 23  1  0
 23 24  1  0
 18 25  2  0
 11 26  1  0
 26 27  1  0
 27 28  1  0
 28 29  1  0
 29 30  1  0
 30 31  1  0
 31 32  1  0
 32 33  1  0
 26  2  1  0
 33 28  1  0
  9  3  1  0
 25 14  1  0
 24 19  1  0
  4 34  1  0
  5 35  1  0
  8 36  1  0
 12 37  1  0
 13 38  1  0
 15 39  1  0
 16 40  1  0
 17 41  1  0
 20 42  1  0
 20 43  1  0
 21 44  1  0
 21 45  1  0
 23 46  1  0
 23 47  1  0
 24 48  1  0
 24 49  1  0
 25 50  1  0
 27 51  1  0
 27 52  1  0
 28 53  1  0
 29 54  1  0
 29 55  1  0
 30 56  1  0
 30 57  1  0
 31 58  1  0
 31 59  1  0
 32 60  1  0
 32 61  1  0
 33 62  1  0
 33 63  1  0
M  END
>  <smiles>  (17) 
O=c1c2ccc(F)cc2nc(/C=C/c2cccc(N3CCOCC3)c2)n1CC1CCCCC1

>  <score_type>  (17) 
oracle

>  <origin>  (17) 
autodockgpu

>  <m_score__min__energy>  (17) 
-9.0299999999999994

>  <m_primary>  (17) 
energy

>  <rmsd>  (17) 
11.439398741879103

>  <m_score__min__rmsd>  (17) 
11.439398741879103

>  <meeko>  (17) 
{"free_energy": -8.97, "intermolecular_energy": -10.76, "internal_energy": -1.99, "cluster_size": 18, "cluster_id": 1, "rank_in_cluster": 4}

>  <energy>  (17) 
-8.2

>  <cluster_rmsd>  (17) 
0.92

>  <cluster>  (17) 
1

$$$$

     RDKit          3D

 63 67  0  0  0  0  0  0  0  0999 V2000
  139.9290   83.2810  219.9360 O   0  0  0  0  0  0  0  0  0  0  0  0
  140.7600   82.4110  219.5640 C   0  0  0  0  0  0  0  0  0  0  0  0
  141.6230   82.7500  218.5520 C   0  0  0  0  0  0  0  0  0  0  0  0
  141.5450   84.0230  217.9860 C   0  0  0  0  0  0  0  0  0  0  0  0
  142.4220   84.3520  216.9640 C   0  0  0  0  0  0  0  0  0  0  0  0
  143.3570   83.4190  216.5230 C   0  0  0  0  0  0  0  0  0  0  0  0
  144.2240   83.7220  215.5240 F   0  0  0  0  0  0  0  0  0  0  0  0
  143.4160   82.1670  217.0980 C   0  0  0  0  0  0  0  0  0  0  0  0
  142.5420   81.8210  218.1230 C   0  0  0  0  0  0  0  0  0  0  0  0
  142.5560   80.6190  218.7170 N   0  0  0  0  0  0  0  0  0  0  0  0
  141.6960   80.3270  219.7040 C   0  0  0  0  0  0  0  0  0  0  0  0
  141.8260   79.0040  220.3150 C   0  0  0  0  0  0  0  0  0  0  0  0
  141.3960   77.9220  219.6970 C   0  0  0  0  0  0  0  0  0  0  0  0
  141.4990   76.5730  220.2290 C   0  0  0  0  0  0  0  0  0  0  0  0
  140.5290   75.9780  221.0050 C   0  0  0  0  0  0  0  0  0  0  0  0
  140.6570   74.6840  221.5010 C   0  0  0  0  0  0  0  0  0  0  0  0
  141.7960   73.9770  221.2030 C   0  0  0  0  0  0  0  0  0  0  0  0
  142.8090   74.5360  220.4190 C   0  0  0  0  0  0  0  0  0  0  0  0
  143.9800   73.7870  220.1220 N   0  0  0  0  0  0  0  0  0  0  0  0
  145.2060   74.1510  220.7910 C   0  0  0  0  0  0  0  0  0  0  0  0
  146.3130   73.1650  220.5980 C   0  0  0  0  0  0  0  0  0  0  0  0
  146.2730   72.5420  219.3510 O   0  0  0  0  0  0  0  0  0  0  0  0
  145.1110   71.7740  219.2990 C   0  0  0  0  0  0  0  0  0  0  0  0
  143.9140   72.7070  219.1790 C   0  0  0  0  0  0  0  0  0  0  0  0
  142.6230   75.8210  219.9590 C   0  0  0  0  0  0  0  0  0  0  0  0
  140.7800   81.1830  220.1640 N   0  0  0  0  0  0  0  0  0  0  0  0
  139.8040   80.9440  221.1670 C   0  0  0  0  0  0  0  0  0  0  0  0
  140.2650   81.0580  222.5950 C   0  0  0  0  0  0  0  0  0  0  0  0
  139.9450   79.8620  223.3750 C   0  0  0  0  0  0  0  0  0  0  0  0
  141.0160   78.7990  223.3770 C   0  0  0  0  0  0  0  0  0  0  0  0
  142.2010   79.4700  224.0400 C   0  0  0  0  0  0  0  0  0  0  0  0
  142.6980   80.5090  223.0750 C   0  0  0  0  0  0  0  0  0  0  0  0
  141.6910   81.4950  222.5970 C   0  0  0  0  0  0  0  0  0  0  0  0
  140.8022   84.7512  218.3437 H   0  0  0  0  0  0  0  0  0  0  0  0
  142.3793   85.3493  216.5018 H   0  0  0  0  0  0  0  0  0  0  0  0
  144.1590   81.4374  216.7437 H   0  0  0  0  0  0  0  0  0  0  0  0
  142.2908   78.9106  221.3076 H   0  0  0  0  0  0  0  0  0  0  0  0
  140.9266   78.0486  218.7103 H   0  0  0  0  0  0  0  0  0  0  0  0
  139.6182   76.5475  221.2418 H   0  0  0  0  0  0  0  0  0  0  0  0
  139.8634   74.2374  222.1181 H   0  0  0  0  0  0  0  0  0  0  0  0
  141.9130   72.9532  221.5879 H   0  0  0  0  0  0  0  0  0  0  0  0
  145.5373   75.1253  220.4024 H   0  0  0  0  0  0  0  0  0  0  0  0
  144.9869   74.1807  221.8686 H   0  0  0  0  0  0  0  0  0  0  0  0
  147.2736   73.6919  220.6966 H   0  0  0  0  0  0  0  0  0  0  0  0
  146.1953   72.3825  221.3621 H   0  0  0  0  0  0  0  0  0  0  0  0
  145.1480   71.1054  218.4263 H   0  0  0  0  0  0  0  0  0  0  0  0
  145.0224   71.1663  220.2116 H   0  0  0  0  0  0  0  0  0  0  0  0
  143.8892   73.1244  218.1616 H   0  0  0  0  0  0  0  0  0  0  0  0
  143.0054   72.1245  219.3912 H   0  0  0  0  0  0  0  0  0  0  0  0
  143.4145   76.2721  219.3425 H   0  0  0  0  0  0  0  0  0  0  0  0
  138.9897   81.6688  221.0201 H   0  0  0  0  0  0  0  0  0  0  0  0
  139.5086   79.8920  221.0402 H   0  0  0  0  0  0  0  0  0  0  0  0
  139.7053   81.8371  223.1332 H   0  0  0  0  0  0  0  0  0  0  0  0
  139.7677   80.1703  224.4159 H   0  0  0  0  0  0  0  0  0  0  0  0
  139.0628   79.4099  222.8983 H   0  0  0  0  0  0  0  0  0  0  0  0
  140.6924   77.9197  223.9532 H   0  0  0  0  0  0  0  0  0  0  0  0
  141.2492   78.4327  222.3663 H   0  0  0  0  0  0  0  0  0  0  0  0
  141.8906   79.9444  224.9826 H   0  0  0  0  0  0  0  0  0  0  0  0
  142.9886   78.7404  224.2794 H   0  0  0  0  0  0  0  0  0  0  0  0
  143.5064   81.0674  223.5696 H   0  0  0  0  0  0  0  0  0  0  0  0
  143.0144   79.9531  222.1801 H   0  0  0  0  0  0  0  0  0  0  0  0
  141.7650   82.3839  223.2408 H   0  0  0  0  0  0  0  0  0  0  0  0
  141.9389   81.6674  221.5393 H   0  0  0  0  0  0  0  0  0  0  0  0
  1  2  2  0
  2  3  1  0
  3  4  2  0
  4  5  1  0
  5  6  2  0
  6  7  1  0
  6  8  1  0
  8  9  2  0
  9 10  1  0
 10 11  2  0
 11 12  1  0
 12 13  2  0
 13 14  1  0
 14 15  2  0
 15 16  1  0
 16 17  2  0
 17 18  1  0
 18 19  1  0
 19 20  1  0
 20 21  1  0
 21 22  1  0
 22 23  1  0
 23 24  1  0
 18 25  2  0
 11 26  1  0
 26 27  1  0
 27 28  1  0
 28 29  1  0
 29 30  1  0
 30 31  1  0
 31 32  1  0
 32 33  1  0
 26  2  1  0
 33 28  1  0
  9  3  1  0
 25 14  1  0
 24 19  1  0
  4 34  1  0
  5 35  1  0
  8 36  1  0
 12 37  1  0
 13 38  1  0
 15 39  1  0
 16 40  1  0
 17 41  1  0
 20 42  1  0
 20 43  1  0
 21 44  1  0
 21 45  1  0
 23 46  1  0
 23 47  1  0
 24 48  1  0
 24 49  1  0
 25 50  1  0
 27 51  1  0
 27 52  1  0
 28 53  1  0
 29 54  1  0
 29 55  1  0
 30 56  1  0
 30 57  1  0
 31 58  1  0
 31 59  1  0
 32 60  1  0
 32 61  1  0
 33 62  1  0
 33 63  1  0
M  END
>  <smiles>  (18) 
O=c1c2ccc(F)cc2nc(/C=C/c2cccc(N3CCOCC3)c2)n1CC1CCCCC1

>  <score_type>  (18) 
oracle

>  <origin>  (18) 
autodockgpu

>  <m_score__min__energy>  (18) 
-9.0299999999999994

>  <m_primary>  (18) 
energy

>  <rmsd>  (18) 
6.029042656380456

>  <m_score__min__rmsd>  (18) 
6.029042656380456

>  <meeko>  (18) 
{"free_energy": -8.16, "intermolecular_energy": -9.95, "internal_energy": -1.87, "cluster_size": 3, "cluster_id": 5, "rank_in_cluster": 1}

>  <energy>  (18) 
-8.19

>  <cluster_rmsd>  (18) 
0.83

>  <cluster>  (18) 
1

$$$$

     RDKit          3D

 63 67  0  0  0  0  0  0  0  0999 V2000
  138.9740   67.7180  225.4370 O   0  0  0  0  0  0  0  0  0  0  0  0
  139.3470   68.8380  224.9990 C   0  0  0  0  0  0  0  0  0  0  0  0
  139.9660   69.6900  225.8800 C   0  0  0  0  0  0  0  0  0  0  0  0
  140.1530   69.2870  227.2020 C   0  0  0  0  0  0  0  0  0  0  0  0
  140.7780   70.1580  228.0810 C   0  0  0  0  0  0  0  0  0  0  0  0
  141.2060   71.4060  227.6370 C   0  0  0  0  0  0  0  0  0  0  0  0
  141.8190   72.2720  228.4830 F   0  0  0  0  0  0  0  0  0  0  0  0
  141.0100   71.7820  226.3240 C   0  0  0  0  0  0  0  0  0  0  0  0
  140.3840   70.9210  225.4310 C   0  0  0  0  0  0  0  0  0  0  0  0
  140.1680   71.2360  224.1460 N   0  0  0  0  0  0  0  0  0  0  0  0
  139.5610   70.3740  223.3160 C   0  0  0  0  0  0  0  0  0  0  0  0
  139.4170   70.7980  221.9230 C   0  0  0  0  0  0  0  0  0  0  0  0
  139.1760   72.0570  221.6150 C   0  0  0  0  0  0  0  0  0  0  0  0
  140.2010   73.0710  221.4320 C   0  0  0  0  0  0  0  0  0  0  0  0
  140.0110   74.4110  221.6910 C   0  0  0  0  0  0  0  0  0  0  0  0
  141.0130   75.3580  221.5060 C   0  0  0  0  0  0  0  0  0  0  0  0
  142.2370   74.9370  221.0460 C   0  0  0  0  0  0  0  0  0  0  0  0
  142.4810   73.5890  220.7690 C   0  0  0  0  0  0  0  0  0  0  0  0
  143.7550   73.1740  220.2940 N   0  0  0  0  0  0  0  0  0  0  0  0
  143.7990   72.1760  219.2530 C   0  0  0  0  0  0  0  0  0  0  0  0
  145.1570   71.9840  218.6600 C   0  0  0  0  0  0  0  0  0  0  0  0
  146.1840   72.1800  219.5820 O   0  0  0  0  0  0  0  0  0  0  0  0
  146.1590   73.5190  219.9660 C   0  0  0  0  0  0  0  0  0  0  0  0
  144.9450   73.7490  220.8540 C   0  0  0  0  0  0  0  0  0  0  0  0
  141.4480   72.7000  220.9730 C   0  0  0  0  0  0  0  0  0  0  0  0
  139.1300   69.1660  223.6900 N   0  0  0  0  0  0  0  0  0  0  0  0
  138.4400   68.2140  222.8950 C   0  0  0  0  0  0  0  0  0  0  0  0
  136.9510   68.3940  222.7700 C   0  0  0  0  0  0  0  0  0  0  0  0
  136.3780   69.0690  223.9350 C   0  0  0  0  0  0  0  0  0  0  0  0
  136.3170   70.5740  223.8310 C   0  0  0  0  0  0  0  0  0  0  0  0
  135.3920   70.8270  222.6590 C   0  0  0  0  0  0  0  0  0  0  0  0
  136.1350   70.3900  221.4280 C   0  0  0  0  0  0  0  0  0  0  0  0
  136.6600   68.9980  221.4380 C   0  0  0  0  0  0  0  0  0  0  0  0
  139.8114   68.2977  227.5405 H   0  0  0  0  0  0  0  0  0  0  0  0
  140.9357   69.8630  229.1289 H   0  0  0  0  0  0  0  0  0  0  0  0
  141.3516   72.7701  225.9819 H   0  0  0  0  0  0  0  0  0  0  0  0
  139.5115   70.0534  221.1189 H   0  0  0  0  0  0  0  0  0  0  0  0
  138.1265   72.3611  221.4877 H   0  0  0  0  0  0  0  0  0  0  0  0
  139.0292   74.7447  222.0581 H   0  0  0  0  0  0  0  0  0  0  0  0
  140.8293   76.4206  221.7233 H   0  0  0  0  0  0  0  0  0  0  0  0
  143.0393   75.6738  220.8930 H   0  0  0  0  0  0  0  0  0  0  0  0
  143.4669   71.2170  219.6774 H   0  0  0  0  0  0  0  0  0  0  0  0
  143.1423   72.5275  218.4436 H   0  0  0  0  0  0  0  0  0  0  0  0
  145.2274   70.9583  218.2689 H   0  0  0  0  0  0  0  0  0  0  0  0
  145.2793   72.7344  217.8651 H   0  0  0  0  0  0  0  0  0  0  0  0
  147.0762   73.7617  220.5227 H   0  0  0  0  0  0  0  0  0  0  0  0
  146.1001   74.1631  219.0763 H   0  0  0  0  0  0  0  0  0  0  0  0
  145.1319   73.2922  221.8371 H   0  0  0  0  0  0  0  0  0  0  0  0
  144.7893   74.8342  220.9438 H   0  0  0  0  0  0  0  0  0  0  0  0
  141.6275   71.6362  220.7581 H   0  0  0  0  0  0  0  0  0  0  0  0
  138.8672   68.2525  221.8821 H   0  0  0  0  0  0  0  0  0  0  0  0
  138.5738   67.2524  223.4120 H   0  0  0  0  0  0  0  0  0  0  0  0
  136.4290   67.4259  222.7882 H   0  0  0  0  0  0  0  0  0  0  0  0
  135.3536   68.6945  224.0774 H   0  0  0  0  0  0  0  0  0  0  0  0
  137.0449   68.8448  224.7806 H   0  0  0  0  0  0  0  0  0  0  0  0
  135.9078   71.0127  224.7530 H   0  0  0  0  0  0  0  0  0  0  0  0
  137.3092   71.0277  223.6908 H   0  0  0  0  0  0  0  0  0  0  0  0
  134.4667   70.2429  222.7720 H   0  0  0  0  0  0  0  0  0  0  0  0
  135.1086   71.8881  222.5973 H   0  0  0  0  0  0  0  0  0  0  0  0
  135.4511   70.4847  220.5717 H   0  0  0  0  0  0  0  0  0  0  0  0
  137.0215   71.0389  221.3729 H   0  0  0  0  0  0  0  0  0  0  0  0
  135.9162   68.3592  220.9393 H   0  0  0  0  0  0  0  0  0  0  0  0
  137.6348   69.0566  220.9317 H   0  0  0  0  0  0  0  0  0  0  0  0
  1  2  2  0
  2  3  1  0
  3  4  2  0
  4  5  1  0
  5  6  2  0
  6  7  1  0
  6  8  1  0
  8  9  2  0
  9 10  1  0
 10 11  2  0
 11 12  1  0
 12 13  2  0
 13 14  1  0
 14 15  2  0
 15 16  1  0
 16 17  2  0
 17 18  1  0
 18 19  1  0
 19 20  1  0
 20 21  1  0
 21 22  1  0
 22 23  1  0
 23 24  1  0
 18 25  2  0
 11 26  1  0
 26 27  1  0
 27 28  1  0
 28 29  1  0
 29 30  1  0
 30 31  1  0
 31 32  1  0
 32 33  1  0
 26  2  1  0
 33 28  1  0
  9  3  1  0
 25 14  1  0
 24 19  1  0
  4 34  1  0
  5 35  1  0
  8 36  1  0
 12 37  1  0
 13 38  1  0
 15 39  1  0
 16 40  1  0
 17 41  1  0
 20 42  1  0
 20 43  1  0
 21 44  1  0
 21 45  1  0
 23 46  1  0
 23 47  1  0
 24 48  1  0
 24 49  1  0
 25 50  1  0
 27 51  1  0
 27 52  1  0
 28 53  1  0
 29 54  1  0
 29 55  1  0
 30 56  1  0
 30 57  1  0
 31 58  1  0
 31 59  1  0
 32 60  1  0
 32 61  1  0
 33 62  1  0
 33 63  1  0
M  END
>  <smiles>  (19) 
O=c1c2ccc(F)cc2nc(/C=C/c2cccc(N3CCOCC3)c2)n1CC1CCCCC1

>  <score_type>  (19) 
oracle

>  <origin>  (19) 
autodockgpu

>  <m_score__min__energy>  (19) 
-9.0299999999999994

>  <m_primary>  (19) 
energy

>  <rmsd>  (19) 
11.342119766753239

>  <m_score__min__rmsd>  (19) 
11.342119766753239

>  <meeko>  (19) 
{"free_energy": -8.21, "intermolecular_energy": -10.0, "internal_energy": -2.06, "cluster_size": 18, "cluster_id": 1, "rank_in_cluster": 16}

>  <energy>  (19) 
-8.61

>  <cluster_rmsd>  (19) 
0.0

>  <cluster>  (19) 
2

$$$$

     RDKit          3D

 63 67  0  0  0  0  0  0  0  0999 V2000
  139.0780   67.7820  225.2640 O   0  0  0  0  0  0  0  0  0  0  0  0
  139.4530   68.9620  225.0380 C   0  0  0  0  0  0  0  0  0  0  0  0
  140.0320   69.6540  226.0720 C   0  0  0  0  0  0  0  0  0  0  0  0
  140.1780   69.0310  227.3120 C   0  0  0  0  0  0  0  0  0  0  0  0
  140.7640   69.7410  228.3480 C   0  0  0  0  0  0  0  0  0  0  0  0
  141.1940   71.0490  228.1400 C   0  0  0  0  0  0  0  0  0  0  0  0
  141.7690   71.7600  229.1420 F   0  0  0  0  0  0  0  0  0  0  0  0
  141.0390   71.6440  226.9050 C   0  0  0  0  0  0  0  0  0  0  0  0
  140.4530   70.9450  225.8560 C   0  0  0  0  0  0  0  0  0  0  0  0
  140.2780   71.4740  224.6360 N   0  0  0  0  0  0  0  0  0  0  0  0
  139.7080   70.7650  223.6500 C   0  0  0  0  0  0  0  0  0  0  0  0
  139.6080   71.4210  222.3460 C   0  0  0  0  0  0  0  0  0  0  0  0
  139.4030   72.7190  222.2490 C   0  0  0  0  0  0  0  0  0  0  0  0
  140.3430   73.6600  221.6620 C   0  0  0  0  0  0  0  0  0  0  0  0
  140.1060   75.0120  221.5490 C   0  0  0  0  0  0  0  0  0  0  0  0
  141.0260   75.8880  220.9810 C   0  0  0  0  0  0  0  0  0  0  0  0
  142.2140   75.3800  220.5160 C   0  0  0  0  0  0  0  0  0  0  0  0
  142.5030   74.0150  220.6070 C   0  0  0  0  0  0  0  0  0  0  0  0
  143.7390   73.5100  220.1200 N   0  0  0  0  0  0  0  0  0  0  0  0
  143.7580   72.9180  218.8040 C   0  0  0  0  0  0  0  0  0  0  0  0
  145.1330   72.6390  218.2900 C   0  0  0  0  0  0  0  0  0  0  0  0
  146.0310   72.2970  219.3000 O   0  0  0  0  0  0  0  0  0  0  0  0
  146.1880   73.4120  220.1220 C   0  0  0  0  0  0  0  0  0  0  0  0
  144.9160   73.6000  220.9370 C   0  0  0  0  0  0  0  0  0  0  0  0
  141.5510   73.2000  221.1800 C   0  0  0  0  0  0  0  0  0  0  0  0
  139.2780   69.5090  223.7970 N   0  0  0  0  0  0  0  0  0  0  0  0
  138.6250   68.7040  222.8270 C   0  0  0  0  0  0  0  0  0  0  0  0
  137.1350   68.8690  222.7080 C   0  0  0  0  0  0  0  0  0  0  0  0
  136.5220   69.2710  223.9740 C   0  0  0  0  0  0  0  0  0  0  0  0
  136.4190   70.7620  224.1860 C   0  0  0  0  0  0  0  0  0  0  0  0
  135.5070   71.2310  223.0720 C   0  0  0  0  0  0  0  0  0  0  0  0
  136.2840   71.0810  221.7940 C   0  0  0  0  0  0  0  0  0  0  0  0
  136.8490   69.7310  221.5250 C   0  0  0  0  0  0  0  0  0  0  0  0
  139.8348   67.9970  227.4642 H   0  0  0  0  0  0  0  0  0  0  0  0
  140.8895   69.2712  229.3347 H   0  0  0  0  0  0  0  0  0  0  0  0
  141.3812   72.6778  226.7494 H   0  0  0  0  0  0  0  0  0  0  0  0
  139.7057   70.8197  221.4301 H   0  0  0  0  0  0  0  0  0  0  0  0
  138.4551   73.1182  222.6391 H   0  0  0  0  0  0  0  0  0  0  0  0
  139.1528   75.4148  221.9221 H   0  0  0  0  0  0  0  0  0  0  0  0
  140.8065   76.9633  220.9062 H   0  0  0  0  0  0  0  0  0  0  0  0
  142.9517   76.0592  220.0637 H   0  0  0  0  0  0  0  0  0  0  0  0
  143.2025   71.9693  218.8420 H   0  0  0  0  0  0  0  0  0  0  0  0
  143.3001   73.6457  218.1178 H   0  0  0  0  0  0  0  0  0  0  0  0
  145.0774   71.8065  217.5731 H   0  0  0  0  0  0  0  0  0  0  0  0
  145.5025   73.5616  217.8184 H   0  0  0  0  0  0  0  0  0  0  0  0
  147.0414   73.2561  220.7983 H   0  0  0  0  0  0  0  0  0  0  0  0
  146.3764   74.3060  219.5093 H   0  0  0  0  0  0  0  0  0  0  0  0
  144.8716   72.8205  221.7119 H   0  0  0  0  0  0  0  0  0  0  0  0
  144.9437   74.6039  221.3858 H   0  0  0  0  0  0  0  0  0  0  0  0
  141.7660   72.1240  221.2573 H   0  0  0  0  0  0  0  0  0  0  0  0
  139.0661   68.9385  221.8470 H   0  0  0  0  0  0  0  0  0  0  0  0
  138.7763   67.6670  223.1612 H   0  0  0  0  0  0  0  0  0  0  0  0
  136.6421   67.9054  222.5117 H   0  0  0  0  0  0  0  0  0  0  0  0
  135.5065   68.8498  224.0107 H   0  0  0  0  0  0  0  0  0  0  0  0
  137.1803   68.8914  224.7693 H   0  0  0  0  0  0  0  0  0  0  0  0
  135.9815   70.9873  225.1698 H   0  0  0  0  0  0  0  0  0  0  0  0
  137.3996   71.2600  224.1668 H   0  0  0  0  0  0  0  0  0  0  0  0
  134.5979   70.6125  223.0391 H   0  0  0  0  0  0  0  0  0  0  0  0
  135.1928   72.2737  223.2270 H   0  0  0  0  0  0  0  0  0  0  0  0
  135.6127   71.3363  220.9608 H   0  0  0  0  0  0  0  0  0  0  0  0
  137.1519   71.7491  221.8962 H   0  0  0  0  0  0  0  0  0  0  0  0
  136.1326   69.1924  220.8873 H   0  0  0  0  0  0  0  0  0  0  0  0
  137.8300   69.9184  221.0641 H   0  0  0  0  0  0  0  0  0  0  0  0
  1  2  2  0
  2  3  1  0
  3  4  2  0
  4  5  1  0
  5  6  2  0
  6  7  1  0
  6  8  1  0
  8  9  2  0
  9 10  1  0
 10 11  2  0
 11 12  1  0
 12 13  2  0
 13 14  1  0
 14 15  2  0
 15 16  1  0
 16 17  2  0
 17 18  1  0
 18 19  1  0
 19 20  1  0
 20 21  1  0
 21 22  1  0
 22 23  1  0
 23 24  1  0
 18 25  2  0
 11 26  1  0
 26 27  1  0
 27 28  1  0
 28 29  1  0
 29 30  1  0
 30 31  1  0
 31 32  1  0
 32 33  1  0
 26  2  1  0
 33 28  1  0
  9  3  1  0
 25 14  1  0
 24 19  1  0
  4 34  1  0
  5 35  1  0
  8 36  1  0
 12 37  1  0
 13 38  1  0
 15 39  1  0
 16 40  1  0
 17 41  1  0
 20 42  1  0
 20 43  1  0
 21 44  1  0
 21 45  1  0
 23 46  1  0
 23 47  1  0
 24 48  1  0
 24 49  1  0
 25 50  1  0
 27 51  1  0
 27 52  1  0
 28 53  1  0
 29 54  1  0
 29 55  1  0
 30 56  1  0
 30 57  1  0
 31 58  1  0
 31 59  1  0
 32 60  1  0
 32 61  1  0
 33 62  1  0
 33 63  1  0
M  END
>  <smiles>  (20) 
O=c1c2ccc(F)cc2nc(/C=C/c2cccc(N3CCOCC3)c2)n1CC1CCCCC1

>  <score_type>  (20) 
oracle

>  <origin>  (20) 
autodockgpu

>  <m_score__min__energy>  (20) 
-9.0299999999999994

>  <m_primary>  (20) 
energy

>  <rmsd>  (20) 
11.42972992965365

>  <m_score__min__rmsd>  (20) 
11.42972992965365

>  <meeko>  (20) 
{"free_energy": -8.75, "intermolecular_energy": -10.54, "internal_energy": -1.94, "cluster_size": 18, "cluster_id": 1, "rank_in_cluster": 7}

>  <energy>  (20) 
-8.52

>  <cluster_rmsd>  (20) 
0.63

>  <cluster>  (20) 
2

$$$$

     RDKit          3D

 63 67  0  0  0  0  0  0  0  0999 V2000
  138.6600   68.4580  224.6360 O   0  0  0  0  0  0  0  0  0  0  0  0
  139.2770   69.5420  224.4680 C   0  0  0  0  0  0  0  0  0  0  0  0
  139.8580   70.1200  225.5690 C   0  0  0  0  0  0  0  0  0  0  0  0
  139.7410   69.4930  226.8100 C   0  0  0  0  0  0  0  0  0  0  0  0
  140.3310   70.0880  227.9140 C   0  0  0  0  0  0  0  0  0  0  0  0
  141.0230   71.2880  227.7720 C   0  0  0  0  0  0  0  0  0  0  0  0
  141.6070   71.8850  228.8410 F   0  0  0  0  0  0  0  0  0  0  0  0
  141.1260   71.8890  226.5340 C   0  0  0  0  0  0  0  0  0  0  0  0
  140.5390   71.3050  225.4170 C   0  0  0  0  0  0  0  0  0  0  0  0
  140.6080   71.8460  224.1920 N   0  0  0  0  0  0  0  0  0  0  0  0
  140.0280   71.2500  223.1400 C   0  0  0  0  0  0  0  0  0  0  0  0
  140.2030   71.8990  221.8400 C   0  0  0  0  0  0  0  0  0  0  0  0
  140.7090   73.1130  221.7480 C   0  0  0  0  0  0  0  0  0  0  0  0
  139.9520   74.3380  221.9450 C   0  0  0  0  0  0  0  0  0  0  0  0
  138.5830   74.3780  222.1000 C   0  0  0  0  0  0  0  0  0  0  0  0
  137.8860   75.5680  222.2860 C   0  0  0  0  0  0  0  0  0  0  0  0
  138.5930   76.7450  222.3150 C   0  0  0  0  0  0  0  0  0  0  0  0
  139.9830   76.7570  222.1620 C   0  0  0  0  0  0  0  0  0  0  0  0
  140.6960   77.9870  222.1950 N   0  0  0  0  0  0  0  0  0  0  0  0
  141.3880   78.3370  223.4130 C   0  0  0  0  0  0  0  0  0  0  0  0
  142.2960   79.5150  223.2710 C   0  0  0  0  0  0  0  0  0  0  0  0
  141.8250   80.4560  222.3560 O   0  0  0  0  0  0  0  0  0  0  0  0
  141.8310   79.8610  221.0970 C   0  0  0  0  0  0  0  0  0  0  0  0
  140.7090   78.8340  221.0360 C   0  0  0  0  0  0  0  0  0  0  0  0
  140.6150   75.5460  221.9810 C   0  0  0  0  0  0  0  0  0  0  0  0
  139.3510   70.1000  223.2220 N   0  0  0  0  0  0  0  0  0  0  0  0
  138.6700   69.4260  222.1750 C   0  0  0  0  0  0  0  0  0  0  0  0
  137.2110   69.7500  222.0020 C   0  0  0  0  0  0  0  0  0  0  0  0
  136.5960   70.2050  223.2500 C   0  0  0  0  0  0  0  0  0  0  0  0
  136.6450   71.6970  223.4760 C   0  0  0  0  0  0  0  0  0  0  0  0
  135.8310   72.2700  222.3340 C   0  0  0  0  0  0  0  0  0  0  0  0
  136.6360   72.0470  221.0840 C   0  0  0  0  0  0  0  0  0  0  0  0
  137.0650   70.6470  220.8200 C   0  0  0  0  0  0  0  0  0  0  0  0
  139.1915   68.5454  226.9101 H   0  0  0  0  0  0  0  0  0  0  0  0
  140.2526   69.6122  228.9026 H   0  0  0  0  0  0  0  0  0  0  0  0
  141.6760   72.8360  226.4302 H   0  0  0  0  0  0  0  0  0  0  0  0
  139.9075   71.3652  220.9247 H   0  0  0  0  0  0  0  0  0  0  0  0
  141.7779   73.2051  221.5054 H   0  0  0  0  0  0  0  0  0  0  0  0
  138.0200   73.4333  222.0758 H   0  0  0  0  0  0  0  0  0  0  0  0
  136.7927   75.5660  222.4071 H   0  0  0  0  0  0  0  0  0  0  0  0
  138.0569   77.6943  222.4611 H   0  0  0  0  0  0  0  0  0  0  0  0
  140.6383   78.5674  224.1843 H   0  0  0  0  0  0  0  0  0  0  0  0
  142.0178   77.4766  223.6833 H   0  0  0  0  0  0  0  0  0  0  0  0
  142.3974   80.0004  224.2529 H   0  0  0  0  0  0  0  0  0  0  0  0
  143.2614   79.1444  222.8959 H   0  0  0  0  0  0  0  0  0  0  0  0
  141.6728   80.6280  220.3246 H   0  0  0  0  0  0  0  0  0  0  0  0
  142.7988   79.3690  220.9201 H   0  0  0  0  0  0  0  0  0  0  0  0
  139.7464   79.3622  220.9706 H   0  0  0  0  0  0  0  0  0  0  0  0
  140.8741   78.2004  220.1521 H   0  0  0  0  0  0  0  0  0  0  0  0
  141.7082   75.5431  221.8586 H   0  0  0  0  0  0  0  0  0  0  0  0
  139.1805   69.6721  221.2322 H   0  0  0  0  0  0  0  0  0  0  0  0
  138.7001   68.3609  222.4481 H   0  0  0  0  0  0  0  0  0  0  0  0
  136.6257   68.8466  221.7755 H   0  0  0  0  0  0  0  0  0  0  0  0
  135.5406   69.8949  223.2437 H   0  0  0  0  0  0  0  0  0  0  0  0
  137.1787   69.7503  224.0647 H   0  0  0  0  0  0  0  0  0  0  0  0
  136.1970   71.9601  224.4455 H   0  0  0  0  0  0  0  0  0  0  0  0
  137.6732   72.0872  223.4992 H   0  0  0  0  0  0  0  0  0  0  0  0
  134.8629   71.7529  222.2602 H   0  0  0  0  0  0  0  0  0  0  0  0
  135.6243   73.3392  222.4893 H   0  0  0  0  0  0  0  0  0  0  0  0
  136.0277   72.3784  220.2295 H   0  0  0  0  0  0  0  0  0  0  0  0
  137.5654   72.6178  221.2267 H   0  0  0  0  0  0  0  0  0  0  0  0
  136.3213   70.1930  220.1486 H   0  0  0  0  0  0  0  0  0  0  0  0
  138.0778   70.7328  220.3994 H   0  0  0  0  0  0  0  0  0  0  0  0
  1  2  2  0
  2  3  1  0
  3  4  2  0
  4  5  1  0
  5  6  2  0
  6  7  1  0
  6  8  1  0
  8  9  2  0
  9 10  1  0
 10 11  2  0
 11 12  1  0
 12 13  2  0
 13 14  1  0
 14 15  2  0
 15 16  1  0
 16 17  2  0
 17 18  1  0
 18 19  1  0
 19 20  1  0
 20 21  1  0
 21 22  1  0
 22 23  1  0
 23 24  1  0
 18 25  2  0
 11 26  1  0
 26 27  1  0
 27 28  1  0
 28 29  1  0
 29 30  1  0
 30 31  1  0
 31 32  1  0
 32 33  1  0
 26  2  1  0
 33 28  1  0
  9  3  1  0
 25 14  1  0
 24 19  1  0
  4 34  1  0
  5 35  1  0
  8 36  1  0
 12 37  1  0
 13 38  1  0
 15 39  1  0
 16 40  1  0
 17 41  1  0
 20 42  1  0
 20 43  1  0
 21 44  1  0
 21 45  1  0
 23 46  1  0
 23 47  1  0
 24 48  1  0
 24 49  1  0
 25 50  1  0
 27 51  1  0
 27 52  1  0
 28 53  1  0
 29 54  1  0
 29 55  1  0
 30 56  1  0
 30 57  1  0
 31 58  1  0
 31 59  1  0
 32 60  1  0
 32 61  1  0
 33 62  1  0
 33 63  1  0
M  END
>  <smiles>  (21) 
O=c1c2ccc(F)cc2nc(/C=C/c2cccc(N3CCOCC3)c2)n1CC1CCCCC1

>  <score_type>  (21) 
oracle

>  <origin>  (21) 
autodockgpu

>  <m_score__min__energy>  (21) 
-9.0299999999999994

>  <m_primary>  (21) 
energy

>  <rmsd>  (21) 
10.711802821710842

>  <m_score__min__rmsd>  (21) 
10.711802821710842

>  <meeko>  (21) 
{"free_energy": -7.81, "intermolecular_energy": -9.6, "internal_energy": -2.28, "cluster_size": 15, "cluster_id": 3, "rank_in_cluster": 15}

>  <energy>  (21) 
-8.48

>  <cluster_rmsd>  (21) 
0.54

>  <cluster>  (21) 
2

$$$$

     RDKit          3D

 63 67  0  0  0  0  0  0  0  0999 V2000
  138.3080   80.6910  223.7130 O   0  0  0  0  0  0  0  0  0  0  0  0
  139.0830   79.7520  223.3930 C   0  0  0  0  0  0  0  0  0  0  0  0
  140.4320   80.0000  223.4340 C   0  0  0  0  0  0  0  0  0  0  0  0
  140.8820   81.2630  223.8200 C   0  0  0  0  0  0  0  0  0  0  0  0
  142.2470   81.5010  223.8560 C   0  0  0  0  0  0  0  0  0  0  0  0
  143.1390   80.4900  223.5100 C   0  0  0  0  0  0  0  0  0  0  0  0
  144.4780   80.7040  223.5390 F   0  0  0  0  0  0  0  0  0  0  0  0
  142.6700   79.2480  223.1320 C   0  0  0  0  0  0  0  0  0  0  0  0
  141.3040   78.9940  223.0900 C   0  0  0  0  0  0  0  0  0  0  0  0
  140.7950   77.8070  222.7300 N   0  0  0  0  0  0  0  0  0  0  0  0
  139.4690   77.6030  222.7030 C   0  0  0  0  0  0  0  0  0  0  0  0
  139.0210   76.2580  222.3410 C   0  0  0  0  0  0  0  0  0  0  0  0
  139.8590   75.3730  221.8380 C   0  0  0  0  0  0  0  0  0  0  0  0
  140.8950   75.6800  220.8660 C   0  0  0  0  0  0  0  0  0  0  0  0
  140.8680   76.7800  220.0360 C   0  0  0  0  0  0  0  0  0  0  0  0
  141.8760   77.0460  219.1140 C   0  0  0  0  0  0  0  0  0  0  0  0
  142.9360   76.1760  219.0310 C   0  0  0  0  0  0  0  0  0  0  0  0
  143.0090   75.0460  219.8510 C   0  0  0  0  0  0  0  0  0  0  0  0
  144.1150   74.1590  219.7490 N   0  0  0  0  0  0  0  0  0  0  0  0
  145.1660   74.2690  220.7320 C   0  0  0  0  0  0  0  0  0  0  0  0
  146.1540   73.1490  220.6850 C   0  0  0  0  0  0  0  0  0  0  0  0
  146.3550   72.6570  219.3960 O   0  0  0  0  0  0  0  0  0  0  0  0
  145.1590   72.0820  218.9720 C   0  0  0  0  0  0  0  0  0  0  0  0
  144.1570   73.1920  218.6890 C   0  0  0  0  0  0  0  0  0  0  0  0
  141.9800   74.8380  220.7430 C   0  0  0  0  0  0  0  0  0  0  0  0
  138.5710   78.5380  223.0240 N   0  0  0  0  0  0  0  0  0  0  0  0
  137.1570   78.4250  222.9800 C   0  0  0  0  0  0  0  0  0  0  0  0
  136.5030   78.6690  221.6480 C   0  0  0  0  0  0  0  0  0  0  0  0
  137.1960   79.7000  220.8740 C   0  0  0  0  0  0  0  0  0  0  0  0
  138.2860   79.1870  219.9640 C   0  0  0  0  0  0  0  0  0  0  0  0
  137.5570   78.2950  218.9810 C   0  0  0  0  0  0  0  0  0  0  0  0
  137.1070   77.0870  219.7540 C   0  0  0  0  0  0  0  0  0  0  0  0
  136.2990   77.3540  220.9750 C   0  0  0  0  0  0  0  0  0  0  0  0
  140.1675   82.0544  224.0905 H   0  0  0  0  0  0  0  0  0  0  0  0
  142.6253   82.4888  224.1580 H   0  0  0  0  0  0  0  0  0  0  0  0
  143.3819   78.4540  222.8622 H   0  0  0  0  0  0  0  0  0  0  0  0
  137.9672   75.9805  222.4910 H   0  0  0  0  0  0  0  0  0  0  0  0
  139.7677   74.3306  222.1773 H   0  0  0  0  0  0  0  0  0  0  0  0
  140.0174   77.4741  220.1049 H   0  0  0  0  0  0  0  0  0  0  0  0
  141.8251   77.9334  218.4659 H   0  0  0  0  0  0  0  0  0  0  0  0
  143.7409   76.3718  218.3072 H   0  0  0  0  0  0  0  0  0  0  0  0
  145.7036   75.2133  220.5610 H   0  0  0  0  0  0  0  0  0  0  0  0
  144.6856   74.2317  221.7208 H   0  0  0  0  0  0  0  0  0  0  0  0
  147.1158   73.5126  221.0759 H   0  0  0  0  0  0  0  0  0  0  0  0
  145.7499   72.3264  221.2932 H   0  0  0  0  0  0  0  0  0  0  0  0
  145.3332   71.4983  218.0561 H   0  0  0  0  0  0  0  0  0  0  0  0
  144.7671   71.4136  219.7528 H   0  0  0  0  0  0  0  0  0  0  0  0
  144.4428   73.6995  217.7559 H   0  0  0  0  0  0  0  0  0  0  0  0
  143.1593   72.7367  218.6036 H   0  0  0  0  0  0  0  0  0  0  0  0
  142.0264   73.9516  221.3927 H   0  0  0  0  0  0  0  0  0  0  0  0
  136.8936   77.4059  223.2994 H   0  0  0  0  0  0  0  0  0  0  0  0
  136.7817   79.2228  223.6377 H   0  0  0  0  0  0  0  0  0  0  0  0
  135.5025   79.1095  221.7704 H   0  0  0  0  0  0  0  0  0  0  0  0
  136.4509   80.2209  220.2547 H   0  0  0  0  0  0  0  0  0  0  0  0
  137.6891   80.3561  221.6063 H   0  0  0  0  0  0  0  0  0  0  0  0
  138.7829   80.0184  219.4426 H   0  0  0  0  0  0  0  0  0  0  0  0
  139.0771   78.6538  220.5117 H   0  0  0  0  0  0  0  0  0  0  0  0
  136.6881   78.8228  218.5609 H   0  0  0  0  0  0  0  0  0  0  0  0
  138.2094   78.0104  218.1423 H   0  0  0  0  0  0  0  0  0  0  0  0
  136.5013   76.4633  219.0801 H   0  0  0  0  0  0  0  0  0  0  0  0
  138.0289   76.6039  220.1099 H   0  0  0  0  0  0  0  0  0  0  0  0
  135.2381   77.2872  220.6920 H   0  0  0  0  0  0  0  0  0  0  0  0
  136.6319   76.6038  221.7074 H   0  0  0  0  0  0  0  0  0  0  0  0
  1  2  2  0
  2  3  1  0
  3  4  2  0
  4  5  1  0
  5  6  2  0
  6  7  1  0
  6  8  1  0
  8  9  2  0
  9 10  1  0
 10 11  2  0
 11 12  1  0
 12 13  2  0
 13 14  1  0
 14 15  2  0
 15 16  1  0
 16 17  2  0
 17 18  1  0
 18 19  1  0
 19 20  1  0
 20 21  1  0
 21 22  1  0
 22 23  1  0
 23 24  1  0
 18 25  2  0
 11 26  1  0
 26 27  1  0
 27 28  1  0
 28 29  1  0
 29 30  1  0
 30 31  1  0
 31 32  1  0
 32 33  1  0
 26  2  1  0
 33 28  1  0
  9  3  1  0
 25 14  1  0
 24 19  1  0
  4 34  1  0
  5 35  1  0
  8 36  1  0
 12 37  1  0
 13 38  1  0
 15 39  1  0
 16 40  1  0
 17 41  1  0
 20 42  1  0
 20 43  1  0
 21 44  1  0
 21 45  1  0
 23 46  1  0
 23 47  1  0
 24 48  1  0
 24 49  1  0
 25 50  1  0
 27 51  1  0
 27 52  1  0
 28 53  1  0
 29 54  1  0
 29 55  1  0
 30 56  1  0
 30 57  1  0
 31 58  1  0
 31 59  1  0
 32 60  1  0
 32 61  1  0
 33 62  1  0
 33 63  1  0
M  END
>  <smiles>  (22) 
O=c1c2ccc(F)cc2nc(/C=C/c2cccc(N3CCOCC3)c2)n1CC1CCCCC1

>  <score_type>  (22) 
oracle

>  <origin>  (22) 
autodockgpu

>  <m_score__min__energy>  (22) 
-9.0299999999999994

>  <m_primary>  (22) 
energy

>  <rmsd>  (22) 
4.762682109989831

>  <m_score__min__rmsd>  (22) 
4.762682109989831

>  <meeko>  (22) 
{"free_energy": -7.26, "intermolecular_energy": -9.05, "internal_energy": -2.31, "cluster_size": 2, "cluster_id": 9, "rank_in_cluster": 2}

>  <energy>  (22) 
-8.47

>  <cluster_rmsd>  (22) 
0.54

>  <cluster>  (22) 
2

$$$$

     RDKit          3D

 63 67  0  0  0  0  0  0  0  0999 V2000
  138.5940   68.2050  225.1850 O   0  0  0  0  0  0  0  0  0  0  0  0
  139.1560   69.3110  224.9710 C   0  0  0  0  0  0  0  0  0  0  0  0
  139.8270   69.8950  226.0150 C   0  0  0  0  0  0  0  0  0  0  0  0
  139.8590   69.2500  227.2520 C   0  0  0  0  0  0  0  0  0  0  0  0
  140.5410   69.8510  228.2980 C   0  0  0  0  0  0  0  0  0  0  0  0
  141.1750   71.0750  228.1040 C   0  0  0  0  0  0  0  0  0  0  0  0
  141.8470   71.6790  229.1170 F   0  0  0  0  0  0  0  0  0  0  0  0
  141.1300   71.6940  226.8720 C   0  0  0  0  0  0  0  0  0  0  0  0
  140.4500   71.1040  225.8120 C   0  0  0  0  0  0  0  0  0  0  0  0
  140.3750   71.6620  224.5950 N   0  0  0  0  0  0  0  0  0  0  0  0
  139.7090   71.0590  223.5990 C   0  0  0  0  0  0  0  0  0  0  0  0
  139.7280   71.7300  222.2990 C   0  0  0  0  0  0  0  0  0  0  0  0
  139.5090   73.0250  222.1970 C   0  0  0  0  0  0  0  0  0  0  0  0
  140.4360   73.9730  221.6010 C   0  0  0  0  0  0  0  0  0  0  0  0
  140.1990   75.3270  221.5140 C   0  0  0  0  0  0  0  0  0  0  0  0
  141.1070   76.2100  220.9360 C   0  0  0  0  0  0  0  0  0  0  0  0
  142.2830   75.7070  220.4350 C   0  0  0  0  0  0  0  0  0  0  0  0
  142.5700   74.3400  220.5000 C   0  0  0  0  0  0  0  0  0  0  0  0
  143.7930   73.8400  219.9750 N   0  0  0  0  0  0  0  0  0  0  0  0
  143.8990   73.6690  218.5460 C   0  0  0  0  0  0  0  0  0  0  0  0
  145.2860   73.3720  218.0770 C   0  0  0  0  0  0  0  0  0  0  0  0
  146.0220   72.6270  218.9970 O   0  0  0  0  0  0  0  0  0  0  0  0
  146.2020   73.4150  220.1310 C   0  0  0  0  0  0  0  0  0  0  0  0
  144.8730   73.5230  220.8660 C   0  0  0  0  0  0  0  0  0  0  0  0
  141.6310   73.5190  221.0830 C   0  0  0  0  0  0  0  0  0  0  0  0
  139.0820   69.8860  223.7320 N   0  0  0  0  0  0  0  0  0  0  0  0
  138.3190   69.2020  222.7510 C   0  0  0  0  0  0  0  0  0  0  0  0
  136.8620   69.5650  222.6560 C   0  0  0  0  0  0  0  0  0  0  0  0
  136.0580   68.8880  223.6740 C   0  0  0  0  0  0  0  0  0  0  0  0
  135.9060   69.6450  224.9710 C   0  0  0  0  0  0  0  0  0  0  0  0
  135.1690   70.9080  224.5780 C   0  0  0  0  0  0  0  0  0  0  0  0
  136.1340   71.7290  223.7690 C   0  0  0  0  0  0  0  0  0  0  0  0
  136.7510   71.0510  222.5970 C   0  0  0  0  0  0  0  0  0  0  0  0
  139.3529   68.2837  227.3940 H   0  0  0  0  0  0  0  0  0  0  0  0
  140.5814   69.3607  229.2819 H   0  0  0  0  0  0  0  0  0  0  0  0
  141.6352   72.6603  226.7271 H   0  0  0  0  0  0  0  0  0  0  0  0
  139.9287   71.1428  221.3908 H   0  0  0  0  0  0  0  0  0  0  0  0
  138.5590   73.4161  222.5900 H   0  0  0  0  0  0  0  0  0  0  0  0
  139.2563   75.7259  221.9166 H   0  0  0  0  0  0  0  0  0  0  0  0
  140.8876   77.2865  220.8817 H   0  0  0  0  0  0  0  0  0  0  0  0
  143.0112   76.3911  219.9749 H   0  0  0  0  0  0  0  0  0  0  0  0
  143.2456   72.8362  218.2467 H   0  0  0  0  0  0  0  0  0  0  0  0
  143.6018   74.6228  218.0856 H   0  0  0  0  0  0  0  0  0  0  0  0
  145.2246   72.8058  217.1359 H   0  0  0  0  0  0  0  0  0  0  0  0
  145.8022   74.3341  217.9431 H   0  0  0  0  0  0  0  0  0  0  0  0
  146.9521   72.9515  220.7886 H   0  0  0  0  0  0  0  0  0  0  0  0
  146.5519   74.4164  219.8400 H   0  0  0  0  0  0  0  0  0  0  0  0
  144.6589   72.5621  221.3567 H   0  0  0  0  0  0  0  0  0  0  0  0
  144.9562   74.3349  221.6035 H   0  0  0  0  0  0  0  0  0  0  0  0
  141.8456   72.4416  221.1387 H   0  0  0  0  0  0  0  0  0  0  0  0
  138.7775   69.4034  221.7716 H   0  0  0  0  0  0  0  0  0  0  0  0
  138.3350   68.1454  223.0564 H   0  0  0  0  0  0  0  0  0  0  0  0
  136.4159   69.1862  221.7246 H   0  0  0  0  0  0  0  0  0  0  0  0
  135.0540   68.7171  223.2585 H   0  0  0  0  0  0  0  0  0  0  0  0
  136.5915   67.9581  223.9203 H   0  0  0  0  0  0  0  0  0  0  0  0
  135.3210   69.0616  225.6973 H   0  0  0  0  0  0  0  0  0  0  0  0
  136.8722   69.8532  225.4537 H   0  0  0  0  0  0  0  0  0  0  0  0
  134.2829   70.6594  223.9755 H   0  0  0  0  0  0  0  0  0  0  0  0
  134.8224   71.4593  225.4645 H   0  0  0  0  0  0  0  0  0  0  0  0
  135.5946   72.6136  223.3995 H   0  0  0  0  0  0  0  0  0  0  0  0
  136.9676   71.9586  224.4490 H   0  0  0  0  0  0  0  0  0  0  0  0
  136.1485   71.3040  221.7121 H   0  0  0  0  0  0  0  0  0  0  0  0
  137.7889   71.4143  222.5704 H   0  0  0  0  0  0  0  0  0  0  0  0
  1  2  2  0
  2  3  1  0
  3  4  2  0
  4  5  1  0
  5  6  2  0
  6  7  1  0
  6  8  1  0
  8  9  2  0
  9 10  1  0
 10 11  2  0
 11 12  1  0
 12 13  2  0
 13 14  1  0
 14 15  2  0
 15 16  1  0
 16 17  2  0
 17 18  1  0
 18 19  1  0
 19 20  1  0
 20 21  1  0
 21 22  1  0
 22 23  1  0
 23 24  1  0
 18 25  2  0
 11 26  1  0
 26 27  1  0
 27 28  1  0
 28 29  1  0
 29 30  1  0
 30 31  1  0
 31 32  1  0
 32 33  1  0
 26  2  1  0
 33 28  1  0
  9  3  1  0
 25 14  1  0
 24 19  1  0
  4 34  1  0
  5 35  1  0
  8 36  1  0
 12 37  1  0
 13 38  1  0
 15 39  1  0
 16 40  1  0
 17 41  1  0
 20 42  1  0
 20 43  1  0
 21 44  1  0
 21 45  1  0
 23 46  1  0
 23 47  1  0
 24 48  1  0
 24 49  1  0
 25 50  1  0
 27 51  1  0
 27 52  1  0
 28 53  1  0
 29 54  1  0
 29 55  1  0
 30 56  1  0
 30 57  1  0
 31 58  1  0
 31 59  1  0
 32 60  1  0
 32 61  1  0
 33 62  1  0
 33 63  1  0
M  END
>  <smiles>  (23) 
O=c1c2ccc(F)cc2nc(/C=C/c2cccc(N3CCOCC3)c2)n1CC1CCCCC1

>  <score_type>  (23) 
oracle

>  <origin>  (23) 
autodockgpu

>  <m_score__min__energy>  (23) 
-9.0299999999999994

>  <m_primary>  (23) 
energy

>  <rmsd>  (23) 
11.575662322080086

>  <m_score__min__rmsd>  (23) 
11.575662322080086

>  <meeko>  (23) 
{"free_energy": -8.93, "intermolecular_energy": -10.72, "internal_energy": -1.79, "cluster_size": 18, "cluster_id": 1, "rank_in_cluster": 5}

>  <energy>  (23) 
-8.37

>  <cluster_rmsd>  (23) 
0.92

>  <cluster>  (23) 
2

$$$$

     RDKit          3D

 63 67  0  0  0  0  0  0  0  0999 V2000
  142.9220   76.7690  219.0540 O   0  0  0  0  0  0  0  0  0  0  0  0
  142.2030   76.2680  219.9570 C   0  0  0  0  0  0  0  0  0  0  0  0
  141.6050   77.1280  220.8440 C   0  0  0  0  0  0  0  0  0  0  0  0
  141.8160   78.5000  220.7100 C   0  0  0  0  0  0  0  0  0  0  0  0
  141.2070   79.3580  221.6130 C   0  0  0  0  0  0  0  0  0  0  0  0
  140.4040   78.8450  222.6270 C   0  0  0  0  0  0  0  0  0  0  0  0
  139.8000   79.6690  223.5210 F   0  0  0  0  0  0  0  0  0  0  0  0
  140.2100   77.4840  222.7390 C   0  0  0  0  0  0  0  0  0  0  0  0
  140.8140   76.6100  221.8430 C   0  0  0  0  0  0  0  0  0  0  0  0
  140.6600   75.2800  221.9050 N   0  0  0  0  0  0  0  0  0  0  0  0
  141.2600   74.4710  221.0190 C   0  0  0  0  0  0  0  0  0  0  0  0
  140.9870   73.0400  221.1490 C   0  0  0  0  0  0  0  0  0  0  0  0
  139.8130   72.6040  221.5570 C   0  0  0  0  0  0  0  0  0  0  0  0
  139.6170   71.4610  222.4330 C   0  0  0  0  0  0  0  0  0  0  0  0
  139.0960   70.2550  222.0170 C   0  0  0  0  0  0  0  0  0  0  0  0
  138.9210   69.1780  222.8810 C   0  0  0  0  0  0  0  0  0  0  0  0
  139.2820   69.3270  224.1970 C   0  0  0  0  0  0  0  0  0  0  0  0
  139.8160   70.5300  224.6690 C   0  0  0  0  0  0  0  0  0  0  0  0
  140.1830   70.6640  226.0350 N   0  0  0  0  0  0  0  0  0  0  0  0
  140.0050   69.5220  226.9000 C   0  0  0  0  0  0  0  0  0  0  0  0
  140.6370   69.6810  228.2450 C   0  0  0  0  0  0  0  0  0  0  0  0
  140.6220   71.0000  228.6980 O   0  0  0  0  0  0  0  0  0  0  0  0
  141.4290   71.7490  227.8450 C   0  0  0  0  0  0  0  0  0  0  0  0
  140.7130   71.9100  226.5120 C   0  0  0  0  0  0  0  0  0  0  0  0
  139.9640   71.5590  223.7640 C   0  0  0  0  0  0  0  0  0  0  0  0
  142.0410   74.9120  220.0280 N   0  0  0  0  0  0  0  0  0  0  0  0
  142.7490   74.1300  219.0790 C   0  0  0  0  0  0  0  0  0  0  0  0
  144.2480   74.2570  219.0860 C   0  0  0  0  0  0  0  0  0  0  0  0
  144.7720   74.5310  220.4250 C   0  0  0  0  0  0  0  0  0  0  0  0
  145.1210   73.3050  221.2340 C   0  0  0  0  0  0  0  0  0  0  0  0
  146.2290   72.6420  220.4400 C   0  0  0  0  0  0  0  0  0  0  0  0
  145.5930   72.1050  219.1890 C   0  0  0  0  0  0  0  0  0  0  0  0
  144.8240   73.0820  218.3720 C   0  0  0  0  0  0  0  0  0  0  0  0
  142.4528   78.8936  219.9041 H   0  0  0  0  0  0  0  0  0  0  0  0
  141.3586   80.4442  221.5278 H   0  0  0  0  0  0  0  0  0  0  0  0
  139.5727   77.0876  223.5432 H   0  0  0  0  0  0  0  0  0  0  0  0
  141.7763   72.3149  220.9016 H   0  0  0  0  0  0  0  0  0  0  0  0
  138.9186   73.1425  221.2106 H   0  0  0  0  0  0  0  0  0  0  0  0
  138.8074   70.1391  220.9619 H   0  0  0  0  0  0  0  0  0  0  0  0
  138.5025   68.2280  222.5172 H   0  0  0  0  0  0  0  0  0  0  0  0
  139.1488   68.4852  224.8925 H   0  0  0  0  0  0  0  0  0  0  0  0
  138.9264   69.3580  227.0406 H   0  0  0  0  0  0  0  0  0  0  0  0
  140.4998   68.6695  226.4118 H   0  0  0  0  0  0  0  0  0  0  0  0
  140.0902   69.0557  228.9661 H   0  0  0  0  0  0  0  0  0  0  0  0
  141.6895   69.3746  228.1540 H   0  0  0  0  0  0  0  0  0  0  0  0
  141.6158   72.7389  228.2867 H   0  0  0  0  0  0  0  0  0  0  0  0
  142.3911   71.2374  227.6942 H   0  0  0  0  0  0  0  0  0  0  0  0
  139.8855   72.6239  226.6368 H   0  0  0  0  0  0  0  0  0  0  0  0
  141.4434   72.2744  225.7746 H   0  0  0  0  0  0  0  0  0  0  0  0
  140.3820   72.5109  224.1233 H   0  0  0  0  0  0  0  0  0  0  0  0
  142.5026   73.0744  219.2659 H   0  0  0  0  0  0  0  0  0  0  0  0
  142.4304   74.5077  218.0962 H   0  0  0  0  0  0  0  0  0  0  0  0
  144.5749   75.1461  218.5268 H   0  0  0  0  0  0  0  0  0  0  0  0
  145.6817   75.1401  220.3179 H   0  0  0  0  0  0  0  0  0  0  0  0
  143.9671   75.0432  220.9725 H   0  0  0  0  0  0  0  0  0  0  0  0
  145.4739   73.5864  222.2371 H   0  0  0  0  0  0  0  0  0  0  0  0
  144.2575   72.6415  221.3894 H   0  0  0  0  0  0  0  0  0  0  0  0
  147.0069   73.3771  220.1858 H   0  0  0  0  0  0  0  0  0  0  0  0
  146.7087   71.8392  221.0192 H   0  0  0  0  0  0  0  0  0  0  0  0
  146.3929   71.6938  218.5557 H   0  0  0  0  0  0  0  0  0  0  0  0
  144.8571   71.3613  219.5286 H   0  0  0  0  0  0  0  0  0  0  0  0
  145.4982   73.4656  217.5920 H   0  0  0  0  0  0  0  0  0  0  0  0
  143.9548   72.5205  217.9989 H   0  0  0  0  0  0  0  0  0  0  0  0
  1  2  2  0
  2  3  1  0
  3  4  2  0
  4  5  1  0
  5  6  2  0
  6  7  1  0
  6  8  1  0
  8  9  2  0
  9 10  1  0
 10 11  2  0
 11 12  1  0
 12 13  2  0
 13 14  1  0
 14 15  2  0
 15 16  1  0
 16 17  2  0
 17 18  1  0
 18 19  1  0
 19 20  1  0
 20 21  1  0
 21 22  1  0
 22 23  1  0
 23 24  1  0
 18 25  2  0
 11 26  1  0
 26 27  1  0
 27 28  1  0
 28 29  1  0
 29 30  1  0
 30 31  1  0
 31 32  1  0
 32 33  1  0
 26  2  1  0
 33 28  1  0
  9  3  1  0
 25 14  1  0
 24 19  1  0
  4 34  1  0
  5 35  1  0
  8 36  1  0
 12 37  1  0
 13 38  1  0
 15 39  1  0
 16 40  1  0
 17 41  1  0
 20 42  1  0
 20 43  1  0
 21 44  1  0
 21 45  1  0
 23 46  1  0
 23 47  1  0
 24 48  1  0
 24 49  1  0
 25 50  1  0
 27 51  1  0
 27 52  1  0
 28 53  1  0
 29 54  1  0
 29 55  1  0
 30 56  1  0
 30 57  1  0
 31 58  1  0
 31 59  1  0
 32 60  1  0
 32 61  1  0
 33 62  1  0
 33 63  1  0
M  END
>  <smiles>  (24) 
O=c1c2ccc(F)cc2nc(/C=C/c2cccc(N3CCOCC3)c2)n1CC1CCCCC1

>  <score_type>  (24) 
oracle

>  <origin>  (24) 
autodockgpu

>  <m_score__min__energy>  (24) 
-9.0299999999999994

>  <m_primary>  (24) 
energy

>  <rmsd>  (24) 
5.405393389475264

>  <m_score__min__rmsd>  (24) 
5.405393389475264

>  <meeko>  (24) 
{"free_energy": -8.34, "intermolecular_energy": -10.13, "internal_energy": -1.49, "cluster_size": 8, "cluster_id": 2, "rank_in_cluster": 7}

>  <energy>  (24) 
-8.37

>  <cluster_rmsd>  (24) 
0.76

>  <cluster>  (24) 
2

$$$$

     RDKit          3D

 63 67  0  0  0  0  0  0  0  0999 V2000
  138.8510   68.2770  224.8690 O   0  0  0  0  0  0  0  0  0  0  0  0
  139.3780   69.4060  224.6910 C   0  0  0  0  0  0  0  0  0  0  0  0
  139.9520   70.0180  225.7780 C   0  0  0  0  0  0  0  0  0  0  0  0
  139.9270   69.3740  227.0150 C   0  0  0  0  0  0  0  0  0  0  0  0
  140.5090   70.0030  228.1040 C   0  0  0  0  0  0  0  0  0  0  0  0
  141.1040   71.2530  227.9500 C   0  0  0  0  0  0  0  0  0  0  0  0
  141.6780   71.8840  229.0050 F   0  0  0  0  0  0  0  0  0  0  0  0
  141.1170   71.8700  226.7160 C   0  0  0  0  0  0  0  0  0  0  0  0
  140.5360   71.2520  225.6140 C   0  0  0  0  0  0  0  0  0  0  0  0
  140.5210   71.8060  224.3930 N   0  0  0  0  0  0  0  0  0  0  0  0
  139.9500   71.1760  223.3560 C   0  0  0  0  0  0  0  0  0  0  0  0
  140.0300   71.8470  222.0580 C   0  0  0  0  0  0  0  0  0  0  0  0
  140.5820   73.0380  221.9390 C   0  0  0  0  0  0  0  0  0  0  0  0
  139.8480   74.2920  221.9620 C   0  0  0  0  0  0  0  0  0  0  0  0
  138.4720   74.3770  221.9690 C   0  0  0  0  0  0  0  0  0  0  0  0
  137.7980   75.5940  221.9910 C   0  0  0  0  0  0  0  0  0  0  0  0
  138.5350   76.7520  222.0060 C   0  0  0  0  0  0  0  0  0  0  0  0
  139.9330   76.7200  222.0000 C   0  0  0  0  0  0  0  0  0  0  0  0
  140.6770   77.9310  222.0170 N   0  0  0  0  0  0  0  0  0  0  0  0
  141.4060   78.2630  223.2170 C   0  0  0  0  0  0  0  0  0  0  0  0
  142.3390   79.4190  223.0540 C   0  0  0  0  0  0  0  0  0  0  0  0
  141.8710   80.3710  222.1500 O   0  0  0  0  0  0  0  0  0  0  0  0
  141.8330   79.7760  220.8910 C   0  0  0  0  0  0  0  0  0  0  0  0
  140.6840   78.7780  220.8570 C   0  0  0  0  0  0  0  0  0  0  0  0
  140.5410   75.4840  221.9780 C   0  0  0  0  0  0  0  0  0  0  0  0
  139.3660   69.9780  223.4490 N   0  0  0  0  0  0  0  0  0  0  0  0
  138.7010   69.2620  222.4200 C   0  0  0  0  0  0  0  0  0  0  0  0
  137.2290   69.5290  222.2560 C   0  0  0  0  0  0  0  0  0  0  0  0
  136.5960   69.9170  223.5170 C   0  0  0  0  0  0  0  0  0  0  0  0
  136.5800   71.4010  223.7910 C   0  0  0  0  0  0  0  0  0  0  0  0
  135.7430   71.9760  222.6670 C   0  0  0  0  0  0  0  0  0  0  0  0
  136.5560   71.8280  221.4110 C   0  0  0  0  0  0  0  0  0  0  0  0
  137.0440   70.4560  221.1030 C   0  0  0  0  0  0  0  0  0  0  0  0
  139.4547   68.3865  227.1239 H   0  0  0  0  0  0  0  0  0  0  0  0
  140.5011   69.5152  229.0899 H   0  0  0  0  0  0  0  0  0  0  0  0
  141.5898   72.8568  226.6032 H   0  0  0  0  0  0  0  0  0  0  0  0
  139.6224   71.3487  221.1661 H   0  0  0  0  0  0  0  0  0  0  0  0
  141.6738   73.0861  221.8136 H   0  0  0  0  0  0  0  0  0  0  0  0
  137.8845   73.4471  221.9567 H   0  0  0  0  0  0  0  0  0  0  0  0
  136.6985   75.6275  221.9963 H   0  0  0  0  0  0  0  0  0  0  0  0
  138.0168   77.7221  222.0230 H   0  0  0  0  0  0  0  0  0  0  0  0
  140.6809   78.5108  224.0062 H   0  0  0  0  0  0  0  0  0  0  0  0
  142.0213   77.3874  223.4714 H   0  0  0  0  0  0  0  0  0  0  0  0
  142.4742   79.9016  224.0332 H   0  0  0  0  0  0  0  0  0  0  0  0
  143.2863   79.0250  222.6573 H   0  0  0  0  0  0  0  0  0  0  0  0
  141.6766   80.5468  220.1220 H   0  0  0  0  0  0  0  0  0  0  0  0
  142.7837   79.2598  220.6917 H   0  0  0  0  0  0  0  0  0  0  0  0
  139.7339   79.3306  220.8142 H   0  0  0  0  0  0  0  0  0  0  0  0
  140.8117   78.1405  219.9697 H   0  0  0  0  0  0  0  0  0  0  0  0
  141.6403   75.4459  221.9729 H   0  0  0  0  0  0  0  0  0  0  0  0
  139.1934   69.5110  221.4684 H   0  0  0  0  0  0  0  0  0  0  0  0
  138.7731   68.2034  222.7101 H   0  0  0  0  0  0  0  0  0  0  0  0
  136.6827   68.6092  222.0001 H   0  0  0  0  0  0  0  0  0  0  0  0
  135.5551   69.5616  223.5001 H   0  0  0  0  0  0  0  0  0  0  0  0
  137.1990   69.4626  224.3169 H   0  0  0  0  0  0  0  0  0  0  0  0
  136.1203   71.6127  224.7677 H   0  0  0  0  0  0  0  0  0  0  0  0
  137.5905   71.8340  223.8286 H   0  0  0  0  0  0  0  0  0  0  0  0
  134.7974   71.4215  222.5752 H   0  0  0  0  0  0  0  0  0  0  0  0
  135.4922   73.0301  222.8568 H   0  0  0  0  0  0  0  0  0  0  0  0
  135.9337   72.1604  220.5671 H   0  0  0  0  0  0  0  0  0  0  0  0
  137.4603   72.4333  221.5721 H   0  0  0  0  0  0  0  0  0  0  0  0
  136.3197   69.9923  220.4172 H   0  0  0  0  0  0  0  0  0  0  0  0
  138.0519   70.5981  220.6859 H   0  0  0  0  0  0  0  0  0  0  0  0
  1  2  2  0
  2  3  1  0
  3  4  2  0
  4  5  1  0
  5  6  2  0
  6  7  1  0
  6  8  1  0
  8  9  2  0
  9 10  1  0
 10 11  2  0
 11 12  1  0
 12 13  2  0
 13 14  1  0
 14 15  2  0
 15 16  1  0
 16 17  2  0
 17 18  1  0
 18 19  1  0
 19 20  1  0
 20 21  1  0
 21 22  1  0
 22 23  1  0
 23 24  1  0
 18 25  2  0
 11 26  1  0
 26 27  1  0
 27 28  1  0
 28 29  1  0
 29 30  1  0
 30 31  1  0
 31 32  1  0
 32 33  1  0
 26  2  1  0
 33 28  1  0
  9  3  1  0
 25 14  1  0
 24 19  1  0
  4 34  1  0
  5 35  1  0
  8 36  1  0
 12 37  1  0
 13 38  1  0
 15 39  1  0
 16 40  1  0
 17 41  1  0
 20 42  1  0
 20 43  1  0
 21 44  1  0
 21 45  1  0
 23 46  1  0
 23 47  1  0
 24 48  1  0
 24 49  1  0
 25 50  1  0
 27 51  1  0
 27 52  1  0
 28 53  1  0
 29 54  1  0
 29 55  1  0
 30 56  1  0
 30 57  1  0
 31 58  1  0
 31 59  1  0
 32 60  1  0
 32 61  1  0
 33 62  1  0
 33 63  1  0
M  END
>  <smiles>  (25) 
O=c1c2ccc(F)cc2nc(/C=C/c2cccc(N3CCOCC3)c2)n1CC1CCCCC1

>  <score_type>  (25) 
oracle

>  <origin>  (25) 
autodockgpu

>  <m_score__min__energy>  (25) 
-9.0299999999999994

>  <m_primary>  (25) 
energy

>  <rmsd>  (25) 
10.929674041922022

>  <m_score__min__rmsd>  (25) 
10.929674041922022

>  <meeko>  (25) 
{"free_energy": -8.08, "intermolecular_energy": -9.87, "internal_energy": -2.22, "cluster_size": 15, "cluster_id": 3, "rank_in_cluster": 12}

>  <energy>  (25) 
-8.34

>  <cluster_rmsd>  (25) 
0.58

>  <cluster>  (25) 
2

$$$$

     RDKit          3D

 63 67  0  0  0  0  0  0  0  0999 V2000
  142.6520   77.2180  218.9780 O   0  0  0  0  0  0  0  0  0  0  0  0
  142.1120   76.7730  220.0250 C   0  0  0  0  0  0  0  0  0  0  0  0
  141.6570   77.6870  220.9420 C   0  0  0  0  0  0  0  0  0  0  0  0
  141.8100   79.0480  220.6820 C   0  0  0  0  0  0  0  0  0  0  0  0
  141.3470   79.9610  221.6180 C   0  0  0  0  0  0  0  0  0  0  0  0
  140.7430   79.5110  222.7880 C   0  0  0  0  0  0  0  0  0  0  0  0
  140.2830   80.3880  223.7160 F   0  0  0  0  0  0  0  0  0  0  0  0
  140.6020   78.1580  223.0230 C   0  0  0  0  0  0  0  0  0  0  0  0
  141.0620   77.2310  222.0960 C   0  0  0  0  0  0  0  0  0  0  0  0
  140.9520   75.9070  222.2730 N   0  0  0  0  0  0  0  0  0  0  0  0
  141.4080   75.0450  221.3520 C   0  0  0  0  0  0  0  0  0  0  0  0
  141.1950   73.6230  221.6230 C   0  0  0  0  0  0  0  0  0  0  0  0
  139.9810   73.1140  221.6740 C   0  0  0  0  0  0  0  0  0  0  0  0
  139.6090   71.9490  222.4600 C   0  0  0  0  0  0  0  0  0  0  0  0
  138.8210   70.9230  221.9860 C   0  0  0  0  0  0  0  0  0  0  0  0
  138.4820   69.8200  222.7640 C   0  0  0  0  0  0  0  0  0  0  0  0
  138.9530   69.7550  224.0520 C   0  0  0  0  0  0  0  0  0  0  0  0
  139.7570   70.7710  224.5800 C   0  0  0  0  0  0  0  0  0  0  0  0
  140.2340   70.6840  225.9160 N   0  0  0  0  0  0  0  0  0  0  0  0
  140.8180   71.8660  226.5050 C   0  0  0  0  0  0  0  0  0  0  0  0
  141.0660   71.7450  227.9740 C   0  0  0  0  0  0  0  0  0  0  0  0
  141.3970   70.4480  228.3630 O   0  0  0  0  0  0  0  0  0  0  0  0
  140.2850   69.6410  228.1330 C   0  0  0  0  0  0  0  0  0  0  0  0
  140.1260   69.4450  226.6320 C   0  0  0  0  0  0  0  0  0  0  0  0
  140.0570   71.8360  223.7600 C   0  0  0  0  0  0  0  0  0  0  0  0
  141.9960   75.4230  220.2130 N   0  0  0  0  0  0  0  0  0  0  0  0
  142.5480   74.5850  219.2090 C   0  0  0  0  0  0  0  0  0  0  0  0
  144.0490   74.5230  219.1350 C   0  0  0  0  0  0  0  0  0  0  0  0
  144.6660   74.5010  220.4610 C   0  0  0  0  0  0  0  0  0  0  0  0
  144.8870   73.1230  221.0370 C   0  0  0  0  0  0  0  0  0  0  0  0
  145.8570   72.4710  220.0740 C   0  0  0  0  0  0  0  0  0  0  0  0
  145.0970   72.2330  218.7990 C   0  0  0  0  0  0  0  0  0  0  0  0
  144.4290   73.4220  218.2040 C   0  0  0  0  0  0  0  0  0  0  0  0
  142.2885   79.3911  219.7529 H   0  0  0  0  0  0  0  0  0  0  0  0
  141.4572   81.0401  221.4355 H   0  0  0  0  0  0  0  0  0  0  0  0
  140.1223   77.8116  223.9503 H   0  0  0  0  0  0  0  0  0  0  0  0
  142.0633   72.9679  221.7869 H   0  0  0  0  0  0  0  0  0  0  0  0
  139.1948   73.6042  221.0811 H   0  0  0  0  0  0  0  0  0  0  0  0
  138.4456   70.9777  220.9535 H   0  0  0  0  0  0  0  0  0  0  0  0
  137.8502   69.0174  222.3557 H   0  0  0  0  0  0  0  0  0  0  0  0
  138.6939   68.8895  224.6794 H   0  0  0  0  0  0  0  0  0  0  0  0
  141.7779   72.0648  226.0059 H   0  0  0  0  0  0  0  0  0  0  0  0
  140.0960   72.6844  226.3670 H   0  0  0  0  0  0  0  0  0  0  0  0
  141.8944   72.4154  228.2465 H   0  0  0  0  0  0  0  0  0  0  0  0
  140.1331   72.0165  228.4898 H   0  0  0  0  0  0  0  0  0  0  0  0
  140.4285   68.6654  228.6205 H   0  0  0  0  0  0  0  0  0  0  0  0
  139.3840   70.1180  228.5461 H   0  0  0  0  0  0  0  0  0  0  0  0
  140.9105   68.7600  226.2778 H   0  0  0  0  0  0  0  0  0  0  0  0
  139.1241   69.0304  226.4466 H   0  0  0  0  0  0  0  0  0  0  0  0
  140.6887   72.6410  224.1638 H   0  0  0  0  0  0  0  0  0  0  0  0
  142.1800   73.5638  219.3870 H   0  0  0  0  0  0  0  0  0  0  0  0
  142.2282   75.0269  218.2538 H   0  0  0  0  0  0  0  0  0  0  0  0
  144.4654   75.4461  218.7055 H   0  0  0  0  0  0  0  0  0  0  0  0
  145.6423   75.0030  220.3918 H   0  0  0  0  0  0  0  0  0  0  0  0
  143.9621   75.0085  221.1370 H   0  0  0  0  0  0  0  0  0  0  0  0
  145.3214   73.1865  222.0456 H   0  0  0  0  0  0  0  0  0  0  0  0
  143.9511   72.5547  221.1428 H   0  0  0  0  0  0  0  0  0  0  0  0
  146.7128   73.1365  219.8878 H   0  0  0  0  0  0  0  0  0  0  0  0
  146.2520   71.5296  220.4835 H   0  0  0  0  0  0  0  0  0  0  0  0
  145.8041   71.8373  218.0550 H   0  0  0  0  0  0  0  0  0  0  0  0
  144.2853   71.5394  219.0637 H   0  0  0  0  0  0  0  0  0  0  0  0
  145.1119   73.8444  217.4521 H   0  0  0  0  0  0  0  0  0  0  0  0
  143.4760   73.0439  217.8055 H   0  0  0  0  0  0  0  0  0  0  0  0
  1  2  2  0
  2  3  1  0
  3  4  2  0
  4  5  1  0
  5  6  2  0
  6  7  1  0
  6  8  1  0
  8  9  2  0
  9 10  1  0
 10 11  2  0
 11 12  1  0
 12 13  2  0
 13 14  1  0
 14 15  2  0
 15 16  1  0
 16 17  2  0
 17 18  1  0
 18 19  1  0
 19 20  1  0
 20 21  1  0
 21 22  1  0
 22 23  1  0
 23 24  1  0
 18 25  2  0
 11 26  1  0
 26 27  1  0
 27 28  1  0
 28 29  1  0
 29 30  1  0
 30 31  1  0
 31 32  1  0
 32 33  1  0
 26  2  1  0
 33 28  1  0
  9  3  1  0
 25 14  1  0
 24 19  1  0
  4 34  1  0
  5 35  1  0
  8 36  1  0
 12 37  1  0
 13 38  1  0
 15 39  1  0
 16 40  1  0
 17 41  1  0
 20 42  1  0
 20 43  1  0
 21 44  1  0
 21 45  1  0
 23 46  1  0
 23 47  1  0
 24 48  1  0
 24 49  1  0
 25 50  1  0
 27 51  1  0
 27 52  1  0
 28 53  1  0
 29 54  1  0
 29 55  1  0
 30 56  1  0
 30 57  1  0
 31 58  1  0
 31 59  1  0
 32 60  1  0
 32 61  1  0
 33 62  1  0
 33 63  1  0
M  END
>  <smiles>  (26) 
O=c1c2ccc(F)cc2nc(/C=C/c2cccc(N3CCOCC3)c2)n1CC1CCCCC1

>  <score_type>  (26) 
oracle

>  <origin>  (26) 
autodockgpu

>  <m_score__min__energy>  (26) 
-9.0299999999999994

>  <m_primary>  (26) 
energy

>  <rmsd>  (26) 
5.121800244632723

>  <m_score__min__rmsd>  (26) 
5.121800244632723

>  <meeko>  (26) 
{"free_energy": -8.61, "intermolecular_energy": -10.4, "internal_energy": -1.58, "cluster_size": 8, "cluster_id": 2, "rank_in_cluster": 1}

>  <energy>  (26) 
-7.96

>  <cluster_rmsd>  (26) 
1.19

>  <cluster>  (26) 
2

$$$$

     RDKit          3D

 63 67  0  0  0  0  0  0  0  0999 V2000
  142.1710   77.9010  220.3100 O   0  0  0  0  0  0  0  0  0  0  0  0
  141.6000   76.8800  220.7750 C   0  0  0  0  0  0  0  0  0  0  0  0
  142.2000   75.6640  220.5610 C   0  0  0  0  0  0  0  0  0  0  0  0
  143.3970   75.6100  219.8480 C   0  0  0  0  0  0  0  0  0  0  0  0
  143.9920   74.3750  219.6380 C   0  0  0  0  0  0  0  0  0  0  0  0
  143.3930   73.2210  220.1350 C   0  0  0  0  0  0  0  0  0  0  0  0
  143.9600   72.0040  219.9400 F   0  0  0  0  0  0  0  0  0  0  0  0
  142.2090   73.3000  220.8380 C   0  0  0  0  0  0  0  0  0  0  0  0
  141.6000   74.5300  221.0560 C   0  0  0  0  0  0  0  0  0  0  0  0
  140.4490   74.6640  221.7320 N   0  0  0  0  0  0  0  0  0  0  0  0
  139.8950   75.8700  221.9220 C   0  0  0  0  0  0  0  0  0  0  0  0
  138.6640   75.9090  222.7120 C   0  0  0  0  0  0  0  0  0  0  0  0
  137.5500   76.4070  222.2150 C   0  0  0  0  0  0  0  0  0  0  0  0
  136.4310   76.8790  223.0140 C   0  0  0  0  0  0  0  0  0  0  0  0
  135.9520   78.1700  222.9770 C   0  0  0  0  0  0  0  0  0  0  0  0
  134.8770   78.5920  223.7540 C   0  0  0  0  0  0  0  0  0  0  0  0
  134.2740   77.6830  224.5880 C   0  0  0  0  0  0  0  0  0  0  0  0
  134.7230   76.3610  224.6620 C   0  0  0  0  0  0  0  0  0  0  0  0
  134.0840   75.4360  225.5320 N   0  0  0  0  0  0  0  0  0  0  0  0
  133.2160   75.9590  226.5590 C   0  0  0  0  0  0  0  0  0  0  0  0
  132.4130   74.9110  227.2600 C   0  0  0  0  0  0  0  0  0  0  0  0
  133.0850   73.6940  227.3670 O   0  0  0  0  0  0  0  0  0  0  0  0
  133.2600   73.1930  226.0790 C   0  0  0  0  0  0  0  0  0  0  0  0
  134.3170   74.0280  225.3700 C   0  0  0  0  0  0  0  0  0  0  0  0
  135.7910   76.0050  223.8670 C   0  0  0  0  0  0  0  0  0  0  0  0
  140.4270   77.0080  221.4650 N   0  0  0  0  0  0  0  0  0  0  0  0
  139.8880   78.3160  221.5780 C   0  0  0  0  0  0  0  0  0  0  0  0
  140.1480   79.0420  222.8700 C   0  0  0  0  0  0  0  0  0  0  0  0
  141.4050   78.6260  223.4920 C   0  0  0  0  0  0  0  0  0  0  0  0
  142.6140   79.4330  223.0850 C   0  0  0  0  0  0  0  0  0  0  0  0
  142.3070   80.8330  223.5750 C   0  0  0  0  0  0  0  0  0  0  0  0
  141.1930   81.3520  222.7100 C   0  0  0  0  0  0  0  0  0  0  0  0
  139.9730   80.5040  222.6320 C   0  0  0  0  0  0  0  0  0  0  0  0
  143.8603   76.5290  219.4597 H   0  0  0  0  0  0  0  0  0  0  0  0
  144.9369   74.3074  219.0789 H   0  0  0  0  0  0  0  0  0  0  0  0
  141.7436   72.3831  221.2288 H   0  0  0  0  0  0  0  0  0  0  0  0
  138.6687   75.5155  223.7392 H   0  0  0  0  0  0  0  0  0  0  0  0
  137.4605   76.4699  221.1204 H   0  0  0  0  0  0  0  0  0  0  0  0
  136.4377   78.8953  222.3077 H   0  0  0  0  0  0  0  0  0  0  0  0
  134.5185   79.6306  223.7011 H   0  0  0  0  0  0  0  0  0  0  0  0
  133.4230   78.0004  225.2086 H   0  0  0  0  0  0  0  0  0  0  0  0
  133.8351   76.4787  227.3051 H   0  0  0  0  0  0  0  0  0  0  0  0
  132.5015   76.6324  226.0630 H   0  0  0  0  0  0  0  0  0  0  0  0
  132.1741   75.2702  228.2719 H   0  0  0  0  0  0  0  0  0  0  0  0
  131.5058   74.7359  226.6631 H   0  0  0  0  0  0  0  0  0  0  0  0
  133.5899   72.1449  226.1311 H   0  0  0  0  0  0  0  0  0  0  0  0
  132.3105   73.2418  225.5257 H   0  0  0  0  0  0  0  0  0  0  0  0
  135.3044   73.7806  225.7869 H   0  0  0  0  0  0  0  0  0  0  0  0
  134.2710   73.7960  224.2957 H   0  0  0  0  0  0  0  0  0  0  0  0
  136.1525   74.9672  223.9156 H   0  0  0  0  0  0  0  0  0  0  0  0
  140.3104   78.9226  220.7634 H   0  0  0  0  0  0  0  0  0  0  0  0
  138.7967   78.1851  221.5332 H   0  0  0  0  0  0  0  0  0  0  0  0
  139.4107   78.7657  223.6382 H   0  0  0  0  0  0  0  0  0  0  0  0
  141.2902   78.7092  224.5828 H   0  0  0  0  0  0  0  0  0  0  0  0
  141.5921   77.5972  223.1506 H   0  0  0  0  0  0  0  0  0  0  0  0
  143.5236   79.0423  223.5646 H   0  0  0  0  0  0  0  0  0  0  0  0
  142.8001   79.3967  222.0015 H   0  0  0  0  0  0  0  0  0  0  0  0
  141.9899   80.8063  224.6280 H   0  0  0  0  0  0  0  0  0  0  0  0
  143.1942   81.4802  223.5126 H   0  0  0  0  0  0  0  0  0  0  0  0
  140.8939   82.3353  223.1020 H   0  0  0  0  0  0  0  0  0  0  0  0
  141.6003   81.3769  221.6885 H   0  0  0  0  0  0  0  0  0  0  0  0
  139.2598   80.8790  223.3808 H   0  0  0  0  0  0  0  0  0  0  0  0
  139.6352   80.5850  221.5883 H   0  0  0  0  0  0  0  0  0  0  0  0
  1  2  2  0
  2  3  1  0
  3  4  2  0
  4  5  1  0
  5  6  2  0
  6  7  1  0
  6  8  1  0
  8  9  2  0
  9 10  1  0
 10 11  2  0
 11 12  1  0
 12 13  2  0
 13 14  1  0
 14 15  2  0
 15 16  1  0
 16 17  2  0
 17 18  1  0
 18 19  1  0
 19 20  1  0
 20 21  1  0
 21 22  1  0
 22 23  1  0
 23 24  1  0
 18 25  2  0
 11 26  1  0
 26 27  1  0
 27 28  1  0
 28 29  1  0
 29 30  1  0
 30 31  1  0
 31 32  1  0
 32 33  1  0
 26  2  1  0
 33 28  1  0
  9  3  1  0
 25 14  1  0
 24 19  1  0
  4 34  1  0
  5 35  1  0
  8 36  1  0
 12 37  1  0
 13 38  1  0
 15 39  1  0
 16 40  1  0
 17 41  1  0
 20 42  1  0
 20 43  1  0
 21 44  1  0
 21 45  1  0
 23 46  1  0
 23 47  1  0
 24 48  1  0
 24 49  1  0
 25 50  1  0
 27 51  1  0
 27 52  1  0
 28 53  1  0
 29 54  1  0
 29 55  1  0
 30 56  1  0
 30 57  1  0
 31 58  1  0
 31 59  1  0
 32 60  1  0
 32 61  1  0
 33 62  1  0
 33 63  1  0
M  END
>  <smiles>  (27) 
O=c1c2ccc(F)cc2nc(/C=C/c2cccc(N3CCOCC3)c2)n1CC1CCCCC1

>  <score_type>  (27) 
oracle

>  <origin>  (27) 
autodockgpu

>  <m_score__min__energy>  (27) 
-9.0299999999999994

>  <m_primary>  (27) 
energy

>  <rmsd>  (27) 
7.247976827283634

>  <m_score__min__rmsd>  (27) 
7.247976827283634

>  <meeko>  (27) 
{"free_energy": -8.26, "intermolecular_energy": -10.05, "internal_energy": -1.68, "cluster_size": 1, "cluster_id": 4, "rank_in_cluster": 1}

>  <energy>  (27) 
-8.36

>  <cluster_rmsd>  (27) 
0.0

>  <cluster>  (27) 
3

$$$$

     RDKit          3D

 63 67  0  0  0  0  0  0  0  0999 V2000
  139.1770   67.7660  225.3550 O   0  0  0  0  0  0  0  0  0  0  0  0
  139.4880   68.9600  225.1090 C   0  0  0  0  0  0  0  0  0  0  0  0
  140.0850   69.6810  226.1130 C   0  0  0  0  0  0  0  0  0  0  0  0
  140.3180   69.0700  227.3450 C   0  0  0  0  0  0  0  0  0  0  0  0
  140.9220   69.8100  228.3510 C   0  0  0  0  0  0  0  0  0  0  0  0
  141.2810   71.1350  228.1200 C   0  0  0  0  0  0  0  0  0  0  0  0
  141.8720   71.8750  229.0920 F   0  0  0  0  0  0  0  0  0  0  0  0
  141.0400   71.7170  226.8930 C   0  0  0  0  0  0  0  0  0  0  0  0
  140.4360   70.9890  225.8740 C   0  0  0  0  0  0  0  0  0  0  0  0
  140.1790   71.5050  224.6640 N   0  0  0  0  0  0  0  0  0  0  0  0
  139.5940   70.7680  223.7080 C   0  0  0  0  0  0  0  0  0  0  0  0
  139.4020   71.4130  222.4090 C   0  0  0  0  0  0  0  0  0  0  0  0
  139.3850   72.7260  222.2960 C   0  0  0  0  0  0  0  0  0  0  0  0
  140.4500   73.5150  221.6990 C   0  0  0  0  0  0  0  0  0  0  0  0
  141.5150   72.9730  221.0130 C   0  0  0  0  0  0  0  0  0  0  0  0
  142.5200   73.7560  220.4530 C   0  0  0  0  0  0  0  0  0  0  0  0
  142.4430   75.1200  220.5910 C   0  0  0  0  0  0  0  0  0  0  0  0
  141.3820   75.7190  221.2780 C   0  0  0  0  0  0  0  0  0  0  0  0
  141.3220   77.1330  221.4090 N   0  0  0  0  0  0  0  0  0  0  0  0
  141.0770   77.6820  222.7220 C   0  0  0  0  0  0  0  0  0  0  0  0
  141.2690   79.1620  222.8000 C   0  0  0  0  0  0  0  0  0  0  0  0
  140.9300   79.8160  221.6160 O   0  0  0  0  0  0  0  0  0  0  0  0
  141.8260   79.4020  220.6330 C   0  0  0  0  0  0  0  0  0  0  0  0
  141.5030   77.9640  220.2530 C   0  0  0  0  0  0  0  0  0  0  0  0
  140.4190   74.8890  221.8100 C   0  0  0  0  0  0  0  0  0  0  0  0
  139.2280   69.4940  223.8770 N   0  0  0  0  0  0  0  0  0  0  0  0
  138.5660   68.6570  222.9420 C   0  0  0  0  0  0  0  0  0  0  0  0
  137.0680   68.7750  222.8760 C   0  0  0  0  0  0  0  0  0  0  0  0
  136.4980   69.2710  224.1290 C   0  0  0  0  0  0  0  0  0  0  0  0
  136.3620   70.7720  224.2160 C   0  0  0  0  0  0  0  0  0  0  0  0
  135.3910   71.1200  223.1070 C   0  0  0  0  0  0  0  0  0  0  0  0
  136.1170   70.8780  221.8140 C   0  0  0  0  0  0  0  0  0  0  0  0
  136.7080   69.5240  221.6370 C   0  0  0  0  0  0  0  0  0  0  0  0
  140.0286   68.0225  227.5155 H   0  0  0  0  0  0  0  0  0  0  0  0
  141.1172   69.3499  229.3309 H   0  0  0  0  0  0  0  0  0  0  0  0
  141.3276   72.7644  226.7194 H   0  0  0  0  0  0  0  0  0  0  0  0
  139.2695   70.7914  221.5112 H   0  0  0  0  0  0  0  0  0  0  0  0
  138.5043   73.2617  222.6799 H   0  0  0  0  0  0  0  0  0  0  0  0
  141.5730   71.8800  220.9038 H   0  0  0  0  0  0  0  0  0  0  0  0
  143.3578   73.2923  219.9116 H   0  0  0  0  0  0  0  0  0  0  0  0
  143.2294   75.7527  220.1537 H   0  0  0  0  0  0  0  0  0  0  0  0
  140.0400   77.4509  223.0070 H   0  0  0  0  0  0  0  0  0  0  0  0
  141.8110   77.2264  223.4029 H   0  0  0  0  0  0  0  0  0  0  0  0
  140.6388   79.5555  223.6112 H   0  0  0  0  0  0  0  0  0  0  0  0
  142.3374   79.3471  222.9853 H   0  0  0  0  0  0  0  0  0  0  0  0
  141.7302   80.0490  219.7486 H   0  0  0  0  0  0  0  0  0  0  0  0
  142.8561   79.4669  221.0134 H   0  0  0  0  0  0  0  0  0  0  0  0
  140.5777   77.9525  219.6583 H   0  0  0  0  0  0  0  0  0  0  0  0
  142.3502   77.5653  219.6757 H   0  0  0  0  0  0  0  0  0  0  0  0
  139.5796   75.3478  222.3530 H   0  0  0  0  0  0  0  0  0  0  0  0
  138.9637   68.8918  221.9436 H   0  0  0  0  0  0  0  0  0  0  0  0
  138.7615   67.6296  223.2828 H   0  0  0  0  0  0  0  0  0  0  0  0
  136.5946   67.7862  222.7856 H   0  0  0  0  0  0  0  0  0  0  0  0
  135.4973   68.8299  224.2472 H   0  0  0  0  0  0  0  0  0  0  0  0
  137.1998   68.9786  224.9239 H   0  0  0  0  0  0  0  0  0  0  0  0
  135.9601   71.0715  225.1951 H   0  0  0  0  0  0  0  0  0  0  0  0
  137.3266   71.2901  224.1105 H   0  0  0  0  0  0  0  0  0  0  0  0
  134.4989   70.4793  223.1678 H   0  0  0  0  0  0  0  0  0  0  0  0
  135.0548   72.1644  223.1854 H   0  0  0  0  0  0  0  0  0  0  0  0
  135.4042   71.0433  220.9926 H   0  0  0  0  0  0  0  0  0  0  0  0
  136.9694   71.5733  221.8199 H   0  0  0  0  0  0  0  0  0  0  0  0
  135.9808   68.9147  221.0804 H   0  0  0  0  0  0  0  0  0  0  0  0
  137.6631   69.6947  221.1186 H   0  0  0  0  0  0  0  0  0  0  0  0
  1  2  2  0
  2  3  1  0
  3  4  2  0
  4  5  1  0
  5  6  2  0
  6  7  1  0
  6  8  1  0
  8  9  2  0
  9 10  1  0
 10 11  2  0
 11 12  1  0
 12 13  2  0
 13 14  1  0
 14 15  2  0
 15 16  1  0
 16 17  2  0
 17 18  1  0
 18 19  1  0
 19 20  1  0
 20 21  1  0
 21 22  1  0
 22 23  1  0
 23 24  1  0
 18 25  2  0
 11 26  1  0
 26 27  1  0
 27 28  1  0
 28 29  1  0
 29 30  1  0
 30 31  1  0
 31 32  1  0
 32 33  1  0
 26  2  1  0
 33 28  1  0
  9  3  1  0
 25 14  1  0
 24 19  1  0
  4 34  1  0
  5 35  1  0
  8 36  1  0
 12 37  1  0
 13 38  1  0
 15 39  1  0
 16 40  1  0
 17 41  1  0
 20 42  1  0
 20 43  1  0
 21 44  1  0
 21 45  1  0
 23 46  1  0
 23 47  1  0
 24 48  1  0
 24 49  1  0
 25 50  1  0
 27 51  1  0
 27 52  1  0
 28 53  1  0
 29 54  1  0
 29 55  1  0
 30 56  1  0
 30 57  1  0
 31 58  1  0
 31 59  1  0
 32 60  1  0
 32 61  1  0
 33 62  1  0
 33 63  1  0
M  END
>  <smiles>  (28) 
O=c1c2ccc(F)cc2nc(/C=C/c2cccc(N3CCOCC3)c2)n1CC1CCCCC1

>  <score_type>  (28) 
oracle

>  <origin>  (28) 
autodockgpu

>  <m_score__min__energy>  (28) 
-9.0299999999999994

>  <m_primary>  (28) 
energy

>  <rmsd>  (28) 
11.44976443628254

>  <m_score__min__rmsd>  (28) 
11.44976443628254

>  <meeko>  (28) 
{"free_energy": -8.13, "intermolecular_energy": -9.92, "internal_energy": -1.9, "cluster_size": 15, "cluster_id": 3, "rank_in_cluster": 9}

>  <energy>  (28) 
-8.22

>  <cluster_rmsd>  (28) 
1.32

>  <cluster>  (28) 
3

$$$$

     RDKit          3D

 63 67  0  0  0  0  0  0  0  0999 V2000
  139.0180   67.8780  225.2750 O   0  0  0  0  0  0  0  0  0  0  0  0
  139.4280   69.0400  225.0210 C   0  0  0  0  0  0  0  0  0  0  0  0
  140.0140   69.7440  226.0440 C   0  0  0  0  0  0  0  0  0  0  0  0
  140.1290   69.1510  227.3010 C   0  0  0  0  0  0  0  0  0  0  0  0
  140.7220   69.8730  228.3250 C   0  0  0  0  0  0  0  0  0  0  0  0
  141.1900   71.1630  228.0880 C   0  0  0  0  0  0  0  0  0  0  0  0
  141.7730   71.8850  229.0770 F   0  0  0  0  0  0  0  0  0  0  0  0
  141.0660   71.7270  226.8350 C   0  0  0  0  0  0  0  0  0  0  0  0
  140.4730   71.0170  225.7980 C   0  0  0  0  0  0  0  0  0  0  0  0
  140.3270   71.5170  224.5620 N   0  0  0  0  0  0  0  0  0  0  0  0
  139.7490   70.7970  223.5890 C   0  0  0  0  0  0  0  0  0  0  0  0
  139.6820   71.4200  222.2660 C   0  0  0  0  0  0  0  0  0  0  0  0
  139.1960   72.6340  222.1080 C   0  0  0  0  0  0  0  0  0  0  0  0
  139.9880   73.7970  221.7400 C   0  0  0  0  0  0  0  0  0  0  0  0
  141.0530   73.7540  220.8670 C   0  0  0  0  0  0  0  0  0  0  0  0
  141.7920   74.8850  220.5340 C   0  0  0  0  0  0  0  0  0  0  0  0
  141.4430   76.0870  221.0990 C   0  0  0  0  0  0  0  0  0  0  0  0
  140.3700   76.1830  221.9900 C   0  0  0  0  0  0  0  0  0  0  0  0
  140.0260   77.4360  222.5640 N   0  0  0  0  0  0  0  0  0  0  0  0
  141.0950   78.2850  223.0320 C   0  0  0  0  0  0  0  0  0  0  0  0
  140.6540   79.6660  223.3930 C   0  0  0  0  0  0  0  0  0  0  0  0
  139.3590   79.7040  223.9110 O   0  0  0  0  0  0  0  0  0  0  0  0
  138.4870   79.3150  222.8960 C   0  0  0  0  0  0  0  0  0  0  0  0
  138.6460   77.8190  222.6630 C   0  0  0  0  0  0  0  0  0  0  0  0
  139.6780   75.0270  222.2800 C   0  0  0  0  0  0  0  0  0  0  0  0
  139.2830   69.5580  223.7640 N   0  0  0  0  0  0  0  0  0  0  0  0
  138.6190   68.7450  222.8080 C   0  0  0  0  0  0  0  0  0  0  0  0
  137.1260   68.9060  222.7080 C   0  0  0  0  0  0  0  0  0  0  0  0
  136.5240   69.2720  223.9900 C   0  0  0  0  0  0  0  0  0  0  0  0
  136.4160   70.7570  224.2410 C   0  0  0  0  0  0  0  0  0  0  0  0
  135.4920   71.2510  223.1480 C   0  0  0  0  0  0  0  0  0  0  0  0
  136.2570   71.1370  221.8590 C   0  0  0  0  0  0  0  0  0  0  0  0
  136.8260   69.7970  221.5500 C   0  0  0  0  0  0  0  0  0  0  0  0
  139.7566   68.1309  227.4763 H   0  0  0  0  0  0  0  0  0  0  0  0
  140.8230   69.4267  229.3253 H   0  0  0  0  0  0  0  0  0  0  0  0
  141.4392   72.7461  226.6556 H   0  0  0  0  0  0  0  0  0  0  0  0
  140.0439   70.8645  221.3883 H   0  0  0  0  0  0  0  0  0  0  0  0
  138.1169   72.7781  222.2652 H   0  0  0  0  0  0  0  0  0  0  0  0
  141.3294   72.7894  220.4163 H   0  0  0  0  0  0  0  0  0  0  0  0
  142.6374   74.8177  219.8334 H   0  0  0  0  0  0  0  0  0  0  0  0
  142.0178   76.9901  220.8461 H   0  0  0  0  0  0  0  0  0  0  0  0
  141.5426   77.8199  223.9227 H   0  0  0  0  0  0  0  0  0  0  0  0
  141.8118   78.3838  222.2035 H   0  0  0  0  0  0  0  0  0  0  0  0
  141.3457   80.0695  224.1471 H   0  0  0  0  0  0  0  0  0  0  0  0
  140.6587   80.2658  222.4710 H   0  0  0  0  0  0  0  0  0  0  0  0
  137.4511   79.5353  223.1933 H   0  0  0  0  0  0  0  0  0  0  0  0
  138.7182   79.8650  221.9719 H   0  0  0  0  0  0  0  0  0  0  0  0
  138.1861   77.2775  223.5028 H   0  0  0  0  0  0  0  0  0  0  0  0
  138.1536   77.5681  221.7119 H   0  0  0  0  0  0  0  0  0  0  0  0
  138.8322   75.0891  222.9805 H   0  0  0  0  0  0  0  0  0  0  0  0
  139.0463   68.9741  221.8206 H   0  0  0  0  0  0  0  0  0  0  0  0
  138.7773   67.7105  223.1467 H   0  0  0  0  0  0  0  0  0  0  0  0
  136.6342   67.9460  222.4922 H   0  0  0  0  0  0  0  0  0  0  0  0
  135.5110   68.8448  224.0261 H   0  0  0  0  0  0  0  0  0  0  0  0
  137.1920   68.8754  224.7688 H   0  0  0  0  0  0  0  0  0  0  0  0
  135.9865   70.9548  225.2342 H   0  0  0  0  0  0  0  0  0  0  0  0
  137.3943   71.2597  224.2254 H   0  0  0  0  0  0  0  0  0  0  0  0
  134.5849   70.6301  223.1078 H   0  0  0  0  0  0  0  0  0  0  0  0
  135.1760   72.2883  223.3328 H   0  0  0  0  0  0  0  0  0  0  0  0
  135.5762   71.4099  221.0392 H   0  0  0  0  0  0  0  0  0  0  0  0
  137.1227   71.8065  221.9698 H   0  0  0  0  0  0  0  0  0  0  0  0
  136.1066   69.2717  220.9046 H   0  0  0  0  0  0  0  0  0  0  0  0
  137.8021   70.0010  221.0857 H   0  0  0  0  0  0  0  0  0  0  0  0
  1  2  2  0
  2  3  1  0
  3  4  2  0
  4  5  1  0
  5  6  2  0
  6  7  1  0
  6  8  1  0
  8  9  2  0
  9 10  1  0
 10 11  2  0
 11 12  1  0
 12 13  2  0
 13 14  1  0
 14 15  2  0
 15 16  1  0
 16 17  2  0
 17 18  1  0
 18 19  1  0
 19 20  1  0
 20 21  1  0
 21 22  1  0
 22 23  1  0
 23 24  1  0
 18 25  2  0
 11 26  1  0
 26 27  1  0
 27 28  1  0
 28 29  1  0
 29 30  1  0
 30 31  1  0
 31 32  1  0
 32 33  1  0
 26  2  1  0
 33 28  1  0
  9  3  1  0
 25 14  1  0
 24 19  1  0
  4 34  1  0
  5 35  1  0
  8 36  1  0
 12 37  1  0
 13 38  1  0
 15 39  1  0
 16 40  1  0
 17 41  1  0
 20 42  1  0
 20 43  1  0
 21 44  1  0
 21 45  1  0
 23 46  1  0
 23 47  1  0
 24 48  1  0
 24 49  1  0
 25 50  1  0
 27 51  1  0
 27 52  1  0
 28 53  1  0
 29 54  1  0
 29 55  1  0
 30 56  1  0
 30 57  1  0
 31 58  1  0
 31 59  1  0
 32 60  1  0
 32 61  1  0
 33 62  1  0
 33 63  1  0
M  END
>  <smiles>  (29) 
O=c1c2ccc(F)cc2nc(/C=C/c2cccc(N3CCOCC3)c2)n1CC1CCCCC1

>  <score_type>  (29) 
oracle

>  <origin>  (29) 
autodockgpu

>  <m_score__min__energy>  (29) 
-9.0299999999999994

>  <m_primary>  (29) 
energy

>  <rmsd>  (29) 
11.379439201018707

>  <m_score__min__rmsd>  (29) 
11.379439201018707

>  <meeko>  (29) 
{"free_energy": -8.21, "intermolecular_energy": -10.0, "internal_energy": -1.96, "cluster_size": 15, "cluster_id": 3, "rank_in_cluster": 3}

>  <energy>  (29) 
-8.21

>  <cluster_rmsd>  (29) 
1.32

>  <cluster>  (29) 
3

$$$$

     RDKit          3D

 63 67  0  0  0  0  0  0  0  0999 V2000
  142.6280   77.6740  219.1170 O   0  0  0  0  0  0  0  0  0  0  0  0
  141.9410   77.1490  220.0320 C   0  0  0  0  0  0  0  0  0  0  0  0
  141.5100   77.9640  221.0500 C   0  0  0  0  0  0  0  0  0  0  0  0
  141.8470   79.3180  221.0280 C   0  0  0  0  0  0  0  0  0  0  0  0
  141.4060   80.1290  222.0620 C   0  0  0  0  0  0  0  0  0  0  0  0
  140.6430   79.5890  223.0940 C   0  0  0  0  0  0  0  0  0  0  0  0
  140.2030   80.3670  224.1150 F   0  0  0  0  0  0  0  0  0  0  0  0
  140.3230   78.2470  223.0930 C   0  0  0  0  0  0  0  0  0  0  0  0
  140.7580   77.4200  222.0640 C   0  0  0  0  0  0  0  0  0  0  0  0
  140.4760   76.1100  222.0140 N   0  0  0  0  0  0  0  0  0  0  0  0
  140.9150   75.3470  221.0020 C   0  0  0  0  0  0  0  0  0  0  0  0
  140.5120   73.9400  221.0190 C   0  0  0  0  0  0  0  0  0  0  0  0
  141.0140   73.0980  221.9000 C   0  0  0  0  0  0  0  0  0  0  0  0
  140.2290   72.1560  222.6790 C   0  0  0  0  0  0  0  0  0  0  0  0
  139.1070   71.5120  222.2030 C   0  0  0  0  0  0  0  0  0  0  0  0
  138.3760   70.6150  222.9750 C   0  0  0  0  0  0  0  0  0  0  0  0
  138.7910   70.3630  224.2590 C   0  0  0  0  0  0  0  0  0  0  0  0
  139.9230   70.9900  224.7890 C   0  0  0  0  0  0  0  0  0  0  0  0
  140.3360   70.7160  226.1210 N   0  0  0  0  0  0  0  0  0  0  0  0
  140.8940   71.7990  226.8950 C   0  0  0  0  0  0  0  0  0  0  0  0
  141.0720   71.4740  228.3430 C   0  0  0  0  0  0  0  0  0  0  0  0
  141.3800   70.1320  228.5640 O   0  0  0  0  0  0  0  0  0  0  0  0
  140.2780   69.3760  228.1730 C   0  0  0  0  0  0  0  0  0  0  0  0
  140.1900   69.3900  226.6530 C   0  0  0  0  0  0  0  0  0  0  0  0
  140.6040   71.8680  223.9750 C   0  0  0  0  0  0  0  0  0  0  0  0
  141.6500   75.8140  219.9890 N   0  0  0  0  0  0  0  0  0  0  0  0
  142.1940   75.0740  218.9060 C   0  0  0  0  0  0  0  0  0  0  0  0
  143.6900   74.9260  218.8760 C   0  0  0  0  0  0  0  0  0  0  0  0
  144.2680   74.8910  220.2200 C   0  0  0  0  0  0  0  0  0  0  0  0
  144.3950   73.5130  220.8220 C   0  0  0  0  0  0  0  0  0  0  0  0
  145.3540   72.7920  219.8970 C   0  0  0  0  0  0  0  0  0  0  0  0
  144.6170   72.5770  218.6040 C   0  0  0  0  0  0  0  0  0  0  0  0
  144.0340   73.7920  217.9720 C   0  0  0  0  0  0  0  0  0  0  0  0
  142.4501   79.7331  220.2071 H   0  0  0  0  0  0  0  0  0  0  0  0
  141.6589   81.1995  222.0673 H   0  0  0  0  0  0  0  0  0  0  0  0
  139.7195   77.8287  223.9121 H   0  0  0  0  0  0  0  0  0  0  0  0
  139.7776   73.5791  220.2839 H   0  0  0  0  0  0  0  0  0  0  0  0
  142.1028   73.1093  222.0562 H   0  0  0  0  0  0  0  0  0  0  0  0
  138.7771   71.7152  221.1735 H   0  0  0  0  0  0  0  0  0  0  0  0
  137.4843   70.1181  222.5653 H   0  0  0  0  0  0  0  0  0  0  0  0
  138.2234   69.6558  224.8816 H   0  0  0  0  0  0  0  0  0  0  0  0
  141.8769   72.0564  226.4736 H   0  0  0  0  0  0  0  0  0  0  0  0
  140.1809   72.6347  226.8387 H   0  0  0  0  0  0  0  0  0  0  0  0
  141.8889   72.0922  228.7436 H   0  0  0  0  0  0  0  0  0  0  0  0
  140.1167   71.6809  228.8477 H   0  0  0  0  0  0  0  0  0  0  0  0
  140.3946   68.3412  228.5274 H   0  0  0  0  0  0  0  0  0  0  0  0
  139.3600   69.8008  228.6052 H   0  0  0  0  0  0  0  0  0  0  0  0
  140.9883   68.7529  226.2445 H   0  0  0  0  0  0  0  0  0  0  0  0
  139.1970   69.0143  226.3652 H   0  0  0  0  0  0  0  0  0  0  0  0
  141.4963   72.3672  224.3808 H   0  0  0  0  0  0  0  0  0  0  0  0
  141.7593   74.0641  218.9401 H   0  0  0  0  0  0  0  0  0  0  0  0
  141.9415   75.6513  218.0044 H   0  0  0  0  0  0  0  0  0  0  0  0
  144.1695   75.8173  218.4451 H   0  0  0  0  0  0  0  0  0  0  0  0
  145.2726   75.3365  220.1715 H   0  0  0  0  0  0  0  0  0  0  0  0
  143.5752   75.4478  220.8681 H   0  0  0  0  0  0  0  0  0  0  0  0
  144.8037   73.5686  221.8417 H   0  0  0  0  0  0  0  0  0  0  0  0
  143.4261   72.9995  220.9088 H   0  0  0  0  0  0  0  0  0  0  0  0
  146.2510   73.4053  219.7260 H   0  0  0  0  0  0  0  0  0  0  0  0
  145.6841   71.8367  220.3312 H   0  0  0  0  0  0  0  0  0  0  0  0
  145.3208   72.1299  217.8865 H   0  0  0  0  0  0  0  0  0  0  0  0
  143.7599   71.9352  218.8560 H   0  0  0  0  0  0  0  0  0  0  0  0
  144.7609   74.1639  217.2349 H   0  0  0  0  0  0  0  0  0  0  0  0
  143.0734   73.4616  217.5500 H   0  0  0  0  0  0  0  0  0  0  0  0
  1  2  2  0
  2  3  1  0
  3  4  2  0
  4  5  1  0
  5  6  2  0
  6  7  1  0
  6  8  1  0
  8  9  2  0
  9 10  1  0
 10 11  2  0
 11 12  1  0
 12 13  2  0
 13 14  1  0
 14 15  2  0
 15 16  1  0
 16 17  2  0
 17 18  1  0
 18 19  1  0
 19 20  1  0
 20 21  1  0
 21 22  1  0
 22 23  1  0
 23 24  1  0
 18 25  2  0
 11 26  1  0
 26 27  1  0
 27 28  1  0
 28 29  1  0
 29 30  1  0
 30 31  1  0
 31 32  1  0
 32 33  1  0
 26  2  1  0
 33 28  1  0
  9  3  1  0
 25 14  1  0
 24 19  1  0
  4 34  1  0
  5 35  1  0
  8 36  1  0
 12 37  1  0
 13 38  1  0
 15 39  1  0
 16 40  1  0
 17 41  1  0
 20 42  1  0
 20 43  1  0
 21 44  1  0
 21 45  1  0
 23 46  1  0
 23 47  1  0
 24 48  1  0
 24 49  1  0
 25 50  1  0
 27 51  1  0
 27 52  1  0
 28 53  1  0
 29 54  1  0
 29 55  1  0
 30 56  1  0
 30 57  1  0
 31 58  1  0
 31 59  1  0
 32 60  1  0
 32 61  1  0
 33 62  1  0
 33 63  1  0
M  END
>  <smiles>  (30) 
O=c1c2ccc(F)cc2nc(/C=C/c2cccc(N3CCOCC3)c2)n1CC1CCCCC1

>  <score_type>  (30) 
oracle

>  <origin>  (30) 
autodockgpu

>  <m_score__min__energy>  (30) 
-9.0299999999999994

>  <m_primary>  (30) 
energy

>  <rmsd>  (30) 
4.762550417960824

>  <m_score__min__rmsd>  (30) 
4.762550417960824

>  <meeko>  (30) 
{"free_energy": -8.47, "intermolecular_energy": -10.26, "internal_energy": -1.68, "cluster_size": 8, "cluster_id": 2, "rank_in_cluster": 4}

>  <energy>  (30) 
-8.17

>  <cluster_rmsd>  (30) 
0.67

>  <cluster>  (30) 
3

$$$$

     RDKit          3D

 63 67  0  0  0  0  0  0  0  0999 V2000
  138.9370   67.7570  225.3260 O   0  0  0  0  0  0  0  0  0  0  0  0
  139.3060   68.9360  225.0830 C   0  0  0  0  0  0  0  0  0  0  0  0
  139.9340   69.6250  226.0910 C   0  0  0  0  0  0  0  0  0  0  0  0
  140.1330   69.0020  227.3230 C   0  0  0  0  0  0  0  0  0  0  0  0
  140.7670   69.7100  228.3320 C   0  0  0  0  0  0  0  0  0  0  0  0
  141.1910   71.0160  228.1050 C   0  0  0  0  0  0  0  0  0  0  0  0
  141.8130   71.7250  229.0800 F   0  0  0  0  0  0  0  0  0  0  0  0
  140.9830   71.6120  226.8770 C   0  0  0  0  0  0  0  0  0  0  0  0
  140.3480   70.9150  225.8560 C   0  0  0  0  0  0  0  0  0  0  0  0
  140.1210   71.4450  224.6450 N   0  0  0  0  0  0  0  0  0  0  0  0
  139.5050   70.7380  223.6860 C   0  0  0  0  0  0  0  0  0  0  0  0
  139.3480   71.3940  222.3870 C   0  0  0  0  0  0  0  0  0  0  0  0
  139.2100   72.7020  222.2970 C   0  0  0  0  0  0  0  0  0  0  0  0
  140.2010   73.5970  221.7240 C   0  0  0  0  0  0  0  0  0  0  0  0
  140.0130   74.9540  221.5720 C   0  0  0  0  0  0  0  0  0  0  0  0
  140.9820   75.7860  221.0190 C   0  0  0  0  0  0  0  0  0  0  0  0
  142.1690   75.2300  220.6120 C   0  0  0  0  0  0  0  0  0  0  0  0
  142.4090   73.8590  220.7450 C   0  0  0  0  0  0  0  0  0  0  0  0
  143.6450   73.3030  220.3170 N   0  0  0  0  0  0  0  0  0  0  0  0
  144.8640   73.9060  220.8030 C   0  0  0  0  0  0  0  0  0  0  0  0
  146.0920   73.1120  220.4940 C   0  0  0  0  0  0  0  0  0  0  0  0
  146.0030   72.4230  219.2850 O   0  0  0  0  0  0  0  0  0  0  0  0
  144.9970   71.4680  219.4160 C   0  0  0  0  0  0  0  0  0  0  0  0
  143.6490   72.1760  219.4280 C   0  0  0  0  0  0  0  0  0  0  0  0
  141.4100   73.0890  221.3000 C   0  0  0  0  0  0  0  0  0  0  0  0
  139.0780   69.4830  223.8520 N   0  0  0  0  0  0  0  0  0  0  0  0
  138.3790   68.6810  222.9120 C   0  0  0  0  0  0  0  0  0  0  0  0
  139.1820   67.6290  222.1960 C   0  0  0  0  0  0  0  0  0  0  0  0
  138.6100   66.2920  222.3580 C   0  0  0  0  0  0  0  0  0  0  0  0
  137.6110   65.8950  221.2980 C   0  0  0  0  0  0  0  0  0  0  0  0
  138.4160   65.8910  220.0150 C   0  0  0  0  0  0  0  0  0  0  0  0
  138.7420   67.3270  219.7130 C   0  0  0  0  0  0  0  0  0  0  0  0
  139.4190   68.0890  220.7970 C   0  0  0  0  0  0  0  0  0  0  0  0
  139.7935   67.9692  227.4905 H   0  0  0  0  0  0  0  0  0  0  0  0
  140.9350   69.2397  229.3121 H   0  0  0  0  0  0  0  0  0  0  0  0
  141.3218   72.6444  226.7058 H   0  0  0  0  0  0  0  0  0  0  0  0
  139.3451   70.7855  221.4706 H   0  0  0  0  0  0  0  0  0  0  0  0
  138.2805   73.1465  222.6823 H   0  0  0  0  0  0  0  0  0  0  0  0
  139.0608   75.3962  221.9003 H   0  0  0  0  0  0  0  0  0  0  0  0
  140.8005   76.8655  220.9105 H   0  0  0  0  0  0  0  0  0  0  0  0
  142.9452   75.8744  220.1735 H   0  0  0  0  0  0  0  0  0  0  0  0
  144.9677   74.8994  220.3421 H   0  0  0  0  0  0  0  0  0  0  0  0
  144.7822   73.9580  221.8987 H   0  0  0  0  0  0  0  0  0  0  0  0
  146.9503   73.7982  220.4445 H   0  0  0  0  0  0  0  0  0  0  0  0
  146.2109   72.3643  221.2920 H   0  0  0  0  0  0  0  0  0  0  0  0
  145.0394   70.7674  218.5690 H   0  0  0  0  0  0  0  0  0  0  0  0
  145.1333   70.9066  220.3521 H   0  0  0  0  0  0  0  0  0  0  0  0
  143.4214   72.5251  218.4100 H   0  0  0  0  0  0  0  0  0  0  0  0
  142.8911   71.4608  219.7803 H   0  0  0  0  0  0  0  0  0  0  0  0
  141.5873   72.0090  221.4108 H   0  0  0  0  0  0  0  0  0  0  0  0
  137.5643   68.1720  223.4479 H   0  0  0  0  0  0  0  0  0  0  0  0
  138.0465   69.3765  222.1274 H   0  0  0  0  0  0  0  0  0  0  0  0
  140.1756   67.5073  222.6519 H   0  0  0  0  0  0  0  0  0  0  0  0
  139.4340   65.5635  222.3408 H   0  0  0  0  0  0  0  0  0  0  0  0
  138.0600   66.3052  223.3106 H   0  0  0  0  0  0  0  0  0  0  0  0
  137.1994   64.8959  221.5039 H   0  0  0  0  0  0  0  0  0  0  0  0
  136.7490   66.5769  221.2536 H   0  0  0  0  0  0  0  0  0  0  0  0
  139.3411   65.3109  220.1483 H   0  0  0  0  0  0  0  0  0  0  0  0
  137.8513   65.4290  219.1918 H   0  0  0  0  0  0  0  0  0  0  0  0
  139.3986   67.3437  218.8306 H   0  0  0  0  0  0  0  0  0  0  0  0
  137.7720   67.8243  219.5652 H   0  0  0  0  0  0  0  0  0  0  0  0
  140.5020   68.0407  220.6105 H   0  0  0  0  0  0  0  0  0  0  0  0
  138.9859   69.0991  220.7505 H   0  0  0  0  0  0  0  0  0  0  0  0
  1  2  2  0
  2  3  1  0
  3  4  2  0
  4  5  1  0
  5  6  2  0
  6  7  1  0
  6  8  1  0
  8  9  2  0
  9 10  1  0
 10 11  2  0
 11 12  1  0
 12 13  2  0
 13 14  1  0
 14 15  2  0
 15 16  1  0
 16 17  2  0
 17 18  1  0
 18 19  1  0
 19 20  1  0
 20 21  1  0
 21 22  1  0
 22 23  1  0
 23 24  1  0
 18 25  2  0
 11 26  1  0
 26 27  1  0
 27 28  1  0
 28 29  1  0
 29 30  1  0
 30 31  1  0
 31 32  1  0
 32 33  1  0
 26  2  1  0
 33 28  1  0
  9  3  1  0
 25 14  1  0
 24 19  1  0
  4 34  1  0
  5 35  1  0
  8 36  1  0
 12 37  1  0
 13 38  1  0
 15 39  1  0
 16 40  1  0
 17 41  1  0
 20 42  1  0
 20 43  1  0
 21 44  1  0
 21 45  1  0
 23 46  1  0
 23 47  1  0
 24 48  1  0
 24 49  1  0
 25 50  1  0
 27 51  1  0
 27 52  1  0
 28 53  1  0
 29 54  1  0
 29 55  1  0
 30 56  1  0
 30 57  1  0
 31 58  1  0
 31 59  1  0
 32 60  1  0
 32 61  1  0
 33 62  1  0
 33 63  1  0
M  END
>  <smiles>  (31) 
O=c1c2ccc(F)cc2nc(/C=C/c2cccc(N3CCOCC3)c2)n1CC1CCCCC1

>  <score_type>  (31) 
oracle

>  <origin>  (31) 
autodockgpu

>  <m_score__min__energy>  (31) 
-9.0299999999999994

>  <m_primary>  (31) 
energy

>  <rmsd>  (31) 
11.964754782790836

>  <m_score__min__rmsd>  (31) 
11.964754782790836

>  <meeko>  (31) 
{"free_energy": -9.02, "intermolecular_energy": -10.81, "internal_energy": -1.5, "cluster_size": 18, "cluster_id": 1, "rank_in_cluster": 2}

>  <energy>  (31) 
-8.17

>  <cluster_rmsd>  (31) 
0.65

>  <cluster>  (31) 
3

$$$$

     RDKit          3D

 63 67  0  0  0  0  0  0  0  0999 V2000
  139.0890   67.8660  225.2110 O   0  0  0  0  0  0  0  0  0  0  0  0
  139.4800   69.0400  224.9800 C   0  0  0  0  0  0  0  0  0  0  0  0
  140.0550   69.7330  226.0150 C   0  0  0  0  0  0  0  0  0  0  0  0
  140.1810   69.1190  227.2610 C   0  0  0  0  0  0  0  0  0  0  0  0
  140.7640   69.8310  228.2980 C   0  0  0  0  0  0  0  0  0  0  0  0
  141.2100   71.1320  228.0840 C   0  0  0  0  0  0  0  0  0  0  0  0
  141.7820   71.8450  229.0870 F   0  0  0  0  0  0  0  0  0  0  0  0
  141.0750   71.7180  226.8430 C   0  0  0  0  0  0  0  0  0  0  0  0
  140.4920   71.0180  225.7930 C   0  0  0  0  0  0  0  0  0  0  0  0
  140.3370   71.5390  224.5670 N   0  0  0  0  0  0  0  0  0  0  0  0
  139.7700   70.8290  223.5810 C   0  0  0  0  0  0  0  0  0  0  0  0
  139.6910   71.4750  222.2700 C   0  0  0  0  0  0  0  0  0  0  0  0
  139.2040   72.6920  222.1390 C   0  0  0  0  0  0  0  0  0  0  0  0
  139.9880   73.8580  221.7670 C   0  0  0  0  0  0  0  0  0  0  0  0
  141.0440   73.8220  220.8820 C   0  0  0  0  0  0  0  0  0  0  0  0
  141.7770   74.9570  220.5460 C   0  0  0  0  0  0  0  0  0  0  0  0
  141.4320   76.1550  221.1200 C   0  0  0  0  0  0  0  0  0  0  0  0
  140.3690   76.2440  222.0250 C   0  0  0  0  0  0  0  0  0  0  0  0
  140.0280   77.4940  222.6090 N   0  0  0  0  0  0  0  0  0  0  0  0
  141.1000   78.3320  223.0900 C   0  0  0  0  0  0  0  0  0  0  0  0
  140.6640   79.7130  223.4610 C   0  0  0  0  0  0  0  0  0  0  0  0
  139.3670   79.7520  223.9730 O   0  0  0  0  0  0  0  0  0  0  0  0
  138.4980   79.3780  222.9500 C   0  0  0  0  0  0  0  0  0  0  0  0
  138.6500   77.8830  222.7040 C   0  0  0  0  0  0  0  0  0  0  0  0
  139.6830   75.0850  222.3160 C   0  0  0  0  0  0  0  0  0  0  0  0
  139.3240   69.5790  223.7320 N   0  0  0  0  0  0  0  0  0  0  0  0
  138.6730   68.7730  222.7620 C   0  0  0  0  0  0  0  0  0  0  0  0
  137.1810   68.9310  222.6480 C   0  0  0  0  0  0  0  0  0  0  0  0
  136.5640   69.2820  223.9270 C   0  0  0  0  0  0  0  0  0  0  0  0
  136.4490   70.7630  224.1930 C   0  0  0  0  0  0  0  0  0  0  0  0
  135.5350   71.2660  223.0960 C   0  0  0  0  0  0  0  0  0  0  0  0
  136.3140   71.1690  221.8140 C   0  0  0  0  0  0  0  0  0  0  0  0
  136.8900   69.8340  221.4970 C   0  0  0  0  0  0  0  0  0  0  0  0
  139.8248   68.0901  227.4178 H   0  0  0  0  0  0  0  0  0  0  0  0
  140.8741   69.3678  229.2896 H   0  0  0  0  0  0  0  0  0  0  0  0
  141.4311   72.7464  226.6829 H   0  0  0  0  0  0  0  0  0  0  0  0
  140.0442   70.9352  221.3790 H   0  0  0  0  0  0  0  0  0  0  0  0
  138.1292   72.8358  222.3240 H   0  0  0  0  0  0  0  0  0  0  0  0
  141.3180   72.8602  220.4239 H   0  0  0  0  0  0  0  0  0  0  0  0
  142.6146   74.8949  219.8357 H   0  0  0  0  0  0  0  0  0  0  0  0
  142.0012   77.0608  220.8640 H   0  0  0  0  0  0  0  0  0  0  0  0
  141.5403   77.8564  223.9788 H   0  0  0  0  0  0  0  0  0  0  0  0
  141.8223   78.4336  222.2666 H   0  0  0  0  0  0  0  0  0  0  0  0
  141.3540   80.1067  224.2218 H   0  0  0  0  0  0  0  0  0  0  0  0
  140.6763   80.3212  222.5445 H   0  0  0  0  0  0  0  0  0  0  0  0
  137.4619   79.6015  223.2440 H   0  0  0  0  0  0  0  0  0  0  0  0
  138.7367   79.9355  222.0323 H   0  0  0  0  0  0  0  0  0  0  0  0
  138.1826   77.3363  223.5363 H   0  0  0  0  0  0  0  0  0  0  0  0
  138.1613   77.6432  221.7481 H   0  0  0  0  0  0  0  0  0  0  0  0
  138.8450   75.1421  223.0262 H   0  0  0  0  0  0  0  0  0  0  0  0
  139.1101   69.0122  221.7813 H   0  0  0  0  0  0  0  0  0  0  0  0
  138.8309   67.7358  223.0927 H   0  0  0  0  0  0  0  0  0  0  0  0
  136.6954   67.9715  222.4167 H   0  0  0  0  0  0  0  0  0  0  0  0
  135.5518   68.8518  223.9473 H   0  0  0  0  0  0  0  0  0  0  0  0
  137.2248   68.8791  224.7086 H   0  0  0  0  0  0  0  0  0  0  0  0
  136.0086   70.9486  225.1837 H   0  0  0  0  0  0  0  0  0  0  0  0
  137.4259   71.2687  224.1932 H   0  0  0  0  0  0  0  0  0  0  0  0
  134.6305   70.6426  223.0392 H   0  0  0  0  0  0  0  0  0  0  0  0
  135.2134   72.3001  223.2889 H   0  0  0  0  0  0  0  0  0  0  0  0
  135.6412   71.4489  220.9900 H   0  0  0  0  0  0  0  0  0  0  0  0
  137.1763   71.8401  221.9409 H   0  0  0  0  0  0  0  0  0  0  0  0
  136.1788   69.3137  220.8386 H   0  0  0  0  0  0  0  0  0  0  0  0
  137.8704   70.0460  221.0455 H   0  0  0  0  0  0  0  0  0  0  0  0
  1  2  2  0
  2  3  1  0
  3  4  2  0
  4  5  1  0
  5  6  2  0
  6  7  1  0
  6  8  1  0
  8  9  2  0
  9 10  1  0
 10 11  2  0
 11 12  1  0
 12 13  2  0
 13 14  1  0
 14 15  2  0
 15 16  1  0
 16 17  2  0
 17 18  1  0
 18 19  1  0
 19 20  1  0
 20 21  1  0
 21 22  1  0
 22 23  1  0
 23 24  1  0
 18 25  2  0
 11 26  1  0
 26 27  1  0
 27 28  1  0
 28 29  1  0
 29 30  1  0
 30 31  1  0
 31 32  1  0
 32 33  1  0
 26  2  1  0
 33 28  1  0
  9  3  1  0
 25 14  1  0
 24 19  1  0
  4 34  1  0
  5 35  1  0
  8 36  1  0
 12 37  1  0
 13 38  1  0
 15 39  1  0
 16 40  1  0
 17 41  1  0
 20 42  1  0
 20 43  1  0
 21 44  1  0
 21 45  1  0
 23 46  1  0
 23 47  1  0
 24 48  1  0
 24 49  1  0
 25 50  1  0
 27 51  1  0
 27 52  1  0
 28 53  1  0
 29 54  1  0
 29 55  1  0
 30 56  1  0
 30 57  1  0
 31 58  1  0
 31 59  1  0
 32 60  1  0
 32 61  1  0
 33 62  1  0
 33 63  1  0
M  END
>  <smiles>  (32) 
O=c1c2ccc(F)cc2nc(/C=C/c2cccc(N3CCOCC3)c2)n1CC1CCCCC1

>  <score_type>  (32) 
oracle

>  <origin>  (32) 
autodockgpu

>  <m_score__min__energy>  (32) 
-9.0299999999999994

>  <m_primary>  (32) 
energy

>  <rmsd>  (32) 
11.359121968410502

>  <m_score__min__rmsd>  (32) 
11.359121968410502

>  <meeko>  (32) 
{"free_energy": -8.22, "intermolecular_energy": -10.01, "internal_energy": -1.96, "cluster_size": 15, "cluster_id": 3, "rank_in_cluster": 2}

>  <energy>  (32) 
-8.17

>  <cluster_rmsd>  (32) 
1.23

>  <cluster>  (32) 
3

$$$$

     RDKit          3D

 63 67  0  0  0  0  0  0  0  0999 V2000
  138.4830   68.2880  225.3120 O   0  0  0  0  0  0  0  0  0  0  0  0
  139.0920   69.3530  225.0290 C   0  0  0  0  0  0  0  0  0  0  0  0
  139.7850   69.9750  226.0370 C   0  0  0  0  0  0  0  0  0  0  0  0
  139.7850   69.4120  227.3140 C   0  0  0  0  0  0  0  0  0  0  0  0
  140.4870   70.0520  228.3230 C   0  0  0  0  0  0  0  0  0  0  0  0
  141.1750   71.2320  228.0520 C   0  0  0  0  0  0  0  0  0  0  0  0
  141.8680   71.8720  229.0270 F   0  0  0  0  0  0  0  0  0  0  0  0
  141.1610   71.7690  226.7820 C   0  0  0  0  0  0  0  0  0  0  0  0
  140.4600   71.1410  225.7590 C   0  0  0  0  0  0  0  0  0  0  0  0
  140.4130   71.6190  224.5070 N   0  0  0  0  0  0  0  0  0  0  0  0
  139.7250   70.9800  223.5490 C   0  0  0  0  0  0  0  0  0  0  0  0
  139.7780   71.5620  222.2070 C   0  0  0  0  0  0  0  0  0  0  0  0
  139.4920   72.8330  222.0040 C   0  0  0  0  0  0  0  0  0  0  0  0
  140.4280   73.8140  221.4820 C   0  0  0  0  0  0  0  0  0  0  0  0
  140.1810   75.1690  221.4480 C   0  0  0  0  0  0  0  0  0  0  0  0
  141.0980   76.0850  220.9410 C   0  0  0  0  0  0  0  0  0  0  0  0
  142.2950   75.6150  220.4570 C   0  0  0  0  0  0  0  0  0  0  0  0
  142.5930   74.2490  220.4690 C   0  0  0  0  0  0  0  0  0  0  0  0
  143.8380   73.7840  219.9630 N   0  0  0  0  0  0  0  0  0  0  0  0
  143.9550   73.5720  218.5410 C   0  0  0  0  0  0  0  0  0  0  0  0
  145.3540   73.3180  218.0830 C   0  0  0  0  0  0  0  0  0  0  0  0
  146.1180   72.6340  219.0280 O   0  0  0  0  0  0  0  0  0  0  0  0
  146.2610   73.4650  220.1370 C   0  0  0  0  0  0  0  0  0  0  0  0
  144.9270   73.5410  220.8660 C   0  0  0  0  0  0  0  0  0  0  0  0
  141.6440   73.3940  220.9840 C   0  0  0  0  0  0  0  0  0  0  0  0
  139.0480   69.8470  223.7550 N   0  0  0  0  0  0  0  0  0  0  0  0
  138.2590   69.1330  222.8160 C   0  0  0  0  0  0  0  0  0  0  0  0
  136.8160   69.5400  222.7010 C   0  0  0  0  0  0  0  0  0  0  0  0
  135.9780   68.8950  223.7130 C   0  0  0  0  0  0  0  0  0  0  0  0
  135.8330   69.6640  225.0030 C   0  0  0  0  0  0  0  0  0  0  0  0
  135.1410   70.9470  224.5930 C   0  0  0  0  0  0  0  0  0  0  0  0
  136.1410   71.7330  223.7910 C   0  0  0  0  0  0  0  0  0  0  0  0
  136.7500   71.0280  222.6310 C   0  0  0  0  0  0  0  0  0  0  0  0
  139.2387   68.4788  227.5156 H   0  0  0  0  0  0  0  0  0  0  0  0
  140.5007   69.6279  229.3379 H   0  0  0  0  0  0  0  0  0  0  0  0
  141.7084   72.7009  226.5770 H   0  0  0  0  0  0  0  0  0  0  0  0
  140.0612   70.9284  221.3536 H   0  0  0  0  0  0  0  0  0  0  0  0
  138.4748   73.1741  222.2465 H   0  0  0  0  0  0  0  0  0  0  0  0
  139.2217   75.5414  221.8367 H   0  0  0  0  0  0  0  0  0  0  0  0
  140.8697   77.1610  220.9280 H   0  0  0  0  0  0  0  0  0  0  0  0
  143.0313   76.3255  220.0532 H   0  0  0  0  0  0  0  0  0  0  0  0
  143.3375   72.7037  218.2677 H   0  0  0  0  0  0  0  0  0  0  0  0
  143.6200   74.4977  218.0502 H   0  0  0  0  0  0  0  0  0  0  0  0
  145.3183   72.7197  217.1607 H   0  0  0  0  0  0  0  0  0  0  0  0
  145.8303   74.2957  217.9181 H   0  0  0  0  0  0  0  0  0  0  0  0
  147.0278   73.0546  220.8104 H   0  0  0  0  0  0  0  0  0  0  0  0
  146.5692   74.4704  219.8143 H   0  0  0  0  0  0  0  0  0  0  0  0
  144.7514   72.5883  221.3870 H   0  0  0  0  0  0  0  0  0  0  0  0
  144.9740   74.3786  221.5775 H   0  0  0  0  0  0  0  0  0  0  0  0
  141.8679   72.3171  220.9990 H   0  0  0  0  0  0  0  0  0  0  0  0
  138.7215   69.2605  221.8261 H   0  0  0  0  0  0  0  0  0  0  0  0
  138.2394   68.0961  223.1827 H   0  0  0  0  0  0  0  0  0  0  0  0
  136.3713   69.1683  221.7660 H   0  0  0  0  0  0  0  0  0  0  0  0
  134.9745   68.7529  223.2854 H   0  0  0  0  0  0  0  0  0  0  0  0
  136.4792   67.9507  223.9719 H   0  0  0  0  0  0  0  0  0  0  0  0
  135.2207   69.1036  225.7248 H   0  0  0  0  0  0  0  0  0  0  0  0
  136.7989   69.8449  225.4973 H   0  0  0  0  0  0  0  0  0  0  0  0
  134.2551   70.7223  223.9809 H   0  0  0  0  0  0  0  0  0  0  0  0
  134.8012   71.5145  225.4719 H   0  0  0  0  0  0  0  0  0  0  0  0
  135.6340   72.6316  223.4096 H   0  0  0  0  0  0  0  0  0  0  0  0
  136.9731   71.9416  224.4796 H   0  0  0  0  0  0  0  0  0  0  0  0
  136.1650   71.2924  221.7377 H   0  0  0  0  0  0  0  0  0  0  0  0
  137.7987   71.3597  222.6139 H   0  0  0  0  0  0  0  0  0  0  0  0
  1  2  2  0
  2  3  1  0
  3  4  2  0
  4  5  1  0
  5  6  2  0
  6  7  1  0
  6  8  1  0
  8  9  2  0
  9 10  1  0
 10 11  2  0
 11 12  1  0
 12 13  2  0
 13 14  1  0
 14 15  2  0
 15 16  1  0
 16 17  2  0
 17 18  1  0
 18 19  1  0
 19 20  1  0
 20 21  1  0
 21 22  1  0
 22 23  1  0
 23 24  1  0
 18 25  2  0
 11 26  1  0
 26 27  1  0
 27 28  1  0
 28 29  1  0
 29 30  1  0
 30 31  1  0
 31 32  1  0
 32 33  1  0
 26  2  1  0
 33 28  1  0
  9  3  1  0
 25 14  1  0
 24 19  1  0
  4 34  1  0
  5 35  1  0
  8 36  1  0
 12 37  1  0
 13 38  1  0
 15 39  1  0
 16 40  1  0
 17 41  1  0
 20 42  1  0
 20 43  1  0
 21 44  1  0
 21 45  1  0
 23 46  1  0
 23 47  1  0
 24 48  1  0
 24 49  1  0
 25 50  1  0
 27 51  1  0
 27 52  1  0
 28 53  1  0
 29 54  1  0
 29 55  1  0
 30 56  1  0
 30 57  1  0
 31 58  1  0
 31 59  1  0
 32 60  1  0
 32 61  1  0
 33 62  1  0
 33 63  1  0
M  END
>  <smiles>  (33) 
O=c1c2ccc(F)cc2nc(/C=C/c2cccc(N3CCOCC3)c2)n1CC1CCCCC1

>  <score_type>  (33) 
oracle

>  <origin>  (33) 
autodockgpu

>  <m_score__min__energy>  (33) 
-9.0299999999999994

>  <m_primary>  (33) 
energy

>  <rmsd>  (33) 
11.540841037887212

>  <m_score__min__rmsd>  (33) 
11.540841037887212

>  <meeko>  (33) 
{"free_energy": -8.9, "intermolecular_energy": -10.69, "internal_energy": -1.81, "cluster_size": 18, "cluster_id": 1, "rank_in_cluster": 6}

>  <energy>  (33) 
-8.17

>  <cluster_rmsd>  (33) 
0.43

>  <cluster>  (33) 
3

$$$$

     RDKit          3D

 63 67  0  0  0  0  0  0  0  0999 V2000
  139.1280   67.6450  225.3630 O   0  0  0  0  0  0  0  0  0  0  0  0
  139.2780   68.8760  225.1470 C   0  0  0  0  0  0  0  0  0  0  0  0
  139.9250   69.6150  226.1060 C   0  0  0  0  0  0  0  0  0  0  0  0
  140.3810   68.9820  227.2620 C   0  0  0  0  0  0  0  0  0  0  0  0
  141.0320   69.7400  228.2230 C   0  0  0  0  0  0  0  0  0  0  0  0
  141.2190   71.1050  228.0240 C   0  0  0  0  0  0  0  0  0  0  0  0
  141.8530   71.8630  228.9530 F   0  0  0  0  0  0  0  0  0  0  0  0
  140.7580   71.7090  226.8720 C   0  0  0  0  0  0  0  0  0  0  0  0
  140.1030   70.9630  225.8990 C   0  0  0  0  0  0  0  0  0  0  0  0
  139.6370   71.4980  224.7620 N   0  0  0  0  0  0  0  0  0  0  0  0
  139.0100   70.7420  223.8480 C   0  0  0  0  0  0  0  0  0  0  0  0
  138.5820   71.4170  222.6220 C   0  0  0  0  0  0  0  0  0  0  0  0
  139.4080   71.5760  221.6080 C   0  0  0  0  0  0  0  0  0  0  0  0
  140.3180   72.6990  221.4560 C   0  0  0  0  0  0  0  0  0  0  0  0
  139.9760   74.0070  221.7260 C   0  0  0  0  0  0  0  0  0  0  0  0
  140.8700   75.0610  221.5700 C   0  0  0  0  0  0  0  0  0  0  0  0
  142.1410   74.7840  221.1300 C   0  0  0  0  0  0  0  0  0  0  0  0
  142.5370   73.4740  220.8420 C   0  0  0  0  0  0  0  0  0  0  0  0
  143.8570   73.2090  220.3870 N   0  0  0  0  0  0  0  0  0  0  0  0
  144.9080   74.1140  220.7880 C   0  0  0  0  0  0  0  0  0  0  0  0
  146.2810   73.6230  220.4640 C   0  0  0  0  0  0  0  0  0  0  0  0
  146.3250   72.8650  219.2950 O   0  0  0  0  0  0  0  0  0  0  0  0
  145.5850   71.7050  219.5160 C   0  0  0  0  0  0  0  0  0  0  0  0
  144.1070   72.0670  219.5530 C   0  0  0  0  0  0  0  0  0  0  0  0
  141.6050   72.4740  221.0160 C   0  0  0  0  0  0  0  0  0  0  0  0
  138.8040   69.4300  223.9900 N   0  0  0  0  0  0  0  0  0  0  0  0
  138.1140   68.5650  223.1010 C   0  0  0  0  0  0  0  0  0  0  0  0
  136.6110   68.5950  223.1630 C   0  0  0  0  0  0  0  0  0  0  0  0
  136.1230   69.2230  224.3900 C   0  0  0  0  0  0  0  0  0  0  0  0
  135.8990   70.7130  224.2960 C   0  0  0  0  0  0  0  0  0  0  0  0
  134.8140   70.8590  223.2490 C   0  0  0  0  0  0  0  0  0  0  0  0
  135.4390   70.4830  221.9340 C   0  0  0  0  0  0  0  0  0  0  0  0
  136.0980   69.1500  221.8780 C   0  0  0  0  0  0  0  0  0  0  0  0
  140.2272   67.9027  227.4084 H   0  0  0  0  0  0  0  0  0  0  0  0
  141.4008   69.2628  229.1429 H   0  0  0  0  0  0  0  0  0  0  0  0
  140.9099   72.7882  226.7227 H   0  0  0  0  0  0  0  0  0  0  0  0
  137.5530   71.7981  222.5458 H   0  0  0  0  0  0  0  0  0  0  0  0
  139.4090   70.8059  220.8225 H   0  0  0  0  0  0  0  0  0  0  0  0
  138.9571   74.2254  222.0783 H   0  0  0  0  0  0  0  0  0  0  0  0
  140.5656   76.0940  221.7942 H   0  0  0  0  0  0  0  0  0  0  0  0
  142.8600   75.6066  221.0019 H   0  0  0  0  0  0  0  0  0  0  0  0
  144.7531   75.0748  220.2752 H   0  0  0  0  0  0  0  0  0  0  0  0
  144.8506   74.2075  221.8825 H   0  0  0  0  0  0  0  0  0  0  0  0
  146.9450   74.4917  220.3440 H   0  0  0  0  0  0  0  0  0  0  0  0
  146.6023   72.9727  221.2910 H   0  0  0  0  0  0  0  0  0  0  0  0
  145.7699   70.9877  218.7028 H   0  0  0  0  0  0  0  0  0  0  0  0
  145.8823   71.2478  220.4713 H   0  0  0  0  0  0  0  0  0  0  0  0
  143.7703   72.2927  218.5304 H   0  0  0  0  0  0  0  0  0  0  0  0
  143.5565   71.2116  219.9716 H   0  0  0  0  0  0  0  0  0  0  0  0
  141.9043   71.4396  220.7916 H   0  0  0  0  0  0  0  0  0  0  0  0
  138.4112   68.8333  222.0764 H   0  0  0  0  0  0  0  0  0  0  0  0
  138.3968   67.5474  223.4085 H   0  0  0  0  0  0  0  0  0  0  0  0
  136.1943   67.5804  223.2461 H   0  0  0  0  0  0  0  0  0  0  0  0
  135.1670   68.7501  224.6590 H   0  0  0  0  0  0  0  0  0  0  0  0
  136.9092   69.0763  225.1453 H   0  0  0  0  0  0  0  0  0  0  0  0
  135.5661   71.1194  225.2624 H   0  0  0  0  0  0  0  0  0  0  0  0
  136.8155   71.2616  224.0331 H   0  0  0  0  0  0  0  0  0  0  0  0
  133.9731   70.1872  223.4764 H   0  0  0  0  0  0  0  0  0  0  0  0
  134.4198   71.8857  223.2239 H   0  0  0  0  0  0  0  0  0  0  0  0
  134.6481   70.4990  221.1696 H   0  0  0  0  0  0  0  0  0  0  0  0
  136.2423   71.2161  221.7692 H   0  0  0  0  0  0  0  0  0  0  0  0
  135.3658   68.4343  221.4760 H   0  0  0  0  0  0  0  0  0  0  0  0
  136.9914   69.2986  221.2537 H   0  0  0  0  0  0  0  0  0  0  0  0
  1  2  2  0
  2  3  1  0
  3  4  2  0
  4  5  1  0
  5  6  2  0
  6  7  1  0
  6  8  1  0
  8  9  2  0
  9 10  1  0
 10 11  2  0
 11 12  1  0
 12 13  2  0
 13 14  1  0
 14 15  2  0
 15 16  1  0
 16 17  2  0
 17 18  1  0
 18 19  1  0
 19 20  1  0
 20 21  1  0
 21 22  1  0
 22 23  1  0
 23 24  1  0
 18 25  2  0
 11 26  1  0
 26 27  1  0
 27 28  1  0
 28 29  1  0
 29 30  1  0
 30 31  1  0
 31 32  1  0
 32 33  1  0
 26  2  1  0
 33 28  1  0
  9  3  1  0
 25 14  1  0
 24 19  1  0
  4 34  1  0
  5 35  1  0
  8 36  1  0
 12 37  1  0
 13 38  1  0
 15 39  1  0
 16 40  1  0
 17 41  1  0
 20 42  1  0
 20 43  1  0
 21 44  1  0
 21 45  1  0
 23 46  1  0
 23 47  1  0
 24 48  1  0
 24 49  1  0
 25 50  1  0
 27 51  1  0
 27 52  1  0
 28 53  1  0
 29 54  1  0
 29 55  1  0
 30 56  1  0
 30 57  1  0
 31 58  1  0
 31 59  1  0
 32 60  1  0
 32 61  1  0
 33 62  1  0
 33 63  1  0
M  END
>  <smiles>  (34) 
O=c1c2ccc(F)cc2nc(/C=C/c2cccc(N3CCOCC3)c2)n1CC1CCCCC1

>  <score_type>  (34) 
oracle

>  <origin>  (34) 
autodockgpu

>  <m_score__min__energy>  (34) 
-9.0299999999999994

>  <m_primary>  (34) 
energy

>  <rmsd>  (34) 
11.610946795989387

>  <m_score__min__rmsd>  (34) 
11.610946795989387

>  <meeko>  (34) 
{"free_energy": -8.66, "intermolecular_energy": -10.45, "internal_energy": -1.84, "cluster_size": 18, "cluster_id": 1, "rank_in_cluster": 12}

>  <energy>  (34) 
-8.16

>  <cluster_rmsd>  (34) 
0.69

>  <cluster>  (34) 
3

$$$$

     RDKit          3D

 63 67  0  0  0  0  0  0  0  0999 V2000
  139.9770   83.4060  219.9500 O   0  0  0  0  0  0  0  0  0  0  0  0
  140.7950   82.5250  219.5750 C   0  0  0  0  0  0  0  0  0  0  0  0
  141.6470   82.8450  218.5480 C   0  0  0  0  0  0  0  0  0  0  0  0
  141.5730   84.1120  217.9700 C   0  0  0  0  0  0  0  0  0  0  0  0
  142.4400   84.4220  216.9330 C   0  0  0  0  0  0  0  0  0  0  0  0
  143.3590   83.4750  216.4880 C   0  0  0  0  0  0  0  0  0  0  0  0
  144.2140   83.7600  215.4740 F   0  0  0  0  0  0  0  0  0  0  0  0
  143.4130   82.2280  217.0760 C   0  0  0  0  0  0  0  0  0  0  0  0
  142.5510   81.9020  218.1160 C   0  0  0  0  0  0  0  0  0  0  0  0
  142.5610   80.7060  218.7220 N   0  0  0  0  0  0  0  0  0  0  0  0
  141.7110   80.4320  219.7240 C   0  0  0  0  0  0  0  0  0  0  0  0
  141.8370   79.1150  220.3470 C   0  0  0  0  0  0  0  0  0  0  0  0
  141.1070   78.0960  219.9400 C   0  0  0  0  0  0  0  0  0  0  0  0
  141.3070   76.7190  220.3610 C   0  0  0  0  0  0  0  0  0  0  0  0
  140.4220   76.0230  221.1560 C   0  0  0  0  0  0  0  0  0  0  0  0
  140.6420   74.7040  221.5430 C   0  0  0  0  0  0  0  0  0  0  0  0
  141.7860   74.0770  221.1140 C   0  0  0  0  0  0  0  0  0  0  0  0
  142.7150   74.7400  220.3060 C   0  0  0  0  0  0  0  0  0  0  0  0
  143.8920   74.0720  219.8730 N   0  0  0  0  0  0  0  0  0  0  0  0
  144.0410   73.8060  218.4620 C   0  0  0  0  0  0  0  0  0  0  0  0
  145.4030   73.3240  218.0810 C   0  0  0  0  0  0  0  0  0  0  0  0
  146.0040   72.5530  219.0770 O   0  0  0  0  0  0  0  0  0  0  0  0
  146.2240   73.3800  220.1760 C   0  0  0  0  0  0  0  0  0  0  0  0
  144.8860   73.6840  220.8340 C   0  0  0  0  0  0  0  0  0  0  0  0
  142.4400   76.0440  219.9580 C   0  0  0  0  0  0  0  0  0  0  0  0
  140.8100   81.3030  220.1880 N   0  0  0  0  0  0  0  0  0  0  0  0
  139.8470   81.0840  221.2070 C   0  0  0  0  0  0  0  0  0  0  0  0
  140.3310   81.1950  222.6270 C   0  0  0  0  0  0  0  0  0  0  0  0
  139.9560   80.0310  223.4300 C   0  0  0  0  0  0  0  0  0  0  0  0
  140.9670   78.9100  223.4370 C   0  0  0  0  0  0  0  0  0  0  0  0
  142.1950   79.5240  224.0750 C   0  0  0  0  0  0  0  0  0  0  0  0
  142.7360   80.5190  223.0860 C   0  0  0  0  0  0  0  0  0  0  0  0
  141.7790   81.5510  222.6040 C   0  0  0  0  0  0  0  0  0  0  0  0
  140.8415   84.8507  218.3295 H   0  0  0  0  0  0  0  0  0  0  0  0
  142.4018   85.4154  216.4622 H   0  0  0  0  0  0  0  0  0  0  0  0
  144.1433   81.4869  216.7191 H   0  0  0  0  0  0  0  0  0  0  0  0
  142.5534   78.9724  221.1695 H   0  0  0  0  0  0  0  0  0  0  0  0
  140.2899   78.3016  219.2329 H   0  0  0  0  0  0  0  0  0  0  0  0
  139.5070   76.5290  221.4977 H   0  0  0  0  0  0  0  0  0  0  0  0
  139.9157   74.1758  222.1782 H   0  0  0  0  0  0  0  0  0  0  0  0
  141.9749   73.0349  221.4112 H   0  0  0  0  0  0  0  0  0  0  0  0
  143.3080   73.0379  218.1743 H   0  0  0  0  0  0  0  0  0  0  0  0
  143.8793   74.7590  217.9369 H   0  0  0  0  0  0  0  0  0  0  0  0
  145.3175   72.7148  217.1691 H   0  0  0  0  0  0  0  0  0  0  0  0
  146.0349   74.2104  217.9230 H   0  0  0  0  0  0  0  0  0  0  0  0
  146.8832   72.8720  220.8953 H   0  0  0  0  0  0  0  0  0  0  0  0
  146.7027   74.3155  219.8510 H   0  0  0  0  0  0  0  0  0  0  0  0
  144.5374   72.7846  221.3628 H   0  0  0  0  0  0  0  0  0  0  0  0
  145.0318   74.5225  221.5309 H   0  0  0  0  0  0  0  0  0  0  0  0
  143.1640   76.5763  219.3236 H   0  0  0  0  0  0  0  0  0  0  0  0
  139.0427   81.8218  221.0700 H   0  0  0  0  0  0  0  0  0  0  0  0
  139.5333   80.0363  221.0889 H   0  0  0  0  0  0  0  0  0  0  0  0
  139.8219   82.0122  223.1589 H   0  0  0  0  0  0  0  0  0  0  0  0
  139.8092   80.3650  224.4677 H   0  0  0  0  0  0  0  0  0  0  0  0
  139.0444   79.6208  222.9709 H   0  0  0  0  0  0  0  0  0  0  0  0
  140.6024   78.0591  224.0311 H   0  0  0  0  0  0  0  0  0  0  0  0
  141.1670   78.5157  222.4298 H   0  0  0  0  0  0  0  0  0  0  0  0
  141.9234   80.0297  225.0133 H   0  0  0  0  0  0  0  0  0  0  0  0
  142.9441   78.7559  224.3176 H   0  0  0  0  0  0  0  0  0  0  0  0
  143.5803   81.0398  223.5612 H   0  0  0  0  0  0  0  0  0  0  0  0
  143.0094   79.9321  222.1967 H   0  0  0  0  0  0  0  0  0  0  0  0
  141.9110   82.4448  223.2315 H   0  0  0  0  0  0  0  0  0  0  0  0
  142.0218   81.6912  221.5403 H   0  0  0  0  0  0  0  0  0  0  0  0
  1  2  2  0
  2  3  1  0
  3  4  2  0
  4  5  1  0
  5  6  2  0
  6  7  1  0
  6  8  1  0
  8  9  2  0
  9 10  1  0
 10 11  2  0
 11 12  1  0
 12 13  2  0
 13 14  1  0
 14 15  2  0
 15 16  1  0
 16 17  2  0
 17 18  1  0
 18 19  1  0
 19 20  1  0
 20 21  1  0
 21 22  1  0
 22 23  1  0
 23 24  1  0
 18 25  2  0
 11 26  1  0
 26 27  1  0
 27 28  1  0
 28 29  1  0
 29 30  1  0
 30 31  1  0
 31 32  1  0
 32 33  1  0
 26  2  1  0
 33 28  1  0
  9  3  1  0
 25 14  1  0
 24 19  1  0
  4 34  1  0
  5 35  1  0
  8 36  1  0
 12 37  1  0
 13 38  1  0
 15 39  1  0
 16 40  1  0
 17 41  1  0
 20 42  1  0
 20 43  1  0
 21 44  1  0
 21 45  1  0
 23 46  1  0
 23 47  1  0
 24 48  1  0
 24 49  1  0
 25 50  1  0
 27 51  1  0
 27 52  1  0
 28 53  1  0
 29 54  1  0
 29 55  1  0
 30 56  1  0
 30 57  1  0
 31 58  1  0
 31 59  1  0
 32 60  1  0
 32 61  1  0
 33 62  1  0
 33 63  1  0
M  END
>  <smiles>  (35) 
O=c1c2ccc(F)cc2nc(/C=C/c2cccc(N3CCOCC3)c2)n1CC1CCCCC1

>  <score_type>  (35) 
oracle

>  <origin>  (35) 
autodockgpu

>  <m_score__min__energy>  (35) 
-9.0299999999999994

>  <m_primary>  (35) 
energy

>  <rmsd>  (35) 
6.100599467244513

>  <m_score__min__rmsd>  (35) 
6.100599467244513

>  <meeko>  (35) 
{"free_energy": -8.01, "intermolecular_energy": -9.8, "internal_energy": -1.86, "cluster_size": 3, "cluster_id": 5, "rank_in_cluster": 3}

>  <energy>  (35) 
-8.13

>  <cluster_rmsd>  (35) 
1.19

>  <cluster>  (35) 
3

$$$$

     RDKit          3D

 63 67  0  0  0  0  0  0  0  0999 V2000
  142.7660   77.3510  219.5310 O   0  0  0  0  0  0  0  0  0  0  0  0
  141.9360   76.9890  220.4050 C   0  0  0  0  0  0  0  0  0  0  0  0
  141.4650   77.9450  221.2700 C   0  0  0  0  0  0  0  0  0  0  0  0
  141.9200   79.2580  221.1470 C   0  0  0  0  0  0  0  0  0  0  0  0
  141.4370   80.2140  222.0270 C   0  0  0  0  0  0  0  0  0  0  0  0
  140.5170   79.8550  223.0090 C   0  0  0  0  0  0  0  0  0  0  0  0
  140.0340   80.7760  223.8800 F   0  0  0  0  0  0  0  0  0  0  0  0
  140.0830   78.5490  223.1100 C   0  0  0  0  0  0  0  0  0  0  0  0
  140.5580   77.5790  222.2360 C   0  0  0  0  0  0  0  0  0  0  0  0
  140.1690   76.2970  222.2900 N   0  0  0  0  0  0  0  0  0  0  0  0
  140.6520   75.3910  221.4250 C   0  0  0  0  0  0  0  0  0  0  0  0
  140.1260   74.0310  221.5410 C   0  0  0  0  0  0  0  0  0  0  0  0
  140.8880   73.0400  221.9600 C   0  0  0  0  0  0  0  0  0  0  0  0
  140.4000   71.8700  222.6710 C   0  0  0  0  0  0  0  0  0  0  0  0
  139.6460   70.8750  222.0880 C   0  0  0  0  0  0  0  0  0  0  0  0
  139.1930   69.7670  222.7960 C   0  0  0  0  0  0  0  0  0  0  0  0
  139.5120   69.6640  224.1280 C   0  0  0  0  0  0  0  0  0  0  0  0
  140.2750   70.6460  224.7660 C   0  0  0  0  0  0  0  0  0  0  0  0
  140.5950   70.5200  226.1460 N   0  0  0  0  0  0  0  0  0  0  0  0
  141.0070   71.7060  226.8580 C   0  0  0  0  0  0  0  0  0  0  0  0
  141.0870   71.5220  228.3380 C   0  0  0  0  0  0  0  0  0  0  0  0
  141.4720   70.2320  228.7040 O   0  0  0  0  0  0  0  0  0  0  0  0
  140.4640   69.3600  228.3010 C   0  0  0  0  0  0  0  0  0  0  0  0
  140.5030   69.2370  226.7840 C   0  0  0  0  0  0  0  0  0  0  0  0
  140.6940   71.7190  224.0100 C   0  0  0  0  0  0  0  0  0  0  0  0
  141.5350   75.6830  220.4670 N   0  0  0  0  0  0  0  0  0  0  0  0
  142.1310   74.7840  219.5430 C   0  0  0  0  0  0  0  0  0  0  0  0
  143.6320   74.6830  219.5760 C   0  0  0  0  0  0  0  0  0  0  0  0
  144.1200   74.1190  220.8340 C   0  0  0  0  0  0  0  0  0  0  0  0
  144.2680   72.6170  220.8430 C   0  0  0  0  0  0  0  0  0  0  0  0
  145.3180   72.3430  219.7870 C   0  0  0  0  0  0  0  0  0  0  0  0
  144.6800   72.6550  218.4620 C   0  0  0  0  0  0  0  0  0  0  0  0
  144.0860   74.0120  218.3240 C   0  0  0  0  0  0  0  0  0  0  0  0
  142.6473   79.5292  220.3676 H   0  0  0  0  0  0  0  0  0  0  0  0
  141.7804   81.2562  221.9497 H   0  0  0  0  0  0  0  0  0  0  0  0
  139.3557   78.2739  223.8881 H   0  0  0  0  0  0  0  0  0  0  0  0
  139.0776   73.8318  221.2743 H   0  0  0  0  0  0  0  0  0  0  0  0
  141.9674   73.1030  221.7576 H   0  0  0  0  0  0  0  0  0  0  0  0
  139.3925   70.9603  221.0210 H   0  0  0  0  0  0  0  0  0  0  0  0
  138.5924   68.9902  222.3002 H   0  0  0  0  0  0  0  0  0  0  0  0
  139.1610   68.7940  224.7023 H   0  0  0  0  0  0  0  0  0  0  0  0
  142.0004   72.0035  226.4911 H   0  0  0  0  0  0  0  0  0  0  0  0
  140.2423   72.4743  226.6711 H   0  0  0  0  0  0  0  0  0  0  0  0
  141.8210   72.2352  228.7413 H   0  0  0  0  0  0  0  0  0  0  0  0
  140.0808   71.6952  228.7474 H   0  0  0  0  0  0  0  0  0  0  0  0
  140.6252   68.3719  228.7568 H   0  0  0  0  0  0  0  0  0  0  0  0
  139.4847   69.7456  228.6208 H   0  0  0  0  0  0  0  0  0  0  0  0
  141.3775   68.6340  226.4983 H   0  0  0  0  0  0  0  0  0  0  0  0
  139.5681   68.7590  226.4561 H   0  0  0  0  0  0  0  0  0  0  0  0
  141.2959   72.4977  224.5012 H   0  0  0  0  0  0  0  0  0  0  0  0
  141.7243   73.7816  219.7426 H   0  0  0  0  0  0  0  0  0  0  0  0
  141.8885   75.1863  218.5483 H   0  0  0  0  0  0  0  0  0  0  0  0
  144.0980   75.6794  219.5777 H   0  0  0  0  0  0  0  0  0  0  0  0
  145.1047   74.5605  221.0470 H   0  0  0  0  0  0  0  0  0  0  0  0
  143.3614   74.3584  221.5938 H   0  0  0  0  0  0  0  0  0  0  0  0
  144.6043   72.2637  221.8289 H   0  0  0  0  0  0  0  0  0  0  0  0
  143.3196   72.0981  220.6399 H   0  0  0  0  0  0  0  0  0  0  0  0
  146.1956   72.9864  219.9474 H   0  0  0  0  0  0  0  0  0  0  0  0
  145.6613   71.2987  219.8279 H   0  0  0  0  0  0  0  0  0  0  0  0
  145.4499   72.5447  217.6842 H   0  0  0  0  0  0  0  0  0  0  0  0
  143.8381   71.9534  218.3674 H   0  0  0  0  0  0  0  0  0  0  0  0
  144.8424   74.6593  217.8562 H   0  0  0  0  0  0  0  0  0  0  0  0
  143.1712   73.8644  217.7312 H   0  0  0  0  0  0  0  0  0  0  0  0
  1  2  2  0
  2  3  1  0
  3  4  2  0
  4  5  1  0
  5  6  2  0
  6  7  1  0
  6  8  1  0
  8  9  2  0
  9 10  1  0
 10 11  2  0
 11 12  1  0
 12 13  2  0
 13 14  1  0
 14 15  2  0
 15 16  1  0
 16 17  2  0
 17 18  1  0
 18 19  1  0
 19 20  1  0
 20 21  1  0
 21 22  1  0
 22 23  1  0
 23 24  1  0
 18 25  2  0
 11 26  1  0
 26 27  1  0
 27 28  1  0
 28 29  1  0
 29 30  1  0
 30 31  1  0
 31 32  1  0
 32 33  1  0
 26  2  1  0
 33 28  1  0
  9  3  1  0
 25 14  1  0
 24 19  1  0
  4 34  1  0
  5 35  1  0
  8 36  1  0
 12 37  1  0
 13 38  1  0
 15 39  1  0
 16 40  1  0
 17 41  1  0
 20 42  1  0
 20 43  1  0
 21 44  1  0
 21 45  1  0
 23 46  1  0
 23 47  1  0
 24 48  1  0
 24 49  1  0
 25 50  1  0
 27 51  1  0
 27 52  1  0
 28 53  1  0
 29 54  1  0
 29 55  1  0
 30 56  1  0
 30 57  1  0
 31 58  1  0
 31 59  1  0
 32 60  1  0
 32 61  1  0
 33 62  1  0
 33 63  1  0
M  END
>  <smiles>  (36) 
O=c1c2ccc(F)cc2nc(/C=C/c2cccc(N3CCOCC3)c2)n1CC1CCCCC1

>  <score_type>  (36) 
oracle

>  <origin>  (36) 
autodockgpu

>  <m_score__min__energy>  (36) 
-9.0299999999999994

>  <m_primary>  (36) 
energy

>  <rmsd>  (36) 
4.847315233878554

>  <m_score__min__rmsd>  (36) 
4.847315233878554

>  <meeko>  (36) 
{"free_energy": -8.52, "intermolecular_energy": -10.31, "internal_energy": -1.59, "cluster_size": 8, "cluster_id": 2, "rank_in_cluster": 2}

>  <energy>  (36) 
-8.11

>  <cluster_rmsd>  (36) 
0.51

>  <cluster>  (36) 
3

$$$$

     RDKit          3D

 63 67  0  0  0  0  0  0  0  0999 V2000
  139.2090   67.7120  225.4140 O   0  0  0  0  0  0  0  0  0  0  0  0
  139.4610   68.9210  225.1700 C   0  0  0  0  0  0  0  0  0  0  0  0
  140.0760   69.6530  226.1550 C   0  0  0  0  0  0  0  0  0  0  0  0
  140.3920   69.0380  227.3660 C   0  0  0  0  0  0  0  0  0  0  0  0
  141.0120   69.7890  228.3520 C   0  0  0  0  0  0  0  0  0  0  0  0
  141.3080   71.1300  228.1230 C   0  0  0  0  0  0  0  0  0  0  0  0
  141.9150   71.8810  229.0760 F   0  0  0  0  0  0  0  0  0  0  0  0
  140.9870   71.7160  226.9160 C   0  0  0  0  0  0  0  0  0  0  0  0
  140.3640   70.9770  225.9170 C   0  0  0  0  0  0  0  0  0  0  0  0
  140.0300   71.4970  224.7270 N   0  0  0  0  0  0  0  0  0  0  0  0
  139.4300   70.7480  223.7900 C   0  0  0  0  0  0  0  0  0  0  0  0
  139.1510   71.4000  222.5100 C   0  0  0  0  0  0  0  0  0  0  0  0
  140.1000   71.5700  221.6110 C   0  0  0  0  0  0  0  0  0  0  0  0
  140.7740   72.8320  221.3540 C   0  0  0  0  0  0  0  0  0  0  0  0
  141.9560   72.9430  220.6540 C   0  0  0  0  0  0  0  0  0  0  0  0
  142.5780   74.1660  220.4240 C   0  0  0  0  0  0  0  0  0  0  0  0
  141.9880   75.3040  220.9170 C   0  0  0  0  0  0  0  0  0  0  0  0
  140.7890   75.2450  221.6340 C   0  0  0  0  0  0  0  0  0  0  0  0
  140.1960   76.4360  222.1350 N   0  0  0  0  0  0  0  0  0  0  0  0
  141.0580   77.5600  222.4100 C   0  0  0  0  0  0  0  0  0  0  0  0
  140.3210   78.8270  222.7000 C   0  0  0  0  0  0  0  0  0  0  0  0
  139.1070   78.6110  223.3520 O   0  0  0  0  0  0  0  0  0  0  0  0
  138.2740   77.9190  222.4760 C   0  0  0  0  0  0  0  0  0  0  0  0
  138.7770   76.4870  222.3520 C   0  0  0  0  0  0  0  0  0  0  0  0
  140.2230   74.0040  221.8280 C   0  0  0  0  0  0  0  0  0  0  0  0
  139.1230   69.4590  223.9590 N   0  0  0  0  0  0  0  0  0  0  0  0
  138.4510   68.6070  223.0440 C   0  0  0  0  0  0  0  0  0  0  0  0
  136.9480   68.6860  223.0300 C   0  0  0  0  0  0  0  0  0  0  0  0
  136.4150   69.2690  224.2620 C   0  0  0  0  0  0  0  0  0  0  0  0
  136.2460   70.7690  224.2340 C   0  0  0  0  0  0  0  0  0  0  0  0
  135.2240   71.0050  223.1410 C   0  0  0  0  0  0  0  0  0  0  0  0
  135.9050   70.6740  221.8430 C   0  0  0  0  0  0  0  0  0  0  0  0
  136.5220   69.3240  221.7510 C   0  0  0  0  0  0  0  0  0  0  0  0
  140.1538   67.9775  227.5353 H   0  0  0  0  0  0  0  0  0  0  0  0
  141.2702   69.3256  229.3156 H   0  0  0  0  0  0  0  0  0  0  0  0
  141.2258   72.7757  226.7429 H   0  0  0  0  0  0  0  0  0  0  0  0
  138.1322   71.7542  222.2943 H   0  0  0  0  0  0  0  0  0  0  0  0
  140.4027   70.6969  221.0143 H   0  0  0  0  0  0  0  0  0  0  0  0
  142.4259   72.0290  220.2619 H   0  0  0  0  0  0  0  0  0  0  0  0
  143.5209   74.2203  219.8601 H   0  0  0  0  0  0  0  0  0  0  0  0
  142.4671   76.2791  220.7448 H   0  0  0  0  0  0  0  0  0  0  0  0
  141.6816   77.3139  223.2821 H   0  0  0  0  0  0  0  0  0  0  0  0
  141.6546   77.7363  221.5028 H   0  0  0  0  0  0  0  0  0  0  0  0
  140.9533   79.4631  223.3369 H   0  0  0  0  0  0  0  0  0  0  0  0
  140.0974   79.3072  221.7359 H   0  0  0  0  0  0  0  0  0  0  0  0
  137.2457   77.9175  222.8665 H   0  0  0  0  0  0  0  0  0  0  0  0
  138.2811   78.4053  221.4894 H   0  0  0  0  0  0  0  0  0  0  0  0
  138.5390   75.9447  223.2790 H   0  0  0  0  0  0  0  0  0  0  0  0
  138.2821   76.0251  221.4850 H   0  0  0  0  0  0  0  0  0  0  0  0
  139.2803   73.9447  222.3917 H   0  0  0  0  0  0  0  0  0  0  0  0
  138.8078   68.8547  222.0334 H   0  0  0  0  0  0  0  0  0  0  0  0
  138.6849   67.5841  223.3742 H   0  0  0  0  0  0  0  0  0  0  0  0
  136.4960   67.6832  223.0383 H   0  0  0  0  0  0  0  0  0  0  0  0
  135.4307   68.8178  224.4556 H   0  0  0  0  0  0  0  0  0  0  0  0
  137.1537   69.0563  225.0488 H   0  0  0  0  0  0  0  0  0  0  0  0
  135.8754   71.1384  225.2016 H   0  0  0  0  0  0  0  0  0  0  0  0
  137.1928   71.2972  224.0481 H   0  0  0  0  0  0  0  0  0  0  0  0
  134.3509   70.3525  223.2895 H   0  0  0  0  0  0  0  0  0  0  0  0
  134.8655   72.0449  223.1488 H   0  0  0  0  0  0  0  0  0  0  0  0
  135.1568   70.7565  221.0409 H   0  0  0  0  0  0  0  0  0  0  0  0
  136.7396   71.3856  221.7585 H   0  0  0  0  0  0  0  0  0  0  0  0
  135.7893   68.6559  221.2748 H   0  0  0  0  0  0  0  0  0  0  0  0
  137.4518   69.4728  221.1823 H   0  0  0  0  0  0  0  0  0  0  0  0
  1  2  2  0
  2  3  1  0
  3  4  2  0
  4  5  1  0
  5  6  2  0
  6  7  1  0
  6  8  1  0
  8  9  2  0
  9 10  1  0
 10 11  2  0
 11 12  1  0
 12 13  2  0
 13 14  1  0
 14 15  2  0
 15 16  1  0
 16 17  2  0
 17 18  1  0
 18 19  1  0
 19 20  1  0
 20 21  1  0
 21 22  1  0
 22 23  1  0
 23 24  1  0
 18 25  2  0
 11 26  1  0
 26 27  1  0
 27 28  1  0
 28 29  1  0
 29 30  1  0
 30 31  1  0
 31 32  1  0
 32 33  1  0
 26  2  1  0
 33 28  1  0
  9  3  1  0
 25 14  1  0
 24 19  1  0
  4 34  1  0
  5 35  1  0
  8 36  1  0
 12 37  1  0
 13 38  1  0
 15 39  1  0
 16 40  1  0
 17 41  1  0
 20 42  1  0
 20 43  1  0
 21 44  1  0
 21 45  1  0
 23 46  1  0
 23 47  1  0
 24 48  1  0
 24 49  1  0
 25 50  1  0
 27 51  1  0
 27 52  1  0
 28 53  1  0
 29 54  1  0
 29 55  1  0
 30 56  1  0
 30 57  1  0
 31 58  1  0
 31 59  1  0
 32 60  1  0
 32 61  1  0
 33 62  1  0
 33 63  1  0
M  END
>  <smiles>  (37) 
O=c1c2ccc(F)cc2nc(/C=C/c2cccc(N3CCOCC3)c2)n1CC1CCCCC1

>  <score_type>  (37) 
oracle

>  <origin>  (37) 
autodockgpu

>  <m_score__min__energy>  (37) 
-9.0299999999999994

>  <m_primary>  (37) 
energy

>  <rmsd>  (37) 
11.512542243273613

>  <m_score__min__rmsd>  (37) 
11.512542243273613

>  <meeko>  (37) 
{"free_energy": -8.11, "intermolecular_energy": -9.9, "internal_energy": -1.92, "cluster_size": 15, "cluster_id": 3, "rank_in_cluster": 11}

>  <energy>  (37) 
-8.11

>  <cluster_rmsd>  (37) 
1.61

>  <cluster>  (37) 
3

$$$$

     RDKit          3D

 63 67  0  0  0  0  0  0  0  0999 V2000
  138.7550   67.7720  225.4730 O   0  0  0  0  0  0  0  0  0  0  0  0
  139.3100   68.8380  225.1010 C   0  0  0  0  0  0  0  0  0  0  0  0
  139.9370   69.5960  226.0590 C   0  0  0  0  0  0  0  0  0  0  0  0
  139.9330   69.1590  227.3830 C   0  0  0  0  0  0  0  0  0  0  0  0
  140.5690   69.9340  228.3410 C   0  0  0  0  0  0  0  0  0  0  0  0
  141.1960   71.1210  227.9720 C   0  0  0  0  0  0  0  0  0  0  0  0
  141.8230   71.8930  228.8940 F   0  0  0  0  0  0  0  0  0  0  0  0
  141.1870   71.5320  226.6540 C   0  0  0  0  0  0  0  0  0  0  0  0
  140.5520   70.7670  225.6830 C   0  0  0  0  0  0  0  0  0  0  0  0
  140.5130   71.1190  224.3890 N   0  0  0  0  0  0  0  0  0  0  0  0
  139.8900   70.3510  223.4830 C   0  0  0  0  0  0  0  0  0  0  0  0
  139.9470   70.8030  222.0920 C   0  0  0  0  0  0  0  0  0  0  0  0
  139.5320   72.0060  221.7490 C   0  0  0  0  0  0  0  0  0  0  0  0
  140.4100   73.1180  221.4240 C   0  0  0  0  0  0  0  0  0  0  0  0
  140.0770   74.4410  221.6170 C   0  0  0  0  0  0  0  0  0  0  0  0
  140.9400   75.4840  221.2950 C   0  0  0  0  0  0  0  0  0  0  0  0
  142.1690   75.1790  220.7650 C   0  0  0  0  0  0  0  0  0  0  0  0
  142.5550   73.8520  220.5500 C   0  0  0  0  0  0  0  0  0  0  0  0
  143.8320   73.5580  220.0000 N   0  0  0  0  0  0  0  0  0  0  0  0
  143.9410   73.4340  218.5660 C   0  0  0  0  0  0  0  0  0  0  0  0
  145.3500   73.3650  218.0740 C   0  0  0  0  0  0  0  0  0  0  0  0
  146.2060   72.7230  218.9680 O   0  0  0  0  0  0  0  0  0  0  0  0
  146.2800   73.5060  220.1180 C   0  0  0  0  0  0  0  0  0  0  0  0
  144.9610   73.3930  220.8710 C   0  0  0  0  0  0  0  0  0  0  0  0
  141.6560   72.8650  220.8890 C   0  0  0  0  0  0  0  0  0  0  0  0
  139.2740   69.2040  223.7840 N   0  0  0  0  0  0  0  0  0  0  0  0
  138.5540   68.3560  222.9020 C   0  0  0  0  0  0  0  0  0  0  0  0
  137.0910   68.6560  222.7240 C   0  0  0  0  0  0  0  0  0  0  0  0
  136.5100   69.2890  223.9090 C   0  0  0  0  0  0  0  0  0  0  0  0
  136.5620   70.7970  223.9150 C   0  0  0  0  0  0  0  0  0  0  0  0
  135.7170   71.2010  222.7240 C   0  0  0  0  0  0  0  0  0  0  0  0
  136.4870   70.7980  221.4980 C   0  0  0  0  0  0  0  0  0  0  0  0
  136.9100   69.3730  221.4290 C   0  0  0  0  0  0  0  0  0  0  0  0
  139.4354   68.2185  227.6620 H   0  0  0  0  0  0  0  0  0  0  0  0
  140.5781   69.6109  229.3925 H   0  0  0  0  0  0  0  0  0  0  0  0
  141.6855   72.4707  226.3707 H   0  0  0  0  0  0  0  0  0  0  0  0
  140.3430   70.1271  221.3197 H   0  0  0  0  0  0  0  0  0  0  0  0
  138.4468   72.1805  221.7057 H   0  0  0  0  0  0  0  0  0  0  0  0
  139.0914   74.6819  222.0418 H   0  0  0  0  0  0  0  0  0  0  0  0
  140.6438   76.5302  221.4615 H   0  0  0  0  0  0  0  0  0  0  0  0
  142.8623   75.9924  220.5049 H   0  0  0  0  0  0  0  0  0  0  0  0
  143.4198   72.5162  218.2563 H   0  0  0  0  0  0  0  0  0  0  0  0
  143.4926   74.3390  218.1303 H   0  0  0  0  0  0  0  0  0  0  0  0
  145.3624   72.8163  217.1207 H   0  0  0  0  0  0  0  0  0  0  0  0
  145.7096   74.3979  217.9566 H   0  0  0  0  0  0  0  0  0  0  0  0
  147.1022   73.1499  220.7561 H   0  0  0  0  0  0  0  0  0  0  0  0
  146.4676   74.5551  219.8458 H   0  0  0  0  0  0  0  0  0  0  0  0
  144.9045   72.4008  221.3425 H   0  0  0  0  0  0  0  0  0  0  0  0
  144.9294   74.1928  221.6256 H   0  0  0  0  0  0  0  0  0  0  0  0
  141.9478   71.8173  220.7240 H   0  0  0  0  0  0  0  0  0  0  0  0
  139.0308   68.4213  221.9129 H   0  0  0  0  0  0  0  0  0  0  0  0
  138.5914   67.3583  223.3638 H   0  0  0  0  0  0  0  0  0  0  0  0
  136.5017   67.7304  222.6468 H   0  0  0  0  0  0  0  0  0  0  0  0
  135.4555   68.9834  223.9770 H   0  0  0  0  0  0  0  0  0  0  0  0
  137.1164   68.9565  224.7644 H   0  0  0  0  0  0  0  0  0  0  0  0
  136.1393   71.1985  224.8478 H   0  0  0  0  0  0  0  0  0  0  0  0
  137.5898   71.1841  223.8540 H   0  0  0  0  0  0  0  0  0  0  0  0
  134.7479   70.6814  222.7519 H   0  0  0  0  0  0  0  0  0  0  0  0
  135.5141   72.2821  222.7287 H   0  0  0  0  0  0  0  0  0  0  0  0
  135.8549   71.0036  220.6216 H   0  0  0  0  0  0  0  0  0  0  0  0
  137.4190   71.3814  221.5297 H   0  0  0  0  0  0  0  0  0  0  0  0
  136.1480   68.8284  220.8521 H   0  0  0  0  0  0  0  0  0  0  0  0
  137.9106   69.3943  220.9726 H   0  0  0  0  0  0  0  0  0  0  0  0
  1  2  2  0
  2  3  1  0
  3  4  2  0
  4  5  1  0
  5  6  2  0
  6  7  1  0
  6  8  1  0
  8  9  2  0
  9 10  1  0
 10 11  2  0
 11 12  1  0
 12 13  2  0
 13 14  1  0
 14 15  2  0
 15 16  1  0
 16 17  2  0
 17 18  1  0
 18 19  1  0
 19 20  1  0
 20 21  1  0
 21 22  1  0
 22 23  1  0
 23 24  1  0
 18 25  2  0
 11 26  1  0
 26 27  1  0
 27 28  1  0
 28 29  1  0
 29 30  1  0
 30 31  1  0
 31 32  1  0
 32 33  1  0
 26  2  1  0
 33 28  1  0
  9  3  1  0
 25 14  1  0
 24 19  1  0
  4 34  1  0
  5 35  1  0
  8 36  1  0
 12 37  1  0
 13 38  1  0
 15 39  1  0
 16 40  1  0
 17 41  1  0
 20 42  1  0
 20 43  1  0
 21 44  1  0
 21 45  1  0
 23 46  1  0
 23 47  1  0
 24 48  1  0
 24 49  1  0
 25 50  1  0
 27 51  1  0
 27 52  1  0
 28 53  1  0
 29 54  1  0
 29 55  1  0
 30 56  1  0
 30 57  1  0
 31 58  1  0
 31 59  1  0
 32 60  1  0
 32 61  1  0
 33 62  1  0
 33 63  1  0
M  END
>  <smiles>  (38) 
O=c1c2ccc(F)cc2nc(/C=C/c2cccc(N3CCOCC3)c2)n1CC1CCCCC1

>  <score_type>  (38) 
oracle

>  <origin>  (38) 
autodockgpu

>  <m_score__min__energy>  (38) 
-9.0299999999999994

>  <m_primary>  (38) 
energy

>  <rmsd>  (38) 
11.38931897565594

>  <m_score__min__rmsd>  (38) 
11.38931897565594

>  <meeko>  (38) 
{"free_energy": -8.66, "intermolecular_energy": -10.45, "internal_energy": -2.0, "cluster_size": 18, "cluster_id": 1, "rank_in_cluster": 11}

>  <energy>  (38) 
-8.08

>  <cluster_rmsd>  (38) 
0.5

>  <cluster>  (38) 
3

$$$$

     RDKit          3D

 63 67  0  0  0  0  0  0  0  0999 V2000
  139.0120   68.1720  224.8450 O   0  0  0  0  0  0  0  0  0  0  0  0
  139.4410   69.3450  224.6840 C   0  0  0  0  0  0  0  0  0  0  0  0
  140.0020   69.9700  225.7700 C   0  0  0  0  0  0  0  0  0  0  0  0
  140.0720   69.2910  226.9870 C   0  0  0  0  0  0  0  0  0  0  0  0
  140.6400   69.9340  228.0750 C   0  0  0  0  0  0  0  0  0  0  0  0
  141.1270   71.2320  227.9410 C   0  0  0  0  0  0  0  0  0  0  0  0
  141.6860   71.8780  228.9950 F   0  0  0  0  0  0  0  0  0  0  0  0
  141.0460   71.8820  226.7270 C   0  0  0  0  0  0  0  0  0  0  0  0
  140.4790   71.2520  225.6260 C   0  0  0  0  0  0  0  0  0  0  0  0
  140.3760   71.8370  224.4240 N   0  0  0  0  0  0  0  0  0  0  0  0
  139.8210   71.1920  223.3870 C   0  0  0  0  0  0  0  0  0  0  0  0
  139.8010   71.9040  222.1090 C   0  0  0  0  0  0  0  0  0  0  0  0
  140.3900   73.0750  221.9710 C   0  0  0  0  0  0  0  0  0  0  0  0
  139.6950   74.3520  221.9700 C   0  0  0  0  0  0  0  0  0  0  0  0
  138.3230   74.4790  221.9550 C   0  0  0  0  0  0  0  0  0  0  0  0
  137.6870   75.7170  221.9540 C   0  0  0  0  0  0  0  0  0  0  0  0
  138.4600   76.8520  221.9670 C   0  0  0  0  0  0  0  0  0  0  0  0
  139.8560   76.7760  221.9820 C   0  0  0  0  0  0  0  0  0  0  0  0
  140.6370   77.9630  221.9960 N   0  0  0  0  0  0  0  0  0  0  0  0
  141.3850   78.2690  223.1920 C   0  0  0  0  0  0  0  0  0  0  0  0
  142.3520   79.3960  223.0250 C   0  0  0  0  0  0  0  0  0  0  0  0
  141.9060   80.3650  222.1280 O   0  0  0  0  0  0  0  0  0  0  0  0
  141.8400   79.7760  220.8670 C   0  0  0  0  0  0  0  0  0  0  0  0
  140.6610   78.8130  220.8390 C   0  0  0  0  0  0  0  0  0  0  0  0
  140.4250   75.5220  221.9830 C   0  0  0  0  0  0  0  0  0  0  0  0
  139.3390   69.9490  223.4620 N   0  0  0  0  0  0  0  0  0  0  0  0
  138.6970   69.2110  222.4330 C   0  0  0  0  0  0  0  0  0  0  0  0
  137.2110   69.4000  222.2950 C   0  0  0  0  0  0  0  0  0  0  0  0
  136.5390   69.4560  223.5940 C   0  0  0  0  0  0  0  0  0  0  0  0
  136.4090   70.8390  224.1840 C   0  0  0  0  0  0  0  0  0  0  0  0
  135.5390   71.5830  223.1920 C   0  0  0  0  0  0  0  0  0  0  0  0
  136.3720   71.7730  221.9550 C   0  0  0  0  0  0  0  0  0  0  0  0
  136.9650   70.5410  221.3680 C   0  0  0  0  0  0  0  0  0  0  0  0
  139.6841   68.2659  227.0807 H   0  0  0  0  0  0  0  0  0  0  0  0
  140.7063   69.4192  229.0448 H   0  0  0  0  0  0  0  0  0  0  0  0
  141.4333   72.9070  226.6298 H   0  0  0  0  0  0  0  0  0  0  0  0
  139.2852   71.4540  221.2479 H   0  0  0  0  0  0  0  0  0  0  0  0
  141.4830   73.0869  221.8481 H   0  0  0  0  0  0  0  0  0  0  0  0
  137.7072   73.5676  221.9434 H   0  0  0  0  0  0  0  0  0  0  0  0
  136.5891   75.7848  221.9430 H   0  0  0  0  0  0  0  0  0  0  0  0
  137.9724   77.8380  221.9656 H   0  0  0  0  0  0  0  0  0  0  0  0
  140.6737   78.5369  223.9872 H   0  0  0  0  0  0  0  0  0  0  0  0
  141.9747   77.3740  223.4396 H   0  0  0  0  0  0  0  0  0  0  0  0
  142.5102   79.8708  224.0046 H   0  0  0  0  0  0  0  0  0  0  0  0
  143.2834   78.9743  222.6192 H   0  0  0  0  0  0  0  0  0  0  0  0
  141.7007   80.5540  220.1019 H   0  0  0  0  0  0  0  0  0  0  0  0
  142.7731   79.2322  220.6581 H   0  0  0  0  0  0  0  0  0  0  0  0
  139.7277   79.3942  220.8052 H   0  0  0  0  0  0  0  0  0  0  0  0
  140.7629   78.1748  219.9489 H   0  0  0  0  0  0  0  0  0  0  0  0
  141.5225   75.4495  221.9948 H   0  0  0  0  0  0  0  0  0  0  0  0
  139.1601   69.4984  221.4775 H   0  0  0  0  0  0  0  0  0  0  0  0
  138.8306   68.1542  222.7075 H   0  0  0  0  0  0  0  0  0  0  0  0
  136.7395   68.5208  221.8317 H   0  0  0  0  0  0  0  0  0  0  0  0
  135.5280   69.0396  223.4737 H   0  0  0  0  0  0  0  0  0  0  0  0
  137.1670   68.8815  224.2908 H   0  0  0  0  0  0  0  0  0  0  0  0
  135.9275   70.7984  225.1722 H   0  0  0  0  0  0  0  0  0  0  0  0
  137.3834   71.3253  224.3392 H   0  0  0  0  0  0  0  0  0  0  0  0
  134.6398   70.9942  222.9583 H   0  0  0  0  0  0  0  0  0  0  0  0
  135.2055   72.5485  223.6001 H   0  0  0  0  0  0  0  0  0  0  0  0
  135.7338   72.2367  221.1884 H   0  0  0  0  0  0  0  0  0  0  0  0
  137.2263   72.3917  222.2670 H   0  0  0  0  0  0  0  0  0  0  0  0
  136.2833   70.1875  220.5803 H   0  0  0  0  0  0  0  0  0  0  0  0
  137.9625   70.8437  221.0168 H   0  0  0  0  0  0  0  0  0  0  0  0
  1  2  2  0
  2  3  1  0
  3  4  2  0
  4  5  1  0
  5  6  2  0
  6  7  1  0
  6  8  1  0
  8  9  2  0
  9 10  1  0
 10 11  2  0
 11 12  1  0
 12 13  2  0
 13 14  1  0
 14 15  2  0
 15 16  1  0
 16 17  2  0
 17 18  1  0
 18 19  1  0
 19 20  1  0
 20 21  1  0
 21 22  1  0
 22 23  1  0
 23 24  1  0
 18 25  2  0
 11 26  1  0
 26 27  1  0
 27 28  1  0
 28 29  1  0
 29 30  1  0
 30 31  1  0
 31 32  1  0
 32 33  1  0
 26  2  1  0
 33 28  1  0
  9  3  1  0
 25 14  1  0
 24 19  1  0
  4 34  1  0
  5 35  1  0
  8 36  1  0
 12 37  1  0
 13 38  1  0
 15 39  1  0
 16 40  1  0
 17 41  1  0
 20 42  1  0
 20 43  1  0
 21 44  1  0
 21 45  1  0
 23 46  1  0
 23 47  1  0
 24 48  1  0
 24 49  1  0
 25 50  1  0
 27 51  1  0
 27 52  1  0
 28 53  1  0
 29 54  1  0
 29 55  1  0
 30 56  1  0
 30 57  1  0
 31 58  1  0
 31 59  1  0
 32 60  1  0
 32 61  1  0
 33 62  1  0
 33 63  1  0
M  END
>  <smiles>  (39) 
O=c1c2ccc(F)cc2nc(/C=C/c2cccc(N3CCOCC3)c2)n1CC1CCCCC1

>  <score_type>  (39) 
oracle

>  <origin>  (39) 
autodockgpu

>  <m_score__min__energy>  (39) 
-9.0299999999999994

>  <m_primary>  (39) 
energy

>  <rmsd>  (39) 
11.116287610623006

>  <m_score__min__rmsd>  (39) 
11.116287610623006

>  <meeko>  (39) 
{"free_energy": -8.11, "intermolecular_energy": -9.9, "internal_energy": -2.13, "cluster_size": 15, "cluster_id": 3, "rank_in_cluster": 10}

>  <energy>  (39) 
-8.02

>  <cluster_rmsd>  (39) 
0.53

>  <cluster>  (39) 
3

$$$$

     RDKit          3D

 63 67  0  0  0  0  0  0  0  0999 V2000
  138.8480   68.0390  225.1950 O   0  0  0  0  0  0  0  0  0  0  0  0
  139.2940   69.1950  224.9740 C   0  0  0  0  0  0  0  0  0  0  0  0
  139.9340   69.8370  226.0050 C   0  0  0  0  0  0  0  0  0  0  0  0
  140.0600   69.1930  227.2360 C   0  0  0  0  0  0  0  0  0  0  0  0
  140.7070   69.8530  228.2690 C   0  0  0  0  0  0  0  0  0  0  0  0
  141.2160   71.1330  228.0670 C   0  0  0  0  0  0  0  0  0  0  0  0
  141.8520   71.7950  229.0650 F   0  0  0  0  0  0  0  0  0  0  0  0
  141.0790   71.7500  226.8400 C   0  0  0  0  0  0  0  0  0  0  0  0
  140.4320   71.1020  225.7940 C   0  0  0  0  0  0  0  0  0  0  0  0
  140.2720   71.6540  224.5830 N   0  0  0  0  0  0  0  0  0  0  0  0
  139.6410   70.9930  223.6000 C   0  0  0  0  0  0  0  0  0  0  0  0
  139.5620   71.6680  222.3040 C   0  0  0  0  0  0  0  0  0  0  0  0
  139.4400   72.9780  222.2240 C   0  0  0  0  0  0  0  0  0  0  0  0
  140.4210   73.8610  221.6150 C   0  0  0  0  0  0  0  0  0  0  0  0
  140.2200   75.2090  221.4130 C   0  0  0  0  0  0  0  0  0  0  0  0
  141.1800   76.0290  220.8260 C   0  0  0  0  0  0  0  0  0  0  0  0
  142.3710   75.4680  220.4350 C   0  0  0  0  0  0  0  0  0  0  0  0
  142.6230   74.1050  220.6170 C   0  0  0  0  0  0  0  0  0  0  0  0
  143.8620   73.5450  220.2050 N   0  0  0  0  0  0  0  0  0  0  0  0
  145.0770   74.1480  220.6980 C   0  0  0  0  0  0  0  0  0  0  0  0
  146.3070   73.3510  220.4060 C   0  0  0  0  0  0  0  0  0  0  0  0
  146.2280   72.6540  219.2010 O   0  0  0  0  0  0  0  0  0  0  0  0
  145.2200   71.7020  219.3280 C   0  0  0  0  0  0  0  0  0  0  0  0
  143.8730   72.4130  219.3220 C   0  0  0  0  0  0  0  0  0  0  0  0
  141.6330   73.3470  221.2040 C   0  0  0  0  0  0  0  0  0  0  0  0
  139.1340   69.7660  223.7420 N   0  0  0  0  0  0  0  0  0  0  0  0
  138.4150   69.0150  222.7760 C   0  0  0  0  0  0  0  0  0  0  0  0
  136.9330   69.2590  222.7000 C   0  0  0  0  0  0  0  0  0  0  0  0
  136.2490   68.8940  223.9420 C   0  0  0  0  0  0  0  0  0  0  0  0
  136.1290   70.0090  224.9520 C   0  0  0  0  0  0  0  0  0  0  0  0
  135.2770   71.0490  224.2550 C   0  0  0  0  0  0  0  0  0  0  0  0
  136.1240   71.6240  223.1540 C   0  0  0  0  0  0  0  0  0  0  0  0
  136.7090   70.6450  222.1980 C   0  0  0  0  0  0  0  0  0  0  0  0
  139.6539   68.1815  227.3840 H   0  0  0  0  0  0  0  0  0  0  0  0
  140.8183   69.3653  229.2487 H   0  0  0  0  0  0  0  0  0  0  0  0
  141.4845   72.7613  226.6887 H   0  0  0  0  0  0  0  0  0  0  0  0
  139.6052   71.0718  221.3806 H   0  0  0  0  0  0  0  0  0  0  0  0
  138.5332   73.4346  222.6473 H   0  0  0  0  0  0  0  0  0  0  0  0
  139.2646   75.6544  221.7275 H   0  0  0  0  0  0  0  0  0  0  0  0
  140.9888   77.1022  220.6787 H   0  0  0  0  0  0  0  0  0  0  0  0
  143.1403   76.1023  219.9704 H   0  0  0  0  0  0  0  0  0  0  0  0
  145.1866   75.1384  220.2320 H   0  0  0  0  0  0  0  0  0  0  0  0
  144.9849   74.2059  221.7926 H   0  0  0  0  0  0  0  0  0  0  0  0
  147.1664   74.0360  220.3597 H   0  0  0  0  0  0  0  0  0  0  0  0
  146.4183   72.6088  221.2102 H   0  0  0  0  0  0  0  0  0  0  0  0
  145.2696   70.9959  218.4860 H   0  0  0  0  0  0  0  0  0  0  0  0
  145.3461   71.1460  220.2687 H   0  0  0  0  0  0  0  0  0  0  0  0
  143.6569   72.7571  218.2998 H   0  0  0  0  0  0  0  0  0  0  0  0
  143.1099   71.7013  219.6701 H   0  0  0  0  0  0  0  0  0  0  0  0
  141.8197   72.2732  221.3529 H   0  0  0  0  0  0  0  0  0  0  0  0
  138.8422   69.2452  221.7888 H   0  0  0  0  0  0  0  0  0  0  0  0
  138.5205   67.9653  223.0875 H   0  0  0  0  0  0  0  0  0  0  0  0
  136.4558   68.5874  221.9711 H   0  0  0  0  0  0  0  0  0  0  0  0
  135.2347   68.5538  223.6863 H   0  0  0  0  0  0  0  0  0  0  0  0
  136.8633   68.1137  224.4150 H   0  0  0  0  0  0  0  0  0  0  0  0
  135.6380   69.6533  225.8698 H   0  0  0  0  0  0  0  0  0  0  0  0
  137.1074   70.4042  225.2626 H   0  0  0  0  0  0  0  0  0  0  0  0
  134.3738   70.5818  223.8355 H   0  0  0  0  0  0  0  0  0  0  0  0
  134.9499   71.8311  224.9560 H   0  0  0  0  0  0  0  0  0  0  0  0
  135.4985   72.3225  222.5789 H   0  0  0  0  0  0  0  0  0  0  0  0
  136.9819   72.0945  223.6566 H   0  0  0  0  0  0  0  0  0  0  0  0
  136.0313   70.5794  221.3340 H   0  0  0  0  0  0  0  0  0  0  0  0
  137.7133   71.0324  221.9716 H   0  0  0  0  0  0  0  0  0  0  0  0
  1  2  2  0
  2  3  1  0
  3  4  2  0
  4  5  1  0
  5  6  2  0
  6  7  1  0
  6  8  1  0
  8  9  2  0
  9 10  1  0
 10 11  2  0
 11 12  1  0
 12 13  2  0
 13 14  1  0
 14 15  2  0
 15 16  1  0
 16 17  2  0
 17 18  1  0
 18 19  1  0
 19 20  1  0
 20 21  1  0
 21 22  1  0
 22 23  1  0
 23 24  1  0
 18 25  2  0
 11 26  1  0
 26 27  1  0
 27 28  1  0
 28 29  1  0
 29 30  1  0
 30 31  1  0
 31 32  1  0
 32 33  1  0
 26  2  1  0
 33 28  1  0
  9  3  1  0
 25 14  1  0
 24 19  1  0
  4 34  1  0
  5 35  1  0
  8 36  1  0
 12 37  1  0
 13 38  1  0
 15 39  1  0
 16 40  1  0
 17 41  1  0
 20 42  1  0
 20 43  1  0
 21 44  1  0
 21 45  1  0
 23 46  1  0
 23 47  1  0
 24 48  1  0
 24 49  1  0
 25 50  1  0
 27 51  1  0
 27 52  1  0
 28 53  1  0
 29 54  1  0
 29 55  1  0
 30 56  1  0
 30 57  1  0
 31 58  1  0
 31 59  1  0
 32 60  1  0
 32 61  1  0
 33 62  1  0
 33 63  1  0
M  END
>  <smiles>  (40) 
O=c1c2ccc(F)cc2nc(/C=C/c2cccc(N3CCOCC3)c2)n1CC1CCCCC1

>  <score_type>  (40) 
oracle

>  <origin>  (40) 
autodockgpu

>  <m_score__min__energy>  (40) 
-9.0299999999999994

>  <m_primary>  (40) 
energy

>  <rmsd>  (40) 
11.554425702018602

>  <m_score__min__rmsd>  (40) 
11.554425702018602

>  <meeko>  (40) 
{"free_energy": -9.01, "intermolecular_energy": -10.8, "internal_energy": -1.84, "cluster_size": 18, "cluster_id": 1, "rank_in_cluster": 3}

>  <energy>  (40) 
-7.84

>  <cluster_rmsd>  (40) 
1.79

>  <cluster>  (40) 
3

$$$$

     RDKit          3D

 63 67  0  0  0  0  0  0  0  0999 V2000
  138.8470   67.3970  224.3540 O   0  0  0  0  0  0  0  0  0  0  0  0
  139.1470   68.6040  224.5500 C   0  0  0  0  0  0  0  0  0  0  0  0
  139.8340   68.9080  225.6990 C   0  0  0  0  0  0  0  0  0  0  0  0
  140.1640   67.8850  226.5880 C   0  0  0  0  0  0  0  0  0  0  0  0
  140.8570   68.2060  227.7450 C   0  0  0  0  0  0  0  0  0  0  0  0
  141.2090   69.5280  228.0000 C   0  0  0  0  0  0  0  0  0  0  0  0
  141.8870   69.8620  229.1270 F   0  0  0  0  0  0  0  0  0  0  0  0
  140.8720   70.5230  227.1060 C   0  0  0  0  0  0  0  0  0  0  0  0
  140.1760   70.2180  225.9420 C   0  0  0  0  0  0  0  0  0  0  0  0
  139.8230   71.1450  225.0400 N   0  0  0  0  0  0  0  0  0  0  0  0
  139.1530   70.8070  223.9280 C   0  0  0  0  0  0  0  0  0  0  0  0
  138.8580   71.8880  222.9880 C   0  0  0  0  0  0  0  0  0  0  0  0
  139.5110   71.9970  221.8480 C   0  0  0  0  0  0  0  0  0  0  0  0
  140.4010   73.0960  221.5100 C   0  0  0  0  0  0  0  0  0  0  0  0
  140.0590   74.4250  221.6290 C   0  0  0  0  0  0  0  0  0  0  0  0
  140.9340   75.4550  221.2970 C   0  0  0  0  0  0  0  0  0  0  0  0
  142.1850   75.1300  220.8340 C   0  0  0  0  0  0  0  0  0  0  0  0
  142.5800   73.7950  220.6960 C   0  0  0  0  0  0  0  0  0  0  0  0
  143.8800   73.4800  220.2150 N   0  0  0  0  0  0  0  0  0  0  0  0
  144.0470   73.2770  218.7960 C   0  0  0  0  0  0  0  0  0  0  0  0
  145.4750   73.1890  218.3650 C   0  0  0  0  0  0  0  0  0  0  0  0
  146.2980   72.6060  219.3270 O   0  0  0  0  0  0  0  0  0  0  0  0
  146.3210   73.4530  220.4330 C   0  0  0  0  0  0  0  0  0  0  0  0
  144.9740   73.3730  221.1380 C   0  0  0  0  0  0  0  0  0  0  0  0
  141.6680   72.8220  221.0410 C   0  0  0  0  0  0  0  0  0  0  0  0
  138.7900   69.5550  223.6350 N   0  0  0  0  0  0  0  0  0  0  0  0
  138.0430   69.1150  222.5110 C   0  0  0  0  0  0  0  0  0  0  0  0
  136.5480   69.2600  222.5980 C   0  0  0  0  0  0  0  0  0  0  0  0
  136.0360   68.9010  223.9210 C   0  0  0  0  0  0  0  0  0  0  0  0
  135.9530   70.0450  224.9030 C   0  0  0  0  0  0  0  0  0  0  0  0
  134.9580   70.9990  224.2750 C   0  0  0  0  0  0  0  0  0  0  0  0
  135.6340   71.5830  223.0660 C   0  0  0  0  0  0  0  0  0  0  0  0
  136.1740   70.6070  222.0810 C   0  0  0  0  0  0  0  0  0  0  0  0
  139.8799   66.8439  226.3752 H   0  0  0  0  0  0  0  0  0  0  0  0
  141.1284   67.4163  228.4610 H   0  0  0  0  0  0  0  0  0  0  0  0
  141.1559   71.5648  227.3156 H   0  0  0  0  0  0  0  0  0  0  0  0
  138.0779   72.6226  223.2365 H   0  0  0  0  0  0  0  0  0  0  0  0
  139.3730   71.2016  221.1009 H   0  0  0  0  0  0  0  0  0  0  0  0
  139.0561   74.6820  222.0006 H   0  0  0  0  0  0  0  0  0  0  0  0
  140.6299   76.5068  221.4032 H   0  0  0  0  0  0  0  0  0  0  0  0
  142.8884   75.9325  220.5671 H   0  0  0  0  0  0  0  0  0  0  0  0
  143.5420   72.3403  218.5175 H   0  0  0  0  0  0  0  0  0  0  0  0
  143.6132   74.1538  218.2929 H   0  0  0  0  0  0  0  0  0  0  0  0
  145.5277   72.5862  217.4464 H   0  0  0  0  0  0  0  0  0  0  0  0
  145.8342   74.2159  218.2025 H   0  0  0  0  0  0  0  0  0  0  0  0
  147.1187   73.1396  221.1225 H   0  0  0  0  0  0  0  0  0  0  0  0
  146.5135   74.4865  220.1093 H   0  0  0  0  0  0  0  0  0  0  0  0
  144.9038   72.4087  221.6625 H   0  0  0  0  0  0  0  0  0  0  0  0
  144.9081   74.2140  221.8440 H   0  0  0  0  0  0  0  0  0  0  0  0
  141.9671   71.7686  220.9365 H   0  0  0  0  0  0  0  0  0  0  0  0
  138.3840   69.6902  221.6376 H   0  0  0  0  0  0  0  0  0  0  0  0
  138.2264   68.0323  222.4462 H   0  0  0  0  0  0  0  0  0  0  0  0
  136.0386   68.5312  221.9504 H   0  0  0  0  0  0  0  0  0  0  0  0
  135.0255   68.4850  223.7949 H   0  0  0  0  0  0  0  0  0  0  0  0
  136.7532   68.1825  224.3446 H   0  0  0  0  0  0  0  0  0  0  0  0
  135.5936   69.6943  225.8817 H   0  0  0  0  0  0  0  0  0  0  0  0
  136.9303   70.5151  225.0874 H   0  0  0  0  0  0  0  0  0  0  0  0
  134.0478   70.4577  223.9775 H   0  0  0  0  0  0  0  0  0  0  0  0
  134.6586   71.7857  224.9831 H   0  0  0  0  0  0  0  0  0  0  0  0
  134.9010   72.2160  222.5443 H   0  0  0  0  0  0  0  0  0  0  0  0
  136.5086   72.1276  223.4514 H   0  0  0  0  0  0  0  0  0  0  0  0
  135.4096   70.4633  221.3031 H   0  0  0  0  0  0  0  0  0  0  0  0
  137.1173   71.0495  221.7283 H   0  0  0  0  0  0  0  0  0  0  0  0
  1  2  2  0
  2  3  1  0
  3  4  2  0
  4  5  1  0
  5  6  2  0
  6  7  1  0
  6  8  1  0
  8  9  2  0
  9 10  1  0
 10 11  2  0
 11 12  1  0
 12 13  2  0
 13 14  1  0
 14 15  2  0
 15 16  1  0
 16 17  2  0
 17 18  1  0
 18 19  1  0
 19 20  1  0
 20 21  1  0
 21 22  1  0
 22 23  1  0
 23 24  1  0
 18 25  2  0
 11 26  1  0
 26 27  1  0
 27 28  1  0
 28 29  1  0
 29 30  1  0
 30 31  1  0
 31 32  1  0
 32 33  1  0
 26  2  1  0
 33 28  1  0
  9  3  1  0
 25 14  1  0
 24 19  1  0
  4 34  1  0
  5 35  1  0
  8 36  1  0
 12 37  1  0
 13 38  1  0
 15 39  1  0
 16 40  1  0
 17 41  1  0
 20 42  1  0
 20 43  1  0
 21 44  1  0
 21 45  1  0
 23 46  1  0
 23 47  1  0
 24 48  1  0
 24 49  1  0
 25 50  1  0
 27 51  1  0
 27 52  1  0
 28 53  1  0
 29 54  1  0
 29 55  1  0
 30 56  1  0
 30 57  1  0
 31 58  1  0
 31 59  1  0
 32 60  1  0
 32 61  1  0
 33 62  1  0
 33 63  1  0
M  END
>  <smiles>  (41) 
O=c1c2ccc(F)cc2nc(/C=C/c2cccc(N3CCOCC3)c2)n1CC1CCCCC1

>  <score_type>  (41) 
oracle

>  <origin>  (41) 
autodockgpu

>  <m_score__min__energy>  (41) 
-9.0299999999999994

>  <m_primary>  (41) 
energy

>  <rmsd>  (41) 
12.124361935207872

>  <m_score__min__rmsd>  (41) 
12.124361935207872

>  <meeko>  (41) 
{"free_energy": -8.2, "intermolecular_energy": -9.99, "internal_energy": -1.79, "cluster_size": 18, "cluster_id": 1, "rank_in_cluster": 17}

>  <energy>  (41) 
-7.81

>  <cluster_rmsd>  (41) 
0.56

>  <cluster>  (41) 
3

$$$$

     RDKit          3D

 63 67  0  0  0  0  0  0  0  0999 V2000
  139.1850   67.7760  225.3310 O   0  0  0  0  0  0  0  0  0  0  0  0
  139.5310   68.9590  225.0760 C   0  0  0  0  0  0  0  0  0  0  0  0
  140.1100   69.6840  226.0880 C   0  0  0  0  0  0  0  0  0  0  0  0
  140.2890   69.0890  227.3370 C   0  0  0  0  0  0  0  0  0  0  0  0
  140.8750   69.8320  228.3500 C   0  0  0  0  0  0  0  0  0  0  0  0
  141.2720   71.1450  228.1100 C   0  0  0  0  0  0  0  0  0  0  0  0
  141.8460   71.8880  229.0890 F   0  0  0  0  0  0  0  0  0  0  0  0
  141.0850   71.7110  226.8650 C   0  0  0  0  0  0  0  0  0  0  0  0
  140.4980   70.9800  225.8390 C   0  0  0  0  0  0  0  0  0  0  0  0
  140.2940   71.4810  224.6130 N   0  0  0  0  0  0  0  0  0  0  0  0
  139.7250   70.7400  223.6500 C   0  0  0  0  0  0  0  0  0  0  0  0
  139.5900   71.3670  222.3350 C   0  0  0  0  0  0  0  0  0  0  0  0
  139.3330   72.6540  222.2170 C   0  0  0  0  0  0  0  0  0  0  0  0
  140.2660   73.6360  221.6890 C   0  0  0  0  0  0  0  0  0  0  0  0
  140.0630   74.9970  221.7470 C   0  0  0  0  0  0  0  0  0  0  0  0
  140.9760   75.9130  221.2320 C   0  0  0  0  0  0  0  0  0  0  0  0
  142.1220   75.4360  220.6450 C   0  0  0  0  0  0  0  0  0  0  0  0
  142.3750   74.0630  220.5610 C   0  0  0  0  0  0  0  0  0  0  0  0
  143.5680   73.5910  219.9490 N   0  0  0  0  0  0  0  0  0  0  0  0
  144.2510   72.4780  220.5640 C   0  0  0  0  0  0  0  0  0  0  0  0
  145.3470   71.9070  219.7240 C   0  0  0  0  0  0  0  0  0  0  0  0
  145.9890   72.8670  218.9430 O   0  0  0  0  0  0  0  0  0  0  0  0
  145.0630   73.3510  218.0220 C   0  0  0  0  0  0  0  0  0  0  0  0
  144.0540   74.2240  218.7560 C   0  0  0  0  0  0  0  0  0  0  0  0
  141.4320   73.2090  221.0890 C   0  0  0  0  0  0  0  0  0  0  0  0
  139.3250   69.4780  223.8270 N   0  0  0  0  0  0  0  0  0  0  0  0
  138.6750   68.6390  222.8840 C   0  0  0  0  0  0  0  0  0  0  0  0
  137.1810   68.7810  222.7740 C   0  0  0  0  0  0  0  0  0  0  0  0
  136.5760   69.2270  224.0290 C   0  0  0  0  0  0  0  0  0  0  0  0
  136.4560   70.7250  224.1800 C   0  0  0  0  0  0  0  0  0  0  0  0
  135.5270   71.1360  223.0570 C   0  0  0  0  0  0  0  0  0  0  0  0
  136.2930   70.9420  221.7780 C   0  0  0  0  0  0  0  0  0  0  0  0
  136.8730   69.5890  221.5600 C   0  0  0  0  0  0  0  0  0  0  0  0
  139.9715   68.0509  227.5145 H   0  0  0  0  0  0  0  0  0  0  0  0
  141.0264   69.3845  229.3434 H   0  0  0  0  0  0  0  0  0  0  0  0
  141.4029   72.7483  226.6836 H   0  0  0  0  0  0  0  0  0  0  0  0
  139.7050   70.7535  221.4293 H   0  0  0  0  0  0  0  0  0  0  0  0
  138.3438   73.0101  222.5405 H   0  0  0  0  0  0  0  0  0  0  0  0
  139.1438   75.3748  222.2185 H   0  0  0  0  0  0  0  0  0  0  0  0
  140.7838   76.9943  221.2939 H   0  0  0  0  0  0  0  0  0  0  0  0
  142.8541   76.1464  220.2335 H   0  0  0  0  0  0  0  0  0  0  0  0
  144.6848   72.8196  221.5154 H   0  0  0  0  0  0  0  0  0  0  0  0
  143.5055   71.6814  220.7044 H   0  0  0  0  0  0  0  0  0  0  0  0
  146.0901   71.4398  220.3870 H   0  0  0  0  0  0  0  0  0  0  0  0
  144.8915   71.1760  219.0398 H   0  0  0  0  0  0  0  0  0  0  0  0
  145.5801   73.9473  217.2559 H   0  0  0  0  0  0  0  0  0  0  0  0
  144.5466   72.5115  217.5336 H   0  0  0  0  0  0  0  0  0  0  0  0
  144.5372   75.1738  219.0287 H   0  0  0  0  0  0  0  0  0  0  0  0
  143.1979   74.3931  218.0863 H   0  0  0  0  0  0  0  0  0  0  0  0
  141.6193   72.1267  221.0288 H   0  0  0  0  0  0  0  0  0  0  0  0
  139.1045   68.8537  221.8943 H   0  0  0  0  0  0  0  0  0  0  0  0
  138.8434   67.6132  223.2436 H   0  0  0  0  0  0  0  0  0  0  0  0
  136.6975   67.8046  222.6229 H   0  0  0  0  0  0  0  0  0  0  0  0
  135.5665   68.7950  224.0942 H   0  0  0  0  0  0  0  0  0  0  0  0
  137.2470   68.8887  224.8323 H   0  0  0  0  0  0  0  0  0  0  0  0
  136.0255   70.9857  225.1581 H   0  0  0  0  0  0  0  0  0  0  0  0
  137.4300   71.2338  224.1299 H   0  0  0  0  0  0  0  0  0  0  0  0
  134.6254   70.5058  223.0595 H   0  0  0  0  0  0  0  0  0  0  0  0
  135.2014   72.1805  223.1717 H   0  0  0  0  0  0  0  0  0  0  0  0
  135.6100   71.1533  220.9420 H   0  0  0  0  0  0  0  0  0  0  0  0
  137.1530   71.6248  221.8427 H   0  0  0  0  0  0  0  0  0  0  0  0
  136.1577   69.0153  220.9523 H   0  0  0  0  0  0  0  0  0  0  0  0
  137.8473   69.7695  221.0824 H   0  0  0  0  0  0  0  0  0  0  0  0
  1  2  2  0
  2  3  1  0
  3  4  2  0
  4  5  1  0
  5  6  2  0
  6  7  1  0
  6  8  1  0
  8  9  2  0
  9 10  1  0
 10 11  2  0
 11 12  1  0
 12 13  2  0
 13 14  1  0
 14 15  2  0
 15 16  1  0
 16 17  2  0
 17 18  1  0
 18 19  1  0
 19 20  1  0
 20 21  1  0
 21 22  1  0
 22 23  1  0
 23 24  1  0
 18 25  2  0
 11 26  1  0
 26 27  1  0
 27 28  1  0
 28 29  1  0
 29 30  1  0
 30 31  1  0
 31 32  1  0
 32 33  1  0
 26  2  1  0
 33 28  1  0
  9  3  1  0
 25 14  1  0
 24 19  1  0
  4 34  1  0
  5 35  1  0
  8 36  1  0
 12 37  1  0
 13 38  1  0
 15 39  1  0
 16 40  1  0
 17 41  1  0
 20 42  1  0
 20 43  1  0
 21 44  1  0
 21 45  1  0
 23 46  1  0
 23 47  1  0
 24 48  1  0
 24 49  1  0
 25 50  1  0
 27 51  1  0
 27 52  1  0
 28 53  1  0
 29 54  1  0
 29 55  1  0
 30 56  1  0
 30 57  1  0
 31 58  1  0
 31 59  1  0
 32 60  1  0
 32 61  1  0
 33 62  1  0
 33 63  1  0
M  END
>  <smiles>  (42) 
O=c1c2ccc(F)cc2nc(/C=C/c2cccc(N3CCOCC3)c2)n1CC1CCCCC1

>  <score_type>  (42) 
oracle

>  <origin>  (42) 
autodockgpu

>  <m_score__min__energy>  (42) 
-9.0299999999999994

>  <m_primary>  (42) 
energy

>  <rmsd>  (42) 
11.416928866356491

>  <m_score__min__rmsd>  (42) 
11.416928866356491

>  <meeko>  (42) 
{"free_energy": -8.67, "intermolecular_energy": -10.46, "internal_energy": -1.96, "cluster_size": 18, "cluster_id": 1, "rank_in_cluster": 10}

>  <energy>  (42) 
-8.26

>  <cluster_rmsd>  (42) 
0.0

>  <cluster>  (42) 
4

$$$$

     RDKit          3D

 63 67  0  0  0  0  0  0  0  0999 V2000
  139.1840   67.7230  225.0410 O   0  0  0  0  0  0  0  0  0  0  0  0
  139.4810   68.9360  224.8900 C   0  0  0  0  0  0  0  0  0  0  0  0
  140.0720   69.5820  225.9480 C   0  0  0  0  0  0  0  0  0  0  0  0
  140.3140   68.8780  227.1270 C   0  0  0  0  0  0  0  0  0  0  0  0
  140.9100   69.5430  228.1880 C   0  0  0  0  0  0  0  0  0  0  0  0
  141.2550   70.8850  228.0620 C   0  0  0  0  0  0  0  0  0  0  0  0
  141.8390   71.5530  229.0890 F   0  0  0  0  0  0  0  0  0  0  0  0
  141.0060   71.5600  226.8850 C   0  0  0  0  0  0  0  0  0  0  0  0
  140.4080   70.9090  225.8130 C   0  0  0  0  0  0  0  0  0  0  0  0
  140.1430   71.5160  224.6470 N   0  0  0  0  0  0  0  0  0  0  0  0
  139.5650   70.8500  223.6360 C   0  0  0  0  0  0  0  0  0  0  0  0
  139.3640   71.5940  222.3920 C   0  0  0  0  0  0  0  0  0  0  0  0
  139.5060   72.9040  222.3510 C   0  0  0  0  0  0  0  0  0  0  0  0
  140.3090   73.6140  221.3700 C   0  0  0  0  0  0  0  0  0  0  0  0
  139.8610   74.7030  220.6540 C   0  0  0  0  0  0  0  0  0  0  0  0
  140.6540   75.3620  219.7200 C   0  0  0  0  0  0  0  0  0  0  0  0
  141.9330   74.9080  219.5080 C   0  0  0  0  0  0  0  0  0  0  0  0
  142.4350   73.8080  220.2100 C   0  0  0  0  0  0  0  0  0  0  0  0
  143.7610   73.3540  219.9750 N   0  0  0  0  0  0  0  0  0  0  0  0
  144.8500   74.1230  220.5290 C   0  0  0  0  0  0  0  0  0  0  0  0
  146.1760   73.4420  220.4350 C   0  0  0  0  0  0  0  0  0  0  0  0
  146.2980   72.6470  219.2960 O   0  0  0  0  0  0  0  0  0  0  0  0
  145.3810   71.6040  219.4090 C   0  0  0  0  0  0  0  0  0  0  0  0
  143.9800   72.1620  219.2050 C   0  0  0  0  0  0  0  0  0  0  0  0
  141.6000   73.1980  221.1200 C   0  0  0  0  0  0  0  0  0  0  0  0
  139.2140   69.5630  223.7040 N   0  0  0  0  0  0  0  0  0  0  0  0
  138.5600   68.7950  222.7060 C   0  0  0  0  0  0  0  0  0  0  0  0
  137.0630   68.9270  222.6280 C   0  0  0  0  0  0  0  0  0  0  0  0
  136.4740   69.2910  223.9180 C   0  0  0  0  0  0  0  0  0  0  0  0
  136.3420   70.7750  224.1610 C   0  0  0  0  0  0  0  0  0  0  0  0
  135.3910   71.2430  223.0790 C   0  0  0  0  0  0  0  0  0  0  0  0
  136.1380   71.1350  221.7790 C   0  0  0  0  0  0  0  0  0  0  0  0
  136.7270   69.8040  221.4700 C   0  0  0  0  0  0  0  0  0  0  0  0
  140.0378   67.8168  227.2138 H   0  0  0  0  0  0  0  0  0  0  0  0
  141.1100   69.0096  229.1290 H   0  0  0  0  0  0  0  0  0  0  0  0
  141.2827   72.6208  226.7945 H   0  0  0  0  0  0  0  0  0  0  0  0
  139.0898   71.0510  221.4755 H   0  0  0  0  0  0  0  0  0  0  0  0
  138.9806   73.5004  223.1115 H   0  0  0  0  0  0  0  0  0  0  0  0
  138.8369   75.0651  220.8277 H   0  0  0  0  0  0  0  0  0  0  0  0
  140.2653   76.2276  219.1635 H   0  0  0  0  0  0  0  0  0  0  0  0
  142.5731   75.4185  218.7734 H   0  0  0  0  0  0  0  0  0  0  0  0
  144.9112   75.0783  219.9871 H   0  0  0  0  0  0  0  0  0  0  0  0
  144.6346   74.2599  221.5990 H   0  0  0  0  0  0  0  0  0  0  0  0
  146.9639   74.2093  220.4136 H   0  0  0  0  0  0  0  0  0  0  0  0
  146.2710   72.7821  221.3099 H   0  0  0  0  0  0  0  0  0  0  0  0
  145.5910   70.8420  218.6440 H   0  0  0  0  0  0  0  0  0  0  0  0
  145.4593   71.1422  220.4043 H   0  0  0  0  0  0  0  0  0  0  0  0
  143.8425   72.3969  218.1392 H   0  0  0  0  0  0  0  0  0  0  0  0
  143.2584   71.4024  219.5401 H   0  0  0  0  0  0  0  0  0  0  0  0
  141.9840   72.3313  221.6780 H   0  0  0  0  0  0  0  0  0  0  0  0
  138.9727   69.0937  221.7311 H   0  0  0  0  0  0  0  0  0  0  0  0
  138.7450   67.7457  222.9796 H   0  0  0  0  0  0  0  0  0  0  0  0
  136.5872   67.9561  222.4255 H   0  0  0  0  0  0  0  0  0  0  0  0
  135.4699   68.8452  223.9730 H   0  0  0  0  0  0  0  0  0  0  0  0
  137.1616   68.9124  224.6886 H   0  0  0  0  0  0  0  0  0  0  0  0
  135.9246   70.9716  225.1596 H   0  0  0  0  0  0  0  0  0  0  0  0
  137.3100   71.2963  224.1268 H   0  0  0  0  0  0  0  0  0  0  0  0
  134.4959   70.6040  223.0573 H   0  0  0  0  0  0  0  0  0  0  0  0
  135.0572   72.2751  223.2617 H   0  0  0  0  0  0  0  0  0  0  0  0
  135.4397   71.3897  220.9682 H   0  0  0  0  0  0  0  0  0  0  0  0
  136.9925   71.8214  221.8719 H   0  0  0  0  0  0  0  0  0  0  0  0
  136.0071   69.2607  220.8402 H   0  0  0  0  0  0  0  0  0  0  0  0
  137.6914   70.0233  220.9885 H   0  0  0  0  0  0  0  0  0  0  0  0
  1  2  2  0
  2  3  1  0
  3  4  2  0
  4  5  1  0
  5  6  2  0
  6  7  1  0
  6  8  1  0
  8  9  2  0
  9 10  1  0
 10 11  2  0
 11 12  1  0
 12 13  2  0
 13 14  1  0
 14 15  2  0
 15 16  1  0
 16 17  2  0
 17 18  1  0
 18 19  1  0
 19 20  1  0
 20 21  1  0
 21 22  1  0
 22 23  1  0
 23 24  1  0
 18 25  2  0
 11 26  1  0
 26 27  1  0
 27 28  1  0
 28 29  1  0
 29 30  1  0
 30 31  1  0
 31 32  1  0
 32 33  1  0
 26  2  1  0
 33 28  1  0
  9  3  1  0
 25 14  1  0
 24 19  1  0
  4 34  1  0
  5 35  1  0
  8 36  1  0
 12 37  1  0
 13 38  1  0
 15 39  1  0
 16 40  1  0
 17 41  1  0
 20 42  1  0
 20 43  1  0
 21 44  1  0
 21 45  1  0
 23 46  1  0
 23 47  1  0
 24 48  1  0
 24 49  1  0
 25 50  1  0
 27 51  1  0
 27 52  1  0
 28 53  1  0
 29 54  1  0
 29 55  1  0
 30 56  1  0
 30 57  1  0
 31 58  1  0
 31 59  1  0
 32 60  1  0
 32 61  1  0
 33 62  1  0
 33 63  1  0
M  END
>  <smiles>  (43) 
O=c1c2ccc(F)cc2nc(/C=C/c2cccc(N3CCOCC3)c2)n1CC1CCCCC1

>  <score_type>  (43) 
oracle

>  <origin>  (43) 
autodockgpu

>  <m_score__min__energy>  (43) 
-9.0299999999999994

>  <m_primary>  (43) 
energy

>  <rmsd>  (43) 
11.45059109293668

>  <m_score__min__rmsd>  (43) 
11.45059109293668

>  <meeko>  (43) 
{"free_energy": -8.5, "intermolecular_energy": -10.29, "internal_energy": -1.88, "cluster_size": 18, "cluster_id": 1, "rank_in_cluster": 13}

>  <energy>  (43) 
-8.16

>  <cluster_rmsd>  (43) 
0.0

>  <cluster>  (43) 
5

$$$$

     RDKit          3D

 63 67  0  0  0  0  0  0  0  0999 V2000
  139.1850   67.6450  225.4010 O   0  0  0  0  0  0  0  0  0  0  0  0
  139.5230   68.8210  225.1080 C   0  0  0  0  0  0  0  0  0  0  0  0
  140.1010   69.5810  226.0950 C   0  0  0  0  0  0  0  0  0  0  0  0
  140.2860   69.0270  227.3610 C   0  0  0  0  0  0  0  0  0  0  0  0
  140.8700   69.8040  228.3490 C   0  0  0  0  0  0  0  0  0  0  0  0
  141.2600   71.1110  228.0670 C   0  0  0  0  0  0  0  0  0  0  0  0
  141.8330   71.8880  229.0200 F   0  0  0  0  0  0  0  0  0  0  0  0
  141.0670   71.6370  226.8060 C   0  0  0  0  0  0  0  0  0  0  0  0
  140.4820   70.8700  225.8050 C   0  0  0  0  0  0  0  0  0  0  0  0
  140.2710   71.3310  224.5630 N   0  0  0  0  0  0  0  0  0  0  0  0
  139.7040   70.5570  223.6260 C   0  0  0  0  0  0  0  0  0  0  0  0
  139.5620   71.1420  222.2920 C   0  0  0  0  0  0  0  0  0  0  0  0
  139.3090   72.4260  222.1340 C   0  0  0  0  0  0  0  0  0  0  0  0
  140.2820   73.4080  221.6860 C   0  0  0  0  0  0  0  0  0  0  0  0
  140.0580   74.7680  221.6910 C   0  0  0  0  0  0  0  0  0  0  0  0
  141.0100   75.6840  221.2550 C   0  0  0  0  0  0  0  0  0  0  0  0
  142.2180   75.2110  220.8040 C   0  0  0  0  0  0  0  0  0  0  0  0
  142.4940   73.8400  220.7800 C   0  0  0  0  0  0  0  0  0  0  0  0
  143.7510   73.3720  220.3090 N   0  0  0  0  0  0  0  0  0  0  0  0
  144.9350   74.1010  220.6950 C   0  0  0  0  0  0  0  0  0  0  0  0
  146.2100   73.4010  220.3560 C   0  0  0  0  0  0  0  0  0  0  0  0
  146.1200   72.6440  219.1880 O   0  0  0  0  0  0  0  0  0  0  0  0
  145.2110   71.6150  219.4210 C   0  0  0  0  0  0  0  0  0  0  0  0
  143.8080   72.2040  219.4750 C   0  0  0  0  0  0  0  0  0  0  0  0
  141.5100   72.9850  221.2240 C   0  0  0  0  0  0  0  0  0  0  0  0
  139.3110   69.2990  223.8440 N   0  0  0  0  0  0  0  0  0  0  0  0
  138.6640   68.4280  222.9300 C   0  0  0  0  0  0  0  0  0  0  0  0
  137.1730   68.5760  222.7990 C   0  0  0  0  0  0  0  0  0  0  0  0
  136.5730   69.1830  223.9880 C   0  0  0  0  0  0  0  0  0  0  0  0
  136.4740   70.6890  223.9530 C   0  0  0  0  0  0  0  0  0  0  0  0
  135.5520   70.9720  222.7850 C   0  0  0  0  0  0  0  0  0  0  0  0
  136.3160   70.6100  221.5420 C   0  0  0  0  0  0  0  0  0  0  0  0
  136.8770   69.2330  221.4940 C   0  0  0  0  0  0  0  0  0  0  0  0
  139.9745   67.9933  227.5716 H   0  0  0  0  0  0  0  0  0  0  0  0
  141.0254   69.3885  229.3556 H   0  0  0  0  0  0  0  0  0  0  0  0
  141.3781   72.6700  226.5914 H   0  0  0  0  0  0  0  0  0  0  0  0
  139.6682   70.4990  221.4058 H   0  0  0  0  0  0  0  0  0  0  0  0
  138.2911   72.7785  222.3566 H   0  0  0  0  0  0  0  0  0  0  0  0
  139.0897   75.1434  222.0535 H   0  0  0  0  0  0  0  0  0  0  0  0
  140.7998   76.7636  221.2711 H   0  0  0  0  0  0  0  0  0  0  0  0
  142.9813   75.9224  220.4558 H   0  0  0  0  0  0  0  0  0  0  0  0
  144.9262   75.0739  220.1818 H   0  0  0  0  0  0  0  0  0  0  0  0
  144.9063   74.2029  221.7899 H   0  0  0  0  0  0  0  0  0  0  0  0
  147.0003   74.1549  220.2255 H   0  0  0  0  0  0  0  0  0  0  0  0
  146.4361   72.7093  221.1809 H   0  0  0  0  0  0  0  0  0  0  0  0
  145.2713   70.8770  218.6076 H   0  0  0  0  0  0  0  0  0  0  0  0
  145.4450   71.1177  220.3738 H   0  0  0  0  0  0  0  0  0  0  0  0
  143.4978   72.4787  218.4560 H   0  0  0  0  0  0  0  0  0  0  0  0
  143.1354   71.4458  219.9024 H   0  0  0  0  0  0  0  0  0  0  0  0
  141.7153   71.9044  221.2092 H   0  0  0  0  0  0  0  0  0  0  0  0
  139.1049   68.5992  221.9368 H   0  0  0  0  0  0  0  0  0  0  0  0
  138.8207   67.4165  223.3329 H   0  0  0  0  0  0  0  0  0  0  0  0
  136.6768   67.5948  222.7678 H   0  0  0  0  0  0  0  0  0  0  0  0
  135.5573   68.7766  224.1033 H   0  0  0  0  0  0  0  0  0  0  0  0
  137.2389   68.9376  224.8285 H   0  0  0  0  0  0  0  0  0  0  0  0
  136.0461   71.0740  224.8904 H   0  0  0  0  0  0  0  0  0  0  0  0
  137.4552   71.1740  223.8433 H   0  0  0  0  0  0  0  0  0  0  0  0
  134.6410   70.3605  222.8629 H   0  0  0  0  0  0  0  0  0  0  0  0
  135.2422   72.0274  222.7688 H   0  0  0  0  0  0  0  0  0  0  0  0
  135.6365   70.7257  220.6847 H   0  0  0  0  0  0  0  0  0  0  0  0
  137.1858   71.2832  221.5243 H   0  0  0  0  0  0  0  0  0  0  0  0
  136.1542   68.5988  220.9598 H   0  0  0  0  0  0  0  0  0  0  0  0
  137.8542   69.3402  221.0005 H   0  0  0  0  0  0  0  0  0  0  0  0
  1  2  2  0
  2  3  1  0
  3  4  2  0
  4  5  1  0
  5  6  2  0
  6  7  1  0
  6  8  1  0
  8  9  2  0
  9 10  1  0
 10 11  2  0
 11 12  1  0
 12 13  2  0
 13 14  1  0
 14 15  2  0
 15 16  1  0
 16 17  2  0
 17 18  1  0
 18 19  1  0
 19 20  1  0
 20 21  1  0
 21 22  1  0
 22 23  1  0
 23 24  1  0
 18 25  2  0
 11 26  1  0
 26 27  1  0
 27 28  1  0
 28 29  1  0
 29 30  1  0
 30 31  1  0
 31 32  1  0
 32 33  1  0
 26  2  1  0
 33 28  1  0
  9  3  1  0
 25 14  1  0
 24 19  1  0
  4 34  1  0
  5 35  1  0
  8 36  1  0
 12 37  1  0
 13 38  1  0
 15 39  1  0
 16 40  1  0
 17 41  1  0
 20 42  1  0
 20 43  1  0
 21 44  1  0
 21 45  1  0
 23 46  1  0
 23 47  1  0
 24 48  1  0
 24 49  1  0
 25 50  1  0
 27 51  1  0
 27 52  1  0
 28 53  1  0
 29 54  1  0
 29 55  1  0
 30 56  1  0
 30 57  1  0
 31 58  1  0
 31 59  1  0
 32 60  1  0
 32 61  1  0
 33 62  1  0
 33 63  1  0
M  END
>  <smiles>  (44) 
O=c1c2ccc(F)cc2nc(/C=C/c2cccc(N3CCOCC3)c2)n1CC1CCCCC1

>  <score_type>  (44) 
oracle

>  <origin>  (44) 
autodockgpu

>  <m_score__min__energy>  (44) 
-9.0299999999999994

>  <m_primary>  (44) 
energy

>  <rmsd>  (44) 
11.448541710088906

>  <m_score__min__rmsd>  (44) 
11.448541710088906

>  <meeko>  (44) 
{"free_energy": -9.03, "intermolecular_energy": -10.82, "internal_energy": -1.97, "cluster_size": 18, "cluster_id": 1, "rank_in_cluster": 1}

>  <energy>  (44) 
-8.15

>  <cluster_rmsd>  (44) 
0.36

>  <cluster>  (44) 
5

$$$$

     RDKit          3D

 63 67  0  0  0  0  0  0  0  0999 V2000
  138.8370   67.8880  225.3380 O   0  0  0  0  0  0  0  0  0  0  0  0
  139.3380   69.0050  225.0460 C   0  0  0  0  0  0  0  0  0  0  0  0
  139.9360   69.7160  226.0560 C   0  0  0  0  0  0  0  0  0  0  0  0
  139.9630   69.1810  227.3440 C   0  0  0  0  0  0  0  0  0  0  0  0
  140.5690   69.9100  228.3550 C   0  0  0  0  0  0  0  0  0  0  0  0
  141.1360   71.1500  228.0750 C   0  0  0  0  0  0  0  0  0  0  0  0
  141.7330   71.8790  229.0520 F   0  0  0  0  0  0  0  0  0  0  0  0
  141.0970   71.6590  226.7930 C   0  0  0  0  0  0  0  0  0  0  0  0
  140.4920   70.9410  225.7690 C   0  0  0  0  0  0  0  0  0  0  0  0
  140.4270   71.3880  224.5060 N   0  0  0  0  0  0  0  0  0  0  0  0
  139.8340   70.6620  223.5460 C   0  0  0  0  0  0  0  0  0  0  0  0
  139.8590   71.2210  222.1940 C   0  0  0  0  0  0  0  0  0  0  0  0
  140.9860   71.6320  221.6470 C   0  0  0  0  0  0  0  0  0  0  0  0
  141.2990   73.0200  221.3510 C   0  0  0  0  0  0  0  0  0  0  0  0
  142.4380   73.4260  220.6900 C   0  0  0  0  0  0  0  0  0  0  0  0
  142.7100   74.7640  220.4220 C   0  0  0  0  0  0  0  0  0  0  0  0
  141.8070   75.7130  220.8330 C   0  0  0  0  0  0  0  0  0  0  0  0
  140.6360   75.3520  221.5080 C   0  0  0  0  0  0  0  0  0  0  0  0
  139.7150   76.3500  221.9260 N   0  0  0  0  0  0  0  0  0  0  0  0
  138.3280   75.9760  222.0660 C   0  0  0  0  0  0  0  0  0  0  0  0
  137.4880   77.0170  222.7330 C   0  0  0  0  0  0  0  0  0  0  0  0
  137.9100   78.3160  222.4520 O   0  0  0  0  0  0  0  0  0  0  0  0
  139.1750   78.4800  223.0120 C   0  0  0  0  0  0  0  0  0  0  0  0
  140.1790   77.6820  222.1920 C   0  0  0  0  0  0  0  0  0  0  0  0
  140.4250   74.0110  221.7430 C   0  0  0  0  0  0  0  0  0  0  0  0
  139.2750   69.4680  223.7610 N   0  0  0  0  0  0  0  0  0  0  0  0
  138.5900   68.6570  222.8190 C   0  0  0  0  0  0  0  0  0  0  0  0
  137.1360   68.9700  222.5920 C   0  0  0  0  0  0  0  0  0  0  0  0
  136.4380   69.2820  223.8400 C   0  0  0  0  0  0  0  0  0  0  0  0
  136.4360   70.7430  224.2190 C   0  0  0  0  0  0  0  0  0  0  0  0
  135.6770   71.4160  223.0940 C   0  0  0  0  0  0  0  0  0  0  0  0
  136.5600   71.3390  221.8800 C   0  0  0  0  0  0  0  0  0  0  0  0
  137.0370   69.9820  221.5010 C   0  0  0  0  0  0  0  0  0  0  0  0
  139.5121   68.1997  227.5531 H   0  0  0  0  0  0  0  0  0  0  0  0
  140.6019   69.5087  229.3786 H   0  0  0  0  0  0  0  0  0  0  0  0
  141.5478   72.6396  226.5804 H   0  0  0  0  0  0  0  0  0  0  0  0
  138.9214   71.2997  221.6242 H   0  0  0  0  0  0  0  0  0  0  0  0
  141.7412   70.8722  221.3975 H   0  0  0  0  0  0  0  0  0  0  0  0
  143.1596   72.6633  220.3618 H   0  0  0  0  0  0  0  0  0  0  0  0
  143.6289   75.0552  219.8921 H   0  0  0  0  0  0  0  0  0  0  0  0
  142.0076   76.7750  220.6281 H   0  0  0  0  0  0  0  0  0  0  0  0
  137.9164   75.7880  221.0634 H   0  0  0  0  0  0  0  0  0  0  0  0
  138.2998   75.0821  222.7065 H   0  0  0  0  0  0  0  0  0  0  0  0
  136.4493   76.9032  222.3893 H   0  0  0  0  0  0  0  0  0  0  0  0
  137.5781   76.8681  223.8191 H   0  0  0  0  0  0  0  0  0  0  0  0
  139.4501   79.5450  222.9995 H   0  0  0  0  0  0  0  0  0  0  0  0
  139.1733   78.1234  224.0526 H   0  0  0  0  0  0  0  0  0  0  0  0
  140.3466   78.1979  221.2350 H   0  0  0  0  0  0  0  0  0  0  0  0
  141.1110   77.6088  222.7717 H   0  0  0  0  0  0  0  0  0  0  0  0
  139.5078   73.7147  222.2731 H   0  0  0  0  0  0  0  0  0  0  0  0
  139.1076   68.7571  221.8536 H   0  0  0  0  0  0  0  0  0  0  0  0
  138.6054   67.6426  223.2441 H   0  0  0  0  0  0  0  0  0  0  0  0
  136.5877   68.0840  222.2394 H   0  0  0  0  0  0  0  0  0  0  0  0
  135.3930   68.9540  223.7382 H   0  0  0  0  0  0  0  0  0  0  0  0
  136.9835   68.7570  224.6381 H   0  0  0  0  0  0  0  0  0  0  0  0
  135.9250   70.8961  225.1810 H   0  0  0  0  0  0  0  0  0  0  0  0
  137.4511   71.1478  224.3445 H   0  0  0  0  0  0  0  0  0  0  0  0
  134.7282   70.8913  222.9081 H   0  0  0  0  0  0  0  0  0  0  0  0
  135.4346   72.4592  223.3450 H   0  0  0  0  0  0  0  0  0  0  0  0
  135.9960   71.7467  221.0282 H   0  0  0  0  0  0  0  0  0  0  0  0
  137.4652   71.9085  222.1373 H   0  0  0  0  0  0  0  0  0  0  0  0
  136.3446   69.5865  220.7433 H   0  0  0  0  0  0  0  0  0  0  0  0
  138.0701   70.1291  221.1532 H   0  0  0  0  0  0  0  0  0  0  0  0
  1  2  2  0
  2  3  1  0
  3  4  2  0
  4  5  1  0
  5  6  2  0
  6  7  1  0
  6  8  1  0
  8  9  2  0
  9 10  1  0
 10 11  2  0
 11 12  1  0
 12 13  2  0
 13 14  1  0
 14 15  2  0
 15 16  1  0
 16 17  2  0
 17 18  1  0
 18 19  1  0
 19 20  1  0
 20 21  1  0
 21 22  1  0
 22 23  1  0
 23 24  1  0
 18 25  2  0
 11 26  1  0
 26 27  1  0
 27 28  1  0
 28 29  1  0
 29 30  1  0
 30 31  1  0
 31 32  1  0
 32 33  1  0
 26  2  1  0
 33 28  1  0
  9  3  1  0
 25 14  1  0
 24 19  1  0
  4 34  1  0
  5 35  1  0
  8 36  1  0
 12 37  1  0
 13 38  1  0
 15 39  1  0
 16 40  1  0
 17 41  1  0
 20 42  1  0
 20 43  1  0
 21 44  1  0
 21 45  1  0
 23 46  1  0
 23 47  1  0
 24 48  1  0
 24 49  1  0
 25 50  1  0
 27 51  1  0
 27 52  1  0
 28 53  1  0
 29 54  1  0
 29 55  1  0
 30 56  1  0
 30 57  1  0
 31 58  1  0
 31 59  1  0
 32 60  1  0
 32 61  1  0
 33 62  1  0
 33 63  1  0
M  END
>  <smiles>  (45) 
O=c1c2ccc(F)cc2nc(/C=C/c2cccc(N3CCOCC3)c2)n1CC1CCCCC1

>  <score_type>  (45) 
oracle

>  <origin>  (45) 
autodockgpu

>  <m_score__min__energy>  (45) 
-9.0299999999999994

>  <m_primary>  (45) 
energy

>  <rmsd>  (45) 
11.360967400913841

>  <m_score__min__rmsd>  (45) 
11.360967400913841

>  <meeko>  (45) 
{"free_energy": -7.84, "intermolecular_energy": -9.63, "internal_energy": -2.02, "cluster_size": 15, "cluster_id": 3, "rank_in_cluster": 14}

>  <energy>  (45) 
-8.01

>  <cluster_rmsd>  (45) 
0.46

>  <cluster>  (45) 
5

$$$$

     RDKit          3D

 63 67  0  0  0  0  0  0  0  0999 V2000
  142.6940   77.6280  219.3630 O   0  0  0  0  0  0  0  0  0  0  0  0
  141.9540   77.2930  220.3250 C   0  0  0  0  0  0  0  0  0  0  0  0
  141.6710   78.2480  221.2700 C   0  0  0  0  0  0  0  0  0  0  0  0
  142.2060   79.5280  221.1280 C   0  0  0  0  0  0  0  0  0  0  0  0
  141.9120   80.4820  222.0900 C   0  0  0  0  0  0  0  0  0  0  0  0
  141.0980   80.1540  223.1700 C   0  0  0  0  0  0  0  0  0  0  0  0
  140.8000   81.0740  224.1220 F   0  0  0  0  0  0  0  0  0  0  0  0
  140.5800   78.8800  223.2890 C   0  0  0  0  0  0  0  0  0  0  0  0
  140.8660   77.9120  222.3330 C   0  0  0  0  0  0  0  0  0  0  0  0
  140.3890   76.6610  222.4000 N   0  0  0  0  0  0  0  0  0  0  0  0
  140.6890   75.7560  221.4550 C   0  0  0  0  0  0  0  0  0  0  0  0
  140.0790   74.4340  221.5990 C   0  0  0  0  0  0  0  0  0  0  0  0
  140.8200   73.3510  221.7160 C   0  0  0  0  0  0  0  0  0  0  0  0
  140.3880   72.1220  222.3610 C   0  0  0  0  0  0  0  0  0  0  0  0
  139.7320   71.1020  221.7080 C   0  0  0  0  0  0  0  0  0  0  0  0
  139.3300   69.9370  222.3550 C   0  0  0  0  0  0  0  0  0  0  0  0
  139.5990   69.8040  223.6950 C   0  0  0  0  0  0  0  0  0  0  0  0
  140.2630   70.8110  224.4030 C   0  0  0  0  0  0  0  0  0  0  0  0
  140.5320   70.6530  225.7890 N   0  0  0  0  0  0  0  0  0  0  0  0
  141.0700   71.7830  226.5090 C   0  0  0  0  0  0  0  0  0  0  0  0
  141.0920   71.5970  227.9910 C   0  0  0  0  0  0  0  0  0  0  0  0
  141.3070   70.2720  228.3690 O   0  0  0  0  0  0  0  0  0  0  0  0
  140.2080   69.5280  227.9430 C   0  0  0  0  0  0  0  0  0  0  0  0
  140.2670   69.3940  226.4270 C   0  0  0  0  0  0  0  0  0  0  0  0
  140.6350   71.9390  223.7060 C   0  0  0  0  0  0  0  0  0  0  0  0
  141.4650   76.0190  220.4000 N   0  0  0  0  0  0  0  0  0  0  0  0
  141.8700   75.1150  219.3830 C   0  0  0  0  0  0  0  0  0  0  0  0
  143.3510   74.9060  219.2190 C   0  0  0  0  0  0  0  0  0  0  0  0
  143.9940   74.5100  220.4720 C   0  0  0  0  0  0  0  0  0  0  0  0
  144.0630   73.0200  220.7080 C   0  0  0  0  0  0  0  0  0  0  0  0
  144.9240   72.5060  219.5730 C   0  0  0  0  0  0  0  0  0  0  0  0
  144.1090   72.6550  218.3190 C   0  0  0  0  0  0  0  0  0  0  0  0
  143.5730   74.0160  218.0430 C   0  0  0  0  0  0  0  0  0  0  0  0
  142.8483   79.7757  220.2700 H   0  0  0  0  0  0  0  0  0  0  0  0
  142.3223   81.4986  221.9996 H   0  0  0  0  0  0  0  0  0  0  0  0
  139.9370   78.6292  224.1455 H   0  0  0  0  0  0  0  0  0  0  0  0
  138.9828   74.3427  221.6098 H   0  0  0  0  0  0  0  0  0  0  0  0
  141.8364   73.3787  221.2964 H   0  0  0  0  0  0  0  0  0  0  0  0
  139.5177   71.2122  220.6347 H   0  0  0  0  0  0  0  0  0  0  0  0
  138.8082   69.1401  221.8048 H   0  0  0  0  0  0  0  0  0  0  0  0
  139.2868   68.8896  224.2207 H   0  0  0  0  0  0  0  0  0  0  0  0
  142.1008   71.9546  226.1654 H   0  0  0  0  0  0  0  0  0  0  0  0
  140.4102   72.6387  226.3027 H   0  0  0  0  0  0  0  0  0  0  0  0
  141.8981   72.2168  228.4105 H   0  0  0  0  0  0  0  0  0  0  0  0
  140.1049   71.8937  228.3754 H   0  0  0  0  0  0  0  0  0  0  0  0
  140.2356   68.5297  228.4042 H   0  0  0  0  0  0  0  0  0  0  0  0
  139.2764   70.0327  228.2386 H   0  0  0  0  0  0  0  0  0  0  0  0
  141.0666   68.6862  226.1632 H   0  0  0  0  0  0  0  0  0  0  0  0
  139.2881   69.0337  226.0778 H   0  0  0  0  0  0  0  0  0  0  0  0
  141.1579   72.7382  224.2517 H   0  0  0  0  0  0  0  0  0  0  0  0
  141.4175   74.1374  219.6057 H   0  0  0  0  0  0  0  0  0  0  0  0
  141.5348   75.5704  218.4395 H   0  0  0  0  0  0  0  0  0  0  0  0
  143.8647   75.8512  218.9894 H   0  0  0  0  0  0  0  0  0  0  0  0
  145.0213   74.9033  220.4681 H   0  0  0  0  0  0  0  0  0  0  0  0
  143.3731   74.9221  221.2811 H   0  0  0  0  0  0  0  0  0  0  0  0
  144.5269   72.7997  221.6808 H   0  0  0  0  0  0  0  0  0  0  0  0
  143.0689   72.5495  220.7305 H   0  0  0  0  0  0  0  0  0  0  0  0
  145.8480   73.0982  219.4985 H   0  0  0  0  0  0  0  0  0  0  0  0
  145.2145   71.4578  219.7368 H   0  0  0  0  0  0  0  0  0  0  0  0
  144.7444   72.3655  217.4690 H   0  0  0  0  0  0  0  0  0  0  0  0
  143.2267   72.0140  218.4627 H   0  0  0  0  0  0  0  0  0  0  0  0
  144.2825   74.5227  217.3723 H   0  0  0  0  0  0  0  0  0  0  0  0
  142.5725   73.8489  217.6175 H   0  0  0  0  0  0  0  0  0  0  0  0
  1  2  2  0
  2  3  1  0
  3  4  2  0
  4  5  1  0
  5  6  2  0
  6  7  1  0
  6  8  1  0
  8  9  2  0
  9 10  1  0
 10 11  2  0
 11 12  1  0
 12 13  2  0
 13 14  1  0
 14 15  2  0
 15 16  1  0
 16 17  2  0
 17 18  1  0
 18 19  1  0
 19 20  1  0
 20 21  1  0
 21 22  1  0
 22 23  1  0
 23 24  1  0
 18 25  2  0
 11 26  1  0
 26 27  1  0
 27 28  1  0
 28 29  1  0
 29 30  1  0
 30 31  1  0
 31 32  1  0
 32 33  1  0
 26  2  1  0
 33 28  1  0
  9  3  1  0
 25 14  1  0
 24 19  1  0
  4 34  1  0
  5 35  1  0
  8 36  1  0
 12 37  1  0
 13 38  1  0
 15 39  1  0
 16 40  1  0
 17 41  1  0
 20 42  1  0
 20 43  1  0
 21 44  1  0
 21 45  1  0
 23 46  1  0
 23 47  1  0
 24 48  1  0
 24 49  1  0
 25 50  1  0
 27 51  1  0
 27 52  1  0
 28 53  1  0
 29 54  1  0
 29 55  1  0
 30 56  1  0
 30 57  1  0
 31 58  1  0
 31 59  1  0
 32 60  1  0
 32 61  1  0
 33 62  1  0
 33 63  1  0
M  END
>  <smiles>  (46) 
O=c1c2ccc(F)cc2nc(/C=C/c2cccc(N3CCOCC3)c2)n1CC1CCCCC1

>  <score_type>  (46) 
oracle

>  <origin>  (46) 
autodockgpu

>  <m_score__min__energy>  (46) 
-9.0299999999999994

>  <m_primary>  (46) 
energy

>  <rmsd>  (46) 
4.5950074381377135

>  <m_score__min__rmsd>  (46) 
4.5950074381377135

>  <meeko>  (46) 
{"free_energy": -8.37, "intermolecular_energy": -10.16, "internal_energy": -1.64, "cluster_size": 8, "cluster_id": 2, "rank_in_cluster": 6}

>  <energy>  (46) 
-8.04

>  <cluster_rmsd>  (46) 
0.0

>  <cluster>  (46) 
6

$$$$

     RDKit          3D

 63 67  0  0  0  0  0  0  0  0999 V2000
  140.6240   80.4440  220.6560 O   0  0  0  0  0  0  0  0  0  0  0  0
  140.8310   79.2080  220.5390 C   0  0  0  0  0  0  0  0  0  0  0  0
  141.4970   78.7790  219.4180 C   0  0  0  0  0  0  0  0  0  0  0  0
  141.9100   79.7150  218.4700 C   0  0  0  0  0  0  0  0  0  0  0  0
  142.5810   79.2680  217.3420 C   0  0  0  0  0  0  0  0  0  0  0  0
  142.8310   77.9090  217.1740 C   0  0  0  0  0  0  0  0  0  0  0  0
  143.4850   77.4530  216.0770 F   0  0  0  0  0  0  0  0  0  0  0  0
  142.4130   77.0020  218.1260 C   0  0  0  0  0  0  0  0  0  0  0  0
  141.7390   77.4340  219.2620 C   0  0  0  0  0  0  0  0  0  0  0  0
  141.3110   76.5960  220.2180 N   0  0  0  0  0  0  0  0  0  0  0  0
  140.6640   77.0550  221.3000 C   0  0  0  0  0  0  0  0  0  0  0  0
  140.2820   76.0610  222.3040 C   0  0  0  0  0  0  0  0  0  0  0  0
  139.6390   74.9630  221.9650 C   0  0  0  0  0  0  0  0  0  0  0  0
  140.2810   73.7050  221.6200 C   0  0  0  0  0  0  0  0  0  0  0  0
  139.6730   72.4740  221.7410 C   0  0  0  0  0  0  0  0  0  0  0  0
  140.3150   71.2870  221.4030 C   0  0  0  0  0  0  0  0  0  0  0  0
  141.6030   71.3490  220.9300 C   0  0  0  0  0  0  0  0  0  0  0  0
  142.2630   72.5730  220.7890 C   0  0  0  0  0  0  0  0  0  0  0  0
  143.5960   72.6150  220.2980 N   0  0  0  0  0  0  0  0  0  0  0  0
  144.4410   73.7060  220.7210 C   0  0  0  0  0  0  0  0  0  0  0  0
  145.8780   73.5330  220.3490 C   0  0  0  0  0  0  0  0  0  0  0  0
  146.0490   72.8510  219.1460 O   0  0  0  0  0  0  0  0  0  0  0  0
  145.5790   71.5520  219.3260 C   0  0  0  0  0  0  0  0  0  0  0  0
  144.0600   71.5880  219.4070 C   0  0  0  0  0  0  0  0  0  0  0  0
  141.5740   73.7130  221.1410 C   0  0  0  0  0  0  0  0  0  0  0  0
  140.3980   78.3470  221.5090 N   0  0  0  0  0  0  0  0  0  0  0  0
  139.6820   78.9130  222.5960 C   0  0  0  0  0  0  0  0  0  0  0  0
  140.5000   79.3940  223.7640 C   0  0  0  0  0  0  0  0  0  0  0  0
  141.8090   78.7430  223.8260 C   0  0  0  0  0  0  0  0  0  0  0  0
  142.9110   79.4560  223.0800 C   0  0  0  0  0  0  0  0  0  0  0  0
  143.0340   80.7890  223.7900 C   0  0  0  0  0  0  0  0  0  0  0  0
  141.7880   81.5630  223.4600 C   0  0  0  0  0  0  0  0  0  0  0  0
  140.4970   80.8850  223.7590 C   0  0  0  0  0  0  0  0  0  0  0  0
  141.7074   80.7865  218.6144 H   0  0  0  0  0  0  0  0  0  0  0  0
  142.9157   79.9872  216.5800 H   0  0  0  0  0  0  0  0  0  0  0  0
  142.6146   75.9299  217.9849 H   0  0  0  0  0  0  0  0  0  0  0  0
  140.5364   76.2341  223.3601 H   0  0  0  0  0  0  0  0  0  0  0  0
  138.5399   75.0002  221.9412 H   0  0  0  0  0  0  0  0  0  0  0  0
  138.6411   72.4284  222.1191 H   0  0  0  0  0  0  0  0  0  0  0  0
  139.8023   70.3199  221.5122 H   0  0  0  0  0  0  0  0  0  0  0  0
  142.1241   70.4194  220.6574 H   0  0  0  0  0  0  0  0  0  0  0  0
  144.0712   74.6319  220.2562 H   0  0  0  0  0  0  0  0  0  0  0  0
  144.3955   73.7401  221.8195 H   0  0  0  0  0  0  0  0  0  0  0  0
  146.3388   74.5276  220.2570 H   0  0  0  0  0  0  0  0  0  0  0  0
  146.3532   72.9327  221.1389 H   0  0  0  0  0  0  0  0  0  0  0  0
  145.8894   70.9254  218.4769 H   0  0  0  0  0  0  0  0  0  0  0  0
  145.9932   71.1294  220.2533 H   0  0  0  0  0  0  0  0  0  0  0  0
  143.6546   71.7787  218.4024 H   0  0  0  0  0  0  0  0  0  0  0  0
  143.7159   70.6181  219.7955 H   0  0  0  0  0  0  0  0  0  0  0  0
  142.0831   74.6822  221.0341 H   0  0  0  0  0  0  0  0  0  0  0  0
  139.1138   79.7722  222.2101 H   0  0  0  0  0  0  0  0  0  0  0  0
  139.0627   78.0950  222.9928 H   0  0  0  0  0  0  0  0  0  0  0  0
  140.0477   79.0889  224.7192 H   0  0  0  0  0  0  0  0  0  0  0  0
  142.1042   78.6698  224.8831 H   0  0  0  0  0  0  0  0  0  0  0  0
  141.6897   77.7646  223.3377 H   0  0  0  0  0  0  0  0  0  0  0  0
  143.8533   78.8919  223.1421 H   0  0  0  0  0  0  0  0  0  0  0  0
  142.6923   79.5669  222.0077 H   0  0  0  0  0  0  0  0  0  0  0  0
  143.1098   80.6356  224.8766 H   0  0  0  0  0  0  0  0  0  0  0  0
  143.9361   81.3301  223.4684 H   0  0  0  0  0  0  0  0  0  0  0  0
  141.8146   82.5023  224.0319 H   0  0  0  0  0  0  0  0  0  0  0  0
  141.8047   81.6981  222.3685 H   0  0  0  0  0  0  0  0  0  0  0  0
  140.1695   81.2194  224.7544 H   0  0  0  0  0  0  0  0  0  0  0  0
  139.8287   81.1662  222.9318 H   0  0  0  0  0  0  0  0  0  0  0  0
  1  2  2  0
  2  3  1  0
  3  4  2  0
  4  5  1  0
  5  6  2  0
  6  7  1  0
  6  8  1  0
  8  9  2  0
  9 10  1  0
 10 11  2  0
 11 12  1  0
 12 13  2  0
 13 14  1  0
 14 15  2  0
 15 16  1  0
 16 17  2  0
 17 18  1  0
 18 19  1  0
 19 20  1  0
 20 21  1  0
 21 22  1  0
 22 23  1  0
 23 24  1  0
 18 25  2  0
 11 26  1  0
 26 27  1  0
 27 28  1  0
 28 29  1  0
 29 30  1  0
 30 31  1  0
 31 32  1  0
 32 33  1  0
 26  2  1  0
 33 28  1  0
  9  3  1  0
 25 14  1  0
 24 19  1  0
  4 34  1  0
  5 35  1  0
  8 36  1  0
 12 37  1  0
 13 38  1  0
 15 39  1  0
 16 40  1  0
 17 41  1  0
 20 42  1  0
 20 43  1  0
 21 44  1  0
 21 45  1  0
 23 46  1  0
 23 47  1  0
 24 48  1  0
 24 49  1  0
 25 50  1  0
 27 51  1  0
 27 52  1  0
 28 53  1  0
 29 54  1  0
 29 55  1  0
 30 56  1  0
 30 57  1  0
 31 58  1  0
 31 59  1  0
 32 60  1  0
 32 61  1  0
 33 62  1  0
 33 63  1  0
M  END
>  <smiles>  (47) 
O=c1c2ccc(F)cc2nc(/C=C/c2cccc(N3CCOCC3)c2)n1CC1CCCCC1

>  <score_type>  (47) 
oracle

>  <origin>  (47) 
autodockgpu

>  <m_score__min__energy>  (47) 
-9.0299999999999994

>  <m_primary>  (47) 
energy

>  <rmsd>  (47) 
6.186931046353058

>  <m_score__min__rmsd>  (47) 
6.186931046353058

>  <meeko>  (47) 
{"free_energy": -7.98, "intermolecular_energy": -9.77, "internal_energy": -2.09, "cluster_size": 1, "cluster_id": 7, "rank_in_cluster": 1}

>  <energy>  (47) 
-7.98

>  <cluster_rmsd>  (47) 
0.0

>  <cluster>  (47) 
7

$$$$

     RDKit          3D

 63 67  0  0  0  0  0  0  0  0999 V2000
  138.7810   68.3700  224.8490 O   0  0  0  0  0  0  0  0  0  0  0  0
  139.3140   69.4970  224.6720 C   0  0  0  0  0  0  0  0  0  0  0  0
  139.9290   70.0850  225.7500 C   0  0  0  0  0  0  0  0  0  0  0  0
  139.9380   69.4200  226.9760 C   0  0  0  0  0  0  0  0  0  0  0  0
  140.5620   70.0250  228.0560 C   0  0  0  0  0  0  0  0  0  0  0  0
  141.1640   71.2710  227.9030 C   0  0  0  0  0  0  0  0  0  0  0  0
  141.7790   71.8790  228.9490 F   0  0  0  0  0  0  0  0  0  0  0  0
  141.1420   71.9090  226.6800 C   0  0  0  0  0  0  0  0  0  0  0  0
  140.5190   71.3160  225.5880 C   0  0  0  0  0  0  0  0  0  0  0  0
  140.4690   71.8910  224.3780 N   0  0  0  0  0  0  0  0  0  0  0  0
  139.8580   71.2840  223.3490 C   0  0  0  0  0  0  0  0  0  0  0  0
  139.9020   71.9770  222.0610 C   0  0  0  0  0  0  0  0  0  0  0  0
  140.3690   73.2050  221.9630 C   0  0  0  0  0  0  0  0  0  0  0  0
  139.5520   74.4060  222.0340 C   0  0  0  0  0  0  0  0  0  0  0  0
  138.1770   74.4050  221.9410 C   0  0  0  0  0  0  0  0  0  0  0  0
  137.4220   75.5720  222.0130 C   0  0  0  0  0  0  0  0  0  0  0  0
  138.0770   76.7670  222.1830 C   0  0  0  0  0  0  0  0  0  0  0  0
  139.4700   76.8210  222.2830 C   0  0  0  0  0  0  0  0  0  0  0  0
  140.1280   78.0690  222.4590 N   0  0  0  0  0  0  0  0  0  0  0  0
  139.4240   79.1130  223.1640 C   0  0  0  0  0  0  0  0  0  0  0  0
  140.2780   80.2900  223.5060 C   0  0  0  0  0  0  0  0  0  0  0  0
  141.2680   80.5360  222.5540 O   0  0  0  0  0  0  0  0  0  0  0  0
  142.1460   79.4550  222.5690 C   0  0  0  0  0  0  0  0  0  0  0  0
  141.4530   78.2550  221.9390 C   0  0  0  0  0  0  0  0  0  0  0  0
  140.1610   75.6310  222.2050 C   0  0  0  0  0  0  0  0  0  0  0  0
  139.2660   70.0910  223.4410 N   0  0  0  0  0  0  0  0  0  0  0  0
  138.5600   69.3990  222.4230 C   0  0  0  0  0  0  0  0  0  0  0  0
  137.0860   69.6800  222.3150 C   0  0  0  0  0  0  0  0  0  0  0  0
  136.3090   68.9390  223.3080 C   0  0  0  0  0  0  0  0  0  0  0  0
  136.0970   69.6600  224.6170 C   0  0  0  0  0  0  0  0  0  0  0  0
  135.2940   70.8870  224.2370 C   0  0  0  0  0  0  0  0  0  0  0  0
  136.2200   71.7770  223.4570 C   0  0  0  0  0  0  0  0  0  0  0  0
  136.8900   71.1580  222.2810 C   0  0  0  0  0  0  0  0  0  0  0  0
  139.4596   68.4353  227.0838 H   0  0  0  0  0  0  0  0  0  0  0  0
  140.5815   69.5208  229.0335 H   0  0  0  0  0  0  0  0  0  0  0  0
  141.6205   72.8932  226.5683 H   0  0  0  0  0  0  0  0  0  0  0  0
  139.5387   71.4635  221.1586 H   0  0  0  0  0  0  0  0  0  0  0  0
  141.4521   73.3306  221.8174 H   0  0  0  0  0  0  0  0  0  0  0  0
  137.6565   73.4456  221.8047 H   0  0  0  0  0  0  0  0  0  0  0  0
  136.3253   75.5379  221.9355 H   0  0  0  0  0  0  0  0  0  0  0  0
  137.4948   77.6985  222.2415 H   0  0  0  0  0  0  0  0  0  0  0  0
  138.5930   79.4592  222.5318 H   0  0  0  0  0  0  0  0  0  0  0  0
  139.0776   78.6810  224.1145 H   0  0  0  0  0  0  0  0  0  0  0  0
  139.6356   81.1796  223.5826 H   0  0  0  0  0  0  0  0  0  0  0  0
  140.7825   80.0670  224.4577 H   0  0  0  0  0  0  0  0  0  0  0  0
  143.0500   79.7043  221.9941 H   0  0  0  0  0  0  0  0  0  0  0  0
  142.4343   79.2205  223.6043 H   0  0  0  0  0  0  0  0  0  0  0  0
  141.3899   78.4109  220.8519 H   0  0  0  0  0  0  0  0  0  0  0  0
  142.0421   77.3570  222.1770 H   0  0  0  0  0  0  0  0  0  0  0  0
  141.2578   75.6602  222.2834 H   0  0  0  0  0  0  0  0  0  0  0  0
  139.0212   69.6616  221.4595 H   0  0  0  0  0  0  0  0  0  0  0  0
  138.6334   68.3348  222.6914 H   0  0  0  0  0  0  0  0  0  0  0  0
  136.6747   69.2939  221.3707 H   0  0  0  0  0  0  0  0  0  0  0  0
  135.3219   68.7197  222.8750 H   0  0  0  0  0  0  0  0  0  0  0  0
  136.8915   68.0363  223.5441 H   0  0  0  0  0  0  0  0  0  0  0  0
  135.5367   69.0300  225.3235 H   0  0  0  0  0  0  0  0  0  0  0  0
  137.0432   69.9130  225.1178 H   0  0  0  0  0  0  0  0  0  0  0  0
  134.4313   70.6000  223.6178 H   0  0  0  0  0  0  0  0  0  0  0  0
  134.9055   71.4005  225.1288 H   0  0  0  0  0  0  0  0  0  0  0  0
  135.6353   72.6362  223.0965 H   0  0  0  0  0  0  0  0  0  0  0  0
  137.0303   72.0408  224.1526 H   0  0  0  0  0  0  0  0  0  0  0  0
  136.2850   71.3924  221.3927 H   0  0  0  0  0  0  0  0  0  0  0  0
  137.9053   71.5812  222.2746 H   0  0  0  0  0  0  0  0  0  0  0  0
  1  2  2  0
  2  3  1  0
  3  4  2  0
  4  5  1  0
  5  6  2  0
  6  7  1  0
  6  8  1  0
  8  9  2  0
  9 10  1  0
 10 11  2  0
 11 12  1  0
 12 13  2  0
 13 14  1  0
 14 15  2  0
 15 16  1  0
 16 17  2  0
 17 18  1  0
 18 19  1  0
 19 20  1  0
 20 21  1  0
 21 22  1  0
 22 23  1  0
 23 24  1  0
 18 25  2  0
 11 26  1  0
 26 27  1  0
 27 28  1  0
 28 29  1  0
 29 30  1  0
 30 31  1  0
 31 32  1  0
 32 33  1  0
 26  2  1  0
 33 28  1  0
  9  3  1  0
 25 14  1  0
 24 19  1  0
  4 34  1  0
  5 35  1  0
  8 36  1  0
 12 37  1  0
 13 38  1  0
 15 39  1  0
 16 40  1  0
 17 41  1  0
 20 42  1  0
 20 43  1  0
 21 44  1  0
 21 45  1  0
 23 46  1  0
 23 47  1  0
 24 48  1  0
 24 49  1  0
 25 50  1  0
 27 51  1  0
 27 52  1  0
 28 53  1  0
 29 54  1  0
 29 55  1  0
 30 56  1  0
 30 57  1  0
 31 58  1  0
 31 59  1  0
 32 60  1  0
 32 61  1  0
 33 62  1  0
 33 63  1  0
M  END
>  <smiles>  (48) 
O=c1c2ccc(F)cc2nc(/C=C/c2cccc(N3CCOCC3)c2)n1CC1CCCCC1

>  <score_type>  (48) 
oracle

>  <origin>  (48) 
autodockgpu

>  <m_score__min__energy>  (48) 
-9.0299999999999994

>  <m_primary>  (48) 
energy

>  <rmsd>  (48) 
11.288476016710739

>  <m_score__min__rmsd>  (48) 
11.288476016710739

>  <meeko>  (48) 
{"free_energy": -8.16, "intermolecular_energy": -9.95, "internal_energy": -2.09, "cluster_size": 15, "cluster_id": 3, "rank_in_cluster": 8}

>  <energy>  (48) 
-7.94

>  <cluster_rmsd>  (48) 
0.0

>  <cluster>  (48) 
8

$$$$

     RDKit          3D

 63 67  0  0  0  0  0  0  0  0999 V2000
  140.1440   83.7030  219.8630 O   0  0  0  0  0  0  0  0  0  0  0  0
  140.8910   82.7650  219.4780 C   0  0  0  0  0  0  0  0  0  0  0  0
  141.7590   83.0270  218.4470 C   0  0  0  0  0  0  0  0  0  0  0  0
  141.7770   84.3010  217.8780 C   0  0  0  0  0  0  0  0  0  0  0  0
  142.6580   84.5520  216.8370 C   0  0  0  0  0  0  0  0  0  0  0  0
  143.5010   83.5430  216.3810 C   0  0  0  0  0  0  0  0  0  0  0  0
  144.3700   83.7690  215.3640 F   0  0  0  0  0  0  0  0  0  0  0  0
  143.4650   82.2910  216.9610 C   0  0  0  0  0  0  0  0  0  0  0  0
  142.5870   82.0230  218.0040 C   0  0  0  0  0  0  0  0  0  0  0  0
  142.5110   80.8260  218.6030 N   0  0  0  0  0  0  0  0  0  0  0  0
  141.6500   80.6090  219.6080 C   0  0  0  0  0  0  0  0  0  0  0  0
  141.6810   79.2810  220.2220 C   0  0  0  0  0  0  0  0  0  0  0  0
  142.0710   78.2240  219.5390 C   0  0  0  0  0  0  0  0  0  0  0  0
  141.9500   76.8520  220.0050 C   0  0  0  0  0  0  0  0  0  0  0  0
  140.8340   76.3530  220.6410 C   0  0  0  0  0  0  0  0  0  0  0  0
  140.7490   75.0330  221.0760 C   0  0  0  0  0  0  0  0  0  0  0  0
  141.8200   74.2010  220.8610 C   0  0  0  0  0  0  0  0  0  0  0  0
  142.9750   74.6600  220.2210 C   0  0  0  0  0  0  0  0  0  0  0  0
  144.0730   73.7820  220.0080 N   0  0  0  0  0  0  0  0  0  0  0  0
  145.3130   74.0710  220.6870 C   0  0  0  0  0  0  0  0  0  0  0  0
  146.3210   72.9720  220.5920 C   0  0  0  0  0  0  0  0  0  0  0  0
  146.2470   72.2700  219.3890 O   0  0  0  0  0  0  0  0  0  0  0  0
  145.0170   71.6170  219.3550 C   0  0  0  0  0  0  0  0  0  0  0  0
  143.9210   72.6500  219.1380 C   0  0  0  0  0  0  0  0  0  0  0  0
  142.9980   75.9760  219.8140 C   0  0  0  0  0  0  0  0  0  0  0  0
  140.8190   81.5410  220.0830 N   0  0  0  0  0  0  0  0  0  0  0  0
  139.8480   81.3880  221.1070 C   0  0  0  0  0  0  0  0  0  0  0  0
  140.3530   81.4070  222.5230 C   0  0  0  0  0  0  0  0  0  0  0  0
  139.9090   80.2380  223.2830 C   0  0  0  0  0  0  0  0  0  0  0  0
  140.8410   79.0520  223.2300 C   0  0  0  0  0  0  0  0  0  0  0  0
  142.1160   79.5550  223.8770 C   0  0  0  0  0  0  0  0  0  0  0  0
  142.7120   80.5520  222.9220 C   0  0  0  0  0  0  0  0  0  0  0  0
  141.8220   81.6650  222.4960 C   0  0  0  0  0  0  0  0  0  0  0  0
  141.1059   85.0902  218.2478 H   0  0  0  0  0  0  0  0  0  0  0  0
  142.6905   85.5483  216.3718 H   0  0  0  0  0  0  0  0  0  0  0  0
  144.1360   81.5000  216.5950 H   0  0  0  0  0  0  0  0  0  0  0  0
  141.3735   79.1633  221.2716 H   0  0  0  0  0  0  0  0  0  0  0  0
  142.5189   78.3909  218.5483 H   0  0  0  0  0  0  0  0  0  0  0  0
  139.9781   77.0226  220.8115 H   0  0  0  0  0  0  0  0  0  0  0  0
  139.8437   74.6648  221.5808 H   0  0  0  0  0  0  0  0  0  0  0  0
  141.7683   73.1552  221.1982 H   0  0  0  0  0  0  0  0  0  0  0  0
  145.7474   74.9797  220.2447 H   0  0  0  0  0  0  0  0  0  0  0  0
  145.0737   74.1959  221.7533 H   0  0  0  0  0  0  0  0  0  0  0  0
  147.3264   73.4092  220.6820 H   0  0  0  0  0  0  0  0  0  0  0  0
  146.1102   72.2597  221.4033 H   0  0  0  0  0  0  0  0  0  0  0  0
  145.0074   70.8887  218.5307 H   0  0  0  0  0  0  0  0  0  0  0  0
  144.8486   71.0861  220.3036 H   0  0  0  0  0  0  0  0  0  0  0  0
  143.9596   72.9957  218.0944 H   0  0  0  0  0  0  0  0  0  0  0  0
  142.9548   72.1745  219.3625 H   0  0  0  0  0  0  0  0  0  0  0  0
  143.9016   76.3484  219.3091 H   0  0  0  0  0  0  0  0  0  0  0  0
  139.1202   82.2060  221.0014 H   0  0  0  0  0  0  0  0  0  0  0  0
  139.4304   80.3808  220.9619 H   0  0  0  0  0  0  0  0  0  0  0  0
  139.9055   82.2341  223.0936 H   0  0  0  0  0  0  0  0  0  0  0  0
  139.7971   80.5375  224.3355 H   0  0  0  0  0  0  0  0  0  0  0  0
  138.9666   79.9098  222.8202 H   0  0  0  0  0  0  0  0  0  0  0  0
  140.4256   78.2034  223.7933 H   0  0  0  0  0  0  0  0  0  0  0  0
  141.0030   78.6877  222.2048 H   0  0  0  0  0  0  0  0  0  0  0  0
  141.8895   80.0380  224.8390 H   0  0  0  0  0  0  0  0  0  0  0  0
  142.8139   78.7289  224.0780 H   0  0  0  0  0  0  0  0  0  0  0  0
  143.5949   80.9946  223.4063 H   0  0  0  0  0  0  0  0  0  0  0  0
  142.9351   79.9857  222.0057 H   0  0  0  0  0  0  0  0  0  0  0  0
  142.0207   82.5205  223.1583 H   0  0  0  0  0  0  0  0  0  0  0  0
  142.0627   81.8328  221.4358 H   0  0  0  0  0  0  0  0  0  0  0  0
  1  2  2  0
  2  3  1  0
  3  4  2  0
  4  5  1  0
  5  6  2  0
  6  7  1  0
  6  8  1  0
  8  9  2  0
  9 10  1  0
 10 11  2  0
 11 12  1  0
 12 13  2  0
 13 14  1  0
 14 15  2  0
 15 16  1  0
 16 17  2  0
 17 18  1  0
 18 19  1  0
 19 20  1  0
 20 21  1  0
 21 22  1  0
 22 23  1  0
 23 24  1  0
 18 25  2  0
 11 26  1  0
 26 27  1  0
 27 28  1  0
 28 29  1  0
 29 30  1  0
 30 31  1  0
 31 32  1  0
 32 33  1  0
 26  2  1  0
 33 28  1  0
  9  3  1  0
 25 14  1  0
 24 19  1  0
  4 34  1  0
  5 35  1  0
  8 36  1  0
 12 37  1  0
 13 38  1  0
 15 39  1  0
 16 40  1  0
 17 41  1  0
 20 42  1  0
 20 43  1  0
 21 44  1  0
 21 45  1  0
 23 46  1  0
 23 47  1  0
 24 48  1  0
 24 49  1  0
 25 50  1  0
 27 51  1  0
 27 52  1  0
 28 53  1  0
 29 54  1  0
 29 55  1  0
 30 56  1  0
 30 57  1  0
 31 58  1  0
 31 59  1  0
 32 60  1  0
 32 61  1  0
 33 62  1  0
 33 63  1  0
M  END
>  <smiles>  (49) 
O=c1c2ccc(F)cc2nc(/C=C/c2cccc(N3CCOCC3)c2)n1CC1CCCCC1

>  <score_type>  (49) 
oracle

>  <origin>  (49) 
autodockgpu

>  <m_score__min__energy>  (49) 
-9.0299999999999994

>  <m_primary>  (49) 
energy

>  <rmsd>  (49) 
6.1444695623781405

>  <m_score__min__rmsd>  (49) 
6.1444695623781405

>  <meeko>  (49) 
{"free_energy": -8.15, "intermolecular_energy": -9.94, "internal_energy": -1.77, "cluster_size": 3, "cluster_id": 5, "rank_in_cluster": 2}

>  <energy>  (49) 
-7.32

>  <cluster_rmsd>  (49) 
0.0

>  <cluster>  (49) 
9

$$$$

     RDKit          3D

 63 67  0  0  0  0  0  0  0  0999 V2000
  139.1940   67.4340  225.3760 O   0  0  0  0  0  0  0  0  0  0  0  0
  139.2580   68.6680  225.1380 C   0  0  0  0  0  0  0  0  0  0  0  0
  139.8760   69.4640  226.0700 C   0  0  0  0  0  0  0  0  0  0  0  0
  140.3990   68.8820  227.2250 C   0  0  0  0  0  0  0  0  0  0  0  0
  141.0200   69.6970  228.1580 C   0  0  0  0  0  0  0  0  0  0  0  0
  141.1120   71.0680  227.9330 C   0  0  0  0  0  0  0  0  0  0  0  0
  141.7160   71.8820  228.8350 F   0  0  0  0  0  0  0  0  0  0  0  0
  140.5870   71.6210  226.7830 C   0  0  0  0  0  0  0  0  0  0  0  0
  139.9610   70.8170  225.8380 C   0  0  0  0  0  0  0  0  0  0  0  0
  139.4340   71.3020  224.7040 N   0  0  0  0  0  0  0  0  0  0  0  0
  138.8390   70.4910  223.8170 C   0  0  0  0  0  0  0  0  0  0  0  0
  138.3390   71.1150  222.5910 C   0  0  0  0  0  0  0  0  0  0  0  0
  139.1240   71.2910  221.5470 C   0  0  0  0  0  0  0  0  0  0  0  0
  140.0570   72.3950  221.3940 C   0  0  0  0  0  0  0  0  0  0  0  0
  139.7520   73.7050  221.6940 C   0  0  0  0  0  0  0  0  0  0  0  0
  140.6680   74.7410  221.5370 C   0  0  0  0  0  0  0  0  0  0  0  0
  141.9220   74.4420  221.0650 C   0  0  0  0  0  0  0  0  0  0  0  0
  142.2810   73.1280  220.7460 C   0  0  0  0  0  0  0  0  0  0  0  0
  143.5840   72.8400  220.2590 N   0  0  0  0  0  0  0  0  0  0  0  0
  143.7060   71.9370  219.1390 C   0  0  0  0  0  0  0  0  0  0  0  0
  145.0800   71.8860  218.5530 C   0  0  0  0  0  0  0  0  0  0  0  0
  146.0820   72.0720  219.5040 O   0  0  0  0  0  0  0  0  0  0  0  0
  145.9630   73.3690  219.9970 C   0  0  0  0  0  0  0  0  0  0  0  0
  144.7280   73.4440  220.8830 C   0  0  0  0  0  0  0  0  0  0  0  0
  141.3290   72.1470  220.9240 C   0  0  0  0  0  0  0  0  0  0  0  0
  138.7230   69.1700  223.9840 N   0  0  0  0  0  0  0  0  0  0  0  0
  138.0710   68.2480  223.1250 C   0  0  0  0  0  0  0  0  0  0  0  0
  138.9550   67.3050  222.3550 C   0  0  0  0  0  0  0  0  0  0  0  0
  138.3050   66.0180  222.1070 C   0  0  0  0  0  0  0  0  0  0  0  0
  137.5220   65.9390  220.8180 C   0  0  0  0  0  0  0  0  0  0  0  0
  138.5670   66.1340  219.7390 C   0  0  0  0  0  0  0  0  0  0  0  0
  139.0080   67.5680  219.8290 C   0  0  0  0  0  0  0  0  0  0  0  0
  139.4860   68.0250  221.1620 C   0  0  0  0  0  0  0  0  0  0  0  0
  140.3200   67.7976  227.3918 H   0  0  0  0  0  0  0  0  0  0  0  0
  141.4402   69.2609  229.0763 H   0  0  0  0  0  0  0  0  0  0  0  0
  140.6645   72.7050  226.6132 H   0  0  0  0  0  0  0  0  0  0  0  0
  137.2902   71.4427  222.5401 H   0  0  0  0  0  0  0  0  0  0  0  0
  139.0692   70.5510  220.7350 H   0  0  0  0  0  0  0  0  0  0  0  0
  138.7462   73.9408  222.0719 H   0  0  0  0  0  0  0  0  0  0  0  0
  140.3932   75.7767  221.7857 H   0  0  0  0  0  0  0  0  0  0  0  0
  142.6574   75.2497  220.9354 H   0  0  0  0  0  0  0  0  0  0  0  0
  143.4354   70.9259  219.4775 H   0  0  0  0  0  0  0  0  0  0  0  0
  143.0351   72.3105  218.3514 H   0  0  0  0  0  0  0  0  0  0  0  0
  145.2235   70.9036  218.0794 H   0  0  0  0  0  0  0  0  0  0  0  0
  145.1592   72.7067  217.8248 H   0  0  0  0  0  0  0  0  0  0  0  0
  146.8565   73.6245  220.5855 H   0  0  0  0  0  0  0  0  0  0  0  0
  145.8687   74.0795  219.1625 H   0  0  0  0  0  0  0  0  0  0  0  0
  144.9357   72.9203  221.8278 H   0  0  0  0  0  0  0  0  0  0  0  0
  144.4992   74.5053  221.0600 H   0  0  0  0  0  0  0  0  0  0  0  0
  141.5991   71.1096  220.6775 H   0  0  0  0  0  0  0  0  0  0  0  0
  137.3915   67.6407  223.7410 H   0  0  0  0  0  0  0  0  0  0  0  0
  137.5708   68.8643  222.3635 H   0  0  0  0  0  0  0  0  0  0  0  0
  139.8316   67.0067  222.9488 H   0  0  0  0  0  0  0  0  0  0  0  0
  139.0834   65.2412  222.0821 H   0  0  0  0  0  0  0  0  0  0  0  0
  137.5766   65.8786  222.9194 H   0  0  0  0  0  0  0  0  0  0  0  0
  137.0343   64.9582  220.7167 H   0  0  0  0  0  0  0  0  0  0  0  0
  136.7169   66.6868  220.7663 H   0  0  0  0  0  0  0  0  0  0  0  0
  139.4208   65.4620  219.9105 H   0  0  0  0  0  0  0  0  0  0  0  0
  138.1597   65.9040  218.7434 H   0  0  0  0  0  0  0  0  0  0  0  0
  139.8282   67.7128  219.1104 H   0  0  0  0  0  0  0  0  0  0  0  0
  138.1098   68.1665  219.6168 H   0  0  0  0  0  0  0  0  0  0  0  0
  140.5813   67.9245  221.1741 H   0  0  0  0  0  0  0  0  0  0  0  0
  139.1137   69.0553  221.2611 H   0  0  0  0  0  0  0  0  0  0  0  0
  1  2  2  0
  2  3  1  0
  3  4  2  0
  4  5  1  0
  5  6  2  0
  6  7  1  0
  6  8  1  0
  8  9  2  0
  9 10  1  0
 10 11  2  0
 11 12  1  0
 12 13  2  0
 13 14  1  0
 14 15  2  0
 15 16  1  0
 16 17  2  0
 17 18  1  0
 18 19  1  0
 19 20  1  0
 20 21  1  0
 21 22  1  0
 22 23  1  0
 23 24  1  0
 18 25  2  0
 11 26  1  0
 26 27  1  0
 27 28  1  0
 28 29  1  0
 29 30  1  0
 30 31  1  0
 31 32  1  0
 32 33  1  0
 26  2  1  0
 33 28  1  0
  9  3  1  0
 25 14  1  0
 24 19  1  0
  4 34  1  0
  5 35  1  0
  8 36  1  0
 12 37  1  0
 13 38  1  0
 15 39  1  0
 16 40  1  0
 17 41  1  0
 20 42  1  0
 20 43  1  0
 21 44  1  0
 21 45  1  0
 23 46  1  0
 23 47  1  0
 24 48  1  0
 24 49  1  0
 25 50  1  0
 27 51  1  0
 27 52  1  0
 28 53  1  0
 29 54  1  0
 29 55  1  0
 30 56  1  0
 30 57  1  0
 31 58  1  0
 31 59  1  0
 32 60  1  0
 32 61  1  0
 33 62  1  0
 33 63  1  0
M  END
>  <smiles>  (50) 
O=c1c2ccc(F)cc2nc(/C=C/c2cccc(N3CCOCC3)c2)n1CC1CCCCC1

>  <score_type>  (50) 
oracle

>  <origin>  (50) 
autodockgpu

>  <m_score__min__energy>  (50) 
-9.0299999999999994

>  <m_primary>  (50) 
energy

>  <rmsd>  (50) 
12.006669827611079

>  <m_score__min__rmsd>  (50) 
12.006669827611079

>  <meeko>  (50) 
{"free_energy": -8.46, "intermolecular_energy": -10.25, "internal_energy": -1.75, "cluster_size": 18, "cluster_id": 1, "rank_in_cluster": 15}

>  <energy>  (50) 
-7.26

>  <cluster_rmsd>  (50) 
0.35

>  <cluster>  (50) 
9

$$$$
