
     RDKit          3D

 44 45  0  0  0  0  0  0  0  0999 V2000
  141.4310   81.0620  223.8650 C   0  0  0  0  0  0  0  0  0  0  0  0
  141.7690   79.5890  223.6760 C   0  0  0  0  0  0  0  0  0  0  0  0
  142.9540   79.5220  222.7450 C   0  0  0  0  0  0  0  0  0  0  0  0
  140.6490   78.9160  223.0470 N   0  0  0  0  0  0  0  0  0  0  0  0
  140.0650   79.3860  221.8590 C   0  0  0  0  0  0  0  0  0  0  0  0
  140.5700   80.4390  221.3490 O   0  0  0  0  0  0  0  0  0  0  0  0
  138.9270   78.7770  221.1520 C   0  0  0  0  0  0  0  0  0  0  0  0
  139.1850   77.4460  220.6610 N   0  0  0  0  0  0  0  0  0  0  0  0
  139.2270   76.3350  221.5430 C   0  0  0  0  0  0  0  0  0  0  0  0
  139.0430   76.4160  222.7850 O   0  0  0  0  0  0  0  0  0  0  0  0
  139.5100   75.0030  220.9330 C   0  0  0  0  0  0  0  0  0  0  0  0
  139.6000   74.0420  222.0130 N   0  0  0  0  0  0  0  0  0  0  0  0
  139.7910   72.6620  221.7300 C   0  0  0  0  0  0  0  0  0  0  0  0
  139.8910   72.1990  220.5640 O   0  0  0  0  0  0  0  0  0  0  0  0
  139.8760   71.7310  222.8680 C   0  0  0  0  0  0  0  0  0  0  0  0
  139.4470   70.4240  222.7440 C   0  0  0  0  0  0  0  0  0  0  0  0
  139.5290   69.5500  223.8170 C   0  0  0  0  0  0  0  0  0  0  0  0
  140.0370   69.9770  225.0150 C   0  0  0  0  0  0  0  0  0  0  0  0
  140.1440   69.1590  226.1170 C   0  0  0  0  0  0  0  0  0  0  0  0
  140.6620   69.6040  227.3310 C   0  0  0  0  0  0  0  0  0  0  0  0
  140.7760   68.5190  228.7020 Cl  0  0  0  0  0  0  0  0  0  0  0  0
  141.0820   70.9310  227.4070 C   0  0  0  0  0  0  0  0  0  0  0  0
  140.9850   71.7810  226.3050 C   0  0  0  0  0  0  0  0  0  0  0  0
  140.4610   71.2860  225.1210 C   0  0  0  0  0  0  0  0  0  0  0  0
  140.3740   72.1270  224.0630 N   0  0  0  0  0  0  0  0  0  0  0  0
  141.3784   81.2912  224.9396 H   0  0  0  0  0  0  0  0  0  0  0  0
  142.2106   81.6802  223.3960 H   0  0  0  0  0  0  0  0  0  0  0  0
  140.4598   81.2785  223.3960 H   0  0  0  0  0  0  0  0  0  0  0  0
  141.9866   79.1108  224.6424 H   0  0  0  0  0  0  0  0  0  0  0  0
  143.8811   79.4696  223.3347 H   0  0  0  0  0  0  0  0  0  0  0  0
  142.8718   78.6271  222.1107 H   0  0  0  0  0  0  0  0  0  0  0  0
  142.9732   80.4205  222.1107 H   0  0  0  0  0  0  0  0  0  0  0  0
  140.2980   78.0600  223.5060 H   0  0  0  0  0  0  0  0  0  0  0  0
  138.0741   78.7306  221.8451 H   0  0  0  0  0  0  0  0  0  0  0  0
  138.7251   79.4066  220.2729 H   0  0  0  0  0  0  0  0  0  0  0  0
  139.3420   77.3170  219.6310 H   0  0  0  0  0  0  0  0  0  0  0  0
  138.6966   74.7230  220.2475 H   0  0  0  0  0  0  0  0  0  0  0  0
  140.4476   75.0304  220.3585 H   0  0  0  0  0  0  0  0  0  0  0  0
  139.5260   74.3670  223.0010 H   0  0  0  0  0  0  0  0  0  0  0  0
  139.0367   70.0735  221.7855 H   0  0  0  0  0  0  0  0  0  0  0  0
  139.1852   68.5110  223.7059 H   0  0  0  0  0  0  0  0  0  0  0  0
  139.8078   68.1148  226.0358 H   0  0  0  0  0  0  0  0  0  0  0  0
  141.4966   71.3141  228.3511 H   0  0  0  0  0  0  0  0  0  0  0  0
  141.3189   72.8268  226.3745 H   0  0  0  0  0  0  0  0  0  0  0  0
  1  2  1  0
  2  3  1  0
  2  4  1  0
  4  5  1  0
  5  6  2  0
  5  7  1  0
  7  8  1  0
  8  9  1  0
  9 10  2  0
  9 11  1  0
 11 12  1  0
 12 13  1  0
 13 14  2  0
 13 15  1  0
 15 16  2  0
 16 17  1  0
 17 18  2  0
 18 19  1  0
 19 20  2  0
 20 21  1  0
 20 22  1  0
 22 23  2  0
 23 24  1  0
 24 25  2  0
 25 15  1  0
 24 18  1  0
  1 26  1  0
  1 27  1  0
  1 28  1  0
  2 29  1  0
  3 30  1  0
  3 31  1  0
  3 32  1  0
  4 33  1  0
  7 34  1  0
  7 35  1  0
  8 36  1  0
 11 37  1  0
 11 38  1  0
 12 39  1  0
 16 40  1  0
 17 41  1  0
 19 42  1  0
 22 43  1  0
 23 44  1  0
M  END
>  <smiles>  (1) 
CC(C)NC(=O)CNC(=O)CNC(=O)c1ccc2cc(Cl)ccc2n1

>  <score_type>  (1) 
oracle

>  <origin>  (1) 
autodockgpu

>  <m_score__min__energy>  (1) 
-7.6500000000000004

>  <m_primary>  (1) 
energy

>  <rmsd>  (1) 
2.012613932482489

>  <m_score__min__rmsd>  (1) 
2.012613932482489

>  <meeko>  (1) 
{"free_energy": -6.6, "intermolecular_energy": -8.39, "internal_energy": -2.34, "cluster_size": 38, "cluster_id": 1, "rank_in_cluster": 30}

>  <energy>  (1) 
-7.65

>  <cluster_rmsd>  (1) 
0.0

>  <cluster>  (1) 
1

$$$$

     RDKit          3D

 44 45  0  0  0  0  0  0  0  0999 V2000
  140.0890   79.6890  223.8320 C   0  0  0  0  0  0  0  0  0  0  0  0
  141.4770   79.0730  223.7180 C   0  0  0  0  0  0  0  0  0  0  0  0
  142.4350   80.1930  223.3980 C   0  0  0  0  0  0  0  0  0  0  0  0
  141.4930   78.1250  222.6210 N   0  0  0  0  0  0  0  0  0  0  0  0
  141.1280   78.4880  221.3130 C   0  0  0  0  0  0  0  0  0  0  0  0
  140.7830   79.7000  221.1300 O   0  0  0  0  0  0  0  0  0  0  0  0
  141.1080   77.5990  220.1400 C   0  0  0  0  0  0  0  0  0  0  0  0
  140.0930   76.5770  220.1940 N   0  0  0  0  0  0  0  0  0  0  0  0
  140.1490   75.5390  221.1600 C   0  0  0  0  0  0  0  0  0  0  0  0
  141.0550   75.4310  222.0250 O   0  0  0  0  0  0  0  0  0  0  0  0
  139.0520   74.5270  221.1230 C   0  0  0  0  0  0  0  0  0  0  0  0
  139.3000   73.5800  222.1900 N   0  0  0  0  0  0  0  0  0  0  0  0
  138.9710   72.2070  222.0210 C   0  0  0  0  0  0  0  0  0  0  0  0
  138.4610   71.7390  220.9710 O   0  0  0  0  0  0  0  0  0  0  0  0
  139.2460   71.2900  223.1410 C   0  0  0  0  0  0  0  0  0  0  0  0
  138.8680   69.9630  223.0740 C   0  0  0  0  0  0  0  0  0  0  0  0
  139.1280   69.1030  224.1300 C   0  0  0  0  0  0  0  0  0  0  0  0
  139.7640   69.5630  225.2520 C   0  0  0  0  0  0  0  0  0  0  0  0
  140.0510   68.7590  226.3320 C   0  0  0  0  0  0  0  0  0  0  0  0
  140.6980   69.2380  227.4690 C   0  0  0  0  0  0  0  0  0  0  0  0
  141.0390   68.1700  228.8160 Cl  0  0  0  0  0  0  0  0  0  0  0  0
  141.0600   70.5840  227.4890 C   0  0  0  0  0  0  0  0  0  0  0  0
  140.7820   71.4200  226.4070 C   0  0  0  0  0  0  0  0  0  0  0  0
  140.1350   70.8920  225.3010 C   0  0  0  0  0  0  0  0  0  0  0  0
  139.8730   71.7190  224.2610 N   0  0  0  0  0  0  0  0  0  0  0  0
  139.8258   79.8058  224.8936 H   0  0  0  0  0  0  0  0  0  0  0  0
  140.0837   80.6740  223.3424 H   0  0  0  0  0  0  0  0  0  0  0  0
  139.3550   79.0321  223.3424 H   0  0  0  0  0  0  0  0  0  0  0  0
  141.7536   78.5586  224.6501 H   0  0  0  0  0  0  0  0  0  0  0  0
  142.8109   80.6325  224.3337 H   0  0  0  0  0  0  0  0  0  0  0  0
  143.2789   79.7979  222.8135 H   0  0  0  0  0  0  0  0  0  0  0  0
  141.9139   80.9655  222.8135 H   0  0  0  0  0  0  0  0  0  0  0  0
  141.7970   77.1620  222.8370 H   0  0  0  0  0  0  0  0  0  0  0  0
  140.9330   78.2129  219.2441 H   0  0  0  0  0  0  0  0  0  0  0  0
  142.0785   77.0817  220.1172 H   0  0  0  0  0  0  0  0  0  0  0  0
  139.3080   76.6180  219.4980 H   0  0  0  0  0  0  0  0  0  0  0  0
  138.0806   75.0198  221.2760 H   0  0  0  0  0  0  0  0  0  0  0  0
  139.0272   74.0167  220.1489 H   0  0  0  0  0  0  0  0  0  0  0  0
  139.7230   73.9100  223.0850 H   0  0  0  0  0  0  0  0  0  0  0  0
  138.3568   69.5858  222.1760 H   0  0  0  0  0  0  0  0  0  0  0  0
  138.8225   68.0482  224.0663 H   0  0  0  0  0  0  0  0  0  0  0  0
  139.7586   67.6992  226.2959 H   0  0  0  0  0  0  0  0  0  0  0  0
  141.5729   70.9935  228.3717 H   0  0  0  0  0  0  0  0  0  0  0  0
  141.0717   72.4809  226.4315 H   0  0  0  0  0  0  0  0  0  0  0  0
  1  2  1  0
  2  3  1  0
  2  4  1  0
  4  5  1  0
  5  6  2  0
  5  7  1  0
  7  8  1  0
  8  9  1  0
  9 10  2  0
  9 11  1  0
 11 12  1  0
 12 13  1  0
 13 14  2  0
 13 15  1  0
 15 16  2  0
 16 17  1  0
 17 18  2  0
 18 19  1  0
 19 20  2  0
 20 21  1  0
 20 22  1  0
 22 23  2  0
 23 24  1  0
 24 25  2  0
 25 15  1  0
 24 18  1  0
  1 26  1  0
  1 27  1  0
  1 28  1  0
  2 29  1  0
  3 30  1  0
  3 31  1  0
  3 32  1  0
  4 33  1  0
  7 34  1  0
  7 35  1  0
  8 36  1  0
 11 37  1  0
 11 38  1  0
 12 39  1  0
 16 40  1  0
 17 41  1  0
 19 42  1  0
 22 43  1  0
 23 44  1  0
M  END
>  <smiles>  (2) 
CC(C)NC(=O)CNC(=O)CNC(=O)c1ccc2cc(Cl)ccc2n1

>  <score_type>  (2) 
oracle

>  <origin>  (2) 
autodockgpu

>  <m_score__min__energy>  (2) 
-7.6500000000000004

>  <m_primary>  (2) 
energy

>  <rmsd>  (2) 
1.6237346978074232

>  <m_score__min__rmsd>  (2) 
1.6237346978074232

>  <meeko>  (2) 
{"free_energy": -7.4, "intermolecular_energy": -9.19, "internal_energy": -2.38, "cluster_size": 38, "cluster_id": 1, "rank_in_cluster": 7}

>  <energy>  (2) 
-7.65

>  <cluster_rmsd>  (2) 
0.54

>  <cluster>  (2) 
1

$$$$

     RDKit          3D

 44 45  0  0  0  0  0  0  0  0999 V2000
  140.1160   79.5390  223.7930 C   0  0  0  0  0  0  0  0  0  0  0  0
  141.5040   78.9500  223.5810 C   0  0  0  0  0  0  0  0  0  0  0  0
  142.4030   80.0780  223.1440 C   0  0  0  0  0  0  0  0  0  0  0  0
  141.4500   77.9640  222.5190 N   0  0  0  0  0  0  0  0  0  0  0  0
  140.9670   78.2720  221.2370 C   0  0  0  0  0  0  0  0  0  0  0  0
  140.5780   79.4690  221.0430 O   0  0  0  0  0  0  0  0  0  0  0  0
  140.8700   77.3420  220.1000 C   0  0  0  0  0  0  0  0  0  0  0  0
  139.8590   76.3250  220.2570 N   0  0  0  0  0  0  0  0  0  0  0  0
  140.0100   75.2830  221.2080 C   0  0  0  0  0  0  0  0  0  0  0  0
  141.0020   75.1670  221.9730 O   0  0  0  0  0  0  0  0  0  0  0  0
  138.9100   74.2780  221.2830 C   0  0  0  0  0  0  0  0  0  0  0  0
  139.2400   73.3530  222.3470 N   0  0  0  0  0  0  0  0  0  0  0  0
  138.7430   72.0210  222.3190 C   0  0  0  0  0  0  0  0  0  0  0  0
  138.0100   71.5720  221.4000 O   0  0  0  0  0  0  0  0  0  0  0  0
  139.1120   71.1240  223.4280 C   0  0  0  0  0  0  0  0  0  0  0  0
  138.8320   69.7730  223.3650 C   0  0  0  0  0  0  0  0  0  0  0  0
  139.1800   68.9320  224.4110 C   0  0  0  0  0  0  0  0  0  0  0  0
  139.8070   69.4350  225.5190 C   0  0  0  0  0  0  0  0  0  0  0  0
  140.1790   68.6530  226.5900 C   0  0  0  0  0  0  0  0  0  0  0  0
  140.8160   69.1770  227.7120 C   0  0  0  0  0  0  0  0  0  0  0  0
  141.2670   68.1340  229.0470 Cl  0  0  0  0  0  0  0  0  0  0  0  0
  141.0770   70.5450  227.7290 C   0  0  0  0  0  0  0  0  0  0  0  0
  140.7120   71.3610  226.6570 C   0  0  0  0  0  0  0  0  0  0  0  0
  140.0800   70.7880  225.5640 C   0  0  0  0  0  0  0  0  0  0  0  0
  139.7330   71.5960  224.5350 N   0  0  0  0  0  0  0  0  0  0  0  0
  139.9147   79.6244  224.8710 H   0  0  0  0  0  0  0  0  0  0  0  0
  140.0661   80.5358  223.3306 H   0  0  0  0  0  0  0  0  0  0  0  0
  139.3644   78.8823  223.3306 H   0  0  0  0  0  0  0  0  0  0  0  0
  141.8717   78.4749  224.5024 H   0  0  0  0  0  0  0  0  0  0  0  0
  142.8091   80.5876  224.0302 H   0  0  0  0  0  0  0  0  0  0  0  0
  143.2304   79.6751  222.5414 H   0  0  0  0  0  0  0  0  0  0  0  0
  141.8256   80.7946  222.5414 H   0  0  0  0  0  0  0  0  0  0  0  0
  141.7950   77.0150  222.7410 H   0  0  0  0  0  0  0  0  0  0  0  0
  140.6373   77.9241  219.1962 H   0  0  0  0  0  0  0  0  0  0  0  0
  141.8366   76.8213  220.0321 H   0  0  0  0  0  0  0  0  0  0  0  0
  139.0060   76.3740  219.6480 H   0  0  0  0  0  0  0  0  0  0  0  0
  137.9565   74.7801  221.5037 H   0  0  0  0  0  0  0  0  0  0  0  0
  138.8036   73.7467  220.3257 H   0  0  0  0  0  0  0  0  0  0  0  0
  139.8450   73.6670  223.1360 H   0  0  0  0  0  0  0  0  0  0  0  0
  138.3289   69.3609  222.4779 H   0  0  0  0  0  0  0  0  0  0  0  0
  138.9516   67.8577  224.3503 H   0  0  0  0  0  0  0  0  0  0  0  0
  139.9650   67.5745  226.5579 H   0  0  0  0  0  0  0  0  0  0  0  0
  141.5788   70.9895  228.6012 H   0  0  0  0  0  0  0  0  0  0  0  0
  140.9222   72.4405  226.6790 H   0  0  0  0  0  0  0  0  0  0  0  0
  1  2  1  0
  2  3  1  0
  2  4  1  0
  4  5  1  0
  5  6  2  0
  5  7  1  0
  7  8  1  0
  8  9  1  0
  9 10  2  0
  9 11  1  0
 11 12  1  0
 12 13  1  0
 13 14  2  0
 13 15  1  0
 15 16  2  0
 16 17  1  0
 17 18  2  0
 18 19  1  0
 19 20  2  0
 20 21  1  0
 20 22  1  0
 22 23  2  0
 23 24  1  0
 24 25  2  0
 25 15  1  0
 24 18  1  0
  1 26  1  0
  1 27  1  0
  1 28  1  0
  2 29  1  0
  3 30  1  0
  3 31  1  0
  3 32  1  0
  4 33  1  0
  7 34  1  0
  7 35  1  0
  8 36  1  0
 11 37  1  0
 11 38  1  0
 12 39  1  0
 16 40  1  0
 17 41  1  0
 19 42  1  0
 22 43  1  0
 23 44  1  0
M  END
>  <smiles>  (3) 
CC(C)NC(=O)CNC(=O)CNC(=O)c1ccc2cc(Cl)ccc2n1

>  <score_type>  (3) 
oracle

>  <origin>  (3) 
autodockgpu

>  <m_score__min__energy>  (3) 
-7.6500000000000004

>  <m_primary>  (3) 
energy

>  <rmsd>  (3) 
1.55013178943854

>  <m_score__min__rmsd>  (3) 
1.55013178943854

>  <meeko>  (3) 
{"free_energy": -7.36, "intermolecular_energy": -9.15, "internal_energy": -2.43, "cluster_size": 38, "cluster_id": 1, "rank_in_cluster": 11}

>  <energy>  (3) 
-7.59

>  <cluster_rmsd>  (3) 
0.22

>  <cluster>  (3) 
1

$$$$

     RDKit          3D

 44 45  0  0  0  0  0  0  0  0999 V2000
  140.1530   79.6140  223.9410 C   0  0  0  0  0  0  0  0  0  0  0  0
  141.5160   78.9410  223.8480 C   0  0  0  0  0  0  0  0  0  0  0  0
  142.5250   80.0220  223.5530 C   0  0  0  0  0  0  0  0  0  0  0  0
  141.5120   77.9990  222.7450 N   0  0  0  0  0  0  0  0  0  0  0  0
  141.1710   78.3810  221.4370 C   0  0  0  0  0  0  0  0  0  0  0  0
  140.8680   79.6050  221.2570 O   0  0  0  0  0  0  0  0  0  0  0  0
  141.1350   77.5000  220.2580 C   0  0  0  0  0  0  0  0  0  0  0  0
  140.1200   76.4780  220.3200 N   0  0  0  0  0  0  0  0  0  0  0  0
  140.2580   75.3600  221.1840 C   0  0  0  0  0  0  0  0  0  0  0  0
  141.2410   75.1780  221.9460 O   0  0  0  0  0  0  0  0  0  0  0  0
  139.1550   74.3560  221.1640 C   0  0  0  0  0  0  0  0  0  0  0  0
  139.3980   73.4230  222.2450 N   0  0  0  0  0  0  0  0  0  0  0  0
  138.9790   72.0700  222.1320 C   0  0  0  0  0  0  0  0  0  0  0  0
  138.3900   71.6060  221.1210 O   0  0  0  0  0  0  0  0  0  0  0  0
  139.2530   71.1670  223.2630 C   0  0  0  0  0  0  0  0  0  0  0  0
  138.8490   69.8470  223.2260 C   0  0  0  0  0  0  0  0  0  0  0  0
  139.1090   69.0000  224.2920 C   0  0  0  0  0  0  0  0  0  0  0  0
  139.7710   69.4660  225.3960 C   0  0  0  0  0  0  0  0  0  0  0  0
  140.0590   68.6760  226.4860 C   0  0  0  0  0  0  0  0  0  0  0  0
  140.7330   69.1620  227.6040 C   0  0  0  0  0  0  0  0  0  0  0  0
  141.0740   68.1110  228.9640 Cl  0  0  0  0  0  0  0  0  0  0  0  0
  141.1210   70.5000  227.5940 C   0  0  0  0  0  0  0  0  0  0  0  0
  140.8420   71.3230  226.5030 C   0  0  0  0  0  0  0  0  0  0  0  0
  140.1680   70.7880  225.4160 C   0  0  0  0  0  0  0  0  0  0  0  0
  139.9060   71.6020  224.3660 N   0  0  0  0  0  0  0  0  0  0  0  0
  139.8816   79.7480  224.9985 H   0  0  0  0  0  0  0  0  0  0  0  0
  140.1941   80.5954  223.4458 H   0  0  0  0  0  0  0  0  0  0  0  0
  139.3988   78.9847  223.4458 H   0  0  0  0  0  0  0  0  0  0  0  0
  141.7544   78.4098  224.7813 H   0  0  0  0  0  0  0  0  0  0  0  0
  142.9088   80.4332  224.4983 H   0  0  0  0  0  0  0  0  0  0  0  0
  143.3577   79.5979  222.9727 H   0  0  0  0  0  0  0  0  0  0  0  0
  142.0445   80.8235  222.9727 H   0  0  0  0  0  0  0  0  0  0  0  0
  141.7830   77.0260  222.9580 H   0  0  0  0  0  0  0  0  0  0  0  0
  140.9478   78.1198  219.3687 H   0  0  0  0  0  0  0  0  0  0  0  0
  142.1050   76.9829  220.2176 H   0  0  0  0  0  0  0  0  0  0  0  0
  139.2730   76.5790  219.7080 H   0  0  0  0  0  0  0  0  0  0  0  0
  138.1872   74.8578  221.3110 H   0  0  0  0  0  0  0  0  0  0  0  0
  139.1253   73.8312  220.1977 H   0  0  0  0  0  0  0  0  0  0  0  0
  139.8830   73.7490  223.1090 H   0  0  0  0  0  0  0  0  0  0  0  0
  138.3163   69.4644  222.3429 H   0  0  0  0  0  0  0  0  0  0  0  0
  138.7825   67.9504  224.2508 H   0  0  0  0  0  0  0  0  0  0  0  0
  139.7452   67.6218  226.4736 H   0  0  0  0  0  0  0  0  0  0  0  0
  141.6564   70.9143  228.4610 H   0  0  0  0  0  0  0  0  0  0  0  0
  141.1515   72.3786  226.5050 H   0  0  0  0  0  0  0  0  0  0  0  0
  1  2  1  0
  2  3  1  0
  2  4  1  0
  4  5  1  0
  5  6  2  0
  5  7  1  0
  7  8  1  0
  8  9  1  0
  9 10  2  0
  9 11  1  0
 11 12  1  0
 12 13  1  0
 13 14  2  0
 13 15  1  0
 15 16  2  0
 16 17  1  0
 17 18  2  0
 18 19  1  0
 19 20  2  0
 20 21  1  0
 20 22  1  0
 22 23  2  0
 23 24  1  0
 24 25  2  0
 25 15  1  0
 24 18  1  0
  1 26  1  0
  1 27  1  0
  1 28  1  0
  2 29  1  0
  3 30  1  0
  3 31  1  0
  3 32  1  0
  4 33  1  0
  7 34  1  0
  7 35  1  0
  8 36  1  0
 11 37  1  0
 11 38  1  0
 12 39  1  0
 16 40  1  0
 17 41  1  0
 19 42  1  0
 22 43  1  0
 23 44  1  0
M  END
>  <smiles>  (4) 
CC(C)NC(=O)CNC(=O)CNC(=O)c1ccc2cc(Cl)ccc2n1

>  <score_type>  (4) 
oracle

>  <origin>  (4) 
autodockgpu

>  <m_score__min__energy>  (4) 
-7.6500000000000004

>  <m_primary>  (4) 
energy

>  <rmsd>  (4) 
1.6209171634650625

>  <m_score__min__rmsd>  (4) 
1.6209171634650625

>  <meeko>  (4) 
{"free_energy": -7.22, "intermolecular_energy": -9.01, "internal_energy": -2.35, "cluster_size": 38, "cluster_id": 1, "rank_in_cluster": 20}

>  <energy>  (4) 
-7.46

>  <cluster_rmsd>  (4) 
0.43

>  <cluster>  (4) 
1

$$$$

     RDKit          3D

 44 45  0  0  0  0  0  0  0  0999 V2000
  142.9660   80.1090  223.0790 C   0  0  0  0  0  0  0  0  0  0  0  0
  141.6050   79.6300  222.5930 C   0  0  0  0  0  0  0  0  0  0  0  0
  140.7540   79.3940  223.8150 C   0  0  0  0  0  0  0  0  0  0  0  0
  141.7620   78.3720  221.8890 N   0  0  0  0  0  0  0  0  0  0  0  0
  141.5620   78.2600  220.5040 C   0  0  0  0  0  0  0  0  0  0  0  0
  141.2390   79.3240  219.8830 O   0  0  0  0  0  0  0  0  0  0  0  0
  141.6930   77.0310  219.7050 C   0  0  0  0  0  0  0  0  0  0  0  0
  140.5810   76.1220  219.8370 N   0  0  0  0  0  0  0  0  0  0  0  0
  140.2610   75.5340  221.0880 C   0  0  0  0  0  0  0  0  0  0  0  0
  140.8950   75.7540  222.1520 O   0  0  0  0  0  0  0  0  0  0  0  0
  139.0960   74.6020  221.1140 C   0  0  0  0  0  0  0  0  0  0  0  0
  139.3300   73.6440  222.1740 N   0  0  0  0  0  0  0  0  0  0  0  0
  139.0960   72.2590  221.9550 C   0  0  0  0  0  0  0  0  0  0  0  0
  138.6850   71.7890  220.8630 O   0  0  0  0  0  0  0  0  0  0  0  0
  139.3510   71.3320  223.0700 C   0  0  0  0  0  0  0  0  0  0  0  0
  138.9780   70.0050  222.9840 C   0  0  0  0  0  0  0  0  0  0  0  0
  139.2200   69.1350  224.0360 C   0  0  0  0  0  0  0  0  0  0  0  0
  139.8340   69.5850  225.1740 C   0  0  0  0  0  0  0  0  0  0  0  0
  140.1020   68.7720  226.2520 C   0  0  0  0  0  0  0  0  0  0  0  0
  140.7260   69.2410  227.4050 C   0  0  0  0  0  0  0  0  0  0  0  0
  141.0440   68.1610  228.7480 Cl  0  0  0  0  0  0  0  0  0  0  0  0
  141.0840   70.5870  227.4450 C   0  0  0  0  0  0  0  0  0  0  0  0
  140.8250   71.4330  226.3660 C   0  0  0  0  0  0  0  0  0  0  0  0
  140.2000   70.9140  225.2430 C   0  0  0  0  0  0  0  0  0  0  0  0
  139.9560   71.7510  224.2060 N   0  0  0  0  0  0  0  0  0  0  0  0
  142.9815   80.1145  224.1789 H   0  0  0  0  0  0  0  0  0  0  0  0
  143.7481   79.4321  222.7046 H   0  0  0  0  0  0  0  0  0  0  0  0
  143.1517   81.1265  222.7046 H   0  0  0  0  0  0  0  0  0  0  0  0
  141.1479   80.3707  221.9204 H   0  0  0  0  0  0  0  0  0  0  0  0
  141.3570   79.5612  224.7196 H   0  0  0  0  0  0  0  0  0  0  0  0
  139.9020   80.0898  223.8085 H   0  0  0  0  0  0  0  0  0  0  0  0
  140.3821   78.3588  223.8085 H   0  0  0  0  0  0  0  0  0  0  0  0
  142.0400   77.5510  222.4520 H   0  0  0  0  0  0  0  0  0  0  0  0
  141.7832   77.3152  218.6462 H   0  0  0  0  0  0  0  0  0  0  0  0
  142.5816   76.5020  220.0798 H   0  0  0  0  0  0  0  0  0  0  0  0
  140.0120   75.9040  218.9830 H   0  0  0  0  0  0  0  0  0  0  0  0
  138.1706   75.1627  221.3118 H   0  0  0  0  0  0  0  0  0  0  0  0
  138.9867   74.0907  220.1462 H   0  0  0  0  0  0  0  0  0  0  0  0
  139.6720   73.9750  223.1030 H   0  0  0  0  0  0  0  0  0  0  0  0
  138.4847   69.6352  222.0730 H   0  0  0  0  0  0  0  0  0  0  0  0
  138.9179   68.0803  223.9561 H   0  0  0  0  0  0  0  0  0  0  0  0
  139.8123   67.7121  226.2006 H   0  0  0  0  0  0  0  0  0  0  0  0
  141.5787   70.9891  228.3415 H   0  0  0  0  0  0  0  0  0  0  0  0
  141.1121   72.4941  226.4060 H   0  0  0  0  0  0  0  0  0  0  0  0
  1  2  1  0
  2  3  1  0
  2  4  1  0
  4  5  1  0
  5  6  2  0
  5  7  1  0
  7  8  1  0
  8  9  1  0
  9 10  2  0
  9 11  1  0
 11 12  1  0
 12 13  1  0
 13 14  2  0
 13 15  1  0
 15 16  2  0
 16 17  1  0
 17 18  2  0
 18 19  1  0
 19 20  2  0
 20 21  1  0
 20 22  1  0
 22 23  2  0
 23 24  1  0
 24 25  2  0
 25 15  1  0
 24 18  1  0
  1 26  1  0
  1 27  1  0
  1 28  1  0
  2 29  1  0
  3 30  1  0
  3 31  1  0
  3 32  1  0
  4 33  1  0
  7 34  1  0
  7 35  1  0
  8 36  1  0
 11 37  1  0
 11 38  1  0
 12 39  1  0
 16 40  1  0
 17 41  1  0
 19 42  1  0
 22 43  1  0
 23 44  1  0
M  END
>  <smiles>  (5) 
CC(C)NC(=O)CNC(=O)CNC(=O)c1ccc2cc(Cl)ccc2n1

>  <score_type>  (5) 
oracle

>  <origin>  (5) 
autodockgpu

>  <m_score__min__energy>  (5) 
-7.6500000000000004

>  <m_primary>  (5) 
energy

>  <rmsd>  (5) 
1.192648100395117

>  <m_score__min__rmsd>  (5) 
1.192648100395117

>  <meeko>  (5) 
{"free_energy": -7.37, "intermolecular_energy": -9.16, "internal_energy": -2.4, "cluster_size": 38, "cluster_id": 1, "rank_in_cluster": 10}

>  <energy>  (5) 
-7.46

>  <cluster_rmsd>  (5) 
1.15

>  <cluster>  (5) 
1

$$$$

     RDKit          3D

 44 45  0  0  0  0  0  0  0  0999 V2000
  142.5900   79.9370  223.6500 C   0  0  0  0  0  0  0  0  0  0  0  0
  141.3380   79.6220  222.8420 C   0  0  0  0  0  0  0  0  0  0  0  0
  140.2210   79.3890  223.8270 C   0  0  0  0  0  0  0  0  0  0  0  0
  141.5490   78.4020  222.0860 N   0  0  0  0  0  0  0  0  0  0  0  0
  141.4170   78.3570  220.6880 C   0  0  0  0  0  0  0  0  0  0  0  0
  141.1070   79.4460  220.1060 O   0  0  0  0  0  0  0  0  0  0  0  0
  141.6060   77.1710  219.8380 C   0  0  0  0  0  0  0  0  0  0  0  0
  140.5300   76.2150  219.9140 N   0  0  0  0  0  0  0  0  0  0  0  0
  140.2840   75.4830  221.1060 C   0  0  0  0  0  0  0  0  0  0  0  0
  140.9580   75.6080  222.1600 O   0  0  0  0  0  0  0  0  0  0  0  0
  139.1500   74.5130  221.0760 C   0  0  0  0  0  0  0  0  0  0  0  0
  139.3590   73.5690  222.1550 N   0  0  0  0  0  0  0  0  0  0  0  0
  139.1790   72.1770  221.9340 C   0  0  0  0  0  0  0  0  0  0  0  0
  138.8390   71.6870  220.8260 O   0  0  0  0  0  0  0  0  0  0  0  0
  139.4060   71.2640  223.0680 C   0  0  0  0  0  0  0  0  0  0  0  0
  139.0150   69.9410  222.9980 C   0  0  0  0  0  0  0  0  0  0  0  0
  139.2300   69.0850  224.0670 C   0  0  0  0  0  0  0  0  0  0  0  0
  139.8330   69.5460  225.2070 C   0  0  0  0  0  0  0  0  0  0  0  0
  140.0750   68.7470  226.3020 C   0  0  0  0  0  0  0  0  0  0  0  0
  140.6890   69.2260  227.4560 C   0  0  0  0  0  0  0  0  0  0  0  0
  140.9720   68.1640  228.8210 Cl  0  0  0  0  0  0  0  0  0  0  0  0
  141.0650   70.5670  227.4790 C   0  0  0  0  0  0  0  0  0  0  0  0
  140.8330   71.3990  226.3830 C   0  0  0  0  0  0  0  0  0  0  0  0
  140.2170   70.8700  225.2590 C   0  0  0  0  0  0  0  0  0  0  0  0
  140.0000   71.6930  224.2060 N   0  0  0  0  0  0  0  0  0  0  0  0
  142.3578   79.8786  224.7236 H   0  0  0  0  0  0  0  0  0  0  0  0
  143.3773   79.2090  223.4050 H   0  0  0  0  0  0  0  0  0  0  0  0
  142.9391   80.9510  223.4050 H   0  0  0  0  0  0  0  0  0  0  0  0
  141.1018   80.4445  222.1508 H   0  0  0  0  0  0  0  0  0  0  0  0
  140.6127   79.4707  224.8516 H   0  0  0  0  0  0  0  0  0  0  0  0
  139.4342   80.1424  223.6741 H   0  0  0  0  0  0  0  0  0  0  0  0
  139.8010   78.3839  223.6741 H   0  0  0  0  0  0  0  0  0  0  0  0
  141.8130   77.5580  222.6200 H   0  0  0  0  0  0  0  0  0  0  0  0
  141.6980   77.5053  218.7941 H   0  0  0  0  0  0  0  0  0  0  0  0
  142.5100   76.6607  220.2019 H   0  0  0  0  0  0  0  0  0  0  0  0
  139.9300   76.0710  219.0660 H   0  0  0  0  0  0  0  0  0  0  0  0
  138.1973   75.0437  221.2200 H   0  0  0  0  0  0  0  0  0  0  0  0
  139.1090   73.9931  220.1075 H   0  0  0  0  0  0  0  0  0  0  0  0
  139.6430   73.9160  223.0970 H   0  0  0  0  0  0  0  0  0  0  0  0
  138.5289   69.5635  222.0863 H   0  0  0  0  0  0  0  0  0  0  0  0
  138.9156   68.0331  223.9995 H   0  0  0  0  0  0  0  0  0  0  0  0
  139.7717   67.6903  226.2635 H   0  0  0  0  0  0  0  0  0  0  0  0
  141.5528   70.9768  228.3757 H   0  0  0  0  0  0  0  0  0  0  0  0
  141.1337   72.4567  226.4103 H   0  0  0  0  0  0  0  0  0  0  0  0
  1  2  1  0
  2  3  1  0
  2  4  1  0
  4  5  1  0
  5  6  2  0
  5  7  1  0
  7  8  1  0
  8  9  1  0
  9 10  2  0
  9 11  1  0
 11 12  1  0
 12 13  1  0
 13 14  2  0
 13 15  1  0
 15 16  2  0
 16 17  1  0
 17 18  2  0
 18 19  1  0
 19 20  2  0
 20 21  1  0
 20 22  1  0
 22 23  2  0
 23 24  1  0
 24 25  2  0
 25 15  1  0
 24 18  1  0
  1 26  1  0
  1 27  1  0
  1 28  1  0
  2 29  1  0
  3 30  1  0
  3 31  1  0
  3 32  1  0
  4 33  1  0
  7 34  1  0
  7 35  1  0
  8 36  1  0
 11 37  1  0
 11 38  1  0
 12 39  1  0
 16 40  1  0
 17 41  1  0
 19 42  1  0
 22 43  1  0
 23 44  1  0
M  END
>  <smiles>  (6) 
CC(C)NC(=O)CNC(=O)CNC(=O)c1ccc2cc(Cl)ccc2n1

>  <score_type>  (6) 
oracle

>  <origin>  (6) 
autodockgpu

>  <m_score__min__energy>  (6) 
-7.6500000000000004

>  <m_primary>  (6) 
energy

>  <rmsd>  (6) 
1.1802898584984205

>  <m_score__min__rmsd>  (6) 
1.1802898584984205

>  <meeko>  (6) 
{"free_energy": -7.26, "intermolecular_energy": -9.05, "internal_energy": -2.43, "cluster_size": 38, "cluster_id": 1, "rank_in_cluster": 18}

>  <energy>  (6) 
-7.41

>  <cluster_rmsd>  (6) 
0.47

>  <cluster>  (6) 
1

$$$$

     RDKit          3D

 44 45  0  0  0  0  0  0  0  0999 V2000
  142.1370   79.7690  222.0270 C   0  0  0  0  0  0  0  0  0  0  0  0
  141.1070   79.4700  223.1080 C   0  0  0  0  0  0  0  0  0  0  0  0
  141.8220   78.7300  224.2100 C   0  0  0  0  0  0  0  0  0  0  0  0
  140.0780   78.6050  222.5630 N   0  0  0  0  0  0  0  0  0  0  0  0
  138.8950   79.1120  222.0010 C   0  0  0  0  0  0  0  0  0  0  0  0
  138.7650   80.3790  221.9850 O   0  0  0  0  0  0  0  0  0  0  0  0
  137.7960   78.3170  221.4300 C   0  0  0  0  0  0  0  0  0  0  0  0
  138.2050   77.0360  220.9100 N   0  0  0  0  0  0  0  0  0  0  0  0
  138.6480   76.0020  221.7750 C   0  0  0  0  0  0  0  0  0  0  0  0
  138.7120   76.1110  223.0260 O   0  0  0  0  0  0  0  0  0  0  0  0
  139.0560   74.7180  221.1330 C   0  0  0  0  0  0  0  0  0  0  0  0
  139.2830   73.7570  222.1920 N   0  0  0  0  0  0  0  0  0  0  0  0
  139.2660   72.3640  221.9110 C   0  0  0  0  0  0  0  0  0  0  0  0
  139.0610   71.8880  220.7650 O   0  0  0  0  0  0  0  0  0  0  0  0
  139.5040   71.4330  223.0280 C   0  0  0  0  0  0  0  0  0  0  0  0
  139.1580   70.1000  222.9210 C   0  0  0  0  0  0  0  0  0  0  0  0
  139.3840   69.2270  223.9740 C   0  0  0  0  0  0  0  0  0  0  0  0
  139.9520   69.6790  225.1340 C   0  0  0  0  0  0  0  0  0  0  0  0
  140.2010   68.8630  226.2150 C   0  0  0  0  0  0  0  0  0  0  0  0
  140.7800   69.3350  227.3900 C   0  0  0  0  0  0  0  0  0  0  0  0
  141.0750   68.2510  228.7350 Cl  0  0  0  0  0  0  0  0  0  0  0  0
  141.1120   70.6870  227.4500 C   0  0  0  0  0  0  0  0  0  0  0  0
  140.8710   71.5370  226.3700 C   0  0  0  0  0  0  0  0  0  0  0  0
  140.2920   71.0140  225.2230 C   0  0  0  0  0  0  0  0  0  0  0  0
  140.0650   71.8540  224.1860 N   0  0  0  0  0  0  0  0  0  0  0  0
  143.0920   80.0462  222.4971 H   0  0  0  0  0  0  0  0  0  0  0  0
  142.2819   78.8758  221.4015 H   0  0  0  0  0  0  0  0  0  0  0  0
  141.7811   80.6009  221.4015 H   0  0  0  0  0  0  0  0  0  0  0  0
  140.6471   80.3984  223.4777 H   0  0  0  0  0  0  0  0  0  0  0  0
  141.4692   79.0952  225.1858 H   0  0  0  0  0  0  0  0  0  0  0  0
  141.6134   77.6534  224.1241 H   0  0  0  0  0  0  0  0  0  0  0  0
  142.9051   78.9016  224.1241 H   0  0  0  0  0  0  0  0  0  0  0  0
  140.2540   77.5870  222.5960 H   0  0  0  0  0  0  0  0  0  0  0  0
  137.0471   78.1471  222.2175 H   0  0  0  0  0  0  0  0  0  0  0  0
  137.3967   78.8913  220.5810 H   0  0  0  0  0  0  0  0  0  0  0  0
  138.1680   76.8850  219.8720 H   0  0  0  0  0  0  0  0  0  0  0  0
  138.2575   74.3608  220.4660 H   0  0  0  0  0  0  0  0  0  0  0  0
  139.9672   74.8565  220.5325 H   0  0  0  0  0  0  0  0  0  0  0  0
  139.4610   74.0920  223.1640 H   0  0  0  0  0  0  0  0  0  0  0  0
  138.6995   69.7282  221.9928 H   0  0  0  0  0  0  0  0  0  0  0  0
  139.1058   68.1672  223.8767 H   0  0  0  0  0  0  0  0  0  0  0  0
  139.9324   67.7984  226.1477 H   0  0  0  0  0  0  0  0  0  0  0  0
  141.5718   71.0909  228.3640 H   0  0  0  0  0  0  0  0  0  0  0  0
  141.1355   72.6032  226.4271 H   0  0  0  0  0  0  0  0  0  0  0  0
  1  2  1  0
  2  3  1  0
  2  4  1  0
  4  5  1  0
  5  6  2  0
  5  7  1  0
  7  8  1  0
  8  9  1  0
  9 10  2  0
  9 11  1  0
 11 12  1  0
 12 13  1  0
 13 14  2  0
 13 15  1  0
 15 16  2  0
 16 17  1  0
 17 18  2  0
 18 19  1  0
 19 20  2  0
 20 21  1  0
 20 22  1  0
 22 23  2  0
 23 24  1  0
 24 25  2  0
 25 15  1  0
 24 18  1  0
  1 26  1  0
  1 27  1  0
  1 28  1  0
  2 29  1  0
  3 30  1  0
  3 31  1  0
  3 32  1  0
  4 33  1  0
  7 34  1  0
  7 35  1  0
  8 36  1  0
 11 37  1  0
 11 38  1  0
 12 39  1  0
 16 40  1  0
 17 41  1  0
 19 42  1  0
 22 43  1  0
 23 44  1  0
M  END
>  <smiles>  (7) 
CC(C)NC(=O)CNC(=O)CNC(=O)c1ccc2cc(Cl)ccc2n1

>  <score_type>  (7) 
oracle

>  <origin>  (7) 
autodockgpu

>  <m_score__min__energy>  (7) 
-7.6500000000000004

>  <m_primary>  (7) 
energy

>  <rmsd>  (7) 
1.8610770480570866

>  <m_score__min__rmsd>  (7) 
1.8610770480570866

>  <meeko>  (7) 
{"free_energy": -6.33, "intermolecular_energy": -8.12, "internal_energy": -2.56, "cluster_size": 38, "cluster_id": 1, "rank_in_cluster": 38}

>  <energy>  (7) 
-7.4

>  <cluster_rmsd>  (7) 
0.81

>  <cluster>  (7) 
1

$$$$

     RDKit          3D

 44 45  0  0  0  0  0  0  0  0999 V2000
  142.1930   79.4030  223.8430 C   0  0  0  0  0  0  0  0  0  0  0  0
  141.7690   79.5980  222.3930 C   0  0  0  0  0  0  0  0  0  0  0  0
  140.3490   80.1030  222.4090 C   0  0  0  0  0  0  0  0  0  0  0  0
  141.7970   78.3190  221.7090 N   0  0  0  0  0  0  0  0  0  0  0  0
  141.6590   78.2130  220.3150 C   0  0  0  0  0  0  0  0  0  0  0  0
  141.5120   79.3010  219.6690 O   0  0  0  0  0  0  0  0  0  0  0  0
  141.6690   76.9650  219.5350 C   0  0  0  0  0  0  0  0  0  0  0  0
  140.5140   76.1280  219.7480 N   0  0  0  0  0  0  0  0  0  0  0  0
  140.3200   75.4480  220.9790 C   0  0  0  0  0  0  0  0  0  0  0  0
  141.1090   75.5200  221.9550 O   0  0  0  0  0  0  0  0  0  0  0  0
  139.0960   74.6020  221.0920 C   0  0  0  0  0  0  0  0  0  0  0  0
  139.3260   73.6470  222.1560 N   0  0  0  0  0  0  0  0  0  0  0  0
  139.1270   72.2580  221.9280 C   0  0  0  0  0  0  0  0  0  0  0  0
  138.7520   71.7810  220.8260 O   0  0  0  0  0  0  0  0  0  0  0  0
  139.3770   71.3330  223.0470 C   0  0  0  0  0  0  0  0  0  0  0  0
  138.9990   70.0070  222.9650 C   0  0  0  0  0  0  0  0  0  0  0  0
  139.2360   69.1400  224.0200 C   0  0  0  0  0  0  0  0  0  0  0  0
  139.8490   69.5910  225.1580 C   0  0  0  0  0  0  0  0  0  0  0  0
  140.1120   68.7810  226.2390 C   0  0  0  0  0  0  0  0  0  0  0  0
  140.7360   69.2520  227.3920 C   0  0  0  0  0  0  0  0  0  0  0  0
  141.0470   68.1750  228.7390 Cl  0  0  0  0  0  0  0  0  0  0  0  0
  141.0990   70.5960  227.4270 C   0  0  0  0  0  0  0  0  0  0  0  0
  140.8450   71.4400  226.3450 C   0  0  0  0  0  0  0  0  0  0  0  0
  140.2210   70.9190  225.2220 C   0  0  0  0  0  0  0  0  0  0  0  0
  139.9820   71.7530  224.1830 N   0  0  0  0  0  0  0  0  0  0  0  0
  141.3981   79.7686  224.5098 H   0  0  0  0  0  0  0  0  0  0  0  0
  142.3682   78.3338  224.0332 H   0  0  0  0  0  0  0  0  0  0  0  0
  143.1188   79.9658  224.0332 H   0  0  0  0  0  0  0  0  0  0  0  0
  142.4414   80.3018  221.8807 H   0  0  0  0  0  0  0  0  0  0  0  0
  140.0139   80.2222  223.4499 H   0  0  0  0  0  0  0  0  0  0  0  0
  140.2993   81.0739  221.8944 H   0  0  0  0  0  0  0  0  0  0  0  0
  139.6974   79.3815  221.8944 H   0  0  0  0  0  0  0  0  0  0  0  0
  141.9330   77.4770  222.2930 H   0  0  0  0  0  0  0  0  0  0  0  0
  141.7147   77.2254  218.4672 H   0  0  0  0  0  0  0  0  0  0  0  0
  142.5442   76.3888  219.8697 H   0  0  0  0  0  0  0  0  0  0  0  0
  139.8180   76.0330  218.9690 H   0  0  0  0  0  0  0  0  0  0  0  0
  138.2257   75.2303  221.3324 H   0  0  0  0  0  0  0  0  0  0  0  0
  138.8928   74.0844  220.1429 H   0  0  0  0  0  0  0  0  0  0  0  0
  139.6400   73.9820  223.0920 H   0  0  0  0  0  0  0  0  0  0  0  0
  138.5056   69.6359  222.0546 H   0  0  0  0  0  0  0  0  0  0  0  0
  138.9306   68.0861  223.9427 H   0  0  0  0  0  0  0  0  0  0  0  0
  139.8185   67.7220  226.1908 H   0  0  0  0  0  0  0  0  0  0  0  0
  141.5943   70.9992  228.3226 H   0  0  0  0  0  0  0  0  0  0  0  0
  141.1349   72.5004  226.3826 H   0  0  0  0  0  0  0  0  0  0  0  0
  1  2  1  0
  2  3  1  0
  2  4  1  0
  4  5  1  0
  5  6  2  0
  5  7  1  0
  7  8  1  0
  8  9  1  0
  9 10  2  0
  9 11  1  0
 11 12  1  0
 12 13  1  0
 13 14  2  0
 13 15  1  0
 15 16  2  0
 16 17  1  0
 17 18  2  0
 18 19  1  0
 19 20  2  0
 20 21  1  0
 20 22  1  0
 22 23  2  0
 23 24  1  0
 24 25  2  0
 25 15  1  0
 24 18  1  0
  1 26  1  0
  1 27  1  0
  1 28  1  0
  2 29  1  0
  3 30  1  0
  3 31  1  0
  3 32  1  0
  4 33  1  0
  7 34  1  0
  7 35  1  0
  8 36  1  0
 11 37  1  0
 11 38  1  0
 12 39  1  0
 16 40  1  0
 17 41  1  0
 19 42  1  0
 22 43  1  0
 23 44  1  0
M  END
>  <smiles>  (8) 
CC(C)NC(=O)CNC(=O)CNC(=O)c1ccc2cc(Cl)ccc2n1

>  <score_type>  (8) 
oracle

>  <origin>  (8) 
autodockgpu

>  <m_score__min__energy>  (8) 
-7.6500000000000004

>  <m_primary>  (8) 
energy

>  <rmsd>  (8) 
1.2549905772195458

>  <m_score__min__rmsd>  (8) 
1.2549905772195458

>  <meeko>  (8) 
{"free_energy": -7.16, "intermolecular_energy": -8.95, "internal_energy": -2.35, "cluster_size": 38, "cluster_id": 1, "rank_in_cluster": 23}

>  <energy>  (8) 
-7.38

>  <cluster_rmsd>  (8) 
0.63

>  <cluster>  (8) 
1

$$$$

     RDKit          3D

 44 45  0  0  0  0  0  0  0  0999 V2000
  143.9990   71.2520  220.4460 C   0  0  0  0  0  0  0  0  0  0  0  0
  143.2420   71.7350  219.2170 C   0  0  0  0  0  0  0  0  0  0  0  0
  144.2400   71.8350  218.0910 C   0  0  0  0  0  0  0  0  0  0  0  0
  142.7020   73.0560  219.4740 N   0  0  0  0  0  0  0  0  0  0  0  0
  143.5230   74.1510  219.7880 C   0  0  0  0  0  0  0  0  0  0  0  0
  144.7770   73.9330  219.8330 O   0  0  0  0  0  0  0  0  0  0  0  0
  143.0700   75.5230  220.0680 C   0  0  0  0  0  0  0  0  0  0  0  0
  141.8530   75.5950  220.8390 N   0  0  0  0  0  0  0  0  0  0  0  0
  140.6060   75.2200  220.2750 C   0  0  0  0  0  0  0  0  0  0  0  0
  140.4630   74.8040  219.0970 O   0  0  0  0  0  0  0  0  0  0  0  0
  139.4080   75.3400  221.1570 C   0  0  0  0  0  0  0  0  0  0  0  0
  139.5030   74.3030  222.1620 N   0  0  0  0  0  0  0  0  0  0  0  0
  139.7820   72.9610  221.7840 C   0  0  0  0  0  0  0  0  0  0  0  0
  139.9590   72.5970  220.5920 O   0  0  0  0  0  0  0  0  0  0  0  0
  139.8680   71.9480  222.8500 C   0  0  0  0  0  0  0  0  0  0  0  0
  139.4490   70.6510  222.6260 C   0  0  0  0  0  0  0  0  0  0  0  0
  139.5310   69.7010  223.6320 C   0  0  0  0  0  0  0  0  0  0  0  0
  140.0310   70.0400  224.8610 C   0  0  0  0  0  0  0  0  0  0  0  0
  140.1380   69.1430  225.9000 C   0  0  0  0  0  0  0  0  0  0  0  0
  140.6480   69.5000  227.1460 C   0  0  0  0  0  0  0  0  0  0  0  0
  140.7620   68.3160  228.4330 Cl  0  0  0  0  0  0  0  0  0  0  0  0
  141.0580   70.8200  227.3230 C   0  0  0  0  0  0  0  0  0  0  0  0
  140.9610   71.7500  226.2870 C   0  0  0  0  0  0  0  0  0  0  0  0
  140.4460   71.3410  225.0660 C   0  0  0  0  0  0  0  0  0  0  0  0
  140.3580   72.2570  224.0740 N   0  0  0  0  0  0  0  0  0  0  0  0
  143.4754   71.5861  221.3539 H   0  0  0  0  0  0  0  0  0  0  0  0
  144.0512   70.1533  220.4361 H   0  0  0  0  0  0  0  0  0  0  0  0
  145.0174   71.6676  220.4361 H   0  0  0  0  0  0  0  0  0  0  0  0
  142.4210   71.0463  218.9687 H   0  0  0  0  0  0  0  0  0  0  0  0
  145.2532   71.9365  218.5070 H   0  0  0  0  0  0  0  0  0  0  0  0
  144.1869   70.9270  217.4723 H   0  0  0  0  0  0  0  0  0  0  0  0
  144.0079   72.7144  217.4723 H   0  0  0  0  0  0  0  0  0  0  0  0
  141.6770   73.1660  219.4060 H   0  0  0  0  0  0  0  0  0  0  0  0
  143.8636   76.0419  220.6257 H   0  0  0  0  0  0  0  0  0  0  0  0
  142.8581   75.9920  219.0958 H   0  0  0  0  0  0  0  0  0  0  0  0
  141.9120   75.9320  221.8310 H   0  0  0  0  0  0  0  0  0  0  0  0
  139.3932   76.3291  221.6380 H   0  0  0  0  0  0  0  0  0  0  0  0
  138.4831   75.2293  220.5719 H   0  0  0  0  0  0  0  0  0  0  0  0
  139.3670   74.5440  223.1680 H   0  0  0  0  0  0  0  0  0  0  0  0
  139.0471   70.3698  221.6414 H   0  0  0  0  0  0  0  0  0  0  0  0
  139.1933   68.6714  223.4425 H   0  0  0  0  0  0  0  0  0  0  0  0
  139.8084   68.1058  225.7401 H   0  0  0  0  0  0  0  0  0  0  0  0
  141.4649   71.1342  228.2955 H   0  0  0  0  0  0  0  0  0  0  0  0
  141.2875   72.7898  226.4363 H   0  0  0  0  0  0  0  0  0  0  0  0
  1  2  1  0
  2  3  1  0
  2  4  1  0
  4  5  1  0
  5  6  2  0
  5  7  1  0
  7  8  1  0
  8  9  1  0
  9 10  2  0
  9 11  1  0
 11 12  1  0
 12 13  1  0
 13 14  2  0
 13 15  1  0
 15 16  2  0
 16 17  1  0
 17 18  2  0
 18 19  1  0
 19 20  2  0
 20 21  1  0
 20 22  1  0
 22 23  2  0
 23 24  1  0
 24 25  2  0
 25 15  1  0
 24 18  1  0
  1 26  1  0
  1 27  1  0
  1 28  1  0
  2 29  1  0
  3 30  1  0
  3 31  1  0
  3 32  1  0
  4 33  1  0
  7 34  1  0
  7 35  1  0
  8 36  1  0
 11 37  1  0
 11 38  1  0
 12 39  1  0
 16 40  1  0
 17 41  1  0
 19 42  1  0
 22 43  1  0
 23 44  1  0
M  END
>  <smiles>  (9) 
CC(C)NC(=O)CNC(=O)CNC(=O)c1ccc2cc(Cl)ccc2n1

>  <score_type>  (9) 
oracle

>  <origin>  (9) 
autodockgpu

>  <m_score__min__energy>  (9) 
-7.6500000000000004

>  <m_primary>  (9) 
energy

>  <rmsd>  (9) 
4.645297708111396

>  <m_score__min__rmsd>  (9) 
4.645297708111396

>  <meeko>  (9) 
{"free_energy": -6.12, "intermolecular_energy": -7.91, "internal_energy": -2.73, "cluster_size": 9, "cluster_id": 2, "rank_in_cluster": 8}

>  <energy>  (9) 
-7.38

>  <cluster_rmsd>  (9) 
0.53

>  <cluster>  (9) 
1

$$$$

     RDKit          3D

 44 45  0  0  0  0  0  0  0  0999 V2000
  142.8560   80.1180  223.3910 C   0  0  0  0  0  0  0  0  0  0  0  0
  141.5560   79.6770  222.7310 C   0  0  0  0  0  0  0  0  0  0  0  0
  140.5530   79.4500  223.8340 C   0  0  0  0  0  0  0  0  0  0  0  0
  141.7720   78.4230  222.0360 N   0  0  0  0  0  0  0  0  0  0  0  0
  141.5960   78.2970  220.6480 C   0  0  0  0  0  0  0  0  0  0  0  0
  141.2410   79.3450  220.0180 O   0  0  0  0  0  0  0  0  0  0  0  0
  141.7860   77.0700  219.8580 C   0  0  0  0  0  0  0  0  0  0  0  0
  140.6820   76.1450  219.9330 N   0  0  0  0  0  0  0  0  0  0  0  0
  140.2500   75.6210  221.1800 C   0  0  0  0  0  0  0  0  0  0  0  0
  140.7720   75.9140  222.2850 O   0  0  0  0  0  0  0  0  0  0  0  0
  139.1040   74.6650  221.1450 C   0  0  0  0  0  0  0  0  0  0  0  0
  139.3140   73.6990  222.2030 N   0  0  0  0  0  0  0  0  0  0  0  0
  139.1610   72.3090  221.9460 C   0  0  0  0  0  0  0  0  0  0  0  0
  138.8440   71.8410  220.8210 O   0  0  0  0  0  0  0  0  0  0  0  0
  139.3870   71.3730  223.0600 C   0  0  0  0  0  0  0  0  0  0  0  0
  138.9780   70.0570  222.9690 C   0  0  0  0  0  0  0  0  0  0  0  0
  139.1930   69.1780  224.0200 C   0  0  0  0  0  0  0  0  0  0  0  0
  139.8140   69.6090  225.1610 C   0  0  0  0  0  0  0  0  0  0  0  0
  140.0570   68.7870  226.2390 C   0  0  0  0  0  0  0  0  0  0  0  0
  140.6900   69.2360  227.3950 C   0  0  0  0  0  0  0  0  0  0  0  0
  140.9730   68.1450  228.7360 Cl  0  0  0  0  0  0  0  0  0  0  0  0
  141.0840   70.5720  227.4390 C   0  0  0  0  0  0  0  0  0  0  0  0
  140.8510   71.4270  226.3610 C   0  0  0  0  0  0  0  0  0  0  0  0
  140.2170   70.9280  225.2340 C   0  0  0  0  0  0  0  0  0  0  0  0
  139.9990   71.7730  224.1990 N   0  0  0  0  0  0  0  0  0  0  0  0
  142.7434   80.0798  224.4846 H   0  0  0  0  0  0  0  0  0  0  0  0
  143.6703   79.4458  223.0825 H   0  0  0  0  0  0  0  0  0  0  0  0
  143.0932   81.1469  223.0825 H   0  0  0  0  0  0  0  0  0  0  0  0
  141.2039   80.4347  222.0156 H   0  0  0  0  0  0  0  0  0  0  0  0
  141.0490   79.5622  224.8094 H   0  0  0  0  0  0  0  0  0  0  0  0
  139.7409   80.1871  223.7486 H   0  0  0  0  0  0  0  0  0  0  0  0
  140.1375   78.4351  223.7486 H   0  0  0  0  0  0  0  0  0  0  0  0
  142.0730   77.6160  222.6060 H   0  0  0  0  0  0  0  0  0  0  0  0
  141.9268   77.3553  218.8050 H   0  0  0  0  0  0  0  0  0  0  0  0
  142.6616   76.5540  220.2788 H   0  0  0  0  0  0  0  0  0  0  0  0
  140.2030   75.8670  219.0420 H   0  0  0  0  0  0  0  0  0  0  0  0
  138.1594   75.2040  221.3100 H   0  0  0  0  0  0  0  0  0  0  0  0
  139.0456   74.1641  220.1674 H   0  0  0  0  0  0  0  0  0  0  0  0
  139.5800   74.0270  223.1570 H   0  0  0  0  0  0  0  0  0  0  0  0
  138.4777   69.7031  222.0555 H   0  0  0  0  0  0  0  0  0  0  0  0
  138.8636   68.1318  223.9364 H   0  0  0  0  0  0  0  0  0  0  0  0
  139.7388   67.7354  226.1846 H   0  0  0  0  0  0  0  0  0  0  0  0
  141.5867   70.9587  228.3378 H   0  0  0  0  0  0  0  0  0  0  0  0
  141.1655   72.4802  226.4050 H   0  0  0  0  0  0  0  0  0  0  0  0
  1  2  1  0
  2  3  1  0
  2  4  1  0
  4  5  1  0
  5  6  2  0
  5  7  1  0
  7  8  1  0
  8  9  1  0
  9 10  2  0
  9 11  1  0
 11 12  1  0
 12 13  1  0
 13 14  2  0
 13 15  1  0
 15 16  2  0
 16 17  1  0
 17 18  2  0
 18 19  1  0
 19 20  2  0
 20 21  1  0
 20 22  1  0
 22 23  2  0
 23 24  1  0
 24 25  2  0
 25 15  1  0
 24 18  1  0
  1 26  1  0
  1 27  1  0
  1 28  1  0
  2 29  1  0
  3 30  1  0
  3 31  1  0
  3 32  1  0
  4 33  1  0
  7 34  1  0
  7 35  1  0
  8 36  1  0
 11 37  1  0
 11 38  1  0
 12 39  1  0
 16 40  1  0
 17 41  1  0
 19 42  1  0
 22 43  1  0
 23 44  1  0
M  END
>  <smiles>  (10) 
CC(C)NC(=O)CNC(=O)CNC(=O)c1ccc2cc(Cl)ccc2n1

>  <score_type>  (10) 
oracle

>  <origin>  (10) 
autodockgpu

>  <m_score__min__energy>  (10) 
-7.6500000000000004

>  <m_primary>  (10) 
energy

>  <rmsd>  (10) 
1.2170526687155758

>  <m_score__min__rmsd>  (10) 
1.2170526687155758

>  <meeko>  (10) 
{"free_energy": -7.41, "intermolecular_energy": -9.2, "internal_energy": -2.32, "cluster_size": 38, "cluster_id": 1, "rank_in_cluster": 6}

>  <energy>  (10) 
-7.37

>  <cluster_rmsd>  (10) 
0.53

>  <cluster>  (10) 
1

$$$$

     RDKit          3D

 44 45  0  0  0  0  0  0  0  0999 V2000
  141.1290   81.3150  222.7520 C   0  0  0  0  0  0  0  0  0  0  0  0
  141.9290   80.0570  223.0610 C   0  0  0  0  0  0  0  0  0  0  0  0
  143.3240   80.4960  223.4280 C   0  0  0  0  0  0  0  0  0  0  0  0
  142.0030   79.2310  221.8710 N   0  0  0  0  0  0  0  0  0  0  0  0
  140.9600   78.3700  221.4920 C   0  0  0  0  0  0  0  0  0  0  0  0
  139.9310   78.3500  222.2430 O   0  0  0  0  0  0  0  0  0  0  0  0
  140.9440   77.4940  220.3100 C   0  0  0  0  0  0  0  0  0  0  0  0
  139.9660   76.4370  220.3740 N   0  0  0  0  0  0  0  0  0  0  0  0
  140.1310   75.3390  221.2580 C   0  0  0  0  0  0  0  0  0  0  0  0
  141.1080   75.2040  222.0380 O   0  0  0  0  0  0  0  0  0  0  0  0
  139.0640   74.2960  221.2390 C   0  0  0  0  0  0  0  0  0  0  0  0
  139.3420   73.3720  222.3190 N   0  0  0  0  0  0  0  0  0  0  0  0
  138.8850   72.0280  222.2490 C   0  0  0  0  0  0  0  0  0  0  0  0
  138.2310   71.5660  221.2780 O   0  0  0  0  0  0  0  0  0  0  0  0
  139.1970   71.1340  223.3770 C   0  0  0  0  0  0  0  0  0  0  0  0
  138.8590   69.7950  223.3300 C   0  0  0  0  0  0  0  0  0  0  0  0
  139.1550   68.9560  224.3940 C   0  0  0  0  0  0  0  0  0  0  0  0
  139.7880   69.4490  225.5040 C   0  0  0  0  0  0  0  0  0  0  0  0
  140.1090   68.6680  226.5910 C   0  0  0  0  0  0  0  0  0  0  0  0
  140.7520   69.1810  227.7160 C   0  0  0  0  0  0  0  0  0  0  0  0
  141.1370   68.1400  229.0720 Cl  0  0  0  0  0  0  0  0  0  0  0  0
  141.0730   70.5360  227.7150 C   0  0  0  0  0  0  0  0  0  0  0  0
  140.7600   71.3500  226.6260 C   0  0  0  0  0  0  0  0  0  0  0  0
  140.1190   70.7890  225.5330 C   0  0  0  0  0  0  0  0  0  0  0  0
  139.8220   71.5950  224.4860 N   0  0  0  0  0  0  0  0  0  0  0  0
  140.8234   81.7956  223.6931 H   0  0  0  0  0  0  0  0  0  0  0  0
  141.7507   82.0111  222.1698 H   0  0  0  0  0  0  0  0  0  0  0  0
  140.2349   81.0472  222.1698 H   0  0  0  0  0  0  0  0  0  0  0  0
  141.4588   79.4854  223.8747 H   0  0  0  0  0  0  0  0  0  0  0  0
  143.4225   80.5270  224.5231 H   0  0  0  0  0  0  0  0  0  0  0  0
  144.0532   79.7839  223.0143 H   0  0  0  0  0  0  0  0  0  0  0  0
  143.5140   81.4974  223.0143 H   0  0  0  0  0  0  0  0  0  0  0  0
  142.8600   79.3070  221.2990 H   0  0  0  0  0  0  0  0  0  0  0  0
  140.7281   78.1113  219.4255 H   0  0  0  0  0  0  0  0  0  0  0  0
  141.9308   77.0105  220.2601 H   0  0  0  0  0  0  0  0  0  0  0  0
  139.1250   76.4980  219.7480 H   0  0  0  0  0  0  0  0  0  0  0  0
  138.0792   74.7629  221.3878 H   0  0  0  0  0  0  0  0  0  0  0  0
  139.0513   73.7710  220.2724 H   0  0  0  0  0  0  0  0  0  0  0  0
  139.8820   73.6970  223.1510 H   0  0  0  0  0  0  0  0  0  0  0  0
  138.3511   69.3913  222.4417 H   0  0  0  0  0  0  0  0  0  0  0  0
  138.8807   67.8918  224.3462 H   0  0  0  0  0  0  0  0  0  0  0  0
  139.8484   67.5995  226.5710 H   0  0  0  0  0  0  0  0  0  0  0  0
  141.5819   70.9719  228.5874 H   0  0  0  0  0  0  0  0  0  0  0  0
  141.0177   72.4193  226.6349 H   0  0  0  0  0  0  0  0  0  0  0  0
  1  2  1  0
  2  3  1  0
  2  4  1  0
  4  5  1  0
  5  6  2  0
  5  7  1  0
  7  8  1  0
  8  9  1  0
  9 10  2  0
  9 11  1  0
 11 12  1  0
 12 13  1  0
 13 14  2  0
 13 15  1  0
 15 16  2  0
 16 17  1  0
 17 18  2  0
 18 19  1  0
 19 20  2  0
 20 21  1  0
 20 22  1  0
 22 23  2  0
 23 24  1  0
 24 25  2  0
 25 15  1  0
 24 18  1  0
  1 26  1  0
  1 27  1  0
  1 28  1  0
  2 29  1  0
  3 30  1  0
  3 31  1  0
  3 32  1  0
  4 33  1  0
  7 34  1  0
  7 35  1  0
  8 36  1  0
 11 37  1  0
 11 38  1  0
 12 39  1  0
 16 40  1  0
 17 41  1  0
 19 42  1  0
 22 43  1  0
 23 44  1  0
M  END
>  <smiles>  (11) 
CC(C)NC(=O)CNC(=O)CNC(=O)c1ccc2cc(Cl)ccc2n1

>  <score_type>  (11) 
oracle

>  <origin>  (11) 
autodockgpu

>  <m_score__min__energy>  (11) 
-7.6500000000000004

>  <m_primary>  (11) 
energy

>  <rmsd>  (11) 
1.401722855539146

>  <m_score__min__rmsd>  (11) 
1.401722855539146

>  <meeko>  (11) 
{"free_energy": -7.46, "intermolecular_energy": -9.25, "internal_energy": -1.88, "cluster_size": 38, "cluster_id": 1, "rank_in_cluster": 5}

>  <energy>  (11) 
-7.36

>  <cluster_rmsd>  (11) 
0.96

>  <cluster>  (11) 
1

$$$$

     RDKit          3D

 44 45  0  0  0  0  0  0  0  0999 V2000
  145.5480   72.0700  219.6930 C   0  0  0  0  0  0  0  0  0  0  0  0
  146.0210   73.3560  220.3570 C   0  0  0  0  0  0  0  0  0  0  0  0
  146.1960   73.0600  221.8250 C   0  0  0  0  0  0  0  0  0  0  0  0
  145.0010   74.3760  220.2110 N   0  0  0  0  0  0  0  0  0  0  0  0
  143.6570   74.1440  220.5470 C   0  0  0  0  0  0  0  0  0  0  0  0
  143.3710   72.9870  220.9970 O   0  0  0  0  0  0  0  0  0  0  0  0
  142.5530   75.1100  220.4300 C   0  0  0  0  0  0  0  0  0  0  0  0
  141.2430   74.5270  220.5760 N   0  0  0  0  0  0  0  0  0  0  0  0
  140.0850   75.3430  220.6670 C   0  0  0  0  0  0  0  0  0  0  0  0
  140.1040   76.6000  220.6220 O   0  0  0  0  0  0  0  0  0  0  0  0
  138.7790   74.6390  220.8250 C   0  0  0  0  0  0  0  0  0  0  0  0
  138.9170   73.7100  221.9270 N   0  0  0  0  0  0  0  0  0  0  0  0
  139.4670   72.4170  221.7110 C   0  0  0  0  0  0  0  0  0  0  0  0
  139.8570   72.0070  220.5870 O   0  0  0  0  0  0  0  0  0  0  0  0
  139.5840   71.5150  222.8700 C   0  0  0  0  0  0  0  0  0  0  0  0
  139.0760   70.2320  222.8180 C   0  0  0  0  0  0  0  0  0  0  0  0
  139.1880   69.3860  223.9110 C   0  0  0  0  0  0  0  0  0  0  0  0
  139.8050   69.8170  225.0550 C   0  0  0  0  0  0  0  0  0  0  0  0
  139.9470   69.0260  226.1730 C   0  0  0  0  0  0  0  0  0  0  0  0
  140.5760   69.4750  227.3310 C   0  0  0  0  0  0  0  0  0  0  0  0
  140.7300   68.4250  228.7260 Cl  0  0  0  0  0  0  0  0  0  0  0  0
  141.0720   70.7770  227.3350 C   0  0  0  0  0  0  0  0  0  0  0  0
  140.9410   71.6010  226.2160 C   0  0  0  0  0  0  0  0  0  0  0  0
  140.3060   71.1030  225.0880 C   0  0  0  0  0  0  0  0  0  0  0  0
  140.1880   71.9160  224.0120 N   0  0  0  0  0  0  0  0  0  0  0  0
  145.2780   71.3359  220.4664 H   0  0  0  0  0  0  0  0  0  0  0  0
  144.6692   72.2826  219.0665 H   0  0  0  0  0  0  0  0  0  0  0  0
  146.3551   71.6625  219.0665 H   0  0  0  0  0  0  0  0  0  0  0  0
  146.9581   73.7081  219.9011 H   0  0  0  0  0  0  0  0  0  0  0  0
  145.7247   73.8572  222.4185 H   0  0  0  0  0  0  0  0  0  0  0  0
  145.7224   72.0963  222.0637 H   0  0  0  0  0  0  0  0  0  0  0  0
  147.2686   73.0105  222.0637 H   0  0  0  0  0  0  0  0  0  0  0  0
  145.3050   75.2970  219.8540 H   0  0  0  0  0  0  0  0  0  0  0  0
  142.6794   75.8752  221.2100 H   0  0  0  0  0  0  0  0  0  0  0  0
  142.6030   75.5272  219.4134 H   0  0  0  0  0  0  0  0  0  0  0  0
  141.1650   73.4820  220.6150 H   0  0  0  0  0  0  0  0  0  0  0  0
  137.9839   75.3668  221.0444 H   0  0  0  0  0  0  0  0  0  0  0  0
  138.5109   74.1069  219.9004 H   0  0  0  0  0  0  0  0  0  0  0  0
  138.6120   73.9950  222.8840 H   0  0  0  0  0  0  0  0  0  0  0  0
  138.5788   69.8784  221.9027 H   0  0  0  0  0  0  0  0  0  0  0  0
  138.7801   68.3658  223.8589 H   0  0  0  0  0  0  0  0  0  0  0  0
  139.5486   68.0009  226.1504 H   0  0  0  0  0  0  0  0  0  0  0  0
  141.5749   71.1617  228.2345 H   0  0  0  0  0  0  0  0  0  0  0  0
  141.3347   72.6280  226.2286 H   0  0  0  0  0  0  0  0  0  0  0  0
  1  2  1  0
  2  3  1  0
  2  4  1  0
  4  5  1  0
  5  6  2  0
  5  7  1  0
  7  8  1  0
  8  9  1  0
  9 10  2  0
  9 11  1  0
 11 12  1  0
 12 13  1  0
 13 14  2  0
 13 15  1  0
 15 16  2  0
 16 17  1  0
 17 18  2  0
 18 19  1  0
 19 20  2  0
 20 21  1  0
 20 22  1  0
 22 23  2  0
 23 24  1  0
 24 25  2  0
 25 15  1  0
 24 18  1  0
  1 26  1  0
  1 27  1  0
  1 28  1  0
  2 29  1  0
  3 30  1  0
  3 31  1  0
  3 32  1  0
  4 33  1  0
  7 34  1  0
  7 35  1  0
  8 36  1  0
 11 37  1  0
 11 38  1  0
 12 39  1  0
 16 40  1  0
 17 41  1  0
 19 42  1  0
 22 43  1  0
 23 44  1  0
M  END
>  <smiles>  (12) 
CC(C)NC(=O)CNC(=O)CNC(=O)c1ccc2cc(Cl)ccc2n1

>  <score_type>  (12) 
oracle

>  <origin>  (12) 
autodockgpu

>  <m_score__min__energy>  (12) 
-7.6500000000000004

>  <m_primary>  (12) 
energy

>  <rmsd>  (12) 
4.411797218904792

>  <m_score__min__rmsd>  (12) 
4.411797218904792

>  <meeko>  (12) 
{"free_energy": -6.98, "intermolecular_energy": -8.77, "internal_energy": -2.26, "cluster_size": 9, "cluster_id": 2, "rank_in_cluster": 3}

>  <energy>  (12) 
-7.35

>  <cluster_rmsd>  (12) 
0.82

>  <cluster>  (12) 
1

$$$$

     RDKit          3D

 44 45  0  0  0  0  0  0  0  0999 V2000
  143.0040   80.1480  222.7180 C   0  0  0  0  0  0  0  0  0  0  0  0
  141.6690   79.4180  222.7630 C   0  0  0  0  0  0  0  0  0  0  0  0
  141.4300   79.0170  224.1970 C   0  0  0  0  0  0  0  0  0  0  0  0
  141.7510   78.2160  221.9550 N   0  0  0  0  0  0  0  0  0  0  0  0
  141.4790   78.2220  220.5770 C   0  0  0  0  0  0  0  0  0  0  0  0
  141.1580   79.3410  220.0600 O   0  0  0  0  0  0  0  0  0  0  0  0
  141.5320   77.0580  219.6780 C   0  0  0  0  0  0  0  0  0  0  0  0
  140.4270   76.1440  219.8340 N   0  0  0  0  0  0  0  0  0  0  0  0
  140.2510   75.4070  221.0340 C   0  0  0  0  0  0  0  0  0  0  0  0
  141.0140   75.4910  222.0300 O   0  0  0  0  0  0  0  0  0  0  0  0
  139.0810   74.4820  221.0890 C   0  0  0  0  0  0  0  0  0  0  0  0
  139.3240   73.5370  222.1580 N   0  0  0  0  0  0  0  0  0  0  0  0
  139.0420   72.1560  221.9730 C   0  0  0  0  0  0  0  0  0  0  0  0
  138.5780   71.6790  220.9050 O   0  0  0  0  0  0  0  0  0  0  0  0
  139.3100   71.2410  223.0960 C   0  0  0  0  0  0  0  0  0  0  0  0
  138.9350   69.9140  223.0290 C   0  0  0  0  0  0  0  0  0  0  0  0
  139.1890   69.0560  224.0880 C   0  0  0  0  0  0  0  0  0  0  0  0
  139.8160   69.5180  225.2140 C   0  0  0  0  0  0  0  0  0  0  0  0
  140.0960   68.7170  226.2980 C   0  0  0  0  0  0  0  0  0  0  0  0
  140.7350   69.1990  227.4380 C   0  0  0  0  0  0  0  0  0  0  0  0
  141.0670   68.1330  228.7890 Cl  0  0  0  0  0  0  0  0  0  0  0  0
  141.0940   70.5450  227.4580 C   0  0  0  0  0  0  0  0  0  0  0  0
  140.8230   71.3790  226.3730 C   0  0  0  0  0  0  0  0  0  0  0  0
  140.1840   70.8480  225.2630 C   0  0  0  0  0  0  0  0  0  0  0  0
  139.9290   71.6730  224.2200 N   0  0  0  0  0  0  0  0  0  0  0  0
  143.3525   80.3386  223.7438 H   0  0  0  0  0  0  0  0  0  0  0  0
  143.7430   79.5285  222.1888 H   0  0  0  0  0  0  0  0  0  0  0  0
  142.8812   81.1045  222.1888 H   0  0  0  0  0  0  0  0  0  0  0  0
  140.8604   80.0596  222.3829 H   0  0  0  0  0  0  0  0  0  0  0  0
  141.8768   79.7666  224.8667 H   0  0  0  0  0  0  0  0  0  0  0  0
  140.3479   78.9558  224.3851 H   0  0  0  0  0  0  0  0  0  0  0  0
  141.8909   78.0361  224.3851 H   0  0  0  0  0  0  0  0  0  0  0  0
  142.0320   77.3460  222.4350 H   0  0  0  0  0  0  0  0  0  0  0  0
  141.5351   77.4226  218.6402 H   0  0  0  0  0  0  0  0  0  0  0  0
  142.4446   76.4999  219.9343 H   0  0  0  0  0  0  0  0  0  0  0  0
  139.7540   76.0350  219.0370 H   0  0  0  0  0  0  0  0  0  0  0  0
  138.1617   75.0508  221.2922 H   0  0  0  0  0  0  0  0  0  0  0  0
  138.9554   73.9584  220.1298 H   0  0  0  0  0  0  0  0  0  0  0  0
  139.7100   73.8740  223.0680 H   0  0  0  0  0  0  0  0  0  0  0  0
  138.4306   69.5344  222.1282 H   0  0  0  0  0  0  0  0  0  0  0  0
  138.8858   68.0006  224.0233 H   0  0  0  0  0  0  0  0  0  0  0  0
  139.8043   67.6570  226.2626 H   0  0  0  0  0  0  0  0  0  0  0  0
  141.5995   70.9569  228.3439 H   0  0  0  0  0  0  0  0  0  0  0  0
  141.1115   72.4402  226.3977 H   0  0  0  0  0  0  0  0  0  0  0  0
  1  2  1  0
  2  3  1  0
  2  4  1  0
  4  5  1  0
  5  6  2  0
  5  7  1  0
  7  8  1  0
  8  9  1  0
  9 10  2  0
  9 11  1  0
 11 12  1  0
 12 13  1  0
 13 14  2  0
 13 15  1  0
 15 16  2  0
 16 17  1  0
 17 18  2  0
 18 19  1  0
 19 20  2  0
 20 21  1  0
 20 22  1  0
 22 23  2  0
 23 24  1  0
 24 25  2  0
 25 15  1  0
 24 18  1  0
  1 26  1  0
  1 27  1  0
  1 28  1  0
  2 29  1  0
  3 30  1  0
  3 31  1  0
  3 32  1  0
  4 33  1  0
  7 34  1  0
  7 35  1  0
  8 36  1  0
 11 37  1  0
 11 38  1  0
 12 39  1  0
 16 40  1  0
 17 41  1  0
 19 42  1  0
 22 43  1  0
 23 44  1  0
M  END
>  <smiles>  (13) 
CC(C)NC(=O)CNC(=O)CNC(=O)c1ccc2cc(Cl)ccc2n1

>  <score_type>  (13) 
oracle

>  <origin>  (13) 
autodockgpu

>  <m_score__min__energy>  (13) 
-7.6500000000000004

>  <m_primary>  (13) 
energy

>  <rmsd>  (13) 
1.1860161558009077

>  <m_score__min__rmsd>  (13) 
1.1860161558009077

>  <meeko>  (13) 
{"free_energy": -7.31, "intermolecular_energy": -9.1, "internal_energy": -2.46, "cluster_size": 38, "cluster_id": 1, "rank_in_cluster": 16}

>  <energy>  (13) 
-7.34

>  <cluster_rmsd>  (13) 
0.56

>  <cluster>  (13) 
1

$$$$

     RDKit          3D

 44 45  0  0  0  0  0  0  0  0999 V2000
  144.5030   71.8320  220.0390 C   0  0  0  0  0  0  0  0  0  0  0  0
  144.6710   73.3440  220.0910 C   0  0  0  0  0  0  0  0  0  0  0  0
  145.6270   73.6460  221.2180 C   0  0  0  0  0  0  0  0  0  0  0  0
  143.3930   73.9590  220.3930 N   0  0  0  0  0  0  0  0  0  0  0  0
  143.1320   75.3130  220.1210 C   0  0  0  0  0  0  0  0  0  0  0  0
  144.0750   75.9830  219.5870 O   0  0  0  0  0  0  0  0  0  0  0  0
  141.8730   76.0250  220.3930 C   0  0  0  0  0  0  0  0  0  0  0  0
  140.7020   75.1840  220.3590 N   0  0  0  0  0  0  0  0  0  0  0  0
  139.5650   75.4800  221.1540 C   0  0  0  0  0  0  0  0  0  0  0  0
  139.4830   76.4710  221.9240 O   0  0  0  0  0  0  0  0  0  0  0  0
  138.4100   74.5410  221.0500 C   0  0  0  0  0  0  0  0  0  0  0  0
  138.5700   73.5400  222.0850 N   0  0  0  0  0  0  0  0  0  0  0  0
  139.7130   72.6950  222.0940 C   0  0  0  0  0  0  0  0  0  0  0  0
  140.6300   72.7560  221.2340 O   0  0  0  0  0  0  0  0  0  0  0  0
  139.8220   71.6960  223.1710 C   0  0  0  0  0  0  0  0  0  0  0  0
  139.4200   70.3900  222.9650 C   0  0  0  0  0  0  0  0  0  0  0  0
  139.5250   69.4530  223.9820 C   0  0  0  0  0  0  0  0  0  0  0  0
  140.0290   69.8140  225.2020 C   0  0  0  0  0  0  0  0  0  0  0  0
  140.1590   68.9310  226.2500 C   0  0  0  0  0  0  0  0  0  0  0  0
  140.6730   69.3100  227.4880 C   0  0  0  0  0  0  0  0  0  0  0  0
  140.8150   68.1430  228.7880 Cl  0  0  0  0  0  0  0  0  0  0  0  0
  141.0650   70.6370  227.6460 C   0  0  0  0  0  0  0  0  0  0  0  0
  140.9450   71.5530  226.6000 C   0  0  0  0  0  0  0  0  0  0  0  0
  140.4260   71.1230  225.3890 C   0  0  0  0  0  0  0  0  0  0  0  0
  140.3170   72.0260  224.3860 N   0  0  0  0  0  0  0  0  0  0  0  0
  144.4586   71.4326  221.0630 H   0  0  0  0  0  0  0  0  0  0  0  0
  143.5718   71.5846  219.5082 H   0  0  0  0  0  0  0  0  0  0  0  0
  145.3571   71.3862  219.5082 H   0  0  0  0  0  0  0  0  0  0  0  0
  145.0442   73.7287  219.1304 H   0  0  0  0  0  0  0  0  0  0  0  0
  145.1205   73.4860  222.1813 H   0  0  0  0  0  0  0  0  0  0  0  0
  146.4994   72.9797  221.1473 H   0  0  0  0  0  0  0  0  0  0  0  0
  145.9583   74.6925  221.1473 H   0  0  0  0  0  0  0  0  0  0  0  0
  142.6680   73.3550  220.8110 H   0  0  0  0  0  0  0  0  0  0  0  0
  141.9425   76.4803  221.3919 H   0  0  0  0  0  0  0  0  0  0  0  0
  141.7513   76.7709  219.5938 H   0  0  0  0  0  0  0  0  0  0  0  0
  140.7110   74.3440  219.7310 H   0  0  0  0  0  0  0  0  0  0  0  0
  137.4669   75.0874  221.1982 H   0  0  0  0  0  0  0  0  0  0  0  0
  138.3807   74.0704  220.0562 H   0  0  0  0  0  0  0  0  0  0  0  0
  137.8430   73.4430  222.8260 H   0  0  0  0  0  0  0  0  0  0  0  0
  139.0138   70.0915  221.9873 H   0  0  0  0  0  0  0  0  0  0  0  0
  139.2020   68.4161  223.8074 H   0  0  0  0  0  0  0  0  0  0  0  0
  139.8452   67.8868  226.1044 H   0  0  0  0  0  0  0  0  0  0  0  0
  141.4759   70.9685  228.6110 H   0  0  0  0  0  0  0  0  0  0  0  0
  141.2572   72.5991  226.7345 H   0  0  0  0  0  0  0  0  0  0  0  0
  1  2  1  0
  2  3  1  0
  2  4  1  0
  4  5  1  0
  5  6  2  0
  5  7  1  0
  7  8  1  0
  8  9  1  0
  9 10  2  0
  9 11  1  0
 11 12  1  0
 12 13  1  0
 13 14  2  0
 13 15  1  0
 15 16  2  0
 16 17  1  0
 17 18  2  0
 18 19  1  0
 19 20  2  0
 20 21  1  0
 20 22  1  0
 22 23  2  0
 23 24  1  0
 24 25  2  0
 25 15  1  0
 24 18  1  0
  1 26  1  0
  1 27  1  0
  1 28  1  0
  2 29  1  0
  3 30  1  0
  3 31  1  0
  3 32  1  0
  4 33  1  0
  7 34  1  0
  7 35  1  0
  8 36  1  0
 11 37  1  0
 11 38  1  0
 12 39  1  0
 16 40  1  0
 17 41  1  0
 19 42  1  0
 22 43  1  0
 23 44  1  0
M  END
>  <smiles>  (14) 
CC(C)NC(=O)CNC(=O)CNC(=O)c1ccc2cc(Cl)ccc2n1

>  <score_type>  (14) 
oracle

>  <origin>  (14) 
autodockgpu

>  <m_score__min__energy>  (14) 
-7.6500000000000004

>  <m_primary>  (14) 
energy

>  <rmsd>  (14) 
4.172431140895176

>  <m_score__min__rmsd>  (14) 
4.172431140895176

>  <meeko>  (14) 
{"free_energy": -6.65, "intermolecular_energy": -8.44, "internal_energy": -2.45, "cluster_size": 9, "cluster_id": 2, "rank_in_cluster": 6}

>  <energy>  (14) 
-7.33

>  <cluster_rmsd>  (14) 
0.48

>  <cluster>  (14) 
1

$$$$

     RDKit          3D

 44 45  0  0  0  0  0  0  0  0999 V2000
  144.4060   72.8170  219.2830 C   0  0  0  0  0  0  0  0  0  0  0  0
  144.8500   74.1230  219.9300 C   0  0  0  0  0  0  0  0  0  0  0  0
  145.5340   73.7660  221.2260 C   0  0  0  0  0  0  0  0  0  0  0  0
  143.6830   74.9300  220.2300 N   0  0  0  0  0  0  0  0  0  0  0  0
  143.0120   75.6710  219.2430 C   0  0  0  0  0  0  0  0  0  0  0  0
  143.4740   75.5980  218.0580 O   0  0  0  0  0  0  0  0  0  0  0  0
  141.8280   76.5200  219.4510 C   0  0  0  0  0  0  0  0  0  0  0  0
  140.6310   75.7880  219.7810 N   0  0  0  0  0  0  0  0  0  0  0  0
  140.5050   75.1110  221.0230 C   0  0  0  0  0  0  0  0  0  0  0  0
  141.3960   75.0990  221.9100 O   0  0  0  0  0  0  0  0  0  0  0  0
  139.2280   74.3770  221.2610 C   0  0  0  0  0  0  0  0  0  0  0  0
  139.4610   73.4420  222.3430 N   0  0  0  0  0  0  0  0  0  0  0  0
  139.0210   72.0950  222.2330 C   0  0  0  0  0  0  0  0  0  0  0  0
  138.4210   71.6390  221.2260 O   0  0  0  0  0  0  0  0  0  0  0  0
  139.2860   71.1900  223.3650 C   0  0  0  0  0  0  0  0  0  0  0  0
  138.8890   69.8670  223.3180 C   0  0  0  0  0  0  0  0  0  0  0  0
  139.1400   69.0180  224.3850 C   0  0  0  0  0  0  0  0  0  0  0  0
  139.7850   69.4840  225.4980 C   0  0  0  0  0  0  0  0  0  0  0  0
  140.0640   68.6920  226.5890 C   0  0  0  0  0  0  0  0  0  0  0  0
  140.7210   69.1770  227.7170 C   0  0  0  0  0  0  0  0  0  0  0  0
  141.0500   68.1230  229.0780 Cl  0  0  0  0  0  0  0  0  0  0  0  0
  141.1020   70.5170  227.7170 C   0  0  0  0  0  0  0  0  0  0  0  0
  140.8330   71.3430  226.6250 C   0  0  0  0  0  0  0  0  0  0  0  0
  140.1750   70.8080  225.5280 C   0  0  0  0  0  0  0  0  0  0  0  0
  139.9220   71.6240  224.4770 N   0  0  0  0  0  0  0  0  0  0  0  0
  144.1574   72.0857  220.0662 H   0  0  0  0  0  0  0  0  0  0  0  0
  143.5197   73.0003  218.6578 H   0  0  0  0  0  0  0  0  0  0  0  0
  145.2204   72.4221  218.6578 H   0  0  0  0  0  0  0  0  0  0  0  0
  145.5200   74.6833  219.2612 H   0  0  0  0  0  0  0  0  0  0  0  0
  144.9103   74.0915  222.0716 H   0  0  0  0  0  0  0  0  0  0  0  0
  145.6797   72.6768  221.2758 H   0  0  0  0  0  0  0  0  0  0  0  0
  146.5109   74.2693  221.2758 H   0  0  0  0  0  0  0  0  0  0  0  0
  143.3530   74.9330  221.2090 H   0  0  0  0  0  0  0  0  0  0  0  0
  142.0436   77.2186  220.2729 H   0  0  0  0  0  0  0  0  0  0  0  0
  141.6338   77.0335  218.4978 H   0  0  0  0  0  0  0  0  0  0  0  0
  139.8500   75.7660  219.0800 H   0  0  0  0  0  0  0  0  0  0  0  0
  138.4338   75.0850  221.5403 H   0  0  0  0  0  0  0  0  0  0  0  0
  138.9093   73.8469  220.3514 H   0  0  0  0  0  0  0  0  0  0  0  0
  139.9550   73.7620  223.2040 H   0  0  0  0  0  0  0  0  0  0  0  0
  138.3697   69.4845  222.4269 H   0  0  0  0  0  0  0  0  0  0  0  0
  138.8197   67.9668  224.3366 H   0  0  0  0  0  0  0  0  0  0  0  0
  139.7563   67.6361  226.5689 H   0  0  0  0  0  0  0  0  0  0  0  0
  141.6237   70.9309  228.5925 H   0  0  0  0  0  0  0  0  0  0  0  0
  141.1376   72.4000  226.6343 H   0  0  0  0  0  0  0  0  0  0  0  0
  1  2  1  0
  2  3  1  0
  2  4  1  0
  4  5  1  0
  5  6  2  0
  5  7  1  0
  7  8  1  0
  8  9  1  0
  9 10  2  0
  9 11  1  0
 11 12  1  0
 12 13  1  0
 13 14  2  0
 13 15  1  0
 15 16  2  0
 16 17  1  0
 17 18  2  0
 18 19  1  0
 19 20  2  0
 20 21  1  0
 20 22  1  0
 22 23  2  0
 23 24  1  0
 24 25  2  0
 25 15  1  0
 24 18  1  0
  1 26  1  0
  1 27  1  0
  1 28  1  0
  2 29  1  0
  3 30  1  0
  3 31  1  0
  3 32  1  0
  4 33  1  0
  7 34  1  0
  7 35  1  0
  8 36  1  0
 11 37  1  0
 11 38  1  0
 12 39  1  0
 16 40  1  0
 17 41  1  0
 19 42  1  0
 22 43  1  0
 23 44  1  0
M  END
>  <smiles>  (15) 
CC(C)NC(=O)CNC(=O)CNC(=O)c1ccc2cc(Cl)ccc2n1

>  <score_type>  (15) 
oracle

>  <origin>  (15) 
autodockgpu

>  <m_score__min__energy>  (15) 
-7.6500000000000004

>  <m_primary>  (15) 
energy

>  <rmsd>  (15) 
3.889508109146448

>  <m_score__min__rmsd>  (15) 
3.889508109146448

>  <meeko>  (15) 
{"free_energy": -6.66, "intermolecular_energy": -8.45, "internal_energy": -2.49, "cluster_size": 9, "cluster_id": 2, "rank_in_cluster": 5}

>  <energy>  (15) 
-7.33

>  <cluster_rmsd>  (15) 
0.56

>  <cluster>  (15) 
1

$$$$

     RDKit          3D

 44 45  0  0  0  0  0  0  0  0999 V2000
  142.8630   80.0420  223.1050 C   0  0  0  0  0  0  0  0  0  0  0  0
  141.5140   79.5370  222.6110 C   0  0  0  0  0  0  0  0  0  0  0  0
  140.6610   79.2830  223.8280 C   0  0  0  0  0  0  0  0  0  0  0  0
  141.6990   78.2820  221.9080 N   0  0  0  0  0  0  0  0  0  0  0  0
  141.5510   78.1770  220.5150 C   0  0  0  0  0  0  0  0  0  0  0  0
  141.2490   79.2440  219.8880 O   0  0  0  0  0  0  0  0  0  0  0  0
  141.7140   76.9520  219.7150 C   0  0  0  0  0  0  0  0  0  0  0  0
  140.6260   76.0160  219.8450 N   0  0  0  0  0  0  0  0  0  0  0  0
  140.3680   75.3590  221.0770 C   0  0  0  0  0  0  0  0  0  0  0  0
  141.0420   75.5370  222.1240 O   0  0  0  0  0  0  0  0  0  0  0  0
  139.2230   74.4030  221.1020 C   0  0  0  0  0  0  0  0  0  0  0  0
  139.4640   73.4640  222.1770 N   0  0  0  0  0  0  0  0  0  0  0  0
  139.0030   72.1230  222.0760 C   0  0  0  0  0  0  0  0  0  0  0  0
  138.3760   71.6770  221.0800 O   0  0  0  0  0  0  0  0  0  0  0  0
  139.2780   71.2130  223.2010 C   0  0  0  0  0  0  0  0  0  0  0  0
  138.9010   69.8850  223.1420 C   0  0  0  0  0  0  0  0  0  0  0  0
  139.1620   69.0310  224.2030 C   0  0  0  0  0  0  0  0  0  0  0  0
  139.7970   69.4980  225.3220 C   0  0  0  0  0  0  0  0  0  0  0  0
  140.0840   68.7010  226.4080 C   0  0  0  0  0  0  0  0  0  0  0  0
  140.7300   69.1880  227.5420 C   0  0  0  0  0  0  0  0  0  0  0  0
  141.0710   68.1280  228.8950 Cl  0  0  0  0  0  0  0  0  0  0  0  0
  141.0910   70.5330  227.5530 C   0  0  0  0  0  0  0  0  0  0  0  0
  140.8130   71.3630  226.4670 C   0  0  0  0  0  0  0  0  0  0  0  0
  140.1670   70.8280  225.3630 C   0  0  0  0  0  0  0  0  0  0  0  0
  139.9040   71.6480  224.3190 N   0  0  0  0  0  0  0  0  0  0  0  0
  142.8727   80.0456  224.2049 H   0  0  0  0  0  0  0  0  0  0  0  0
  143.6603   79.3814  222.7334 H   0  0  0  0  0  0  0  0  0  0  0  0
  143.0305   81.0637  222.7334 H   0  0  0  0  0  0  0  0  0  0  0  0
  141.0470   80.2695  221.9362 H   0  0  0  0  0  0  0  0  0  0  0  0
  141.2559   79.4601  224.7362 H   0  0  0  0  0  0  0  0  0  0  0  0
  139.7961   79.9626  223.8179 H   0  0  0  0  0  0  0  0  0  0  0  0
  140.3087   78.2410  223.8179 H   0  0  0  0  0  0  0  0  0  0  0  0
  141.9580   77.4590  222.4760 H   0  0  0  0  0  0  0  0  0  0  0  0
  141.7982   77.2392  218.6565 H   0  0  0  0  0  0  0  0  0  0  0  0
  142.6153   76.4453  220.0903 H   0  0  0  0  0  0  0  0  0  0  0  0
  140.0250   75.8300  219.0050 H   0  0  0  0  0  0  0  0  0  0  0  0
  138.2837   74.9465  221.2816 H   0  0  0  0  0  0  0  0  0  0  0  0
  139.1364   73.8768  220.1399 H   0  0  0  0  0  0  0  0  0  0  0  0
  139.9800   73.7760  223.0290 H   0  0  0  0  0  0  0  0  0  0  0  0
  138.3898   69.5022  222.2464 H   0  0  0  0  0  0  0  0  0  0  0  0
  138.8579   67.9755  224.1451 H   0  0  0  0  0  0  0  0  0  0  0  0
  139.7923   67.6408  226.3788 H   0  0  0  0  0  0  0  0  0  0  0  0
  141.6041   70.9479  228.4331 H   0  0  0  0  0  0  0  0  0  0  0  0
  141.1015   72.4243  226.4861 H   0  0  0  0  0  0  0  0  0  0  0  0
  1  2  1  0
  2  3  1  0
  2  4  1  0
  4  5  1  0
  5  6  2  0
  5  7  1  0
  7  8  1  0
  8  9  1  0
  9 10  2  0
  9 11  1  0
 11 12  1  0
 12 13  1  0
 13 14  2  0
 13 15  1  0
 15 16  2  0
 16 17  1  0
 17 18  2  0
 18 19  1  0
 19 20  2  0
 20 21  1  0
 20 22  1  0
 22 23  2  0
 23 24  1  0
 24 25  2  0
 25 15  1  0
 24 18  1  0
  1 26  1  0
  1 27  1  0
  1 28  1  0
  2 29  1  0
  3 30  1  0
  3 31  1  0
  3 32  1  0
  4 33  1  0
  7 34  1  0
  7 35  1  0
  8 36  1  0
 11 37  1  0
 11 38  1  0
 12 39  1  0
 16 40  1  0
 17 41  1  0
 19 42  1  0
 22 43  1  0
 23 44  1  0
M  END
>  <smiles>  (16) 
CC(C)NC(=O)CNC(=O)CNC(=O)c1ccc2cc(Cl)ccc2n1

>  <score_type>  (16) 
oracle

>  <origin>  (16) 
autodockgpu

>  <m_score__min__energy>  (16) 
-7.6500000000000004

>  <m_primary>  (16) 
energy

>  <rmsd>  (16) 
1.1531940599357837

>  <m_score__min__rmsd>  (16) 
1.1531940599357837

>  <meeko>  (16) 
{"free_energy": -7.14, "intermolecular_energy": -8.93, "internal_energy": -2.54, "cluster_size": 38, "cluster_id": 1, "rank_in_cluster": 24}

>  <energy>  (16) 
-7.31

>  <cluster_rmsd>  (16) 
0.62

>  <cluster>  (16) 
1

$$$$

     RDKit          3D

 44 45  0  0  0  0  0  0  0  0999 V2000
  145.7240   72.0370  219.7230 C   0  0  0  0  0  0  0  0  0  0  0  0
  146.1910   73.3310  220.3770 C   0  0  0  0  0  0  0  0  0  0  0  0
  146.3240   73.0590  221.8540 C   0  0  0  0  0  0  0  0  0  0  0  0
  145.1830   74.3560  220.1850 N   0  0  0  0  0  0  0  0  0  0  0  0
  143.8270   74.1370  220.4790 C   0  0  0  0  0  0  0  0  0  0  0  0
  143.5180   72.9870  220.9320 O   0  0  0  0  0  0  0  0  0  0  0  0
  142.7360   75.1100  220.3150 C   0  0  0  0  0  0  0  0  0  0  0  0
  141.4180   74.5510  220.4910 N   0  0  0  0  0  0  0  0  0  0  0  0
  140.3120   75.3750  220.8270 C   0  0  0  0  0  0  0  0  0  0  0  0
  140.3860   76.6200  220.9880 O   0  0  0  0  0  0  0  0  0  0  0  0
  138.9950   74.6950  220.9950 C   0  0  0  0  0  0  0  0  0  0  0  0
  139.1370   73.7340  222.0680 N   0  0  0  0  0  0  0  0  0  0  0  0
  139.6670   72.4410  221.8080 C   0  0  0  0  0  0  0  0  0  0  0  0
  140.0370   72.0580  220.6680 O   0  0  0  0  0  0  0  0  0  0  0  0
  139.7880   71.5050  222.9390 C   0  0  0  0  0  0  0  0  0  0  0  0
  139.3900   70.1880  222.8110 C   0  0  0  0  0  0  0  0  0  0  0  0
  139.5060   69.3100  223.8780 C   0  0  0  0  0  0  0  0  0  0  0  0
  140.0170   69.7420  225.0720 C   0  0  0  0  0  0  0  0  0  0  0  0
  140.1570   68.9200  226.1680 C   0  0  0  0  0  0  0  0  0  0  0  0
  140.6780   69.3710  227.3790 C   0  0  0  0  0  0  0  0  0  0  0  0
  140.8340   68.2800  228.7410 Cl  0  0  0  0  0  0  0  0  0  0  0  0
  141.0660   70.7070  227.4590 C   0  0  0  0  0  0  0  0  0  0  0  0
  140.9350   71.5610  226.3640 C   0  0  0  0  0  0  0  0  0  0  0  0
  140.4100   71.0610  225.1820 C   0  0  0  0  0  0  0  0  0  0  0  0
  140.2900   71.9050  224.1310 N   0  0  0  0  0  0  0  0  0  0  0  0
  145.4604   71.3067  220.5022 H   0  0  0  0  0  0  0  0  0  0  0  0
  144.8423   72.2398  219.0973 H   0  0  0  0  0  0  0  0  0  0  0  0
  146.5320   71.6300  219.0973 H   0  0  0  0  0  0  0  0  0  0  0  0
  147.1432   73.6679  219.9413 H   0  0  0  0  0  0  0  0  0  0  0  0
  145.9100   73.9055  222.4215 H   0  0  0  0  0  0  0  0  0  0  0  0
  145.7727   72.1420  222.1091 H   0  0  0  0  0  0  0  0  0  0  0  0
  147.3863   72.9311  222.1091 H   0  0  0  0  0  0  0  0  0  0  0  0
  145.5060   75.2710  219.8280 H   0  0  0  0  0  0  0  0  0  0  0  0
  142.8733   75.9113  221.0560 H   0  0  0  0  0  0  0  0  0  0  0  0
  142.7900   75.4760  219.2791 H   0  0  0  0  0  0  0  0  0  0  0  0
  141.2950   73.5170  220.3650 H   0  0  0  0  0  0  0  0  0  0  0  0
  138.2209   75.4332  221.2516 H   0  0  0  0  0  0  0  0  0  0  0  0
  138.6951   74.1942  220.0627 H   0  0  0  0  0  0  0  0  0  0  0  0
  138.8480   73.9940  223.0370 H   0  0  0  0  0  0  0  0  0  0  0  0
  138.9778   69.8332  221.8549 H   0  0  0  0  0  0  0  0  0  0  0  0
  139.1865   68.2636  223.7645 H   0  0  0  0  0  0  0  0  0  0  0  0
  139.8459   67.8682  226.0843 H   0  0  0  0  0  0  0  0  0  0  0  0
  141.4822   71.0943  228.4007 H   0  0  0  0  0  0  0  0  0  0  0  0
  141.2433   72.6144  226.4369 H   0  0  0  0  0  0  0  0  0  0  0  0
  1  2  1  0
  2  3  1  0
  2  4  1  0
  4  5  1  0
  5  6  2  0
  5  7  1  0
  7  8  1  0
  8  9  1  0
  9 10  2  0
  9 11  1  0
 11 12  1  0
 12 13  1  0
 13 14  2  0
 13 15  1  0
 15 16  2  0
 16 17  1  0
 17 18  2  0
 18 19  1  0
 19 20  2  0
 20 21  1  0
 20 22  1  0
 22 23  2  0
 23 24  1  0
 24 25  2  0
 25 15  1  0
 24 18  1  0
  1 26  1  0
  1 27  1  0
  1 28  1  0
  2 29  1  0
  3 30  1  0
  3 31  1  0
  3 32  1  0
  4 33  1  0
  7 34  1  0
  7 35  1  0
  8 36  1  0
 11 37  1  0
 11 38  1  0
 12 39  1  0
 16 40  1  0
 17 41  1  0
 19 42  1  0
 22 43  1  0
 23 44  1  0
M  END
>  <smiles>  (17) 
CC(C)NC(=O)CNC(=O)CNC(=O)c1ccc2cc(Cl)ccc2n1

>  <score_type>  (17) 
oracle

>  <origin>  (17) 
autodockgpu

>  <m_score__min__energy>  (17) 
-7.6500000000000004

>  <m_primary>  (17) 
energy

>  <rmsd>  (17) 
4.467025136485836

>  <m_score__min__rmsd>  (17) 
4.467025136485836

>  <meeko>  (17) 
{"free_energy": -7.14, "intermolecular_energy": -8.93, "internal_energy": -2.23, "cluster_size": 9, "cluster_id": 2, "rank_in_cluster": 2}

>  <energy>  (17) 
-7.31

>  <cluster_rmsd>  (17) 
0.56

>  <cluster>  (17) 
1

$$$$

     RDKit          3D

 44 45  0  0  0  0  0  0  0  0999 V2000
  142.9600   80.0530  223.0860 C   0  0  0  0  0  0  0  0  0  0  0  0
  141.5810   79.6110  222.6140 C   0  0  0  0  0  0  0  0  0  0  0  0
  140.7410   79.3890  223.8470 C   0  0  0  0  0  0  0  0  0  0  0  0
  141.6970   78.3530  221.9020 N   0  0  0  0  0  0  0  0  0  0  0  0
  141.5580   78.2690  220.5070 C   0  0  0  0  0  0  0  0  0  0  0  0
  141.3280   79.3570  219.8860 O   0  0  0  0  0  0  0  0  0  0  0  0
  141.6550   77.0430  219.6980 C   0  0  0  0  0  0  0  0  0  0  0  0
  140.5360   76.1460  219.8540 N   0  0  0  0  0  0  0  0  0  0  0  0
  140.3200   75.4500  221.0720 C   0  0  0  0  0  0  0  0  0  0  0  0
  141.0590   75.5570  222.0840 O   0  0  0  0  0  0  0  0  0  0  0  0
  139.1390   74.5400  221.1240 C   0  0  0  0  0  0  0  0  0  0  0  0
  139.3710   73.5880  222.1900 N   0  0  0  0  0  0  0  0  0  0  0  0
  139.0760   72.2110  221.9990 C   0  0  0  0  0  0  0  0  0  0  0  0
  138.6100   71.7420  220.9290 O   0  0  0  0  0  0  0  0  0  0  0  0
  139.3330   71.2890  223.1190 C   0  0  0  0  0  0  0  0  0  0  0  0
  138.9450   69.9650  223.0460 C   0  0  0  0  0  0  0  0  0  0  0  0
  139.1890   69.1010  224.1030 C   0  0  0  0  0  0  0  0  0  0  0  0
  139.8190   69.5530  225.2310 C   0  0  0  0  0  0  0  0  0  0  0  0
  140.0900   68.7450  226.3120 C   0  0  0  0  0  0  0  0  0  0  0  0
  140.7310   69.2160  227.4550 C   0  0  0  0  0  0  0  0  0  0  0  0
  141.0510   68.1420  228.8030 Cl  0  0  0  0  0  0  0  0  0  0  0  0
  141.1030   70.5580  227.4810 C   0  0  0  0  0  0  0  0  0  0  0  0
  140.8420   71.3990  226.3990 C   0  0  0  0  0  0  0  0  0  0  0  0
  140.2000   70.8780  225.2860 C   0  0  0  0  0  0  0  0  0  0  0  0
  139.9540   71.7100  224.2460 N   0  0  0  0  0  0  0  0  0  0  0  0
  142.9859   80.0613  224.1857 H   0  0  0  0  0  0  0  0  0  0  0  0
  143.7192   79.3532  222.7066 H   0  0  0  0  0  0  0  0  0  0  0  0
  143.1709   81.0637  222.7066 H   0  0  0  0  0  0  0  0  0  0  0  0
  141.1343   80.3662  221.9506 H   0  0  0  0  0  0  0  0  0  0  0  0
  141.3564   79.5516  224.7441 H   0  0  0  0  0  0  0  0  0  0  0  0
  139.8975   80.0951  223.8480 H   0  0  0  0  0  0  0  0  0  0  0  0
  140.3565   78.3584  223.8480 H   0  0  0  0  0  0  0  0  0  0  0  0
  141.8990   77.5110  222.4650 H   0  0  0  0  0  0  0  0  0  0  0  0
  141.7213   77.3321  218.6387 H   0  0  0  0  0  0  0  0  0  0  0  0
  142.5471   76.5019  220.0465 H   0  0  0  0  0  0  0  0  0  0  0  0
  139.8830   76.0190  219.0430 H   0  0  0  0  0  0  0  0  0  0  0  0
  138.2269   75.1195  221.3296 H   0  0  0  0  0  0  0  0  0  0  0  0
  139.0063   74.0215  220.1630 H   0  0  0  0  0  0  0  0  0  0  0  0
  139.7580   73.9180  223.1020 H   0  0  0  0  0  0  0  0  0  0  0  0
  138.4388   69.5934  222.1428 H   0  0  0  0  0  0  0  0  0  0  0  0
  138.8752   68.0489  224.0347 H   0  0  0  0  0  0  0  0  0  0  0  0
  139.7890   67.6878  226.2714 H   0  0  0  0  0  0  0  0  0  0  0  0
  141.6110   70.9614  228.3694 H   0  0  0  0  0  0  0  0  0  0  0  0
  141.1404   72.4573  226.4284 H   0  0  0  0  0  0  0  0  0  0  0  0
  1  2  1  0
  2  3  1  0
  2  4  1  0
  4  5  1  0
  5  6  2  0
  5  7  1  0
  7  8  1  0
  8  9  1  0
  9 10  2  0
  9 11  1  0
 11 12  1  0
 12 13  1  0
 13 14  2  0
 13 15  1  0
 15 16  2  0
 16 17  1  0
 17 18  2  0
 18 19  1  0
 19 20  2  0
 20 21  1  0
 20 22  1  0
 22 23  2  0
 23 24  1  0
 24 25  2  0
 25 15  1  0
 24 18  1  0
  1 26  1  0
  1 27  1  0
  1 28  1  0
  2 29  1  0
  3 30  1  0
  3 31  1  0
  3 32  1  0
  4 33  1  0
  7 34  1  0
  7 35  1  0
  8 36  1  0
 11 37  1  0
 11 38  1  0
 12 39  1  0
 16 40  1  0
 17 41  1  0
 19 42  1  0
 22 43  1  0
 23 44  1  0
M  END
>  <smiles>  (18) 
CC(C)NC(=O)CNC(=O)CNC(=O)c1ccc2cc(Cl)ccc2n1

>  <score_type>  (18) 
oracle

>  <origin>  (18) 
autodockgpu

>  <m_score__min__energy>  (18) 
-7.6500000000000004

>  <m_primary>  (18) 
energy

>  <rmsd>  (18) 
1.18574730795284

>  <m_score__min__rmsd>  (18) 
1.18574730795284

>  <meeko>  (18) 
{"free_energy": -7.33, "intermolecular_energy": -9.12, "internal_energy": -2.46, "cluster_size": 38, "cluster_id": 1, "rank_in_cluster": 15}

>  <energy>  (18) 
-7.26

>  <cluster_rmsd>  (18) 
0.55

>  <cluster>  (18) 
1

$$$$

     RDKit          3D

 44 45  0  0  0  0  0  0  0  0999 V2000
  145.6000   74.0400  220.8400 C   0  0  0  0  0  0  0  0  0  0  0  0
  144.3290   73.2030  220.8040 C   0  0  0  0  0  0  0  0  0  0  0  0
  144.4210   72.3080  219.5940 C   0  0  0  0  0  0  0  0  0  0  0  0
  143.1820   74.0760  220.6460 N   0  0  0  0  0  0  0  0  0  0  0  0
  143.0780   74.9880  219.5820 C   0  0  0  0  0  0  0  0  0  0  0  0
  144.0410   75.0110  218.7500 O   0  0  0  0  0  0  0  0  0  0  0  0
  141.9600   75.9150  219.3410 C   0  0  0  0  0  0  0  0  0  0  0  0
  140.6600   75.3500  219.6060 N   0  0  0  0  0  0  0  0  0  0  0  0
  140.2140   75.1310  220.9350 C   0  0  0  0  0  0  0  0  0  0  0  0
  140.8910   75.4060  221.9590 O   0  0  0  0  0  0  0  0  0  0  0  0
  138.8560   74.5340  221.0980 C   0  0  0  0  0  0  0  0  0  0  0  0
  138.9380   73.5530  222.1600 N   0  0  0  0  0  0  0  0  0  0  0  0
  139.9730   72.5780  222.1570 C   0  0  0  0  0  0  0  0  0  0  0  0
  140.8560   72.5040  221.2640 O   0  0  0  0  0  0  0  0  0  0  0  0
  140.0060   71.6060  223.2630 C   0  0  0  0  0  0  0  0  0  0  0  0
  139.5290   70.3210  223.0880 C   0  0  0  0  0  0  0  0  0  0  0  0
  139.5620   69.4090  224.1310 C   0  0  0  0  0  0  0  0  0  0  0  0
  140.0700   69.7740  225.3490 C   0  0  0  0  0  0  0  0  0  0  0  0
  140.1300   68.9150  226.4240 C   0  0  0  0  0  0  0  0  0  0  0  0
  140.6480   69.2980  227.6580 C   0  0  0  0  0  0  0  0  0  0  0  0
  140.7010   68.1620  228.9920 Cl  0  0  0  0  0  0  0  0  0  0  0  0
  141.1170   70.6040  227.7860 C   0  0  0  0  0  0  0  0  0  0  0  0
  141.0680   71.4950  226.7130 C   0  0  0  0  0  0  0  0  0  0  0  0
  140.5420   71.0610  225.5060 C   0  0  0  0  0  0  0  0  0  0  0  0
  140.5030   71.9400  224.4770 N   0  0  0  0  0  0  0  0  0  0  0  0
  145.8857   74.2281  221.8855 H   0  0  0  0  0  0  0  0  0  0  0  0
  146.4104   73.4982  220.3303 H   0  0  0  0  0  0  0  0  0  0  0  0
  145.4224   74.9985  220.3303 H   0  0  0  0  0  0  0  0  0  0  0  0
  144.2194   72.6203  221.7305 H   0  0  0  0  0  0  0  0  0  0  0  0
  144.5285   71.2625  219.9186 H   0  0  0  0  0  0  0  0  0  0  0  0
  143.5074   72.4124  218.9903 H   0  0  0  0  0  0  0  0  0  0  0  0
  145.2943   72.5961  218.9903 H   0  0  0  0  0  0  0  0  0  0  0  0
  142.4300   73.9960  221.3490 H   0  0  0  0  0  0  0  0  0  0  0  0
  142.0937   76.7935  219.9893 H   0  0  0  0  0  0  0  0  0  0  0  0
  141.9835   76.1695  218.2711 H   0  0  0  0  0  0  0  0  0  0  0  0
  140.0480   75.1040  218.7890 H   0  0  0  0  0  0  0  0  0  0  0  0
  138.1308   75.3169  221.3647 H   0  0  0  0  0  0  0  0  0  0  0  0
  138.5236   74.0642  220.1606 H   0  0  0  0  0  0  0  0  0  0  0  0
  138.2330   73.5640  222.9290 H   0  0  0  0  0  0  0  0  0  0  0  0
  139.1196   70.0194  222.1126 H   0  0  0  0  0  0  0  0  0  0  0  0
  139.1790   68.3890  223.9799 H   0  0  0  0  0  0  0  0  0  0  0  0
  139.7546   67.8881  226.3029 H   0  0  0  0  0  0  0  0  0  0  0  0
  141.5325   70.9379  228.7482 H   0  0  0  0  0  0  0  0  0  0  0  0
  141.4404   72.5242  226.8231 H   0  0  0  0  0  0  0  0  0  0  0  0
  1  2  1  0
  2  3  1  0
  2  4  1  0
  4  5  1  0
  5  6  2  0
  5  7  1  0
  7  8  1  0
  8  9  1  0
  9 10  2  0
  9 11  1  0
 11 12  1  0
 12 13  1  0
 13 14  2  0
 13 15  1  0
 15 16  2  0
 16 17  1  0
 17 18  2  0
 18 19  1  0
 19 20  2  0
 20 21  1  0
 20 22  1  0
 22 23  2  0
 23 24  1  0
 24 25  2  0
 25 15  1  0
 24 18  1  0
  1 26  1  0
  1 27  1  0
  1 28  1  0
  2 29  1  0
  3 30  1  0
  3 31  1  0
  3 32  1  0
  4 33  1  0
  7 34  1  0
  7 35  1  0
  8 36  1  0
 11 37  1  0
 11 38  1  0
 12 39  1  0
 16 40  1  0
 17 41  1  0
 19 42  1  0
 22 43  1  0
 23 44  1  0
M  END
>  <smiles>  (19) 
CC(C)NC(=O)CNC(=O)CNC(=O)c1ccc2cc(Cl)ccc2n1

>  <score_type>  (19) 
oracle

>  <origin>  (19) 
autodockgpu

>  <m_score__min__energy>  (19) 
-7.6500000000000004

>  <m_primary>  (19) 
energy

>  <rmsd>  (19) 
3.69521708006837

>  <m_score__min__rmsd>  (19) 
3.69521708006837

>  <meeko>  (19) 
{"free_energy": -6.77, "intermolecular_energy": -8.56, "internal_energy": -2.45, "cluster_size": 9, "cluster_id": 2, "rank_in_cluster": 4}

>  <energy>  (19) 
-7.23

>  <cluster_rmsd>  (19) 
0.87

>  <cluster>  (19) 
1

$$$$

     RDKit          3D

 44 45  0  0  0  0  0  0  0  0999 V2000
  142.9260   80.1540  222.6950 C   0  0  0  0  0  0  0  0  0  0  0  0
  141.5830   79.4440  222.7880 C   0  0  0  0  0  0  0  0  0  0  0  0
  141.3910   79.0410  224.2280 C   0  0  0  0  0  0  0  0  0  0  0  0
  141.6170   78.2440  221.9730 N   0  0  0  0  0  0  0  0  0  0  0  0
  141.3900   78.2740  220.5870 C   0  0  0  0  0  0  0  0  0  0  0  0
  141.1550   79.4140  220.0690 O   0  0  0  0  0  0  0  0  0  0  0  0
  141.3990   77.1140  219.6820 C   0  0  0  0  0  0  0  0  0  0  0  0
  140.2860   76.2160  219.8650 N   0  0  0  0  0  0  0  0  0  0  0  0
  140.1800   75.4100  221.0280 C   0  0  0  0  0  0  0  0  0  0  0  0
  141.0160   75.4170  221.9680 O   0  0  0  0  0  0  0  0  0  0  0  0
  138.9930   74.5090  221.1140 C   0  0  0  0  0  0  0  0  0  0  0  0
  139.2430   73.5640  222.1830 N   0  0  0  0  0  0  0  0  0  0  0  0
  139.0270   72.1740  221.9760 C   0  0  0  0  0  0  0  0  0  0  0  0
  138.6190   71.6880  220.8890 O   0  0  0  0  0  0  0  0  0  0  0  0
  139.2990   71.2600  223.0990 C   0  0  0  0  0  0  0  0  0  0  0  0
  138.9300   69.9310  223.0310 C   0  0  0  0  0  0  0  0  0  0  0  0
  139.1880   69.0730  224.0900 C   0  0  0  0  0  0  0  0  0  0  0  0
  139.8110   69.5380  225.2160 C   0  0  0  0  0  0  0  0  0  0  0  0
  140.0940   68.7380  226.3000 C   0  0  0  0  0  0  0  0  0  0  0  0
  140.7280   69.2230  227.4420 C   0  0  0  0  0  0  0  0  0  0  0  0
  141.0640   68.1590  228.7930 Cl  0  0  0  0  0  0  0  0  0  0  0  0
  141.0800   70.5710  227.4630 C   0  0  0  0  0  0  0  0  0  0  0  0
  140.8060   71.4040  226.3780 C   0  0  0  0  0  0  0  0  0  0  0  0
  140.1720   70.8700  225.2670 C   0  0  0  0  0  0  0  0  0  0  0  0
  139.9130   71.6940  224.2240 N   0  0  0  0  0  0  0  0  0  0  0  0
  143.3056   80.3547  223.7078 H   0  0  0  0  0  0  0  0  0  0  0  0
  143.6413   79.5162  222.1550 H   0  0  0  0  0  0  0  0  0  0  0  0
  142.8018   81.1043  222.1550 H   0  0  0  0  0  0  0  0  0  0  0  0
  140.7704   80.0993  222.4411 H   0  0  0  0  0  0  0  0  0  0  0  0
  141.7703   79.8373  224.8853 H   0  0  0  0  0  0  0  0  0  0  0  0
  140.3205   78.8821  224.4247 H   0  0  0  0  0  0  0  0  0  0  0  0
  141.9421   78.1096  224.4247 H   0  0  0  0  0  0  0  0  0  0  0  0
  141.8270   77.3550  222.4550 H   0  0  0  0  0  0  0  0  0  0  0  0
  141.3778   77.4838  218.6462 H   0  0  0  0  0  0  0  0  0  0  0  0
  142.3098   76.5409  219.9100 H   0  0  0  0  0  0  0  0  0  0  0  0
  139.5540   76.1710  219.1140 H   0  0  0  0  0  0  0  0  0  0  0  0
  138.0900   75.0969  221.3354 H   0  0  0  0  0  0  0  0  0  0  0  0
  138.8342   73.9838  220.1606 H   0  0  0  0  0  0  0  0  0  0  0  0
  139.5840   73.9080  223.1070 H   0  0  0  0  0  0  0  0  0  0  0  0
  138.4274   69.5497  222.1299 H   0  0  0  0  0  0  0  0  0  0  0  0
  138.8910   68.0159  224.0244 H   0  0  0  0  0  0  0  0  0  0  0  0
  139.8089   67.6762  226.2632 H   0  0  0  0  0  0  0  0  0  0  0  0
  141.5822   70.9852  228.3497 H   0  0  0  0  0  0  0  0  0  0  0  0
  141.0884   72.4668  226.4037 H   0  0  0  0  0  0  0  0  0  0  0  0
  1  2  1  0
  2  3  1  0
  2  4  1  0
  4  5  1  0
  5  6  2  0
  5  7  1  0
  7  8  1  0
  8  9  1  0
  9 10  2  0
  9 11  1  0
 11 12  1  0
 12 13  1  0
 13 14  2  0
 13 15  1  0
 15 16  2  0
 16 17  1  0
 17 18  2  0
 18 19  1  0
 19 20  2  0
 20 21  1  0
 20 22  1  0
 22 23  2  0
 23 24  1  0
 24 25  2  0
 25 15  1  0
 24 18  1  0
  1 26  1  0
  1 27  1  0
  1 28  1  0
  2 29  1  0
  3 30  1  0
  3 31  1  0
  3 32  1  0
  4 33  1  0
  7 34  1  0
  7 35  1  0
  8 36  1  0
 11 37  1  0
 11 38  1  0
 12 39  1  0
 16 40  1  0
 17 41  1  0
 19 42  1  0
 22 43  1  0
 23 44  1  0
M  END
>  <smiles>  (20) 
CC(C)NC(=O)CNC(=O)CNC(=O)c1ccc2cc(Cl)ccc2n1

>  <score_type>  (20) 
oracle

>  <origin>  (20) 
autodockgpu

>  <m_score__min__energy>  (20) 
-7.6500000000000004

>  <m_primary>  (20) 
energy

>  <rmsd>  (20) 
1.181609452259244

>  <m_score__min__rmsd>  (20) 
1.181609452259244

>  <meeko>  (20) 
{"free_energy": -7.38, "intermolecular_energy": -9.17, "internal_energy": -2.4, "cluster_size": 38, "cluster_id": 1, "rank_in_cluster": 8}

>  <energy>  (20) 
-7.22

>  <cluster_rmsd>  (20) 
0.88

>  <cluster>  (20) 
1

$$$$

     RDKit          3D

 44 45  0  0  0  0  0  0  0  0999 V2000
  142.7510   80.2430  222.5220 C   0  0  0  0  0  0  0  0  0  0  0  0
  141.5220   79.3750  222.7590 C   0  0  0  0  0  0  0  0  0  0  0  0
  141.5140   79.0070  224.2210 C   0  0  0  0  0  0  0  0  0  0  0  0
  141.6350   78.1590  221.9770 N   0  0  0  0  0  0  0  0  0  0  0  0
  141.4080   78.1370  220.5910 C   0  0  0  0  0  0  0  0  0  0  0  0
  141.1010   79.2450  220.0430 O   0  0  0  0  0  0  0  0  0  0  0  0
  141.4930   76.9560  219.7170 C   0  0  0  0  0  0  0  0  0  0  0  0
  140.4050   76.0250  219.8780 N   0  0  0  0  0  0  0  0  0  0  0  0
  140.2480   75.2820  221.0770 C   0  0  0  0  0  0  0  0  0  0  0  0
  141.0170   75.3760  222.0680 O   0  0  0  0  0  0  0  0  0  0  0  0
  139.0920   74.3400  221.1370 C   0  0  0  0  0  0  0  0  0  0  0  0
  139.3440   73.4130  222.2210 N   0  0  0  0  0  0  0  0  0  0  0  0
  138.9540   72.0510  222.1050 C   0  0  0  0  0  0  0  0  0  0  0  0
  138.3840   71.5750  221.0890 O   0  0  0  0  0  0  0  0  0  0  0  0
  139.2370   71.1550  223.2390 C   0  0  0  0  0  0  0  0  0  0  0  0
  138.8860   69.8200  223.1870 C   0  0  0  0  0  0  0  0  0  0  0  0
  139.1530   68.9790  224.2570 C   0  0  0  0  0  0  0  0  0  0  0  0
  139.7690   69.4660  225.3780 C   0  0  0  0  0  0  0  0  0  0  0  0
  140.0620   68.6830  226.4720 C   0  0  0  0  0  0  0  0  0  0  0  0
  140.6890   69.1900  227.6080 C   0  0  0  0  0  0  0  0  0  0  0  0
  141.0370   68.1470  228.9720 Cl  0  0  0  0  0  0  0  0  0  0  0  0
  141.0230   70.5420  227.6130 C   0  0  0  0  0  0  0  0  0  0  0  0
  140.7390   71.3590  226.5170 C   0  0  0  0  0  0  0  0  0  0  0  0
  140.1130   70.8030  225.4120 C   0  0  0  0  0  0  0  0  0  0  0  0
  139.8450   71.6100  224.3590 N   0  0  0  0  0  0  0  0  0  0  0  0
  143.1787   80.5450  223.4894 H   0  0  0  0  0  0  0  0  0  0  0  0
  143.4991   79.6718  221.9527 H   0  0  0  0  0  0  0  0  0  0  0  0
  142.4628   81.1390  221.9527 H   0  0  0  0  0  0  0  0  0  0  0  0
  140.6046   79.9099  222.4723 H   0  0  0  0  0  0  0  0  0  0  0  0
  141.5339   79.9230  224.8298 H   0  0  0  0  0  0  0  0  0  0  0  0
  140.6032   78.4343  224.4500 H   0  0  0  0  0  0  0  0  0  0  0  0
  142.3991   78.3953  224.4500 H   0  0  0  0  0  0  0  0  0  0  0  0
  141.9020   77.2990  222.4830 H   0  0  0  0  0  0  0  0  0  0  0  0
  141.5018   77.2996  218.6721 H   0  0  0  0  0  0  0  0  0  0  0  0
  142.4124   76.4205  219.9961 H   0  0  0  0  0  0  0  0  0  0  0  0
  139.7280   75.9080  219.0850 H   0  0  0  0  0  0  0  0  0  0  0  0
  138.1627   74.8970  221.3271 H   0  0  0  0  0  0  0  0  0  0  0  0
  138.9798   73.8019  220.1842 H   0  0  0  0  0  0  0  0  0  0  0  0
  139.8150   73.7490  223.0890 H   0  0  0  0  0  0  0  0  0  0  0  0
  138.3907   69.4207  222.2896 H   0  0  0  0  0  0  0  0  0  0  0  0
  138.8689   67.9176  224.2046 H   0  0  0  0  0  0  0  0  0  0  0  0
  139.7908   67.6172  226.4481 H   0  0  0  0  0  0  0  0  0  0  0  0
  141.5188   70.9734  228.4951 H   0  0  0  0  0  0  0  0  0  0  0  0
  141.0074   72.4257  226.5300 H   0  0  0  0  0  0  0  0  0  0  0  0
  1  2  1  0
  2  3  1  0
  2  4  1  0
  4  5  1  0
  5  6  2  0
  5  7  1  0
  7  8  1  0
  8  9  1  0
  9 10  2  0
  9 11  1  0
 11 12  1  0
 12 13  1  0
 13 14  2  0
 13 15  1  0
 15 16  2  0
 16 17  1  0
 17 18  2  0
 18 19  1  0
 19 20  2  0
 20 21  1  0
 20 22  1  0
 22 23  2  0
 23 24  1  0
 24 25  2  0
 25 15  1  0
 24 18  1  0
  1 26  1  0
  1 27  1  0
  1 28  1  0
  2 29  1  0
  3 30  1  0
  3 31  1  0
  3 32  1  0
  4 33  1  0
  7 34  1  0
  7 35  1  0
  8 36  1  0
 11 37  1  0
 11 38  1  0
 12 39  1  0
 16 40  1  0
 17 41  1  0
 19 42  1  0
 22 43  1  0
 23 44  1  0
M  END
>  <smiles>  (21) 
CC(C)NC(=O)CNC(=O)CNC(=O)c1ccc2cc(Cl)ccc2n1

>  <score_type>  (21) 
oracle

>  <origin>  (21) 
autodockgpu

>  <m_score__min__energy>  (21) 
-7.6500000000000004

>  <m_primary>  (21) 
energy

>  <rmsd>  (21) 
1.1444919360967127

>  <m_score__min__rmsd>  (21) 
1.1444919360967127

>  <meeko>  (21) 
{"free_energy": -7.2, "intermolecular_energy": -8.99, "internal_energy": -2.52, "cluster_size": 38, "cluster_id": 1, "rank_in_cluster": 21}

>  <energy>  (21) 
-7.2

>  <cluster_rmsd>  (21) 
0.7

>  <cluster>  (21) 
1

$$$$

     RDKit          3D

 44 45  0  0  0  0  0  0  0  0999 V2000
  144.3790   73.7440  218.4740 C   0  0  0  0  0  0  0  0  0  0  0  0
  144.3730   74.4100  219.8430 C   0  0  0  0  0  0  0  0  0  0  0  0
  144.6250   73.3300  220.8640 C   0  0  0  0  0  0  0  0  0  0  0  0
  143.0650   74.9850  220.0910 N   0  0  0  0  0  0  0  0  0  0  0  0
  142.6010   76.1150  219.3970 C   0  0  0  0  0  0  0  0  0  0  0  0
  143.3850   76.6160  218.5270 O   0  0  0  0  0  0  0  0  0  0  0  0
  141.2970   76.7710  219.5820 C   0  0  0  0  0  0  0  0  0  0  0  0
  140.2030   75.8560  219.7950 N   0  0  0  0  0  0  0  0  0  0  0  0
  140.0560   75.1650  221.0260 C   0  0  0  0  0  0  0  0  0  0  0  0
  140.8370   75.2950  222.0030 O   0  0  0  0  0  0  0  0  0  0  0  0
  138.8940   74.2350  221.1390 C   0  0  0  0  0  0  0  0  0  0  0  0
  139.1770   73.3180  222.2240 N   0  0  0  0  0  0  0  0  0  0  0  0
  138.8400   71.9420  222.1060 C   0  0  0  0  0  0  0  0  0  0  0  0
  138.2930   71.4450  221.0880 O   0  0  0  0  0  0  0  0  0  0  0  0
  139.1510   71.0570  223.2420 C   0  0  0  0  0  0  0  0  0  0  0  0
  138.8220   69.7160  223.2020 C   0  0  0  0  0  0  0  0  0  0  0  0
  139.1170   68.8860  224.2720 C   0  0  0  0  0  0  0  0  0  0  0  0
  139.7390   69.3900  225.3830 C   0  0  0  0  0  0  0  0  0  0  0  0
  140.0590   68.6180  226.4770 C   0  0  0  0  0  0  0  0  0  0  0  0
  140.6910   69.1420  227.6020 C   0  0  0  0  0  0  0  0  0  0  0  0
  141.0750   68.1120  228.9680 Cl  0  0  0  0  0  0  0  0  0  0  0  0
  141.0030   70.4990  227.5950 C   0  0  0  0  0  0  0  0  0  0  0  0
  140.6910   71.3040  226.4990 C   0  0  0  0  0  0  0  0  0  0  0  0
  140.0610   70.7320  225.4050 C   0  0  0  0  0  0  0  0  0  0  0  0
  139.7660   71.5290  224.3520 N   0  0  0  0  0  0  0  0  0  0  0  0
  144.3888   72.6511  218.5980 H   0  0  0  0  0  0  0  0  0  0  0  0
  143.4781   74.0418  217.9174 H   0  0  0  0  0  0  0  0  0  0  0  0
  145.2744   74.0580  217.9174 H   0  0  0  0  0  0  0  0  0  0  0  0
  145.1359   75.2007  219.8961 H   0  0  0  0  0  0  0  0  0  0  0  0
  144.5267   73.7514  221.8753 H   0  0  0  0  0  0  0  0  0  0  0  0
  143.8915   72.5212  220.7309 H   0  0  0  0  0  0  0  0  0  0  0  0
  145.6408   72.9294  220.7309 H   0  0  0  0  0  0  0  0  0  0  0  0
  142.4750   74.5210  220.8000 H   0  0  0  0  0  0  0  0  0  0  0  0
  141.3658   77.4365  220.4551 H   0  0  0  0  0  0  0  0  0  0  0  0
  141.0798   77.3139  218.6503 H   0  0  0  0  0  0  0  0  0  0  0  0
  139.5160   75.7100  219.0150 H   0  0  0  0  0  0  0  0  0  0  0  0
  137.9775   74.8031  221.3563 H   0  0  0  0  0  0  0  0  0  0  0  0
  138.7419   73.6873  220.1973 H   0  0  0  0  0  0  0  0  0  0  0  0
  139.6310   73.6720  223.0940 H   0  0  0  0  0  0  0  0  0  0  0  0
  138.3217   69.3034  222.3135 H   0  0  0  0  0  0  0  0  0  0  0  0
  138.8508   67.8196  224.2287 H   0  0  0  0  0  0  0  0  0  0  0  0
  139.8062   67.5476  226.4620 H   0  0  0  0  0  0  0  0  0  0  0  0
  141.5036   70.9436  228.4678 H   0  0  0  0  0  0  0  0  0  0  0  0
  140.9409   72.3752  226.5031 H   0  0  0  0  0  0  0  0  0  0  0  0
  1  2  1  0
  2  3  1  0
  2  4  1  0
  4  5  1  0
  5  6  2  0
  5  7  1  0
  7  8  1  0
  8  9  1  0
  9 10  2  0
  9 11  1  0
 11 12  1  0
 12 13  1  0
 13 14  2  0
 13 15  1  0
 15 16  2  0
 16 17  1  0
 17 18  2  0
 18 19  1  0
 19 20  2  0
 20 21  1  0
 20 22  1  0
 22 23  2  0
 23 24  1  0
 24 25  2  0
 25 15  1  0
 24 18  1  0
  1 26  1  0
  1 27  1  0
  1 28  1  0
  2 29  1  0
  3 30  1  0
  3 31  1  0
  3 32  1  0
  4 33  1  0
  7 34  1  0
  7 35  1  0
  8 36  1  0
 11 37  1  0
 11 38  1  0
 12 39  1  0
 16 40  1  0
 17 41  1  0
 19 42  1  0
 22 43  1  0
 23 44  1  0
M  END
>  <smiles>  (22) 
CC(C)NC(=O)CNC(=O)CNC(=O)c1ccc2cc(Cl)ccc2n1

>  <score_type>  (22) 
oracle

>  <origin>  (22) 
autodockgpu

>  <m_score__min__energy>  (22) 
-7.6500000000000004

>  <m_primary>  (22) 
energy

>  <rmsd>  (22) 
3.6749200166950673

>  <m_score__min__rmsd>  (22) 
3.6749200166950673

>  <meeko>  (22) 
{"free_energy": -6.39, "intermolecular_energy": -8.18, "internal_energy": -2.52, "cluster_size": 38, "cluster_id": 1, "rank_in_cluster": 34}

>  <energy>  (22) 
-7.19

>  <cluster_rmsd>  (22) 
0.62

>  <cluster>  (22) 
1

$$$$

     RDKit          3D

 44 45  0  0  0  0  0  0  0  0999 V2000
  142.9830   79.9480  223.1000 C   0  0  0  0  0  0  0  0  0  0  0  0
  141.5900   79.5300  222.6500 C   0  0  0  0  0  0  0  0  0  0  0  0
  140.7690   79.3060  223.8940 C   0  0  0  0  0  0  0  0  0  0  0  0
  141.6760   78.2780  221.9210 N   0  0  0  0  0  0  0  0  0  0  0  0
  141.5480   78.2160  220.5240 C   0  0  0  0  0  0  0  0  0  0  0  0
  141.3560   79.3190  219.9160 O   0  0  0  0  0  0  0  0  0  0  0  0
  141.6160   76.9980  219.7000 C   0  0  0  0  0  0  0  0  0  0  0  0
  140.4990   76.1050  219.8790 N   0  0  0  0  0  0  0  0  0  0  0  0
  140.3490   75.3480  221.0700 C   0  0  0  0  0  0  0  0  0  0  0  0
  141.1490   75.3980  222.0400 O   0  0  0  0  0  0  0  0  0  0  0  0
  139.1620   74.4470  221.1490 C   0  0  0  0  0  0  0  0  0  0  0  0
  139.4000   73.5110  222.2280 N   0  0  0  0  0  0  0  0  0  0  0  0
  139.0180   72.1480  222.0920 C   0  0  0  0  0  0  0  0  0  0  0  0
  138.4670   71.6800  221.0620 O   0  0  0  0  0  0  0  0  0  0  0  0
  139.2850   71.2420  223.2220 C   0  0  0  0  0  0  0  0  0  0  0  0
  138.9210   69.9100  223.1590 C   0  0  0  0  0  0  0  0  0  0  0  0
  139.1740   69.0600  224.2240 C   0  0  0  0  0  0  0  0  0  0  0  0
  139.7880   69.5340  225.3520 C   0  0  0  0  0  0  0  0  0  0  0  0
  140.0670   68.7410  226.4430 C   0  0  0  0  0  0  0  0  0  0  0  0
  140.6920   69.2340  227.5850 C   0  0  0  0  0  0  0  0  0  0  0  0
  141.0230   68.1780  228.9450 Cl  0  0  0  0  0  0  0  0  0  0  0  0
  141.0400   70.5830  227.6010 C   0  0  0  0  0  0  0  0  0  0  0  0
  140.7700   71.4090  226.5100 C   0  0  0  0  0  0  0  0  0  0  0  0
  140.1450   70.8660  225.3970 C   0  0  0  0  0  0  0  0  0  0  0  0
  139.8910   71.6840  224.3480 N   0  0  0  0  0  0  0  0  0  0  0  0
  143.0249   79.9606  224.1991 H   0  0  0  0  0  0  0  0  0  0  0  0
  143.7235   79.2325  222.7130 H   0  0  0  0  0  0  0  0  0  0  0  0
  143.2072   80.9530  222.7130 H   0  0  0  0  0  0  0  0  0  0  0  0
  141.1415   80.2992  222.0041 H   0  0  0  0  0  0  0  0  0  0  0  0
  141.3951   79.4768  224.7822 H   0  0  0  0  0  0  0  0  0  0  0  0
  139.9200   80.0053  223.9038 H   0  0  0  0  0  0  0  0  0  0  0  0
  140.3928   78.2724  223.9038 H   0  0  0  0  0  0  0  0  0  0  0  0
  141.8470   77.4240  222.4750 H   0  0  0  0  0  0  0  0  0  0  0  0
  141.6529   77.2978  218.6423 H   0  0  0  0  0  0  0  0  0  0  0  0
  142.5153   76.4496  220.0170 H   0  0  0  0  0  0  0  0  0  0  0  0
  139.7960   76.0250  219.1040 H   0  0  0  0  0  0  0  0  0  0  0  0
  138.2560   75.0359  221.3550 H   0  0  0  0  0  0  0  0  0  0  0  0
  139.0148   73.9142  220.1980 H   0  0  0  0  0  0  0  0  0  0  0  0
  139.8540   73.8400  223.1070 H   0  0  0  0  0  0  0  0  0  0  0  0
  138.4266   69.5216  222.2564 H   0  0  0  0  0  0  0  0  0  0  0  0
  138.8806   68.0016  224.1627 H   0  0  0  0  0  0  0  0  0  0  0  0
  139.7854   67.6781  226.4107 H   0  0  0  0  0  0  0  0  0  0  0  0
  141.5357   71.0035  228.4884 H   0  0  0  0  0  0  0  0  0  0  0  0
  141.0480   72.4731  226.5318 H   0  0  0  0  0  0  0  0  0  0  0  0
  1  2  1  0
  2  3  1  0
  2  4  1  0
  4  5  1  0
  5  6  2  0
  5  7  1  0
  7  8  1  0
  8  9  1  0
  9 10  2  0
  9 11  1  0
 11 12  1  0
 12 13  1  0
 13 14  2  0
 13 15  1  0
 15 16  2  0
 16 17  1  0
 17 18  2  0
 18 19  1  0
 19 20  2  0
 20 21  1  0
 20 22  1  0
 22 23  2  0
 23 24  1  0
 24 25  2  0
 25 15  1  0
 24 18  1  0
  1 26  1  0
  1 27  1  0
  1 28  1  0
  2 29  1  0
  3 30  1  0
  3 31  1  0
  3 32  1  0
  4 33  1  0
  7 34  1  0
  7 35  1  0
  8 36  1  0
 11 37  1  0
 11 38  1  0
 12 39  1  0
 16 40  1  0
 17 41  1  0
 19 42  1  0
 22 43  1  0
 23 44  1  0
M  END
>  <smiles>  (23) 
CC(C)NC(=O)CNC(=O)CNC(=O)c1ccc2cc(Cl)ccc2n1

>  <score_type>  (23) 
oracle

>  <origin>  (23) 
autodockgpu

>  <m_score__min__energy>  (23) 
-7.6500000000000004

>  <m_primary>  (23) 
energy

>  <rmsd>  (23) 
1.166319699105666

>  <m_score__min__rmsd>  (23) 
1.166319699105666

>  <meeko>  (23) 
{"free_energy": -7.19, "intermolecular_energy": -8.98, "internal_energy": -2.49, "cluster_size": 38, "cluster_id": 1, "rank_in_cluster": 22}

>  <energy>  (23) 
-7.16

>  <cluster_rmsd>  (23) 
0.65

>  <cluster>  (23) 
1

$$$$

     RDKit          3D

 44 45  0  0  0  0  0  0  0  0999 V2000
  139.9830   79.5580  223.8220 C   0  0  0  0  0  0  0  0  0  0  0  0
  141.4080   79.0290  223.7250 C   0  0  0  0  0  0  0  0  0  0  0  0
  142.2970   80.2050  223.4050 C   0  0  0  0  0  0  0  0  0  0  0  0
  141.4930   78.0760  222.6350 N   0  0  0  0  0  0  0  0  0  0  0  0
  141.0970   78.3990  221.3260 C   0  0  0  0  0  0  0  0  0  0  0  0
  140.6600   79.5800  221.1340 O   0  0  0  0  0  0  0  0  0  0  0  0
  141.1410   77.5020  220.1600 C   0  0  0  0  0  0  0  0  0  0  0  0
  140.1540   76.4520  220.1880 N   0  0  0  0  0  0  0  0  0  0  0  0
  140.1700   75.4590  221.2020 C   0  0  0  0  0  0  0  0  0  0  0  0
  141.0150   75.4170  222.1320 O   0  0  0  0  0  0  0  0  0  0  0  0
  139.1080   74.4130  221.1330 C   0  0  0  0  0  0  0  0  0  0  0  0
  139.3550   73.4730  222.2070 N   0  0  0  0  0  0  0  0  0  0  0  0
  138.9940   72.1060  222.0610 C   0  0  0  0  0  0  0  0  0  0  0  0
  138.4550   71.6360  221.0260 O   0  0  0  0  0  0  0  0  0  0  0  0
  139.2700   71.1960  223.1870 C   0  0  0  0  0  0  0  0  0  0  0  0
  138.9000   69.8670  223.1260 C   0  0  0  0  0  0  0  0  0  0  0  0
  139.1610   69.0140  224.1870 C   0  0  0  0  0  0  0  0  0  0  0  0
  139.7900   69.4830  225.3090 C   0  0  0  0  0  0  0  0  0  0  0  0
  140.0770   68.6880  226.3950 C   0  0  0  0  0  0  0  0  0  0  0  0
  140.7170   69.1760  227.5320 C   0  0  0  0  0  0  0  0  0  0  0  0
  141.0580   68.1170  228.8860 Cl  0  0  0  0  0  0  0  0  0  0  0  0
  141.0700   70.5240  227.5460 C   0  0  0  0  0  0  0  0  0  0  0  0
  140.7920   71.3530  226.4580 C   0  0  0  0  0  0  0  0  0  0  0  0
  140.1520   70.8150  225.3520 C   0  0  0  0  0  0  0  0  0  0  0  0
  139.8900   71.6350  224.3070 N   0  0  0  0  0  0  0  0  0  0  0  0
  139.7019   79.6624  224.8803 H   0  0  0  0  0  0  0  0  0  0  0  0
  139.9216   80.5388  223.3279 H   0  0  0  0  0  0  0  0  0  0  0  0
  139.2964   78.8548  223.3279 H   0  0  0  0  0  0  0  0  0  0  0  0
  141.7079   78.5393  224.6632 H   0  0  0  0  0  0  0  0  0  0  0  0
  142.6457   80.6663  224.3407 H   0  0  0  0  0  0  0  0  0  0  0  0
  143.1632   79.8615  222.8205 H   0  0  0  0  0  0  0  0  0  0  0  0
  141.7303   80.9447  222.8205 H   0  0  0  0  0  0  0  0  0  0  0  0
  141.8700   77.1410  222.8570 H   0  0  0  0  0  0  0  0  0  0  0  0
  140.9787   78.1046  219.2542 H   0  0  0  0  0  0  0  0  0  0  0  0
  142.1258   77.0122  220.1735 H   0  0  0  0  0  0  0  0  0  0  0  0
  139.4200   76.4390  219.4380 H   0  0  0  0  0  0  0  0  0  0  0  0
  138.1173   74.8744  221.2577 H   0  0  0  0  0  0  0  0  0  0  0  0
  139.1280   73.9031  220.1585 H   0  0  0  0  0  0  0  0  0  0  0  0
  139.8010   73.8040  223.0900 H   0  0  0  0  0  0  0  0  0  0  0  0
  138.3941   69.4822  222.2283 H   0  0  0  0  0  0  0  0  0  0  0  0
  138.8619   67.9571  224.1273 H   0  0  0  0  0  0  0  0  0  0  0  0
  139.7900   67.6265  226.3641 H   0  0  0  0  0  0  0  0  0  0  0  0
  141.5760   70.9416  228.4289 H   0  0  0  0  0  0  0  0  0  0  0  0
  141.0760   72.4155  226.4777 H   0  0  0  0  0  0  0  0  0  0  0  0
  1  2  1  0
  2  3  1  0
  2  4  1  0
  4  5  1  0
  5  6  2  0
  5  7  1  0
  7  8  1  0
  8  9  1  0
  9 10  2  0
  9 11  1  0
 11 12  1  0
 12 13  1  0
 13 14  2  0
 13 15  1  0
 15 16  2  0
 16 17  1  0
 17 18  2  0
 18 19  1  0
 19 20  2  0
 20 21  1  0
 20 22  1  0
 22 23  2  0
 23 24  1  0
 24 25  2  0
 25 15  1  0
 24 18  1  0
  1 26  1  0
  1 27  1  0
  1 28  1  0
  2 29  1  0
  3 30  1  0
  3 31  1  0
  3 32  1  0
  4 33  1  0
  7 34  1  0
  7 35  1  0
  8 36  1  0
 11 37  1  0
 11 38  1  0
 12 39  1  0
 16 40  1  0
 17 41  1  0
 19 42  1  0
 22 43  1  0
 23 44  1  0
M  END
>  <smiles>  (24) 
CC(C)NC(=O)CNC(=O)CNC(=O)c1ccc2cc(Cl)ccc2n1

>  <score_type>  (24) 
oracle

>  <origin>  (24) 
autodockgpu

>  <m_score__min__energy>  (24) 
-7.6500000000000004

>  <m_primary>  (24) 
energy

>  <rmsd>  (24) 
1.6107599876418788

>  <m_score__min__rmsd>  (24) 
1.6107599876418788

>  <meeko>  (24) 
{"free_energy": -7.35, "intermolecular_energy": -9.14, "internal_energy": -2.42, "cluster_size": 38, "cluster_id": 1, "rank_in_cluster": 12}

>  <energy>  (24) 
-7.14

>  <cluster_rmsd>  (24) 
0.63

>  <cluster>  (24) 
1

$$$$

     RDKit          3D

 44 45  0  0  0  0  0  0  0  0999 V2000
  144.0910   73.6380  218.6030 C   0  0  0  0  0  0  0  0  0  0  0  0
  144.4230   74.6040  219.7320 C   0  0  0  0  0  0  0  0  0  0  0  0
  144.9700   73.7840  220.8730 C   0  0  0  0  0  0  0  0  0  0  0  0
  143.2070   75.2590  220.1760 N   0  0  0  0  0  0  0  0  0  0  0  0
  142.5160   76.1800  219.3710 C   0  0  0  0  0  0  0  0  0  0  0  0
  143.0060   76.4140  218.2190 O   0  0  0  0  0  0  0  0  0  0  0  0
  141.2830   76.8950  219.7340 C   0  0  0  0  0  0  0  0  0  0  0  0
  140.1580   76.0320  219.9980 N   0  0  0  0  0  0  0  0  0  0  0  0
  140.1470   75.1680  221.1240 C   0  0  0  0  0  0  0  0  0  0  0  0
  141.0840   75.0890  221.9600 O   0  0  0  0  0  0  0  0  0  0  0  0
  138.9390   74.3100  221.3000 C   0  0  0  0  0  0  0  0  0  0  0  0
  139.2160   73.3880  222.3820 N   0  0  0  0  0  0  0  0  0  0  0  0
  138.8250   72.0250  222.2800 C   0  0  0  0  0  0  0  0  0  0  0  0
  138.2350   71.5440  221.2780 O   0  0  0  0  0  0  0  0  0  0  0  0
  139.1330   71.1330  223.4110 C   0  0  0  0  0  0  0  0  0  0  0  0
  138.7450   69.8080  223.3910 C   0  0  0  0  0  0  0  0  0  0  0  0
  139.0370   68.9720  224.4580 C   0  0  0  0  0  0  0  0  0  0  0  0
  139.7150   69.4540  225.5450 C   0  0  0  0  0  0  0  0  0  0  0  0
  140.0340   68.6750  226.6340 C   0  0  0  0  0  0  0  0  0  0  0  0
  140.7240   69.1770  227.7350 C   0  0  0  0  0  0  0  0  0  0  0  0
  141.1040   68.1400  229.0950 Cl  0  0  0  0  0  0  0  0  0  0  0  0
  141.0950   70.5200  227.7090 C   0  0  0  0  0  0  0  0  0  0  0  0
  140.7840   71.3320  226.6180 C   0  0  0  0  0  0  0  0  0  0  0  0
  140.0950   70.7810  225.5480 C   0  0  0  0  0  0  0  0  0  0  0  0
  139.8020   71.5840  224.4980 N   0  0  0  0  0  0  0  0  0  0  0  0
  143.7611   72.6781  219.0269 H   0  0  0  0  0  0  0  0  0  0  0  0
  143.2866   74.0609  217.9832 H   0  0  0  0  0  0  0  0  0  0  0  0
  144.9854   73.4771  217.9832 H   0  0  0  0  0  0  0  0  0  0  0  0
  145.1463   75.3621  219.3970 H   0  0  0  0  0  0  0  0  0  0  0  0
  144.6675   74.2375  221.8284 H   0  0  0  0  0  0  0  0  0  0  0  0
  144.5736   72.7597  220.8115 H   0  0  0  0  0  0  0  0  0  0  0  0
  146.0679   73.7566  220.8115 H   0  0  0  0  0  0  0  0  0  0  0  0
  142.8570   75.0120  221.1160 H   0  0  0  0  0  0  0  0  0  0  0  0
  141.4818   77.4897  220.6378 H   0  0  0  0  0  0  0  0  0  0  0  0
  141.0100   77.5163  218.8683 H   0  0  0  0  0  0  0  0  0  0  0  0
  139.3450   76.0580  219.3360 H   0  0  0  0  0  0  0  0  0  0  0  0
  138.0683   74.9336  221.5512 H   0  0  0  0  0  0  0  0  0  0  0  0
  138.7126   73.7635  220.3726 H   0  0  0  0  0  0  0  0  0  0  0  0
  139.7040   73.7280  223.2380 H   0  0  0  0  0  0  0  0  0  0  0  0
  138.1997   69.4124  222.5214 H   0  0  0  0  0  0  0  0  0  0  0  0
  138.7228   67.9182  224.4308 H   0  0  0  0  0  0  0  0  0  0  0  0
  139.7329   67.6170  226.6349 H   0  0  0  0  0  0  0  0  0  0  0  0
  141.6420   70.9468  228.5626 H   0  0  0  0  0  0  0  0  0  0  0  0
  141.0803   72.3913  226.6067 H   0  0  0  0  0  0  0  0  0  0  0  0
  1  2  1  0
  2  3  1  0
  2  4  1  0
  4  5  1  0
  5  6  2  0
  5  7  1  0
  7  8  1  0
  8  9  1  0
  9 10  2  0
  9 11  1  0
 11 12  1  0
 12 13  1  0
 13 14  2  0
 13 15  1  0
 15 16  2  0
 16 17  1  0
 17 18  2  0
 18 19  1  0
 19 20  2  0
 20 21  1  0
 20 22  1  0
 22 23  2  0
 23 24  1  0
 24 25  2  0
 25 15  1  0
 24 18  1  0
  1 26  1  0
  1 27  1  0
  1 28  1  0
  2 29  1  0
  3 30  1  0
  3 31  1  0
  3 32  1  0
  4 33  1  0
  7 34  1  0
  7 35  1  0
  8 36  1  0
 11 37  1  0
 11 38  1  0
 12 39  1  0
 16 40  1  0
 17 41  1  0
 19 42  1  0
 22 43  1  0
 23 44  1  0
M  END
>  <smiles>  (25) 
CC(C)NC(=O)CNC(=O)CNC(=O)c1ccc2cc(Cl)ccc2n1

>  <score_type>  (25) 
oracle

>  <origin>  (25) 
autodockgpu

>  <m_score__min__energy>  (25) 
-7.6500000000000004

>  <m_primary>  (25) 
energy

>  <rmsd>  (25) 
3.647955976492198

>  <m_score__min__rmsd>  (25) 
3.647955976492198

>  <meeko>  (25) 
{"free_energy": -6.54, "intermolecular_energy": -8.33, "internal_energy": -2.5, "cluster_size": 38, "cluster_id": 1, "rank_in_cluster": 31}

>  <energy>  (25) 
-7.14

>  <cluster_rmsd>  (25) 
1.48

>  <cluster>  (25) 
1

$$$$

     RDKit          3D

 44 45  0  0  0  0  0  0  0  0999 V2000
  139.9870   79.5110  223.8500 C   0  0  0  0  0  0  0  0  0  0  0  0
  141.4040   78.9650  223.7380 C   0  0  0  0  0  0  0  0  0  0  0  0
  142.3070   80.1320  223.4290 C   0  0  0  0  0  0  0  0  0  0  0  0
  141.4700   78.0250  222.6350 N   0  0  0  0  0  0  0  0  0  0  0  0
  141.0760   78.3720  221.3320 C   0  0  0  0  0  0  0  0  0  0  0  0
  140.6590   79.5630  221.1570 O   0  0  0  0  0  0  0  0  0  0  0  0
  141.1030   77.4900  220.1540 C   0  0  0  0  0  0  0  0  0  0  0  0
  140.1250   76.4310  220.1900 N   0  0  0  0  0  0  0  0  0  0  0  0
  140.1900   75.4070  221.1710 C   0  0  0  0  0  0  0  0  0  0  0  0
  141.0730   75.3440  222.0650 O   0  0  0  0  0  0  0  0  0  0  0  0
  139.1340   74.3550  221.1140 C   0  0  0  0  0  0  0  0  0  0  0  0
  139.3980   73.4180  222.1870 N   0  0  0  0  0  0  0  0  0  0  0  0
  138.9070   72.0860  222.1120 C   0  0  0  0  0  0  0  0  0  0  0  0
  138.2350   71.6460  221.1430 O   0  0  0  0  0  0  0  0  0  0  0  0
  139.2060   71.1770  223.2320 C   0  0  0  0  0  0  0  0  0  0  0  0
  138.8520   69.8440  223.1730 C   0  0  0  0  0  0  0  0  0  0  0  0
  139.1350   68.9910  224.2290 C   0  0  0  0  0  0  0  0  0  0  0  0
  139.7710   69.4660  225.3450 C   0  0  0  0  0  0  0  0  0  0  0  0
  140.0800   68.6710  226.4260 C   0  0  0  0  0  0  0  0  0  0  0  0
  140.7260   69.1650  227.5560 C   0  0  0  0  0  0  0  0  0  0  0  0
  141.0960   68.1080  228.9040 Cl  0  0  0  0  0  0  0  0  0  0  0  0
  141.0640   70.5170  227.5690 C   0  0  0  0  0  0  0  0  0  0  0  0
  140.7630   71.3450  226.4870 C   0  0  0  0  0  0  0  0  0  0  0  0
  140.1180   70.8010  225.3870 C   0  0  0  0  0  0  0  0  0  0  0  0
  139.8340   71.6200  224.3470 N   0  0  0  0  0  0  0  0  0  0  0  0
  139.7170   79.6151  224.9113 H   0  0  0  0  0  0  0  0  0  0  0  0
  139.9331   80.4943  223.3598 H   0  0  0  0  0  0  0  0  0  0  0  0
  139.2873   78.8181  223.3598 H   0  0  0  0  0  0  0  0  0  0  0  0
  141.7025   78.4594  224.6682 H   0  0  0  0  0  0  0  0  0  0  0  0
  142.6567   80.5840  224.3689 H   0  0  0  0  0  0  0  0  0  0  0  0
  143.1719   79.7821  222.8463 H   0  0  0  0  0  0  0  0  0  0  0  0
  141.7513   80.8814  222.8463 H   0  0  0  0  0  0  0  0  0  0  0  0
  141.8320   77.0810  222.8440 H   0  0  0  0  0  0  0  0  0  0  0  0
  140.9166   78.1023  219.2594 H   0  0  0  0  0  0  0  0  0  0  0  0
  142.0920   77.0086  220.1402 H   0  0  0  0  0  0  0  0  0  0  0  0
  139.3610   76.4340  219.4710 H   0  0  0  0  0  0  0  0  0  0  0  0
  138.1418   74.8105  221.2482 H   0  0  0  0  0  0  0  0  0  0  0  0
  139.1468   73.8440  220.1400 H   0  0  0  0  0  0  0  0  0  0  0  0
  139.9510   73.7250  223.0160 H   0  0  0  0  0  0  0  0  0  0  0  0
  138.3408   69.4549  222.2801 H   0  0  0  0  0  0  0  0  0  0  0  0
  138.8481   67.9307  224.1702 H   0  0  0  0  0  0  0  0  0  0  0  0
  139.8063   67.6060  226.3956 H   0  0  0  0  0  0  0  0  0  0  0  0
  141.5764   70.9382  228.4465 H   0  0  0  0  0  0  0  0  0  0  0  0
  141.0329   72.4112  226.5065 H   0  0  0  0  0  0  0  0  0  0  0  0
  1  2  1  0
  2  3  1  0
  2  4  1  0
  4  5  1  0
  5  6  2  0
  5  7  1  0
  7  8  1  0
  8  9  1  0
  9 10  2  0
  9 11  1  0
 11 12  1  0
 12 13  1  0
 13 14  2  0
 13 15  1  0
 15 16  2  0
 16 17  1  0
 17 18  2  0
 18 19  1  0
 19 20  2  0
 20 21  1  0
 20 22  1  0
 22 23  2  0
 23 24  1  0
 24 25  2  0
 25 15  1  0
 24 18  1  0
  1 26  1  0
  1 27  1  0
  1 28  1  0
  2 29  1  0
  3 30  1  0
  3 31  1  0
  3 32  1  0
  4 33  1  0
  7 34  1  0
  7 35  1  0
  8 36  1  0
 11 37  1  0
 11 38  1  0
 12 39  1  0
 16 40  1  0
 17 41  1  0
 19 42  1  0
 22 43  1  0
 23 44  1  0
M  END
>  <smiles>  (26) 
CC(C)NC(=O)CNC(=O)CNC(=O)c1ccc2cc(Cl)ccc2n1

>  <score_type>  (26) 
oracle

>  <origin>  (26) 
autodockgpu

>  <m_score__min__energy>  (26) 
-7.6500000000000004

>  <m_primary>  (26) 
energy

>  <rmsd>  (26) 
1.6166162535088853

>  <m_score__min__rmsd>  (26) 
1.6166162535088853

>  <meeko>  (26) 
{"free_energy": -7.23, "intermolecular_energy": -9.02, "internal_energy": -2.46, "cluster_size": 38, "cluster_id": 1, "rank_in_cluster": 19}

>  <energy>  (26) 
-7.02

>  <cluster_rmsd>  (26) 
1.38

>  <cluster>  (26) 
1

$$$$

     RDKit          3D

 44 45  0  0  0  0  0  0  0  0999 V2000
  142.8750   80.1640  223.0340 C   0  0  0  0  0  0  0  0  0  0  0  0
  141.5940   79.6650  222.3790 C   0  0  0  0  0  0  0  0  0  0  0  0
  140.5510   79.5630  223.4630 C   0  0  0  0  0  0  0  0  0  0  0  0
  141.8200   78.3420  221.8300 N   0  0  0  0  0  0  0  0  0  0  0  0
  141.6890   78.0690  220.4580 C   0  0  0  0  0  0  0  0  0  0  0  0
  141.3640   79.0460  219.7080 O   0  0  0  0  0  0  0  0  0  0  0  0
  141.8920   76.7640  219.8100 C   0  0  0  0  0  0  0  0  0  0  0  0
  140.7660   75.8700  219.9210 N   0  0  0  0  0  0  0  0  0  0  0  0
  140.1730   75.5920  221.1800 C   0  0  0  0  0  0  0  0  0  0  0  0
  140.5640   76.0900  222.2670 O   0  0  0  0  0  0  0  0  0  0  0  0
  139.0190   74.6470  221.1850 C   0  0  0  0  0  0  0  0  0  0  0  0
  139.2550   73.6790  222.2350 N   0  0  0  0  0  0  0  0  0  0  0  0
  139.1390   72.2870  221.9670 C   0  0  0  0  0  0  0  0  0  0  0  0
  138.8350   71.8200  220.8390 O   0  0  0  0  0  0  0  0  0  0  0  0
  139.3920   71.3490  223.0740 C   0  0  0  0  0  0  0  0  0  0  0  0
  139.0710   70.0110  222.9510 C   0  0  0  0  0  0  0  0  0  0  0  0
  139.3100   69.1310  223.9960 C   0  0  0  0  0  0  0  0  0  0  0  0
  139.8680   69.5810  225.1620 C   0  0  0  0  0  0  0  0  0  0  0  0
  140.1300   68.7580  226.2340 C   0  0  0  0  0  0  0  0  0  0  0  0
  140.6970   69.2280  227.4160 C   0  0  0  0  0  0  0  0  0  0  0  0
  141.0090   68.1340  228.7490 Cl  0  0  0  0  0  0  0  0  0  0  0  0
  141.0040   70.5850  227.4910 C   0  0  0  0  0  0  0  0  0  0  0  0
  140.7490   71.4420  226.4200 C   0  0  0  0  0  0  0  0  0  0  0  0
  140.1820   70.9210  225.2660 C   0  0  0  0  0  0  0  0  0  0  0  0
  139.9420   71.7680  224.2370 N   0  0  0  0  0  0  0  0  0  0  0  0
  142.7678   80.1222  224.1280 H   0  0  0  0  0  0  0  0  0  0  0  0
  143.7173   79.5282  222.7236 H   0  0  0  0  0  0  0  0  0  0  0  0
  143.0653   81.2020  222.7236 H   0  0  0  0  0  0  0  0  0  0  0  0
  141.2756   80.3453  221.5754 H   0  0  0  0  0  0  0  0  0  0  0  0
  141.0394   79.6108  224.4475 H   0  0  0  0  0  0  0  0  0  0  0  0
  139.8389   80.3958  223.3662 H   0  0  0  0  0  0  0  0  0  0  0  0
  140.0137   78.6080  223.3662 H   0  0  0  0  0  0  0  0  0  0  0  0
  142.0950   77.5990  222.4930 H   0  0  0  0  0  0  0  0  0  0  0  0
  142.0925   76.9360  218.7422 H   0  0  0  0  0  0  0  0  0  0  0  0
  142.7333   76.2802  220.3278 H   0  0  0  0  0  0  0  0  0  0  0  0
  140.3930   75.4280  219.0450 H   0  0  0  0  0  0  0  0  0  0  0  0
  138.0856   75.1948  221.3818 H   0  0  0  0  0  0  0  0  0  0  0  0
  138.9236   74.1463  220.2102 H   0  0  0  0  0  0  0  0  0  0  0  0
  139.5120   74.0060  223.1920 H   0  0  0  0  0  0  0  0  0  0  0  0
  138.6225   69.6408  222.0173 H   0  0  0  0  0  0  0  0  0  0  0  0
  139.0502   68.0677  223.8874 H   0  0  0  0  0  0  0  0  0  0  0  0
  139.8823   67.6893  226.1540 H   0  0  0  0  0  0  0  0  0  0  0  0
  141.4550   70.9874  228.4101 H   0  0  0  0  0  0  0  0  0  0  0  0
  140.9933   72.5123  226.4894 H   0  0  0  0  0  0  0  0  0  0  0  0
  1  2  1  0
  2  3  1  0
  2  4  1  0
  4  5  1  0
  5  6  2  0
  5  7  1  0
  7  8  1  0
  8  9  1  0
  9 10  2  0
  9 11  1  0
 11 12  1  0
 12 13  1  0
 13 14  2  0
 13 15  1  0
 15 16  2  0
 16 17  1  0
 17 18  2  0
 18 19  1  0
 19 20  2  0
 20 21  1  0
 20 22  1  0
 22 23  2  0
 23 24  1  0
 24 25  2  0
 25 15  1  0
 24 18  1  0
  1 26  1  0
  1 27  1  0
  1 28  1  0
  2 29  1  0
  3 30  1  0
  3 31  1  0
  3 32  1  0
  4 33  1  0
  7 34  1  0
  7 35  1  0
  8 36  1  0
 11 37  1  0
 11 38  1  0
 12 39  1  0
 16 40  1  0
 17 41  1  0
 19 42  1  0
 22 43  1  0
 23 44  1  0
M  END
>  <smiles>  (27) 
CC(C)NC(=O)CNC(=O)CNC(=O)c1ccc2cc(Cl)ccc2n1

>  <score_type>  (27) 
oracle

>  <origin>  (27) 
autodockgpu

>  <m_score__min__energy>  (27) 
-7.6500000000000004

>  <m_primary>  (27) 
energy

>  <rmsd>  (27) 
1.179390761573734

>  <m_score__min__rmsd>  (27) 
1.179390761573734

>  <meeko>  (27) 
{"free_energy": -7.33, "intermolecular_energy": -9.12, "internal_energy": -2.17, "cluster_size": 38, "cluster_id": 1, "rank_in_cluster": 14}

>  <energy>  (27) 
-6.97

>  <cluster_rmsd>  (27) 
0.78

>  <cluster>  (27) 
1

$$$$

     RDKit          3D

 44 45  0  0  0  0  0  0  0  0999 V2000
  141.8070   81.1110  221.8100 C   0  0  0  0  0  0  0  0  0  0  0  0
  141.7850   80.3390  223.1220 C   0  0  0  0  0  0  0  0  0  0  0  0
  142.9560   80.8200  223.9400 C   0  0  0  0  0  0  0  0  0  0  0  0
  141.9610   78.9250  222.8500 N   0  0  0  0  0  0  0  0  0  0  0  0
  140.8730   78.0460  222.7250 C   0  0  0  0  0  0  0  0  0  0  0  0
  139.7100   78.5510  222.8570 O   0  0  0  0  0  0  0  0  0  0  0  0
  140.9510   76.6010  222.4560 C   0  0  0  0  0  0  0  0  0  0  0  0
  139.6850   75.9960  222.1240 N   0  0  0  0  0  0  0  0  0  0  0  0
  139.5800   74.5990  221.8950 C   0  0  0  0  0  0  0  0  0  0  0  0
  140.5480   73.7990  221.9660 O   0  0  0  0  0  0  0  0  0  0  0  0
  138.2250   74.0760  221.5500 C   0  0  0  0  0  0  0  0  0  0  0  0
  137.2910   74.6210  222.5120 N   0  0  0  0  0  0  0  0  0  0  0  0
  136.6760   75.8810  222.2790 C   0  0  0  0  0  0  0  0  0  0  0  0
  136.8920   76.5830  221.2570 O   0  0  0  0  0  0  0  0  0  0  0  0
  135.7330   76.3860  223.2920 C   0  0  0  0  0  0  0  0  0  0  0  0
  135.2910   77.6940  223.2550 C   0  0  0  0  0  0  0  0  0  0  0  0
  134.4040   78.1660  224.2110 C   0  0  0  0  0  0  0  0  0  0  0  0
  133.9580   77.3360  225.2040 C   0  0  0  0  0  0  0  0  0  0  0  0
  133.0780   77.7440  226.1810 C   0  0  0  0  0  0  0  0  0  0  0  0
  132.6300   76.8910  227.1870 C   0  0  0  0  0  0  0  0  0  0  0  0
  131.5090   77.4640  228.4060 Cl  0  0  0  0  0  0  0  0  0  0  0  0
  133.1040   75.5810  227.1820 C   0  0  0  0  0  0  0  0  0  0  0  0
  133.9960   75.1410  226.2040 C   0  0  0  0  0  0  0  0  0  0  0  0
  134.4100   76.0320  225.2250 C   0  0  0  0  0  0  0  0  0  0  0  0
  135.2760   75.5870  224.2850 N   0  0  0  0  0  0  0  0  0  0  0  0
  141.8378   82.1903  222.0201 H   0  0  0  0  0  0  0  0  0  0  0  0
  142.6974   80.8247  221.2310 H   0  0  0  0  0  0  0  0  0  0  0  0
  140.9018   80.8758  221.2310 H   0  0  0  0  0  0  0  0  0  0  0  0
  140.8328   80.4940  223.6505 H   0  0  0  0  0  0  0  0  0  0  0  0
  142.7202   80.7232  225.0101 H   0  0  0  0  0  0  0  0  0  0  0  0
  143.8424   80.2132  223.7035 H   0  0  0  0  0  0  0  0  0  0  0  0
  143.1599   81.8747  223.7035 H   0  0  0  0  0  0  0  0  0  0  0  0
  142.9310   78.5850  222.7410 H   0  0  0  0  0  0  0  0  0  0  0  0
  141.6411   76.4429  221.6141 H   0  0  0  0  0  0  0  0  0  0  0  0
  141.2978   76.1233  223.3842 H   0  0  0  0  0  0  0  0  0  0  0  0
  138.8400   76.6140  222.0550 H   0  0  0  0  0  0  0  0  0  0  0  0
  137.9469   74.3942  220.5344 H   0  0  0  0  0  0  0  0  0  0  0  0
  138.2147   72.9764  221.5797 H   0  0  0  0  0  0  0  0  0  0  0  0
  137.0700   74.0850  223.3790 H   0  0  0  0  0  0  0  0  0  0  0  0
  135.6455   78.3671  222.4605 H   0  0  0  0  0  0  0  0  0  0  0  0
  134.0582   79.2095  224.1712 H   0  0  0  0  0  0  0  0  0  0  0  0
  132.7151   78.7823  226.1667 H   0  0  0  0  0  0  0  0  0  0  0  0
  132.7692   74.8818  227.9625 H   0  0  0  0  0  0  0  0  0  0  0  0
  134.3649   74.1047  226.2091 H   0  0  0  0  0  0  0  0  0  0  0  0
  1  2  1  0
  2  3  1  0
  2  4  1  0
  4  5  1  0
  5  6  2  0
  5  7  1  0
  7  8  1  0
  8  9  1  0
  9 10  2  0
  9 11  1  0
 11 12  1  0
 12 13  1  0
 13 14  2  0
 13 15  1  0
 15 16  2  0
 16 17  1  0
 17 18  2  0
 18 19  1  0
 19 20  2  0
 20 21  1  0
 20 22  1  0
 22 23  2  0
 23 24  1  0
 24 25  2  0
 25 15  1  0
 24 18  1  0
  1 26  1  0
  1 27  1  0
  1 28  1  0
  2 29  1  0
  3 30  1  0
  3 31  1  0
  3 32  1  0
  4 33  1  0
  7 34  1  0
  7 35  1  0
  8 36  1  0
 11 37  1  0
 11 38  1  0
 12 39  1  0
 16 40  1  0
 17 41  1  0
 19 42  1  0
 22 43  1  0
 23 44  1  0
M  END
>  <smiles>  (28) 
CC(C)NC(=O)CNC(=O)CNC(=O)c1ccc2cc(Cl)ccc2n1

>  <score_type>  (28) 
oracle

>  <origin>  (28) 
autodockgpu

>  <m_score__min__energy>  (28) 
-7.6500000000000004

>  <m_primary>  (28) 
energy

>  <rmsd>  (28) 
6.423629702695471

>  <m_score__min__rmsd>  (28) 
6.423629702695471

>  <meeko>  (28) 
{"free_energy": -5.95, "intermolecular_energy": -7.74, "internal_energy": -2.58, "cluster_size": 1, "cluster_id": 5, "rank_in_cluster": 1}

>  <energy>  (28) 
-6.92

>  <cluster_rmsd>  (28) 
0.72

>  <cluster>  (28) 
1

$$$$

     RDKit          3D

 44 45  0  0  0  0  0  0  0  0999 V2000
  142.9570   80.0560  223.0130 C   0  0  0  0  0  0  0  0  0  0  0  0
  141.5750   79.5900  222.5760 C   0  0  0  0  0  0  0  0  0  0  0  0
  140.7650   79.3650  223.8270 C   0  0  0  0  0  0  0  0  0  0  0  0
  141.6950   78.3280  221.8700 N   0  0  0  0  0  0  0  0  0  0  0  0
  141.5910   78.2400  220.4720 C   0  0  0  0  0  0  0  0  0  0  0  0
  141.3900   79.3290  219.8430 O   0  0  0  0  0  0  0  0  0  0  0  0
  141.6940   77.0100  219.6700 C   0  0  0  0  0  0  0  0  0  0  0  0
  140.5760   76.1130  219.8240 N   0  0  0  0  0  0  0  0  0  0  0  0
  140.3430   75.4370  221.0500 C   0  0  0  0  0  0  0  0  0  0  0  0
  141.0650   75.5640  222.0720 O   0  0  0  0  0  0  0  0  0  0  0  0
  139.1630   74.5240  221.0990 C   0  0  0  0  0  0  0  0  0  0  0  0
  139.3930   73.5760  222.1700 N   0  0  0  0  0  0  0  0  0  0  0  0
  139.0860   72.2000  221.9870 C   0  0  0  0  0  0  0  0  0  0  0  0
  138.6110   71.7290  220.9210 O   0  0  0  0  0  0  0  0  0  0  0  0
  139.3410   71.2830  223.1110 C   0  0  0  0  0  0  0  0  0  0  0  0
  138.9600   69.9570  223.0390 C   0  0  0  0  0  0  0  0  0  0  0  0
  139.2020   69.0960  224.0990 C   0  0  0  0  0  0  0  0  0  0  0  0
  139.8220   69.5540  225.2300 C   0  0  0  0  0  0  0  0  0  0  0  0
  140.0900   68.7500  226.3150 C   0  0  0  0  0  0  0  0  0  0  0  0
  140.7210   69.2270  227.4610 C   0  0  0  0  0  0  0  0  0  0  0  0
  141.0380   68.1580  228.8130 Cl  0  0  0  0  0  0  0  0  0  0  0  0
  141.0860   70.5710  227.4860 C   0  0  0  0  0  0  0  0  0  0  0  0
  140.8270   71.4080  226.4000 C   0  0  0  0  0  0  0  0  0  0  0  0
  140.1960   70.8810  225.2840 C   0  0  0  0  0  0  0  0  0  0  0  0
  139.9520   71.7090  224.2410 N   0  0  0  0  0  0  0  0  0  0  0  0
  143.0078   80.0731  224.1117 H   0  0  0  0  0  0  0  0  0  0  0  0
  143.7178   79.3647  222.6215 H   0  0  0  0  0  0  0  0  0  0  0  0
  143.1439   81.0668  222.6215 H   0  0  0  0  0  0  0  0  0  0  0  0
  141.1022   80.3340  221.9180 H   0  0  0  0  0  0  0  0  0  0  0  0
  141.3973   79.5406  224.7098 H   0  0  0  0  0  0  0  0  0  0  0  0
  139.9129   80.0604  223.8421 H   0  0  0  0  0  0  0  0  0  0  0  0
  140.3936   78.3297  223.8421 H   0  0  0  0  0  0  0  0  0  0  0  0
  141.8720   77.4860  222.4410 H   0  0  0  0  0  0  0  0  0  0  0  0
  141.7660   77.2937  218.6097 H   0  0  0  0  0  0  0  0  0  0  0  0
  142.5846   76.4718  220.0266 H   0  0  0  0  0  0  0  0  0  0  0  0
  139.9360   75.9700  219.0050 H   0  0  0  0  0  0  0  0  0  0  0  0
  138.2485   75.1019  221.2983 H   0  0  0  0  0  0  0  0  0  0  0  0
  139.0355   74.0022  220.1391 H   0  0  0  0  0  0  0  0  0  0  0  0
  139.7870   73.9080  223.0770 H   0  0  0  0  0  0  0  0  0  0  0  0
  138.4608   69.5811  222.1338 H   0  0  0  0  0  0  0  0  0  0  0  0
  138.8948   68.0420  224.0306 H   0  0  0  0  0  0  0  0  0  0  0  0
  139.7946   67.6912  226.2751 H   0  0  0  0  0  0  0  0  0  0  0  0
  141.5866   70.9792  228.3764 H   0  0  0  0  0  0  0  0  0  0  0  0
  141.1187   72.4682  226.4290 H   0  0  0  0  0  0  0  0  0  0  0  0
  1  2  1  0
  2  3  1  0
  2  4  1  0
  4  5  1  0
  5  6  2  0
  5  7  1  0
  7  8  1  0
  8  9  1  0
  9 10  2  0
  9 11  1  0
 11 12  1  0
 12 13  1  0
 13 14  2  0
 13 15  1  0
 15 16  2  0
 16 17  1  0
 17 18  2  0
 18 19  1  0
 19 20  2  0
 20 21  1  0
 20 22  1  0
 22 23  2  0
 23 24  1  0
 24 25  2  0
 25 15  1  0
 24 18  1  0
  1 26  1  0
  1 27  1  0
  1 28  1  0
  2 29  1  0
  3 30  1  0
  3 31  1  0
  3 32  1  0
  4 33  1  0
  7 34  1  0
  7 35  1  0
  8 36  1  0
 11 37  1  0
 11 38  1  0
 12 39  1  0
 16 40  1  0
 17 41  1  0
 19 42  1  0
 22 43  1  0
 23 44  1  0
M  END
>  <smiles>  (29) 
CC(C)NC(=O)CNC(=O)CNC(=O)c1ccc2cc(Cl)ccc2n1

>  <score_type>  (29) 
oracle

>  <origin>  (29) 
autodockgpu

>  <m_score__min__energy>  (29) 
-7.6500000000000004

>  <m_primary>  (29) 
energy

>  <rmsd>  (29) 
1.18789079968204

>  <m_score__min__rmsd>  (29) 
1.18789079968204

>  <meeko>  (29) 
{"free_energy": -7.31, "intermolecular_energy": -9.1, "internal_energy": -2.47, "cluster_size": 38, "cluster_id": 1, "rank_in_cluster": 17}

>  <energy>  (29) 
-6.63

>  <cluster_rmsd>  (29) 
1.31

>  <cluster>  (29) 
1

$$$$

     RDKit          3D

 44 45  0  0  0  0  0  0  0  0999 V2000
  142.6010   79.3660  223.1000 C   0  0  0  0  0  0  0  0  0  0  0  0
  141.4350   79.9680  222.3270 C   0  0  0  0  0  0  0  0  0  0  0  0
  141.1030   81.2860  222.9800 C   0  0  0  0  0  0  0  0  0  0  0  0
  140.2830   79.0950  222.4380 N   0  0  0  0  0  0  0  0  0  0  0  0
  139.1870   79.1870  221.5640 C   0  0  0  0  0  0  0  0  0  0  0  0
  139.2520   80.0780  220.6550 O   0  0  0  0  0  0  0  0  0  0  0  0
  137.9760   78.3520  221.5990 C   0  0  0  0  0  0  0  0  0  0  0  0
  138.1630   77.0220  221.0740 N   0  0  0  0  0  0  0  0  0  0  0  0
  139.0420   76.1030  221.7030 C   0  0  0  0  0  0  0  0  0  0  0  0
  139.7040   76.3610  222.7410 O   0  0  0  0  0  0  0  0  0  0  0  0
  139.1690   74.7560  221.0730 C   0  0  0  0  0  0  0  0  0  0  0  0
  139.3550   73.7950  222.1400 N   0  0  0  0  0  0  0  0  0  0  0  0
  139.3520   72.4010  221.8580 C   0  0  0  0  0  0  0  0  0  0  0  0
  139.1930   71.9260  220.7030 O   0  0  0  0  0  0  0  0  0  0  0  0
  139.5470   71.4700  222.9820 C   0  0  0  0  0  0  0  0  0  0  0  0
  139.1840   70.1420  222.8690 C   0  0  0  0  0  0  0  0  0  0  0  0
  139.3690   69.2680  223.9300 C   0  0  0  0  0  0  0  0  0  0  0  0
  139.9140   69.7160  225.1030 C   0  0  0  0  0  0  0  0  0  0  0  0
  140.1230   68.8990  226.1910 C   0  0  0  0  0  0  0  0  0  0  0  0
  140.6790   69.3650  227.3800 C   0  0  0  0  0  0  0  0  0  0  0  0
  140.9230   68.2800  228.7350 Cl  0  0  0  0  0  0  0  0  0  0  0  0
  141.0290   70.7120  227.4460 C   0  0  0  0  0  0  0  0  0  0  0  0
  140.8280   71.5620  226.3580 C   0  0  0  0  0  0  0  0  0  0  0  0
  140.2710   71.0460  225.1980 C   0  0  0  0  0  0  0  0  0  0  0  0
  140.0840   71.8860  224.1530 N   0  0  0  0  0  0  0  0  0  0  0  0
  142.4140   79.4625  224.1797 H   0  0  0  0  0  0  0  0  0  0  0  0
  142.7035   78.3023  222.8393 H   0  0  0  0  0  0  0  0  0  0  0  0
  143.5276   79.8984  222.8393 H   0  0  0  0  0  0  0  0  0  0  0  0
  141.6950   80.0967  221.2659 H   0  0  0  0  0  0  0  0  0  0  0  0
  141.1320   81.1710  224.0736 H   0  0  0  0  0  0  0  0  0  0  0  0
  141.8384   82.0436  222.6714 H   0  0  0  0  0  0  0  0  0  0  0  0
  140.0965   81.6049  222.6714 H   0  0  0  0  0  0  0  0  0  0  0  0
  140.3020   78.3850  223.1880 H   0  0  0  0  0  0  0  0  0  0  0  0
  137.6448   78.2674  222.6445 H   0  0  0  0  0  0  0  0  0  0  0  0
  137.2318   78.8451  220.9564 H   0  0  0  0  0  0  0  0  0  0  0  0
  137.6320   76.7490  220.2110 H   0  0  0  0  0  0  0  0  0  0  0  0
  138.2561   74.5179  220.5074 H   0  0  0  0  0  0  0  0  0  0  0  0
  140.0195   74.7318  220.3758 H   0  0  0  0  0  0  0  0  0  0  0  0
  139.4940   74.1290  223.1180 H   0  0  0  0  0  0  0  0  0  0  0  0
  138.7446   69.7746  221.9299 H   0  0  0  0  0  0  0  0  0  0  0  0
  139.0771   68.2123  223.8286 H   0  0  0  0  0  0  0  0  0  0  0  0
  139.8403   67.8384  226.1187 H   0  0  0  0  0  0  0  0  0  0  0  0
  141.4709   71.1117  228.3707 H   0  0  0  0  0  0  0  0  0  0  0  0
  141.1069   72.6243  226.4196 H   0  0  0  0  0  0  0  0  0  0  0  0
  1  2  1  0
  2  3  1  0
  2  4  1  0
  4  5  1  0
  5  6  2  0
  5  7  1  0
  7  8  1  0
  8  9  1  0
  9 10  2  0
  9 11  1  0
 11 12  1  0
 12 13  1  0
 13 14  2  0
 13 15  1  0
 15 16  2  0
 16 17  1  0
 17 18  2  0
 18 19  1  0
 19 20  2  0
 20 21  1  0
 20 22  1  0
 22 23  2  0
 23 24  1  0
 24 25  2  0
 25 15  1  0
 24 18  1  0
  1 26  1  0
  1 27  1  0
  1 28  1  0
  2 29  1  0
  3 30  1  0
  3 31  1  0
  3 32  1  0
  4 33  1  0
  7 34  1  0
  7 35  1  0
  8 36  1  0
 11 37  1  0
 11 38  1  0
 12 39  1  0
 16 40  1  0
 17 41  1  0
 19 42  1  0
 22 43  1  0
 23 44  1  0
M  END
>  <smiles>  (30) 
CC(C)NC(=O)CNC(=O)CNC(=O)c1ccc2cc(Cl)ccc2n1

>  <score_type>  (30) 
oracle

>  <origin>  (30) 
autodockgpu

>  <m_score__min__energy>  (30) 
-7.6500000000000004

>  <m_primary>  (30) 
energy

>  <rmsd>  (30) 
1.7384998108536585

>  <m_score__min__rmsd>  (30) 
1.7384998108536585

>  <meeko>  (30) 
{"free_energy": -6.37, "intermolecular_energy": -8.16, "internal_energy": -2.45, "cluster_size": 38, "cluster_id": 1, "rank_in_cluster": 37}

>  <energy>  (30) 
-6.6

>  <cluster_rmsd>  (30) 
1.28

>  <cluster>  (30) 
1

$$$$

     RDKit          3D

 44 45  0  0  0  0  0  0  0  0999 V2000
  142.6900   80.3120  223.5050 C   0  0  0  0  0  0  0  0  0  0  0  0
  141.4690   79.7400  222.7980 C   0  0  0  0  0  0  0  0  0  0  0  0
  140.4660   79.3800  223.8650 C   0  0  0  0  0  0  0  0  0  0  0  0
  141.8460   78.5310  222.0920 N   0  0  0  0  0  0  0  0  0  0  0  0
  141.8100   78.4410  220.6910 C   0  0  0  0  0  0  0  0  0  0  0  0
  141.4330   79.4810  220.0590 O   0  0  0  0  0  0  0  0  0  0  0  0
  142.1680   77.2610  219.8880 C   0  0  0  0  0  0  0  0  0  0  0  0
  141.1500   76.2400  219.8560 N   0  0  0  0  0  0  0  0  0  0  0  0
  140.7340   75.5850  221.0440 C   0  0  0  0  0  0  0  0  0  0  0  0
  141.1980   75.8350  222.1860 O   0  0  0  0  0  0  0  0  0  0  0  0
  139.6800   74.5380  220.9000 C   0  0  0  0  0  0  0  0  0  0  0  0
  139.8790   73.5730  221.9610 N   0  0  0  0  0  0  0  0  0  0  0  0
  139.0930   72.3890  222.0100 C   0  0  0  0  0  0  0  0  0  0  0  0
  138.2040   72.1090  221.1650 O   0  0  0  0  0  0  0  0  0  0  0  0
  139.3400   71.4430  223.1120 C   0  0  0  0  0  0  0  0  0  0  0  0
  138.9550   70.1210  223.0060 C   0  0  0  0  0  0  0  0  0  0  0  0
  139.1890   69.2340  224.0460 C   0  0  0  0  0  0  0  0  0  0  0  0
  139.8060   69.6620  225.1910 C   0  0  0  0  0  0  0  0  0  0  0  0
  140.0660   68.8310  226.2570 C   0  0  0  0  0  0  0  0  0  0  0  0
  140.6940   69.2780  227.4170 C   0  0  0  0  0  0  0  0  0  0  0  0
  141.0010   68.1760  228.7440 Cl  0  0  0  0  0  0  0  0  0  0  0  0
  141.0640   70.6200  227.4760 C   0  0  0  0  0  0  0  0  0  0  0  0
  140.8130   71.4840  226.4100 C   0  0  0  0  0  0  0  0  0  0  0  0
  140.1840   70.9870  225.2780 C   0  0  0  0  0  0  0  0  0  0  0  0
  139.9480   71.8400  224.2540 N   0  0  0  0  0  0  0  0  0  0  0  0
  142.5479   80.2454  224.5938 H   0  0  0  0  0  0  0  0  0  0  0  0
  143.5831   79.7386  223.2160 H   0  0  0  0  0  0  0  0  0  0  0  0
  142.8211   81.3652  223.2160 H   0  0  0  0  0  0  0  0  0  0  0  0
  141.0550   80.4668  222.0836 H   0  0  0  0  0  0  0  0  0  0  0  0
  140.9128   79.5404  224.8573 H   0  0  0  0  0  0  0  0  0  0  0  0
  139.5734   80.0139  223.7580 H   0  0  0  0  0  0  0  0  0  0  0  0
  140.1802   78.3232  223.7580 H   0  0  0  0  0  0  0  0  0  0  0  0
  142.1550   77.7290  222.6660 H   0  0  0  0  0  0  0  0  0  0  0  0
  142.3595   77.5904  218.8561 H   0  0  0  0  0  0  0  0  0  0  0  0
  143.0533   76.8116  220.3615 H   0  0  0  0  0  0  0  0  0  0  0  0
  140.7220   75.9920  218.9310 H   0  0  0  0  0  0  0  0  0  0  0  0
  138.6828   74.9939  220.9888 H   0  0  0  0  0  0  0  0  0  0  0  0
  139.7480   74.0518  219.9156 H   0  0  0  0  0  0  0  0  0  0  0  0
  140.6030   73.7500  222.6910 H   0  0  0  0  0  0  0  0  0  0  0  0
  138.4589   69.7689  222.0895 H   0  0  0  0  0  0  0  0  0  0  0  0
  138.8779   68.1832  223.9508 H   0  0  0  0  0  0  0  0  0  0  0  0
  139.7667   67.7746  226.1903 H   0  0  0  0  0  0  0  0  0  0  0  0
  141.5623   71.0045  228.3781 H   0  0  0  0  0  0  0  0  0  0  0  0
  141.1090   72.5419  226.4662 H   0  0  0  0  0  0  0  0  0  0  0  0
  1  2  1  0
  2  3  1  0
  2  4  1  0
  4  5  1  0
  5  6  2  0
  5  7  1  0
  7  8  1  0
  8  9  1  0
  9 10  2  0
  9 11  1  0
 11 12  1  0
 12 13  1  0
 13 14  2  0
 13 15  1  0
 15 16  2  0
 16 17  1  0
 17 18  2  0
 18 19  1  0
 19 20  2  0
 20 21  1  0
 20 22  1  0
 22 23  2  0
 23 24  1  0
 24 25  2  0
 25 15  1  0
 24 18  1  0
  1 26  1  0
  1 27  1  0
  1 28  1  0
  2 29  1  0
  3 30  1  0
  3 31  1  0
  3 32  1  0
  4 33  1  0
  7 34  1  0
  7 35  1  0
  8 36  1  0
 11 37  1  0
 11 38  1  0
 12 39  1  0
 16 40  1  0
 17 41  1  0
 19 42  1  0
 22 43  1  0
 23 44  1  0
M  END
>  <smiles>  (31) 
CC(C)NC(=O)CNC(=O)CNC(=O)c1ccc2cc(Cl)ccc2n1

>  <score_type>  (31) 
oracle

>  <origin>  (31) 
autodockgpu

>  <m_score__min__energy>  (31) 
-7.6500000000000004

>  <m_primary>  (31) 
energy

>  <rmsd>  (31) 
1.3771042162860236

>  <m_score__min__rmsd>  (31) 
1.3771042162860236

>  <meeko>  (31) 
{"free_energy": -6.92, "intermolecular_energy": -8.71, "internal_energy": -2.48, "cluster_size": 38, "cluster_id": 1, "rank_in_cluster": 28}

>  <energy>  (31) 
-6.54

>  <cluster_rmsd>  (31) 
1.81

>  <cluster>  (31) 
1

$$$$

     RDKit          3D

 44 45  0  0  0  0  0  0  0  0999 V2000
  133.9600   71.1480  227.4100 C   0  0  0  0  0  0  0  0  0  0  0  0
  133.0080   71.4350  226.2570 C   0  0  0  0  0  0  0  0  0  0  0  0
  132.7680   70.1280  225.5440 C   0  0  0  0  0  0  0  0  0  0  0  0
  133.6390   72.3560  225.3310 N   0  0  0  0  0  0  0  0  0  0  0  0
  133.8950   73.6960  225.6680 C   0  0  0  0  0  0  0  0  0  0  0  0
  133.5500   74.0700  226.8360 O   0  0  0  0  0  0  0  0  0  0  0  0
  134.5240   74.7030  224.7990 C   0  0  0  0  0  0  0  0  0  0  0  0
  135.6010   74.1910  223.9890 N   0  0  0  0  0  0  0  0  0  0  0  0
  135.3430   73.3610  222.8670 C   0  0  0  0  0  0  0  0  0  0  0  0
  134.1910   73.0190  222.4950 O   0  0  0  0  0  0  0  0  0  0  0  0
  136.5300   72.8780  222.1020 C   0  0  0  0  0  0  0  0  0  0  0  0
  137.6100   73.8110  222.3430 N   0  0  0  0  0  0  0  0  0  0  0  0
  137.4900   75.1680  221.9370 C   0  0  0  0  0  0  0  0  0  0  0  0
  136.4720   75.6340  221.3620 O   0  0  0  0  0  0  0  0  0  0  0  0
  138.6210   76.0720  222.2090 C   0  0  0  0  0  0  0  0  0  0  0  0
  139.9180   75.6770  221.9460 C   0  0  0  0  0  0  0  0  0  0  0  0
  140.9800   76.5310  222.2030 C   0  0  0  0  0  0  0  0  0  0  0  0
  140.7520   77.7770  222.7220 C   0  0  0  0  0  0  0  0  0  0  0  0
  141.7630   78.6690  222.9990 C   0  0  0  0  0  0  0  0  0  0  0  0
  141.5190   79.9340  223.5280 C   0  0  0  0  0  0  0  0  0  0  0  0
  142.8450   81.0310  223.8610 Cl  0  0  0  0  0  0  0  0  0  0  0  0
  140.1940   80.2870  223.7760 C   0  0  0  0  0  0  0  0  0  0  0  0
  139.1500   79.4020  223.5040 C   0  0  0  0  0  0  0  0  0  0  0  0
  139.4490   78.1540  222.9790 C   0  0  0  0  0  0  0  0  0  0  0  0
  138.4230   77.3090  222.7220 N   0  0  0  0  0  0  0  0  0  0  0  0
  133.4373   71.3056  228.3650 H   0  0  0  0  0  0  0  0  0  0  0  0
  134.3060   70.1056  227.3490 H   0  0  0  0  0  0  0  0  0  0  0  0
  134.8245   71.8255  227.3490 H   0  0  0  0  0  0  0  0  0  0  0  0
  132.0688   71.8730  226.6259 H   0  0  0  0  0  0  0  0  0  0  0  0
  132.6211   69.3279  226.2845 H   0  0  0  0  0  0  0  0  0  0  0  0
  131.8706   70.2136  224.9137 H   0  0  0  0  0  0  0  0  0  0  0  0
  133.6373   69.8891  224.9137 H   0  0  0  0  0  0  0  0  0  0  0  0
  133.9060   71.9830  224.4060 H   0  0  0  0  0  0  0  0  0  0  0  0
  133.7527   75.1120  224.1298 H   0  0  0  0  0  0  0  0  0  0  0  0
  134.9598   75.4657  225.4611 H   0  0  0  0  0  0  0  0  0  0  0  0
  136.5850   74.4470  224.2490 H   0  0  0  0  0  0  0  0  0  0  0  0
  136.8167   71.8738  222.4476 H   0  0  0  0  0  0  0  0  0  0  0  0
  136.3013   72.8182  221.0277 H   0  0  0  0  0  0  0  0  0  0  0  0
  138.4800   73.4840  222.8180 H   0  0  0  0  0  0  0  0  0  0  0  0
  140.1101   74.6772  221.5294 H   0  0  0  0  0  0  0  0  0  0  0  0
  142.0089   76.2061  221.9891 H   0  0  0  0  0  0  0  0  0  0  0  0
  142.8022   78.3717  222.7950 H   0  0  0  0  0  0  0  0  0  0  0  0
  139.9674   81.2794  224.1929 H   0  0  0  0  0  0  0  0  0  0  0  0
  138.1071   79.6897  223.7028 H   0  0  0  0  0  0  0  0  0  0  0  0
  1  2  1  0
  2  3  1  0
  2  4  1  0
  4  5  1  0
  5  6  2  0
  5  7  1  0
  7  8  1  0
  8  9  1  0
  9 10  2  0
  9 11  1  0
 11 12  1  0
 12 13  1  0
 13 14  2  0
 13 15  1  0
 15 16  2  0
 16 17  1  0
 17 18  2  0
 18 19  1  0
 19 20  2  0
 20 21  1  0
 20 22  1  0
 22 23  2  0
 23 24  1  0
 24 25  2  0
 25 15  1  0
 24 18  1  0
  1 26  1  0
  1 27  1  0
  1 28  1  0
  2 29  1  0
  3 30  1  0
  3 31  1  0
  3 32  1  0
  4 33  1  0
  7 34  1  0
  7 35  1  0
  8 36  1  0
 11 37  1  0
 11 38  1  0
 12 39  1  0
 16 40  1  0
 17 41  1  0
 19 42  1  0
 22 43  1  0
 23 44  1  0
M  END
>  <smiles>  (32) 
CC(C)NC(=O)CNC(=O)CNC(=O)c1ccc2cc(Cl)ccc2n1

>  <score_type>  (32) 
oracle

>  <origin>  (32) 
autodockgpu

>  <m_score__min__energy>  (32) 
-7.6500000000000004

>  <m_primary>  (32) 
energy

>  <rmsd>  (32) 
9.072772204250878

>  <m_score__min__rmsd>  (32) 
9.072772204250878

>  <meeko>  (32) 
{"free_energy": -6.45, "intermolecular_energy": -8.24, "internal_energy": -1.82, "cluster_size": 1, "cluster_id": 3, "rank_in_cluster": 1}

>  <energy>  (32) 
-6.53

>  <cluster_rmsd>  (32) 
1.23

>  <cluster>  (32) 
1

$$$$

     RDKit          3D

 44 45  0  0  0  0  0  0  0  0999 V2000
  143.7250   71.7090  220.8760 C   0  0  0  0  0  0  0  0  0  0  0  0
  144.3120   72.9870  220.2930 C   0  0  0  0  0  0  0  0  0  0  0  0
  145.4160   73.4310  221.2190 C   0  0  0  0  0  0  0  0  0  0  0  0
  143.2910   74.0160  220.2650 N   0  0  0  0  0  0  0  0  0  0  0  0
  143.2110   74.9620  219.2300 C   0  0  0  0  0  0  0  0  0  0  0  0
  144.0810   74.8740  218.3040 O   0  0  0  0  0  0  0  0  0  0  0  0
  142.2170   76.0420  219.1170 C   0  0  0  0  0  0  0  0  0  0  0  0
  140.8890   75.6640  219.5290 N   0  0  0  0  0  0  0  0  0  0  0  0
  140.5700   75.4860  220.9010 C   0  0  0  0  0  0  0  0  0  0  0  0
  141.3920   75.6450  221.8400 O   0  0  0  0  0  0  0  0  0  0  0  0
  139.1680   75.0860  221.2190 C   0  0  0  0  0  0  0  0  0  0  0  0
  139.2310   74.0520  222.2300 N   0  0  0  0  0  0  0  0  0  0  0  0
  140.0840   72.9280  222.0550 C   0  0  0  0  0  0  0  0  0  0  0  0
  140.8160   72.7620  221.0450 O   0  0  0  0  0  0  0  0  0  0  0  0
  140.1070   71.9080  223.1170 C   0  0  0  0  0  0  0  0  0  0  0  0
  139.6580   70.6250  222.8720 C   0  0  0  0  0  0  0  0  0  0  0  0
  139.6810   69.6670  223.8750 C   0  0  0  0  0  0  0  0  0  0  0  0
  140.1500   69.9860  225.1210 C   0  0  0  0  0  0  0  0  0  0  0  0
  140.1990   69.0810  226.1570 C   0  0  0  0  0  0  0  0  0  0  0  0
  140.6770   69.4170  227.4210 C   0  0  0  0  0  0  0  0  0  0  0  0
  140.7170   68.2240  228.7040 Cl  0  0  0  0  0  0  0  0  0  0  0  0
  141.1190   70.7230  227.6190 C   0  0  0  0  0  0  0  0  0  0  0  0
  141.0820   71.6610  226.5860 C   0  0  0  0  0  0  0  0  0  0  0  0
  140.5950   71.2730  225.3470 C   0  0  0  0  0  0  0  0  0  0  0  0
  140.5650   72.1970  224.3570 N   0  0  0  0  0  0  0  0  0  0  0  0
  143.7494   71.7621  221.9745 H   0  0  0  0  0  0  0  0  0  0  0  0
  142.6846   71.5956  220.5374 H   0  0  0  0  0  0  0  0  0  0  0  0
  144.3169   70.8459  220.5374 H   0  0  0  0  0  0  0  0  0  0  0  0
  144.6852   72.8151  219.2726 H   0  0  0  0  0  0  0  0  0  0  0  0
  145.0935   73.3013  222.2626 H   0  0  0  0  0  0  0  0  0  0  0  0
  146.3151   72.8245  221.0349 H   0  0  0  0  0  0  0  0  0  0  0  0
  145.6448   74.4911  221.0349 H   0  0  0  0  0  0  0  0  0  0  0  0
  142.6080   74.0210  221.0400 H   0  0  0  0  0  0  0  0  0  0  0  0
  142.5474   76.8828  219.7447 H   0  0  0  0  0  0  0  0  0  0  0  0
  142.1554   76.3066  218.0511 H   0  0  0  0  0  0  0  0  0  0  0  0
  140.1590   75.5210  218.7890 H   0  0  0  0  0  0  0  0  0  0  0  0
  138.6076   75.9519  221.6013 H   0  0  0  0  0  0  0  0  0  0  0  0
  138.6557   74.7173  220.3181 H   0  0  0  0  0  0  0  0  0  0  0  0
  138.6470   74.1350  223.0910 H   0  0  0  0  0  0  0  0  0  0  0  0
  139.2792   70.3608  221.8736 H   0  0  0  0  0  0  0  0  0  0  0  0
  139.3214   68.6481  223.6686 H   0  0  0  0  0  0  0  0  0  0  0  0
  139.8474   68.0539  225.9798 H   0  0  0  0  0  0  0  0  0  0  0  0
  141.5036   71.0201  228.6058 H   0  0  0  0  0  0  0  0  0  0  0  0
  141.4331   72.6902  226.7519 H   0  0  0  0  0  0  0  0  0  0  0  0
  1  2  1  0
  2  3  1  0
  2  4  1  0
  4  5  1  0
  5  6  2  0
  5  7  1  0
  7  8  1  0
  8  9  1  0
  9 10  2  0
  9 11  1  0
 11 12  1  0
 12 13  1  0
 13 14  2  0
 13 15  1  0
 15 16  2  0
 16 17  1  0
 17 18  2  0
 18 19  1  0
 19 20  2  0
 20 21  1  0
 20 22  1  0
 22 23  2  0
 23 24  1  0
 24 25  2  0
 25 15  1  0
 24 18  1  0
  1 26  1  0
  1 27  1  0
  1 28  1  0
  2 29  1  0
  3 30  1  0
  3 31  1  0
  3 32  1  0
  4 33  1  0
  7 34  1  0
  7 35  1  0
  8 36  1  0
 11 37  1  0
 11 38  1  0
 12 39  1  0
 16 40  1  0
 17 41  1  0
 19 42  1  0
 22 43  1  0
 23 44  1  0
M  END
>  <smiles>  (33) 
CC(C)NC(=O)CNC(=O)CNC(=O)c1ccc2cc(Cl)ccc2n1

>  <score_type>  (33) 
oracle

>  <origin>  (33) 
autodockgpu

>  <m_score__min__energy>  (33) 
-7.6500000000000004

>  <m_primary>  (33) 
energy

>  <rmsd>  (33) 
4.2131680857281815

>  <m_score__min__rmsd>  (33) 
4.2131680857281815

>  <meeko>  (33) 
{"free_energy": -6.54, "intermolecular_energy": -8.33, "internal_energy": -2.75, "cluster_size": 9, "cluster_id": 2, "rank_in_cluster": 7}

>  <energy>  (33) 
-6.51

>  <cluster_rmsd>  (33) 
0.87

>  <cluster>  (33) 
1

$$$$

     RDKit          3D

 44 45  0  0  0  0  0  0  0  0999 V2000
  142.2760   79.7840  223.8270 C   0  0  0  0  0  0  0  0  0  0  0  0
  141.2220   79.5150  222.7620 C   0  0  0  0  0  0  0  0  0  0  0  0
  139.9460   79.1550  223.4800 C   0  0  0  0  0  0  0  0  0  0  0  0
  141.6330   78.3820  221.9550 N   0  0  0  0  0  0  0  0  0  0  0  0
  141.7370   78.4580  220.5560 C   0  0  0  0  0  0  0  0  0  0  0  0
  141.4560   79.5790  220.0210 O   0  0  0  0  0  0  0  0  0  0  0  0
  142.1400   77.3660  219.6550 C   0  0  0  0  0  0  0  0  0  0  0  0
  141.1840   76.2890  219.5720 N   0  0  0  0  0  0  0  0  0  0  0  0
  140.9780   75.4080  220.6650 C   0  0  0  0  0  0  0  0  0  0  0  0
  141.5870   75.4930  221.7620 O   0  0  0  0  0  0  0  0  0  0  0  0
  139.9730   74.3220  220.4720 C   0  0  0  0  0  0  0  0  0  0  0  0
  140.0780   73.4270  221.6050 N   0  0  0  0  0  0  0  0  0  0  0  0
  139.2410   72.2810  221.6940 C   0  0  0  0  0  0  0  0  0  0  0  0
  138.3840   71.9770  220.8240 O   0  0  0  0  0  0  0  0  0  0  0  0
  139.3930   71.4060  222.8690 C   0  0  0  0  0  0  0  0  0  0  0  0
  138.8240   70.1480  222.8900 C   0  0  0  0  0  0  0  0  0  0  0  0
  138.9690   69.3270  223.9980 C   0  0  0  0  0  0  0  0  0  0  0  0
  139.6800   69.7580  225.0860 C   0  0  0  0  0  0  0  0  0  0  0  0
  139.8600   68.9920  226.2150 C   0  0  0  0  0  0  0  0  0  0  0  0
  140.5850   69.4410  227.3160 C   0  0  0  0  0  0  0  0  0  0  0  0
  140.7830   68.4220  228.7280 Cl  0  0  0  0  0  0  0  0  0  0  0  0
  141.1410   70.7170  227.2470 C   0  0  0  0  0  0  0  0  0  0  0  0
  140.9750   71.5150  226.1140 C   0  0  0  0  0  0  0  0  0  0  0  0
  140.2430   71.0180  225.0470 C   0  0  0  0  0  0  0  0  0  0  0  0
  140.0910   71.8070  223.9570 N   0  0  0  0  0  0  0  0  0  0  0  0
  141.8269   79.6694  224.8246 H   0  0  0  0  0  0  0  0  0  0  0  0
  143.1035   79.0682  223.7130 H   0  0  0  0  0  0  0  0  0  0  0  0
  142.6593   80.8087  223.7130 H   0  0  0  0  0  0  0  0  0  0  0  0
  141.0870   80.3948  222.1157 H   0  0  0  0  0  0  0  0  0  0  0  0
  140.1110   79.2016  224.5666 H   0  0  0  0  0  0  0  0  0  0  0  0
  139.1542   79.8648  223.1986 H   0  0  0  0  0  0  0  0  0  0  0  0
  139.6419   78.1360  223.1986 H   0  0  0  0  0  0  0  0  0  0  0  0
  141.8600   77.5070  222.4550 H   0  0  0  0  0  0  0  0  0  0  0  0
  142.2789   77.7833  218.6467 H   0  0  0  0  0  0  0  0  0  0  0  0
  143.0653   76.9382  220.0684 H   0  0  0  0  0  0  0  0  0  0  0  0
  140.6420   76.1720  218.6810 H   0  0  0  0  0  0  0  0  0  0  0  0
  138.9611   74.7506  220.4243 H   0  0  0  0  0  0  0  0  0  0  0  0
  140.1611   73.7819  219.5324 H   0  0  0  0  0  0  0  0  0  0  0  0
  140.7720   73.6260  222.3580 H   0  0  0  0  0  0  0  0  0  0  0  0
  138.2508   69.7942  222.0204 H   0  0  0  0  0  0  0  0  0  0  0  0
  138.5116   68.3266  224.0030 H   0  0  0  0  0  0  0  0  0  0  0  0
  139.4143   67.9869  226.2491 H   0  0  0  0  0  0  0  0  0  0  0  0
  141.7202   71.1016  228.0994 H   0  0  0  0  0  0  0  0  0  0  0  0
  141.4175   72.5211  226.0686 H   0  0  0  0  0  0  0  0  0  0  0  0
  1  2  1  0
  2  3  1  0
  2  4  1  0
  4  5  1  0
  5  6  2  0
  5  7  1  0
  7  8  1  0
  8  9  1  0
  9 10  2  0
  9 11  1  0
 11 12  1  0
 12 13  1  0
 13 14  2  0
 13 15  1  0
 15 16  2  0
 16 17  1  0
 17 18  2  0
 18 19  1  0
 19 20  2  0
 20 21  1  0
 20 22  1  0
 22 23  2  0
 23 24  1  0
 24 25  2  0
 25 15  1  0
 24 18  1  0
  1 26  1  0
  1 27  1  0
  1 28  1  0
  2 29  1  0
  3 30  1  0
  3 31  1  0
  3 32  1  0
  4 33  1  0
  7 34  1  0
  7 35  1  0
  8 36  1  0
 11 37  1  0
 11 38  1  0
 12 39  1  0
 16 40  1  0
 17 41  1  0
 19 42  1  0
 22 43  1  0
 23 44  1  0
M  END
>  <smiles>  (34) 
CC(C)NC(=O)CNC(=O)CNC(=O)c1ccc2cc(Cl)ccc2n1

>  <score_type>  (34) 
oracle

>  <origin>  (34) 
autodockgpu

>  <m_score__min__energy>  (34) 
-7.6500000000000004

>  <m_primary>  (34) 
energy

>  <rmsd>  (34) 
1.4662326829293861

>  <m_score__min__rmsd>  (34) 
1.4662326829293861

>  <meeko>  (34) 
{"free_energy": -6.51, "intermolecular_energy": -8.3, "internal_energy": -2.6, "cluster_size": 38, "cluster_id": 1, "rank_in_cluster": 33}

>  <energy>  (34) 
-6.39

>  <cluster_rmsd>  (34) 
1.81

>  <cluster>  (34) 
1

$$$$

     RDKit          3D

 44 45  0  0  0  0  0  0  0  0999 V2000
  139.9630   71.7840  228.7280 C   0  0  0  0  0  0  0  0  0  0  0  0
  140.9040   71.2220  227.6710 C   0  0  0  0  0  0  0  0  0  0  0  0
  141.7570   72.3660  227.1820 C   0  0  0  0  0  0  0  0  0  0  0  0
  140.1270   70.7170  226.5560 N   0  0  0  0  0  0  0  0  0  0  0  0
  139.6410   69.3990  226.5200 C   0  0  0  0  0  0  0  0  0  0  0  0
  139.9110   68.6600  227.5220 O   0  0  0  0  0  0  0  0  0  0  0  0
  138.8500   68.7960  225.4350 C   0  0  0  0  0  0  0  0  0  0  0  0
  139.2850   69.1700  224.1120 N   0  0  0  0  0  0  0  0  0  0  0  0
  139.2030   70.5160  223.6670 C   0  0  0  0  0  0  0  0  0  0  0  0
  138.7640   71.4630  224.3690 O   0  0  0  0  0  0  0  0  0  0  0  0
  139.6710   70.7940  222.2780 C   0  0  0  0  0  0  0  0  0  0  0  0
  139.9170   72.2170  222.1800 N   0  0  0  0  0  0  0  0  0  0  0  0
  140.8720   72.7180  221.2530 C   0  0  0  0  0  0  0  0  0  0  0  0
  141.5430   71.9850  220.4820 O   0  0  0  0  0  0  0  0  0  0  0  0
  141.0790   74.1750  221.1980 C   0  0  0  0  0  0  0  0  0  0  0  0
  142.0470   74.7190  220.3750 C   0  0  0  0  0  0  0  0  0  0  0  0
  142.2390   76.0910  220.3260 C   0  0  0  0  0  0  0  0  0  0  0  0
  141.4700   76.9230  221.0940 C   0  0  0  0  0  0  0  0  0  0  0  0
  141.6120   78.2920  221.0900 C   0  0  0  0  0  0  0  0  0  0  0  0
  140.8240   79.1280  221.8770 C   0  0  0  0  0  0  0  0  0  0  0  0
  141.0480   80.8660  221.8310 Cl  0  0  0  0  0  0  0  0  0  0  0  0
  139.8610   78.5330  222.6890 C   0  0  0  0  0  0  0  0  0  0  0  0
  139.6950   77.1470  222.7130 C   0  0  0  0  0  0  0  0  0  0  0  0
  140.5080   76.3620  221.9100 C   0  0  0  0  0  0  0  0  0  0  0  0
  140.3320   75.0200  221.9470 N   0  0  0  0  0  0  0  0  0  0  0  0
  140.3545   71.5502  229.7290 H   0  0  0  0  0  0  0  0  0  0  0  0
  139.8879   72.8750  228.6093 H   0  0  0  0  0  0  0  0  0  0  0  0
  138.9668   71.3328  228.6093 H   0  0  0  0  0  0  0  0  0  0  0  0
  141.5177   70.4095  228.0872 H   0  0  0  0  0  0  0  0  0  0  0  0
  142.1653   72.9136  228.0442 H   0  0  0  0  0  0  0  0  0  0  0  0
  142.5839   71.9724  226.5726 H   0  0  0  0  0  0  0  0  0  0  0  0
  141.1438   73.0462  226.5726 H   0  0  0  0  0  0  0  0  0  0  0  0
  139.9320   71.3740  225.7830 H   0  0  0  0  0  0  0  0  0  0  0  0
  138.9181   67.7018  225.5247 H   0  0  0  0  0  0  0  0  0  0  0  0
  137.8210   69.1680  225.5478 H   0  0  0  0  0  0  0  0  0  0  0  0
  139.6640   68.4220  223.4820 H   0  0  0  0  0  0  0  0  0  0  0  0
  140.5979   70.2375  222.0753 H   0  0  0  0  0  0  0  0  0  0  0  0
  138.9150   70.4794  221.5435 H   0  0  0  0  0  0  0  0  0  0  0  0
  139.3890   72.8760  222.7940 H   0  0  0  0  0  0  0  0  0  0  0  0
  142.6698   74.0582  219.7541 H   0  0  0  0  0  0  0  0  0  0  0  0
  143.0125   76.5127  219.6673 H   0  0  0  0  0  0  0  0  0  0  0  0
  142.3769   78.7428  220.4406 H   0  0  0  0  0  0  0  0  0  0  0  0
  139.2209   79.1656  223.3216 H   0  0  0  0  0  0  0  0  0  0  0  0
  138.9324   76.6858  223.3578 H   0  0  0  0  0  0  0  0  0  0  0  0
  1  2  1  0
  2  3  1  0
  2  4  1  0
  4  5  1  0
  5  6  2  0
  5  7  1  0
  7  8  1  0
  8  9  1  0
  9 10  2  0
  9 11  1  0
 11 12  1  0
 12 13  1  0
 13 14  2  0
 13 15  1  0
 15 16  2  0
 16 17  1  0
 17 18  2  0
 18 19  1  0
 19 20  2  0
 20 21  1  0
 20 22  1  0
 22 23  2  0
 23 24  1  0
 24 25  2  0
 25 15  1  0
 24 18  1  0
  1 26  1  0
  1 27  1  0
  1 28  1  0
  2 29  1  0
  3 30  1  0
  3 31  1  0
  3 32  1  0
  4 33  1  0
  7 34  1  0
  7 35  1  0
  8 36  1  0
 11 37  1  0
 11 38  1  0
 12 39  1  0
 16 40  1  0
 17 41  1  0
 19 42  1  0
 22 43  1  0
 23 44  1  0
M  END
>  <smiles>  (35) 
CC(C)NC(=O)CNC(=O)CNC(=O)c1ccc2cc(Cl)ccc2n1

>  <score_type>  (35) 
oracle

>  <origin>  (35) 
autodockgpu

>  <m_score__min__energy>  (35) 
-7.6500000000000004

>  <m_primary>  (35) 
energy

>  <rmsd>  (35) 
8.399701944312081

>  <m_score__min__rmsd>  (35) 
8.399701944312081

>  <meeko>  (35) 
{"free_energy": -6.11, "intermolecular_energy": -7.9, "internal_energy": -2.6, "cluster_size": 1, "cluster_id": 4, "rank_in_cluster": 1}

>  <energy>  (35) 
-6.39

>  <cluster_rmsd>  (35) 
1.58

>  <cluster>  (35) 
1

$$$$

     RDKit          3D

 44 45  0  0  0  0  0  0  0  0999 V2000
  142.8360   80.2900  223.5090 C   0  0  0  0  0  0  0  0  0  0  0  0
  141.5830   79.8390  222.7720 C   0  0  0  0  0  0  0  0  0  0  0  0
  140.5110   79.6220  223.8090 C   0  0  0  0  0  0  0  0  0  0  0  0
  141.8450   78.5770  222.1070 N   0  0  0  0  0  0  0  0  0  0  0  0
  141.7890   78.4420  220.7100 C   0  0  0  0  0  0  0  0  0  0  0  0
  141.5000   79.4880  220.0440 O   0  0  0  0  0  0  0  0  0  0  0  0
  142.0340   77.2070  219.9480 C   0  0  0  0  0  0  0  0  0  0  0  0
  140.9270   76.2840  219.9520 N   0  0  0  0  0  0  0  0  0  0  0  0
  140.4380   75.7320  221.1650 C   0  0  0  0  0  0  0  0  0  0  0  0
  140.9100   75.9980  222.3000 O   0  0  0  0  0  0  0  0  0  0  0  0
  139.2930   74.7800  221.0570 C   0  0  0  0  0  0  0  0  0  0  0  0
  139.4270   73.8180  222.1310 N   0  0  0  0  0  0  0  0  0  0  0  0
  139.3880   72.4250  221.8540 C   0  0  0  0  0  0  0  0  0  0  0  0
  139.2410   71.9490  220.6980 O   0  0  0  0  0  0  0  0  0  0  0  0
  139.5290   71.4930  222.9860 C   0  0  0  0  0  0  0  0  0  0  0  0
  139.0700   70.1940  222.8920 C   0  0  0  0  0  0  0  0  0  0  0  0
  139.2040   69.3200  223.9600 C   0  0  0  0  0  0  0  0  0  0  0  0
  139.7950   69.7380  225.1210 C   0  0  0  0  0  0  0  0  0  0  0  0
  139.9580   68.9190  226.2160 C   0  0  0  0  0  0  0  0  0  0  0  0
  140.5610   69.3560  227.3930 C   0  0  0  0  0  0  0  0  0  0  0  0
  140.7420   68.2690  228.7560 Cl  0  0  0  0  0  0  0  0  0  0  0  0
  141.0080   70.6740  227.4400 C   0  0  0  0  0  0  0  0  0  0  0  0
  140.8560   71.5260  226.3450 C   0  0  0  0  0  0  0  0  0  0  0  0
  140.2490   71.0400  225.1980 C   0  0  0  0  0  0  0  0  0  0  0  0
  140.1090   71.8810  224.1460 N   0  0  0  0  0  0  0  0  0  0  0  0
  142.6653   80.2286  224.5939 H   0  0  0  0  0  0  0  0  0  0  0  0
  143.6783   79.6386  223.2329 H   0  0  0  0  0  0  0  0  0  0  0  0
  143.0699   81.3288  223.2329 H   0  0  0  0  0  0  0  0  0  0  0  0
  141.2775   80.5883  222.0269 H   0  0  0  0  0  0  0  0  0  0  0  0
  140.9496   79.7108  224.8139 H   0  0  0  0  0  0  0  0  0  0  0  0
  139.7223   80.3787  223.6850 H   0  0  0  0  0  0  0  0  0  0  0  0
  140.0787   78.6181  223.6850 H   0  0  0  0  0  0  0  0  0  0  0  0
  142.0880   77.7720  222.7070 H   0  0  0  0  0  0  0  0  0  0  0  0
  142.2510   77.4818  218.9052 H   0  0  0  0  0  0  0  0  0  0  0  0
  142.8761   76.6947  220.4362 H   0  0  0  0  0  0  0  0  0  0  0  0
  140.4880   76.0270  219.0340 H   0  0  0  0  0  0  0  0  0  0  0  0
  138.3417   75.3234  221.1555 H   0  0  0  0  0  0  0  0  0  0  0  0
  139.2988   74.2747  220.0800 H   0  0  0  0  0  0  0  0  0  0  0  0
  139.5520   74.1530  223.1110 H   0  0  0  0  0  0  0  0  0  0  0  0
  138.5941   69.8497  221.9620 H   0  0  0  0  0  0  0  0  0  0  0  0
  138.8341   68.2877  223.8736 H   0  0  0  0  0  0  0  0  0  0  0  0
  139.5985   67.8809  226.1590 H   0  0  0  0  0  0  0  0  0  0  0  0
  141.4888   71.0498  228.3552 H   0  0  0  0  0  0  0  0  0  0  0  0
  141.2121   72.5657  226.3917 H   0  0  0  0  0  0  0  0  0  0  0  0
  1  2  1  0
  2  3  1  0
  2  4  1  0
  4  5  1  0
  5  6  2  0
  5  7  1  0
  7  8  1  0
  8  9  1  0
  9 10  2  0
  9 11  1  0
 11 12  1  0
 12 13  1  0
 13 14  2  0
 13 15  1  0
 15 16  2  0
 16 17  1  0
 17 18  2  0
 18 19  1  0
 19 20  2  0
 20 21  1  0
 20 22  1  0
 22 23  2  0
 23 24  1  0
 24 25  2  0
 25 15  1  0
 24 18  1  0
  1 26  1  0
  1 27  1  0
  1 28  1  0
  2 29  1  0
  3 30  1  0
  3 31  1  0
  3 32  1  0
  4 33  1  0
  7 34  1  0
  7 35  1  0
  8 36  1  0
 11 37  1  0
 11 38  1  0
 12 39  1  0
 16 40  1  0
 17 41  1  0
 19 42  1  0
 22 43  1  0
 23 44  1  0
M  END
>  <smiles>  (36) 
CC(C)NC(=O)CNC(=O)CNC(=O)c1ccc2cc(Cl)ccc2n1

>  <score_type>  (36) 
oracle

>  <origin>  (36) 
autodockgpu

>  <m_score__min__energy>  (36) 
-7.6500000000000004

>  <m_primary>  (36) 
energy

>  <rmsd>  (36) 
1.334688611281115

>  <m_score__min__rmsd>  (36) 
1.334688611281115

>  <meeko>  (36) 
{"free_energy": -7.46, "intermolecular_energy": -9.25, "internal_energy": -2.27, "cluster_size": 38, "cluster_id": 1, "rank_in_cluster": 4}

>  <energy>  (36) 
-6.38

>  <cluster_rmsd>  (36) 
1.56

>  <cluster>  (36) 
1

$$$$

     RDKit          3D

 44 45  0  0  0  0  0  0  0  0999 V2000
  145.7450   72.0330  219.7180 C   0  0  0  0  0  0  0  0  0  0  0  0
  146.1760   73.3230  220.4020 C   0  0  0  0  0  0  0  0  0  0  0  0
  146.2170   73.0470  221.8840 C   0  0  0  0  0  0  0  0  0  0  0  0
  145.1850   74.3530  220.1520 N   0  0  0  0  0  0  0  0  0  0  0  0
  143.8160   74.1470  220.3910 C   0  0  0  0  0  0  0  0  0  0  0  0
  143.4790   73.0070  220.8470 O   0  0  0  0  0  0  0  0  0  0  0  0
  142.7400   75.1250  220.1650 C   0  0  0  0  0  0  0  0  0  0  0  0
  141.4130   74.5950  220.3560 N   0  0  0  0  0  0  0  0  0  0  0  0
  140.3710   75.4000  220.8860 C   0  0  0  0  0  0  0  0  0  0  0  0
  140.5130   76.6060  221.2150 O   0  0  0  0  0  0  0  0  0  0  0  0
  139.0380   74.7510  221.0510 C   0  0  0  0  0  0  0  0  0  0  0  0
  139.1610   73.7740  222.1130 N   0  0  0  0  0  0  0  0  0  0  0  0
  139.7190   72.4930  221.8490 C   0  0  0  0  0  0  0  0  0  0  0  0
  140.1300   72.1350  220.7150 O   0  0  0  0  0  0  0  0  0  0  0  0
  139.8190   71.5410  222.9680 C   0  0  0  0  0  0  0  0  0  0  0  0
  139.3950   70.2340  222.8220 C   0  0  0  0  0  0  0  0  0  0  0  0
  139.4910   69.3400  223.8780 C   0  0  0  0  0  0  0  0  0  0  0  0
  140.0070   69.7460  225.0790 C   0  0  0  0  0  0  0  0  0  0  0  0
  140.1290   68.9080  226.1640 C   0  0  0  0  0  0  0  0  0  0  0  0
  140.6550   69.3320  227.3810 C   0  0  0  0  0  0  0  0  0  0  0  0
  140.7870   68.2210  228.7300 Cl  0  0  0  0  0  0  0  0  0  0  0  0
  141.0690   70.6590  227.4800 C   0  0  0  0  0  0  0  0  0  0  0  0
  140.9580   71.5300  226.3950 C   0  0  0  0  0  0  0  0  0  0  0  0
  140.4260   71.0560  225.2060 C   0  0  0  0  0  0  0  0  0  0  0  0
  140.3250   71.9160  224.1660 N   0  0  0  0  0  0  0  0  0  0  0  0
  145.4935   71.2804  220.4798 H   0  0  0  0  0  0  0  0  0  0  0  0
  144.8632   72.2279  219.0900 H   0  0  0  0  0  0  0  0  0  0  0  0
  146.5669   71.6587  219.0900 H   0  0  0  0  0  0  0  0  0  0  0  0
  147.1542   73.6569  220.0257 H   0  0  0  0  0  0  0  0  0  0  0  0
  146.0772   73.9880  222.4362 H   0  0  0  0  0  0  0  0  0  0  0  0
  145.4134   72.3439  222.1484 H   0  0  0  0  0  0  0  0  0  0  0  0
  147.1902   72.6078  222.1484 H   0  0  0  0  0  0  0  0  0  0  0  0
  145.5300   75.2590  219.7960 H   0  0  0  0  0  0  0  0  0  0  0  0
  142.8816   75.9621  220.8644 H   0  0  0  0  0  0  0  0  0  0  0  0
  142.8092   75.4349  219.1118 H   0  0  0  0  0  0  0  0  0  0  0  0
  141.2340   73.5940  220.0950 H   0  0  0  0  0  0  0  0  0  0  0  0
  138.2832   75.5050  221.3192 H   0  0  0  0  0  0  0  0  0  0  0  0
  138.7219   74.2689  220.1142 H   0  0  0  0  0  0  0  0  0  0  0  0
  138.8380   74.0140  223.0760 H   0  0  0  0  0  0  0  0  0  0  0  0
  138.9780   69.8999  221.8605 H   0  0  0  0  0  0  0  0  0  0  0  0
  139.1514   68.3016  223.7500 H   0  0  0  0  0  0  0  0  0  0  0  0
  139.7983   67.8635  226.0657 H   0  0  0  0  0  0  0  0  0  0  0  0
  141.4898   71.0257  228.4279 H   0  0  0  0  0  0  0  0  0  0  0  0
  141.2874   72.5759  226.4821 H   0  0  0  0  0  0  0  0  0  0  0  0
  1  2  1  0
  2  3  1  0
  2  4  1  0
  4  5  1  0
  5  6  2  0
  5  7  1  0
  7  8  1  0
  8  9  1  0
  9 10  2  0
  9 11  1  0
 11 12  1  0
 12 13  1  0
 13 14  2  0
 13 15  1  0
 15 16  2  0
 16 17  1  0
 17 18  2  0
 18 19  1  0
 19 20  2  0
 20 21  1  0
 20 22  1  0
 22 23  2  0
 23 24  1  0
 24 25  2  0
 25 15  1  0
 24 18  1  0
  1 26  1  0
  1 27  1  0
  1 28  1  0
  2 29  1  0
  3 30  1  0
  3 31  1  0
  3 32  1  0
  4 33  1  0
  7 34  1  0
  7 35  1  0
  8 36  1  0
 11 37  1  0
 11 38  1  0
 12 39  1  0
 16 40  1  0
 17 41  1  0
 19 42  1  0
 22 43  1  0
 23 44  1  0
M  END
>  <smiles>  (37) 
CC(C)NC(=O)CNC(=O)CNC(=O)c1ccc2cc(Cl)ccc2n1

>  <score_type>  (37) 
oracle

>  <origin>  (37) 
autodockgpu

>  <m_score__min__energy>  (37) 
-7.6500000000000004

>  <m_primary>  (37) 
energy

>  <rmsd>  (37) 
4.467353817487844

>  <m_score__min__rmsd>  (37) 
4.467353817487844

>  <meeko>  (37) 
{"free_energy": -7.22, "intermolecular_energy": -9.01, "internal_energy": -2.15, "cluster_size": 9, "cluster_id": 2, "rank_in_cluster": 1}

>  <energy>  (37) 
-6.37

>  <cluster_rmsd>  (37) 
1.52

>  <cluster>  (37) 
1

$$$$

     RDKit          3D

 44 45  0  0  0  0  0  0  0  0999 V2000
  142.9840   80.1010  223.0750 C   0  0  0  0  0  0  0  0  0  0  0  0
  141.6170   79.6280  222.5990 C   0  0  0  0  0  0  0  0  0  0  0  0
  140.7790   79.3830  223.8290 C   0  0  0  0  0  0  0  0  0  0  0  0
  141.7650   78.3750  221.8840 N   0  0  0  0  0  0  0  0  0  0  0  0
  141.5380   78.2720  220.5020 C   0  0  0  0  0  0  0  0  0  0  0  0
  141.1990   79.3390  219.8950 O   0  0  0  0  0  0  0  0  0  0  0  0
  141.6580   77.0480  219.6920 C   0  0  0  0  0  0  0  0  0  0  0  0
  140.5460   76.1410  219.8300 N   0  0  0  0  0  0  0  0  0  0  0  0
  140.2330   75.5510  221.0820 C   0  0  0  0  0  0  0  0  0  0  0  0
  140.8750   75.7680  222.1420 O   0  0  0  0  0  0  0  0  0  0  0  0
  139.0680   74.6190  221.1130 C   0  0  0  0  0  0  0  0  0  0  0  0
  139.3090   73.6590  222.1700 N   0  0  0  0  0  0  0  0  0  0  0  0
  139.0830   72.2730  221.9440 C   0  0  0  0  0  0  0  0  0  0  0  0
  138.6740   71.8050  220.8510 O   0  0  0  0  0  0  0  0  0  0  0  0
  139.3450   71.3430  223.0550 C   0  0  0  0  0  0  0  0  0  0  0  0
  138.9860   70.0120  222.9610 C   0  0  0  0  0  0  0  0  0  0  0  0
  139.2350   69.1390  224.0090 C   0  0  0  0  0  0  0  0  0  0  0  0
  139.8400   69.5900  225.1510 C   0  0  0  0  0  0  0  0  0  0  0  0
  140.1140   68.7740  226.2260 C   0  0  0  0  0  0  0  0  0  0  0  0
  140.7300   69.2430  227.3830 C   0  0  0  0  0  0  0  0  0  0  0  0
  141.0550   68.1590  228.7210 Cl  0  0  0  0  0  0  0  0  0  0  0  0
  141.0740   70.5930  227.4310 C   0  0  0  0  0  0  0  0  0  0  0  0
  140.8090   71.4420  226.3560 C   0  0  0  0  0  0  0  0  0  0  0  0
  140.1930   70.9220  225.2280 C   0  0  0  0  0  0  0  0  0  0  0  0
  139.9430   71.7620  224.1960 N   0  0  0  0  0  0  0  0  0  0  0  0
  143.0068   80.1089  224.1747 H   0  0  0  0  0  0  0  0  0  0  0  0
  143.7600   79.4191  222.6970 H   0  0  0  0  0  0  0  0  0  0  0  0
  143.1726   81.1167  222.6970 H   0  0  0  0  0  0  0  0  0  0  0  0
  141.1539   80.3744  221.9369 H   0  0  0  0  0  0  0  0  0  0  0  0
  141.3870   79.5608  224.7283 H   0  0  0  0  0  0  0  0  0  0  0  0
  139.9174   80.0668  223.8278 H   0  0  0  0  0  0  0  0  0  0  0  0
  140.4215   78.3427  223.8278 H   0  0  0  0  0  0  0  0  0  0  0  0
  142.0570   77.5510  222.4350 H   0  0  0  0  0  0  0  0  0  0  0  0
  141.7370   77.3397  218.6343 H   0  0  0  0  0  0  0  0  0  0  0  0
  142.5499   76.5145  220.0525 H   0  0  0  0  0  0  0  0  0  0  0  0
  139.9710   75.9250  218.9790 H   0  0  0  0  0  0  0  0  0  0  0  0
  138.1437   75.1793  221.3176 H   0  0  0  0  0  0  0  0  0  0  0  0
  138.9524   74.1097  220.1449 H   0  0  0  0  0  0  0  0  0  0  0  0
  139.6500   73.9880  223.0990 H   0  0  0  0  0  0  0  0  0  0  0  0
  138.4985   69.6419  222.0470 H   0  0  0  0  0  0  0  0  0  0  0  0
  138.9456   68.0813  223.9225 H   0  0  0  0  0  0  0  0  0  0  0  0
  139.8356   67.7114  226.1683 H   0  0  0  0  0  0  0  0  0  0  0  0
  141.5622   70.9954  228.3308 H   0  0  0  0  0  0  0  0  0  0  0  0
  141.0842   72.5060  226.4026 H   0  0  0  0  0  0  0  0  0  0  0  0
  1  2  1  0
  2  3  1  0
  2  4  1  0
  4  5  1  0
  5  6  2  0
  5  7  1  0
  7  8  1  0
  8  9  1  0
  9 10  2  0
  9 11  1  0
 11 12  1  0
 12 13  1  0
 13 14  2  0
 13 15  1  0
 15 16  2  0
 16 17  1  0
 17 18  2  0
 18 19  1  0
 19 20  2  0
 20 21  1  0
 20 22  1  0
 22 23  2  0
 23 24  1  0
 24 25  2  0
 25 15  1  0
 24 18  1  0
  1 26  1  0
  1 27  1  0
  1 28  1  0
  2 29  1  0
  3 30  1  0
  3 31  1  0
  3 32  1  0
  4 33  1  0
  7 34  1  0
  7 35  1  0
  8 36  1  0
 11 37  1  0
 11 38  1  0
 12 39  1  0
 16 40  1  0
 17 41  1  0
 19 42  1  0
 22 43  1  0
 23 44  1  0
M  END
>  <smiles>  (38) 
CC(C)NC(=O)CNC(=O)CNC(=O)c1ccc2cc(Cl)ccc2n1

>  <score_type>  (38) 
oracle

>  <origin>  (38) 
autodockgpu

>  <m_score__min__energy>  (38) 
-7.6500000000000004

>  <m_primary>  (38) 
energy

>  <rmsd>  (38) 
1.195054303546817

>  <m_score__min__rmsd>  (38) 
1.195054303546817

>  <meeko>  (38) 
{"free_energy": -7.38, "intermolecular_energy": -9.17, "internal_energy": -2.4, "cluster_size": 38, "cluster_id": 1, "rank_in_cluster": 9}

>  <energy>  (38) 
-6.33

>  <cluster_rmsd>  (38) 
1.58

>  <cluster>  (38) 
1

$$$$

     RDKit          3D

 44 45  0  0  0  0  0  0  0  0999 V2000
  141.8580   80.1860  222.1050 C   0  0  0  0  0  0  0  0  0  0  0  0
  140.9400   79.6800  223.2100 C   0  0  0  0  0  0  0  0  0  0  0  0
  141.8020   78.9330  224.1970 C   0  0  0  0  0  0  0  0  0  0  0  0
  139.9760   78.7540  222.6470 N   0  0  0  0  0  0  0  0  0  0  0  0
  138.8380   79.1920  221.9500 C   0  0  0  0  0  0  0  0  0  0  0  0
  138.6900   80.4520  221.8260 O   0  0  0  0  0  0  0  0  0  0  0  0
  137.8050   78.3330  221.3480 C   0  0  0  0  0  0  0  0  0  0  0  0
  138.3040   77.0790  220.8440 N   0  0  0  0  0  0  0  0  0  0  0  0
  138.7450   76.0580  221.7260 C   0  0  0  0  0  0  0  0  0  0  0  0
  138.7320   76.1580  222.9800 O   0  0  0  0  0  0  0  0  0  0  0  0
  139.2510   74.8010  221.1000 C   0  0  0  0  0  0  0  0  0  0  0  0
  139.4230   73.8280  222.1580 N   0  0  0  0  0  0  0  0  0  0  0  0
  139.4820   72.4410  221.8550 C   0  0  0  0  0  0  0  0  0  0  0  0
  139.3930   71.9810  220.6870 O   0  0  0  0  0  0  0  0  0  0  0  0
  139.6590   71.4980  222.9720 C   0  0  0  0  0  0  0  0  0  0  0  0
  139.3050   70.1690  222.8370 C   0  0  0  0  0  0  0  0  0  0  0  0
  139.4730   69.2840  223.8910 C   0  0  0  0  0  0  0  0  0  0  0  0
  139.9930   69.7210  225.0800 C   0  0  0  0  0  0  0  0  0  0  0  0
  140.1840   68.8920  226.1630 C   0  0  0  0  0  0  0  0  0  0  0  0
  140.7140   69.3480  227.3680 C   0  0  0  0  0  0  0  0  0  0  0  0
  140.9360   68.2480  228.7140 Cl  0  0  0  0  0  0  0  0  0  0  0  0
  141.0560   70.6950  227.4550 C   0  0  0  0  0  0  0  0  0  0  0  0
  140.8730   71.5570  226.3730 C   0  0  0  0  0  0  0  0  0  0  0  0
  140.3420   71.0510  225.1970 C   0  0  0  0  0  0  0  0  0  0  0  0
  140.1710   71.9020  224.1580 N   0  0  0  0  0  0  0  0  0  0  0  0
  142.7379   80.6710  222.5527 H   0  0  0  0  0  0  0  0  0  0  0  0
  142.1831   79.3396  221.4821 H   0  0  0  0  0  0  0  0  0  0  0  0
  141.3160   80.9128  221.4821 H   0  0  0  0  0  0  0  0  0  0  0  0
  140.4087   80.5157  223.6889 H   0  0  0  0  0  0  0  0  0  0  0  0
  141.4987   79.1958  225.2212 H   0  0  0  0  0  0  0  0  0  0  0  0
  141.6798   77.8505  224.0448 H   0  0  0  0  0  0  0  0  0  0  0  0
  142.8562   79.2079  224.0448 H   0  0  0  0  0  0  0  0  0  0  0  0
  140.1640   77.7460  222.7710 H   0  0  0  0  0  0  0  0  0  0  0  0
  137.0440   78.1197  222.1131 H   0  0  0  0  0  0  0  0  0  0  0  0
  137.3981   78.8822  220.4861 H   0  0  0  0  0  0  0  0  0  0  0  0
  138.3350   76.9360  219.8050 H   0  0  0  0  0  0  0  0  0  0  0  0
  138.5244   74.4296  220.3624 H   0  0  0  0  0  0  0  0  0  0  0  0
  140.2038   74.9823  220.5811 H   0  0  0  0  0  0  0  0  0  0  0  0
  139.5050   74.1500  223.1480 H   0  0  0  0  0  0  0  0  0  0  0  0
  138.8863   69.8102  221.8852 H   0  0  0  0  0  0  0  0  0  0  0  0
  139.1879   68.2283  223.7718 H   0  0  0  0  0  0  0  0  0  0  0  0
  139.9080   67.8310  226.0733 H   0  0  0  0  0  0  0  0  0  0  0  0
  141.4776   71.0863  228.3926 H   0  0  0  0  0  0  0  0  0  0  0  0
  141.1455   72.6198  226.4521 H   0  0  0  0  0  0  0  0  0  0  0  0
  1  2  1  0
  2  3  1  0
  2  4  1  0
  4  5  1  0
  5  6  2  0
  5  7  1  0
  7  8  1  0
  8  9  1  0
  9 10  2  0
  9 11  1  0
 11 12  1  0
 12 13  1  0
 13 14  2  0
 13 15  1  0
 15 16  2  0
 16 17  1  0
 17 18  2  0
 18 19  1  0
 19 20  2  0
 20 21  1  0
 20 22  1  0
 22 23  2  0
 23 24  1  0
 24 25  2  0
 25 15  1  0
 24 18  1  0
  1 26  1  0
  1 27  1  0
  1 28  1  0
  2 29  1  0
  3 30  1  0
  3 31  1  0
  3 32  1  0
  4 33  1  0
  7 34  1  0
  7 35  1  0
  8 36  1  0
 11 37  1  0
 11 38  1  0
 12 39  1  0
 16 40  1  0
 17 41  1  0
 19 42  1  0
 22 43  1  0
 23 44  1  0
M  END
>  <smiles>  (39) 
CC(C)NC(=O)CNC(=O)CNC(=O)c1ccc2cc(Cl)ccc2n1

>  <score_type>  (39) 
oracle

>  <origin>  (39) 
autodockgpu

>  <m_score__min__energy>  (39) 
-7.6500000000000004

>  <m_primary>  (39) 
energy

>  <rmsd>  (39) 
1.9049384327534418

>  <m_score__min__rmsd>  (39) 
1.9049384327534418

>  <meeko>  (39) 
{"free_energy": -6.38, "intermolecular_energy": -8.17, "internal_energy": -2.55, "cluster_size": 38, "cluster_id": 1, "rank_in_cluster": 36}

>  <energy>  (39) 
-7.22

>  <cluster_rmsd>  (39) 
0.0

>  <cluster>  (39) 
2

$$$$

     RDKit          3D

 44 45  0  0  0  0  0  0  0  0999 V2000
  141.7810   79.5550  224.2070 C   0  0  0  0  0  0  0  0  0  0  0  0
  142.3590   79.1920  222.8460 C   0  0  0  0  0  0  0  0  0  0  0  0
  142.5490   80.4800  222.0860 C   0  0  0  0  0  0  0  0  0  0  0  0
  141.4090   78.3660  222.1250 N   0  0  0  0  0  0  0  0  0  0  0  0
  140.1490   78.8480  221.7310 C   0  0  0  0  0  0  0  0  0  0  0  0
  139.8770   80.0550  222.0310 O   0  0  0  0  0  0  0  0  0  0  0  0
  139.1200   78.0880  221.0030 C   0  0  0  0  0  0  0  0  0  0  0  0
  139.5650   76.8030  220.5240 N   0  0  0  0  0  0  0  0  0  0  0  0
  140.0840   75.8290  221.4160 C   0  0  0  0  0  0  0  0  0  0  0  0
  140.1900   75.9970  222.6580 O   0  0  0  0  0  0  0  0  0  0  0  0
  140.5250   74.5360  220.8160 C   0  0  0  0  0  0  0  0  0  0  0  0
  140.5920   73.5620  221.8850 N   0  0  0  0  0  0  0  0  0  0  0  0
  139.6620   72.4880  221.9360 C   0  0  0  0  0  0  0  0  0  0  0  0
  138.7500   72.3180  221.0860 O   0  0  0  0  0  0  0  0  0  0  0  0
  139.7780   71.5280  223.0470 C   0  0  0  0  0  0  0  0  0  0  0  0
  139.3590   70.2200  222.8950 C   0  0  0  0  0  0  0  0  0  0  0  0
  139.4700   69.3190  223.9430 C   0  0  0  0  0  0  0  0  0  0  0  0
  139.9980   69.7180  225.1420 C   0  0  0  0  0  0  0  0  0  0  0  0
  140.1350   68.8720  226.2190 C   0  0  0  0  0  0  0  0  0  0  0  0
  140.6740   69.2900  227.4340 C   0  0  0  0  0  0  0  0  0  0  0  0
  140.8250   68.1690  228.7720 Cl  0  0  0  0  0  0  0  0  0  0  0  0
  141.0830   70.6170  227.5370 C   0  0  0  0  0  0  0  0  0  0  0  0
  140.9550   71.4960  226.4610 C   0  0  0  0  0  0  0  0  0  0  0  0
  140.4120   71.0280  225.2750 C   0  0  0  0  0  0  0  0  0  0  0  0
  140.2970   71.8960  224.2420 N   0  0  0  0  0  0  0  0  0  0  0  0
  142.4269   79.1494  224.9997 H   0  0  0  0  0  0  0  0  0  0  0  0
  141.7270   80.6495  224.3023 H   0  0  0  0  0  0  0  0  0  0  0  0
  140.7716   79.1284  224.3023 H   0  0  0  0  0  0  0  0  0  0  0  0
  143.3072   78.6457  222.9579 H   0  0  0  0  0  0  0  0  0  0  0  0
  142.6715   81.3105  222.7968 H   0  0  0  0  0  0  0  0  0  0  0  0
  143.4456   80.4036  221.4533 H   0  0  0  0  0  0  0  0  0  0  0  0
  141.6685   80.6657  221.4533 H   0  0  0  0  0  0  0  0  0  0  0  0
  141.7000   77.4010  221.9010 H   0  0  0  0  0  0  0  0  0  0  0  0
  138.2664   77.9281  221.6782 H   0  0  0  0  0  0  0  0  0  0  0  0
  138.8551   78.6824  220.1161 H   0  0  0  0  0  0  0  0  0  0  0  0
  139.4980   76.6040  219.4960 H   0  0  0  0  0  0  0  0  0  0  0  0
  139.8017   74.2090  220.0545 H   0  0  0  0  0  0  0  0  0  0  0  0
  141.5060   74.6479  220.3311 H   0  0  0  0  0  0  0  0  0  0  0  0
  141.3280   73.6500  222.6190 H   0  0  0  0  0  0  0  0  0  0  0  0
  138.9341   69.8911  221.9352 H   0  0  0  0  0  0  0  0  0  0  0  0
  139.1329   68.2803  223.8110 H   0  0  0  0  0  0  0  0  0  0  0  0
  139.8068   67.8271  226.1167 H   0  0  0  0  0  0  0  0  0  0  0  0
  141.5141   70.9783  228.4823 H   0  0  0  0  0  0  0  0  0  0  0  0
  141.2797   72.5430  226.5526 H   0  0  0  0  0  0  0  0  0  0  0  0
  1  2  1  0
  2  3  1  0
  2  4  1  0
  4  5  1  0
  5  6  2  0
  5  7  1  0
  7  8  1  0
  8  9  1  0
  9 10  2  0
  9 11  1  0
 11 12  1  0
 12 13  1  0
 13 14  2  0
 13 15  1  0
 15 16  2  0
 16 17  1  0
 17 18  2  0
 18 19  1  0
 19 20  2  0
 20 21  1  0
 20 22  1  0
 22 23  2  0
 23 24  1  0
 24 25  2  0
 25 15  1  0
 24 18  1  0
  1 26  1  0
  1 27  1  0
  1 28  1  0
  2 29  1  0
  3 30  1  0
  3 31  1  0
  3 32  1  0
  4 33  1  0
  7 34  1  0
  7 35  1  0
  8 36  1  0
 11 37  1  0
 11 38  1  0
 12 39  1  0
 16 40  1  0
 17 41  1  0
 19 42  1  0
 22 43  1  0
 23 44  1  0
M  END
>  <smiles>  (40) 
CC(C)NC(=O)CNC(=O)CNC(=O)c1ccc2cc(Cl)ccc2n1

>  <score_type>  (40) 
oracle

>  <origin>  (40) 
autodockgpu

>  <m_score__min__energy>  (40) 
-7.6500000000000004

>  <m_primary>  (40) 
energy

>  <rmsd>  (40) 
1.8568690207057639

>  <m_score__min__rmsd>  (40) 
1.8568690207057639

>  <meeko>  (40) 
{"free_energy": -6.53, "intermolecular_energy": -8.32, "internal_energy": -1.85, "cluster_size": 38, "cluster_id": 1, "rank_in_cluster": 32}

>  <energy>  (40) 
-7.14

>  <cluster_rmsd>  (40) 
0.1

>  <cluster>  (40) 
2

$$$$

     RDKit          3D

 44 45  0  0  0  0  0  0  0  0999 V2000
  143.2660   80.5140  223.4660 C   0  0  0  0  0  0  0  0  0  0  0  0
  142.0230   80.2670  222.6220 C   0  0  0  0  0  0  0  0  0  0  0  0
  140.8400   80.2850  223.5570 C   0  0  0  0  0  0  0  0  0  0  0  0
  142.1090   78.9530  222.0120 N   0  0  0  0  0  0  0  0  0  0  0  0
  141.7760   78.7300  220.6660 C   0  0  0  0  0  0  0  0  0  0  0  0
  141.3960   79.7430  219.9940 O   0  0  0  0  0  0  0  0  0  0  0  0
  141.8280   77.4390  219.9620 C   0  0  0  0  0  0  0  0  0  0  0  0
  140.6150   76.6660  220.0630 N   0  0  0  0  0  0  0  0  0  0  0  0
  140.4840   75.6320  221.0270 C   0  0  0  0  0  0  0  0  0  0  0  0
  141.3820   75.3180  221.8490 O   0  0  0  0  0  0  0  0  0  0  0  0
  139.1910   74.8870  221.0410 C   0  0  0  0  0  0  0  0  0  0  0  0
  139.2690   73.9020  222.0980 N   0  0  0  0  0  0  0  0  0  0  0  0
  139.8780   72.6400  221.8590 C   0  0  0  0  0  0  0  0  0  0  0  0
  140.3730   72.3050  220.7520 O   0  0  0  0  0  0  0  0  0  0  0  0
  139.9300   71.6770  222.9730 C   0  0  0  0  0  0  0  0  0  0  0  0
  139.4750   70.3830  222.8080 C   0  0  0  0  0  0  0  0  0  0  0  0
  139.5250   69.4800  223.8590 C   0  0  0  0  0  0  0  0  0  0  0  0
  140.0270   69.8640  225.0740 C   0  0  0  0  0  0  0  0  0  0  0  0
  140.1030   69.0150  226.1550 C   0  0  0  0  0  0  0  0  0  0  0  0
  140.6150   69.4160  227.3860 C   0  0  0  0  0  0  0  0  0  0  0  0
  140.6890   68.2930  228.7290 Cl  0  0  0  0  0  0  0  0  0  0  0  0
  141.0620   70.7310  227.5030 C   0  0  0  0  0  0  0  0  0  0  0  0
  140.9960   71.6120  226.4230 C   0  0  0  0  0  0  0  0  0  0  0  0
  140.4770   71.1600  225.2200 C   0  0  0  0  0  0  0  0  0  0  0  0
  140.4210   72.0300  224.1840 N   0  0  0  0  0  0  0  0  0  0  0  0
  143.0015   80.4614  224.5324 H   0  0  0  0  0  0  0  0  0  0  0  0
  144.0223   79.7486  223.2377 H   0  0  0  0  0  0  0  0  0  0  0  0
  143.6722   81.5104  223.2377 H   0  0  0  0  0  0  0  0  0  0  0  0
  141.9279   81.0300  221.8353 H   0  0  0  0  0  0  0  0  0  0  0  0
  141.1953   80.2796  224.5980 H   0  0  0  0  0  0  0  0  0  0  0  0
  140.2445   81.1923  223.3775 H   0  0  0  0  0  0  0  0  0  0  0  0
  140.2172   79.3962  223.3775 H   0  0  0  0  0  0  0  0  0  0  0  0
  142.4390   78.1790  222.6110 H   0  0  0  0  0  0  0  0  0  0  0  0
  142.0266   77.6333  218.8977 H   0  0  0  0  0  0  0  0  0  0  0  0
  142.6226   76.8477  220.4404 H   0  0  0  0  0  0  0  0  0  0  0  0
  139.8280   76.8850  219.4040 H   0  0  0  0  0  0  0  0  0  0  0  0
  138.3597   75.5808  221.2346 H   0  0  0  0  0  0  0  0  0  0  0  0
  139.0129   74.4010  220.0704 H   0  0  0  0  0  0  0  0  0  0  0  0
  138.8760   74.1220  223.0400 H   0  0  0  0  0  0  0  0  0  0  0  0
  139.0700   70.0667  221.8354 H   0  0  0  0  0  0  0  0  0  0  0  0
  139.1603   68.4520  223.7165 H   0  0  0  0  0  0  0  0  0  0  0  0
  139.7457   67.9808  226.0419 H   0  0  0  0  0  0  0  0  0  0  0  0
  141.4732   71.0797  228.4618 H   0  0  0  0  0  0  0  0  0  0  0  0
  141.3501   72.6485  226.5247 H   0  0  0  0  0  0  0  0  0  0  0  0
  1  2  1  0
  2  3  1  0
  2  4  1  0
  4  5  1  0
  5  6  2  0
  5  7  1  0
  7  8  1  0
  8  9  1  0
  9 10  2  0
  9 11  1  0
 11 12  1  0
 12 13  1  0
 13 14  2  0
 13 15  1  0
 15 16  2  0
 16 17  1  0
 17 18  2  0
 18 19  1  0
 19 20  2  0
 20 21  1  0
 20 22  1  0
 22 23  2  0
 23 24  1  0
 24 25  2  0
 25 15  1  0
 24 18  1  0
  1 26  1  0
  1 27  1  0
  1 28  1  0
  2 29  1  0
  3 30  1  0
  3 31  1  0
  3 32  1  0
  4 33  1  0
  7 34  1  0
  7 35  1  0
  8 36  1  0
 11 37  1  0
 11 38  1  0
 12 39  1  0
 16 40  1  0
 17 41  1  0
 19 42  1  0
 22 43  1  0
 23 44  1  0
M  END
>  <smiles>  (41) 
CC(C)NC(=O)CNC(=O)CNC(=O)c1ccc2cc(Cl)ccc2n1

>  <score_type>  (41) 
oracle

>  <origin>  (41) 
autodockgpu

>  <m_score__min__energy>  (41) 
-7.6500000000000004

>  <m_primary>  (41) 
energy

>  <rmsd>  (41) 
1.4724647469188785

>  <m_score__min__rmsd>  (41) 
1.4724647469188785

>  <meeko>  (41) 
{"free_energy": -7.65, "intermolecular_energy": -9.44, "internal_energy": -1.25, "cluster_size": 38, "cluster_id": 1, "rank_in_cluster": 2}

>  <energy>  (41) 
-6.98

>  <cluster_rmsd>  (41) 
0.3

>  <cluster>  (41) 
2

$$$$

     RDKit          3D

 44 45  0  0  0  0  0  0  0  0999 V2000
  141.0850   81.1150  222.0040 C   0  0  0  0  0  0  0  0  0  0  0  0
  141.4640   79.8930  222.8300 C   0  0  0  0  0  0  0  0  0  0  0  0
  142.5370   80.3260  223.7970 C   0  0  0  0  0  0  0  0  0  0  0  0
  142.0130   78.8750  221.9560 N   0  0  0  0  0  0  0  0  0  0  0  0
  141.2830   77.7320  221.5880 C   0  0  0  0  0  0  0  0  0  0  0  0
  140.1030   77.6300  222.0560 O   0  0  0  0  0  0  0  0  0  0  0  0
  141.7540   76.6460  220.7140 C   0  0  0  0  0  0  0  0  0  0  0  0
  140.7690   75.6240  220.4630 N   0  0  0  0  0  0  0  0  0  0  0  0
  141.1130   74.4270  219.7820 C   0  0  0  0  0  0  0  0  0  0  0  0
  142.2690   74.1650  219.3600 O   0  0  0  0  0  0  0  0  0  0  0  0
  140.0170   73.4380  219.5660 C   0  0  0  0  0  0  0  0  0  0  0  0
  140.0570   72.4990  220.6680 N   0  0  0  0  0  0  0  0  0  0  0  0
  139.8600   72.9500  222.0020 C   0  0  0  0  0  0  0  0  0  0  0  0
  139.6450   74.1520  222.3050 O   0  0  0  0  0  0  0  0  0  0  0  0
  139.9110   71.9500  223.0820 C   0  0  0  0  0  0  0  0  0  0  0  0
  139.4520   70.6640  222.8750 C   0  0  0  0  0  0  0  0  0  0  0  0
  139.5020   69.7250  223.8940 C   0  0  0  0  0  0  0  0  0  0  0  0
  140.0080   70.0650  225.1190 C   0  0  0  0  0  0  0  0  0  0  0  0
  140.0850   69.1800  226.1700 C   0  0  0  0  0  0  0  0  0  0  0  0
  140.6010   69.5380  227.4130 C   0  0  0  0  0  0  0  0  0  0  0  0
  140.6750   68.3680  228.7170 Cl  0  0  0  0  0  0  0  0  0  0  0  0
  141.0520   70.8460  227.5740 C   0  0  0  0  0  0  0  0  0  0  0  0
  140.9870   71.7640  226.5250 C   0  0  0  0  0  0  0  0  0  0  0  0
  140.4630   71.3550  225.3080 C   0  0  0  0  0  0  0  0  0  0  0  0
  140.4070   72.2600  224.3030 N   0  0  0  0  0  0  0  0  0  0  0  0
  140.8271   81.9465  222.6764 H   0  0  0  0  0  0  0  0  0  0  0  0
  141.9349   81.4066  221.3695 H   0  0  0  0  0  0  0  0  0  0  0  0
  140.2192   80.8745  221.3695 H   0  0  0  0  0  0  0  0  0  0  0  0
  140.5863   79.4889  223.3558 H   0  0  0  0  0  0  0  0  0  0  0  0
  142.1812   80.1824  224.8279 H   0  0  0  0  0  0  0  0  0  0  0  0
  143.4424   79.7228  223.6342 H   0  0  0  0  0  0  0  0  0  0  0  0
  142.7702   81.3886  223.6342 H   0  0  0  0  0  0  0  0  0  0  0  0
  142.9700   79.0280  221.6000 H   0  0  0  0  0  0  0  0  0  0  0  0
  142.0518   77.0832  219.7495 H   0  0  0  0  0  0  0  0  0  0  0  0
  142.5909   76.1589  221.2359 H   0  0  0  0  0  0  0  0  0  0  0  0
  139.7880   75.7850  220.7960 H   0  0  0  0  0  0  0  0  0  0  0  0
  139.0450   73.9526  219.5457 H   0  0  0  0  0  0  0  0  0  0  0  0
  140.1483   72.9164  218.6065 H   0  0  0  0  0  0  0  0  0  0  0  0
  140.2300   71.4880  220.4790 H   0  0  0  0  0  0  0  0  0  0  0  0
  139.0433   70.3823  221.8934 H   0  0  0  0  0  0  0  0  0  0  0  0
  139.1338   68.7037  223.7171 H   0  0  0  0  0  0  0  0  0  0  0  0
  139.7254   68.1509  226.0227 H   0  0  0  0  0  0  0  0  0  0  0  0
  141.4660   71.1603  228.5434 H   0  0  0  0  0  0  0  0  0  0  0  0
  141.3455   72.7950  226.6612 H   0  0  0  0  0  0  0  0  0  0  0  0
  1  2  1  0
  2  3  1  0
  2  4  1  0
  4  5  1  0
  5  6  2  0
  5  7  1  0
  7  8  1  0
  8  9  1  0
  9 10  2  0
  9 11  1  0
 11 12  1  0
 12 13  1  0
 13 14  2  0
 13 15  1  0
 15 16  2  0
 16 17  1  0
 17 18  2  0
 18 19  1  0
 19 20  2  0
 20 21  1  0
 20 22  1  0
 22 23  2  0
 23 24  1  0
 24 25  2  0
 25 15  1  0
 24 18  1  0
  1 26  1  0
  1 27  1  0
  1 28  1  0
  2 29  1  0
  3 30  1  0
  3 31  1  0
  3 32  1  0
  4 33  1  0
  7 34  1  0
  7 35  1  0
  8 36  1  0
 11 37  1  0
 11 38  1  0
 12 39  1  0
 16 40  1  0
 17 41  1  0
 19 42  1  0
 22 43  1  0
 23 44  1  0
M  END
>  <smiles>  (42) 
CC(C)NC(=O)CNC(=O)CNC(=O)c1ccc2cc(Cl)ccc2n1

>  <score_type>  (42) 
oracle

>  <origin>  (42) 
autodockgpu

>  <m_score__min__energy>  (42) 
-7.6500000000000004

>  <m_primary>  (42) 
energy

>  <rmsd>  (42) 
1.8948374744496326

>  <m_score__min__rmsd>  (42) 
1.8948374744496326

>  <meeko>  (42) 
{"free_energy": -7.14, "intermolecular_energy": -8.93, "internal_energy": -2.1, "cluster_size": 38, "cluster_id": 1, "rank_in_cluster": 25}

>  <energy>  (42) 
-6.77

>  <cluster_rmsd>  (42) 
1.11

>  <cluster>  (42) 
2

$$$$

     RDKit          3D

 44 45  0  0  0  0  0  0  0  0999 V2000
  142.9680   80.1220  223.1860 C   0  0  0  0  0  0  0  0  0  0  0  0
  141.6300   79.6110  222.6700 C   0  0  0  0  0  0  0  0  0  0  0  0
  140.7200   79.4660  223.8630 C   0  0  0  0  0  0  0  0  0  0  0  0
  141.8140   78.3040  222.0680 N   0  0  0  0  0  0  0  0  0  0  0  0
  141.7850   78.1100  220.6770 C   0  0  0  0  0  0  0  0  0  0  0  0
  141.5920   79.1440  219.9580 O   0  0  0  0  0  0  0  0  0  0  0  0
  141.9560   76.8270  219.9770 C   0  0  0  0  0  0  0  0  0  0  0  0
  140.7840   75.9880  219.9910 N   0  0  0  0  0  0  0  0  0  0  0  0
  140.2160   75.5440  221.2130 C   0  0  0  0  0  0  0  0  0  0  0  0
  140.6700   75.8410  222.3480 O   0  0  0  0  0  0  0  0  0  0  0  0
  139.0090   74.6730  221.1160 C   0  0  0  0  0  0  0  0  0  0  0  0
  139.0980   73.6880  222.1740 N   0  0  0  0  0  0  0  0  0  0  0  0
  139.8610   72.5030  221.9890 C   0  0  0  0  0  0  0  0  0  0  0  0
  140.4890   72.2390  220.9310 O   0  0  0  0  0  0  0  0  0  0  0  0
  139.9160   71.5380  223.1000 C   0  0  0  0  0  0  0  0  0  0  0  0
  139.4580   70.2450  222.9350 C   0  0  0  0  0  0  0  0  0  0  0  0
  139.5110   69.3400  223.9830 C   0  0  0  0  0  0  0  0  0  0  0  0
  140.0190   69.7190  225.1960 C   0  0  0  0  0  0  0  0  0  0  0  0
  140.0990   68.8680  226.2750 C   0  0  0  0  0  0  0  0  0  0  0  0
  140.6180   69.2660  227.5040 C   0  0  0  0  0  0  0  0  0  0  0  0
  140.6960   68.1390  228.8440 Cl  0  0  0  0  0  0  0  0  0  0  0  0
  141.0680   70.5790  227.6220 C   0  0  0  0  0  0  0  0  0  0  0  0
  140.9990   71.4630  226.5450 C   0  0  0  0  0  0  0  0  0  0  0  0
  140.4730   71.0150  225.3430 C   0  0  0  0  0  0  0  0  0  0  0  0
  140.4140   71.8870  224.3090 N   0  0  0  0  0  0  0  0  0  0  0  0
  142.9619   80.1197  224.2860 H   0  0  0  0  0  0  0  0  0  0  0  0
  143.7749   79.4687  222.8224 H   0  0  0  0  0  0  0  0  0  0  0  0
  143.1340   81.1468  222.8224 H   0  0  0  0  0  0  0  0  0  0  0  0
  141.2104   80.3013  221.9234 H   0  0  0  0  0  0  0  0  0  0  0  0
  141.3092   79.5599  224.7871 H   0  0  0  0  0  0  0  0  0  0  0  0
  139.9521   80.2531  223.8362 H   0  0  0  0  0  0  0  0  0  0  0  0
  140.2347   78.4792  223.8362 H   0  0  0  0  0  0  0  0  0  0  0  0
  141.9810   77.5110  222.7090 H   0  0  0  0  0  0  0  0  0  0  0  0
  142.2178   77.0372  218.9295 H   0  0  0  0  0  0  0  0  0  0  0  0
  142.7457   76.2776  220.5103 H   0  0  0  0  0  0  0  0  0  0  0  0
  140.3580   75.7110  219.0720 H   0  0  0  0  0  0  0  0  0  0  0  0
  138.0985   75.2774  221.2409 H   0  0  0  0  0  0  0  0  0  0  0  0
  138.9626   74.1826  220.1324 H   0  0  0  0  0  0  0  0  0  0  0  0
  138.5990   73.8520  223.0750 H   0  0  0  0  0  0  0  0  0  0  0  0
  139.0479   69.9314  221.9637 H   0  0  0  0  0  0  0  0  0  0  0  0
  139.1434   68.3132  223.8395 H   0  0  0  0  0  0  0  0  0  0  0  0
  139.7393   67.8346  226.1619 H   0  0  0  0  0  0  0  0  0  0  0  0
  141.4844   70.9243  228.5798 H   0  0  0  0  0  0  0  0  0  0  0  0
  141.3560   72.4984  226.6478 H   0  0  0  0  0  0  0  0  0  0  0  0
  1  2  1  0
  2  3  1  0
  2  4  1  0
  4  5  1  0
  5  6  2  0
  5  7  1  0
  7  8  1  0
  8  9  1  0
  9 10  2  0
  9 11  1  0
 11 12  1  0
 12 13  1  0
 13 14  2  0
 13 15  1  0
 15 16  2  0
 16 17  1  0
 17 18  2  0
 18 19  1  0
 19 20  2  0
 20 21  1  0
 20 22  1  0
 22 23  2  0
 23 24  1  0
 24 25  2  0
 25 15  1  0
 24 18  1  0
  1 26  1  0
  1 27  1  0
  1 28  1  0
  2 29  1  0
  3 30  1  0
  3 31  1  0
  3 32  1  0
  4 33  1  0
  7 34  1  0
  7 35  1  0
  8 36  1  0
 11 37  1  0
 11 38  1  0
 12 39  1  0
 16 40  1  0
 17 41  1  0
 19 42  1  0
 22 43  1  0
 23 44  1  0
M  END
>  <smiles>  (43) 
CC(C)NC(=O)CNC(=O)CNC(=O)c1ccc2cc(Cl)ccc2n1

>  <score_type>  (43) 
oracle

>  <origin>  (43) 
autodockgpu

>  <m_score__min__energy>  (43) 
-7.6500000000000004

>  <m_primary>  (43) 
energy

>  <rmsd>  (43) 
1.288719252869425

>  <m_score__min__rmsd>  (43) 
1.288719252869425

>  <meeko>  (43) 
{"free_energy": -7.65, "intermolecular_energy": -9.44, "internal_energy": -1.88, "cluster_size": 38, "cluster_id": 1, "rank_in_cluster": 1}

>  <energy>  (43) 
-6.66

>  <cluster_rmsd>  (43) 
1.42

>  <cluster>  (43) 
2

$$$$

     RDKit          3D

 44 45  0  0  0  0  0  0  0  0999 V2000
  142.9910   80.1370  222.6700 C   0  0  0  0  0  0  0  0  0  0  0  0
  141.6580   79.4090  222.7810 C   0  0  0  0  0  0  0  0  0  0  0  0
  141.4960   78.9960  224.2210 C   0  0  0  0  0  0  0  0  0  0  0  0
  141.6930   78.2150  221.9580 N   0  0  0  0  0  0  0  0  0  0  0  0
  141.5520   78.2640  220.5620 C   0  0  0  0  0  0  0  0  0  0  0  0
  141.3950   79.4170  220.0410 O   0  0  0  0  0  0  0  0  0  0  0  0
  141.5700   77.1120  219.6470 C   0  0  0  0  0  0  0  0  0  0  0  0
  140.4390   76.2290  219.7910 N   0  0  0  0  0  0  0  0  0  0  0  0
  140.2960   75.4020  220.9360 C   0  0  0  0  0  0  0  0  0  0  0  0
  141.1140   75.3760  221.8910 O   0  0  0  0  0  0  0  0  0  0  0  0
  139.0940   74.5200  220.9810 C   0  0  0  0  0  0  0  0  0  0  0  0
  139.2880   73.5770  222.0630 N   0  0  0  0  0  0  0  0  0  0  0  0
  139.2680   72.1790  221.8080 C   0  0  0  0  0  0  0  0  0  0  0  0
  139.0880   71.6830  220.6650 O   0  0  0  0  0  0  0  0  0  0  0  0
  139.4720   71.2680  222.9470 C   0  0  0  0  0  0  0  0  0  0  0  0
  139.0420   69.9570  222.8870 C   0  0  0  0  0  0  0  0  0  0  0  0
  139.2350   69.1020  223.9610 C   0  0  0  0  0  0  0  0  0  0  0  0
  139.8570   69.5510  225.0950 C   0  0  0  0  0  0  0  0  0  0  0  0
  140.0790   68.7520  226.1940 C   0  0  0  0  0  0  0  0  0  0  0  0
  140.7120   69.2210  227.3430 C   0  0  0  0  0  0  0  0  0  0  0  0
  140.9680   68.1590  228.7140 Cl  0  0  0  0  0  0  0  0  0  0  0  0
  141.1280   70.5500  227.3550 C   0  0  0  0  0  0  0  0  0  0  0  0
  140.9170   71.3810  226.2550 C   0  0  0  0  0  0  0  0  0  0  0  0
  140.2810   70.8640  225.1370 C   0  0  0  0  0  0  0  0  0  0  0  0
  140.0840   71.6860  224.0790 N   0  0  0  0  0  0  0  0  0  0  0  0
  143.3783   80.3485  223.6776 H   0  0  0  0  0  0  0  0  0  0  0  0
  143.7093   79.5059  222.1261 H   0  0  0  0  0  0  0  0  0  0  0  0
  142.8483   81.0824  222.1261 H   0  0  0  0  0  0  0  0  0  0  0  0
  140.8312   80.0555  222.4517 H   0  0  0  0  0  0  0  0  0  0  0  0
  141.8185   79.8182  224.8767 H   0  0  0  0  0  0  0  0  0  0  0  0
  140.4395   78.7621  224.4187 H   0  0  0  0  0  0  0  0  0  0  0  0
  142.1117   78.1062  224.4187 H   0  0  0  0  0  0  0  0  0  0  0  0
  141.8390   77.3150  222.4440 H   0  0  0  0  0  0  0  0  0  0  0  0
  141.5833   77.4910  218.6144 H   0  0  0  0  0  0  0  0  0  0  0  0
  142.4658   76.5236  219.8948 H   0  0  0  0  0  0  0  0  0  0  0  0
  139.7200   76.2120  219.0260 H   0  0  0  0  0  0  0  0  0  0  0  0
  138.1923   75.1226  221.1648 H   0  0  0  0  0  0  0  0  0  0  0  0
  138.9641   73.9920  220.0248 H   0  0  0  0  0  0  0  0  0  0  0  0
  139.4440   73.9290  223.0330 H   0  0  0  0  0  0  0  0  0  0  0  0
  138.5421   69.5881  221.9792 H   0  0  0  0  0  0  0  0  0  0  0  0
  138.8875   68.0600  223.9019 H   0  0  0  0  0  0  0  0  0  0  0  0
  139.7442   67.7046  226.1637 H   0  0  0  0  0  0  0  0  0  0  0  0
  141.6315   70.9510  228.2470 H   0  0  0  0  0  0  0  0  0  0  0  0
  141.2497   72.4293  226.2742 H   0  0  0  0  0  0  0  0  0  0  0  0
  1  2  1  0
  2  3  1  0
  2  4  1  0
  4  5  1  0
  5  6  2  0
  5  7  1  0
  7  8  1  0
  8  9  1  0
  9 10  2  0
  9 11  1  0
 11 12  1  0
 12 13  1  0
 13 14  2  0
 13 15  1  0
 15 16  2  0
 16 17  1  0
 17 18  2  0
 18 19  1  0
 19 20  2  0
 20 21  1  0
 20 22  1  0
 22 23  2  0
 23 24  1  0
 24 25  2  0
 25 15  1  0
 24 18  1  0
  1 26  1  0
  1 27  1  0
  1 28  1  0
  2 29  1  0
  3 30  1  0
  3 31  1  0
  3 32  1  0
  4 33  1  0
  7 34  1  0
  7 35  1  0
  8 36  1  0
 11 37  1  0
 11 38  1  0
 12 39  1  0
 16 40  1  0
 17 41  1  0
 19 42  1  0
 22 43  1  0
 23 44  1  0
M  END
>  <smiles>  (44) 
CC(C)NC(=O)CNC(=O)CNC(=O)c1ccc2cc(Cl)ccc2n1

>  <score_type>  (44) 
oracle

>  <origin>  (44) 
autodockgpu

>  <m_score__min__energy>  (44) 
-7.6500000000000004

>  <m_primary>  (44) 
energy

>  <rmsd>  (44) 
1.231854464942379

>  <m_score__min__rmsd>  (44) 
1.231854464942379

>  <meeko>  (44) 
{"free_energy": -7.34, "intermolecular_energy": -9.13, "internal_energy": -2.23, "cluster_size": 38, "cluster_id": 1, "rank_in_cluster": 13}

>  <energy>  (44) 
-6.65

>  <cluster_rmsd>  (44) 
1.05

>  <cluster>  (44) 
2

$$$$

     RDKit          3D

 44 45  0  0  0  0  0  0  0  0999 V2000
  141.8390   78.9950  224.1940 C   0  0  0  0  0  0  0  0  0  0  0  0
  141.5000   79.3270  222.7480 C   0  0  0  0  0  0  0  0  0  0  0  0
  140.0940   79.8710  222.7350 C   0  0  0  0  0  0  0  0  0  0  0  0
  141.5330   78.1130  221.9560 N   0  0  0  0  0  0  0  0  0  0  0  0
  141.3970   78.1280  220.5580 C   0  0  0  0  0  0  0  0  0  0  0  0
  141.2470   79.2670  220.0080 O   0  0  0  0  0  0  0  0  0  0  0  0
  141.4130   76.9520  219.6720 C   0  0  0  0  0  0  0  0  0  0  0  0
  140.3070   76.0500  219.8730 N   0  0  0  0  0  0  0  0  0  0  0  0
  140.2370   75.2220  221.0230 C   0  0  0  0  0  0  0  0  0  0  0  0
  141.1020   75.2110  221.9360 O   0  0  0  0  0  0  0  0  0  0  0  0
  139.0540   74.3180  221.1290 C   0  0  0  0  0  0  0  0  0  0  0  0
  139.3100   73.3940  222.2140 N   0  0  0  0  0  0  0  0  0  0  0  0
  138.9240   72.0300  222.1000 C   0  0  0  0  0  0  0  0  0  0  0  0
  138.3540   71.5510  221.0860 O   0  0  0  0  0  0  0  0  0  0  0  0
  139.2100   71.1360  223.2350 C   0  0  0  0  0  0  0  0  0  0  0  0
  138.8480   69.8040  223.1930 C   0  0  0  0  0  0  0  0  0  0  0  0
  139.1190   68.9650  224.2630 C   0  0  0  0  0  0  0  0  0  0  0  0
  139.7510   69.4520  225.3760 C   0  0  0  0  0  0  0  0  0  0  0  0
  140.0480   68.6710  226.4700 C   0  0  0  0  0  0  0  0  0  0  0  0
  140.6910   69.1770  227.5970 C   0  0  0  0  0  0  0  0  0  0  0  0
  141.0460   68.1370  228.9620 Cl  0  0  0  0  0  0  0  0  0  0  0  0
  141.0370   70.5270  227.5920 C   0  0  0  0  0  0  0  0  0  0  0  0
  140.7480   71.3410  226.4970 C   0  0  0  0  0  0  0  0  0  0  0  0
  140.1060   70.7850  225.4000 C   0  0  0  0  0  0  0  0  0  0  0  0
  139.8340   71.5910  224.3470 N   0  0  0  0  0  0  0  0  0  0  0  0
  141.2167   79.6045  224.8657 H   0  0  0  0  0  0  0  0  0  0  0  0
  141.6443   77.9286  224.3807 H   0  0  0  0  0  0  0  0  0  0  0  0
  142.9011   79.2120  224.3807 H   0  0  0  0  0  0  0  0  0  0  0  0
  142.2171   80.0520  222.3355 H   0  0  0  0  0  0  0  0  0  0  0  0
  139.7437   80.0065  223.7689 H   0  0  0  0  0  0  0  0  0  0  0  0
  140.0803   80.8393  222.2133 H   0  0  0  0  0  0  0  0  0  0  0  0
  139.4321   79.1641  222.2133 H   0  0  0  0  0  0  0  0  0  0  0  0
  141.6720   77.2240  222.4640 H   0  0  0  0  0  0  0  0  0  0  0  0
  141.3871   77.3038  218.6301 H   0  0  0  0  0  0  0  0  0  0  0  0
  142.3285   76.3894  219.9072 H   0  0  0  0  0  0  0  0  0  0  0  0
  139.5510   76.0190  219.1450 H   0  0  0  0  0  0  0  0  0  0  0  0
  138.1493   74.9063  221.3419 H   0  0  0  0  0  0  0  0  0  0  0  0
  138.8951   73.7746  220.1859 H   0  0  0  0  0  0  0  0  0  0  0  0
  139.7810   73.7320  223.0810 H   0  0  0  0  0  0  0  0  0  0  0  0
  138.3401   69.4051  222.3026 H   0  0  0  0  0  0  0  0  0  0  0  0
  138.8257   67.9058  224.2178 H   0  0  0  0  0  0  0  0  0  0  0  0
  139.7670   67.6076  226.4534 H   0  0  0  0  0  0  0  0  0  0  0  0
  141.5466   70.9578  228.4664 H   0  0  0  0  0  0  0  0  0  0  0  0
  141.0244   72.4057  226.5031 H   0  0  0  0  0  0  0  0  0  0  0  0
  1  2  1  0
  2  3  1  0
  2  4  1  0
  4  5  1  0
  5  6  2  0
  5  7  1  0
  7  8  1  0
  8  9  1  0
  9 10  2  0
  9 11  1  0
 11 12  1  0
 12 13  1  0
 13 14  2  0
 13 15  1  0
 15 16  2  0
 16 17  1  0
 17 18  2  0
 18 19  1  0
 19 20  2  0
 20 21  1  0
 20 22  1  0
 22 23  2  0
 23 24  1  0
 24 25  2  0
 25 15  1  0
 24 18  1  0
  1 26  1  0
  1 27  1  0
  1 28  1  0
  2 29  1  0
  3 30  1  0
  3 31  1  0
  3 32  1  0
  4 33  1  0
  7 34  1  0
  7 35  1  0
  8 36  1  0
 11 37  1  0
 11 38  1  0
 12 39  1  0
 16 40  1  0
 17 41  1  0
 19 42  1  0
 22 43  1  0
 23 44  1  0
M  END
>  <smiles>  (45) 
CC(C)NC(=O)CNC(=O)CNC(=O)c1ccc2cc(Cl)ccc2n1

>  <score_type>  (45) 
oracle

>  <origin>  (45) 
autodockgpu

>  <m_score__min__energy>  (45) 
-7.6500000000000004

>  <m_primary>  (45) 
energy

>  <rmsd>  (45) 
1.2355312848653721

>  <m_score__min__rmsd>  (45) 
1.2355312848653721

>  <meeko>  (45) 
{"free_energy": -6.97, "intermolecular_energy": -8.76, "internal_energy": -2.5, "cluster_size": 38, "cluster_id": 1, "rank_in_cluster": 27}

>  <energy>  (45) 
-6.54

>  <cluster_rmsd>  (45) 
1.23

>  <cluster>  (45) 
2

$$$$

     RDKit          3D

 44 45  0  0  0  0  0  0  0  0999 V2000
  141.6150   81.2040  223.7710 C   0  0  0  0  0  0  0  0  0  0  0  0
  141.8380   79.7000  223.6870 C   0  0  0  0  0  0  0  0  0  0  0  0
  142.9720   79.4720  222.7210 C   0  0  0  0  0  0  0  0  0  0  0  0
  140.6450   79.0670  223.1570 N   0  0  0  0  0  0  0  0  0  0  0  0
  140.1040   79.4180  221.9090 C   0  0  0  0  0  0  0  0  0  0  0  0
  140.7160   80.3230  221.2530 O   0  0  0  0  0  0  0  0  0  0  0  0
  138.9010   78.8380  221.2910 C   0  0  0  0  0  0  0  0  0  0  0  0
  139.0870   77.5010  220.7830 N   0  0  0  0  0  0  0  0  0  0  0  0
  139.3250   76.4110  221.6600 C   0  0  0  0  0  0  0  0  0  0  0  0
  139.3850   76.5150  222.9120 O   0  0  0  0  0  0  0  0  0  0  0  0
  139.5130   75.0710  221.0300 C   0  0  0  0  0  0  0  0  0  0  0  0
  139.6120   74.1000  222.0990 N   0  0  0  0  0  0  0  0  0  0  0  0
  139.7700   72.7190  221.8000 C   0  0  0  0  0  0  0  0  0  0  0  0
  139.8340   72.2630  220.6290 O   0  0  0  0  0  0  0  0  0  0  0  0
  139.8660   71.7760  222.9280 C   0  0  0  0  0  0  0  0  0  0  0  0
  139.4530   70.4660  222.7900 C   0  0  0  0  0  0  0  0  0  0  0  0
  139.5440   69.5820  223.8540 C   0  0  0  0  0  0  0  0  0  0  0  0
  140.0460   70.0010  225.0560 C   0  0  0  0  0  0  0  0  0  0  0  0
  140.1620   69.1730  226.1500 C   0  0  0  0  0  0  0  0  0  0  0  0
  140.6740   69.6110  227.3690 C   0  0  0  0  0  0  0  0  0  0  0  0
  140.8000   68.5120  228.7280 Cl  0  0  0  0  0  0  0  0  0  0  0  0
  141.0780   70.9420  227.4590 C   0  0  0  0  0  0  0  0  0  0  0  0
  140.9710   71.8030  226.3670 C   0  0  0  0  0  0  0  0  0  0  0  0
  140.4540   71.3150  225.1770 C   0  0  0  0  0  0  0  0  0  0  0  0
  140.3580   72.1650  224.1280 N   0  0  0  0  0  0  0  0  0  0  0  0
  141.5697   81.5096  224.8267 H   0  0  0  0  0  0  0  0  0  0  0  0
  142.4455   81.7262  223.2735 H   0  0  0  0  0  0  0  0  0  0  0  0
  140.6687   81.4627  223.2735 H   0  0  0  0  0  0  0  0  0  0  0  0
  142.0636   79.2826  224.6794 H   0  0  0  0  0  0  0  0  0  0  0  0
  143.8996   79.2855  223.2820 H   0  0  0  0  0  0  0  0  0  0  0  0
  142.7450   78.6015  222.0880 H   0  0  0  0  0  0  0  0  0  0  0  0
  143.0991   80.3626  222.0880 H   0  0  0  0  0  0  0  0  0  0  0  0
  140.2080   78.3300  223.7350 H   0  0  0  0  0  0  0  0  0  0  0  0
  138.1023   78.8125  222.0469 H   0  0  0  0  0  0  0  0  0  0  0  0
  138.6494   79.4731  220.4288 H   0  0  0  0  0  0  0  0  0  0  0  0
  139.0430   77.3530  219.7450 H   0  0  0  0  0  0  0  0  0  0  0  0
  138.6534   74.8345  220.3857 H   0  0  0  0  0  0  0  0  0  0  0  0
  140.4204   75.0580  220.4083 H   0  0  0  0  0  0  0  0  0  0  0  0
  139.5670   74.4170  223.0920 H   0  0  0  0  0  0  0  0  0  0  0  0
  139.0482   70.1206  221.8273 H   0  0  0  0  0  0  0  0  0  0  0  0
  139.2117   68.5406  223.7316 H   0  0  0  0  0  0  0  0  0  0  0  0
  139.8380   68.1258  226.0578 H   0  0  0  0  0  0  0  0  0  0  0  0
  141.4881   71.3197  228.4072 H   0  0  0  0  0  0  0  0  0  0  0  0
  141.2916   72.8521  226.4487 H   0  0  0  0  0  0  0  0  0  0  0  0
  1  2  1  0
  2  3  1  0
  2  4  1  0
  4  5  1  0
  5  6  2  0
  5  7  1  0
  7  8  1  0
  8  9  1  0
  9 10  2  0
  9 11  1  0
 11 12  1  0
 12 13  1  0
 13 14  2  0
 13 15  1  0
 15 16  2  0
 16 17  1  0
 17 18  2  0
 18 19  1  0
 19 20  2  0
 20 21  1  0
 20 22  1  0
 22 23  2  0
 23 24  1  0
 24 25  2  0
 25 15  1  0
 24 18  1  0
  1 26  1  0
  1 27  1  0
  1 28  1  0
  2 29  1  0
  3 30  1  0
  3 31  1  0
  3 32  1  0
  4 33  1  0
  7 34  1  0
  7 35  1  0
  8 36  1  0
 11 37  1  0
 11 38  1  0
 12 39  1  0
 16 40  1  0
 17 41  1  0
 19 42  1  0
 22 43  1  0
 23 44  1  0
M  END
>  <smiles>  (46) 
CC(C)NC(=O)CNC(=O)CNC(=O)c1ccc2cc(Cl)ccc2n1

>  <score_type>  (46) 
oracle

>  <origin>  (46) 
autodockgpu

>  <m_score__min__energy>  (46) 
-7.6500000000000004

>  <m_primary>  (46) 
energy

>  <rmsd>  (46) 
2.0439208164588414

>  <m_score__min__rmsd>  (46) 
2.0439208164588414

>  <meeko>  (46) 
{"free_energy": -6.63, "intermolecular_energy": -8.42, "internal_energy": -2.39, "cluster_size": 38, "cluster_id": 1, "rank_in_cluster": 29}

>  <energy>  (46) 
-6.12

>  <cluster_rmsd>  (46) 
1.3

>  <cluster>  (46) 
2

$$$$

     RDKit          3D

 44 45  0  0  0  0  0  0  0  0999 V2000
  142.1960   79.9080  221.9760 C   0  0  0  0  0  0  0  0  0  0  0  0
  141.1290   79.6320  223.0270 C   0  0  0  0  0  0  0  0  0  0  0  0
  141.8120   78.9500  224.1850 C   0  0  0  0  0  0  0  0  0  0  0  0
  140.1370   78.7280  222.4780 N   0  0  0  0  0  0  0  0  0  0  0  0
  138.8590   79.1650  222.0920 C   0  0  0  0  0  0  0  0  0  0  0  0
  138.6070   80.4050  222.2410 O   0  0  0  0  0  0  0  0  0  0  0  0
  137.7880   78.3260  221.5310 C   0  0  0  0  0  0  0  0  0  0  0  0
  138.2450   77.0670  220.9980 N   0  0  0  0  0  0  0  0  0  0  0  0
  138.8470   76.0920  221.8360 C   0  0  0  0  0  0  0  0  0  0  0  0
  139.0200   76.2380  223.0730 O   0  0  0  0  0  0  0  0  0  0  0  0
  139.2930   74.8270  221.1810 C   0  0  0  0  0  0  0  0  0  0  0  0
  139.4650   73.8370  222.2230 N   0  0  0  0  0  0  0  0  0  0  0  0
  139.5080   72.4540  221.8980 C   0  0  0  0  0  0  0  0  0  0  0  0
  139.4050   72.0120  220.7250 O   0  0  0  0  0  0  0  0  0  0  0  0
  139.6850   71.4920  223.0000 C   0  0  0  0  0  0  0  0  0  0  0  0
  139.3440   70.1630  222.8380 C   0  0  0  0  0  0  0  0  0  0  0  0
  139.5120   69.2610  223.8770 C   0  0  0  0  0  0  0  0  0  0  0  0
  140.0190   69.6800  225.0780 C   0  0  0  0  0  0  0  0  0  0  0  0
  140.2100   68.8340  226.1470 C   0  0  0  0  0  0  0  0  0  0  0  0
  140.7260   69.2720  227.3640 C   0  0  0  0  0  0  0  0  0  0  0  0
  140.9480   68.1510  228.6920 Cl  0  0  0  0  0  0  0  0  0  0  0  0
  141.0550   70.6210  227.4790 C   0  0  0  0  0  0  0  0  0  0  0  0
  140.8730   71.5010  226.4110 C   0  0  0  0  0  0  0  0  0  0  0  0
  140.3550   71.0120  225.2220 C   0  0  0  0  0  0  0  0  0  0  0  0
  140.1840   71.8800  224.1970 N   0  0  0  0  0  0  0  0  0  0  0  0
  143.1458   80.1537  222.4735 H   0  0  0  0  0  0  0  0  0  0  0  0
  142.3314   79.0153  221.3477 H   0  0  0  0  0  0  0  0  0  0  0  0
  141.8815   80.7544  221.3477 H   0  0  0  0  0  0  0  0  0  0  0  0
  140.6390   80.5655  223.3406 H   0  0  0  0  0  0  0  0  0  0  0  0
  141.4144   79.3470  225.1307 H   0  0  0  0  0  0  0  0  0  0  0  0
  141.6254   77.8671  224.1347 H   0  0  0  0  0  0  0  0  0  0  0  0
  142.8946   79.1382  224.1347 H   0  0  0  0  0  0  0  0  0  0  0  0
  140.4120   77.7380  222.3700 H   0  0  0  0  0  0  0  0  0  0  0  0
  137.0580   78.1194  222.3275 H   0  0  0  0  0  0  0  0  0  0  0  0
  137.3527   78.8869  220.6909 H   0  0  0  0  0  0  0  0  0  0  0  0
  138.1230   76.8870  219.9710 H   0  0  0  0  0  0  0  0  0  0  0  0
  138.5329   74.4877  220.4619 H   0  0  0  0  0  0  0  0  0  0  0  0
  140.2350   74.9837  220.6350 H   0  0  0  0  0  0  0  0  0  0  0  0
  139.5580   74.1430  223.2170 H   0  0  0  0  0  0  0  0  0  0  0  0
  138.9358   69.8178  221.8766 H   0  0  0  0  0  0  0  0  0  0  0  0
  139.2371   68.2052  223.7363 H   0  0  0  0  0  0  0  0  0  0  0  0
  139.9451   67.7722  226.0357 H   0  0  0  0  0  0  0  0  0  0  0  0
  141.4650   70.9988  228.4273 H   0  0  0  0  0  0  0  0  0  0  0  0
  141.1362   72.5643  226.5112 H   0  0  0  0  0  0  0  0  0  0  0  0
  1  2  1  0
  2  3  1  0
  2  4  1  0
  4  5  1  0
  5  6  2  0
  5  7  1  0
  7  8  1  0
  8  9  1  0
  9 10  2  0
  9 11  1  0
 11 12  1  0
 12 13  1  0
 13 14  2  0
 13 15  1  0
 15 16  2  0
 16 17  1  0
 17 18  2  0
 18 19  1  0
 19 20  2  0
 20 21  1  0
 20 22  1  0
 22 23  2  0
 23 24  1  0
 24 25  2  0
 25 15  1  0
 24 18  1  0
  1 26  1  0
  1 27  1  0
  1 28  1  0
  2 29  1  0
  3 30  1  0
  3 31  1  0
  3 32  1  0
  4 33  1  0
  7 34  1  0
  7 35  1  0
  8 36  1  0
 11 37  1  0
 11 38  1  0
 12 39  1  0
 16 40  1  0
 17 41  1  0
 19 42  1  0
 22 43  1  0
 23 44  1  0
M  END
>  <smiles>  (47) 
CC(C)NC(=O)CNC(=O)CNC(=O)c1ccc2cc(Cl)ccc2n1

>  <score_type>  (47) 
oracle

>  <origin>  (47) 
autodockgpu

>  <m_score__min__energy>  (47) 
-7.6500000000000004

>  <m_primary>  (47) 
energy

>  <rmsd>  (47) 
1.8970701723186372

>  <m_score__min__rmsd>  (47) 
1.8970701723186372

>  <meeko>  (47) 
{"free_energy": -6.39, "intermolecular_energy": -8.18, "internal_energy": -2.53, "cluster_size": 38, "cluster_id": 1, "rank_in_cluster": 35}

>  <energy>  (47) 
-5.97

>  <cluster_rmsd>  (47) 
1.53

>  <cluster>  (47) 
2

$$$$

     RDKit          3D

 44 45  0  0  0  0  0  0  0  0999 V2000
  142.9570   80.2210  222.7520 C   0  0  0  0  0  0  0  0  0  0  0  0
  141.5840   79.5930  222.5550 C   0  0  0  0  0  0  0  0  0  0  0  0
  140.9970   79.3680  223.9260 C   0  0  0  0  0  0  0  0  0  0  0  0
  141.7330   78.3080  221.9000 N   0  0  0  0  0  0  0  0  0  0  0  0
  141.7650   78.1800  220.5020 C   0  0  0  0  0  0  0  0  0  0  0  0
  141.6600   79.2550  219.8250 O   0  0  0  0  0  0  0  0  0  0  0  0
  141.9080   76.9240  219.7480 C   0  0  0  0  0  0  0  0  0  0  0  0
  140.7330   76.0880  219.7700 N   0  0  0  0  0  0  0  0  0  0  0  0
  140.2620   75.5190  220.9810 C   0  0  0  0  0  0  0  0  0  0  0  0
  140.8080   75.6950  222.1000 O   0  0  0  0  0  0  0  0  0  0  0  0
  139.0430   74.6620  220.8910 C   0  0  0  0  0  0  0  0  0  0  0  0
  139.1160   73.6900  221.9620 N   0  0  0  0  0  0  0  0  0  0  0  0
  139.8990   72.5130  221.8090 C   0  0  0  0  0  0  0  0  0  0  0  0
  140.5570   72.2460  220.7710 O   0  0  0  0  0  0  0  0  0  0  0  0
  139.9360   71.5600  222.9320 C   0  0  0  0  0  0  0  0  0  0  0  0
  139.4510   70.2750  222.7830 C   0  0  0  0  0  0  0  0  0  0  0  0
  139.4880   69.3810  223.8420 C   0  0  0  0  0  0  0  0  0  0  0  0
  140.0060   69.7650  225.0490 C   0  0  0  0  0  0  0  0  0  0  0  0
  140.0710   68.9250  226.1380 C   0  0  0  0  0  0  0  0  0  0  0  0
  140.6000   69.3270  227.3620 C   0  0  0  0  0  0  0  0  0  0  0  0
  140.6570   68.2140  228.7150 Cl  0  0  0  0  0  0  0  0  0  0  0  0
  141.0760   70.6320  227.4630 C   0  0  0  0  0  0  0  0  0  0  0  0
  141.0240   71.5040  226.3760 C   0  0  0  0  0  0  0  0  0  0  0  0
  140.4860   71.0530  225.1800 C   0  0  0  0  0  0  0  0  0  0  0  0
  140.4430   71.9140  224.1360 N   0  0  0  0  0  0  0  0  0  0  0  0
  143.1656   80.3164  223.8278 H   0  0  0  0  0  0  0  0  0  0  0  0
  143.7222   79.5834  222.2853 H   0  0  0  0  0  0  0  0  0  0  0  0
  142.9751   81.2169  222.2853 H   0  0  0  0  0  0  0  0  0  0  0  0
  140.9418   80.2432  221.9427 H   0  0  0  0  0  0  0  0  0  0  0  0
  141.7346   79.6507  224.6916 H   0  0  0  0  0  0  0  0  0  0  0  0
  140.0927   79.9832  224.0432 H   0  0  0  0  0  0  0  0  0  0  0  0
  140.7356   78.3059  224.0432 H   0  0  0  0  0  0  0  0  0  0  0  0
  141.8280   77.4780  222.5090 H   0  0  0  0  0  0  0  0  0  0  0  0
  142.1352   77.1734  218.7010 H   0  0  0  0  0  0  0  0  0  0  0  0
  142.7135   76.3526  220.2325 H   0  0  0  0  0  0  0  0  0  0  0  0
  140.2330   75.9090  218.8650 H   0  0  0  0  0  0  0  0  0  0  0  0
  138.1400   75.2798  221.0050 H   0  0  0  0  0  0  0  0  0  0  0  0
  138.9931   74.1596  219.9137 H   0  0  0  0  0  0  0  0  0  0  0  0
  138.5920   73.8580  222.8480 H   0  0  0  0  0  0  0  0  0  0  0  0
  139.0321   69.9586  221.8163 H   0  0  0  0  0  0  0  0  0  0  0  0
  139.0999   68.3600  223.7116 H   0  0  0  0  0  0  0  0  0  0  0  0
  139.6908   67.8977  226.0375 H   0  0  0  0  0  0  0  0  0  0  0  0
  141.5001   70.9807  228.4162 H   0  0  0  0  0  0  0  0  0  0  0  0
  141.4035   72.5326  226.4657 H   0  0  0  0  0  0  0  0  0  0  0  0
  1  2  1  0
  2  3  1  0
  2  4  1  0
  4  5  1  0
  5  6  2  0
  5  7  1  0
  7  8  1  0
  8  9  1  0
  9 10  2  0
  9 11  1  0
 11 12  1  0
 12 13  1  0
 13 14  2  0
 13 15  1  0
 15 16  2  0
 16 17  1  0
 17 18  2  0
 18 19  1  0
 19 20  2  0
 20 21  1  0
 20 22  1  0
 22 23  2  0
 23 24  1  0
 24 25  2  0
 25 15  1  0
 24 18  1  0
  1 26  1  0
  1 27  1  0
  1 28  1  0
  2 29  1  0
  3 30  1  0
  3 31  1  0
  3 32  1  0
  4 33  1  0
  7 34  1  0
  7 35  1  0
  8 36  1  0
 11 37  1  0
 11 38  1  0
 12 39  1  0
 16 40  1  0
 17 41  1  0
 19 42  1  0
 22 43  1  0
 23 44  1  0
M  END
>  <smiles>  (48) 
CC(C)NC(=O)CNC(=O)CNC(=O)c1ccc2cc(Cl)ccc2n1

>  <score_type>  (48) 
oracle

>  <origin>  (48) 
autodockgpu

>  <m_score__min__energy>  (48) 
-7.6500000000000004

>  <m_primary>  (48) 
energy

>  <rmsd>  (48) 
1.3289097274385737

>  <m_score__min__rmsd>  (48) 
1.3289097274385737

>  <meeko>  (48) 
{"free_energy": -7.59, "intermolecular_energy": -9.38, "internal_energy": -1.88, "cluster_size": 38, "cluster_id": 1, "rank_in_cluster": 3}

>  <energy>  (48) 
-6.45

>  <cluster_rmsd>  (48) 
0.0

>  <cluster>  (48) 
3

$$$$

     RDKit          3D

 44 45  0  0  0  0  0  0  0  0999 V2000
  142.1740   79.7730  223.9590 C   0  0  0  0  0  0  0  0  0  0  0  0
  142.2250   80.1440  222.4830 C   0  0  0  0  0  0  0  0  0  0  0  0
  140.9980   80.9700  222.1900 C   0  0  0  0  0  0  0  0  0  0  0  0
  142.1700   78.9350  221.6830 N   0  0  0  0  0  0  0  0  0  0  0  0
  141.1120   78.0170  221.7880 C   0  0  0  0  0  0  0  0  0  0  0  0
  140.1900   78.2960  222.6210 O   0  0  0  0  0  0  0  0  0  0  0  0
  140.9710   76.7660  221.0240 C   0  0  0  0  0  0  0  0  0  0  0  0
  139.8280   75.9730  221.4030 N   0  0  0  0  0  0  0  0  0  0  0  0
  139.5950   74.7000  220.8190 C   0  0  0  0  0  0  0  0  0  0  0  0
  140.3440   74.1740  219.9570 O   0  0  0  0  0  0  0  0  0  0  0  0
  138.3790   73.9650  221.2750 C   0  0  0  0  0  0  0  0  0  0  0  0
  138.7820   73.0850  222.3510 N   0  0  0  0  0  0  0  0  0  0  0  0
  138.5580   71.6840  222.2550 C   0  0  0  0  0  0  0  0  0  0  0  0
  138.0140   71.1340  221.2630 O   0  0  0  0  0  0  0  0  0  0  0  0
  138.9900   70.8380  223.3810 C   0  0  0  0  0  0  0  0  0  0  0  0
  138.7790   69.4730  223.3590 C   0  0  0  0  0  0  0  0  0  0  0  0
  139.1870   68.6800  224.4200 C   0  0  0  0  0  0  0  0  0  0  0  0
  139.8030   69.2450  225.5040 C   0  0  0  0  0  0  0  0  0  0  0  0
  140.2310   68.5120  226.5890 C   0  0  0  0  0  0  0  0  0  0  0  0
  140.8570   69.0980  227.6870 C   0  0  0  0  0  0  0  0  0  0  0  0
  141.3810   68.1160  229.0400 Cl  0  0  0  0  0  0  0  0  0  0  0  0
  141.0470   70.4770  227.6630 C   0  0  0  0  0  0  0  0  0  0  0  0
  140.6240   71.2440  226.5760 C   0  0  0  0  0  0  0  0  0  0  0  0
  140.0060   70.6100  225.5090 C   0  0  0  0  0  0  0  0  0  0  0  0
  139.6010   71.3710  224.4650 N   0  0  0  0  0  0  0  0  0  0  0  0
  142.2986   80.6795  224.5694 H   0  0  0  0  0  0  0  0  0  0  0  0
  141.2035   79.3081  224.1869 H   0  0  0  0  0  0  0  0  0  0  0  0
  142.9830   79.0634  224.1869 H   0  0  0  0  0  0  0  0  0  0  0  0
  143.1477   80.6956  222.2500 H   0  0  0  0  0  0  0  0  0  0  0  0
  140.5325   81.2834  223.1361 H   0  0  0  0  0  0  0  0  0  0  0  0
  141.2848   81.8596  221.6101 H   0  0  0  0  0  0  0  0  0  0  0  0
  140.2817   80.3695  221.6101 H   0  0  0  0  0  0  0  0  0  0  0  0
  142.9430   78.7780  221.0160 H   0  0  0  0  0  0  0  0  0  0  0  0
  140.8773   77.0204  219.9579 H   0  0  0  0  0  0  0  0  0  0  0  0
  141.8638   76.1601  221.2380 H   0  0  0  0  0  0  0  0  0  0  0  0
  139.1690   76.3590  222.1220 H   0  0  0  0  0  0  0  0  0  0  0  0
  137.6224   74.6774  221.6356 H   0  0  0  0  0  0  0  0  0  0  0  0
  137.9403   73.3893  220.4467 H   0  0  0  0  0  0  0  0  0  0  0  0
  139.2390   73.4830  223.2010 H   0  0  0  0  0  0  0  0  0  0  0  0
  138.2831   69.0116  222.4923 H   0  0  0  0  0  0  0  0  0  0  0  0
  139.0153   67.5939  224.3909 H   0  0  0  0  0  0  0  0  0  0  0  0
  140.0726   67.4235  226.5884 H   0  0  0  0  0  0  0  0  0  0  0  0
  141.5385   70.9703  228.5145 H   0  0  0  0  0  0  0  0  0  0  0  0
  140.7784   72.3331  226.5662 H   0  0  0  0  0  0  0  0  0  0  0  0
  1  2  1  0
  2  3  1  0
  2  4  1  0
  4  5  1  0
  5  6  2  0
  5  7  1  0
  7  8  1  0
  8  9  1  0
  9 10  2  0
  9 11  1  0
 11 12  1  0
 12 13  1  0
 13 14  2  0
 13 15  1  0
 15 16  2  0
 16 17  1  0
 17 18  2  0
 18 19  1  0
 19 20  2  0
 20 21  1  0
 20 22  1  0
 22 23  2  0
 23 24  1  0
 24 25  2  0
 25 15  1  0
 24 18  1  0
  1 26  1  0
  1 27  1  0
  1 28  1  0
  2 29  1  0
  3 30  1  0
  3 31  1  0
  3 32  1  0
  4 33  1  0
  7 34  1  0
  7 35  1  0
  8 36  1  0
 11 37  1  0
 11 38  1  0
 12 39  1  0
 16 40  1  0
 17 41  1  0
 19 42  1  0
 22 43  1  0
 23 44  1  0
M  END
>  <smiles>  (49) 
CC(C)NC(=O)CNC(=O)CNC(=O)c1ccc2cc(Cl)ccc2n1

>  <score_type>  (49) 
oracle

>  <origin>  (49) 
autodockgpu

>  <m_score__min__energy>  (49) 
-7.6500000000000004

>  <m_primary>  (49) 
energy

>  <rmsd>  (49) 
1.1839168718421373

>  <m_score__min__rmsd>  (49) 
1.1839168718421373

>  <meeko>  (49) 
{"free_energy": -7.02, "intermolecular_energy": -8.81, "internal_energy": -1.68, "cluster_size": 38, "cluster_id": 1, "rank_in_cluster": 26}

>  <energy>  (49) 
-6.11

>  <cluster_rmsd>  (49) 
0.0

>  <cluster>  (49) 
4

$$$$

     RDKit          3D

 44 45  0  0  0  0  0  0  0  0999 V2000
  141.9350   70.6430  218.3650 C   0  0  0  0  0  0  0  0  0  0  0  0
  143.1580   71.3730  218.9050 C   0  0  0  0  0  0  0  0  0  0  0  0
  143.6660   70.5790  220.0820 C   0  0  0  0  0  0  0  0  0  0  0  0
  142.7640   72.6890  219.3700 N   0  0  0  0  0  0  0  0  0  0  0  0
  143.7040   73.6480  219.7830 C   0  0  0  0  0  0  0  0  0  0  0  0
  144.9310   73.3100  219.7260 O   0  0  0  0  0  0  0  0  0  0  0  0
  143.4030   75.0030  220.2730 C   0  0  0  0  0  0  0  0  0  0  0  0
  142.1350   75.1150  220.9500 N   0  0  0  0  0  0  0  0  0  0  0  0
  140.9120   75.0240  220.2340 C   0  0  0  0  0  0  0  0  0  0  0  0
  140.8360   74.8380  218.9930 O   0  0  0  0  0  0  0  0  0  0  0  0
  139.6570   75.1620  221.0290 C   0  0  0  0  0  0  0  0  0  0  0  0
  139.7040   74.1750  222.0880 N   0  0  0  0  0  0  0  0  0  0  0  0
  139.9180   72.8030  221.7810 C   0  0  0  0  0  0  0  0  0  0  0  0
  140.0770   72.3690  220.6100 O   0  0  0  0  0  0  0  0  0  0  0  0
  139.9560   71.8450  222.8990 C   0  0  0  0  0  0  0  0  0  0  0  0
  139.5140   70.5470  222.7300 C   0  0  0  0  0  0  0  0  0  0  0  0
  139.5510   69.6480  223.7850 C   0  0  0  0  0  0  0  0  0  0  0  0
  140.0280   70.0390  225.0070 C   0  0  0  0  0  0  0  0  0  0  0  0
  140.0910   69.1940  226.0920 C   0  0  0  0  0  0  0  0  0  0  0  0
  140.5770   69.6040  227.3310 C   0  0  0  0  0  0  0  0  0  0  0  0
  140.6350   68.4850  228.6790 Cl  0  0  0  0  0  0  0  0  0  0  0  0
  141.0120   70.9220  227.4520 C   0  0  0  0  0  0  0  0  0  0  0  0
  140.9600   71.7990  226.3680 C   0  0  0  0  0  0  0  0  0  0  0  0
  140.4660   71.3400  225.1570 C   0  0  0  0  0  0  0  0  0  0  0  0
  140.4230   72.2060  224.1170 N   0  0  0  0  0  0  0  0  0  0  0  0
  141.3249   70.2788  219.2048 H   0  0  0  0  0  0  0  0  0  0  0  0
  141.3381   71.3327  217.7502 H   0  0  0  0  0  0  0  0  0  0  0  0
  142.2588   69.7903  217.7502 H   0  0  0  0  0  0  0  0  0  0  0  0
  143.9277   71.4757  218.1259 H   0  0  0  0  0  0  0  0  0  0  0  0
  143.3533   71.0678  221.0165 H   0  0  0  0  0  0  0  0  0  0  0  0
  143.2511   69.5610  220.0441 H   0  0  0  0  0  0  0  0  0  0  0  0
  144.7642   70.5290  220.0441 H   0  0  0  0  0  0  0  0  0  0  0  0
  141.7540   72.9020  219.3770 H   0  0  0  0  0  0  0  0  0  0  0  0
  144.1966   75.3013  220.9739 H   0  0  0  0  0  0  0  0  0  0  0  0
  143.3500   75.6558  219.3893 H   0  0  0  0  0  0  0  0  0  0  0  0
  142.1360   75.2670  221.9880 H   0  0  0  0  0  0  0  0  0  0  0  0
  139.5938   76.1724  221.4593 H   0  0  0  0  0  0  0  0  0  0  0  0
  138.7744   75.0057  220.3914 H   0  0  0  0  0  0  0  0  0  0  0  0
  139.5790   74.4750  223.0790 H   0  0  0  0  0  0  0  0  0  0  0  0
  139.1299   70.2243  221.7511 H   0  0  0  0  0  0  0  0  0  0  0  0
  139.1958   68.6171  223.6395 H   0  0  0  0  0  0  0  0  0  0  0  0
  139.7446   68.1564  225.9760 H   0  0  0  0  0  0  0  0  0  0  0  0
  141.4025   71.2768  228.4172 H   0  0  0  0  0  0  0  0  0  0  0  0
  141.3055   72.8381  226.4728 H   0  0  0  0  0  0  0  0  0  0  0  0
  1  2  1  0
  2  3  1  0
  2  4  1  0
  4  5  1  0
  5  6  2  0
  5  7  1  0
  7  8  1  0
  8  9  1  0
  9 10  2  0
  9 11  1  0
 11 12  1  0
 12 13  1  0
 13 14  2  0
 13 15  1  0
 15 16  2  0
 16 17  1  0
 17 18  2  0
 18 19  1  0
 19 20  2  0
 20 21  1  0
 20 22  1  0
 22 23  2  0
 23 24  1  0
 24 25  2  0
 25 15  1  0
 24 18  1  0
  1 26  1  0
  1 27  1  0
  1 28  1  0
  2 29  1  0
  3 30  1  0
  3 31  1  0
  3 32  1  0
  4 33  1  0
  7 34  1  0
  7 35  1  0
  8 36  1  0
 11 37  1  0
 11 38  1  0
 12 39  1  0
 16 40  1  0
 17 41  1  0
 19 42  1  0
 22 43  1  0
 23 44  1  0
M  END
>  <smiles>  (50) 
CC(C)NC(=O)CNC(=O)CNC(=O)c1ccc2cc(Cl)ccc2n1

>  <score_type>  (50) 
oracle

>  <origin>  (50) 
autodockgpu

>  <m_score__min__energy>  (50) 
-7.6500000000000004

>  <m_primary>  (50) 
energy

>  <rmsd>  (50) 
5.0977991521003085

>  <m_score__min__rmsd>  (50) 
5.0977991521003085

>  <meeko>  (50) 
{"free_energy": -5.97, "intermolecular_energy": -7.76, "internal_energy": -3.03, "cluster_size": 9, "cluster_id": 2, "rank_in_cluster": 9}

>  <energy>  (50) 
-5.95

>  <cluster_rmsd>  (50) 
0.0

>  <cluster>  (50) 
5

$$$$
