
     RDKit          3D

 70 74  0  0  0  0  0  0  0  0999 V2000
  141.9300   81.4120  223.6170 C   0  0  0  0  0  0  0  0  0  0  0  0
  140.7890   80.7230  223.0990 N   0  0  0  0  0  0  0  0  0  0  0  0
  140.8390   80.4770  221.6690 C   0  0  0  0  0  0  0  0  0  0  0  0
  141.8270   79.4200  221.3040 C   0  0  0  0  0  0  0  0  0  0  0  0
  141.6560   78.2420  222.0770 N   0  0  0  0  0  0  0  0  0  0  0  0
  140.6940   77.2990  221.6190 C   0  0  0  0  0  0  0  0  0  0  0  0
  141.4020   76.1300  221.0360 C   0  0  0  0  0  0  0  0  0  0  0  0
  142.3200   76.2170  220.0210 C   0  0  0  0  0  0  0  0  0  0  0  0
  142.9350   75.0870  219.5290 C   0  0  0  0  0  0  0  0  0  0  0  0
  142.6200   73.8340  220.0720 C   0  0  0  0  0  0  0  0  0  0  0  0
  141.7050   73.7170  221.0880 C   0  0  0  0  0  0  0  0  0  0  0  0
  141.3370   72.4200  221.6930 C   0  0  0  0  0  0  0  0  0  0  0  0
  140.3130   72.2290  222.4570 C   0  0  0  0  0  0  0  0  0  0  0  0
  140.0960   71.4010  223.5990 C   0  0  0  0  0  0  0  0  0  0  0  0
  140.6360   71.8750  224.7750 N   0  0  0  0  0  0  0  0  0  0  0  0
  140.5800   71.2910  225.9410 C   0  0  0  0  0  0  0  0  0  0  0  0
  141.1690   71.8900  227.0310 C   0  0  0  0  0  0  0  0  0  0  0  0
  141.0690   71.2140  228.2330 C   0  0  0  0  0  0  0  0  0  0  0  0
  140.4190   70.0040  228.3540 C   0  0  0  0  0  0  0  0  0  0  0  0
  139.8250   69.4110  227.2380 C   0  0  0  0  0  0  0  0  0  0  0  0
  139.9290   70.0880  226.0530 C   0  0  0  0  0  0  0  0  0  0  0  0
  139.3760   69.5790  224.9020 C   0  0  0  0  0  0  0  0  0  0  0  0
  138.7820   68.4740  225.0030 O   0  0  0  0  0  0  0  0  0  0  0  0
  139.4640   70.2390  223.6940 N   0  0  0  0  0  0  0  0  0  0  0  0
  138.8300   69.5780  222.6000 C   0  0  0  0  0  0  0  0  0  0  0  0
  137.5870   70.1950  222.0650 C   0  0  0  0  0  0  0  0  0  0  0  0
  136.4520   69.1660  222.1170 C   0  0  0  0  0  0  0  0  0  0  0  0
  136.0130   68.8980  223.5130 C   0  0  0  0  0  0  0  0  0  0  0  0
  136.1120   70.0390  224.4630 C   0  0  0  0  0  0  0  0  0  0  0  0
  136.2580   71.3890  223.8570 C   0  0  0  0  0  0  0  0  0  0  0  0
  137.1610   71.4930  222.6700 C   0  0  0  0  0  0  0  0  0  0  0  0
  141.1200   74.8820  221.5420 C   0  0  0  0  0  0  0  0  0  0  0  0
  141.6830   78.5190  223.4650 C   0  0  0  0  0  0  0  0  0  0  0  0
  140.5700   79.4770  223.8170 C   0  0  0  0  0  0  0  0  0  0  0  0
  141.9010   81.3945  224.7165 H   0  0  0  0  0  0  0  0  0  0  0  0
  142.8476   80.9169  223.2665 H   0  0  0  0  0  0  0  0  0  0  0  0
  141.9191   82.4546  223.2665 H   0  0  0  0  0  0  0  0  0  0  0  0
  139.8417   80.1592  221.3309 H   0  0  0  0  0  0  0  0  0  0  0  0
  141.1538   81.4110  221.1805 H   0  0  0  0  0  0  0  0  0  0  0  0
  141.7011   79.1683  220.2406 H   0  0  0  0  0  0  0  0  0  0  0  0
  142.8346   79.8137  221.5033 H   0  0  0  0  0  0  0  0  0  0  0  0
  140.0702   76.9691  222.4628 H   0  0  0  0  0  0  0  0  0  0  0  0
  140.0524   77.7635  220.8557 H   0  0  0  0  0  0  0  0  0  0  0  0
  142.5680   77.2003  219.5949 H   0  0  0  0  0  0  0  0  0  0  0  0
  143.6695   75.1676  218.7142 H   0  0  0  0  0  0  0  0  0  0  0  0
  143.1126   72.9326  219.6787 H   0  0  0  0  0  0  0  0  0  0  0  0
  141.9814   71.5550  221.4773 H   0  0  0  0  0  0  0  0  0  0  0  0
  139.4327   72.8230  222.1702 H   0  0  0  0  0  0  0  0  0  0  0  0
  141.6913   72.8547  226.9503 H   0  0  0  0  0  0  0  0  0  0  0  0
  141.5264   71.6594  229.1288 H   0  0  0  0  0  0  0  0  0  0  0  0
  140.3682   69.5043  229.3326 H   0  0  0  0  0  0  0  0  0  0  0  0
  139.2994   68.4472  227.3078 H   0  0  0  0  0  0  0  0  0  0  0  0
  139.5570   69.5289  221.7760 H   0  0  0  0  0  0  0  0  0  0  0  0
  138.5148   68.6031  223.0001 H   0  0  0  0  0  0  0  0  0  0  0  0
  137.8329   70.4766  221.0305 H   0  0  0  0  0  0  0  0  0  0  0  0
  135.5964   69.5502  221.5422 H   0  0  0  0  0  0  0  0  0  0  0  0
  136.8247   68.2238  221.6889 H   0  0  0  0  0  0  0  0  0  0  0  0
  134.9605   68.5801  223.4787 H   0  0  0  0  0  0  0  0  0  0  0  0
  136.7044   68.1337  223.8976 H   0  0  0  0  0  0  0  0  0  0  0  0
  135.1995   70.0441  225.0772 H   0  0  0  0  0  0  0  0  0  0  0  0
  137.0394   69.8696  225.0297 H   0  0  0  0  0  0  0  0  0  0  0  0
  135.2579   71.7260  223.5467 H   0  0  0  0  0  0  0  0  0  0  0  0
  136.7276   72.0084  224.6353 H   0  0  0  0  0  0  0  0  0  0  0  0
  136.6358   72.0709  221.8953 H   0  0  0  0  0  0  0  0  0  0  0  0
  138.0822   71.9708  223.0347 H   0  0  0  0  0  0  0  0  0  0  0  0
  140.3847   74.8082  222.3568 H   0  0  0  0  0  0  0  0  0  0  0  0
  141.5503   77.5827  224.0269 H   0  0  0  0  0  0  0  0  0  0  0  0
  142.6499   78.9739  223.7259 H   0  0  0  0  0  0  0  0  0  0  0  0
  139.6019   79.0449  223.5236 H   0  0  0  0  0  0  0  0  0  0  0  0
  140.5618   79.6632  224.9011 H   0  0  0  0  0  0  0  0  0  0  0  0
  1  2  1  0
  2  3  1  0
  3  4  1  0
  4  5  1  0
  5  6  1  0
  6  7  1  0
  7  8  2  0
  8  9  1  0
  9 10  2  0
 10 11  1  0
 11 12  1  0
 12 13  2  0
 13 14  1  0
 14 15  2  0
 15 16  1  0
 16 17  2  0
 17 18  1  0
 18 19  2  0
 19 20  1  0
 20 21  2  0
 21 22  1  0
 22 23  2  0
 22 24  1  0
 24 25  1  0
 25 26  1  0
 26 27  1  0
 27 28  1  0
 28 29  1  0
 29 30  1  0
 30 31  1  0
 11 32  2  0
  5 33  1  0
 33 34  1  0
 34  2  1  0
 32  7  1  0
 24 14  1  0
 31 26  1  0
 21 16  1  0
  1 35  1  0
  1 36  1  0
  1 37  1  0
  3 38  1  0
  3 39  1  0
  4 40  1  0
  4 41  1  0
  6 42  1  0
  6 43  1  0
  8 44  1  0
  9 45  1  0
 10 46  1  0
 12 47  1  0
 13 48  1  0
 17 49  1  0
 18 50  1  0
 19 51  1  0
 20 52  1  0
 25 53  1  0
 25 54  1  0
 26 55  1  0
 27 56  1  0
 27 57  1  0
 28 58  1  0
 28 59  1  0
 29 60  1  0
 29 61  1  0
 30 62  1  0
 30 63  1  0
 31 64  1  0
 31 65  1  0
 32 66  1  0
 33 67  1  0
 33 68  1  0
 34 69  1  0
 34 70  1  0
M  END
>  <smiles>  (1) 
CN1CCN(Cc2cccc(/C=C/c3nc4ccccc4c(=O)n3CC3CCCCC3)c2)CC1

>  <score_type>  (1) 
oracle

>  <origin>  (1) 
autodockgpu

>  <m_score__min__energy>  (1) 
-9.4000000000000004

>  <m_primary>  (1) 
energy

>  <rmsd>  (1) 
11.155312944035082

>  <m_score__min__rmsd>  (1) 
11.155312944035082

>  <meeko>  (1) 
{"free_energy": -9.11, "intermolecular_energy": -11.2, "internal_energy": -1.89, "cluster_size": 35, "cluster_id": 1, "rank_in_cluster": 7}

>  <energy>  (1) 
-9.4

>  <cluster_rmsd>  (1) 
0.0

>  <cluster>  (1) 
1

$$$$

     RDKit          3D

 70 74  0  0  0  0  0  0  0  0999 V2000
  142.4060   80.9930  223.4650 C   0  0  0  0  0  0  0  0  0  0  0  0
  141.1190   80.5800  222.9990 N   0  0  0  0  0  0  0  0  0  0  0  0
  141.0730   80.2570  221.5850 C   0  0  0  0  0  0  0  0  0  0  0  0
  141.7620   78.9720  221.2680 C   0  0  0  0  0  0  0  0  0  0  0  0
  141.3250   77.9140  222.1070 N   0  0  0  0  0  0  0  0  0  0  0  0
  140.1510   77.2140  221.7110 C   0  0  0  0  0  0  0  0  0  0  0  0
  140.4760   75.7730  221.5540 C   0  0  0  0  0  0  0  0  0  0  0  0
  141.6560   75.3050  221.0360 C   0  0  0  0  0  0  0  0  0  0  0  0
  141.8860   73.9520  220.9170 C   0  0  0  0  0  0  0  0  0  0  0  0
  140.9030   73.0430  221.3320 C   0  0  0  0  0  0  0  0  0  0  0  0
  139.7120   73.4830  221.8540 C   0  0  0  0  0  0  0  0  0  0  0  0
  138.6440   72.5660  222.3030 C   0  0  0  0  0  0  0  0  0  0  0  0
  138.8110   71.3080  222.5480 C   0  0  0  0  0  0  0  0  0  0  0  0
  139.1270   70.5860  223.7370 C   0  0  0  0  0  0  0  0  0  0  0  0
  139.7450   71.3250  224.7220 N   0  0  0  0  0  0  0  0  0  0  0  0
  140.1400   70.8830  225.8860 C   0  0  0  0  0  0  0  0  0  0  0  0
  140.7460   71.7460  226.7710 C   0  0  0  0  0  0  0  0  0  0  0  0
  141.1370   71.2090  227.9840 C   0  0  0  0  0  0  0  0  0  0  0  0
  140.9400   69.8830  228.3070 C   0  0  0  0  0  0  0  0  0  0  0  0
  140.3230   69.0220  227.3990 C   0  0  0  0  0  0  0  0  0  0  0  0
  139.9390   69.5630  226.2010 C   0  0  0  0  0  0  0  0  0  0  0  0
  139.3260   68.7890  225.2450 C   0  0  0  0  0  0  0  0  0  0  0  0
  139.1440   67.5780  225.5310 O   0  0  0  0  0  0  0  0  0  0  0  0
  138.9270   69.3070  224.0300 N   0  0  0  0  0  0  0  0  0  0  0  0
  138.2990   68.3720  223.1540 C   0  0  0  0  0  0  0  0  0  0  0  0
  139.1680   67.6830  222.1640 C   0  0  0  0  0  0  0  0  0  0  0  0
  138.8520   66.1820  222.1760 C   0  0  0  0  0  0  0  0  0  0  0  0
  137.5200   65.8930  221.5790 C   0  0  0  0  0  0  0  0  0  0  0  0
  137.0790   66.8010  220.4870 C   0  0  0  0  0  0  0  0  0  0  0  0
  138.1390   67.6310  219.8530 C   0  0  0  0  0  0  0  0  0  0  0  0
  139.1630   68.2190  220.7700 C   0  0  0  0  0  0  0  0  0  0  0  0
  139.5360   74.8480  221.9490 C   0  0  0  0  0  0  0  0  0  0  0  0
  141.4530   78.2460  223.4760 C   0  0  0  0  0  0  0  0  0  0  0  0
  140.6180   79.4640  223.7870 C   0  0  0  0  0  0  0  0  0  0  0  0
  142.4142   80.9956  224.5650 H   0  0  0  0  0  0  0  0  0  0  0  0
  143.1714   80.2954  223.0943 H   0  0  0  0  0  0  0  0  0  0  0  0
  142.6226   82.0057  223.0943 H   0  0  0  0  0  0  0  0  0  0  0  0
  140.0204   80.1782  221.2756 H   0  0  0  0  0  0  0  0  0  0  0  0
  141.5960   81.0585  221.0427 H   0  0  0  0  0  0  0  0  0  0  0  0
  141.5525   78.7053  220.2216 H   0  0  0  0  0  0  0  0  0  0  0  0
  142.8401   79.1143  221.4338 H   0  0  0  0  0  0  0  0  0  0  0  0
  139.3730   77.3349  222.4791 H   0  0  0  0  0  0  0  0  0  0  0  0
  139.7822   77.6176  220.7565 H   0  0  0  0  0  0  0  0  0  0  0  0
  142.4281   76.0182  220.7116 H   0  0  0  0  0  0  0  0  0  0  0  0
  142.8357   73.5870  220.4987 H   0  0  0  0  0  0  0  0  0  0  0  0
  141.0884   71.9628  221.2382 H   0  0  0  0  0  0  0  0  0  0  0  0
  137.6354   72.9835  222.4383 H   0  0  0  0  0  0  0  0  0  0  0  0
  138.6842   70.6663  221.6636 H   0  0  0  0  0  0  0  0  0  0  0  0
  140.9104   72.8058  226.5265 H   0  0  0  0  0  0  0  0  0  0  0  0
  141.6242   71.8654  228.7200 H   0  0  0  0  0  0  0  0  0  0  0  0
  141.2707   69.5025  229.2847 H   0  0  0  0  0  0  0  0  0  0  0  0
  140.1533   67.9608  227.6338 H   0  0  0  0  0  0  0  0  0  0  0  0
  137.8287   67.5976  223.7778 H   0  0  0  0  0  0  0  0  0  0  0  0
  137.6005   68.9712  222.5515 H   0  0  0  0  0  0  0  0  0  0  0  0
  140.1957   67.8851  222.5001 H   0  0  0  0  0  0  0  0  0  0  0  0
  139.6235   65.6511  221.5991 H   0  0  0  0  0  0  0  0  0  0  0  0
  138.8383   65.8438  223.2226 H   0  0  0  0  0  0  0  0  0  0  0  0
  137.5483   64.8705  221.1744 H   0  0  0  0  0  0  0  0  0  0  0  0
  136.7948   66.0379  222.3933 H   0  0  0  0  0  0  0  0  0  0  0  0
  136.6220   66.1825  219.7005 H   0  0  0  0  0  0  0  0  0  0  0  0
  136.3894   67.5158  220.9597 H   0  0  0  0  0  0  0  0  0  0  0  0
  138.6670   66.9990  219.1237 H   0  0  0  0  0  0  0  0  0  0  0  0
  137.6121   68.4914  219.4147 H   0  0  0  0  0  0  0  0  0  0  0  0
  140.1550   68.0327  220.3327 H   0  0  0  0  0  0  0  0  0  0  0  0
  138.9081   69.2853  220.8597 H   0  0  0  0  0  0  0  0  0  0  0  0
  138.5880   75.2195  222.3652 H   0  0  0  0  0  0  0  0  0  0  0  0
  141.1091   77.4009  224.0904 H   0  0  0  0  0  0  0  0  0  0  0  0
  142.5080   78.4621  223.7001 H   0  0  0  0  0  0  0  0  0  0  0  0
  139.5667   79.2693  223.5282 H   0  0  0  0  0  0  0  0  0  0  0  0
  140.6814   79.7009  224.8593 H   0  0  0  0  0  0  0  0  0  0  0  0
  1  2  1  0
  2  3  1  0
  3  4  1  0
  4  5  1  0
  5  6  1  0
  6  7  1  0
  7  8  2  0
  8  9  1  0
  9 10  2  0
 10 11  1  0
 11 12  1  0
 12 13  2  0
 13 14  1  0
 14 15  2  0
 15 16  1  0
 16 17  2  0
 17 18  1  0
 18 19  2  0
 19 20  1  0
 20 21  2  0
 21 22  1  0
 22 23  2  0
 22 24  1  0
 24 25  1  0
 25 26  1  0
 26 27  1  0
 27 28  1  0
 28 29  1  0
 29 30  1  0
 30 31  1  0
 11 32  2  0
  5 33  1  0
 33 34  1  0
 34  2  1  0
 32  7  1  0
 24 14  1  0
 31 26  1  0
 21 16  1  0
  1 35  1  0
  1 36  1  0
  1 37  1  0
  3 38  1  0
  3 39  1  0
  4 40  1  0
  4 41  1  0
  6 42  1  0
  6 43  1  0
  8 44  1  0
  9 45  1  0
 10 46  1  0
 12 47  1  0
 13 48  1  0
 17 49  1  0
 18 50  1  0
 19 51  1  0
 20 52  1  0
 25 53  1  0
 25 54  1  0
 26 55  1  0
 27 56  1  0
 27 57  1  0
 28 58  1  0
 28 59  1  0
 29 60  1  0
 29 61  1  0
 30 62  1  0
 30 63  1  0
 31 64  1  0
 31 65  1  0
 32 66  1  0
 33 67  1  0
 33 68  1  0
 34 69  1  0
 34 70  1  0
M  END
>  <smiles>  (2) 
CN1CCN(Cc2cccc(/C=C/c3nc4ccccc4c(=O)n3CC3CCCCC3)c2)CC1

>  <score_type>  (2) 
oracle

>  <origin>  (2) 
autodockgpu

>  <m_score__min__energy>  (2) 
-9.4000000000000004

>  <m_primary>  (2) 
energy

>  <rmsd>  (2) 
11.835573406070353

>  <m_score__min__rmsd>  (2) 
11.835573406070353

>  <meeko>  (2) 
{"free_energy": -9.32, "intermolecular_energy": -11.41, "internal_energy": -1.69, "cluster_size": 35, "cluster_id": 1, "rank_in_cluster": 2}

>  <energy>  (2) 
-9.32

>  <cluster_rmsd>  (2) 
1.49

>  <cluster>  (2) 
1

$$$$

     RDKit          3D

 70 74  0  0  0  0  0  0  0  0999 V2000
  141.2770   68.5420  228.4440 C   0  0  0  0  0  0  0  0  0  0  0  0
  140.1040   69.2860  228.1040 N   0  0  0  0  0  0  0  0  0  0  0  0
  140.3280   70.7110  227.9440 C   0  0  0  0  0  0  0  0  0  0  0  0
  141.0750   71.0370  226.6930 C   0  0  0  0  0  0  0  0  0  0  0  0
  140.4970   70.4200  225.5530 N   0  0  0  0  0  0  0  0  0  0  0  0
  139.4230   71.1060  224.9180 C   0  0  0  0  0  0  0  0  0  0  0  0
  139.6930   71.1830  223.4590 C   0  0  0  0  0  0  0  0  0  0  0  0
  139.6470   70.1050  222.6130 C   0  0  0  0  0  0  0  0  0  0  0  0
  139.9120   70.2530  221.2690 C   0  0  0  0  0  0  0  0  0  0  0  0
  140.2300   71.5190  220.7610 C   0  0  0  0  0  0  0  0  0  0  0  0
  140.2840   72.6160  221.5850 C   0  0  0  0  0  0  0  0  0  0  0  0
  140.6170   73.9710  221.0980 C   0  0  0  0  0  0  0  0  0  0  0  0
  140.6250   75.0340  221.8330 C   0  0  0  0  0  0  0  0  0  0  0  0
  141.0530   76.3740  221.5940 C   0  0  0  0  0  0  0  0  0  0  0  0
  141.0340   77.1990  222.6980 N   0  0  0  0  0  0  0  0  0  0  0  0
  141.3670   78.4610  222.7240 C   0  0  0  0  0  0  0  0  0  0  0  0
  141.2970   79.1580  223.9090 C   0  0  0  0  0  0  0  0  0  0  0  0
  141.6650   80.4900  223.8610 C   0  0  0  0  0  0  0  0  0  0  0  0
  142.0820   81.1050  222.7000 C   0  0  0  0  0  0  0  0  0  0  0  0
  142.1480   80.3840  221.5070 C   0  0  0  0  0  0  0  0  0  0  0  0
  141.7820   79.0650  221.5640 C   0  0  0  0  0  0  0  0  0  0  0  0
  141.8150   78.2780  220.4380 C   0  0  0  0  0  0  0  0  0  0  0  0
  142.1910   78.8310  219.3730 O   0  0  0  0  0  0  0  0  0  0  0  0
  141.4530   76.9470  220.4660 N   0  0  0  0  0  0  0  0  0  0  0  0
  141.5510   76.2700  219.2130 C   0  0  0  0  0  0  0  0  0  0  0  0
  142.9100   76.1280  218.6260 C   0  0  0  0  0  0  0  0  0  0  0  0
  143.9200   75.8770  219.7520 C   0  0  0  0  0  0  0  0  0  0  0  0
  143.7640   74.5210  220.3440 C   0  0  0  0  0  0  0  0  0  0  0  0
  143.3050   73.4500  219.4190 C   0  0  0  0  0  0  0  0  0  0  0  0
  143.4250   73.7400  217.9650 C   0  0  0  0  0  0  0  0  0  0  0  0
  143.0710   75.1260  217.5300 C   0  0  0  0  0  0  0  0  0  0  0  0
  140.0090   72.4100  222.9210 C   0  0  0  0  0  0  0  0  0  0  0  0
  140.3620   69.0220  225.7260 C   0  0  0  0  0  0  0  0  0  0  0  0
  139.4730   68.7380  226.9130 C   0  0  0  0  0  0  0  0  0  0  0  0
  141.3695   68.4833  229.5385 H   0  0  0  0  0  0  0  0  0  0  0  0
  141.2008   67.5268  228.0275 H   0  0  0  0  0  0  0  0  0  0  0  0
  142.1629   69.0436  228.0275 H   0  0  0  0  0  0  0  0  0  0  0  0
  139.3533   71.2200  227.9153 H   0  0  0  0  0  0  0  0  0  0  0  0
  140.9375   71.0504  228.7945 H   0  0  0  0  0  0  0  0  0  0  0  0
  141.0676   72.1275  226.5488 H   0  0  0  0  0  0  0  0  0  0  0  0
  142.1016   70.6572  226.8013 H   0  0  0  0  0  0  0  0  0  0  0  0
  138.4836   70.5605  225.0909 H   0  0  0  0  0  0  0  0  0  0  0  0
  139.3332   72.1207  225.3332 H   0  0  0  0  0  0  0  0  0  0  0  0
  139.3958   69.1110  223.0117 H   0  0  0  0  0  0  0  0  0  0  0  0
  139.8740   69.3817  220.5986 H   0  0  0  0  0  0  0  0  0  0  0  0
  140.4393   71.6360  219.6874 H   0  0  0  0  0  0  0  0  0  0  0  0
  140.8764   74.0827  220.0349 H   0  0  0  0  0  0  0  0  0  0  0  0
  140.2217   74.8739  222.8438 H   0  0  0  0  0  0  0  0  0  0  0  0
  140.9662   78.6812  224.8435 H   0  0  0  0  0  0  0  0  0  0  0  0
  141.6233   81.0828  224.7867 H   0  0  0  0  0  0  0  0  0  0  0  0
  142.3638   82.1682  222.7139 H   0  0  0  0  0  0  0  0  0  0  0  0
  142.4775   80.8515  220.5674 H   0  0  0  0  0  0  0  0  0  0  0  0
  141.1414   75.2583  219.3497 H   0  0  0  0  0  0  0  0  0  0  0  0
  140.9982   76.9026  218.5029 H   0  0  0  0  0  0  0  0  0  0  0  0
  143.1005   77.0833  218.1150 H   0  0  0  0  0  0  0  0  0  0  0  0
  144.9375   75.9727  219.3451 H   0  0  0  0  0  0  0  0  0  0  0  0
  143.7389   76.6182  220.5444 H   0  0  0  0  0  0  0  0  0  0  0  0
  144.7401   74.2179  220.7506 H   0  0  0  0  0  0  0  0  0  0  0  0
  142.9700   74.6186  221.0989 H   0  0  0  0  0  0  0  0  0  0  0  0
  143.8971   72.5475  219.6309 H   0  0  0  0  0  0  0  0  0  0  0  0
  142.2270   73.3403  219.6086 H   0  0  0  0  0  0  0  0  0  0  0  0
  144.4689   73.5541  217.6721 H   0  0  0  0  0  0  0  0  0  0  0  0
  142.6897   73.0844  217.4756 H   0  0  0  0  0  0  0  0  0  0  0  0
  143.8666   75.4833  216.8597 H   0  0  0  0  0  0  0  0  0  0  0  0
  142.0847   75.0465  217.0494 H   0  0  0  0  0  0  0  0  0  0  0  0
  140.0443   73.2776  223.5964 H   0  0  0  0  0  0  0  0  0  0  0  0
  139.9151   68.5834  224.8216 H   0  0  0  0  0  0  0  0  0  0  0  0
  141.3539   68.5798  225.9006 H   0  0  0  0  0  0  0  0  0  0  0  0
  138.4911   69.2104  226.7626 H   0  0  0  0  0  0  0  0  0  0  0  0
  139.3314   67.6531  227.0268 H   0  0  0  0  0  0  0  0  0  0  0  0
  1  2  1  0
  2  3  1  0
  3  4  1  0
  4  5  1  0
  5  6  1  0
  6  7  1  0
  7  8  2  0
  8  9  1  0
  9 10  2  0
 10 11  1  0
 11 12  1  0
 12 13  2  0
 13 14  1  0
 14 15  2  0
 15 16  1  0
 16 17  2  0
 17 18  1  0
 18 19  2  0
 19 20  1  0
 20 21  2  0
 21 22  1  0
 22 23  2  0
 22 24  1  0
 24 25  1  0
 25 26  1  0
 26 27  1  0
 27 28  1  0
 28 29  1  0
 29 30  1  0
 30 31  1  0
 11 32  2  0
  5 33  1  0
 33 34  1  0
 34  2  1  0
 32  7  1  0
 24 14  1  0
 31 26  1  0
 21 16  1  0
  1 35  1  0
  1 36  1  0
  1 37  1  0
  3 38  1  0
  3 39  1  0
  4 40  1  0
  4 41  1  0
  6 42  1  0
  6 43  1  0
  8 44  1  0
  9 45  1  0
 10 46  1  0
 12 47  1  0
 13 48  1  0
 17 49  1  0
 18 50  1  0
 19 51  1  0
 20 52  1  0
 25 53  1  0
 25 54  1  0
 26 55  1  0
 27 56  1  0
 27 57  1  0
 28 58  1  0
 28 59  1  0
 29 60  1  0
 29 61  1  0
 30 62  1  0
 30 63  1  0
 31 64  1  0
 31 65  1  0
 32 66  1  0
 33 67  1  0
 33 68  1  0
 34 69  1  0
 34 70  1  0
M  END
>  <smiles>  (3) 
CN1CCN(Cc2cccc(/C=C/c3nc4ccccc4c(=O)n3CC3CCCCC3)c2)CC1

>  <score_type>  (3) 
oracle

>  <origin>  (3) 
autodockgpu

>  <m_score__min__energy>  (3) 
-9.4000000000000004

>  <m_primary>  (3) 
energy

>  <rmsd>  (3) 
3.8981267698937248

>  <m_score__min__rmsd>  (3) 
3.8981267698937248

>  <meeko>  (3) 
{"free_energy": -8.79, "intermolecular_energy": -10.88, "internal_energy": -1.92, "cluster_size": 1, "cluster_id": 3, "rank_in_cluster": 1}

>  <energy>  (3) 
-9.28

>  <cluster_rmsd>  (3) 
0.69

>  <cluster>  (3) 
1

$$$$

     RDKit          3D

 70 74  0  0  0  0  0  0  0  0999 V2000
  141.7800   80.6140  223.1920 C   0  0  0  0  0  0  0  0  0  0  0  0
  141.0530   79.5900  223.8750 N   0  0  0  0  0  0  0  0  0  0  0  0
  139.6130   79.6700  223.7070 C   0  0  0  0  0  0  0  0  0  0  0  0
  139.1730   79.2730  222.3380 C   0  0  0  0  0  0  0  0  0  0  0  0
  139.7230   78.0250  221.9440 N   0  0  0  0  0  0  0  0  0  0  0  0
  139.0280   76.8510  222.3500 C   0  0  0  0  0  0  0  0  0  0  0  0
  139.4780   75.7080  221.5150 C   0  0  0  0  0  0  0  0  0  0  0  0
  139.7530   75.7990  220.1750 C   0  0  0  0  0  0  0  0  0  0  0  0
  140.1640   74.6940  219.4640 C   0  0  0  0  0  0  0  0  0  0  0  0
  140.3040   73.4620  220.1170 C   0  0  0  0  0  0  0  0  0  0  0  0
  140.0360   73.3410  221.4590 C   0  0  0  0  0  0  0  0  0  0  0  0
  140.1670   72.0660  222.1930 C   0  0  0  0  0  0  0  0  0  0  0  0
  139.9360   71.9180  223.4560 C   0  0  0  0  0  0  0  0  0  0  0  0
  139.9230   70.7770  224.3120 C   0  0  0  0  0  0  0  0  0  0  0  0
  140.4450   70.9840  225.5700 N   0  0  0  0  0  0  0  0  0  0  0  0
  140.5520   70.0930  226.5180 C   0  0  0  0  0  0  0  0  0  0  0  0
  141.0970   70.4510  227.7300 C   0  0  0  0  0  0  0  0  0  0  0  0
  141.1770   69.4560  228.6870 C   0  0  0  0  0  0  0  0  0  0  0  0
  140.7410   68.1680  228.4580 C   0  0  0  0  0  0  0  0  0  0  0  0
  140.1900   67.8220  227.2230 C   0  0  0  0  0  0  0  0  0  0  0  0
  140.1140   68.8140  226.2830 C   0  0  0  0  0  0  0  0  0  0  0  0
  139.5870   68.5640  225.0390 C   0  0  0  0  0  0  0  0  0  0  0  0
  139.1880   67.3910  224.8200 O   0  0  0  0  0  0  0  0  0  0  0  0
  139.4960   69.5440  224.0720 N   0  0  0  0  0  0  0  0  0  0  0  0
  138.9170   69.1200  222.8380 C   0  0  0  0  0  0  0  0  0  0  0  0
  137.4560   68.8440  222.8360 C   0  0  0  0  0  0  0  0  0  0  0  0
  136.8000   69.5980  224.0000 C   0  0  0  0  0  0  0  0  0  0  0  0
  136.7740   71.0660  223.7620 C   0  0  0  0  0  0  0  0  0  0  0  0
  136.6440   71.5000  222.3450 C   0  0  0  0  0  0  0  0  0  0  0  0
  136.1730   70.4690  221.3820 C   0  0  0  0  0  0  0  0  0  0  0  0
  136.7230   69.0900  221.5590 C   0  0  0  0  0  0  0  0  0  0  0  0
  139.6280   74.4820  222.1210 C   0  0  0  0  0  0  0  0  0  0  0  0
  141.1330   78.0170  222.0570 C   0  0  0  0  0  0  0  0  0  0  0  0
  141.5320   78.2720  223.4900 C   0  0  0  0  0  0  0  0  0  0  0  0
  142.2533   81.2807  223.9279 H   0  0  0  0  0  0  0  0  0  0  0  0
  142.5554   80.1547  222.5613 H   0  0  0  0  0  0  0  0  0  0  0  0
  141.0907   81.1946  222.5613 H   0  0  0  0  0  0  0  0  0  0  0  0
  139.1352   79.0017  224.4384 H   0  0  0  0  0  0  0  0  0  0  0  0
  139.3169   80.7181  223.8617 H   0  0  0  0  0  0  0  0  0  0  0  0
  138.0757   79.1974  222.3256 H   0  0  0  0  0  0  0  0  0  0  0  0
  139.5269   80.0386  221.6318 H   0  0  0  0  0  0  0  0  0  0  0  0
  139.2442   76.6421  223.4081 H   0  0  0  0  0  0  0  0  0  0  0  0
  137.9452   76.9987  222.2245 H   0  0  0  0  0  0  0  0  0  0  0  0
  139.6440   76.7660  219.6620 H   0  0  0  0  0  0  0  0  0  0  0  0
  140.3814   74.7777  218.3889 H   0  0  0  0  0  0  0  0  0  0  0  0
  140.6328   72.5802  219.5476 H   0  0  0  0  0  0  0  0  0  0  0  0
  140.4837   71.1793  221.6242 H   0  0  0  0  0  0  0  0  0  0  0  0
  139.7029   72.8599  223.9742 H   0  0  0  0  0  0  0  0  0  0  0  0
  141.4501   71.4740  227.9269 H   0  0  0  0  0  0  0  0  0  0  0  0
  141.6054   69.7017  229.6699 H   0  0  0  0  0  0  0  0  0  0  0  0
  140.8277   67.4107  229.2511 H   0  0  0  0  0  0  0  0  0  0  0  0
  139.8343   66.8020  227.0154 H   0  0  0  0  0  0  0  0  0  0  0  0
  139.1065   69.9084  222.0946 H   0  0  0  0  0  0  0  0  0  0  0  0
  139.3904   68.1515  222.6189 H   0  0  0  0  0  0  0  0  0  0  0  0
  137.3731   67.7541  222.9595 H   0  0  0  0  0  0  0  0  0  0  0  0
  135.7674   69.2384  224.1204 H   0  0  0  0  0  0  0  0  0  0  0  0
  137.3926   69.4090  224.9073 H   0  0  0  0  0  0  0  0  0  0  0  0
  135.9216   71.4812  224.3196 H   0  0  0  0  0  0  0  0  0  0  0  0
  137.7556   71.4352  224.0938 H   0  0  0  0  0  0  0  0  0  0  0  0
  135.9316   72.3376  222.3148 H   0  0  0  0  0  0  0  0  0  0  0  0
  137.6631   71.7597  222.0225 H   0  0  0  0  0  0  0  0  0  0  0  0
  135.0783   70.4059  221.4689 H   0  0  0  0  0  0  0  0  0  0  0  0
  136.5348   70.8027  220.3982 H   0  0  0  0  0  0  0  0  0  0  0  0
  135.8825   68.3821  221.5101 H   0  0  0  0  0  0  0  0  0  0  0  0
  137.4648   68.9581  220.7575 H   0  0  0  0  0  0  0  0  0  0  0  0
  139.4100   74.4063  223.1965 H   0  0  0  0  0  0  0  0  0  0  0  0
  141.5194   77.0374  221.7391 H   0  0  0  0  0  0  0  0  0  0  0  0
  141.5534   78.8065  221.4167 H   0  0  0  0  0  0  0  0  0  0  0  0
  141.0821   77.5087  224.1419 H   0  0  0  0  0  0  0  0  0  0  0  0
  142.6264   78.2246  223.5906 H   0  0  0  0  0  0  0  0  0  0  0  0
  1  2  1  0
  2  3  1  0
  3  4  1  0
  4  5  1  0
  5  6  1  0
  6  7  1  0
  7  8  2  0
  8  9  1  0
  9 10  2  0
 10 11  1  0
 11 12  1  0
 12 13  2  0
 13 14  1  0
 14 15  2  0
 15 16  1  0
 16 17  2  0
 17 18  1  0
 18 19  2  0
 19 20  1  0
 20 21  2  0
 21 22  1  0
 22 23  2  0
 22 24  1  0
 24 25  1  0
 25 26  1  0
 26 27  1  0
 27 28  1  0
 28 29  1  0
 29 30  1  0
 30 31  1  0
 11 32  2  0
  5 33  1  0
 33 34  1  0
 34  2  1  0
 32  7  1  0
 24 14  1  0
 31 26  1  0
 21 16  1  0
  1 35  1  0
  1 36  1  0
  1 37  1  0
  3 38  1  0
  3 39  1  0
  4 40  1  0
  4 41  1  0
  6 42  1  0
  6 43  1  0
  8 44  1  0
  9 45  1  0
 10 46  1  0
 12 47  1  0
 13 48  1  0
 17 49  1  0
 18 50  1  0
 19 51  1  0
 20 52  1  0
 25 53  1  0
 25 54  1  0
 26 55  1  0
 27 56  1  0
 27 57  1  0
 28 58  1  0
 28 59  1  0
 29 60  1  0
 29 61  1  0
 30 62  1  0
 30 63  1  0
 31 64  1  0
 31 65  1  0
 32 66  1  0
 33 67  1  0
 33 68  1  0
 34 69  1  0
 34 70  1  0
M  END
>  <smiles>  (4) 
CN1CCN(Cc2cccc(/C=C/c3nc4ccccc4c(=O)n3CC3CCCCC3)c2)CC1

>  <score_type>  (4) 
oracle

>  <origin>  (4) 
autodockgpu

>  <m_score__min__energy>  (4) 
-9.4000000000000004

>  <m_primary>  (4) 
energy

>  <rmsd>  (4) 
11.829669281912167

>  <m_score__min__rmsd>  (4) 
11.829669281912167

>  <meeko>  (4) 
{"free_energy": -8.37, "intermolecular_energy": -10.46, "internal_energy": -2.02, "cluster_size": 35, "cluster_id": 1, "rank_in_cluster": 34}

>  <energy>  (4) 
-9.28

>  <cluster_rmsd>  (4) 
0.72

>  <cluster>  (4) 
1

$$$$

     RDKit          3D

 70 74  0  0  0  0  0  0  0  0999 V2000
  141.5800   81.7500  222.4790 C   0  0  0  0  0  0  0  0  0  0  0  0
  142.3310   80.5490  222.2830 N   0  0  0  0  0  0  0  0  0  0  0  0
  142.4170   79.7020  223.4590 C   0  0  0  0  0  0  0  0  0  0  0  0
  141.1270   79.0190  223.7690 C   0  0  0  0  0  0  0  0  0  0  0  0
  140.5870   78.3610  222.6330 N   0  0  0  0  0  0  0  0  0  0  0  0
  141.0530   77.0440  222.3630 C   0  0  0  0  0  0  0  0  0  0  0  0
  139.8860   76.1310  222.2490 C   0  0  0  0  0  0  0  0  0  0  0  0
  138.5840   76.5260  222.4180 C   0  0  0  0  0  0  0  0  0  0  0  0
  137.5520   75.6220  222.3000 C   0  0  0  0  0  0  0  0  0  0  0  0
  137.8360   74.2820  222.0020 C   0  0  0  0  0  0  0  0  0  0  0  0
  139.1300   73.8580  221.8280 C   0  0  0  0  0  0  0  0  0  0  0  0
  139.4820   72.4570  221.5150 C   0  0  0  0  0  0  0  0  0  0  0  0
  140.2630   71.7180  222.2310 C   0  0  0  0  0  0  0  0  0  0  0  0
  140.0770   71.0190  223.4620 C   0  0  0  0  0  0  0  0  0  0  0  0
  140.5970   71.6450  224.5730 N   0  0  0  0  0  0  0  0  0  0  0  0
  140.5620   71.1970  225.7990 C   0  0  0  0  0  0  0  0  0  0  0  0
  141.1270   71.9390  226.8120 C   0  0  0  0  0  0  0  0  0  0  0  0
  141.0510   71.4020  228.0840 C   0  0  0  0  0  0  0  0  0  0  0  0
  140.4480   70.1900  228.3440 C   0  0  0  0  0  0  0  0  0  0  0  0
  139.8790   69.4500  227.3060 C   0  0  0  0  0  0  0  0  0  0  0  0
  139.9580   69.9900  226.0500 C   0  0  0  0  0  0  0  0  0  0  0  0
  139.4260   69.3320  224.9680 C   0  0  0  0  0  0  0  0  0  0  0  0
  138.8750   68.2240  225.1960 O   0  0  0  0  0  0  0  0  0  0  0  0
  139.4900   69.8520  223.6910 N   0  0  0  0  0  0  0  0  0  0  0  0
  138.8830   69.0460  222.6820 C   0  0  0  0  0  0  0  0  0  0  0  0
  137.4310   68.7580  222.8280 C   0  0  0  0  0  0  0  0  0  0  0  0
  136.7640   69.9120  223.5890 C   0  0  0  0  0  0  0  0  0  0  0  0
  136.6890   71.1480  222.7640 C   0  0  0  0  0  0  0  0  0  0  0  0
  136.5310   70.9500  221.2990 C   0  0  0  0  0  0  0  0  0  0  0  0
  136.0820   69.6020  220.8600 C   0  0  0  0  0  0  0  0  0  0  0  0
  136.6770   68.4340  221.5810 C   0  0  0  0  0  0  0  0  0  0  0  0
  140.1240   74.8070  221.9580 C   0  0  0  0  0  0  0  0  0  0  0  0
  140.4560   79.2420  221.5330 C   0  0  0  0  0  0  0  0  0  0  0  0
  141.8090   79.7930  221.1550 C   0  0  0  0  0  0  0  0  0  0  0  0
  141.4628   81.9374  223.5566 H   0  0  0  0  0  0  0  0  0  0  0  0
  142.1113   82.5944  222.0156 H   0  0  0  0  0  0  0  0  0  0  0  0
  140.5882   81.6420  222.0156 H   0  0  0  0  0  0  0  0  0  0  0  0
  143.1883   78.9369  223.2866 H   0  0  0  0  0  0  0  0  0  0  0  0
  142.6681   80.3450  224.3154 H   0  0  0  0  0  0  0  0  0  0  0  0
  141.3002   78.2755  224.5610 H   0  0  0  0  0  0  0  0  0  0  0  0
  140.4065   79.7846  224.0925 H   0  0  0  0  0  0  0  0  0  0  0  0
  141.6184   77.0392  221.4195 H   0  0  0  0  0  0  0  0  0  0  0  0
  141.7092   76.7077  223.1792 H   0  0  0  0  0  0  0  0  0  0  0  0
  138.3611   77.5778  222.6507 H   0  0  0  0  0  0  0  0  0  0  0  0
  136.5111   75.9494  222.4387 H   0  0  0  0  0  0  0  0  0  0  0  0
  137.0110   73.5607  221.9063 H   0  0  0  0  0  0  0  0  0  0  0  0
  139.0479   72.0118  220.6076 H   0  0  0  0  0  0  0  0  0  0  0  0
  141.2721   71.6047  221.8082 H   0  0  0  0  0  0  0  0  0  0  0  0
  141.6128   72.9070  226.6197 H   0  0  0  0  0  0  0  0  0  0  0  0
  141.4892   71.9644  228.9217 H   0  0  0  0  0  0  0  0  0  0  0  0
  140.4150   69.8043  229.3736 H   0  0  0  0  0  0  0  0  0  0  0  0
  139.3913   68.4810  227.4880 H   0  0  0  0  0  0  0  0  0  0  0  0
  139.0241   69.5585  221.7190 H   0  0  0  0  0  0  0  0  0  0  0  0
  139.3772   68.0667  222.7642 H   0  0  0  0  0  0  0  0  0  0  0  0
  137.3838   67.8160  223.3940 H   0  0  0  0  0  0  0  0  0  0  0  0
  135.7447   69.6101  223.8714 H   0  0  0  0  0  0  0  0  0  0  0  0
  137.3724   70.1314  224.4788 H   0  0  0  0  0  0  0  0  0  0  0  0
  135.8295   71.7362  223.1179 H   0  0  0  0  0  0  0  0  0  0  0  0
  137.6614   71.6464  222.8908 H   0  0  0  0  0  0  0  0  0  0  0  0
  135.7930   71.6823  220.9397 H   0  0  0  0  0  0  0  0  0  0  0  0
  137.5388   71.0751  220.8762 H   0  0  0  0  0  0  0  0  0  0  0  0
  134.9907   69.5544  220.9895 H   0  0  0  0  0  0  0  0  0  0  0  0
  136.4224   69.5060  219.8184 H   0  0  0  0  0  0  0  0  0  0  0  0
  135.8585   67.7499  221.8492 H   0  0  0  0  0  0  0  0  0  0  0  0
  137.4139   67.9990  220.8898 H   0  0  0  0  0  0  0  0  0  0  0  0
  141.1673   74.4863  221.8210 H   0  0  0  0  0  0  0  0  0  0  0  0
  140.0317   78.6967  220.6770 H   0  0  0  0  0  0  0  0  0  0  0  0
  139.7903   80.0726  221.8104 H   0  0  0  0  0  0  0  0  0  0  0  0
  142.4927   78.9655  220.9147 H   0  0  0  0  0  0  0  0  0  0  0  0
  141.7176   80.4453  220.2740 H   0  0  0  0  0  0  0  0  0  0  0  0
  1  2  1  0
  2  3  1  0
  3  4  1  0
  4  5  1  0
  5  6  1  0
  6  7  1  0
  7  8  2  0
  8  9  1  0
  9 10  2  0
 10 11  1  0
 11 12  1  0
 12 13  2  0
 13 14  1  0
 14 15  2  0
 15 16  1  0
 16 17  2  0
 17 18  1  0
 18 19  2  0
 19 20  1  0
 20 21  2  0
 21 22  1  0
 22 23  2  0
 22 24  1  0
 24 25  1  0
 25 26  1  0
 26 27  1  0
 27 28  1  0
 28 29  1  0
 29 30  1  0
 30 31  1  0
 11 32  2  0
  5 33  1  0
 33 34  1  0
 34  2  1  0
 32  7  1  0
 24 14  1  0
 31 26  1  0
 21 16  1  0
  1 35  1  0
  1 36  1  0
  1 37  1  0
  3 38  1  0
  3 39  1  0
  4 40  1  0
  4 41  1  0
  6 42  1  0
  6 43  1  0
  8 44  1  0
  9 45  1  0
 10 46  1  0
 12 47  1  0
 13 48  1  0
 17 49  1  0
 18 50  1  0
 19 51  1  0
 20 52  1  0
 25 53  1  0
 25 54  1  0
 26 55  1  0
 27 56  1  0
 27 57  1  0
 28 58  1  0
 28 59  1  0
 29 60  1  0
 29 61  1  0
 30 62  1  0
 30 63  1  0
 31 64  1  0
 31 65  1  0
 32 66  1  0
 33 67  1  0
 33 68  1  0
 34 69  1  0
 34 70  1  0
M  END
>  <smiles>  (5) 
CN1CCN(Cc2cccc(/C=C/c3nc4ccccc4c(=O)n3CC3CCCCC3)c2)CC1

>  <score_type>  (5) 
oracle

>  <origin>  (5) 
autodockgpu

>  <m_score__min__energy>  (5) 
-9.4000000000000004

>  <m_primary>  (5) 
energy

>  <rmsd>  (5) 
10.851480805961321

>  <m_score__min__rmsd>  (5) 
10.851480805961321

>  <meeko>  (5) 
{"free_energy": -8.86, "intermolecular_energy": -10.95, "internal_energy": -2.11, "cluster_size": 35, "cluster_id": 1, "rank_in_cluster": 18}

>  <energy>  (5) 
-9.27

>  <cluster_rmsd>  (5) 
0.69

>  <cluster>  (5) 
1

$$$$

     RDKit          3D

 70 74  0  0  0  0  0  0  0  0999 V2000
  141.7860   81.6090  223.5570 C   0  0  0  0  0  0  0  0  0  0  0  0
  142.2890   80.7000  222.5750 N   0  0  0  0  0  0  0  0  0  0  0  0
  142.8930   79.5010  223.1270 C   0  0  0  0  0  0  0  0  0  0  0  0
  141.8840   78.5600  223.6950 C   0  0  0  0  0  0  0  0  0  0  0  0
  140.8300   78.2950  222.7810 N   0  0  0  0  0  0  0  0  0  0  0  0
  141.0430   77.2630  221.8260 C   0  0  0  0  0  0  0  0  0  0  0  0
  139.8980   76.3170  221.8710 C   0  0  0  0  0  0  0  0  0  0  0  0
  138.5880   76.7050  221.9930 C   0  0  0  0  0  0  0  0  0  0  0  0
  137.5780   75.7700  222.0310 C   0  0  0  0  0  0  0  0  0  0  0  0
  137.8910   74.4070  221.9420 C   0  0  0  0  0  0  0  0  0  0  0  0
  139.1940   73.9900  221.8190 C   0  0  0  0  0  0  0  0  0  0  0  0
  139.5760   72.5660  221.7250 C   0  0  0  0  0  0  0  0  0  0  0  0
  140.3720   71.9630  222.5450 C   0  0  0  0  0  0  0  0  0  0  0  0
  140.1440   71.0990  223.6580 C   0  0  0  0  0  0  0  0  0  0  0  0
  140.6190   71.5640  224.8640 N   0  0  0  0  0  0  0  0  0  0  0  0
  140.5420   70.9490  226.0140 C   0  0  0  0  0  0  0  0  0  0  0  0
  141.0640   71.5440  227.1400 C   0  0  0  0  0  0  0  0  0  0  0  0
  140.9450   70.8350  228.3210 C   0  0  0  0  0  0  0  0  0  0  0  0
  140.3390   69.5980  228.3880 C   0  0  0  0  0  0  0  0  0  0  0  0
  139.8130   69.0100  227.2360 C   0  0  0  0  0  0  0  0  0  0  0  0
  139.9360   69.7190  226.0720 C   0  0  0  0  0  0  0  0  0  0  0  0
  139.4480   69.2180  224.8890 C   0  0  0  0  0  0  0  0  0  0  0  0
  138.8960   68.0890  224.9400 O   0  0  0  0  0  0  0  0  0  0  0  0
  139.5560   69.9110  223.7010 N   0  0  0  0  0  0  0  0  0  0  0  0
  138.9910   69.2530  222.5670 C   0  0  0  0  0  0  0  0  0  0  0  0
  137.8300   69.9110  221.9120 C   0  0  0  0  0  0  0  0  0  0  0  0
  137.4150   69.0910  220.6840 C   0  0  0  0  0  0  0  0  0  0  0  0
  136.7820   67.8010  221.0690 C   0  0  0  0  0  0  0  0  0  0  0  0
  136.0050   67.8030  222.3370 C   0  0  0  0  0  0  0  0  0  0  0  0
  135.6200   69.1370  222.8700 C   0  0  0  0  0  0  0  0  0  0  0  0
  136.6500   70.2170  222.7740 C   0  0  0  0  0  0  0  0  0  0  0  0
  140.1640   74.9700  221.7870 C   0  0  0  0  0  0  0  0  0  0  0  0
  140.2240   79.4900  222.3230 C   0  0  0  0  0  0  0  0  0  0  0  0
  141.2500   80.3460  221.6200 C   0  0  0  0  0  0  0  0  0  0  0  0
  142.0019   81.2188  224.5626 H   0  0  0  0  0  0  0  0  0  0  0  0
  142.2704   82.5887  223.4320 H   0  0  0  0  0  0  0  0  0  0  0  0
  140.6987   81.7190  223.4320 H   0  0  0  0  0  0  0  0  0  0  0  0
  143.4456   78.9849  222.3280 H   0  0  0  0  0  0  0  0  0  0  0  0
  143.5589   79.8100  223.9462 H   0  0  0  0  0  0  0  0  0  0  0  0
  142.3835   77.6125  223.9455 H   0  0  0  0  0  0  0  0  0  0  0  0
  141.4481   79.0286  224.5897 H   0  0  0  0  0  0  0  0  0  0  0  0
  141.1194   77.7016  220.8201 H   0  0  0  0  0  0  0  0  0  0  0  0
  141.9756   76.7283  222.0590 H   0  0  0  0  0  0  0  0  0  0  0  0
  138.3417   77.7749  222.0612 H   0  0  0  0  0  0  0  0  0  0  0  0
  136.5307   76.0913  222.1307 H   0  0  0  0  0  0  0  0  0  0  0  0
  137.0828   73.6614  221.9710 H   0  0  0  0  0  0  0  0  0  0  0  0
  139.1526   71.9771  220.8980 H   0  0  0  0  0  0  0  0  0  0  0  0
  141.4369   72.1533  222.3457 H   0  0  0  0  0  0  0  0  0  0  0  0
  141.5496   72.5303  227.1023 H   0  0  0  0  0  0  0  0  0  0  0  0
  141.3499   71.2752  229.2442 H   0  0  0  0  0  0  0  0  0  0  0  0
  140.2698   69.0729  229.3521 H   0  0  0  0  0  0  0  0  0  0  0  0
  139.3237   68.0252  227.2627 H   0  0  0  0  0  0  0  0  0  0  0  0
  139.7848   69.1532  221.8121 H   0  0  0  0  0  0  0  0  0  0  0  0
  138.5975   68.3023  222.9560 H   0  0  0  0  0  0  0  0  0  0  0  0
  138.1924   70.9108  221.6306 H   0  0  0  0  0  0  0  0  0  0  0  0
  136.6973   69.6767  220.0908 H   0  0  0  0  0  0  0  0  0  0  0  0
  138.3203   68.8669  220.1008 H   0  0  0  0  0  0  0  0  0  0  0  0
  136.0997   67.5068  220.2579 H   0  0  0  0  0  0  0  0  0  0  0  0
  137.6153   67.1026  221.2358 H   0  0  0  0  0  0  0  0  0  0  0  0
  135.0812   67.2310  222.1653 H   0  0  0  0  0  0  0  0  0  0  0  0
  136.6745   67.3665  223.0928 H   0  0  0  0  0  0  0  0  0  0  0  0
  134.7305   69.4736  222.3173 H   0  0  0  0  0  0  0  0  0  0  0  0
  135.4582   68.9842  223.9472 H   0  0  0  0  0  0  0  0  0  0  0  0
  136.1607   71.1158  222.3706 H   0  0  0  0  0  0  0  0  0  0  0  0
  137.0470   70.3443  223.7919 H   0  0  0  0  0  0  0  0  0  0  0  0
  141.2135   74.6555  221.6884 H   0  0  0  0  0  0  0  0  0  0  0  0
  139.4126   79.2429  221.6226 H   0  0  0  0  0  0  0  0  0  0  0  0
  139.8161   80.0431  223.1819 H   0  0  0  0  0  0  0  0  0  0  0  0
  141.6910   79.7845  220.7832 H   0  0  0  0  0  0  0  0  0  0  0  0
  140.7747   81.2563  221.2257 H   0  0  0  0  0  0  0  0  0  0  0  0
  1  2  1  0
  2  3  1  0
  3  4  1  0
  4  5  1  0
  5  6  1  0
  6  7  1  0
  7  8  2  0
  8  9  1  0
  9 10  2  0
 10 11  1  0
 11 12  1  0
 12 13  2  0
 13 14  1  0
 14 15  2  0
 15 16  1  0
 16 17  2  0
 17 18  1  0
 18 19  2  0
 19 20  1  0
 20 21  2  0
 21 22  1  0
 22 23  2  0
 22 24  1  0
 24 25  1  0
 25 26  1  0
 26 27  1  0
 27 28  1  0
 28 29  1  0
 29 30  1  0
 30 31  1  0
 11 32  2  0
  5 33  1  0
 33 34  1  0
 34  2  1  0
 32  7  1  0
 24 14  1  0
 31 26  1  0
 21 16  1  0
  1 35  1  0
  1 36  1  0
  1 37  1  0
  3 38  1  0
  3 39  1  0
  4 40  1  0
  4 41  1  0
  6 42  1  0
  6 43  1  0
  8 44  1  0
  9 45  1  0
 10 46  1  0
 12 47  1  0
 13 48  1  0
 17 49  1  0
 18 50  1  0
 19 51  1  0
 20 52  1  0
 25 53  1  0
 25 54  1  0
 26 55  1  0
 27 56  1  0
 27 57  1  0
 28 58  1  0
 28 59  1  0
 29 60  1  0
 29 61  1  0
 30 62  1  0
 30 63  1  0
 31 64  1  0
 31 65  1  0
 32 66  1  0
 33 67  1  0
 33 68  1  0
 34 69  1  0
 34 70  1  0
M  END
>  <smiles>  (6) 
CN1CCN(Cc2cccc(/C=C/c3nc4ccccc4c(=O)n3CC3CCCCC3)c2)CC1

>  <score_type>  (6) 
oracle

>  <origin>  (6) 
autodockgpu

>  <m_score__min__energy>  (6) 
-9.4000000000000004

>  <m_primary>  (6) 
energy

>  <rmsd>  (6) 
11.179107834779364

>  <m_score__min__rmsd>  (6) 
11.179107834779364

>  <meeko>  (6) 
{"free_energy": -8.77, "intermolecular_energy": -10.86, "internal_energy": -1.86, "cluster_size": 35, "cluster_id": 1, "rank_in_cluster": 20}

>  <energy>  (6) 
-9.15

>  <cluster_rmsd>  (6) 
0.82

>  <cluster>  (6) 
1

$$$$

     RDKit          3D

 70 74  0  0  0  0  0  0  0  0999 V2000
  142.1980   81.3850  224.0540 C   0  0  0  0  0  0  0  0  0  0  0  0
  140.9970   80.9080  223.4420 N   0  0  0  0  0  0  0  0  0  0  0  0
  140.9740   81.0360  221.9960 C   0  0  0  0  0  0  0  0  0  0  0  0
  141.8810   80.0630  221.3190 C   0  0  0  0  0  0  0  0  0  0  0  0
  141.6700   78.7350  221.7750 N   0  0  0  0  0  0  0  0  0  0  0  0
  140.6350   77.9880  221.1450 C   0  0  0  0  0  0  0  0  0  0  0  0
  141.0950   76.5890  220.9550 C   0  0  0  0  0  0  0  0  0  0  0  0
  142.2040   76.2380  220.2290 C   0  0  0  0  0  0  0  0  0  0  0  0
  142.5680   74.9160  220.0940 C   0  0  0  0  0  0  0  0  0  0  0  0
  141.7980   73.9190  220.7060 C   0  0  0  0  0  0  0  0  0  0  0  0
  140.6820   74.2410  221.4400 C   0  0  0  0  0  0  0  0  0  0  0  0
  139.8360   73.2270  222.1030 C   0  0  0  0  0  0  0  0  0  0  0  0
  140.2410   72.0540  222.4630 C   0  0  0  0  0  0  0  0  0  0  0  0
  139.9750   71.2460  223.6080 C   0  0  0  0  0  0  0  0  0  0  0  0
  140.5710   71.6720  224.7750 N   0  0  0  0  0  0  0  0  0  0  0  0
  140.4850   71.0920  225.9420 C   0  0  0  0  0  0  0  0  0  0  0  0
  141.1400   71.6390  227.0230 C   0  0  0  0  0  0  0  0  0  0  0  0
  141.0030   70.9720  228.2270 C   0  0  0  0  0  0  0  0  0  0  0  0
  140.2560   69.8210  228.3570 C   0  0  0  0  0  0  0  0  0  0  0  0
  139.5970   69.2800  227.2520 C   0  0  0  0  0  0  0  0  0  0  0  0
  139.7380   69.9470  226.0640 C   0  0  0  0  0  0  0  0  0  0  0  0
  139.1260   69.4880  224.9230 C   0  0  0  0  0  0  0  0  0  0  0  0
  138.4450   68.4360  225.0330 O   0  0  0  0  0  0  0  0  0  0  0  0
  139.2490   70.1400  223.7130 N   0  0  0  0  0  0  0  0  0  0  0  0
  138.5450   69.5350  222.6300 C   0  0  0  0  0  0  0  0  0  0  0  0
  139.2720   68.5040  221.8420 C   0  0  0  0  0  0  0  0  0  0  0  0
  138.8280   67.1120  222.3070 C   0  0  0  0  0  0  0  0  0  0  0  0
  137.4340   66.8070  221.8870 C   0  0  0  0  0  0  0  0  0  0  0  0
  136.9900   67.4070  220.6000 C   0  0  0  0  0  0  0  0  0  0  0  0
  138.0640   67.9050  219.7000 C   0  0  0  0  0  0  0  0  0  0  0  0
  139.2040   68.6180  220.3540 C   0  0  0  0  0  0  0  0  0  0  0  0
  140.3650   75.5800  221.5420 C   0  0  0  0  0  0  0  0  0  0  0  0
  141.7710   78.6440  223.1840 C   0  0  0  0  0  0  0  0  0  0  0  0
  140.7340   79.5310  223.8290 C   0  0  0  0  0  0  0  0  0  0  0  0
  142.0934   81.3435  225.1482 H   0  0  0  0  0  0  0  0  0  0  0  0
  143.0438   80.7545  223.7423 H   0  0  0  0  0  0  0  0  0  0  0  0
  142.3807   82.4240  223.7423 H   0  0  0  0  0  0  0  0  0  0  0  0
  139.9464   80.8638  221.6434 H   0  0  0  0  0  0  0  0  0  0  0  0
  141.3247   82.0481  221.7456 H   0  0  0  0  0  0  0  0  0  0  0  0
  141.6966   80.1001  220.2352 H   0  0  0  0  0  0  0  0  0  0  0  0
  142.9181   80.3433  221.5553 H   0  0  0  0  0  0  0  0  0  0  0  0
  139.7355   77.9976  221.7782 H   0  0  0  0  0  0  0  0  0  0  0  0
  140.3947   78.4358  220.1694 H   0  0  0  0  0  0  0  0  0  0  0  0
  142.8099   77.0206  219.7490 H   0  0  0  0  0  0  0  0  0  0  0  0
  143.4589   74.6450  219.5085 H   0  0  0  0  0  0  0  0  0  0  0  0
  142.0906   72.8642  220.5976 H   0  0  0  0  0  0  0  0  0  0  0  0
  138.7869   73.4894  222.3044 H   0  0  0  0  0  0  0  0  0  0  0  0
  140.9278   71.5850  221.7430 H   0  0  0  0  0  0  0  0  0  0  0  0
  141.7397   72.5568  226.9337 H   0  0  0  0  0  0  0  0  0  0  0  0
  141.5101   71.3760  229.1156 H   0  0  0  0  0  0  0  0  0  0  0  0
  140.1788   69.3263  229.3365 H   0  0  0  0  0  0  0  0  0  0  0  0
  138.9942   68.3633  227.3313 H   0  0  0  0  0  0  0  0  0  0  0  0
  137.6433   69.0606  223.0445 H   0  0  0  0  0  0  0  0  0  0  0  0
  138.3548   70.3541  221.9208 H   0  0  0  0  0  0  0  0  0  0  0  0
  140.3367   68.6828  222.0526 H   0  0  0  0  0  0  0  0  0  0  0  0
  139.5031   66.3597  221.8731 H   0  0  0  0  0  0  0  0  0  0  0  0
  138.8659   67.0908  223.4061 H   0  0  0  0  0  0  0  0  0  0  0  0
  137.3418   65.7145  221.7976 H   0  0  0  0  0  0  0  0  0  0  0  0
  136.7895   67.2540  222.6582 H   0  0  0  0  0  0  0  0  0  0  0  0
  136.4215   66.6413  220.0517 H   0  0  0  0  0  0  0  0  0  0  0  0
  136.4042   68.2958  220.8774 H   0  0  0  0  0  0  0  0  0  0  0  0
  138.4762   67.0395  219.1605 H   0  0  0  0  0  0  0  0  0  0  0  0
  137.5809   68.6556  219.0572 H   0  0  0  0  0  0  0  0  0  0  0  0
  140.1387   68.2110  219.9409 H   0  0  0  0  0  0  0  0  0  0  0  0
  139.0503   69.6864  220.1421 H   0  0  0  0  0  0  0  0  0  0  0  0
  139.4760   75.8579  222.1272 H   0  0  0  0  0  0  0  0  0  0  0  0
  141.6052   77.6021  223.4955 H   0  0  0  0  0  0  0  0  0  0  0  0
  142.7737   78.9696  223.4982 H   0  0  0  0  0  0  0  0  0  0  0  0
  139.7304   79.2356  223.4892 H   0  0  0  0  0  0  0  0  0  0  0  0
  140.7826   79.4320  224.9235 H   0  0  0  0  0  0  0  0  0  0  0  0
  1  2  1  0
  2  3  1  0
  3  4  1  0
  4  5  1  0
  5  6  1  0
  6  7  1  0
  7  8  2  0
  8  9  1  0
  9 10  2  0
 10 11  1  0
 11 12  1  0
 12 13  2  0
 13 14  1  0
 14 15  2  0
 15 16  1  0
 16 17  2  0
 17 18  1  0
 18 19  2  0
 19 20  1  0
 20 21  2  0
 21 22  1  0
 22 23  2  0
 22 24  1  0
 24 25  1  0
 25 26  1  0
 26 27  1  0
 27 28  1  0
 28 29  1  0
 29 30  1  0
 30 31  1  0
 11 32  2  0
  5 33  1  0
 33 34  1  0
 34  2  1  0
 32  7  1  0
 24 14  1  0
 31 26  1  0
 21 16  1  0
  1 35  1  0
  1 36  1  0
  1 37  1  0
  3 38  1  0
  3 39  1  0
  4 40  1  0
  4 41  1  0
  6 42  1  0
  6 43  1  0
  8 44  1  0
  9 45  1  0
 10 46  1  0
 12 47  1  0
 13 48  1  0
 17 49  1  0
 18 50  1  0
 19 51  1  0
 20 52  1  0
 25 53  1  0
 25 54  1  0
 26 55  1  0
 27 56  1  0
 27 57  1  0
 28 58  1  0
 28 59  1  0
 29 60  1  0
 29 61  1  0
 30 62  1  0
 30 63  1  0
 31 64  1  0
 31 65  1  0
 32 66  1  0
 33 67  1  0
 33 68  1  0
 34 69  1  0
 34 70  1  0
M  END
>  <smiles>  (7) 
CN1CCN(Cc2cccc(/C=C/c3nc4ccccc4c(=O)n3CC3CCCCC3)c2)CC1

>  <score_type>  (7) 
oracle

>  <origin>  (7) 
autodockgpu

>  <m_score__min__energy>  (7) 
-9.4000000000000004

>  <m_primary>  (7) 
energy

>  <rmsd>  (7) 
11.470062949440559

>  <m_score__min__rmsd>  (7) 
11.470062949440559

>  <meeko>  (7) 
{"free_energy": -9.04, "intermolecular_energy": -11.13, "internal_energy": -1.55, "cluster_size": 35, "cluster_id": 1, "rank_in_cluster": 11}

>  <energy>  (7) 
-9.11

>  <cluster_rmsd>  (7) 
0.82

>  <cluster>  (7) 
1

$$$$

     RDKit          3D

 70 74  0  0  0  0  0  0  0  0999 V2000
  141.1960   82.0170  222.3270 C   0  0  0  0  0  0  0  0  0  0  0  0
  142.0540   80.8730  222.3070 N   0  0  0  0  0  0  0  0  0  0  0  0
  142.0880   80.1320  223.5540 C   0  0  0  0  0  0  0  0  0  0  0  0
  140.8300   79.3660  223.7990 C   0  0  0  0  0  0  0  0  0  0  0  0
  140.4610   78.5770  222.6790 N   0  0  0  0  0  0  0  0  0  0  0  0
  141.0530   77.2880  222.5690 C   0  0  0  0  0  0  0  0  0  0  0  0
  139.9820   76.2790  222.3670 C   0  0  0  0  0  0  0  0  0  0  0  0
  138.6490   76.5250  222.5690 C   0  0  0  0  0  0  0  0  0  0  0  0
  137.7110   75.5370  222.3630 C   0  0  0  0  0  0  0  0  0  0  0  0
  138.1240   74.2660  221.9420 C   0  0  0  0  0  0  0  0  0  0  0  0
  139.4530   73.9910  221.7320 C   0  0  0  0  0  0  0  0  0  0  0  0
  139.9400   72.6680  221.2910 C   0  0  0  0  0  0  0  0  0  0  0  0
  140.5420   71.8150  222.0520 C   0  0  0  0  0  0  0  0  0  0  0  0
  140.1970   71.2170  223.3010 C   0  0  0  0  0  0  0  0  0  0  0  0
  140.7450   71.8240  224.4100 N   0  0  0  0  0  0  0  0  0  0  0  0
  140.5860   71.4520  225.6520 C   0  0  0  0  0  0  0  0  0  0  0  0
  141.2010   72.1620  226.6580 C   0  0  0  0  0  0  0  0  0  0  0  0
  140.9860   71.7110  227.9480 C   0  0  0  0  0  0  0  0  0  0  0  0
  140.2030   70.6130  228.2300 C   0  0  0  0  0  0  0  0  0  0  0  0
  139.5860   69.9050  227.1980 C   0  0  0  0  0  0  0  0  0  0  0  0
  139.8030   70.3580  225.9240 C   0  0  0  0  0  0  0  0  0  0  0  0
  139.2370   69.7230  224.8460 C   0  0  0  0  0  0  0  0  0  0  0  0
  138.5220   68.7180  225.0940 O   0  0  0  0  0  0  0  0  0  0  0  0
  139.4380   70.1580  223.5520 N   0  0  0  0  0  0  0  0  0  0  0  0
  138.7720   69.3920  222.5490 C   0  0  0  0  0  0  0  0  0  0  0  0
  137.5550   69.9890  221.9380 C   0  0  0  0  0  0  0  0  0  0  0  0
  136.3880   69.0040  222.0800 C   0  0  0  0  0  0  0  0  0  0  0  0
  135.9260   68.8920  223.4890 C   0  0  0  0  0  0  0  0  0  0  0  0
  136.0510   70.1190  224.3210 C   0  0  0  0  0  0  0  0  0  0  0  0
  136.2450   71.3960  223.5840 C   0  0  0  0  0  0  0  0  0  0  0  0
  137.1630   71.3530  222.4040 C   0  0  0  0  0  0  0  0  0  0  0  0
  140.3480   75.0180  221.9530 C   0  0  0  0  0  0  0  0  0  0  0  0
  140.3730   79.3540  221.4990 C   0  0  0  0  0  0  0  0  0  0  0  0
  141.7100   79.9890  221.2040 C   0  0  0  0  0  0  0  0  0  0  0  0
  140.9847   82.2987  223.3691 H   0  0  0  0  0  0  0  0  0  0  0  0
  141.6902   82.8550  221.8136 H   0  0  0  0  0  0  0  0  0  0  0  0
  140.2532   81.7772  221.8136 H   0  0  0  0  0  0  0  0  0  0  0  0
  142.9305   79.4255  223.5215 H   0  0  0  0  0  0  0  0  0  0  0  0
  142.2009   80.8591  224.3716 H   0  0  0  0  0  0  0  0  0  0  0  0
  140.9799   78.7048  224.6652 H   0  0  0  0  0  0  0  0  0  0  0  0
  140.0227   80.0895  223.9855 H   0  0  0  0  0  0  0  0  0  0  0  0
  141.7422   77.2707  221.7119 H   0  0  0  0  0  0  0  0  0  0  0  0
  141.6127   77.0568  223.4873 H   0  0  0  0  0  0  0  0  0  0  0  0
  138.3242   77.5227  222.8994 H   0  0  0  0  0  0  0  0  0  0  0  0
  136.6435   75.7449  222.5282 H   0  0  0  0  0  0  0  0  0  0  0  0
  137.3740   73.4783  221.7776 H   0  0  0  0  0  0  0  0  0  0  0  0
  139.7785   72.3891  220.2393 H   0  0  0  0  0  0  0  0  0  0  0  0
  141.5144   71.4836  221.6588 H   0  0  0  0  0  0  0  0  0  0  0  0
  141.8292   73.0401  226.4477 H   0  0  0  0  0  0  0  0  0  0  0  0
  141.4590   72.2505  228.7818 H   0  0  0  0  0  0  0  0  0  0  0  0
  140.0637   70.2931  229.2732 H   0  0  0  0  0  0  0  0  0  0  0  0
  138.9560   69.0258  227.3980 H   0  0  0  0  0  0  0  0  0  0  0  0
  139.4933   69.2080  221.7391 H   0  0  0  0  0  0  0  0  0  0  0  0
  138.4165   68.4901  223.0688 H   0  0  0  0  0  0  0  0  0  0  0  0
  137.8198   70.1579  220.8838 H   0  0  0  0  0  0  0  0  0  0  0  0
  135.5506   69.3525  221.4577 H   0  0  0  0  0  0  0  0  0  0  0  0
  136.7370   68.0126  221.7556 H   0  0  0  0  0  0  0  0  0  0  0  0
  134.8643   68.6047  223.4722 H   0  0  0  0  0  0  0  0  0  0  0  0
  136.5887   68.1498  223.9579 H   0  0  0  0  0  0  0  0  0  0  0  0
  135.1330   70.2133  224.9197 H   0  0  0  0  0  0  0  0  0  0  0  0
  136.9668   69.9799  224.9143 H   0  0  0  0  0  0  0  0  0  0  0  0
  135.2590   71.7296  223.2283 H   0  0  0  0  0  0  0  0  0  0  0  0
  136.7260   72.0763  224.3022 H   0  0  0  0  0  0  0  0  0  0  0  0
  136.6636   71.8651  221.5684 H   0  0  0  0  0  0  0  0  0  0  0  0
  138.0948   71.8375  222.7311 H   0  0  0  0  0  0  0  0  0  0  0  0
  141.4170   74.8172  221.7887 H   0  0  0  0  0  0  0  0  0  0  0  0
  140.0818   78.7082  220.6574 H   0  0  0  0  0  0  0  0  0  0  0  0
  139.6193   80.1429  221.6390 H   0  0  0  0  0  0  0  0  0  0  0  0
  142.4774   79.2076  221.1014 H   0  0  0  0  0  0  0  0  0  0  0  0
  141.6574   80.5601  220.2653 H   0  0  0  0  0  0  0  0  0  0  0  0
  1  2  1  0
  2  3  1  0
  3  4  1  0
  4  5  1  0
  5  6  1  0
  6  7  1  0
  7  8  2  0
  8  9  1  0
  9 10  2  0
 10 11  1  0
 11 12  1  0
 12 13  2  0
 13 14  1  0
 14 15  2  0
 15 16  1  0
 16 17  2  0
 17 18  1  0
 18 19  2  0
 19 20  1  0
 20 21  2  0
 21 22  1  0
 22 23  2  0
 22 24  1  0
 24 25  1  0
 25 26  1  0
 26 27  1  0
 27 28  1  0
 28 29  1  0
 29 30  1  0
 30 31  1  0
 11 32  2  0
  5 33  1  0
 33 34  1  0
 34  2  1  0
 32  7  1  0
 24 14  1  0
 31 26  1  0
 21 16  1  0
  1 35  1  0
  1 36  1  0
  1 37  1  0
  3 38  1  0
  3 39  1  0
  4 40  1  0
  4 41  1  0
  6 42  1  0
  6 43  1  0
  8 44  1  0
  9 45  1  0
 10 46  1  0
 12 47  1  0
 13 48  1  0
 17 49  1  0
 18 50  1  0
 19 51  1  0
 20 52  1  0
 25 53  1  0
 25 54  1  0
 26 55  1  0
 27 56  1  0
 27 57  1  0
 28 58  1  0
 28 59  1  0
 29 60  1  0
 29 61  1  0
 30 62  1  0
 30 63  1  0
 31 64  1  0
 31 65  1  0
 32 66  1  0
 33 67  1  0
 33 68  1  0
 34 69  1  0
 34 70  1  0
M  END
>  <smiles>  (8) 
CN1CCN(Cc2cccc(/C=C/c3nc4ccccc4c(=O)n3CC3CCCCC3)c2)CC1

>  <score_type>  (8) 
oracle

>  <origin>  (8) 
autodockgpu

>  <m_score__min__energy>  (8) 
-9.4000000000000004

>  <m_primary>  (8) 
energy

>  <rmsd>  (8) 
10.966184004097013

>  <m_score__min__rmsd>  (8) 
10.966184004097013

>  <meeko>  (8) 
{"free_energy": -8.65, "intermolecular_energy": -10.74, "internal_energy": -2.35, "cluster_size": 35, "cluster_id": 1, "rank_in_cluster": 27}

>  <energy>  (8) 
-9.08

>  <cluster_rmsd>  (8) 
0.97

>  <cluster>  (8) 
1

$$$$

     RDKit          3D

 70 74  0  0  0  0  0  0  0  0999 V2000
  141.8870   81.4820  223.6620 C   0  0  0  0  0  0  0  0  0  0  0  0
  140.7360   80.8600  223.0850 N   0  0  0  0  0  0  0  0  0  0  0  0
  140.8790   80.5320  221.6780 C   0  0  0  0  0  0  0  0  0  0  0  0
  141.7990   79.3800  221.4490 C   0  0  0  0  0  0  0  0  0  0  0  0
  141.4660   78.2640  222.2610 N   0  0  0  0  0  0  0  0  0  0  0  0
  140.4670   77.3780  221.7700 C   0  0  0  0  0  0  0  0  0  0  0  0
  141.1270   76.2270  221.1010 C   0  0  0  0  0  0  0  0  0  0  0  0
  141.8750   76.3320  219.9570 C   0  0  0  0  0  0  0  0  0  0  0  0
  142.4560   75.2190  219.3910 C   0  0  0  0  0  0  0  0  0  0  0  0
  142.2810   73.9650  219.9910 C   0  0  0  0  0  0  0  0  0  0  0  0
  141.5370   73.8300  221.1380 C   0  0  0  0  0  0  0  0  0  0  0  0
  141.3210   72.5310  221.8080 C   0  0  0  0  0  0  0  0  0  0  0  0
  140.2700   72.2240  222.4940 C   0  0  0  0  0  0  0  0  0  0  0  0
  140.0600   71.3610  223.6110 C   0  0  0  0  0  0  0  0  0  0  0  0
  140.5740   71.8160  224.8060 N   0  0  0  0  0  0  0  0  0  0  0  0
  140.5190   71.2000  225.9560 C   0  0  0  0  0  0  0  0  0  0  0  0
  141.0800   71.7840  227.0690 C   0  0  0  0  0  0  0  0  0  0  0  0
  140.9820   71.0740  228.2510 C   0  0  0  0  0  0  0  0  0  0  0  0
  140.3600   69.8460  228.3310 C   0  0  0  0  0  0  0  0  0  0  0  0
  139.7950   69.2680  227.1930 C   0  0  0  0  0  0  0  0  0  0  0  0
  139.8970   69.9780  226.0270 C   0  0  0  0  0  0  0  0  0  0  0  0
  139.3700   69.4870  224.8570 C   0  0  0  0  0  0  0  0  0  0  0  0
  138.8030   68.3660  224.9200 O   0  0  0  0  0  0  0  0  0  0  0  0
  139.4560   70.1810  223.6670 N   0  0  0  0  0  0  0  0  0  0  0  0
  138.8520   69.5350  222.5480 C   0  0  0  0  0  0  0  0  0  0  0  0
  137.6120   70.1470  222.0010 C   0  0  0  0  0  0  0  0  0  0  0  0
  136.5470   69.0560  221.8290 C   0  0  0  0  0  0  0  0  0  0  0  0
  136.0290   68.5780  223.1390 C   0  0  0  0  0  0  0  0  0  0  0  0
  135.9840   69.5830  224.2340 C   0  0  0  0  0  0  0  0  0  0  0  0
  136.0820   71.0100  223.8230 C   0  0  0  0  0  0  0  0  0  0  0  0
  137.0580   71.3240  222.7350 C   0  0  0  0  0  0  0  0  0  0  0  0
  140.9790   74.9790  221.6610 C   0  0  0  0  0  0  0  0  0  0  0  0
  141.4070   78.6150  223.6310 C   0  0  0  0  0  0  0  0  0  0  0  0
  140.3560   79.6770  223.8420 C   0  0  0  0  0  0  0  0  0  0  0  0
  141.8140   81.4425  224.7589 H   0  0  0  0  0  0  0  0  0  0  0  0
  142.7932   80.9508  223.3355 H   0  0  0  0  0  0  0  0  0  0  0  0
  141.9392   82.5311  223.3355 H   0  0  0  0  0  0  0  0  0  0  0  0
  139.8884   80.2779  221.2728 H   0  0  0  0  0  0  0  0  0  0  0  0
  141.3105   81.4089  221.1732 H   0  0  0  0  0  0  0  0  0  0  0  0
  141.7377   79.0811  220.3922 H   0  0  0  0  0  0  0  0  0  0  0  0
  142.8175   79.7007  221.7133 H   0  0  0  0  0  0  0  0  0  0  0  0
  139.8524   77.0151  222.6070 H   0  0  0  0  0  0  0  0  0  0  0  0
  139.8230   77.9060  221.0513 H   0  0  0  0  0  0  0  0  0  0  0  0
  142.0127   77.3164  219.4858 H   0  0  0  0  0  0  0  0  0  0  0  0
  143.0542   75.3140  218.4728 H   0  0  0  0  0  0  0  0  0  0  0  0
  142.7455   73.0769  219.5377 H   0  0  0  0  0  0  0  0  0  0  0  0
  142.1111   71.7712  221.7163 H   0  0  0  0  0  0  0  0  0  0  0  0
  139.3554   72.7280  222.1484 H   0  0  0  0  0  0  0  0  0  0  0  0
  141.5794   72.7629  227.0205 H   0  0  0  0  0  0  0  0  0  0  0  0
  141.4175   71.5058  229.1641 H   0  0  0  0  0  0  0  0  0  0  0  0
  140.3088   69.3197  229.2956 H   0  0  0  0  0  0  0  0  0  0  0  0
  139.2926   68.2902  227.2312 H   0  0  0  0  0  0  0  0  0  0  0  0
  139.5955   69.5118  221.7376 H   0  0  0  0  0  0  0  0  0  0  0  0
  138.5414   68.5484  222.9223 H   0  0  0  0  0  0  0  0  0  0  0  0
  137.9109   70.5797  221.0349 H   0  0  0  0  0  0  0  0  0  0  0  0
  135.7105   69.4643  221.2429 H   0  0  0  0  0  0  0  0  0  0  0  0
  137.0118   68.2028  221.3133 H   0  0  0  0  0  0  0  0  0  0  0  0
  135.0051   68.2086  222.9803 H   0  0  0  0  0  0  0  0  0  0  0  0
  136.7411   67.8095  223.4742 H   0  0  0  0  0  0  0  0  0  0  0  0
  135.0320   69.4530  224.7694 H   0  0  0  0  0  0  0  0  0  0  0  0
  136.8783   69.3915  224.8452 H   0  0  0  0  0  0  0  0  0  0  0  0
  135.0862   71.3288  223.4812 H   0  0  0  0  0  0  0  0  0  0  0  0
  136.4524   71.5443  224.7103 H   0  0  0  0  0  0  0  0  0  0  0  0
  136.5516   71.9706  222.0033 H   0  0  0  0  0  0  0  0  0  0  0  0
  137.9172   71.7988  223.2314 H   0  0  0  0  0  0  0  0  0  0  0  0
  140.3806   74.8918  222.5799 H   0  0  0  0  0  0  0  0  0  0  0  0
  141.1515   77.7253  224.2252 H   0  0  0  0  0  0  0  0  0  0  0  0
  142.3855   79.0044  223.9485 H   0  0  0  0  0  0  0  0  0  0  0  0
  139.3809   79.3089  223.4903 H   0  0  0  0  0  0  0  0  0  0  0  0
  140.2783   79.9229  224.9113 H   0  0  0  0  0  0  0  0  0  0  0  0
  1  2  1  0
  2  3  1  0
  3  4  1  0
  4  5  1  0
  5  6  1  0
  6  7  1  0
  7  8  2  0
  8  9  1  0
  9 10  2  0
 10 11  1  0
 11 12  1  0
 12 13  2  0
 13 14  1  0
 14 15  2  0
 15 16  1  0
 16 17  2  0
 17 18  1  0
 18 19  2  0
 19 20  1  0
 20 21  2  0
 21 22  1  0
 22 23  2  0
 22 24  1  0
 24 25  1  0
 25 26  1  0
 26 27  1  0
 27 28  1  0
 28 29  1  0
 29 30  1  0
 30 31  1  0
 11 32  2  0
  5 33  1  0
 33 34  1  0
 34  2  1  0
 32  7  1  0
 24 14  1  0
 31 26  1  0
 21 16  1  0
  1 35  1  0
  1 36  1  0
  1 37  1  0
  3 38  1  0
  3 39  1  0
  4 40  1  0
  4 41  1  0
  6 42  1  0
  6 43  1  0
  8 44  1  0
  9 45  1  0
 10 46  1  0
 12 47  1  0
 13 48  1  0
 17 49  1  0
 18 50  1  0
 19 51  1  0
 20 52  1  0
 25 53  1  0
 25 54  1  0
 26 55  1  0
 27 56  1  0
 27 57  1  0
 28 58  1  0
 28 59  1  0
 29 60  1  0
 29 61  1  0
 30 62  1  0
 30 63  1  0
 31 64  1  0
 31 65  1  0
 32 66  1  0
 33 67  1  0
 33 68  1  0
 34 69  1  0
 34 70  1  0
M  END
>  <smiles>  (9) 
CN1CCN(Cc2cccc(/C=C/c3nc4ccccc4c(=O)n3CC3CCCCC3)c2)CC1

>  <score_type>  (9) 
oracle

>  <origin>  (9) 
autodockgpu

>  <m_score__min__energy>  (9) 
-9.4000000000000004

>  <m_primary>  (9) 
energy

>  <rmsd>  (9) 
11.209754035325055

>  <m_score__min__rmsd>  (9) 
11.209754035325055

>  <meeko>  (9) 
{"free_energy": -8.9, "intermolecular_energy": -10.99, "internal_energy": -1.89, "cluster_size": 35, "cluster_id": 1, "rank_in_cluster": 17}

>  <energy>  (9) 
-9.06

>  <cluster_rmsd>  (9) 
1.39

>  <cluster>  (9) 
1

$$$$

     RDKit          3D

 70 74  0  0  0  0  0  0  0  0999 V2000
  145.9070   71.1210  219.2060 C   0  0  0  0  0  0  0  0  0  0  0  0
  145.9510   72.5490  219.2680 N   0  0  0  0  0  0  0  0  0  0  0  0
  145.1510   73.2130  218.2550 C   0  0  0  0  0  0  0  0  0  0  0  0
  143.6860   73.1010  218.5170 C   0  0  0  0  0  0  0  0  0  0  0  0
  143.3520   73.4790  219.8430 N   0  0  0  0  0  0  0  0  0  0  0  0
  143.1430   74.8650  220.0900 C   0  0  0  0  0  0  0  0  0  0  0  0
  141.8690   75.0370  220.8350 C   0  0  0  0  0  0  0  0  0  0  0  0
  141.4010   76.2450  221.2850 C   0  0  0  0  0  0  0  0  0  0  0  0
  140.2100   76.3280  221.9720 C   0  0  0  0  0  0  0  0  0  0  0  0
  139.4670   75.1640  222.2120 C   0  0  0  0  0  0  0  0  0  0  0  0
  139.9110   73.9410  221.7730 C   0  0  0  0  0  0  0  0  0  0  0  0
  139.1660   72.6860  222.0030 C   0  0  0  0  0  0  0  0  0  0  0  0
  139.7080   71.5600  222.3310 C   0  0  0  0  0  0  0  0  0  0  0  0
  139.7510   70.8240  223.5530 C   0  0  0  0  0  0  0  0  0  0  0  0
  140.2760   71.5080  224.6270 N   0  0  0  0  0  0  0  0  0  0  0  0
  140.4290   71.0420  225.8380 C   0  0  0  0  0  0  0  0  0  0  0  0
  140.9710   71.8490  226.8130 C   0  0  0  0  0  0  0  0  0  0  0  0
  141.1030   71.2900  228.0710 C   0  0  0  0  0  0  0  0  0  0  0  0
  140.7190   69.9960  228.3530 C   0  0  0  0  0  0  0  0  0  0  0  0
  140.1700   69.1920  227.3530 C   0  0  0  0  0  0  0  0  0  0  0  0
  140.0430   69.7540  226.1110 C   0  0  0  0  0  0  0  0  0  0  0  0
  139.5140   69.0360  225.0650 C   0  0  0  0  0  0  0  0  0  0  0  0
  139.1630   67.8540  225.3130 O   0  0  0  0  0  0  0  0  0  0  0  0
  139.3730   69.5770  223.8040 N   0  0  0  0  0  0  0  0  0  0  0  0
  138.8000   68.7010  222.8340 C   0  0  0  0  0  0  0  0  0  0  0  0
  137.3630   68.3580  222.9980 C   0  0  0  0  0  0  0  0  0  0  0  0
  136.6930   69.4100  223.8900 C   0  0  0  0  0  0  0  0  0  0  0  0
  136.5570   70.7180  223.1950 C   0  0  0  0  0  0  0  0  0  0  0  0
  136.3520   70.6610  221.7230 C   0  0  0  0  0  0  0  0  0  0  0  0
  135.9230   69.3490  221.1680 C   0  0  0  0  0  0  0  0  0  0  0  0
  136.5740   68.1350  221.7500 C   0  0  0  0  0  0  0  0  0  0  0  0
  141.1100   73.9180  221.0910 C   0  0  0  0  0  0  0  0  0  0  0  0
  144.1060   72.7560  220.7980 C   0  0  0  0  0  0  0  0  0  0  0  0
  145.5780   73.0190  220.5930 C   0  0  0  0  0  0  0  0  0  0  0  0
  145.8943   70.7099  220.2262 H   0  0  0  0  0  0  0  0  0  0  0  0
  144.9987   70.8050  218.6720 H   0  0  0  0  0  0  0  0  0  0  0  0
  146.7941   70.7497  218.6720 H   0  0  0  0  0  0  0  0  0  0  0  0
  145.4245   74.2782  218.2322 H   0  0  0  0  0  0  0  0  0  0  0  0
  145.3562   72.7211  217.2928 H   0  0  0  0  0  0  0  0  0  0  0  0
  143.1488   73.7559  217.8152 H   0  0  0  0  0  0  0  0  0  0  0  0
  143.3964   72.0486  218.3809 H   0  0  0  0  0  0  0  0  0  0  0  0
  143.9763   75.2628  220.6877 H   0  0  0  0  0  0  0  0  0  0  0  0
  143.0915   75.4089  219.1353 H   0  0  0  0  0  0  0  0  0  0  0  0
  141.9836   77.1585  221.0951 H   0  0  0  0  0  0  0  0  0  0  0  0
  139.8443   77.3017  222.3300 H   0  0  0  0  0  0  0  0  0  0  0  0
  138.5153   75.2311  222.7595 H   0  0  0  0  0  0  0  0  0  0  0  0
  138.0725   72.7122  221.8868 H   0  0  0  0  0  0  0  0  0  0  0  0
  140.2429   71.0711  221.5034 H   0  0  0  0  0  0  0  0  0  0  0  0
  141.2823   72.8828  226.6026 H   0  0  0  0  0  0  0  0  0  0  0  0
  141.5313   71.9018  228.8786 H   0  0  0  0  0  0  0  0  0  0  0  0
  140.8458   69.5960  229.3698 H   0  0  0  0  0  0  0  0  0  0  0  0
  139.8547   68.1573  227.5529 H   0  0  0  0  0  0  0  0  0  0  0  0
  138.9173   69.1753  221.8485 H   0  0  0  0  0  0  0  0  0  0  0  0
  139.3363   67.7486  222.9578 H   0  0  0  0  0  0  0  0  0  0  0  0
  137.3612   67.3643  223.4698 H   0  0  0  0  0  0  0  0  0  0  0  0
  135.6923   69.0516  224.1731 H   0  0  0  0  0  0  0  0  0  0  0  0
  137.3256   69.5586  224.7775 H   0  0  0  0  0  0  0  0  0  0  0  0
  135.6958   71.2433  223.6337 H   0  0  0  0  0  0  0  0  0  0  0  0
  137.5203   71.2293  223.3386 H   0  0  0  0  0  0  0  0  0  0  0  0
  135.5826   71.4028  221.4627 H   0  0  0  0  0  0  0  0  0  0  0  0
  137.3400   70.8576  221.2812 H   0  0  0  0  0  0  0  0  0  0  0  0
  134.8387   69.2564  221.3283 H   0  0  0  0  0  0  0  0  0  0  0  0
  136.2280   69.3654  220.1113 H   0  0  0  0  0  0  0  0  0  0  0  0
  135.7841   67.4035  221.9759 H   0  0  0  0  0  0  0  0  0  0  0  0
  137.2974   67.7922  220.9955 H   0  0  0  0  0  0  0  0  0  0  0  0
  141.4814   72.9474  220.7304 H   0  0  0  0  0  0  0  0  0  0  0  0
  143.8156   73.0749  221.8099 H   0  0  0  0  0  0  0  0  0  0  0  0
  143.9091   71.6805  220.6774 H   0  0  0  0  0  0  0  0  0  0  0  0
  145.7768   74.0979  220.6735 H   0  0  0  0  0  0  0  0  0  0  0  0
  146.1652   72.4914  221.3590 H   0  0  0  0  0  0  0  0  0  0  0  0
  1  2  1  0
  2  3  1  0
  3  4  1  0
  4  5  1  0
  5  6  1  0
  6  7  1  0
  7  8  2  0
  8  9  1  0
  9 10  2  0
 10 11  1  0
 11 12  1  0
 12 13  2  0
 13 14  1  0
 14 15  2  0
 15 16  1  0
 16 17  2  0
 17 18  1  0
 18 19  2  0
 19 20  1  0
 20 21  2  0
 21 22  1  0
 22 23  2  0
 22 24  1  0
 24 25  1  0
 25 26  1  0
 26 27  1  0
 27 28  1  0
 28 29  1  0
 29 30  1  0
 30 31  1  0
 11 32  2  0
  5 33  1  0
 33 34  1  0
 34  2  1  0
 32  7  1  0
 24 14  1  0
 31 26  1  0
 21 16  1  0
  1 35  1  0
  1 36  1  0
  1 37  1  0
  3 38  1  0
  3 39  1  0
  4 40  1  0
  4 41  1  0
  6 42  1  0
  6 43  1  0
  8 44  1  0
  9 45  1  0
 10 46  1  0
 12 47  1  0
 13 48  1  0
 17 49  1  0
 18 50  1  0
 19 51  1  0
 20 52  1  0
 25 53  1  0
 25 54  1  0
 26 55  1  0
 27 56  1  0
 27 57  1  0
 28 58  1  0
 28 59  1  0
 29 60  1  0
 29 61  1  0
 30 62  1  0
 30 63  1  0
 31 64  1  0
 31 65  1  0
 32 66  1  0
 33 67  1  0
 33 68  1  0
 34 69  1  0
 34 70  1  0
M  END
>  <smiles>  (10) 
CN1CCN(Cc2cccc(/C=C/c3nc4ccccc4c(=O)n3CC3CCCCC3)c2)CC1

>  <score_type>  (10) 
oracle

>  <origin>  (10) 
autodockgpu

>  <m_score__min__energy>  (10) 
-9.4000000000000004

>  <m_primary>  (10) 
energy

>  <rmsd>  (10) 
11.151465598843695

>  <m_score__min__rmsd>  (10) 
11.151465598843695

>  <meeko>  (10) 
{"free_energy": -9.04, "intermolecular_energy": -11.13, "internal_energy": -1.97, "cluster_size": 9, "cluster_id": 2, "rank_in_cluster": 3}

>  <energy>  (10) 
-9.05

>  <cluster_rmsd>  (10) 
0.69

>  <cluster>  (10) 
1

$$$$

     RDKit          3D

 70 74  0  0  0  0  0  0  0  0999 V2000
  142.5780   80.5680  222.8400 C   0  0  0  0  0  0  0  0  0  0  0  0
  141.5650   80.0760  223.7200 N   0  0  0  0  0  0  0  0  0  0  0  0
  140.2210   80.5070  223.3800 C   0  0  0  0  0  0  0  0  0  0  0  0
  139.6940   79.8300  222.1590 C   0  0  0  0  0  0  0  0  0  0  0  0
  139.8390   78.4190  222.2280 N   0  0  0  0  0  0  0  0  0  0  0  0
  138.8140   77.6930  222.8970 C   0  0  0  0  0  0  0  0  0  0  0  0
  138.5970   76.4020  222.1940 C   0  0  0  0  0  0  0  0  0  0  0  0
  137.5080   76.1310  221.4070 C   0  0  0  0  0  0  0  0  0  0  0  0
  137.3740   74.9080  220.7880 C   0  0  0  0  0  0  0  0  0  0  0  0
  138.3620   73.9300  220.9630 C   0  0  0  0  0  0  0  0  0  0  0  0
  139.4640   74.1740  221.7460 C   0  0  0  0  0  0  0  0  0  0  0  0
  140.5310   73.1770  221.9640 C   0  0  0  0  0  0  0  0  0  0  0  0
  140.3270   71.9310  222.2440 C   0  0  0  0  0  0  0  0  0  0  0  0
  140.0650   71.2420  223.4650 C   0  0  0  0  0  0  0  0  0  0  0  0
  140.6530   71.7920  224.5840 N   0  0  0  0  0  0  0  0  0  0  0  0
  140.5700   71.3350  225.8040 C   0  0  0  0  0  0  0  0  0  0  0  0
  141.2160   71.9960  226.8240 C   0  0  0  0  0  0  0  0  0  0  0  0
  141.0820   71.4550  228.0890 C   0  0  0  0  0  0  0  0  0  0  0  0
  140.3460   70.3160  228.3360 C   0  0  0  0  0  0  0  0  0  0  0  0
  139.6970   69.6570  227.2910 C   0  0  0  0  0  0  0  0  0  0  0  0
  139.8350   70.2000  226.0410 C   0  0  0  0  0  0  0  0  0  0  0  0
  139.2310   69.6200  224.9520 C   0  0  0  0  0  0  0  0  0  0  0  0
  138.5600   68.5780  225.1680 O   0  0  0  0  0  0  0  0  0  0  0  0
  139.3510   70.1450  223.6820 N   0  0  0  0  0  0  0  0  0  0  0  0
  138.6570   69.4250  222.6650 C   0  0  0  0  0  0  0  0  0  0  0  0
  137.4280   70.0530  222.1100 C   0  0  0  0  0  0  0  0  0  0  0  0
  136.2590   69.0700  222.2410 C   0  0  0  0  0  0  0  0  0  0  0  0
  135.8320   68.9030  223.6570 C   0  0  0  0  0  0  0  0  0  0  0  0
  135.9860   70.0940  224.5340 C   0  0  0  0  0  0  0  0  0  0  0  0
  136.1700   71.4000  223.8450 C   0  0  0  0  0  0  0  0  0  0  0  0
  137.0580   71.3990  222.6410 C   0  0  0  0  0  0  0  0  0  0  0  0
  139.5460   75.4160  222.3420 C   0  0  0  0  0  0  0  0  0  0  0  0
  141.1780   78.0440  222.4920 C   0  0  0  0  0  0  0  0  0  0  0  0
  141.6210   78.6260  223.8130 C   0  0  0  0  0  0  0  0  0  0  0  0
  143.4123   80.9732  223.4314 H   0  0  0  0  0  0  0  0  0  0  0  0
  142.9431   79.7468  222.2056 H   0  0  0  0  0  0  0  0  0  0  0  0
  142.1583   81.3626  222.2056 H   0  0  0  0  0  0  0  0  0  0  0  0
  139.5538   80.2801  224.2246 H   0  0  0  0  0  0  0  0  0  0  0  0
  140.2593   81.5866  223.1726 H   0  0  0  0  0  0  0  0  0  0  0  0
  138.6264   80.0724  222.0515 H   0  0  0  0  0  0  0  0  0  0  0  0
  140.2728   80.1890  221.2952 H   0  0  0  0  0  0  0  0  0  0  0  0
  139.1172   77.5002  223.9367 H   0  0  0  0  0  0  0  0  0  0  0  0
  137.8825   78.2782  222.8949 H   0  0  0  0  0  0  0  0  0  0  0  0
  136.7325   76.8987  221.2683 H   0  0  0  0  0  0  0  0  0  0  0  0
  136.4956   74.7000  220.1593 H   0  0  0  0  0  0  0  0  0  0  0  0
  138.2538   72.9542  220.4670 H   0  0  0  0  0  0  0  0  0  0  0  0
  141.5735   73.5183  221.8825 H   0  0  0  0  0  0  0  0  0  0  0  0
  140.3627   71.2707  221.3649 H   0  0  0  0  0  0  0  0  0  0  0  0
  141.8071   72.9058  226.6423 H   0  0  0  0  0  0  0  0  0  0  0  0
  141.5827   71.9533  228.9322 H   0  0  0  0  0  0  0  0  0  0  0  0
  140.2699   69.9248  229.3613 H   0  0  0  0  0  0  0  0  0  0  0  0
  139.1040   68.7466  227.4626 H   0  0  0  0  0  0  0  0  0  0  0  0
  139.3571   69.2722  221.8304 H   0  0  0  0  0  0  0  0  0  0  0  0
  138.3098   68.5033  223.1548 H   0  0  0  0  0  0  0  0  0  0  0  0
  137.6662   70.2628  221.0568 H   0  0  0  0  0  0  0  0  0  0  0  0
  135.4084   69.4485  221.6551 H   0  0  0  0  0  0  0  0  0  0  0  0
  136.5928   68.0908  221.8672 H   0  0  0  0  0  0  0  0  0  0  0  0
  134.7684   68.6223  223.6559 H   0  0  0  0  0  0  0  0  0  0  0  0
  136.5016   68.1387  224.0782 H   0  0  0  0  0  0  0  0  0  0  0  0
  135.0840   70.1689  225.1591 H   0  0  0  0  0  0  0  0  0  0  0  0
  136.9158   69.9256  225.0972 H   0  0  0  0  0  0  0  0  0  0  0  0
  135.1777   71.7538  223.5284 H   0  0  0  0  0  0  0  0  0  0  0  0
  136.6730   72.0480  224.5778 H   0  0  0  0  0  0  0  0  0  0  0  0
  136.5416   71.9481  221.8398 H   0  0  0  0  0  0  0  0  0  0  0  0
  138.0014   71.8635  222.9640 H   0  0  0  0  0  0  0  0  0  0  0  0
  140.4214   75.6307  222.9725 H   0  0  0  0  0  0  0  0  0  0  0  0
  141.2485   76.9471  222.5342 H   0  0  0  0  0  0  0  0  0  0  0  0
  141.8271   78.4265  221.6906 H   0  0  0  0  0  0  0  0  0  0  0  0
  140.9518   78.2794  224.6143 H   0  0  0  0  0  0  0  0  0  0  0  0
  142.6469   78.3023  224.0425 H   0  0  0  0  0  0  0  0  0  0  0  0
  1  2  1  0
  2  3  1  0
  3  4  1  0
  4  5  1  0
  5  6  1  0
  6  7  1  0
  7  8  2  0
  8  9  1  0
  9 10  2  0
 10 11  1  0
 11 12  1  0
 12 13  2  0
 13 14  1  0
 14 15  2  0
 15 16  1  0
 16 17  2  0
 17 18  1  0
 18 19  2  0
 19 20  1  0
 20 21  2  0
 21 22  1  0
 22 23  2  0
 22 24  1  0
 24 25  1  0
 25 26  1  0
 26 27  1  0
 27 28  1  0
 28 29  1  0
 29 30  1  0
 30 31  1  0
 11 32  2  0
  5 33  1  0
 33 34  1  0
 34  2  1  0
 32  7  1  0
 24 14  1  0
 31 26  1  0
 21 16  1  0
  1 35  1  0
  1 36  1  0
  1 37  1  0
  3 38  1  0
  3 39  1  0
  4 40  1  0
  4 41  1  0
  6 42  1  0
  6 43  1  0
  8 44  1  0
  9 45  1  0
 10 46  1  0
 12 47  1  0
 13 48  1  0
 17 49  1  0
 18 50  1  0
 19 51  1  0
 20 52  1  0
 25 53  1  0
 25 54  1  0
 26 55  1  0
 27 56  1  0
 27 57  1  0
 28 58  1  0
 28 59  1  0
 29 60  1  0
 29 61  1  0
 30 62  1  0
 30 63  1  0
 31 64  1  0
 31 65  1  0
 32 66  1  0
 33 67  1  0
 33 68  1  0
 34 69  1  0
 34 70  1  0
M  END
>  <smiles>  (11) 
CN1CCN(Cc2cccc(/C=C/c3nc4ccccc4c(=O)n3CC3CCCCC3)c2)CC1

>  <score_type>  (11) 
oracle

>  <origin>  (11) 
autodockgpu

>  <m_score__min__energy>  (11) 
-9.4000000000000004

>  <m_primary>  (11) 
energy

>  <rmsd>  (11) 
11.1357653640166

>  <m_score__min__rmsd>  (11) 
11.1357653640166

>  <meeko>  (11) 
{"free_energy": -8.47, "intermolecular_energy": -10.56, "internal_energy": -2.32, "cluster_size": 35, "cluster_id": 1, "rank_in_cluster": 32}

>  <energy>  (11) 
-9.04

>  <cluster_rmsd>  (11) 
1.16

>  <cluster>  (11) 
1

$$$$

     RDKit          3D

 70 74  0  0  0  0  0  0  0  0999 V2000
  139.1240   80.3350  224.1220 C   0  0  0  0  0  0  0  0  0  0  0  0
  139.9090   80.4700  222.9340 N   0  0  0  0  0  0  0  0  0  0  0  0
  141.2890   80.0450  223.0810 C   0  0  0  0  0  0  0  0  0  0  0  0
  141.4250   78.5620  223.1760 C   0  0  0  0  0  0  0  0  0  0  0  0
  140.7330   77.8960  222.1310 N   0  0  0  0  0  0  0  0  0  0  0  0
  141.4210   77.7340  220.8970 C   0  0  0  0  0  0  0  0  0  0  0  0
  141.7850   76.3040  220.7280 C   0  0  0  0  0  0  0  0  0  0  0  0
  142.8660   75.8670  220.0080 C   0  0  0  0  0  0  0  0  0  0  0  0
  143.1400   74.5220  219.8940 C   0  0  0  0  0  0  0  0  0  0  0  0
  142.3040   73.5890  220.5220 C   0  0  0  0  0  0  0  0  0  0  0  0
  141.2130   73.9970  221.2500 C   0  0  0  0  0  0  0  0  0  0  0  0
  140.3010   73.0540  221.9280 C   0  0  0  0  0  0  0  0  0  0  0  0
  140.6360   71.8770  222.3410 C   0  0  0  0  0  0  0  0  0  0  0  0
  140.2910   71.1220  223.5030 C   0  0  0  0  0  0  0  0  0  0  0  0
  140.7330   71.6520  224.6950 N   0  0  0  0  0  0  0  0  0  0  0  0
  140.5520   71.1380  225.8820 C   0  0  0  0  0  0  0  0  0  0  0  0
  141.0540   71.7870  226.9880 C   0  0  0  0  0  0  0  0  0  0  0  0
  140.8250   71.1850  228.2110 C   0  0  0  0  0  0  0  0  0  0  0  0
  140.1330   69.9990  228.3380 C   0  0  0  0  0  0  0  0  0  0  0  0
  139.6290   69.3550  227.2070 C   0  0  0  0  0  0  0  0  0  0  0  0
  139.8610   69.9580  226.0000 C   0  0  0  0  0  0  0  0  0  0  0  0
  139.4040   69.3950  224.8330 C   0  0  0  0  0  0  0  0  0  0  0  0
  138.7730   68.3120  224.9390 O   0  0  0  0  0  0  0  0  0  0  0  0
  139.6210   69.9810  223.6030 N   0  0  0  0  0  0  0  0  0  0  0  0
  139.0740   69.2720  222.4930 C   0  0  0  0  0  0  0  0  0  0  0  0
  137.9150   69.8920  221.7980 C   0  0  0  0  0  0  0  0  0  0  0  0
  136.7840   68.8620  221.6900 C   0  0  0  0  0  0  0  0  0  0  0  0
  136.1590   68.5850  223.0110 C   0  0  0  0  0  0  0  0  0  0  0  0
  136.1280   69.7190  223.9730 C   0  0  0  0  0  0  0  0  0  0  0  0
  136.3530   71.0730  223.4020 C   0  0  0  0  0  0  0  0  0  0  0  0
  137.4090   71.1850  222.3490 C   0  0  0  0  0  0  0  0  0  0  0  0
  140.9880   75.3570  221.3300 C   0  0  0  0  0  0  0  0  0  0  0  0
  139.3740   78.2890  222.0710 C   0  0  0  0  0  0  0  0  0  0  0  0
  139.2830   79.7750  221.8200 C   0  0  0  0  0  0  0  0  0  0  0  0
  139.7717   80.4464  225.0041 H   0  0  0  0  0  0  0  0  0  0  0  0
  138.3461   81.1125  224.1378 H   0  0  0  0  0  0  0  0  0  0  0  0
  138.6505   79.3422  224.1378 H   0  0  0  0  0  0  0  0  0  0  0  0
  141.8607   80.3962  222.2093 H   0  0  0  0  0  0  0  0  0  0  0  0
  141.6726   80.4757  224.0177 H   0  0  0  0  0  0  0  0  0  0  0  0
  142.4916   78.2990  223.1195 H   0  0  0  0  0  0  0  0  0  0  0  0
  140.9859   78.2414  224.1322 H   0  0  0  0  0  0  0  0  0  0  0  0
  140.7700   78.0489  220.0681 H   0  0  0  0  0  0  0  0  0  0  0  0
  142.3317   78.3509  220.8965 H   0  0  0  0  0  0  0  0  0  0  0  0
  143.5227   76.5991  219.5152 H   0  0  0  0  0  0  0  0  0  0  0  0
  144.0102   74.1821  219.3132 H   0  0  0  0  0  0  0  0  0  0  0  0
  142.5245   72.5152  220.4307 H   0  0  0  0  0  0  0  0  0  0  0  0
  139.2625   73.3769  222.0930 H   0  0  0  0  0  0  0  0  0  0  0  0
  141.3241   71.3515  221.6626 H   0  0  0  0  0  0  0  0  0  0  0  0
  141.6076   72.7337  226.9027 H   0  0  0  0  0  0  0  0  0  0  0  0
  141.2102   71.6714  229.1193 H   0  0  0  0  0  0  0  0  0  0  0  0
  139.9777   69.5590  229.3341 H   0  0  0  0  0  0  0  0  0  0  0  0
  139.0725   68.4091  227.2818 H   0  0  0  0  0  0  0  0  0  0  0  0
  139.8768   69.1469  221.7515 H   0  0  0  0  0  0  0  0  0  0  0  0
  138.6834   68.3356  222.9179 H   0  0  0  0  0  0  0  0  0  0  0  0
  138.2985   70.1803  220.8082 H   0  0  0  0  0  0  0  0  0  0  0  0
  136.0141   69.2494  221.0064 H   0  0  0  0  0  0  0  0  0  0  0  0
  137.2131   67.9224  221.3118 H   0  0  0  0  0  0  0  0  0  0  0  0
  135.1209   68.2686  222.8315 H   0  0  0  0  0  0  0  0  0  0  0  0
  136.7913   67.8173  223.4809 H   0  0  0  0  0  0  0  0  0  0  0  0
  135.1410   69.7198  224.4586 H   0  0  0  0  0  0  0  0  0  0  0  0
  136.9709   69.5457  224.6582 H   0  0  0  0  0  0  0  0  0  0  0  0
  135.4039   71.4119  222.9611 H   0  0  0  0  0  0  0  0  0  0  0  0
  136.7116   71.6874  224.2410 H   0  0  0  0  0  0  0  0  0  0  0  0
  136.9932   71.7683  221.5142 H   0  0  0  0  0  0  0  0  0  0  0  0
  138.2717   71.6597  222.8393 H   0  0  0  0  0  0  0  0  0  0  0  0
  140.1199   75.7043  221.9095 H   0  0  0  0  0  0  0  0  0  0  0  0
  138.8733   77.7491  221.2538 H   0  0  0  0  0  0  0  0  0  0  0  0
  138.8841   78.0510  223.0267 H   0  0  0  0  0  0  0  0  0  0  0  0
  139.8054   80.0262  220.8851 H   0  0  0  0  0  0  0  0  0  0  0  0
  138.2295   80.0785  221.7303 H   0  0  0  0  0  0  0  0  0  0  0  0
  1  2  1  0
  2  3  1  0
  3  4  1  0
  4  5  1  0
  5  6  1  0
  6  7  1  0
  7  8  2  0
  8  9  1  0
  9 10  2  0
 10 11  1  0
 11 12  1  0
 12 13  2  0
 13 14  1  0
 14 15  2  0
 15 16  1  0
 16 17  2  0
 17 18  1  0
 18 19  2  0
 19 20  1  0
 20 21  2  0
 21 22  1  0
 22 23  2  0
 22 24  1  0
 24 25  1  0
 25 26  1  0
 26 27  1  0
 27 28  1  0
 28 29  1  0
 29 30  1  0
 30 31  1  0
 11 32  2  0
  5 33  1  0
 33 34  1  0
 34  2  1  0
 32  7  1  0
 24 14  1  0
 31 26  1  0
 21 16  1  0
  1 35  1  0
  1 36  1  0
  1 37  1  0
  3 38  1  0
  3 39  1  0
  4 40  1  0
  4 41  1  0
  6 42  1  0
  6 43  1  0
  8 44  1  0
  9 45  1  0
 10 46  1  0
 12 47  1  0
 13 48  1  0
 17 49  1  0
 18 50  1  0
 19 51  1  0
 20 52  1  0
 25 53  1  0
 25 54  1  0
 26 55  1  0
 27 56  1  0
 27 57  1  0
 28 58  1  0
 28 59  1  0
 29 60  1  0
 29 61  1  0
 30 62  1  0
 30 63  1  0
 31 64  1  0
 31 65  1  0
 32 66  1  0
 33 67  1  0
 33 68  1  0
 34 69  1  0
 34 70  1  0
M  END
>  <smiles>  (12) 
CN1CCN(Cc2cccc(/C=C/c3nc4ccccc4c(=O)n3CC3CCCCC3)c2)CC1

>  <score_type>  (12) 
oracle

>  <origin>  (12) 
autodockgpu

>  <m_score__min__energy>  (12) 
-9.4000000000000004

>  <m_primary>  (12) 
energy

>  <rmsd>  (12) 
11.156639278128589

>  <m_score__min__rmsd>  (12) 
11.156639278128589

>  <meeko>  (12) 
{"free_energy": -8.68, "intermolecular_energy": -10.77, "internal_energy": -1.94, "cluster_size": 35, "cluster_id": 1, "rank_in_cluster": 26}

>  <energy>  (12) 
-9.03

>  <cluster_rmsd>  (12) 
0.85

>  <cluster>  (12) 
1

$$$$

     RDKit          3D

 70 74  0  0  0  0  0  0  0  0999 V2000
  141.5060   81.6750  222.6720 C   0  0  0  0  0  0  0  0  0  0  0  0
  142.2000   80.5190  222.1940 N   0  0  0  0  0  0  0  0  0  0  0  0
  142.5760   79.5780  223.2340 C   0  0  0  0  0  0  0  0  0  0  0  0
  141.4050   78.8300  223.7790 C   0  0  0  0  0  0  0  0  0  0  0  0
  140.6150   78.2550  222.7490 N   0  0  0  0  0  0  0  0  0  0  0  0
  141.0170   76.9810  222.2570 C   0  0  0  0  0  0  0  0  0  0  0  0
  139.8270   76.0940  222.1830 C   0  0  0  0  0  0  0  0  0  0  0  0
  138.5380   76.5240  222.3630 C   0  0  0  0  0  0  0  0  0  0  0  0
  137.4830   75.6410  222.2810 C   0  0  0  0  0  0  0  0  0  0  0  0
  137.7310   74.2890  222.0100 C   0  0  0  0  0  0  0  0  0  0  0  0
  139.0120   73.8300  221.8250 C   0  0  0  0  0  0  0  0  0  0  0  0
  139.3250   72.4150  221.5390 C   0  0  0  0  0  0  0  0  0  0  0  0
  140.1320   71.6860  222.2370 C   0  0  0  0  0  0  0  0  0  0  0  0
  139.9820   70.9830  223.4700 C   0  0  0  0  0  0  0  0  0  0  0  0
  140.5060   71.6210  224.5730 N   0  0  0  0  0  0  0  0  0  0  0  0
  140.5010   71.1720  225.7990 C   0  0  0  0  0  0  0  0  0  0  0  0
  141.0660   71.9270  226.8020 C   0  0  0  0  0  0  0  0  0  0  0  0
  141.0240   71.3880  228.0760 C   0  0  0  0  0  0  0  0  0  0  0  0
  140.4520   70.1630  228.3450 C   0  0  0  0  0  0  0  0  0  0  0  0
  139.8830   69.4110  227.3170 C   0  0  0  0  0  0  0  0  0  0  0  0
  139.9290   69.9520  226.0600 C   0  0  0  0  0  0  0  0  0  0  0  0
  139.3940   69.2810  224.9860 C   0  0  0  0  0  0  0  0  0  0  0  0
  138.8730   68.1620  225.2230 O   0  0  0  0  0  0  0  0  0  0  0  0
  139.4250   69.8020  223.7090 N   0  0  0  0  0  0  0  0  0  0  0  0
  138.8200   68.9830  222.7100 C   0  0  0  0  0  0  0  0  0  0  0  0
  137.3760   68.6700  222.8750 C   0  0  0  0  0  0  0  0  0  0  0  0
  136.7020   69.8050  223.6570 C   0  0  0  0  0  0  0  0  0  0  0  0
  136.5940   71.0470  222.8460 C   0  0  0  0  0  0  0  0  0  0  0  0
  136.4170   70.8610  221.3810 C   0  0  0  0  0  0  0  0  0  0  0  0
  135.9830   69.5090  220.9360 C   0  0  0  0  0  0  0  0  0  0  0  0
  136.6080   68.3450  221.6360 C   0  0  0  0  0  0  0  0  0  0  0  0
  140.0290   74.7590  221.9180 C   0  0  0  0  0  0  0  0  0  0  0  0
  140.2140   79.2220  221.7970 C   0  0  0  0  0  0  0  0  0  0  0  0
  141.4310   79.8470  221.1590 C   0  0  0  0  0  0  0  0  0  0  0  0
  141.5065   81.6742  223.7720 H   0  0  0  0  0  0  0  0  0  0  0  0
  142.0090   82.5821  222.3058 H   0  0  0  0  0  0  0  0  0  0  0  0
  140.4689   81.6576  222.3058 H   0  0  0  0  0  0  0  0  0  0  0  0
  143.2916   78.8557  222.8142 H   0  0  0  0  0  0  0  0  0  0  0  0
  143.0193   80.1529  224.0604 H   0  0  0  0  0  0  0  0  0  0  0  0
  141.7709   78.0272  224.4360 H   0  0  0  0  0  0  0  0  0  0  0  0
  140.7752   79.5416  224.3331 H   0  0  0  0  0  0  0  0  0  0  0  0
  141.4556   77.0943  221.2546 H   0  0  0  0  0  0  0  0  0  0  0  0
  141.7669   76.5417  222.9313 H   0  0  0  0  0  0  0  0  0  0  0  0
  138.3434   77.5856  222.5753 H   0  0  0  0  0  0  0  0  0  0  0  0
  136.4521   75.9957  222.4275 H   0  0  0  0  0  0  0  0  0  0  0  0
  136.8880   73.5854  221.9445 H   0  0  0  0  0  0  0  0  0  0  0  0
  138.8366   71.9489  220.6705 H   0  0  0  0  0  0  0  0  0  0  0  0
  141.1334   71.5878  221.7926 H   0  0  0  0  0  0  0  0  0  0  0  0
  141.5260   72.9059  226.6016 H   0  0  0  0  0  0  0  0  0  0  0  0
  141.4643   71.9595  228.9064 H   0  0  0  0  0  0  0  0  0  0  0  0
  140.4442   69.7767  229.3749 H   0  0  0  0  0  0  0  0  0  0  0  0
  139.4200   68.4314  227.5069 H   0  0  0  0  0  0  0  0  0  0  0  0
  138.9399   69.4954  221.7440 H   0  0  0  0  0  0  0  0  0  0  0  0
  139.3325   68.0128  222.7882 H   0  0  0  0  0  0  0  0  0  0  0  0
  137.3531   67.7220  223.4325 H   0  0  0  0  0  0  0  0  0  0  0  0
  135.6922   69.4834  223.9518 H   0  0  0  0  0  0  0  0  0  0  0  0
  137.3203   70.0259  224.5396 H   0  0  0  0  0  0  0  0  0  0  0  0
  135.7303   71.6172  223.2187 H   0  0  0  0  0  0  0  0  0  0  0  0
  137.5599   71.5601  222.9631 H   0  0  0  0  0  0  0  0  0  0  0  0
  135.6619   71.5845  221.0401 H   0  0  0  0  0  0  0  0  0  0  0  0
  137.4158   71.0072  220.9439 H   0  0  0  0  0  0  0  0  0  0  0  0
  134.8948   69.4422  221.0821 H   0  0  0  0  0  0  0  0  0  0  0  0
  136.3085   69.4284  219.8884 H   0  0  0  0  0  0  0  0  0  0  0  0
  135.8052   67.6447  221.9100 H   0  0  0  0  0  0  0  0  0  0  0  0
  137.3413   67.9290  220.9294 H   0  0  0  0  0  0  0  0  0  0  0  0
  141.0623   74.4113  221.7715 H   0  0  0  0  0  0  0  0  0  0  0  0
  139.6024   78.7386  221.0209 H   0  0  0  0  0  0  0  0  0  0  0  0
  139.6254   80.0038  222.2993 H   0  0  0  0  0  0  0  0  0  0  0  0
  142.0457   79.0658  220.6881 H   0  0  0  0  0  0  0  0  0  0  0  0
  141.1239   80.5693  220.3884 H   0  0  0  0  0  0  0  0  0  0  0  0
  1  2  1  0
  2  3  1  0
  3  4  1  0
  4  5  1  0
  5  6  1  0
  6  7  1  0
  7  8  2  0
  8  9  1  0
  9 10  2  0
 10 11  1  0
 11 12  1  0
 12 13  2  0
 13 14  1  0
 14 15  2  0
 15 16  1  0
 16 17  2  0
 17 18  1  0
 18 19  2  0
 19 20  1  0
 20 21  2  0
 21 22  1  0
 22 23  2  0
 22 24  1  0
 24 25  1  0
 25 26  1  0
 26 27  1  0
 27 28  1  0
 28 29  1  0
 29 30  1  0
 30 31  1  0
 11 32  2  0
  5 33  1  0
 33 34  1  0
 34  2  1  0
 32  7  1  0
 24 14  1  0
 31 26  1  0
 21 16  1  0
  1 35  1  0
  1 36  1  0
  1 37  1  0
  3 38  1  0
  3 39  1  0
  4 40  1  0
  4 41  1  0
  6 42  1  0
  6 43  1  0
  8 44  1  0
  9 45  1  0
 10 46  1  0
 12 47  1  0
 13 48  1  0
 17 49  1  0
 18 50  1  0
 19 51  1  0
 20 52  1  0
 25 53  1  0
 25 54  1  0
 26 55  1  0
 27 56  1  0
 27 57  1  0
 28 58  1  0
 28 59  1  0
 29 60  1  0
 29 61  1  0
 30 62  1  0
 30 63  1  0
 31 64  1  0
 31 65  1  0
 32 66  1  0
 33 67  1  0
 33 68  1  0
 34 69  1  0
 34 70  1  0
M  END
>  <smiles>  (13) 
CN1CCN(Cc2cccc(/C=C/c3nc4ccccc4c(=O)n3CC3CCCCC3)c2)CC1

>  <score_type>  (13) 
oracle

>  <origin>  (13) 
autodockgpu

>  <m_score__min__energy>  (13) 
-9.4000000000000004

>  <m_primary>  (13) 
energy

>  <rmsd>  (13) 
10.91767726858984

>  <m_score__min__rmsd>  (13) 
10.91767726858984

>  <meeko>  (13) 
{"free_energy": -8.91, "intermolecular_energy": -11.0, "internal_energy": -2.07, "cluster_size": 35, "cluster_id": 1, "rank_in_cluster": 16}

>  <energy>  (13) 
-9.02

>  <cluster_rmsd>  (13) 
1.32

>  <cluster>  (13) 
1

$$$$

     RDKit          3D

 70 74  0  0  0  0  0  0  0  0999 V2000
  141.4840   81.3780  223.2470 C   0  0  0  0  0  0  0  0  0  0  0  0
  140.8570   80.2540  223.8690 N   0  0  0  0  0  0  0  0  0  0  0  0
  139.5490   79.9280  223.3290 C   0  0  0  0  0  0  0  0  0  0  0  0
  139.6270   79.3190  221.9690 C   0  0  0  0  0  0  0  0  0  0  0  0
  140.5460   78.2390  221.9210 N   0  0  0  0  0  0  0  0  0  0  0  0
  140.0640   76.9570  222.3100 C   0  0  0  0  0  0  0  0  0  0  0  0
  140.8100   75.9120  221.5620 C   0  0  0  0  0  0  0  0  0  0  0  0
  141.7250   76.1800  220.5770 C   0  0  0  0  0  0  0  0  0  0  0  0
  142.3770   75.1570  219.9250 C   0  0  0  0  0  0  0  0  0  0  0  0
  142.1030   73.8270  220.2720 C   0  0  0  0  0  0  0  0  0  0  0  0
  141.1910   73.5300  221.2550 C   0  0  0  0  0  0  0  0  0  0  0  0
  140.8660   72.1460  221.6570 C   0  0  0  0  0  0  0  0  0  0  0  0
  139.9260   71.8220  222.4830 C   0  0  0  0  0  0  0  0  0  0  0  0
  139.8920   70.9680  223.6260 C   0  0  0  0  0  0  0  0  0  0  0  0
  140.3960   71.5200  224.7830 N   0  0  0  0  0  0  0  0  0  0  0  0
  140.4820   70.9320  225.9450 C   0  0  0  0  0  0  0  0  0  0  0  0
  141.0110   71.6160  227.0160 C   0  0  0  0  0  0  0  0  0  0  0  0
  141.0700   70.9310  228.2160 C   0  0  0  0  0  0  0  0  0  0  0  0
  140.6270   69.6320  228.3520 C   0  0  0  0  0  0  0  0  0  0  0  0
  140.0920   68.9530  227.2560 C   0  0  0  0  0  0  0  0  0  0  0  0
  140.0380   69.6400  226.0730 C   0  0  0  0  0  0  0  0  0  0  0  0
  139.5270   69.0510  224.9410 C   0  0  0  0  0  0  0  0  0  0  0  0
  139.1230   67.8650  225.0560 O   0  0  0  0  0  0  0  0  0  0  0  0
  139.4590   69.7190  223.7360 N   0  0  0  0  0  0  0  0  0  0  0  0
  138.8950   68.9660  222.6630 C   0  0  0  0  0  0  0  0  0  0  0  0
  137.4400   68.6700  222.7350 C   0  0  0  0  0  0  0  0  0  0  0  0
  136.7760   69.6490  223.7110 C   0  0  0  0  0  0  0  0  0  0  0  0
  136.7200   71.0290  223.1580 C   0  0  0  0  0  0  0  0  0  0  0  0
  136.5750   71.1400  221.6820 C   0  0  0  0  0  0  0  0  0  0  0  0
  136.1180   69.9150  220.9720 C   0  0  0  0  0  0  0  0  0  0  0  0
  136.6950   68.6180  221.4410 C   0  0  0  0  0  0  0  0  0  0  0  0
  140.5690   74.5940  221.8750 C   0  0  0  0  0  0  0  0  0  0  0  0
  141.8260   78.6210  222.3910 C   0  0  0  0  0  0  0  0  0  0  0  0
  141.7250   79.0880  223.8230 C   0  0  0  0  0  0  0  0  0  0  0  0
  141.8647   82.0604  224.0212 H   0  0  0  0  0  0  0  0  0  0  0  0
  142.3193   81.0317  222.6206 H   0  0  0  0  0  0  0  0  0  0  0  0
  140.7505   81.9068  222.6206 H   0  0  0  0  0  0  0  0  0  0  0  0
  139.0553   79.2158  224.0065 H   0  0  0  0  0  0  0  0  0  0  0  0
  138.9802   80.8656  223.2429 H   0  0  0  0  0  0  0  0  0  0  0  0
  138.6298   78.9493  221.6879 H   0  0  0  0  0  0  0  0  0  0  0  0
  139.9765   80.0932  221.2701 H   0  0  0  0  0  0  0  0  0  0  0  0
  140.2174   76.8176  223.3903 H   0  0  0  0  0  0  0  0  0  0  0  0
  138.9901   76.8798  222.0848 H   0  0  0  0  0  0  0  0  0  0  0  0
  141.9408   77.2236  220.3044 H   0  0  0  0  0  0  0  0  0  0  0  0
  143.1092   75.3826  219.1358 H   0  0  0  0  0  0  0  0  0  0  0  0
  142.6248   73.0110  219.7506 H   0  0  0  0  0  0  0  0  0  0  0  0
  141.4667   71.3334  221.2225 H   0  0  0  0  0  0  0  0  0  0  0  0
  138.9602   72.2994  222.2608 H   0  0  0  0  0  0  0  0  0  0  0  0
  141.3678   72.6523  226.9224 H   0  0  0  0  0  0  0  0  0  0  0  0
  141.4866   71.4422  229.0964 H   0  0  0  0  0  0  0  0  0  0  0  0
  140.6955   69.1291  229.3279 H   0  0  0  0  0  0  0  0  0  0  0  0
  139.7316   67.9170  227.3387 H   0  0  0  0  0  0  0  0  0  0  0  0
  139.0733   69.5279  221.7343 H   0  0  0  0  0  0  0  0  0  0  0  0
  139.3881   67.9841  222.7144 H   0  0  0  0  0  0  0  0  0  0  0  0
  137.3790   67.6322  223.0946 H   0  0  0  0  0  0  0  0  0  0  0  0
  135.7512   69.3062  223.9169 H   0  0  0  0  0  0  0  0  0  0  0  0
  137.3774   69.6741  224.6317 H   0  0  0  0  0  0  0  0  0  0  0  0
  135.8621   71.5406  223.6188 H   0  0  0  0  0  0  0  0  0  0  0  0
  137.6957   71.4797  223.3925 H   0  0  0  0  0  0  0  0  0  0  0  0
  135.8472   71.9385  221.4756 H   0  0  0  0  0  0  0  0  0  0  0  0
  137.5875   71.3399  221.3014 H   0  0  0  0  0  0  0  0  0  0  0  0
  135.0251   69.8535  221.0811 H   0  0  0  0  0  0  0  0  0  0  0  0
  136.4678   70.0315  219.9356 H   0  0  0  0  0  0  0  0  0  0  0  0
  135.8678   67.9021  221.5559 H   0  0  0  0  0  0  0  0  0  0  0  0
  137.4349   68.3269  220.6808 H   0  0  0  0  0  0  0  0  0  0  0  0
  139.8370   74.3757  222.6665 H   0  0  0  0  0  0  0  0  0  0  0  0
  142.5080   77.7598  222.3347 H   0  0  0  0  0  0  0  0  0  0  0  0
  142.2128   79.4405  221.7675 H   0  0  0  0  0  0  0  0  0  0  0  0
  141.3020   78.2859  224.4457 H   0  0  0  0  0  0  0  0  0  0  0  0
  142.7233   79.3464  224.2060 H   0  0  0  0  0  0  0  0  0  0  0  0
  1  2  1  0
  2  3  1  0
  3  4  1  0
  4  5  1  0
  5  6  1  0
  6  7  1  0
  7  8  2  0
  8  9  1  0
  9 10  2  0
 10 11  1  0
 11 12  1  0
 12 13  2  0
 13 14  1  0
 14 15  2  0
 15 16  1  0
 16 17  2  0
 17 18  1  0
 18 19  2  0
 19 20  1  0
 20 21  2  0
 21 22  1  0
 22 23  2  0
 22 24  1  0
 24 25  1  0
 25 26  1  0
 26 27  1  0
 27 28  1  0
 28 29  1  0
 29 30  1  0
 30 31  1  0
 11 32  2  0
  5 33  1  0
 33 34  1  0
 34  2  1  0
 32  7  1  0
 24 14  1  0
 31 26  1  0
 21 16  1  0
  1 35  1  0
  1 36  1  0
  1 37  1  0
  3 38  1  0
  3 39  1  0
  4 40  1  0
  4 41  1  0
  6 42  1  0
  6 43  1  0
  8 44  1  0
  9 45  1  0
 10 46  1  0
 12 47  1  0
 13 48  1  0
 17 49  1  0
 18 50  1  0
 19 51  1  0
 20 52  1  0
 25 53  1  0
 25 54  1  0
 26 55  1  0
 27 56  1  0
 27 57  1  0
 28 58  1  0
 28 59  1  0
 29 60  1  0
 29 61  1  0
 30 62  1  0
 30 63  1  0
 31 64  1  0
 31 65  1  0
 32 66  1  0
 33 67  1  0
 33 68  1  0
 34 69  1  0
 34 70  1  0
M  END
>  <smiles>  (14) 
CN1CCN(Cc2cccc(/C=C/c3nc4ccccc4c(=O)n3CC3CCCCC3)c2)CC1

>  <score_type>  (14) 
oracle

>  <origin>  (14) 
autodockgpu

>  <m_score__min__energy>  (14) 
-9.4000000000000004

>  <m_primary>  (14) 
energy

>  <rmsd>  (14) 
11.140013543495611

>  <m_score__min__rmsd>  (14) 
11.140013543495611

>  <meeko>  (14) 
{"free_energy": -9.03, "intermolecular_energy": -11.12, "internal_energy": -1.69, "cluster_size": 35, "cluster_id": 1, "rank_in_cluster": 12}

>  <energy>  (14) 
-8.97

>  <cluster_rmsd>  (14) 
0.74

>  <cluster>  (14) 
1

$$$$

     RDKit          3D

 70 74  0  0  0  0  0  0  0  0999 V2000
  141.8670   81.5360  222.8160 C   0  0  0  0  0  0  0  0  0  0  0  0
  140.8870   80.7100  223.4500 N   0  0  0  0  0  0  0  0  0  0  0  0
  139.6940   80.4860  222.6540 C   0  0  0  0  0  0  0  0  0  0  0  0
  139.9370   79.5660  221.5030 C   0  0  0  0  0  0  0  0  0  0  0  0
  140.5850   78.3700  221.9070 N   0  0  0  0  0  0  0  0  0  0  0  0
  139.7600   77.3150  222.3880 C   0  0  0  0  0  0  0  0  0  0  0  0
  140.2790   76.0210  221.8740 C   0  0  0  0  0  0  0  0  0  0  0  0
  141.4690   75.8830  221.2070 C   0  0  0  0  0  0  0  0  0  0  0  0
  141.8850   74.6500  220.7560 C   0  0  0  0  0  0  0  0  0  0  0  0
  141.0830   73.5230  220.9820 C   0  0  0  0  0  0  0  0  0  0  0  0
  139.8860   73.6310  221.6470 C   0  0  0  0  0  0  0  0  0  0  0  0
  139.0050   72.4750  221.9090 C   0  0  0  0  0  0  0  0  0  0  0  0
  139.4150   71.3090  222.2870 C   0  0  0  0  0  0  0  0  0  0  0  0
  139.4960   70.6770  223.5640 C   0  0  0  0  0  0  0  0  0  0  0  0
  140.1360   71.4110  224.5390 N   0  0  0  0  0  0  0  0  0  0  0  0
  140.3430   71.0400  225.7730 C   0  0  0  0  0  0  0  0  0  0  0  0
  141.0000   71.8870  226.6370 C   0  0  0  0  0  0  0  0  0  0  0  0
  141.1830   71.4280  227.9290 C   0  0  0  0  0  0  0  0  0  0  0  0
  140.7390   70.1910  228.3470 C   0  0  0  0  0  0  0  0  0  0  0  0
  140.0740   69.3450  227.4590 C   0  0  0  0  0  0  0  0  0  0  0  0
  139.8970   69.8080  226.1820 C   0  0  0  0  0  0  0  0  0  0  0  0
  139.2540   69.0430  225.2400 C   0  0  0  0  0  0  0  0  0  0  0  0
  138.8480   67.9130  225.6130 O   0  0  0  0  0  0  0  0  0  0  0  0
  139.0600   69.4840  223.9470 N   0  0  0  0  0  0  0  0  0  0  0  0
  138.3680   68.5710  223.0970 C   0  0  0  0  0  0  0  0  0  0  0  0
  139.1770   67.8500  222.0780 C   0  0  0  0  0  0  0  0  0  0  0  0
  138.8770   66.3490  222.1710 C   0  0  0  0  0  0  0  0  0  0  0  0
  137.5120   66.0260  221.6760 C   0  0  0  0  0  0  0  0  0  0  0  0
  136.9900   66.8860  220.5810 C   0  0  0  0  0  0  0  0  0  0  0  0
  137.9950   67.6990  219.8450 C   0  0  0  0  0  0  0  0  0  0  0  0
  139.0730   68.3300  220.6680 C   0  0  0  0  0  0  0  0  0  0  0  0
  139.5210   74.8910  222.0760 C   0  0  0  0  0  0  0  0  0  0  0  0
  141.7790   78.6370  222.6180 C   0  0  0  0  0  0  0  0  0  0  0  0
  141.4670   79.4410  223.8570 C   0  0  0  0  0  0  0  0  0  0  0  0
  142.4699   82.0442  223.5830 H   0  0  0  0  0  0  0  0  0  0  0  0
  142.5213   80.9129  222.1886 H   0  0  0  0  0  0  0  0  0  0  0  0
  141.3637   82.2864  222.1886 H   0  0  0  0  0  0  0  0  0  0  0  0
  138.9177   80.0472  223.2981 H   0  0  0  0  0  0  0  0  0  0  0  0
  139.3793   81.4571  222.2442 H   0  0  0  0  0  0  0  0  0  0  0  0
  138.9712   79.3090  221.0435 H   0  0  0  0  0  0  0  0  0  0  0  0
  140.5928   80.0830  220.7870 H   0  0  0  0  0  0  0  0  0  0  0  0
  139.7751   77.3075  223.4879 H   0  0  0  0  0  0  0  0  0  0  0  0
  138.7267   77.4644  222.0417 H   0  0  0  0  0  0  0  0  0  0  0  0
  142.0987   76.7674  221.0301 H   0  0  0  0  0  0  0  0  0  0  0  0
  142.8412   74.5503  220.2215 H   0  0  0  0  0  0  0  0  0  0  0  0
  141.4167   72.5386  220.6219 H   0  0  0  0  0  0  0  0  0  0  0  0
  137.9227   72.6164  221.7727 H   0  0  0  0  0  0  0  0  0  0  0  0
  139.7727   70.6783  221.4598 H   0  0  0  0  0  0  0  0  0  0  0  0
  141.3601   72.8759  226.3170 H   0  0  0  0  0  0  0  0  0  0  0  0
  141.7029   72.0748  228.6511 H   0  0  0  0  0  0  0  0  0  0  0  0
  140.9099   69.8700  229.3851 H   0  0  0  0  0  0  0  0  0  0  0  0
  139.7096   68.3545  227.7692 H   0  0  0  0  0  0  0  0  0  0  0  0
  137.8932   67.8147  223.7393 H   0  0  0  0  0  0  0  0  0  0  0  0
  137.6695   69.1934  222.5184 H   0  0  0  0  0  0  0  0  0  0  0  0
  140.2231   68.0732  222.3348 H   0  0  0  0  0  0  0  0  0  0  0  0
  139.6140   65.8006  221.5660 H   0  0  0  0  0  0  0  0  0  0  0  0
  138.9353   66.0539  223.2291 H   0  0  0  0  0  0  0  0  0  0  0  0
  137.5242   64.9884  221.3110 H   0  0  0  0  0  0  0  0  0  0  0  0
  136.8408   66.1977  222.5304 H   0  0  0  0  0  0  0  0  0  0  0  0
  136.4886   66.2326  219.8518 H   0  0  0  0  0  0  0  0  0  0  0  0
  136.3262   67.6136  221.0708 H   0  0  0  0  0  0  0  0  0  0  0  0
  138.4788   67.0437  219.1058 H   0  0  0  0  0  0  0  0  0  0  0  0
  137.4307   68.5375  219.4110 H   0  0  0  0  0  0  0  0  0  0  0  0
  140.0352   68.1334  220.1724 H   0  0  0  0  0  0  0  0  0  0  0  0
  138.8141   69.3971  220.7332 H   0  0  0  0  0  0  0  0  0  0  0  0
  138.5663   74.9981  222.6118 H   0  0  0  0  0  0  0  0  0  0  0  0
  142.2514   77.6870  222.9084 H   0  0  0  0  0  0  0  0  0  0  0  0
  142.4639   79.2102  221.9758 H   0  0  0  0  0  0  0  0  0  0  0  0
  140.7515   78.8908  224.4858 H   0  0  0  0  0  0  0  0  0  0  0  0
  142.3868   79.6152  224.4345 H   0  0  0  0  0  0  0  0  0  0  0  0
  1  2  1  0
  2  3  1  0
  3  4  1  0
  4  5  1  0
  5  6  1  0
  6  7  1  0
  7  8  2  0
  8  9  1  0
  9 10  2  0
 10 11  1  0
 11 12  1  0
 12 13  2  0
 13 14  1  0
 14 15  2  0
 15 16  1  0
 16 17  2  0
 17 18  1  0
 18 19  2  0
 19 20  1  0
 20 21  2  0
 21 22  1  0
 22 23  2  0
 22 24  1  0
 24 25  1  0
 25 26  1  0
 26 27  1  0
 27 28  1  0
 28 29  1  0
 29 30  1  0
 30 31  1  0
 11 32  2  0
  5 33  1  0
 33 34  1  0
 34  2  1  0
 32  7  1  0
 24 14  1  0
 31 26  1  0
 21 16  1  0
  1 35  1  0
  1 36  1  0
  1 37  1  0
  3 38  1  0
  3 39  1  0
  4 40  1  0
  4 41  1  0
  6 42  1  0
  6 43  1  0
  8 44  1  0
  9 45  1  0
 10 46  1  0
 12 47  1  0
 13 48  1  0
 17 49  1  0
 18 50  1  0
 19 51  1  0
 20 52  1  0
 25 53  1  0
 25 54  1  0
 26 55  1  0
 27 56  1  0
 27 57  1  0
 28 58  1  0
 28 59  1  0
 29 60  1  0
 29 61  1  0
 30 62  1  0
 30 63  1  0
 31 64  1  0
 31 65  1  0
 32 66  1  0
 33 67  1  0
 33 68  1  0
 34 69  1  0
 34 70  1  0
M  END
>  <smiles>  (15) 
CN1CCN(Cc2cccc(/C=C/c3nc4ccccc4c(=O)n3CC3CCCCC3)c2)CC1

>  <score_type>  (15) 
oracle

>  <origin>  (15) 
autodockgpu

>  <m_score__min__energy>  (15) 
-9.4000000000000004

>  <m_primary>  (15) 
energy

>  <rmsd>  (15) 
11.674382774324942

>  <m_score__min__rmsd>  (15) 
11.674382774324942

>  <meeko>  (15) 
{"free_energy": -9.06, "intermolecular_energy": -11.15, "internal_energy": -1.57, "cluster_size": 35, "cluster_id": 1, "rank_in_cluster": 9}

>  <energy>  (15) 
-8.95

>  <cluster_rmsd>  (15) 
0.71

>  <cluster>  (15) 
1

$$$$

     RDKit          3D

 70 74  0  0  0  0  0  0  0  0999 V2000
  142.3080   81.3480  224.1190 C   0  0  0  0  0  0  0  0  0  0  0  0
  141.1170   80.8960  223.4700 N   0  0  0  0  0  0  0  0  0  0  0  0
  141.1270   81.0600  222.0270 C   0  0  0  0  0  0  0  0  0  0  0  0
  142.0400   80.0930  221.3480 C   0  0  0  0  0  0  0  0  0  0  0  0
  141.8080   78.7580  221.7670 N   0  0  0  0  0  0  0  0  0  0  0  0
  140.7800   78.0360  221.0970 C   0  0  0  0  0  0  0  0  0  0  0  0
  141.1940   76.6150  220.9650 C   0  0  0  0  0  0  0  0  0  0  0  0
  142.2700   76.1950  220.2280 C   0  0  0  0  0  0  0  0  0  0  0  0
  142.5920   74.8580  220.1500 C   0  0  0  0  0  0  0  0  0  0  0  0
  141.8110   73.9160  220.8330 C   0  0  0  0  0  0  0  0  0  0  0  0
  140.7270   74.3080  221.5790 C   0  0  0  0  0  0  0  0  0  0  0  0
  139.8720   73.3550  222.3150 C   0  0  0  0  0  0  0  0  0  0  0  0
  140.1530   72.1070  222.5010 C   0  0  0  0  0  0  0  0  0  0  0  0
  140.0010   71.2350  223.6200 C   0  0  0  0  0  0  0  0  0  0  0  0
  140.5370   71.7020  224.8010 N   0  0  0  0  0  0  0  0  0  0  0  0
  140.5340   71.0800  225.9490 C   0  0  0  0  0  0  0  0  0  0  0  0
  141.1120   71.6770  227.0470 C   0  0  0  0  0  0  0  0  0  0  0  0
  141.0700   70.9610  228.2290 C   0  0  0  0  0  0  0  0  0  0  0  0
  140.4860   69.7150  228.3230 C   0  0  0  0  0  0  0  0  0  0  0  0
  139.9030   69.1250  227.2010 C   0  0  0  0  0  0  0  0  0  0  0  0
  139.9490   69.8420  226.0350 C   0  0  0  0  0  0  0  0  0  0  0  0
  139.4020   69.3390  224.8790 C   0  0  0  0  0  0  0  0  0  0  0  0
  138.8690   68.2020  224.9550 O   0  0  0  0  0  0  0  0  0  0  0  0
  139.4320   70.0380  223.6900 N   0  0  0  0  0  0  0  0  0  0  0  0
  138.8130   69.3780  222.5880 C   0  0  0  0  0  0  0  0  0  0  0  0
  137.5320   69.9460  222.0920 C   0  0  0  0  0  0  0  0  0  0  0  0
  136.3970   68.9580  222.3870 C   0  0  0  0  0  0  0  0  0  0  0  0
  136.0890   68.8870  223.8410 C   0  0  0  0  0  0  0  0  0  0  0  0
  136.2890   70.1420  224.6160 C   0  0  0  0  0  0  0  0  0  0  0  0
  136.3900   71.3960  223.8230 C   0  0  0  0  0  0  0  0  0  0  0  0
  137.1770   71.3210  222.5540 C   0  0  0  0  0  0  0  0  0  0  0  0
  140.4520   75.6600  221.6220 C   0  0  0  0  0  0  0  0  0  0  0  0
  141.8770   78.6330  223.1750 C   0  0  0  0  0  0  0  0  0  0  0  0
  140.8330   79.5130  223.8180 C   0  0  0  0  0  0  0  0  0  0  0  0
  142.1733   81.2969  225.2095 H   0  0  0  0  0  0  0  0  0  0  0  0
  143.1522   80.7077  223.8234 H   0  0  0  0  0  0  0  0  0  0  0  0
  142.5149   82.3872  223.8234 H   0  0  0  0  0  0  0  0  0  0  0  0
  140.1059   80.9072  221.6475 H   0  0  0  0  0  0  0  0  0  0  0  0
  141.4921   82.0744  221.8084 H   0  0  0  0  0  0  0  0  0  0  0  0
  141.8802   80.1569  220.2615 H   0  0  0  0  0  0  0  0  0  0  0  0
  143.0738   80.3576  221.6149 H   0  0  0  0  0  0  0  0  0  0  0  0
  139.8481   78.0961  221.6784 H   0  0  0  0  0  0  0  0  0  0  0  0
  140.6118   78.4683  220.0996 H   0  0  0  0  0  0  0  0  0  0  0  0
  142.8839   76.9341  219.6924 H   0  0  0  0  0  0  0  0  0  0  0  0
  143.4575   74.5315  219.5548 H   0  0  0  0  0  0  0  0  0  0  0  0
  142.0698   72.8487  220.7707 H   0  0  0  0  0  0  0  0  0  0  0  0
  138.9287   73.7342  222.7349 H   0  0  0  0  0  0  0  0  0  0  0  0
  140.5982   71.6201  221.6208 H   0  0  0  0  0  0  0  0  0  0  0  0
  141.5817   72.6699  226.9870 H   0  0  0  0  0  0  0  0  0  0  0  0
  141.5202   71.4026  229.1303 H   0  0  0  0  0  0  0  0  0  0  0  0
  140.4798   69.1842  229.2865 H   0  0  0  0  0  0  0  0  0  0  0  0
  139.4299   68.1332  227.2505 H   0  0  0  0  0  0  0  0  0  0  0  0
  139.5268   69.3896  221.7512 H   0  0  0  0  0  0  0  0  0  0  0  0
  138.5542   68.3773  222.9642 H   0  0  0  0  0  0  0  0  0  0  0  0
  137.6823   70.0827  221.0109 H   0  0  0  0  0  0  0  0  0  0  0  0
  135.4946   69.2812  221.8474 H   0  0  0  0  0  0  0  0  0  0  0  0
  136.7191   67.9593  222.0570 H   0  0  0  0  0  0  0  0  0  0  0  0
  135.0348   68.5913  223.9469 H   0  0  0  0  0  0  0  0  0  0  0  0
  136.8055   68.1647  224.2593 H   0  0  0  0  0  0  0  0  0  0  0  0
  135.4390   70.2491  225.3059 H   0  0  0  0  0  0  0  0  0  0  0  0
  137.2643   70.0287  225.1119 H   0  0  0  0  0  0  0  0  0  0  0  0
  135.3683   71.7112  223.5645 H   0  0  0  0  0  0  0  0  0  0  0  0
  136.9376   72.1026  224.4640 H   0  0  0  0  0  0  0  0  0  0  0  0
  136.5857   71.8018  221.7608 H   0  0  0  0  0  0  0  0  0  0  0  0
  138.1331   71.8226  222.7643 H   0  0  0  0  0  0  0  0  0  0  0  0
  139.5888   75.9939  222.2165 H   0  0  0  0  0  0  0  0  0  0  0  0
  141.6963   77.5855  223.4579 H   0  0  0  0  0  0  0  0  0  0  0  0
  142.8749   78.9428  223.5187 H   0  0  0  0  0  0  0  0  0  0  0  0
  139.8348   79.2350  223.4487 H   0  0  0  0  0  0  0  0  0  0  0  0
  140.8552   79.3872  224.9106 H   0  0  0  0  0  0  0  0  0  0  0  0
  1  2  1  0
  2  3  1  0
  3  4  1  0
  4  5  1  0
  5  6  1  0
  6  7  1  0
  7  8  2  0
  8  9  1  0
  9 10  2  0
 10 11  1  0
 11 12  1  0
 12 13  2  0
 13 14  1  0
 14 15  2  0
 15 16  1  0
 16 17  2  0
 17 18  1  0
 18 19  2  0
 19 20  1  0
 20 21  2  0
 21 22  1  0
 22 23  2  0
 22 24  1  0
 24 25  1  0
 25 26  1  0
 26 27  1  0
 27 28  1  0
 28 29  1  0
 29 30  1  0
 30 31  1  0
 11 32  2  0
  5 33  1  0
 33 34  1  0
 34  2  1  0
 32  7  1  0
 24 14  1  0
 31 26  1  0
 21 16  1  0
  1 35  1  0
  1 36  1  0
  1 37  1  0
  3 38  1  0
  3 39  1  0
  4 40  1  0
  4 41  1  0
  6 42  1  0
  6 43  1  0
  8 44  1  0
  9 45  1  0
 10 46  1  0
 12 47  1  0
 13 48  1  0
 17 49  1  0
 18 50  1  0
 19 51  1  0
 20 52  1  0
 25 53  1  0
 25 54  1  0
 26 55  1  0
 27 56  1  0
 27 57  1  0
 28 58  1  0
 28 59  1  0
 29 60  1  0
 29 61  1  0
 30 62  1  0
 30 63  1  0
 31 64  1  0
 31 65  1  0
 32 66  1  0
 33 67  1  0
 33 68  1  0
 34 69  1  0
 34 70  1  0
M  END
>  <smiles>  (16) 
CN1CCN(Cc2cccc(/C=C/c3nc4ccccc4c(=O)n3CC3CCCCC3)c2)CC1

>  <score_type>  (16) 
oracle

>  <origin>  (16) 
autodockgpu

>  <m_score__min__energy>  (16) 
-9.4000000000000004

>  <m_primary>  (16) 
energy

>  <rmsd>  (16) 
11.356473242216513

>  <m_score__min__rmsd>  (16) 
11.356473242216513

>  <meeko>  (16) 
{"free_energy": -9.28, "intermolecular_energy": -11.37, "internal_energy": -1.86, "cluster_size": 35, "cluster_id": 1, "rank_in_cluster": 3}

>  <energy>  (16) 
-8.91

>  <cluster_rmsd>  (16) 
1.07

>  <cluster>  (16) 
1

$$$$

     RDKit          3D

 70 74  0  0  0  0  0  0  0  0999 V2000
  143.1060   80.4620  223.1470 C   0  0  0  0  0  0  0  0  0  0  0  0
  141.7280   80.3780  222.7770 N   0  0  0  0  0  0  0  0  0  0  0  0
  141.5050   79.9710  221.4020 C   0  0  0  0  0  0  0  0  0  0  0  0
  141.8040   78.5260  221.1760 C   0  0  0  0  0  0  0  0  0  0  0  0
  141.1580   77.6940  222.1270 N   0  0  0  0  0  0  0  0  0  0  0  0
  139.8160   77.3110  221.8490 C   0  0  0  0  0  0  0  0  0  0  0  0
  139.8200   75.9810  221.1870 C   0  0  0  0  0  0  0  0  0  0  0  0
  139.5540   75.7870  219.8560 C   0  0  0  0  0  0  0  0  0  0  0  0
  139.5740   74.5220  219.3110 C   0  0  0  0  0  0  0  0  0  0  0  0
  139.8700   73.4210  220.1250 C   0  0  0  0  0  0  0  0  0  0  0  0
  140.1400   73.5850  221.4620 C   0  0  0  0  0  0  0  0  0  0  0  0
  140.4550   72.4580  222.3620 C   0  0  0  0  0  0  0  0  0  0  0  0
  139.6040   71.8840  223.1470 C   0  0  0  0  0  0  0  0  0  0  0  0
  139.7130   70.8020  224.0710 C   0  0  0  0  0  0  0  0  0  0  0  0
  140.2830   71.1240  225.2830 N   0  0  0  0  0  0  0  0  0  0  0  0
  140.4990   70.3050  226.2770 C   0  0  0  0  0  0  0  0  0  0  0  0
  141.0800   70.7760  227.4330 C   0  0  0  0  0  0  0  0  0  0  0  0
  141.2780   69.8520  228.4420 C   0  0  0  0  0  0  0  0  0  0  0  0
  140.9200   68.5270  228.3170 C   0  0  0  0  0  0  0  0  0  0  0  0
  140.3310   68.0650  227.1390 C   0  0  0  0  0  0  0  0  0  0  0  0
  140.1390   68.9870  226.1440 C   0  0  0  0  0  0  0  0  0  0  0  0
  139.5670   68.6230  224.9490 C   0  0  0  0  0  0  0  0  0  0  0  0
  139.2390   67.4150  224.8260 O   0  0  0  0  0  0  0  0  0  0  0  0
  139.3600   69.5300  223.9310 N   0  0  0  0  0  0  0  0  0  0  0  0
  138.7490   68.9910  222.7600 C   0  0  0  0  0  0  0  0  0  0  0  0
  137.3130   68.6180  222.8560 C   0  0  0  0  0  0  0  0  0  0  0  0
  136.6790   69.3630  224.0370 C   0  0  0  0  0  0  0  0  0  0  0  0
  136.5370   70.8180  223.7620 C   0  0  0  0  0  0  0  0  0  0  0  0
  136.2930   71.1970  222.3440 C   0  0  0  0  0  0  0  0  0  0  0  0
  135.8360   70.1070  221.4410 C   0  0  0  0  0  0  0  0  0  0  0  0
  136.4880   68.7740  221.6210 C   0  0  0  0  0  0  0  0  0  0  0  0
  140.1070   74.8750  221.9530 C   0  0  0  0  0  0  0  0  0  0  0  0
  141.4600   78.0850  223.4540 C   0  0  0  0  0  0  0  0  0  0  0  0
  141.0020   79.5050  223.6850 C   0  0  0  0  0  0  0  0  0  0  0  0
  143.1915   80.4672  224.2437 H   0  0  0  0  0  0  0  0  0  0  0  0
  143.6482   79.5952  222.7411 H   0  0  0  0  0  0  0  0  0  0  0  0
  143.5389   81.3882  222.7411 H   0  0  0  0  0  0  0  0  0  0  0  0
  140.4516   80.1572  221.1458 H   0  0  0  0  0  0  0  0  0  0  0  0
  142.1863   80.5558  220.7665 H   0  0  0  0  0  0  0  0  0  0  0  0
  141.4619   78.2459  220.1688 H   0  0  0  0  0  0  0  0  0  0  0  0
  142.8896   78.3833  221.2817 H   0  0  0  0  0  0  0  0  0  0  0  0
  139.2467   77.2537  222.7885 H   0  0  0  0  0  0  0  0  0  0  0  0
  139.3468   78.0541  221.1874 H   0  0  0  0  0  0  0  0  0  0  0  0
  139.3220   76.6512  219.2162 H   0  0  0  0  0  0  0  0  0  0  0  0
  139.3587   74.3772  218.2421 H   0  0  0  0  0  0  0  0  0  0  0  0
  139.8864   72.4117  219.6878 H   0  0  0  0  0  0  0  0  0  0  0  0
  141.4879   72.0798  222.3646 H   0  0  0  0  0  0  0  0  0  0  0  0
  138.5938   72.3157  223.0920 H   0  0  0  0  0  0  0  0  0  0  0  0
  141.3709   71.8306  227.5475 H   0  0  0  0  0  0  0  0  0  0  0  0
  141.7398   70.1877  229.3822 H   0  0  0  0  0  0  0  0  0  0  0  0
  141.0993   67.8305  229.1493 H   0  0  0  0  0  0  0  0  0  0  0  0
  140.0355   67.0126  227.0156 H   0  0  0  0  0  0  0  0  0  0  0  0
  138.8438   69.7415  221.9614 H   0  0  0  0  0  0  0  0  0  0  0  0
  139.2771   68.0443  222.5735 H   0  0  0  0  0  0  0  0  0  0  0  0
  137.3130   67.5293  223.0132 H   0  0  0  0  0  0  0  0  0  0  0  0
  135.6829   68.9389  224.2319 H   0  0  0  0  0  0  0  0  0  0  0  0
  137.3381   69.2433  224.9095 H   0  0  0  0  0  0  0  0  0  0  0  0
  135.6925   71.1918  224.3595 H   0  0  0  0  0  0  0  0  0  0  0  0
  137.5082   71.2635  224.0232 H   0  0  0  0  0  0  0  0  0  0  0  0
  135.5249   71.9844  222.3347 H   0  0  0  0  0  0  0  0  0  0  0  0
  137.2710   71.5128  221.9518 H   0  0  0  0  0  0  0  0  0  0  0  0
  134.7553   69.9743  221.5977 H   0  0  0  0  0  0  0  0  0  0  0  0
  136.1143   70.4326  220.4278 H   0  0  0  0  0  0  0  0  0  0  0  0
  135.6961   68.0109  221.6450 H   0  0  0  0  0  0  0  0  0  0  0  0
  137.1865   68.6657  220.7782 H   0  0  0  0  0  0  0  0  0  0  0  0
  140.3231   75.0275  223.0207 H   0  0  0  0  0  0  0  0  0  0  0  0
  140.9443   77.4157  224.1583 H   0  0  0  0  0  0  0  0  0  0  0  0
  142.5468   78.0233  223.6126 H   0  0  0  0  0  0  0  0  0  0  0  0
  139.9222   79.5828  223.4903 H   0  0  0  0  0  0  0  0  0  0  0  0
  141.1973   79.7990  224.7268 H   0  0  0  0  0  0  0  0  0  0  0  0
  1  2  1  0
  2  3  1  0
  3  4  1  0
  4  5  1  0
  5  6  1  0
  6  7  1  0
  7  8  2  0
  8  9  1  0
  9 10  2  0
 10 11  1  0
 11 12  1  0
 12 13  2  0
 13 14  1  0
 14 15  2  0
 15 16  1  0
 16 17  2  0
 17 18  1  0
 18 19  2  0
 19 20  1  0
 20 21  2  0
 21 22  1  0
 22 23  2  0
 22 24  1  0
 24 25  1  0
 25 26  1  0
 26 27  1  0
 27 28  1  0
 28 29  1  0
 29 30  1  0
 30 31  1  0
 11 32  2  0
  5 33  1  0
 33 34  1  0
 34  2  1  0
 32  7  1  0
 24 14  1  0
 31 26  1  0
 21 16  1  0
  1 35  1  0
  1 36  1  0
  1 37  1  0
  3 38  1  0
  3 39  1  0
  4 40  1  0
  4 41  1  0
  6 42  1  0
  6 43  1  0
  8 44  1  0
  9 45  1  0
 10 46  1  0
 12 47  1  0
 13 48  1  0
 17 49  1  0
 18 50  1  0
 19 51  1  0
 20 52  1  0
 25 53  1  0
 25 54  1  0
 26 55  1  0
 27 56  1  0
 27 57  1  0
 28 58  1  0
 28 59  1  0
 29 60  1  0
 29 61  1  0
 30 62  1  0
 30 63  1  0
 31 64  1  0
 31 65  1  0
 32 66  1  0
 33 67  1  0
 33 68  1  0
 34 69  1  0
 34 70  1  0
M  END
>  <smiles>  (17) 
CN1CCN(Cc2cccc(/C=C/c3nc4ccccc4c(=O)n3CC3CCCCC3)c2)CC1

>  <score_type>  (17) 
oracle

>  <origin>  (17) 
autodockgpu

>  <m_score__min__energy>  (17) 
-9.4000000000000004

>  <m_primary>  (17) 
energy

>  <rmsd>  (17) 
11.742301653934835

>  <m_score__min__rmsd>  (17) 
11.742301653934835

>  <meeko>  (17) 
{"free_energy": -8.58, "intermolecular_energy": -10.67, "internal_energy": -1.85, "cluster_size": 35, "cluster_id": 1, "rank_in_cluster": 29}

>  <energy>  (17) 
-8.9

>  <cluster_rmsd>  (17) 
0.73

>  <cluster>  (17) 
1

$$$$

     RDKit          3D

 70 74  0  0  0  0  0  0  0  0999 V2000
  142.1780   81.5320  223.5620 C   0  0  0  0  0  0  0  0  0  0  0  0
  140.9660   81.0330  222.9900 N   0  0  0  0  0  0  0  0  0  0  0  0
  141.1120   80.5200  221.6400 C   0  0  0  0  0  0  0  0  0  0  0  0
  141.8410   79.2180  221.5970 C   0  0  0  0  0  0  0  0  0  0  0  0
  141.2980   78.2750  222.5070 N   0  0  0  0  0  0  0  0  0  0  0  0
  140.1880   77.5040  222.0590 C   0  0  0  0  0  0  0  0  0  0  0  0
  140.6770   76.1840  221.5830 C   0  0  0  0  0  0  0  0  0  0  0  0
  141.8060   76.0130  220.8250 C   0  0  0  0  0  0  0  0  0  0  0  0
  142.1970   74.7560  220.4170 C   0  0  0  0  0  0  0  0  0  0  0  0
  141.4320   73.6400  220.7810 C   0  0  0  0  0  0  0  0  0  0  0  0
  140.2960   73.7820  221.5400 C   0  0  0  0  0  0  0  0  0  0  0  0
  139.4550   72.6380  221.9490 C   0  0  0  0  0  0  0  0  0  0  0  0
  139.9080   71.4770  222.2870 C   0  0  0  0  0  0  0  0  0  0  0  0
  139.9020   70.7540  223.5180 C   0  0  0  0  0  0  0  0  0  0  0  0
  140.4210   71.4350  224.5970 N   0  0  0  0  0  0  0  0  0  0  0  0
  140.5330   70.9800  225.8160 C   0  0  0  0  0  0  0  0  0  0  0  0
  141.0750   71.7820  226.7940 C   0  0  0  0  0  0  0  0  0  0  0  0
  141.1620   71.2340  228.0610 C   0  0  0  0  0  0  0  0  0  0  0  0
  140.7340   69.9560  228.3480 C   0  0  0  0  0  0  0  0  0  0  0  0
  140.1850   69.1560  227.3440 C   0  0  0  0  0  0  0  0  0  0  0  0
  140.1040   69.7060  226.0930 C   0  0  0  0  0  0  0  0  0  0  0  0
  139.5790   68.9920  225.0440 C   0  0  0  0  0  0  0  0  0  0  0  0
  139.1880   67.8230  225.2960 O   0  0  0  0  0  0  0  0  0  0  0  0
  139.4830   69.5220  223.7730 N   0  0  0  0  0  0  0  0  0  0  0  0
  138.9070   68.6510  222.8010 C   0  0  0  0  0  0  0  0  0  0  0  0
  137.4560   68.3560  222.9310 C   0  0  0  0  0  0  0  0  0  0  0  0
  136.8000   69.4330  223.8040 C   0  0  0  0  0  0  0  0  0  0  0  0
  136.7230   70.7430  223.1030 C   0  0  0  0  0  0  0  0  0  0  0  0
  136.5520   70.6870  221.6260 C   0  0  0  0  0  0  0  0  0  0  0  0
  136.0940   69.3880  221.0650 C   0  0  0  0  0  0  0  0  0  0  0  0
  136.6890   68.1550  221.6650 C   0  0  0  0  0  0  0  0  0  0  0  0
  139.9530   75.0640  221.9200 C   0  0  0  0  0  0  0  0  0  0  0  0
  141.2390   78.7930  223.8230 C   0  0  0  0  0  0  0  0  0  0  0  0
  140.3670   80.0240  223.8500 C   0  0  0  0  0  0  0  0  0  0  0  0
  142.1052   81.5020  224.6592 H   0  0  0  0  0  0  0  0  0  0  0  0
  143.0225   80.9084  223.2334 H   0  0  0  0  0  0  0  0  0  0  0  0
  142.3386   82.5694  223.2334 H   0  0  0  0  0  0  0  0  0  0  0  0
  140.1109   80.3779  221.2068 H   0  0  0  0  0  0  0  0  0  0  0  0
  141.7014   81.2512  221.0674 H   0  0  0  0  0  0  0  0  0  0  0  0
  141.7751   78.8075  220.5786 H   0  0  0  0  0  0  0  0  0  0  0  0
  142.8865   79.4042  221.8839 H   0  0  0  0  0  0  0  0  0  0  0  0
  139.4812   77.3581  222.8891 H   0  0  0  0  0  0  0  0  0  0  0  0
  139.6774   78.0293  221.2385 H   0  0  0  0  0  0  0  0  0  0  0  0
  142.4068   76.8889  220.5390 H   0  0  0  0  0  0  0  0  0  0  0  0
  143.1048   74.6295  219.8088 H   0  0  0  0  0  0  0  0  0  0  0  0
  141.7452   72.6373  220.4548 H   0  0  0  0  0  0  0  0  0  0  0  0
  138.3651   72.7860  221.9668 H   0  0  0  0  0  0  0  0  0  0  0  0
  140.3958   70.9374  221.4619 H   0  0  0  0  0  0  0  0  0  0  0  0
  141.4205   72.8041  226.5797 H   0  0  0  0  0  0  0  0  0  0  0  0
  141.5897   71.8424  228.8715 H   0  0  0  0  0  0  0  0  0  0  0  0
  140.8252   69.5646  229.3720 H   0  0  0  0  0  0  0  0  0  0  0  0
  139.8346   68.1335  227.5483 H   0  0  0  0  0  0  0  0  0  0  0  0
  139.0651   69.1069  221.8125 H   0  0  0  0  0  0  0  0  0  0  0  0
  139.4086   67.6839  222.9529 H   0  0  0  0  0  0  0  0  0  0  0  0
  137.4106   67.3642  223.4045 H   0  0  0  0  0  0  0  0  0  0  0  0
  135.7818   69.1084  224.0644 H   0  0  0  0  0  0  0  0  0  0  0  0
  137.4166   69.5640  224.7054 H   0  0  0  0  0  0  0  0  0  0  0  0
  135.8687   71.2970  223.5193 H   0  0  0  0  0  0  0  0  0  0  0  0
  137.6981   71.2243  223.2691 H   0  0  0  0  0  0  0  0  0  0  0  0
  135.8139   71.4525  221.3447 H   0  0  0  0  0  0  0  0  0  0  0  0
  137.5564   70.8495  221.2079 H   0  0  0  0  0  0  0  0  0  0  0  0
  135.0036   69.3321  221.1990 H   0  0  0  0  0  0  0  0  0  0  0  0
  136.4262   69.3907  220.0164 H   0  0  0  0  0  0  0  0  0  0  0  0
  135.8695   67.4517  221.8743 H   0  0  0  0  0  0  0  0  0  0  0  0
  137.4174   67.7847  220.9286 H   0  0  0  0  0  0  0  0  0  0  0  0
  139.0466   75.1979  222.5287 H   0  0  0  0  0  0  0  0  0  0  0  0
  140.8173   78.0321  224.4962 H   0  0  0  0  0  0  0  0  0  0  0  0
  142.2536   79.0598  224.1538 H   0  0  0  0  0  0  0  0  0  0  0  0
  139.3606   79.7739  223.4832 H   0  0  0  0  0  0  0  0  0  0  0  0
  140.2855   80.4056  224.8785 H   0  0  0  0  0  0  0  0  0  0  0  0
  1  2  1  0
  2  3  1  0
  3  4  1  0
  4  5  1  0
  5  6  1  0
  6  7  1  0
  7  8  2  0
  8  9  1  0
  9 10  2  0
 10 11  1  0
 11 12  1  0
 12 13  2  0
 13 14  1  0
 14 15  2  0
 15 16  1  0
 16 17  2  0
 17 18  1  0
 18 19  2  0
 19 20  1  0
 20 21  2  0
 21 22  1  0
 22 23  2  0
 22 24  1  0
 24 25  1  0
 25 26  1  0
 26 27  1  0
 27 28  1  0
 28 29  1  0
 29 30  1  0
 30 31  1  0
 11 32  2  0
  5 33  1  0
 33 34  1  0
 34  2  1  0
 32  7  1  0
 24 14  1  0
 31 26  1  0
 21 16  1  0
  1 35  1  0
  1 36  1  0
  1 37  1  0
  3 38  1  0
  3 39  1  0
  4 40  1  0
  4 41  1  0
  6 42  1  0
  6 43  1  0
  8 44  1  0
  9 45  1  0
 10 46  1  0
 12 47  1  0
 13 48  1  0
 17 49  1  0
 18 50  1  0
 19 51  1  0
 20 52  1  0
 25 53  1  0
 25 54  1  0
 26 55  1  0
 27 56  1  0
 27 57  1  0
 28 58  1  0
 28 59  1  0
 29 60  1  0
 29 61  1  0
 30 62  1  0
 30 63  1  0
 31 64  1  0
 31 65  1  0
 32 66  1  0
 33 67  1  0
 33 68  1  0
 34 69  1  0
 34 70  1  0
M  END
>  <smiles>  (18) 
CN1CCN(Cc2cccc(/C=C/c3nc4ccccc4c(=O)n3CC3CCCCC3)c2)CC1

>  <score_type>  (18) 
oracle

>  <origin>  (18) 
autodockgpu

>  <m_score__min__energy>  (18) 
-9.4000000000000004

>  <m_primary>  (18) 
energy

>  <rmsd>  (18) 
11.135010518645325

>  <m_score__min__rmsd>  (18) 
11.135010518645325

>  <meeko>  (18) 
{"free_energy": -9.15, "intermolecular_energy": -11.24, "internal_energy": -1.8, "cluster_size": 35, "cluster_id": 1, "rank_in_cluster": 6}

>  <energy>  (18) 
-8.86

>  <cluster_rmsd>  (18) 
1.06

>  <cluster>  (18) 
1

$$$$

     RDKit          3D

 70 74  0  0  0  0  0  0  0  0999 V2000
  145.9060   71.0720  219.2120 C   0  0  0  0  0  0  0  0  0  0  0  0
  145.9720   72.4940  219.0800 N   0  0  0  0  0  0  0  0  0  0  0  0
  145.0270   73.0480  218.1280 C   0  0  0  0  0  0  0  0  0  0  0  0
  143.6210   73.0130  218.6290 C   0  0  0  0  0  0  0  0  0  0  0  0
  143.5070   73.5660  219.9310 N   0  0  0  0  0  0  0  0  0  0  0  0
  143.3520   74.9780  220.0250 C   0  0  0  0  0  0  0  0  0  0  0  0
  142.0450   75.2800  220.6630 C   0  0  0  0  0  0  0  0  0  0  0  0
  141.5360   76.5460  220.8050 C   0  0  0  0  0  0  0  0  0  0  0  0
  140.3150   76.7500  221.4100 C   0  0  0  0  0  0  0  0  0  0  0  0
  139.5850   75.6520  221.8850 C   0  0  0  0  0  0  0  0  0  0  0  0
  140.0710   74.3740  221.7570 C   0  0  0  0  0  0  0  0  0  0  0  0
  139.3410   73.1850  222.2430 C   0  0  0  0  0  0  0  0  0  0  0  0
  139.8900   72.0470  222.5150 C   0  0  0  0  0  0  0  0  0  0  0  0
  139.8150   71.1800  223.6460 C   0  0  0  0  0  0  0  0  0  0  0  0
  140.3910   71.6700  224.7970 N   0  0  0  0  0  0  0  0  0  0  0  0
  140.4580   71.0580  225.9480 C   0  0  0  0  0  0  0  0  0  0  0  0
  141.0680   71.6790  227.0150 C   0  0  0  0  0  0  0  0  0  0  0  0
  141.1000   70.9720  228.2020 C   0  0  0  0  0  0  0  0  0  0  0  0
  140.5570   69.7110  228.3310 C   0  0  0  0  0  0  0  0  0  0  0  0
  139.9410   69.0960  227.2400 C   0  0  0  0  0  0  0  0  0  0  0  0
  139.9140   69.8040  226.0690 C   0  0  0  0  0  0  0  0  0  0  0  0
  139.3290   69.2770  224.9430 C   0  0  0  0  0  0  0  0  0  0  0  0
  138.8330   68.1260  225.0510 O   0  0  0  0  0  0  0  0  0  0  0  0
  139.2840   69.9680  223.7490 N   0  0  0  0  0  0  0  0  0  0  0  0
  138.6350   69.2810  222.6800 C   0  0  0  0  0  0  0  0  0  0  0  0
  137.4510   69.9430  222.0720 C   0  0  0  0  0  0  0  0  0  0  0  0
  136.4740   68.8690  221.5770 C   0  0  0  0  0  0  0  0  0  0  0  0
  135.8100   68.1640  222.7050 C   0  0  0  0  0  0  0  0  0  0  0  0
  135.5680   68.9690  223.9320 C   0  0  0  0  0  0  0  0  0  0  0  0
  135.6490   70.4460  223.7770 C   0  0  0  0  0  0  0  0  0  0  0  0
  136.7450   70.9650  222.9020 C   0  0  0  0  0  0  0  0  0  0  0  0
  141.2980   74.2290  221.1420 C   0  0  0  0  0  0  0  0  0  0  0  0
  144.3970   72.9480  220.8410 C   0  0  0  0  0  0  0  0  0  0  0  0
  145.8200   73.1390  220.3750 C   0  0  0  0  0  0  0  0  0  0  0  0
  145.8935   70.8030  220.2785 H   0  0  0  0  0  0  0  0  0  0  0  0
  144.9897   70.7011  218.7295 H   0  0  0  0  0  0  0  0  0  0  0  0
  146.7840   70.6178  218.7295 H   0  0  0  0  0  0  0  0  0  0  0  0
  145.3029   74.0933  217.9252 H   0  0  0  0  0  0  0  0  0  0  0  0
  145.0718   72.4328  217.2172 H   0  0  0  0  0  0  0  0  0  0  0  0
  142.9845   73.5892  217.9414 H   0  0  0  0  0  0  0  0  0  0  0  0
  143.3035   71.9609  218.6775 H   0  0  0  0  0  0  0  0  0  0  0  0
  144.1656   75.3985  220.6342 H   0  0  0  0  0  0  0  0  0  0  0  0
  143.3864   75.4232  219.0197 H   0  0  0  0  0  0  0  0  0  0  0  0
  142.1089   77.4077  220.4318 H   0  0  0  0  0  0  0  0  0  0  0  0
  139.9154   77.7690  221.5196 H   0  0  0  0  0  0  0  0  0  0  0  0
  138.6098   75.8161  222.3667 H   0  0  0  0  0  0  0  0  0  0  0  0
  138.2537   73.2746  222.3832 H   0  0  0  0  0  0  0  0  0  0  0  0
  140.5457   71.6720  221.7154 H   0  0  0  0  0  0  0  0  0  0  0  0
  141.5063   72.6841  226.9272 H   0  0  0  0  0  0  0  0  0  0  0  0
  141.5777   71.4335  229.0788 H   0  0  0  0  0  0  0  0  0  0  0  0
  140.6096   69.1879  229.2972 H   0  0  0  0  0  0  0  0  0  0  0  0
  139.4989   68.0917  227.3175 H   0  0  0  0  0  0  0  0  0  0  0  0
  139.3776   69.1316  221.8823 H   0  0  0  0  0  0  0  0  0  0  0  0
  138.2451   68.3561  223.1301 H   0  0  0  0  0  0  0  0  0  0  0  0
  137.8560   70.5399  221.2415 H   0  0  0  0  0  0  0  0  0  0  0  0
  135.7042   69.3479  220.9540 H   0  0  0  0  0  0  0  0  0  0  0  0
  137.0453   68.1274  220.9994 H   0  0  0  0  0  0  0  0  0  0  0  0
  134.8365   67.7989  222.3459 H   0  0  0  0  0  0  0  0  0  0  0  0
  136.5084   67.3698  223.0074 H   0  0  0  0  0  0  0  0  0  0  0  0
  134.5603   68.7252  224.2996 H   0  0  0  0  0  0  0  0  0  0  0  0
  136.3804   68.7014  224.6237 H   0  0  0  0  0  0  0  0  0  0  0  0
  134.6932   70.7909  223.3558 H   0  0  0  0  0  0  0  0  0  0  0  0
  135.8708   70.8330  224.7825 H   0  0  0  0  0  0  0  0  0  0  0  0
  136.3091   71.7108  222.2210 H   0  0  0  0  0  0  0  0  0  0  0  0
  137.5049   71.3737  223.5843 H   0  0  0  0  0  0  0  0  0  0  0  0
  141.7026   73.2125  221.0281 H   0  0  0  0  0  0  0  0  0  0  0  0
  144.2747   73.4010  221.8359 H   0  0  0  0  0  0  0  0  0  0  0  0
  144.1735   71.8722  220.8933 H   0  0  0  0  0  0  0  0  0  0  0  0
  146.0392   74.2130  220.2827 H   0  0  0  0  0  0  0  0  0  0  0  0
  146.5172   72.6955  221.1011 H   0  0  0  0  0  0  0  0  0  0  0  0
  1  2  1  0
  2  3  1  0
  3  4  1  0
  4  5  1  0
  5  6  1  0
  6  7  1  0
  7  8  2  0
  8  9  1  0
  9 10  2  0
 10 11  1  0
 11 12  1  0
 12 13  2  0
 13 14  1  0
 14 15  2  0
 15 16  1  0
 16 17  2  0
 17 18  1  0
 18 19  2  0
 19 20  1  0
 20 21  2  0
 21 22  1  0
 22 23  2  0
 22 24  1  0
 24 25  1  0
 25 26  1  0
 26 27  1  0
 27 28  1  0
 28 29  1  0
 29 30  1  0
 30 31  1  0
 11 32  2  0
  5 33  1  0
 33 34  1  0
 34  2  1  0
 32  7  1  0
 24 14  1  0
 31 26  1  0
 21 16  1  0
  1 35  1  0
  1 36  1  0
  1 37  1  0
  3 38  1  0
  3 39  1  0
  4 40  1  0
  4 41  1  0
  6 42  1  0
  6 43  1  0
  8 44  1  0
  9 45  1  0
 10 46  1  0
 12 47  1  0
 13 48  1  0
 17 49  1  0
 18 50  1  0
 19 51  1  0
 20 52  1  0
 25 53  1  0
 25 54  1  0
 26 55  1  0
 27 56  1  0
 27 57  1  0
 28 58  1  0
 28 59  1  0
 29 60  1  0
 29 61  1  0
 30 62  1  0
 30 63  1  0
 31 64  1  0
 31 65  1  0
 32 66  1  0
 33 67  1  0
 33 68  1  0
 34 69  1  0
 34 70  1  0
M  END
>  <smiles>  (19) 
CN1CCN(Cc2cccc(/C=C/c3nc4ccccc4c(=O)n3CC3CCCCC3)c2)CC1

>  <score_type>  (19) 
oracle

>  <origin>  (19) 
autodockgpu

>  <m_score__min__energy>  (19) 
-9.4000000000000004

>  <m_primary>  (19) 
energy

>  <rmsd>  (19) 
11.357058353867911

>  <m_score__min__rmsd>  (19) 
11.357058353867911

>  <meeko>  (19) 
{"free_energy": -8.98, "intermolecular_energy": -11.06, "internal_energy": -1.95, "cluster_size": 9, "cluster_id": 2, "rank_in_cluster": 4}

>  <energy>  (19) 
-8.84

>  <cluster_rmsd>  (19) 
1.37

>  <cluster>  (19) 
1

$$$$

     RDKit          3D

 70 74  0  0  0  0  0  0  0  0999 V2000
  141.8230   81.4790  223.3640 C   0  0  0  0  0  0  0  0  0  0  0  0
  141.0250   80.3900  223.8350 N   0  0  0  0  0  0  0  0  0  0  0  0
  139.7420   80.2600  223.1670 C   0  0  0  0  0  0  0  0  0  0  0  0
  139.8730   79.7510  221.7700 C   0  0  0  0  0  0  0  0  0  0  0  0
  140.6700   78.5790  221.7030 N   0  0  0  0  0  0  0  0  0  0  0  0
  140.0190   77.3360  221.9410 C   0  0  0  0  0  0  0  0  0  0  0  0
  140.8220   76.2440  221.3310 C   0  0  0  0  0  0  0  0  0  0  0  0
  141.7370   76.4340  220.3280 C   0  0  0  0  0  0  0  0  0  0  0  0
  142.4440   75.3720  219.8090 C   0  0  0  0  0  0  0  0  0  0  0  0
  142.2260   74.0820  220.3130 C   0  0  0  0  0  0  0  0  0  0  0  0
  141.3150   73.8630  221.3170 C   0  0  0  0  0  0  0  0  0  0  0  0
  141.0480   72.5230  221.8810 C   0  0  0  0  0  0  0  0  0  0  0  0
  140.0800   72.2470  222.6910 C   0  0  0  0  0  0  0  0  0  0  0  0
  139.9390   71.2950  223.7450 C   0  0  0  0  0  0  0  0  0  0  0  0
  140.4900   71.6730  224.9500 N   0  0  0  0  0  0  0  0  0  0  0  0
  140.4990   70.9690  226.0500 C   0  0  0  0  0  0  0  0  0  0  0  0
  141.0900   71.4830  227.1810 C   0  0  0  0  0  0  0  0  0  0  0  0
  141.0610   70.6820  228.3090 C   0  0  0  0  0  0  0  0  0  0  0  0
  140.4750   69.4340  228.3180 C   0  0  0  0  0  0  0  0  0  0  0  0
  139.8790   68.9290  227.1620 C   0  0  0  0  0  0  0  0  0  0  0  0
  139.9130   69.7280  226.0510 C   0  0  0  0  0  0  0  0  0  0  0  0
  139.3510   69.3130  224.8680 C   0  0  0  0  0  0  0  0  0  0  0  0
  138.8170   68.1740  224.8670 O   0  0  0  0  0  0  0  0  0  0  0  0
  139.3690   70.0970  223.7330 N   0  0  0  0  0  0  0  0  0  0  0  0
  138.7360   69.5200  222.5930 C   0  0  0  0  0  0  0  0  0  0  0  0
  137.4960   70.1790  222.1010 C   0  0  0  0  0  0  0  0  0  0  0  0
  136.4250   69.1100  221.8530 C   0  0  0  0  0  0  0  0  0  0  0  0
  135.9110   68.5360  223.1260 C   0  0  0  0  0  0  0  0  0  0  0  0
  135.8780   69.4550  224.2950 C   0  0  0  0  0  0  0  0  0  0  0  0
  135.9820   70.9080  223.9930 C   0  0  0  0  0  0  0  0  0  0  0  0
  136.9530   71.2990  222.9260 C   0  0  0  0  0  0  0  0  0  0  0  0
  140.6370   74.9630  221.7990 C   0  0  0  0  0  0  0  0  0  0  0  0
  141.9370   78.7740  222.3040 C   0  0  0  0  0  0  0  0  0  0  0  0
  141.7620   79.1390  223.7580 C   0  0  0  0  0  0  0  0  0  0  0  0
  142.2296   82.0338  224.2224 H   0  0  0  0  0  0  0  0  0  0  0  0
  142.6511   81.0896  222.7536 H   0  0  0  0  0  0  0  0  0  0  0  0
  141.2022   82.1513  222.7536 H   0  0  0  0  0  0  0  0  0  0  0  0
  139.1155   79.5605  223.7399 H   0  0  0  0  0  0  0  0  0  0  0  0
  139.2889   81.2611  223.1165 H   0  0  0  0  0  0  0  0  0  0  0  0
  138.8703   79.5212  221.3805 H   0  0  0  0  0  0  0  0  0  0  0  0
  140.3646   80.5305  221.1695 H   0  0  0  0  0  0  0  0  0  0  0  0
  139.9305   77.1676  223.0244 H   0  0  0  0  0  0  0  0  0  0  0  0
  139.0138   77.3517  221.4946 H   0  0  0  0  0  0  0  0  0  0  0  0
  141.9085   77.4463  219.9331 H   0  0  0  0  0  0  0  0  0  0  0  0
  143.1754   75.5350  219.0038 H   0  0  0  0  0  0  0  0  0  0  0  0
  142.7919   73.2345  219.8989 H   0  0  0  0  0  0  0  0  0  0  0  0
  141.7210   71.7028  221.5906 H   0  0  0  0  0  0  0  0  0  0  0  0
  139.1864   72.8699  222.5377 H   0  0  0  0  0  0  0  0  0  0  0  0
  141.5603   72.4773  227.1882 H   0  0  0  0  0  0  0  0  0  0  0  0
  141.5235   71.0555  229.2345 H   0  0  0  0  0  0  0  0  0  0  0  0
  140.4774   68.8342  229.2401 H   0  0  0  0  0  0  0  0  0  0  0  0
  139.4047   67.9367  227.1442 H   0  0  0  0  0  0  0  0  0  0  0  0
  139.4650   69.5283  221.7693 H   0  0  0  0  0  0  0  0  0  0  0  0
  138.4163   68.5197  222.9205 H   0  0  0  0  0  0  0  0  0  0  0  0
  137.7915   70.6829  221.1689 H   0  0  0  0  0  0  0  0  0  0  0  0
  135.5876   69.5657  221.3043 H   0  0  0  0  0  0  0  0  0  0  0  0
  136.8829   68.2962  221.2716 H   0  0  0  0  0  0  0  0  0  0  0  0
  134.8840   68.1856  222.9456 H   0  0  0  0  0  0  0  0  0  0  0  0
  136.6201   67.7401  223.3974 H   0  0  0  0  0  0  0  0  0  0  0  0
  134.9283   69.2897  224.8248 H   0  0  0  0  0  0  0  0  0  0  0  0
  136.7744   69.2126  224.8846 H   0  0  0  0  0  0  0  0  0  0  0  0
  134.9860   71.2571  223.6829 H   0  0  0  0  0  0  0  0  0  0  0  0
  136.3612   71.3710  224.9159 H   0  0  0  0  0  0  0  0  0  0  0  0
  136.4458   72.0021  222.2490 H   0  0  0  0  0  0  0  0  0  0  0  0
  137.8178   71.7301  223.4517 H   0  0  0  0  0  0  0  0  0  0  0  0
  139.9050   74.8073  222.6052 H   0  0  0  0  0  0  0  0  0  0  0  0
  142.5238   77.8467  222.2283 H   0  0  0  0  0  0  0  0  0  0  0  0
  142.4635   79.5889  221.7856 H   0  0  0  0  0  0  0  0  0  0  0  0
  141.2015   78.3459  224.2746 H   0  0  0  0  0  0  0  0  0  0  0  0
  142.7449   79.2508  224.2391 H   0  0  0  0  0  0  0  0  0  0  0  0
  1  2  1  0
  2  3  1  0
  3  4  1  0
  4  5  1  0
  5  6  1  0
  6  7  1  0
  7  8  2  0
  8  9  1  0
  9 10  2  0
 10 11  1  0
 11 12  1  0
 12 13  2  0
 13 14  1  0
 14 15  2  0
 15 16  1  0
 16 17  2  0
 17 18  1  0
 18 19  2  0
 19 20  1  0
 20 21  2  0
 21 22  1  0
 22 23  2  0
 22 24  1  0
 24 25  1  0
 25 26  1  0
 26 27  1  0
 27 28  1  0
 28 29  1  0
 29 30  1  0
 30 31  1  0
 11 32  2  0
  5 33  1  0
 33 34  1  0
 34  2  1  0
 32  7  1  0
 24 14  1  0
 31 26  1  0
 21 16  1  0
  1 35  1  0
  1 36  1  0
  1 37  1  0
  3 38  1  0
  3 39  1  0
  4 40  1  0
  4 41  1  0
  6 42  1  0
  6 43  1  0
  8 44  1  0
  9 45  1  0
 10 46  1  0
 12 47  1  0
 13 48  1  0
 17 49  1  0
 18 50  1  0
 19 51  1  0
 20 52  1  0
 25 53  1  0
 25 54  1  0
 26 55  1  0
 27 56  1  0
 27 57  1  0
 28 58  1  0
 28 59  1  0
 29 60  1  0
 29 61  1  0
 30 62  1  0
 30 63  1  0
 31 64  1  0
 31 65  1  0
 32 66  1  0
 33 67  1  0
 33 68  1  0
 34 69  1  0
 34 70  1  0
M  END
>  <smiles>  (20) 
CN1CCN(Cc2cccc(/C=C/c3nc4ccccc4c(=O)n3CC3CCCCC3)c2)CC1

>  <score_type>  (20) 
oracle

>  <origin>  (20) 
autodockgpu

>  <m_score__min__energy>  (20) 
-9.4000000000000004

>  <m_primary>  (20) 
energy

>  <rmsd>  (20) 
11.394170346306842

>  <m_score__min__rmsd>  (20) 
11.394170346306842

>  <meeko>  (20) 
{"free_energy": -9.05, "intermolecular_energy": -11.13, "internal_energy": -1.81, "cluster_size": 35, "cluster_id": 1, "rank_in_cluster": 10}

>  <energy>  (20) 
-8.77

>  <cluster_rmsd>  (20) 
0.97

>  <cluster>  (20) 
1

$$$$

     RDKit          3D

 70 74  0  0  0  0  0  0  0  0999 V2000
  142.3890   80.7500  222.7780 C   0  0  0  0  0  0  0  0  0  0  0  0
  141.4940   80.0660  223.6590 N   0  0  0  0  0  0  0  0  0  0  0  0
  140.0980   80.4270  223.4890 C   0  0  0  0  0  0  0  0  0  0  0  0
  139.5130   79.8780  222.2310 C   0  0  0  0  0  0  0  0  0  0  0  0
  139.7610   78.4870  222.0920 N   0  0  0  0  0  0  0  0  0  0  0  0
  138.8520   77.5980  222.7320 C   0  0  0  0  0  0  0  0  0  0  0  0
  138.7440   76.3540  221.9280 C   0  0  0  0  0  0  0  0  0  0  0  0
  137.8770   76.1920  220.8790 C   0  0  0  0  0  0  0  0  0  0  0  0
  137.8310   75.0060  220.1790 C   0  0  0  0  0  0  0  0  0  0  0  0
  138.6810   73.9530  220.5440 C   0  0  0  0  0  0  0  0  0  0  0  0
  139.5600   74.0870  221.5910 C   0  0  0  0  0  0  0  0  0  0  0  0
  140.4750   73.0080  222.0150 C   0  0  0  0  0  0  0  0  0  0  0  0
  140.1090   71.7960  222.2790 C   0  0  0  0  0  0  0  0  0  0  0  0
  139.9710   71.0700  223.4990 C   0  0  0  0  0  0  0  0  0  0  0  0
  140.5320   71.6720  224.6040 N   0  0  0  0  0  0  0  0  0  0  0  0
  140.5440   71.1960  225.8200 C   0  0  0  0  0  0  0  0  0  0  0  0
  141.1460   71.9170  226.8270 C   0  0  0  0  0  0  0  0  0  0  0  0
  141.1190   71.3510  228.0880 C   0  0  0  0  0  0  0  0  0  0  0  0
  140.5270   70.1330  228.3440 C   0  0  0  0  0  0  0  0  0  0  0  0
  139.9190   69.4160  227.3130 C   0  0  0  0  0  0  0  0  0  0  0  0
  139.9510   69.9830  226.0670 C   0  0  0  0  0  0  0  0  0  0  0  0
  139.3780   69.3490  224.9910 C   0  0  0  0  0  0  0  0  0  0  0  0
  138.8370   68.2350  225.2150 O   0  0  0  0  0  0  0  0  0  0  0  0
  139.3930   69.8970  223.7250 N   0  0  0  0  0  0  0  0  0  0  0  0
  138.7490   69.1130  222.7220 C   0  0  0  0  0  0  0  0  0  0  0  0
  137.2700   68.9830  222.8110 C   0  0  0  0  0  0  0  0  0  0  0  0
  136.7160   70.1260  223.6700 C   0  0  0  0  0  0  0  0  0  0  0  0
  136.8080   71.4370  222.9730 C   0  0  0  0  0  0  0  0  0  0  0  0
  136.6730   71.4030  221.4920 C   0  0  0  0  0  0  0  0  0  0  0  0
  136.0870   70.1650  220.9120 C   0  0  0  0  0  0  0  0  0  0  0  0
  136.5230   68.8720  221.5230 C   0  0  0  0  0  0  0  0  0  0  0  0
  139.5630   75.2970  222.2550 C   0  0  0  0  0  0  0  0  0  0  0  0
  141.1410   78.1900  222.1950 C   0  0  0  0  0  0  0  0  0  0  0  0
  141.6590   78.6250  223.5440 C   0  0  0  0  0  0  0  0  0  0  0  0
  143.1261   81.3133  223.3690 H   0  0  0  0  0  0  0  0  0  0  0  0
  142.9100   80.0178  222.1437 H   0  0  0  0  0  0  0  0  0  0  0  0
  141.8193   81.4450  222.1437 H   0  0  0  0  0  0  0  0  0  0  0  0
  139.5263   80.0359  224.3435 H   0  0  0  0  0  0  0  0  0  0  0  0
  140.0419   81.5241  223.4317 H   0  0  0  0  0  0  0  0  0  0  0  0
  138.4259   80.0455  222.2422 H   0  0  0  0  0  0  0  0  0  0  0  0
  139.9864   80.3940  221.3827 H   0  0  0  0  0  0  0  0  0  0  0  0
  139.2215   77.3551  223.7392 H   0  0  0  0  0  0  0  0  0  0  0  0
  137.8636   78.0736  222.8146 H   0  0  0  0  0  0  0  0  0  0  0  0
  137.2100   77.0185  220.5925 H   0  0  0  0  0  0  0  0  0  0  0  0
  137.1313   74.8863  219.3387 H   0  0  0  0  0  0  0  0  0  0  0  0
  138.6437   73.0066  219.9845 H   0  0  0  0  0  0  0  0  0  0  0  0
  141.5430   73.2524  222.1132 H   0  0  0  0  0  0  0  0  0  0  0  0
  139.8533   71.2082  221.3851 H   0  0  0  0  0  0  0  0  0  0  0  0
  141.6224   72.8903  226.6383 H   0  0  0  0  0  0  0  0  0  0  0  0
  141.5890   71.8947  228.9207 H   0  0  0  0  0  0  0  0  0  0  0  0
  140.5339   69.7245  229.3653 H   0  0  0  0  0  0  0  0  0  0  0  0
  139.4377   68.4433  227.4923 H   0  0  0  0  0  0  0  0  0  0  0  0
  138.9841   69.5642  221.7467 H   0  0  0  0  0  0  0  0  0  0  0  0
  139.1341   68.0928  222.8667 H   0  0  0  0  0  0  0  0  0  0  0  0
  137.0984   68.0026  223.2793 H   0  0  0  0  0  0  0  0  0  0  0  0
  135.6605   69.9187  223.9003 H   0  0  0  0  0  0  0  0  0  0  0  0
  137.3176   70.1850  224.5890 H   0  0  0  0  0  0  0  0  0  0  0  0
  136.0110   72.0841  223.3681 H   0  0  0  0  0  0  0  0  0  0  0  0
  137.8265   71.8038  223.1680 H   0  0  0  0  0  0  0  0  0  0  0  0
  136.0342   72.2476  221.1942 H   0  0  0  0  0  0  0  0  0  0  0  0
  137.7006   71.4514  221.1026 H   0  0  0  0  0  0  0  0  0  0  0  0
  134.9940   70.2321  221.0157 H   0  0  0  0  0  0  0  0  0  0  0  0
  136.4457   70.1319  219.8726 H   0  0  0  0  0  0  0  0  0  0  0  0
  135.6243   68.2644  221.7050 H   0  0  0  0  0  0  0  0  0  0  0  0
  137.2270   68.4244  220.8061 H   0  0  0  0  0  0  0  0  0  0  0  0
  140.2613   75.4243  223.0954 H   0  0  0  0  0  0  0  0  0  0  0  0
  141.2909   77.1065  222.0785 H   0  0  0  0  0  0  0  0  0  0  0  0
  141.6877   78.7272  221.4060 H   0  0  0  0  0  0  0  0  0  0  0  0
  141.0903   78.1217  224.3398 H   0  0  0  0  0  0  0  0  0  0  0  0
  142.7214   78.3581  223.6438 H   0  0  0  0  0  0  0  0  0  0  0  0
  1  2  1  0
  2  3  1  0
  3  4  1  0
  4  5  1  0
  5  6  1  0
  6  7  1  0
  7  8  2  0
  8  9  1  0
  9 10  2  0
 10 11  1  0
 11 12  1  0
 12 13  2  0
 13 14  1  0
 14 15  2  0
 15 16  1  0
 16 17  2  0
 17 18  1  0
 18 19  2  0
 19 20  1  0
 20 21  2  0
 21 22  1  0
 22 23  2  0
 22 24  1  0
 24 25  1  0
 25 26  1  0
 26 27  1  0
 27 28  1  0
 28 29  1  0
 29 30  1  0
 30 31  1  0
 11 32  2  0
  5 33  1  0
 33 34  1  0
 34  2  1  0
 32  7  1  0
 24 14  1  0
 31 26  1  0
 21 16  1  0
  1 35  1  0
  1 36  1  0
  1 37  1  0
  3 38  1  0
  3 39  1  0
  4 40  1  0
  4 41  1  0
  6 42  1  0
  6 43  1  0
  8 44  1  0
  9 45  1  0
 10 46  1  0
 12 47  1  0
 13 48  1  0
 17 49  1  0
 18 50  1  0
 19 51  1  0
 20 52  1  0
 25 53  1  0
 25 54  1  0
 26 55  1  0
 27 56  1  0
 27 57  1  0
 28 58  1  0
 28 59  1  0
 29 60  1  0
 29 61  1  0
 30 62  1  0
 30 63  1  0
 31 64  1  0
 31 65  1  0
 32 66  1  0
 33 67  1  0
 33 68  1  0
 34 69  1  0
 34 70  1  0
M  END
>  <smiles>  (21) 
CN1CCN(Cc2cccc(/C=C/c3nc4ccccc4c(=O)n3CC3CCCCC3)c2)CC1

>  <score_type>  (21) 
oracle

>  <origin>  (21) 
autodockgpu

>  <m_score__min__energy>  (21) 
-9.4000000000000004

>  <m_primary>  (21) 
energy

>  <rmsd>  (21) 
10.82820272310761

>  <m_score__min__rmsd>  (21) 
10.82820272310761

>  <meeko>  (21) 
{"free_energy": -8.39, "intermolecular_energy": -10.48, "internal_energy": -2.15, "cluster_size": 35, "cluster_id": 1, "rank_in_cluster": 33}

>  <energy>  (21) 
-8.74

>  <cluster_rmsd>  (21) 
0.74

>  <cluster>  (21) 
1

$$$$

     RDKit          3D

 70 74  0  0  0  0  0  0  0  0999 V2000
  145.6680   70.8470  218.9980 C   0  0  0  0  0  0  0  0  0  0  0  0
  145.6310   72.2700  218.8560 N   0  0  0  0  0  0  0  0  0  0  0  0
  144.5120   72.7610  218.0720 C   0  0  0  0  0  0  0  0  0  0  0  0
  143.2120   72.6520  218.7970 C   0  0  0  0  0  0  0  0  0  0  0  0
  143.2820   73.2110  220.1000 N   0  0  0  0  0  0  0  0  0  0  0  0
  143.0650   74.6120  220.2180 C   0  0  0  0  0  0  0  0  0  0  0  0
  141.7790   74.8460  220.9240 C   0  0  0  0  0  0  0  0  0  0  0  0
  141.3620   76.0730  221.3730 C   0  0  0  0  0  0  0  0  0  0  0  0
  140.1560   76.2130  222.0230 C   0  0  0  0  0  0  0  0  0  0  0  0
  139.3440   75.0890  222.2270 C   0  0  0  0  0  0  0  0  0  0  0  0
  139.7360   73.8480  221.7880 C   0  0  0  0  0  0  0  0  0  0  0  0
  138.9180   72.6320  221.9800 C   0  0  0  0  0  0  0  0  0  0  0  0
  139.3880   71.4760  222.3170 C   0  0  0  0  0  0  0  0  0  0  0  0
  139.4850   70.7960  223.5670 C   0  0  0  0  0  0  0  0  0  0  0  0
  140.1310   71.4950  224.5640 N   0  0  0  0  0  0  0  0  0  0  0  0
  140.3520   71.0780  225.7810 C   0  0  0  0  0  0  0  0  0  0  0  0
  141.0140   71.8940  226.6700 C   0  0  0  0  0  0  0  0  0  0  0  0
  141.2120   71.3860  227.9410 C   0  0  0  0  0  0  0  0  0  0  0  0
  140.7780   70.1320  228.3160 C   0  0  0  0  0  0  0  0  0  0  0  0
  140.1080   69.3180  227.4020 C   0  0  0  0  0  0  0  0  0  0  0  0
  139.9160   69.8290  226.1470 C   0  0  0  0  0  0  0  0  0  0  0  0
  139.2670   69.0980  225.1820 C   0  0  0  0  0  0  0  0  0  0  0  0
  138.8700   67.9510  225.5150 O   0  0  0  0  0  0  0  0  0  0  0  0
  139.0580   69.5870  223.9090 N   0  0  0  0  0  0  0  0  0  0  0  0
  138.3620   68.7040  223.0310 C   0  0  0  0  0  0  0  0  0  0  0  0
  139.1870   67.8360  222.1500 C   0  0  0  0  0  0  0  0  0  0  0  0
  138.4770   66.4890  221.9640 C   0  0  0  0  0  0  0  0  0  0  0  0
  137.2620   66.6170  221.1160 C   0  0  0  0  0  0  0  0  0  0  0  0
  137.3090   67.6570  220.0540 C   0  0  0  0  0  0  0  0  0  0  0  0
  138.6570   68.1750  219.6990 C   0  0  0  0  0  0  0  0  0  0  0  0
  139.6020   68.4080  220.8340 C   0  0  0  0  0  0  0  0  0  0  0  0
  140.9540   73.7670  221.1430 C   0  0  0  0  0  0  0  0  0  0  0  0
  144.3430   72.6520  220.8520 C   0  0  0  0  0  0  0  0  0  0  0  0
  145.6570   72.9180  220.1580 C   0  0  0  0  0  0  0  0  0  0  0  0
  145.6748   70.5852  220.0664 H   0  0  0  0  0  0  0  0  0  0  0  0
  144.7810   70.4075  218.5184 H   0  0  0  0  0  0  0  0  0  0  0  0
  146.5767   70.4542  218.5184 H   0  0  0  0  0  0  0  0  0  0  0  0
  144.6909   73.8182  217.8263 H   0  0  0  0  0  0  0  0  0  0  0  0
  144.4417   72.1405  217.1665 H   0  0  0  0  0  0  0  0  0  0  0  0
  142.4394   73.1845  218.2230 H   0  0  0  0  0  0  0  0  0  0  0  0
  142.9673   71.5843  218.8977 H   0  0  0  0  0  0  0  0  0  0  0  0
  143.8876   75.0654  220.7906 H   0  0  0  0  0  0  0  0  0  0  0  0
  143.0270   75.0671  219.2173 H   0  0  0  0  0  0  0  0  0  0  0  0
  141.9984   76.9557  221.2120 H   0  0  0  0  0  0  0  0  0  0  0  0
  139.8318   77.2016  222.3801 H   0  0  0  0  0  0  0  0  0  0  0  0
  138.3804   75.2022  222.7454 H   0  0  0  0  0  0  0  0  0  0  0  0
  137.8323   72.7168  221.8251 H   0  0  0  0  0  0  0  0  0  0  0  0
  139.7942   70.9022  221.4710 H   0  0  0  0  0  0  0  0  0  0  0  0
  141.3666   72.8962  226.3849 H   0  0  0  0  0  0  0  0  0  0  0  0
  141.7365   72.0069  228.6822 H   0  0  0  0  0  0  0  0  0  0  0  0
  140.9606   69.7721  229.3393 H   0  0  0  0  0  0  0  0  0  0  0  0
  139.7515   68.3143  227.6768 H   0  0  0  0  0  0  0  0  0  0  0  0
  137.7350   68.0464  223.6510 H   0  0  0  0  0  0  0  0  0  0  0  0
  137.8089   69.3623  222.3449 H   0  0  0  0  0  0  0  0  0  0  0  0
  140.1441   67.7213  222.6799 H   0  0  0  0  0  0  0  0  0  0  0  0
  139.1721   65.7833  221.4858 H   0  0  0  0  0  0  0  0  0  0  0  0
  138.1655   66.1272  222.9550 H   0  0  0  0  0  0  0  0  0  0  0  0
  137.0897   65.6464  220.6278 H   0  0  0  0  0  0  0  0  0  0  0  0
  136.4581   66.9296  221.7987 H   0  0  0  0  0  0  0  0  0  0  0  0
  136.8647   67.2273  219.1441 H   0  0  0  0  0  0  0  0  0  0  0  0
  136.7616   68.5191  220.4629 H   0  0  0  0  0  0  0  0  0  0  0  0
  139.1252   67.4493  219.0178 H   0  0  0  0  0  0  0  0  0  0  0  0
  138.4809   69.1673  219.2582 H   0  0  0  0  0  0  0  0  0  0  0  0
  140.5714   67.9643  220.5632 H   0  0  0  0  0  0  0  0  0  0  0  0
  139.6351   69.4981  220.9778 H   0  0  0  0  0  0  0  0  0  0  0  0
  141.2843   72.7815  220.7829 H   0  0  0  0  0  0  0  0  0  0  0  0
  144.3602   73.1069  221.8534 H   0  0  0  0  0  0  0  0  0  0  0  0
  144.1925   71.5660  220.9409 H   0  0  0  0  0  0  0  0  0  0  0  0
  145.7965   74.0016  220.0304 H   0  0  0  0  0  0  0  0  0  0  0  0
  146.4880   72.5214  220.7598 H   0  0  0  0  0  0  0  0  0  0  0  0
  1  2  1  0
  2  3  1  0
  3  4  1  0
  4  5  1  0
  5  6  1  0
  6  7  1  0
  7  8  2  0
  8  9  1  0
  9 10  2  0
 10 11  1  0
 11 12  1  0
 12 13  2  0
 13 14  1  0
 14 15  2  0
 15 16  1  0
 16 17  2  0
 17 18  1  0
 18 19  2  0
 19 20  1  0
 20 21  2  0
 21 22  1  0
 22 23  2  0
 22 24  1  0
 24 25  1  0
 25 26  1  0
 26 27  1  0
 27 28  1  0
 28 29  1  0
 29 30  1  0
 30 31  1  0
 11 32  2  0
  5 33  1  0
 33 34  1  0
 34  2  1  0
 32  7  1  0
 24 14  1  0
 31 26  1  0
 21 16  1  0
  1 35  1  0
  1 36  1  0
  1 37  1  0
  3 38  1  0
  3 39  1  0
  4 40  1  0
  4 41  1  0
  6 42  1  0
  6 43  1  0
  8 44  1  0
  9 45  1  0
 10 46  1  0
 12 47  1  0
 13 48  1  0
 17 49  1  0
 18 50  1  0
 19 51  1  0
 20 52  1  0
 25 53  1  0
 25 54  1  0
 26 55  1  0
 27 56  1  0
 27 57  1  0
 28 58  1  0
 28 59  1  0
 29 60  1  0
 29 61  1  0
 30 62  1  0
 30 63  1  0
 31 64  1  0
 31 65  1  0
 32 66  1  0
 33 67  1  0
 33 68  1  0
 34 69  1  0
 34 70  1  0
M  END
>  <smiles>  (22) 
CN1CCN(Cc2cccc(/C=C/c3nc4ccccc4c(=O)n3CC3CCCCC3)c2)CC1

>  <score_type>  (22) 
oracle

>  <origin>  (22) 
autodockgpu

>  <m_score__min__energy>  (22) 
-9.4000000000000004

>  <m_primary>  (22) 
energy

>  <rmsd>  (22) 
11.51701524236949

>  <m_score__min__rmsd>  (22) 
11.51701524236949

>  <meeko>  (22) 
{"free_energy": -8.9, "intermolecular_energy": -10.98, "internal_energy": -1.86, "cluster_size": 9, "cluster_id": 2, "rank_in_cluster": 8}

>  <energy>  (22) 
-8.73

>  <cluster_rmsd>  (22) 
1.12

>  <cluster>  (22) 
1

$$$$

     RDKit          3D

 70 74  0  0  0  0  0  0  0  0999 V2000
  145.9250   71.2800  219.3330 C   0  0  0  0  0  0  0  0  0  0  0  0
  145.9470   72.7080  219.2720 N   0  0  0  0  0  0  0  0  0  0  0  0
  145.1080   73.2730  218.2310 C   0  0  0  0  0  0  0  0  0  0  0  0
  143.6530   73.1630  218.5450 C   0  0  0  0  0  0  0  0  0  0  0  0
  143.3510   73.6490  219.8440 N   0  0  0  0  0  0  0  0  0  0  0  0
  143.1270   75.0470  219.9780 C   0  0  0  0  0  0  0  0  0  0  0  0
  141.8680   75.2650  220.7360 C   0  0  0  0  0  0  0  0  0  0  0  0
  141.4450   76.4900  221.1840 C   0  0  0  0  0  0  0  0  0  0  0  0
  140.2650   76.6150  221.8840 C   0  0  0  0  0  0  0  0  0  0  0  0
  139.4870   75.4780  222.1400 C   0  0  0  0  0  0  0  0  0  0  0  0
  139.8860   74.2390  221.7030 C   0  0  0  0  0  0  0  0  0  0  0  0
  139.1030   73.0100  221.9490 C   0  0  0  0  0  0  0  0  0  0  0  0
  139.6050   71.8850  222.3390 C   0  0  0  0  0  0  0  0  0  0  0  0
  139.5290   71.1630  223.5670 C   0  0  0  0  0  0  0  0  0  0  0  0
  140.2390   71.7130  224.6130 N   0  0  0  0  0  0  0  0  0  0  0  0
  140.3310   71.2300  225.8220 C   0  0  0  0  0  0  0  0  0  0  0  0
  141.0810   71.8960  226.7650 C   0  0  0  0  0  0  0  0  0  0  0  0
  141.1320   71.3260  228.0240 C   0  0  0  0  0  0  0  0  0  0  0  0
  140.4760   70.1550  228.3370 C   0  0  0  0  0  0  0  0  0  0  0  0
  139.7190   69.4930  227.3690 C   0  0  0  0  0  0  0  0  0  0  0  0
  139.6730   70.0640  226.1260 C   0  0  0  0  0  0  0  0  0  0  0  0
  138.9540   69.4820  225.1110 C   0  0  0  0  0  0  0  0  0  0  0  0
  138.3530   68.4120  225.3870 O   0  0  0  0  0  0  0  0  0  0  0  0
  138.8880   70.0360  223.8490 N   0  0  0  0  0  0  0  0  0  0  0  0
  138.0930   69.3100  222.9130 C   0  0  0  0  0  0  0  0  0  0  0  0
  136.8370   69.9560  222.4470 C   0  0  0  0  0  0  0  0  0  0  0  0
  135.6620   69.0000  222.6830 C   0  0  0  0  0  0  0  0  0  0  0  0
  135.3450   68.8610  224.1300 C   0  0  0  0  0  0  0  0  0  0  0  0
  135.5910   70.0600  224.9750 C   0  0  0  0  0  0  0  0  0  0  0  0
  135.7470   71.3520  224.2550 C   0  0  0  0  0  0  0  0  0  0  0  0
  136.5370   71.3170  222.9850 C   0  0  0  0  0  0  0  0  0  0  0  0
  141.0760   74.1730  221.0070 C   0  0  0  0  0  0  0  0  0  0  0  0
  144.1440   73.0200  220.8340 C   0  0  0  0  0  0  0  0  0  0  0  0
  145.6050   73.2850  220.5630 C   0  0  0  0  0  0  0  0  0  0  0  0
  145.9200   70.9580  220.3848 H   0  0  0  0  0  0  0  0  0  0  0  0
  145.0210   70.9054  218.8306 H   0  0  0  0  0  0  0  0  0  0  0  0
  146.8171   70.8777  218.8306 H   0  0  0  0  0  0  0  0  0  0  0  0
  145.3633   74.3362  218.1108 H   0  0  0  0  0  0  0  0  0  0  0  0
  145.2939   72.7048  217.3077 H   0  0  0  0  0  0  0  0  0  0  0  0
  143.0851   73.7476  217.8062 H   0  0  0  0  0  0  0  0  0  0  0  0
  143.3769   72.0989  218.5077 H   0  0  0  0  0  0  0  0  0  0  0  0
  143.9677   75.5049  220.5199 H   0  0  0  0  0  0  0  0  0  0  0  0
  143.0456   75.5073  218.9823 H   0  0  0  0  0  0  0  0  0  0  0  0
  142.0548   77.3830  220.9822 H   0  0  0  0  0  0  0  0  0  0  0  0
  139.9353   77.6022  222.2401 H   0  0  0  0  0  0  0  0  0  0  0  0
  138.5446   75.5794  222.6982 H   0  0  0  0  0  0  0  0  0  0  0  0
  138.0157   73.0562  221.7887 H   0  0  0  0  0  0  0  0  0  0  0  0
  140.2122   71.3840  221.5707 H   0  0  0  0  0  0  0  0  0  0  0  0
  141.6109   72.8308  226.5298 H   0  0  0  0  0  0  0  0  0  0  0  0
  141.7198   71.8274  228.8071 H   0  0  0  0  0  0  0  0  0  0  0  0
  140.5493   69.7406  229.3533 H   0  0  0  0  0  0  0  0  0  0  0  0
  139.1853   68.5579  227.5942 H   0  0  0  0  0  0  0  0  0  0  0  0
  138.7160   69.1189  222.0268 H   0  0  0  0  0  0  0  0  0  0  0  0
  137.7665   68.4098  223.4544 H   0  0  0  0  0  0  0  0  0  0  0  0
  136.9960   70.1463  221.3753 H   0  0  0  0  0  0  0  0  0  0  0  0
  134.7759   69.3890  222.1601 H   0  0  0  0  0  0  0  0  0  0  0  0
  135.9448   68.0091  222.2981 H   0  0  0  0  0  0  0  0  0  0  0  0
  134.2793   68.6025  224.2166 H   0  0  0  0  0  0  0  0  0  0  0  0
  136.0310   68.0888  224.5084 H   0  0  0  0  0  0  0  0  0  0  0  0
  134.7422   70.1623  225.6672 H   0  0  0  0  0  0  0  0  0  0  0  0
  136.5583   69.8792  225.4667 H   0  0  0  0  0  0  0  0  0  0  0  0
  134.7403   71.7231  224.0123 H   0  0  0  0  0  0  0  0  0  0  0  0
  136.3198   71.9979  224.9366 H   0  0  0  0  0  0  0  0  0  0  0  0
  135.9700   71.8660  222.2188 H   0  0  0  0  0  0  0  0  0  0  0  0
  137.5118   71.7664  223.2253 H   0  0  0  0  0  0  0  0  0  0  0  0
  141.4112   73.1889  220.6476 H   0  0  0  0  0  0  0  0  0  0  0  0
  143.8777   73.4198  221.8236 H   0  0  0  0  0  0  0  0  0  0  0  0
  143.9611   71.9355  220.8110 H   0  0  0  0  0  0  0  0  0  0  0  0
  145.7883   74.3695  220.5450 H   0  0  0  0  0  0  0  0  0  0  0  0
  146.2229   72.8336  221.3532 H   0  0  0  0  0  0  0  0  0  0  0  0
  1  2  1  0
  2  3  1  0
  3  4  1  0
  4  5  1  0
  5  6  1  0
  6  7  1  0
  7  8  2  0
  8  9  1  0
  9 10  2  0
 10 11  1  0
 11 12  1  0
 12 13  2  0
 13 14  1  0
 14 15  2  0
 15 16  1  0
 16 17  2  0
 17 18  1  0
 18 19  2  0
 19 20  1  0
 20 21  2  0
 21 22  1  0
 22 23  2  0
 22 24  1  0
 24 25  1  0
 25 26  1  0
 26 27  1  0
 27 28  1  0
 28 29  1  0
 29 30  1  0
 30 31  1  0
 11 32  2  0
  5 33  1  0
 33 34  1  0
 34  2  1  0
 32  7  1  0
 24 14  1  0
 31 26  1  0
 21 16  1  0
  1 35  1  0
  1 36  1  0
  1 37  1  0
  3 38  1  0
  3 39  1  0
  4 40  1  0
  4 41  1  0
  6 42  1  0
  6 43  1  0
  8 44  1  0
  9 45  1  0
 10 46  1  0
 12 47  1  0
 13 48  1  0
 17 49  1  0
 18 50  1  0
 19 51  1  0
 20 52  1  0
 25 53  1  0
 25 54  1  0
 26 55  1  0
 27 56  1  0
 27 57  1  0
 28 58  1  0
 28 59  1  0
 29 60  1  0
 29 61  1  0
 30 62  1  0
 30 63  1  0
 31 64  1  0
 31 65  1  0
 32 66  1  0
 33 67  1  0
 33 68  1  0
 34 69  1  0
 34 70  1  0
M  END
>  <smiles>  (23) 
CN1CCN(Cc2cccc(/C=C/c3nc4ccccc4c(=O)n3CC3CCCCC3)c2)CC1

>  <score_type>  (23) 
oracle

>  <origin>  (23) 
autodockgpu

>  <m_score__min__energy>  (23) 
-9.4000000000000004

>  <m_primary>  (23) 
energy

>  <rmsd>  (23) 
11.41824718344471

>  <m_score__min__rmsd>  (23) 
11.41824718344471

>  <meeko>  (23) 
{"free_energy": -8.92, "intermolecular_energy": -11.01, "internal_energy": -2.03, "cluster_size": 9, "cluster_id": 2, "rank_in_cluster": 7}

>  <energy>  (23) 
-8.71

>  <cluster_rmsd>  (23) 
1.02

>  <cluster>  (23) 
1

$$$$

     RDKit          3D

 70 74  0  0  0  0  0  0  0  0999 V2000
  145.9150   71.0990  219.2600 C   0  0  0  0  0  0  0  0  0  0  0  0
  145.9580   72.5270  219.2160 N   0  0  0  0  0  0  0  0  0  0  0  0
  145.0860   73.1180  218.2160 C   0  0  0  0  0  0  0  0  0  0  0  0
  143.6440   73.0260  218.5880 C   0  0  0  0  0  0  0  0  0  0  0  0
  143.4020   73.5000  219.9040 N   0  0  0  0  0  0  0  0  0  0  0  0
  143.2050   74.9000  220.0640 C   0  0  0  0  0  0  0  0  0  0  0  0
  141.9300   75.1300  220.7890 C   0  0  0  0  0  0  0  0  0  0  0  0
  141.4180   76.3720  221.0670 C   0  0  0  0  0  0  0  0  0  0  0  0
  140.2280   76.5080  221.7470 C   0  0  0  0  0  0  0  0  0  0  0  0
  139.5310   75.3640  222.1600 C   0  0  0  0  0  0  0  0  0  0  0  0
  140.0190   74.1080  221.8950 C   0  0  0  0  0  0  0  0  0  0  0  0
  139.3240   72.8720  222.3100 C   0  0  0  0  0  0  0  0  0  0  0  0
  139.9100   71.7480  222.5610 C   0  0  0  0  0  0  0  0  0  0  0  0
  139.9010   70.8820  223.6950 C   0  0  0  0  0  0  0  0  0  0  0  0
  140.4010   71.4330  224.8540 N   0  0  0  0  0  0  0  0  0  0  0  0
  140.5070   70.8350  226.0100 C   0  0  0  0  0  0  0  0  0  0  0  0
  141.0300   71.5190  227.0850 C   0  0  0  0  0  0  0  0  0  0  0  0
  141.1110   70.8220  228.2770 C   0  0  0  0  0  0  0  0  0  0  0  0
  140.6960   69.5130  228.4020 C   0  0  0  0  0  0  0  0  0  0  0  0
  140.1680   68.8350  227.3030 C   0  0  0  0  0  0  0  0  0  0  0  0
  140.0910   69.5320  226.1270 C   0  0  0  0  0  0  0  0  0  0  0  0
  139.5850   68.9440  224.9930 C   0  0  0  0  0  0  0  0  0  0  0  0
  139.2070   67.7490  225.0980 O   0  0  0  0  0  0  0  0  0  0  0  0
  139.4950   69.6230  223.7950 N   0  0  0  0  0  0  0  0  0  0  0  0
  138.9400   68.8700  222.7180 C   0  0  0  0  0  0  0  0  0  0  0  0
  137.5030   68.5010  222.8200 C   0  0  0  0  0  0  0  0  0  0  0  0
  136.8050   69.4610  223.7910 C   0  0  0  0  0  0  0  0  0  0  0  0
  136.6690   70.8260  223.2150 C   0  0  0  0  0  0  0  0  0  0  0  0
  136.4940   70.9030  221.7400 C   0  0  0  0  0  0  0  0  0  0  0  0
  136.0900   69.6440  221.0590 C   0  0  0  0  0  0  0  0  0  0  0  0
  136.7410   68.3870  221.5400 C   0  0  0  0  0  0  0  0  0  0  0  0
  141.2150   74.0320  221.2110 C   0  0  0  0  0  0  0  0  0  0  0  0
  144.2240   72.8470  220.8530 C   0  0  0  0  0  0  0  0  0  0  0  0
  145.6770   73.0930  220.5260 C   0  0  0  0  0  0  0  0  0  0  0  0
  145.9049   70.7646  220.3079 H   0  0  0  0  0  0  0  0  0  0  0  0
  145.0057   70.7438  218.7530 H   0  0  0  0  0  0  0  0  0  0  0  0
  146.8012   70.6897  218.7530 H   0  0  0  0  0  0  0  0  0  0  0  0
  145.3528   74.1786  218.0981 H   0  0  0  0  0  0  0  0  0  0  0  0
  145.2254   72.5589  217.2790 H   0  0  0  0  0  0  0  0  0  0  0  0
  143.0557   73.6282  217.8800 H   0  0  0  0  0  0  0  0  0  0  0  0
  143.3506   71.9665  218.5496 H   0  0  0  0  0  0  0  0  0  0  0  0
  144.0391   75.3261  220.6409 H   0  0  0  0  0  0  0  0  0  0  0  0
  143.1634   75.3842  219.0772 H   0  0  0  0  0  0  0  0  0  0  0  0
  141.9644   77.2700  220.7430 H   0  0  0  0  0  0  0  0  0  0  0  0
  139.8267   77.5088  221.9648 H   0  0  0  0  0  0  0  0  0  0  0  0
  138.5809   75.4738  222.7034 H   0  0  0  0  0  0  0  0  0  0  0  0
  138.2295   72.9114  222.4126 H   0  0  0  0  0  0  0  0  0  0  0  0
  140.5417   71.3868  221.7361 H   0  0  0  0  0  0  0  0  0  0  0  0
  141.3652   72.5632  227.0002 H   0  0  0  0  0  0  0  0  0  0  0  0
  141.5228   71.3322  229.1602 H   0  0  0  0  0  0  0  0  0  0  0  0
  140.7816   69.0014  229.3720 H   0  0  0  0  0  0  0  0  0  0  0  0
  139.8299   67.7909  227.3776 H   0  0  0  0  0  0  0  0  0  0  0  0
  139.0657   69.4626  221.7998 H   0  0  0  0  0  0  0  0  0  0  0  0
  139.4815   67.9126  222.7310 H   0  0  0  0  0  0  0  0  0  0  0  0
  137.5016   67.4681  223.1983 H   0  0  0  0  0  0  0  0  0  0  0  0
  135.8028   69.0696  224.0201 H   0  0  0  0  0  0  0  0  0  0  0  0
  137.4184   69.5331  224.7012 H   0  0  0  0  0  0  0  0  0  0  0  0
  135.7938   71.3014  223.6819 H   0  0  0  0  0  0  0  0  0  0  0  0
  137.6242   71.3298  223.4243 H   0  0  0  0  0  0  0  0  0  0  0  0
  135.7222   71.6589  221.5328 H   0  0  0  0  0  0  0  0  0  0  0  0
  137.4883   71.1483  221.3385 H   0  0  0  0  0  0  0  0  0  0  0  0
  135.0037   69.5282  221.1877 H   0  0  0  0  0  0  0  0  0  0  0  0
  136.4166   69.7599  220.0150 H   0  0  0  0  0  0  0  0  0  0  0  0
  135.9541   67.6315  221.6813 H   0  0  0  0  0  0  0  0  0  0  0  0
  137.4824   68.1206  220.7723 H   0  0  0  0  0  0  0  0  0  0  0  0
  141.6215   73.0341  220.9897 H   0  0  0  0  0  0  0  0  0  0  0  0
  144.0043   73.2384  221.8572 H   0  0  0  0  0  0  0  0  0  0  0  0
  144.0233   71.7658  220.8246 H   0  0  0  0  0  0  0  0  0  0  0  0
  145.8764   74.1747  220.5133 H   0  0  0  0  0  0  0  0  0  0  0  0
  146.3189   72.6223  221.2852 H   0  0  0  0  0  0  0  0  0  0  0  0
  1  2  1  0
  2  3  1  0
  3  4  1  0
  4  5  1  0
  5  6  1  0
  6  7  1  0
  7  8  2  0
  8  9  1  0
  9 10  2  0
 10 11  1  0
 11 12  1  0
 12 13  2  0
 13 14  1  0
 14 15  2  0
 15 16  1  0
 16 17  2  0
 17 18  1  0
 18 19  2  0
 19 20  1  0
 20 21  2  0
 21 22  1  0
 22 23  2  0
 22 24  1  0
 24 25  1  0
 25 26  1  0
 26 27  1  0
 27 28  1  0
 28 29  1  0
 29 30  1  0
 30 31  1  0
 11 32  2  0
  5 33  1  0
 33 34  1  0
 34  2  1  0
 32  7  1  0
 24 14  1  0
 31 26  1  0
 21 16  1  0
  1 35  1  0
  1 36  1  0
  1 37  1  0
  3 38  1  0
  3 39  1  0
  4 40  1  0
  4 41  1  0
  6 42  1  0
  6 43  1  0
  8 44  1  0
  9 45  1  0
 10 46  1  0
 12 47  1  0
 13 48  1  0
 17 49  1  0
 18 50  1  0
 19 51  1  0
 20 52  1  0
 25 53  1  0
 25 54  1  0
 26 55  1  0
 27 56  1  0
 27 57  1  0
 28 58  1  0
 28 59  1  0
 29 60  1  0
 29 61  1  0
 30 62  1  0
 30 63  1  0
 31 64  1  0
 31 65  1  0
 32 66  1  0
 33 67  1  0
 33 68  1  0
 34 69  1  0
 34 70  1  0
M  END
>  <smiles>  (24) 
CN1CCN(Cc2cccc(/C=C/c3nc4ccccc4c(=O)n3CC3CCCCC3)c2)CC1

>  <score_type>  (24) 
oracle

>  <origin>  (24) 
autodockgpu

>  <m_score__min__energy>  (24) 
-9.4000000000000004

>  <m_primary>  (24) 
energy

>  <rmsd>  (24) 
11.272876495017467

>  <m_score__min__rmsd>  (24) 
11.272876495017467

>  <meeko>  (24) 
{"free_energy": -9.11, "intermolecular_energy": -11.2, "internal_energy": -1.94, "cluster_size": 9, "cluster_id": 2, "rank_in_cluster": 1}

>  <energy>  (24) 
-8.7

>  <cluster_rmsd>  (24) 
1.35

>  <cluster>  (24) 
1

$$$$

     RDKit          3D

 70 74  0  0  0  0  0  0  0  0999 V2000
  141.0820   82.8890  220.4610 C   0  0  0  0  0  0  0  0  0  0  0  0
  140.3570   81.9830  219.6260 N   0  0  0  0  0  0  0  0  0  0  0  0
  140.7980   81.9640  218.2430 C   0  0  0  0  0  0  0  0  0  0  0  0
  142.1200   81.2930  218.0730 C   0  0  0  0  0  0  0  0  0  0  0  0
  142.1540   80.0190  218.6980 N   0  0  0  0  0  0  0  0  0  0  0  0
  141.6590   78.9150  217.9490 C   0  0  0  0  0  0  0  0  0  0  0  0
  142.1020   77.6530  218.5960 C   0  0  0  0  0  0  0  0  0  0  0  0
  143.3180   77.0610  218.3690 C   0  0  0  0  0  0  0  0  0  0  0  0
  143.6590   75.8870  219.0050 C   0  0  0  0  0  0  0  0  0  0  0  0
  142.7550   75.2930  219.8940 C   0  0  0  0  0  0  0  0  0  0  0  0
  141.5300   75.8640  220.1410 C   0  0  0  0  0  0  0  0  0  0  0  0
  140.5410   75.2750  221.0680 C   0  0  0  0  0  0  0  0  0  0  0  0
  140.0020   75.9020  222.0610 C   0  0  0  0  0  0  0  0  0  0  0  0
  140.0520   77.2620  222.4910 C   0  0  0  0  0  0  0  0  0  0  0  0
  141.3180   77.7910  222.6080 N   0  0  0  0  0  0  0  0  0  0  0  0
  141.6160   79.0020  222.9960 C   0  0  0  0  0  0  0  0  0  0  0  0
  142.9350   79.3890  223.0630 C   0  0  0  0  0  0  0  0  0  0  0  0
  143.1750   80.6860  223.4800 C   0  0  0  0  0  0  0  0  0  0  0  0
  142.1620   81.5580  223.8140 C   0  0  0  0  0  0  0  0  0  0  0  0
  140.8290   81.1500  223.7390 C   0  0  0  0  0  0  0  0  0  0  0  0
  140.6010   79.8650  223.3260 C   0  0  0  0  0  0  0  0  0  0  0  0
  139.3210   79.3760  223.2230 C   0  0  0  0  0  0  0  0  0  0  0  0
  138.3900   80.1650  223.5280 O   0  0  0  0  0  0  0  0  0  0  0  0
  139.0610   78.0860  222.8070 N   0  0  0  0  0  0  0  0  0  0  0  0
  137.6790   77.7400  222.7480 C   0  0  0  0  0  0  0  0  0  0  0  0
  136.8500   78.4330  221.7260 C   0  0  0  0  0  0  0  0  0  0  0  0
  137.7050   78.6930  220.4790 C   0  0  0  0  0  0  0  0  0  0  0  0
  138.0040   77.4360  219.7420 C   0  0  0  0  0  0  0  0  0  0  0  0
  136.9610   76.3770  219.7990 C   0  0  0  0  0  0  0  0  0  0  0  0
  135.6070   76.8100  220.2350 C   0  0  0  0  0  0  0  0  0  0  0  0
  135.5510   77.7940  221.3600 C   0  0  0  0  0  0  0  0  0  0  0  0
  141.2420   77.0380  219.4770 C   0  0  0  0  0  0  0  0  0  0  0  0
  141.7840   80.0960  220.0620 C   0  0  0  0  0  0  0  0  0  0  0  0
  140.3810   80.6390  220.1810 C   0  0  0  0  0  0  0  0  0  0  0  0
  140.8895   82.6484  221.5170 H   0  0  0  0  0  0  0  0  0  0  0  0
  142.1584   82.7967  220.2543 H   0  0  0  0  0  0  0  0  0  0  0  0
  140.7559   83.9190  220.2543 H   0  0  0  0  0  0  0  0  0  0  0  0
  140.0499   81.4266  217.6417 H   0  0  0  0  0  0  0  0  0  0  0  0
  140.9085   83.0076  217.9135 H   0  0  0  0  0  0  0  0  0  0  0  0
  142.3186   81.1668  216.9985 H   0  0  0  0  0  0  0  0  0  0  0  0
  142.8852   81.9248  218.5476 H   0  0  0  0  0  0  0  0  0  0  0  0
  140.5599   78.9500  217.9234 H   0  0  0  0  0  0  0  0  0  0  0  0
  142.0461   78.9607  216.9204 H   0  0  0  0  0  0  0  0  0  0  0  0
  144.0289   77.5283  217.6717 H   0  0  0  0  0  0  0  0  0  0  0  0
  144.6362   75.4190  218.8152 H   0  0  0  0  0  0  0  0  0  0  0  0
  143.0293   74.3564  220.4016 H   0  0  0  0  0  0  0  0  0  0  0  0
  140.2428   74.2295  220.9009 H   0  0  0  0  0  0  0  0  0  0  0  0
  139.3810   75.2597  222.7027 H   0  0  0  0  0  0  0  0  0  0  0  0
  143.7542   78.7040  222.7992 H   0  0  0  0  0  0  0  0  0  0  0  0
  144.2160   81.0350  223.5476 H   0  0  0  0  0  0  0  0  0  0  0  0
  142.4045   82.5799  224.1411 H   0  0  0  0  0  0  0  0  0  0  0  0
  140.0026   81.8278  223.9990 H   0  0  0  0  0  0  0  0  0  0  0  0
  137.6160   76.6600  222.5489 H   0  0  0  0  0  0  0  0  0  0  0  0
  137.2641   78.0597  223.7153 H   0  0  0  0  0  0  0  0  0  0  0  0
  136.5332   79.3707  222.2059 H   0  0  0  0  0  0  0  0  0  0  0  0
  137.1611   79.3768  219.8107 H   0  0  0  0  0  0  0  0  0  0  0  0
  138.6589   79.1336  220.8044 H   0  0  0  0  0  0  0  0  0  0  0  0
  138.1607   77.6961  218.6847 H   0  0  0  0  0  0  0  0  0  0  0  0
  138.8867   77.0067  220.2385 H   0  0  0  0  0  0  0  0  0  0  0  0
  136.8667   75.9447  218.7919 H   0  0  0  0  0  0  0  0  0  0  0  0
  137.3040   75.6679  220.5668 H   0  0  0  0  0  0  0  0  0  0  0  0
  135.1063   77.2651  219.3677 H   0  0  0  0  0  0  0  0  0  0  0  0
  135.1203   75.9012  220.6187 H   0  0  0  0  0  0  0  0  0  0  0  0
  134.8496   78.5924  221.0762 H   0  0  0  0  0  0  0  0  0  0  0  0
  135.2389   77.2203  222.2451 H   0  0  0  0  0  0  0  0  0  0  0  0
  140.2665   77.5111  219.6627 H   0  0  0  0  0  0  0  0  0  0  0  0
  141.8261   79.0918  220.5091 H   0  0  0  0  0  0  0  0  0  0  0  0
  142.4788   80.7660  220.5896 H   0  0  0  0  0  0  0  0  0  0  0  0
  139.6854   79.9949  219.6231 H   0  0  0  0  0  0  0  0  0  0  0  0
  140.0745   80.6622  221.2372 H   0  0  0  0  0  0  0  0  0  0  0  0
  1  2  1  0
  2  3  1  0
  3  4  1  0
  4  5  1  0
  5  6  1  0
  6  7  1  0
  7  8  2  0
  8  9  1  0
  9 10  2  0
 10 11  1  0
 11 12  1  0
 12 13  2  0
 13 14  1  0
 14 15  2  0
 15 16  1  0
 16 17  2  0
 17 18  1  0
 18 19  2  0
 19 20  1  0
 20 21  2  0
 21 22  1  0
 22 23  2  0
 22 24  1  0
 24 25  1  0
 25 26  1  0
 26 27  1  0
 27 28  1  0
 28 29  1  0
 29 30  1  0
 30 31  1  0
 11 32  2  0
  5 33  1  0
 33 34  1  0
 34  2  1  0
 32  7  1  0
 24 14  1  0
 31 26  1  0
 21 16  1  0
  1 35  1  0
  1 36  1  0
  1 37  1  0
  3 38  1  0
  3 39  1  0
  4 40  1  0
  4 41  1  0
  6 42  1  0
  6 43  1  0
  8 44  1  0
  9 45  1  0
 10 46  1  0
 12 47  1  0
 13 48  1  0
 17 49  1  0
 18 50  1  0
 19 51  1  0
 20 52  1  0
 25 53  1  0
 25 54  1  0
 26 55  1  0
 27 56  1  0
 27 57  1  0
 28 58  1  0
 28 59  1  0
 29 60  1  0
 29 61  1  0
 30 62  1  0
 30 63  1  0
 31 64  1  0
 31 65  1  0
 32 66  1  0
 33 67  1  0
 33 68  1  0
 34 69  1  0
 34 70  1  0
M  END
>  <smiles>  (25) 
CN1CCN(Cc2cccc(/C=C/c3nc4ccccc4c(=O)n3CC3CCCCC3)c2)CC1

>  <score_type>  (25) 
oracle

>  <origin>  (25) 
autodockgpu

>  <m_score__min__energy>  (25) 
-9.4000000000000004

>  <m_primary>  (25) 
energy

>  <rmsd>  (25) 
4.213182085070619

>  <m_score__min__rmsd>  (25) 
4.213182085070619

>  <meeko>  (25) 
{"free_energy": -6.27, "intermolecular_energy": -8.36, "internal_energy": -3.88, "cluster_size": 1, "cluster_id": 6, "rank_in_cluster": 1}

>  <energy>  (25) 
-8.69

>  <cluster_rmsd>  (25) 
0.77

>  <cluster>  (25) 
1

$$$$

     RDKit          3D

 70 74  0  0  0  0  0  0  0  0999 V2000
  145.9480   71.1180  219.3280 C   0  0  0  0  0  0  0  0  0  0  0  0
  145.9530   72.5420  219.1990 N   0  0  0  0  0  0  0  0  0  0  0  0
  145.0690   73.0500  218.1650 C   0  0  0  0  0  0  0  0  0  0  0  0
  143.6280   72.9430  218.5410 C   0  0  0  0  0  0  0  0  0  0  0  0
  143.3720   73.4880  219.8270 N   0  0  0  0  0  0  0  0  0  0  0  0
  143.1390   74.8890  219.9030 C   0  0  0  0  0  0  0  0  0  0  0  0
  141.9030   75.1320  220.6910 C   0  0  0  0  0  0  0  0  0  0  0  0
  141.4160   76.3790  220.9890 C   0  0  0  0  0  0  0  0  0  0  0  0
  140.2630   76.5270  221.7280 C   0  0  0  0  0  0  0  0  0  0  0  0
  139.5780   75.3910  222.1780 C   0  0  0  0  0  0  0  0  0  0  0  0
  140.0420   74.1300  221.8940 C   0  0  0  0  0  0  0  0  0  0  0  0
  139.3580   72.9010  222.3470 C   0  0  0  0  0  0  0  0  0  0  0  0
  139.9500   71.7800  222.5970 C   0  0  0  0  0  0  0  0  0  0  0  0
  139.9240   70.8980  223.7180 C   0  0  0  0  0  0  0  0  0  0  0  0
  140.4240   71.4270  224.8880 N   0  0  0  0  0  0  0  0  0  0  0  0
  140.5160   70.8120  226.0360 C   0  0  0  0  0  0  0  0  0  0  0  0
  141.0410   71.4740  227.1230 C   0  0  0  0  0  0  0  0  0  0  0  0
  141.1060   70.7610  228.3060 C   0  0  0  0  0  0  0  0  0  0  0  0
  140.6760   69.4550  228.4100 C   0  0  0  0  0  0  0  0  0  0  0  0
  140.1450   68.7980  227.2990 C   0  0  0  0  0  0  0  0  0  0  0  0
  140.0840   69.5130  226.1330 C   0  0  0  0  0  0  0  0  0  0  0  0
  139.5780   68.9470  224.9880 C   0  0  0  0  0  0  0  0  0  0  0  0
  139.1840   67.7550  225.0740 O   0  0  0  0  0  0  0  0  0  0  0  0
  139.5020   69.6430  223.7990 N   0  0  0  0  0  0  0  0  0  0  0  0
  138.9440   68.9120  222.7080 C   0  0  0  0  0  0  0  0  0  0  0  0
  137.5040   68.5550  222.7990 C   0  0  0  0  0  0  0  0  0  0  0  0
  136.8090   69.5120  223.7750 C   0  0  0  0  0  0  0  0  0  0  0  0
  136.6880   70.8840  223.2130 C   0  0  0  0  0  0  0  0  0  0  0  0
  136.5220   70.9760  221.7370 C   0  0  0  0  0  0  0  0  0  0  0  0
  136.1100   69.7280  221.0420 C   0  0  0  0  0  0  0  0  0  0  0  0
  136.7480   68.4600  221.5140 C   0  0  0  0  0  0  0  0  0  0  0  0
  141.2010   74.0410  221.1510 C   0  0  0  0  0  0  0  0  0  0  0  0
  144.2090   72.9140  220.8130 C   0  0  0  0  0  0  0  0  0  0  0  0
  145.6560   73.1770  220.4730 C   0  0  0  0  0  0  0  0  0  0  0  0
  145.9470   70.8464  220.3939 H   0  0  0  0  0  0  0  0  0  0  0  0
  145.0484   70.7092  218.8447 H   0  0  0  0  0  0  0  0  0  0  0  0
  146.8447   70.7029  218.8447 H   0  0  0  0  0  0  0  0  0  0  0  0
  145.3088   74.1083  217.9846 H   0  0  0  0  0  0  0  0  0  0  0  0
  145.2251   72.4403  217.2628 H   0  0  0  0  0  0  0  0  0  0  0  0
  143.0259   73.4870  217.7984 H   0  0  0  0  0  0  0  0  0  0  0  0
  143.3614   71.8761  218.5649 H   0  0  0  0  0  0  0  0  0  0  0  0
  143.9923   75.3786  220.3951 H   0  0  0  0  0  0  0  0  0  0  0  0
  143.0210   75.3015  218.8901 H   0  0  0  0  0  0  0  0  0  0  0  0
  141.9523   77.2713  220.6338 H   0  0  0  0  0  0  0  0  0  0  0  0
  139.8822   77.5318  221.9635 H   0  0  0  0  0  0  0  0  0  0  0  0
  138.6564   75.5105  222.7665 H   0  0  0  0  0  0  0  0  0  0  0  0
  138.2670   72.9435  222.4810 H   0  0  0  0  0  0  0  0  0  0  0  0
  140.6051   71.4372  221.7825 H   0  0  0  0  0  0  0  0  0  0  0  0
  141.3902   72.5148  227.0541 H   0  0  0  0  0  0  0  0  0  0  0  0
  141.5168   71.2549  229.1989 H   0  0  0  0  0  0  0  0  0  0  0  0
  140.7518   68.9286  229.3729 H   0  0  0  0  0  0  0  0  0  0  0  0
  139.7930   67.7575  227.3573 H   0  0  0  0  0  0  0  0  0  0  0  0
  139.0786   69.5178  221.7997 H   0  0  0  0  0  0  0  0  0  0  0  0
  139.4767   67.9496  222.7078 H   0  0  0  0  0  0  0  0  0  0  0  0
  137.4917   67.5187  223.1677 H   0  0  0  0  0  0  0  0  0  0  0  0
  135.8021   69.1272  223.9944 H   0  0  0  0  0  0  0  0  0  0  0  0
  137.4185   69.5698  224.6888 H   0  0  0  0  0  0  0  0  0  0  0  0
  135.8142   71.3622  223.6797 H   0  0  0  0  0  0  0  0  0  0  0  0
  137.6456   71.3784  223.4334 H   0  0  0  0  0  0  0  0  0  0  0  0
  135.7587   71.7412  221.5325 H   0  0  0  0  0  0  0  0  0  0  0  0
  137.5210   71.2150  221.3436 H   0  0  0  0  0  0  0  0  0  0  0  0
  135.0221   69.6206  221.1646 H   0  0  0  0  0  0  0  0  0  0  0  0
  136.4422   69.8512  220.0006 H   0  0  0  0  0  0  0  0  0  0  0  0
  135.9539   67.7099  221.6436 H   0  0  0  0  0  0  0  0  0  0  0  0
  137.4911   68.1947  220.7476 H   0  0  0  0  0  0  0  0  0  0  0  0
  141.5869   73.0390  220.9121 H   0  0  0  0  0  0  0  0  0  0  0  0
  143.9775   73.3586  221.7922 H   0  0  0  0  0  0  0  0  0  0  0  0
  144.0362   71.8282  220.8482 H   0  0  0  0  0  0  0  0  0  0  0  0
  145.8282   74.2607  220.3966 H   0  0  0  0  0  0  0  0  0  0  0  0
  146.3083   72.7686  221.2590 H   0  0  0  0  0  0  0  0  0  0  0  0
  1  2  1  0
  2  3  1  0
  3  4  1  0
  4  5  1  0
  5  6  1  0
  6  7  1  0
  7  8  2  0
  8  9  1  0
  9 10  2  0
 10 11  1  0
 11 12  1  0
 12 13  2  0
 13 14  1  0
 14 15  2  0
 15 16  1  0
 16 17  2  0
 17 18  1  0
 18 19  2  0
 19 20  1  0
 20 21  2  0
 21 22  1  0
 22 23  2  0
 22 24  1  0
 24 25  1  0
 25 26  1  0
 26 27  1  0
 27 28  1  0
 28 29  1  0
 29 30  1  0
 30 31  1  0
 11 32  2  0
  5 33  1  0
 33 34  1  0
 34  2  1  0
 32  7  1  0
 24 14  1  0
 31 26  1  0
 21 16  1  0
  1 35  1  0
  1 36  1  0
  1 37  1  0
  3 38  1  0
  3 39  1  0
  4 40  1  0
  4 41  1  0
  6 42  1  0
  6 43  1  0
  8 44  1  0
  9 45  1  0
 10 46  1  0
 12 47  1  0
 13 48  1  0
 17 49  1  0
 18 50  1  0
 19 51  1  0
 20 52  1  0
 25 53  1  0
 25 54  1  0
 26 55  1  0
 27 56  1  0
 27 57  1  0
 28 58  1  0
 28 59  1  0
 29 60  1  0
 29 61  1  0
 30 62  1  0
 30 63  1  0
 31 64  1  0
 31 65  1  0
 32 66  1  0
 33 67  1  0
 33 68  1  0
 34 69  1  0
 34 70  1  0
M  END
>  <smiles>  (26) 
CN1CCN(Cc2cccc(/C=C/c3nc4ccccc4c(=O)n3CC3CCCCC3)c2)CC1

>  <score_type>  (26) 
oracle

>  <origin>  (26) 
autodockgpu

>  <m_score__min__energy>  (26) 
-9.4000000000000004

>  <m_primary>  (26) 
energy

>  <rmsd>  (26) 
11.276402093728073

>  <m_score__min__rmsd>  (26) 
11.276402093728073

>  <meeko>  (26) 
{"free_energy": -9.09, "intermolecular_energy": -11.18, "internal_energy": -1.93, "cluster_size": 9, "cluster_id": 2, "rank_in_cluster": 2}

>  <energy>  (26) 
-8.68

>  <cluster_rmsd>  (26) 
0.85

>  <cluster>  (26) 
1

$$$$

     RDKit          3D

 70 74  0  0  0  0  0  0  0  0999 V2000
  142.2790   81.3790  224.1240 C   0  0  0  0  0  0  0  0  0  0  0  0
  141.1150   80.9460  223.4140 N   0  0  0  0  0  0  0  0  0  0  0  0
  141.2140   81.0790  221.9720 C   0  0  0  0  0  0  0  0  0  0  0  0
  142.1370   80.0750  221.3660 C   0  0  0  0  0  0  0  0  0  0  0  0
  141.8430   78.7540  221.7960 N   0  0  0  0  0  0  0  0  0  0  0  0
  140.8370   78.0470  221.0810 C   0  0  0  0  0  0  0  0  0  0  0  0
  141.2850   76.6460  220.8710 C   0  0  0  0  0  0  0  0  0  0  0  0
  142.3850   76.2960  220.1300 C   0  0  0  0  0  0  0  0  0  0  0  0
  142.7400   74.9740  219.9770 C   0  0  0  0  0  0  0  0  0  0  0  0
  141.9690   73.9750  220.5860 C   0  0  0  0  0  0  0  0  0  0  0  0
  140.8620   74.2960  221.3340 C   0  0  0  0  0  0  0  0  0  0  0  0
  140.0160   73.2810  221.9940 C   0  0  0  0  0  0  0  0  0  0  0  0
  140.4260   72.1140  222.3690 C   0  0  0  0  0  0  0  0  0  0  0  0
  140.1730   71.3250  223.5300 C   0  0  0  0  0  0  0  0  0  0  0  0
  140.6920   71.8290  224.7030 N   0  0  0  0  0  0  0  0  0  0  0  0
  140.6020   71.2810  225.8850 C   0  0  0  0  0  0  0  0  0  0  0  0
  141.1730   71.9070  226.9700 C   0  0  0  0  0  0  0  0  0  0  0  0
  141.0370   71.2700  228.1900 C   0  0  0  0  0  0  0  0  0  0  0  0
  140.3690   70.0720  228.3320 C   0  0  0  0  0  0  0  0  0  0  0  0
  139.7950   69.4510  227.2220 C   0  0  0  0  0  0  0  0  0  0  0  0
  139.9340   70.0900  226.0190 C   0  0  0  0  0  0  0  0  0  0  0  0
  139.4010   69.5520  224.8720 C   0  0  0  0  0  0  0  0  0  0  0  0
  138.7920   68.4580  224.9920 O   0  0  0  0  0  0  0  0  0  0  0  0
  139.5250   70.1730  223.6460 N   0  0  0  0  0  0  0  0  0  0  0  0
  138.9080   69.4860  222.5590 C   0  0  0  0  0  0  0  0  0  0  0  0
  137.6620   70.0770  222.0040 C   0  0  0  0  0  0  0  0  0  0  0  0
  136.5210   69.0610  222.1380 C   0  0  0  0  0  0  0  0  0  0  0  0
  136.1010   68.8840  223.5540 C   0  0  0  0  0  0  0  0  0  0  0  0
  136.2220   70.0810  224.4290 C   0  0  0  0  0  0  0  0  0  0  0  0
  136.3670   71.3900  223.7370 C   0  0  0  0  0  0  0  0  0  0  0  0
  137.2530   71.4120  222.5330 C   0  0  0  0  0  0  0  0  0  0  0  0
  140.5550   75.6360  221.4530 C   0  0  0  0  0  0  0  0  0  0  0  0
  141.8270   78.6570  223.2080 C   0  0  0  0  0  0  0  0  0  0  0  0
  140.7730   79.5780  223.7720 C   0  0  0  0  0  0  0  0  0  0  0  0
  142.0949   81.3105  225.2063 H   0  0  0  0  0  0  0  0  0  0  0  0
  143.1317   80.7379  223.8558 H   0  0  0  0  0  0  0  0  0  0  0  0
  142.5054   82.4215  223.8558 H   0  0  0  0  0  0  0  0  0  0  0  0
  140.2129   80.9456  221.5362 H   0  0  0  0  0  0  0  0  0  0  0  0
  141.6200   82.0783  221.7563 H   0  0  0  0  0  0  0  0  0  0  0  0
  142.0425   80.1213  220.2710 H   0  0  0  0  0  0  0  0  0  0  0  0
  143.1606   80.3170  221.6878 H   0  0  0  0  0  0  0  0  0  0  0  0
  139.9013   78.0520  221.6594 H   0  0  0  0  0  0  0  0  0  0  0  0
  140.6636   78.5308  220.1085 H   0  0  0  0  0  0  0  0  0  0  0  0
  142.9907   77.0803  219.6524 H   0  0  0  0  0  0  0  0  0  0  0  0
  143.6237   74.7040  219.3802 H   0  0  0  0  0  0  0  0  0  0  0  0
  142.2538   72.9196  220.4636 H   0  0  0  0  0  0  0  0  0  0  0  0
  138.9623   73.5364  222.1796 H   0  0  0  0  0  0  0  0  0  0  0  0
  141.1053   71.6336  221.6495 H   0  0  0  0  0  0  0  0  0  0  0  0
  141.7087   72.8627  226.8719 H   0  0  0  0  0  0  0  0  0  0  0  0
  141.4791   71.7374  229.0822 H   0  0  0  0  0  0  0  0  0  0  0  0
  140.2883   69.6040  229.3242 H   0  0  0  0  0  0  0  0  0  0  0  0
  139.2574   68.4953  227.3091 H   0  0  0  0  0  0  0  0  0  0  0  0
  139.6420   69.4324  221.7415 H   0  0  0  0  0  0  0  0  0  0  0  0
  138.6018   68.5143  222.9737 H   0  0  0  0  0  0  0  0  0  0  0  0
  137.8943   70.2915  220.9504 H   0  0  0  0  0  0  0  0  0  0  0  0
  135.6593   69.4144  221.5527 H   0  0  0  0  0  0  0  0  0  0  0  0
  136.8819   68.0911  221.7651 H   0  0  0  0  0  0  0  0  0  0  0  0
  135.0459   68.5728  223.5548 H   0  0  0  0  0  0  0  0  0  0  0  0
  136.7926   68.1398  223.9756 H   0  0  0  0  0  0  0  0  0  0  0  0
  135.3193   70.1311  225.0555 H   0  0  0  0  0  0  0  0  0  0  0  0
  137.1570   69.9407  224.9912 H   0  0  0  0  0  0  0  0  0  0  0  0
  135.3645   71.7139  223.4205 H   0  0  0  0  0  0  0  0  0  0  0  0
  136.8514   72.0543  224.4678 H   0  0  0  0  0  0  0  0  0  0  0  0
  136.7201   71.9441  221.7312 H   0  0  0  0  0  0  0  0  0  0  0  0
  138.1828   71.9041  222.8546 H   0  0  0  0  0  0  0  0  0  0  0  0
  139.6732   75.9132  222.0493 H   0  0  0  0  0  0  0  0  0  0  0  0
  141.6008   77.6209  223.5003 H   0  0  0  0  0  0  0  0  0  0  0  0
  142.8118   78.9471  223.6030 H   0  0  0  0  0  0  0  0  0  0  0  0
  139.7903   79.3190  223.3510 H   0  0  0  0  0  0  0  0  0  0  0  0
  140.7291   79.4748  224.8663 H   0  0  0  0  0  0  0  0  0  0  0  0
  1  2  1  0
  2  3  1  0
  3  4  1  0
  4  5  1  0
  5  6  1  0
  6  7  1  0
  7  8  2  0
  8  9  1  0
  9 10  2  0
 10 11  1  0
 11 12  1  0
 12 13  2  0
 13 14  1  0
 14 15  2  0
 15 16  1  0
 16 17  2  0
 17 18  1  0
 18 19  2  0
 19 20  1  0
 20 21  2  0
 21 22  1  0
 22 23  2  0
 22 24  1  0
 24 25  1  0
 25 26  1  0
 26 27  1  0
 27 28  1  0
 28 29  1  0
 29 30  1  0
 30 31  1  0
 11 32  2  0
  5 33  1  0
 33 34  1  0
 34  2  1  0
 32  7  1  0
 24 14  1  0
 31 26  1  0
 21 16  1  0
  1 35  1  0
  1 36  1  0
  1 37  1  0
  3 38  1  0
  3 39  1  0
  4 40  1  0
  4 41  1  0
  6 42  1  0
  6 43  1  0
  8 44  1  0
  9 45  1  0
 10 46  1  0
 12 47  1  0
 13 48  1  0
 17 49  1  0
 18 50  1  0
 19 51  1  0
 20 52  1  0
 25 53  1  0
 25 54  1  0
 26 55  1  0
 27 56  1  0
 27 57  1  0
 28 58  1  0
 28 59  1  0
 29 60  1  0
 29 61  1  0
 30 62  1  0
 30 63  1  0
 31 64  1  0
 31 65  1  0
 32 66  1  0
 33 67  1  0
 33 68  1  0
 34 69  1  0
 34 70  1  0
M  END
>  <smiles>  (27) 
CN1CCN(Cc2cccc(/C=C/c3nc4ccccc4c(=O)n3CC3CCCCC3)c2)CC1

>  <score_type>  (27) 
oracle

>  <origin>  (27) 
autodockgpu

>  <m_score__min__energy>  (27) 
-9.4000000000000004

>  <m_primary>  (27) 
energy

>  <rmsd>  (27) 
11.142625112339305

>  <m_score__min__rmsd>  (27) 
11.142625112339305

>  <meeko>  (27) 
{"free_energy": -9.28, "intermolecular_energy": -11.36, "internal_energy": -1.93, "cluster_size": 35, "cluster_id": 1, "rank_in_cluster": 4}

>  <energy>  (27) 
-8.65

>  <cluster_rmsd>  (27) 
0.98

>  <cluster>  (27) 
1

$$$$

     RDKit          3D

 70 74  0  0  0  0  0  0  0  0999 V2000
  143.6710   80.2250  223.0390 C   0  0  0  0  0  0  0  0  0  0  0  0
  142.3150   80.5380  222.7100 N   0  0  0  0  0  0  0  0  0  0  0  0
  141.8580   79.9630  221.4580 C   0  0  0  0  0  0  0  0  0  0  0  0
  141.6490   78.4880  221.5470 C   0  0  0  0  0  0  0  0  0  0  0  0
  140.8470   78.1310  222.6630 N   0  0  0  0  0  0  0  0  0  0  0  0
  139.4360   78.1750  222.4890 C   0  0  0  0  0  0  0  0  0  0  0  0
  138.9350   76.7970  222.2430 C   0  0  0  0  0  0  0  0  0  0  0  0
  137.6140   76.4850  222.0490 C   0  0  0  0  0  0  0  0  0  0  0  0
  137.2240   75.1830  221.8290 C   0  0  0  0  0  0  0  0  0  0  0  0
  138.1870   74.1650  221.8020 C   0  0  0  0  0  0  0  0  0  0  0  0
  139.5170   74.4490  221.9930 C   0  0  0  0  0  0  0  0  0  0  0  0
  140.5700   73.4130  221.9760 C   0  0  0  0  0  0  0  0  0  0  0  0
  140.3660   72.1550  222.1890 C   0  0  0  0  0  0  0  0  0  0  0  0
  140.1380   71.3970  223.3760 C   0  0  0  0  0  0  0  0  0  0  0  0
  140.6800   71.9320  224.5240 N   0  0  0  0  0  0  0  0  0  0  0  0
  140.6150   71.4170  225.7220 C   0  0  0  0  0  0  0  0  0  0  0  0
  141.2090   72.0710  226.7780 C   0  0  0  0  0  0  0  0  0  0  0  0
  141.0980   71.4670  228.0170 C   0  0  0  0  0  0  0  0  0  0  0  0
  140.4340   70.2740  228.2050 C   0  0  0  0  0  0  0  0  0  0  0  0
  139.8360   69.6240  227.1240 C   0  0  0  0  0  0  0  0  0  0  0  0
  139.9510   70.2290  225.9010 C   0  0  0  0  0  0  0  0  0  0  0  0
  139.3940   69.6610  224.7810 C   0  0  0  0  0  0  0  0  0  0  0  0
  138.7880   68.5710  224.9430 O   0  0  0  0  0  0  0  0  0  0  0  0
  139.4920   70.2490  223.5360 N   0  0  0  0  0  0  0  0  0  0  0  0
  138.8530   69.5330  222.4810 C   0  0  0  0  0  0  0  0  0  0  0  0
  137.5850   70.0990  221.9500 C   0  0  0  0  0  0  0  0  0  0  0  0
  136.4640   69.0650  222.1190 C   0  0  0  0  0  0  0  0  0  0  0  0
  136.0800   68.8940  223.5470 C   0  0  0  0  0  0  0  0  0  0  0  0
  136.2010   70.1010  224.4080 C   0  0  0  0  0  0  0  0  0  0  0  0
  136.3090   71.4060  223.7020 C   0  0  0  0  0  0  0  0  0  0  0  0
  137.1660   71.4320  222.4770 C   0  0  0  0  0  0  0  0  0  0  0  0
  139.8510   75.7700  222.2090 C   0  0  0  0  0  0  0  0  0  0  0  0
  141.3690   78.6550  223.8700 C   0  0  0  0  0  0  0  0  0  0  0  0
  141.4210   80.1610  223.7930 C   0  0  0  0  0  0  0  0  0  0  0  0
  143.7862   80.1984  224.1326 H   0  0  0  0  0  0  0  0  0  0  0  0
  143.9329   79.2428  222.6187 H   0  0  0  0  0  0  0  0  0  0  0  0
  144.3369   80.9930  222.6187 H   0  0  0  0  0  0  0  0  0  0  0  0
  140.9057   80.4377  221.1790 H   0  0  0  0  0  0  0  0  0  0  0  0
  142.6377   80.1443  220.7035 H   0  0  0  0  0  0  0  0  0  0  0  0
  141.1523   78.1436  220.6280 H   0  0  0  0  0  0  0  0  0  0  0  0
  142.6331   78.0121  221.6696 H   0  0  0  0  0  0  0  0  0  0  0  0
  138.9652   78.5821  223.3960 H   0  0  0  0  0  0  0  0  0  0  0  0
  139.1872   78.8191  221.6327 H   0  0  0  0  0  0  0  0  0  0  0  0
  136.8577   77.2835  222.0693 H   0  0  0  0  0  0  0  0  0  0  0  0
  136.1616   74.9429  221.6751 H   0  0  0  0  0  0  0  0  0  0  0  0
  137.8735   73.1255  221.6256 H   0  0  0  0  0  0  0  0  0  0  0  0
  141.6008   73.7354  221.7672 H   0  0  0  0  0  0  0  0  0  0  0  0
  140.3686   71.5472  221.2722 H   0  0  0  0  0  0  0  0  0  0  0  0
  141.7433   73.0230  226.6433 H   0  0  0  0  0  0  0  0  0  0  0  0
  141.5580   71.9582  228.8871 H   0  0  0  0  0  0  0  0  0  0  0  0
  140.3750   69.8323  229.2107 H   0  0  0  0  0  0  0  0  0  0  0  0
  139.2986   68.6723  227.2486 H   0  0  0  0  0  0  0  0  0  0  0  0
  139.5643   69.4709  221.6442 H   0  0  0  0  0  0  0  0  0  0  0  0
  138.5702   68.5664  222.9234 H   0  0  0  0  0  0  0  0  0  0  0  0
  137.7896   70.3084  220.8897 H   0  0  0  0  0  0  0  0  0  0  0  0
  135.5831   69.3989  221.5510 H   0  0  0  0  0  0  0  0  0  0  0  0
  136.8320   68.0979  221.7458 H   0  0  0  0  0  0  0  0  0  0  0  0
  135.0307   68.5651  223.5754 H   0  0  0  0  0  0  0  0  0  0  0  0
  136.7938   68.1654  223.9589 H   0  0  0  0  0  0  0  0  0  0  0  0
  135.3118   70.1422  225.0543 H   0  0  0  0  0  0  0  0  0  0  0  0
  137.1509   69.9810  224.9496 H   0  0  0  0  0  0  0  0  0  0  0  0
  135.2943   71.7114  223.4067 H   0  0  0  0  0  0  0  0  0  0  0  0
  136.8001   72.0838  224.4157 H   0  0  0  0  0  0  0  0  0  0  0  0
  136.6054   71.9479  221.6835 H   0  0  0  0  0  0  0  0  0  0  0  0
  138.0946   71.9425  222.7721 H   0  0  0  0  0  0  0  0  0  0  0  0
  140.9117   76.0172  222.3631 H   0  0  0  0  0  0  0  0  0  0  0  0
  140.7232   78.3543  224.7082 H   0  0  0  0  0  0  0  0  0  0  0  0
  142.3852   78.2640  224.0263 H   0  0  0  0  0  0  0  0  0  0  0  0
  140.4137   80.5574  223.5974 H   0  0  0  0  0  0  0  0  0  0  0  0
  141.7871   80.5742  224.7445 H   0  0  0  0  0  0  0  0  0  0  0  0
  1  2  1  0
  2  3  1  0
  3  4  1  0
  4  5  1  0
  5  6  1  0
  6  7  1  0
  7  8  2  0
  8  9  1  0
  9 10  2  0
 10 11  1  0
 11 12  1  0
 12 13  2  0
 13 14  1  0
 14 15  2  0
 15 16  1  0
 16 17  2  0
 17 18  1  0
 18 19  2  0
 19 20  1  0
 20 21  2  0
 21 22  1  0
 22 23  2  0
 22 24  1  0
 24 25  1  0
 25 26  1  0
 26 27  1  0
 27 28  1  0
 28 29  1  0
 29 30  1  0
 30 31  1  0
 11 32  2  0
  5 33  1  0
 33 34  1  0
 34  2  1  0
 32  7  1  0
 24 14  1  0
 31 26  1  0
 21 16  1  0
  1 35  1  0
  1 36  1  0
  1 37  1  0
  3 38  1  0
  3 39  1  0
  4 40  1  0
  4 41  1  0
  6 42  1  0
  6 43  1  0
  8 44  1  0
  9 45  1  0
 10 46  1  0
 12 47  1  0
 13 48  1  0
 17 49  1  0
 18 50  1  0
 19 51  1  0
 20 52  1  0
 25 53  1  0
 25 54  1  0
 26 55  1  0
 27 56  1  0
 27 57  1  0
 28 58  1  0
 28 59  1  0
 29 60  1  0
 29 61  1  0
 30 62  1  0
 30 63  1  0
 31 64  1  0
 31 65  1  0
 32 66  1  0
 33 67  1  0
 33 68  1  0
 34 69  1  0
 34 70  1  0
M  END
>  <smiles>  (28) 
CN1CCN(Cc2cccc(/C=C/c3nc4ccccc4c(=O)n3CC3CCCCC3)c2)CC1

>  <score_type>  (28) 
oracle

>  <origin>  (28) 
autodockgpu

>  <m_score__min__energy>  (28) 
-9.4000000000000004

>  <m_primary>  (28) 
energy

>  <rmsd>  (28) 
11.030528662342329

>  <m_score__min__rmsd>  (28) 
11.030528662342329

>  <meeko>  (28) 
{"free_energy": -8.71, "intermolecular_energy": -10.79, "internal_energy": -2.23, "cluster_size": 35, "cluster_id": 1, "rank_in_cluster": 23}

>  <energy>  (28) 
-8.62

>  <cluster_rmsd>  (28) 
0.8

>  <cluster>  (28) 
1

$$$$

     RDKit          3D

 70 74  0  0  0  0  0  0  0  0999 V2000
  141.8550   81.3490  223.5650 C   0  0  0  0  0  0  0  0  0  0  0  0
  140.8960   80.3170  223.8080 N   0  0  0  0  0  0  0  0  0  0  0  0
  139.7940   80.2940  222.8640 C   0  0  0  0  0  0  0  0  0  0  0  0
  140.2040   79.7980  221.5170 C   0  0  0  0  0  0  0  0  0  0  0  0
  140.9110   78.5700  221.5950 N   0  0  0  0  0  0  0  0  0  0  0  0
  140.1380   77.3770  221.6390 C   0  0  0  0  0  0  0  0  0  0  0  0
  140.9780   76.2380  221.1860 C   0  0  0  0  0  0  0  0  0  0  0  0
  142.0540   76.3660  220.3460 C   0  0  0  0  0  0  0  0  0  0  0  0
  142.7860   75.2630  219.9660 C   0  0  0  0  0  0  0  0  0  0  0  0
  142.4280   73.9950  220.4450 C   0  0  0  0  0  0  0  0  0  0  0  0
  141.3550   73.8370  221.2880 C   0  0  0  0  0  0  0  0  0  0  0  0
  140.9360   72.5240  221.8180 C   0  0  0  0  0  0  0  0  0  0  0  0
  140.1020   72.3560  222.7910 C   0  0  0  0  0  0  0  0  0  0  0  0
  139.9650   71.3430  223.7870 C   0  0  0  0  0  0  0  0  0  0  0  0
  140.5010   71.6570  225.0170 N   0  0  0  0  0  0  0  0  0  0  0  0
  140.5100   70.8910  226.0740 C   0  0  0  0  0  0  0  0  0  0  0  0
  141.0850   71.3450  227.2390 C   0  0  0  0  0  0  0  0  0  0  0  0
  141.0560   70.4800  228.3170 C   0  0  0  0  0  0  0  0  0  0  0  0
  140.4870   69.2260  228.2490 C   0  0  0  0  0  0  0  0  0  0  0  0
  139.9070   68.7810  227.0600 C   0  0  0  0  0  0  0  0  0  0  0  0
  139.9400   69.6450  225.9980 C   0  0  0  0  0  0  0  0  0  0  0  0
  139.3940   69.2910  224.7880 C   0  0  0  0  0  0  0  0  0  0  0  0
  138.8740   68.1480  224.7160 O   0  0  0  0  0  0  0  0  0  0  0  0
  139.4110   70.1410  223.7010 N   0  0  0  0  0  0  0  0  0  0  0  0
  138.7950   69.6230  222.5220 C   0  0  0  0  0  0  0  0  0  0  0  0
  137.5190   70.2540  222.0930 C   0  0  0  0  0  0  0  0  0  0  0  0
  136.4770   69.1580  221.8380 C   0  0  0  0  0  0  0  0  0  0  0  0
  136.0240   68.5200  223.1040 C   0  0  0  0  0  0  0  0  0  0  0  0
  135.9950   69.3960  224.3060 C   0  0  0  0  0  0  0  0  0  0  0  0
  136.0390   70.8610  224.0550 C   0  0  0  0  0  0  0  0  0  0  0  0
  136.9630   71.3250  222.9740 C   0  0  0  0  0  0  0  0  0  0  0  0
  140.6580   74.9770  221.6350 C   0  0  0  0  0  0  0  0  0  0  0  0
  142.0180   78.6600  222.4720 C   0  0  0  0  0  0  0  0  0  0  0  0
  141.5420   79.0150  223.8600 C   0  0  0  0  0  0  0  0  0  0  0  0
  142.2210   81.7428  224.5247 H   0  0  0  0  0  0  0  0  0  0  0  0
  142.6989   80.9377  222.9917 H   0  0  0  0  0  0  0  0  0  0  0  0
  141.3830   82.1605  222.9917 H   0  0  0  0  0  0  0  0  0  0  0  0
  139.0063   79.6349  223.2577 H   0  0  0  0  0  0  0  0  0  0  0  0
  139.4354   81.3270  222.7444 H   0  0  0  0  0  0  0  0  0  0  0  0
  139.3030   79.6506  220.9035 H   0  0  0  0  0  0  0  0  0  0  0  0
  140.8729   80.5471  221.0683 H   0  0  0  0  0  0  0  0  0  0  0  0
  139.7969   77.1966  222.6691 H   0  0  0  0  0  0  0  0  0  0  0  0
  139.2625   77.4775  220.9806 H   0  0  0  0  0  0  0  0  0  0  0  0
  142.3359   77.3610  219.9713 H   0  0  0  0  0  0  0  0  0  0  0  0
  143.6467   75.3763  219.2905 H   0  0  0  0  0  0  0  0  0  0  0  0
  143.0141   73.1149  220.1418 H   0  0  0  0  0  0  0  0  0  0  0  0
  141.3643   71.6246  221.3514 H   0  0  0  0  0  0  0  0  0  0  0  0
  139.3473   73.1527  222.8665 H   0  0  0  0  0  0  0  0  0  0  0  0
  141.5431   72.3426  227.3087 H   0  0  0  0  0  0  0  0  0  0  0  0
  141.5049   70.8053  229.2671 H   0  0  0  0  0  0  0  0  0  0  0  0
  140.4901   68.5739  229.1349 H   0  0  0  0  0  0  0  0  0  0  0  0
  139.4461   67.7854  226.9799 H   0  0  0  0  0  0  0  0  0  0  0  0
  139.5136   69.7335  221.6965 H   0  0  0  0  0  0  0  0  0  0  0  0
  138.5301   68.5849  222.7712 H   0  0  0  0  0  0  0  0  0  0  0  0
  137.7692   70.8004  221.1717 H   0  0  0  0  0  0  0  0  0  0  0  0
  135.6074   69.6041  221.3332 H   0  0  0  0  0  0  0  0  0  0  0  0
  136.9429   68.3825  221.2122 H   0  0  0  0  0  0  0  0  0  0  0  0
  135.0051   68.1384  222.9419 H   0  0  0  0  0  0  0  0  0  0  0  0
  136.7688   67.7412  223.3247 H   0  0  0  0  0  0  0  0  0  0  0  0
  135.0683   69.1781  224.8571 H   0  0  0  0  0  0  0  0  0  0  0  0
  136.9174   69.1655  224.8592 H   0  0  0  0  0  0  0  0  0  0  0  0
  135.0224   71.1851  223.7877 H   0  0  0  0  0  0  0  0  0  0  0  0
  136.4303   71.3039  224.9827 H   0  0  0  0  0  0  0  0  0  0  0  0
  136.4109   72.0328  222.3382 H   0  0  0  0  0  0  0  0  0  0  0  0
  137.8279   71.7688  223.4888 H   0  0  0  0  0  0  0  0  0  0  0  0
  139.7961   74.8712  222.3102 H   0  0  0  0  0  0  0  0  0  0  0  0
  142.5406   77.6925  222.5013 H   0  0  0  0  0  0  0  0  0  0  0  0
  142.7044   79.4407  222.1122 H   0  0  0  0  0  0  0  0  0  0  0  0
  140.8245   78.2586  224.2108 H   0  0  0  0  0  0  0  0  0  0  0  0
  142.3946   79.0450  224.5544 H   0  0  0  0  0  0  0  0  0  0  0  0
  1  2  1  0
  2  3  1  0
  3  4  1  0
  4  5  1  0
  5  6  1  0
  6  7  1  0
  7  8  2  0
  8  9  1  0
  9 10  2  0
 10 11  1  0
 11 12  1  0
 12 13  2  0
 13 14  1  0
 14 15  2  0
 15 16  1  0
 16 17  2  0
 17 18  1  0
 18 19  2  0
 19 20  1  0
 20 21  2  0
 21 22  1  0
 22 23  2  0
 22 24  1  0
 24 25  1  0
 25 26  1  0
 26 27  1  0
 27 28  1  0
 28 29  1  0
 29 30  1  0
 30 31  1  0
 11 32  2  0
  5 33  1  0
 33 34  1  0
 34  2  1  0
 32  7  1  0
 24 14  1  0
 31 26  1  0
 21 16  1  0
  1 35  1  0
  1 36  1  0
  1 37  1  0
  3 38  1  0
  3 39  1  0
  4 40  1  0
  4 41  1  0
  6 42  1  0
  6 43  1  0
  8 44  1  0
  9 45  1  0
 10 46  1  0
 12 47  1  0
 13 48  1  0
 17 49  1  0
 18 50  1  0
 19 51  1  0
 20 52  1  0
 25 53  1  0
 25 54  1  0
 26 55  1  0
 27 56  1  0
 27 57  1  0
 28 58  1  0
 28 59  1  0
 29 60  1  0
 29 61  1  0
 30 62  1  0
 30 63  1  0
 31 64  1  0
 31 65  1  0
 32 66  1  0
 33 67  1  0
 33 68  1  0
 34 69  1  0
 34 70  1  0
M  END
>  <smiles>  (29) 
CN1CCN(Cc2cccc(/C=C/c3nc4ccccc4c(=O)n3CC3CCCCC3)c2)CC1

>  <score_type>  (29) 
oracle

>  <origin>  (29) 
autodockgpu

>  <m_score__min__energy>  (29) 
-9.4000000000000004

>  <m_primary>  (29) 
energy

>  <rmsd>  (29) 
11.428827734024608

>  <m_score__min__rmsd>  (29) 
11.428827734024608

>  <meeko>  (29) 
{"free_energy": -8.97, "intermolecular_energy": -11.06, "internal_energy": -1.86, "cluster_size": 35, "cluster_id": 1, "rank_in_cluster": 14}

>  <energy>  (29) 
-8.58

>  <cluster_rmsd>  (29) 
1.15

>  <cluster>  (29) 
1

$$$$

     RDKit          3D

 70 74  0  0  0  0  0  0  0  0999 V2000
  145.9700   71.1730  219.3470 C   0  0  0  0  0  0  0  0  0  0  0  0
  145.9170   72.5900  219.1700 N   0  0  0  0  0  0  0  0  0  0  0  0
  144.9870   73.0280  218.1450 C   0  0  0  0  0  0  0  0  0  0  0  0
  143.5620   72.8800  218.5640 C   0  0  0  0  0  0  0  0  0  0  0  0
  143.3180   73.4590  219.8370 N   0  0  0  0  0  0  0  0  0  0  0  0
  143.0330   74.8530  219.8730 C   0  0  0  0  0  0  0  0  0  0  0  0
  141.8410   75.0810  220.7290 C   0  0  0  0  0  0  0  0  0  0  0  0
  141.4420   76.3150  221.1750 C   0  0  0  0  0  0  0  0  0  0  0  0
  140.3240   76.4490  221.9690 C   0  0  0  0  0  0  0  0  0  0  0  0
  139.5860   75.3130  222.3240 C   0  0  0  0  0  0  0  0  0  0  0  0
  139.9610   74.0650  221.8910 C   0  0  0  0  0  0  0  0  0  0  0  0
  139.2180   72.8360  222.2390 C   0  0  0  0  0  0  0  0  0  0  0  0
  139.7640   71.6890  222.4750 C   0  0  0  0  0  0  0  0  0  0  0  0
  139.7940   70.8490  223.6280 C   0  0  0  0  0  0  0  0  0  0  0  0
  140.2940   71.4390  224.7680 N   0  0  0  0  0  0  0  0  0  0  0  0
  140.4320   70.8710  225.9350 C   0  0  0  0  0  0  0  0  0  0  0  0
  140.9490   71.5930  226.9870 C   0  0  0  0  0  0  0  0  0  0  0  0
  141.0660   70.9260  228.1930 C   0  0  0  0  0  0  0  0  0  0  0  0
  140.6900   69.6100  228.3530 C   0  0  0  0  0  0  0  0  0  0  0  0
  140.1660   68.8920  227.2770 C   0  0  0  0  0  0  0  0  0  0  0  0
  140.0540   69.5600  226.0870 C   0  0  0  0  0  0  0  0  0  0  0  0
  139.5500   68.9330  224.9730 C   0  0  0  0  0  0  0  0  0  0  0  0
  139.2070   67.7300  225.1100 O   0  0  0  0  0  0  0  0  0  0  0  0
  139.4250   69.5810  223.7620 N   0  0  0  0  0  0  0  0  0  0  0  0
  138.8770   68.7900  222.7090 C   0  0  0  0  0  0  0  0  0  0  0  0
  137.5610   69.2110  222.1600 C   0  0  0  0  0  0  0  0  0  0  0  0
  137.6190   69.1710  220.6280 C   0  0  0  0  0  0  0  0  0  0  0  0
  137.6670   67.7770  220.1120 C   0  0  0  0  0  0  0  0  0  0  0  0
  136.9480   66.7540  220.9190 C   0  0  0  0  0  0  0  0  0  0  0  0
  135.9600   67.2670  221.9050 C   0  0  0  0  0  0  0  0  0  0  0  0
  136.3540   68.4910  222.6680 C   0  0  0  0  0  0  0  0  0  0  0  0
  141.0880   73.9900  221.0990 C   0  0  0  0  0  0  0  0  0  0  0  0
  144.2020   72.9510  220.8190 C   0  0  0  0  0  0  0  0  0  0  0  0
  145.6280   73.2570  220.4300 C   0  0  0  0  0  0  0  0  0  0  0  0
  145.9788   70.9378  220.4215 H   0  0  0  0  0  0  0  0  0  0  0  0
  145.0885   70.7117  218.8779 H   0  0  0  0  0  0  0  0  0  0  0  0
  146.8835   70.7788  218.8779 H   0  0  0  0  0  0  0  0  0  0  0  0
  145.1809   74.0877  217.9225 H   0  0  0  0  0  0  0  0  0  0  0  0
  145.1424   72.3935  217.2600 H   0  0  0  0  0  0  0  0  0  0  0  0
  142.9201   73.3747  217.8202 H   0  0  0  0  0  0  0  0  0  0  0  0
  143.3381   71.8051  218.6316 H   0  0  0  0  0  0  0  0  0  0  0  0
  143.8950   75.3950  220.2892 H   0  0  0  0  0  0  0  0  0  0  0  0
  142.8344   75.2181  218.8545 H   0  0  0  0  0  0  0  0  0  0  0  0
  142.0210   77.2076  220.8957 H   0  0  0  0  0  0  0  0  0  0  0  0
  140.0127   77.4431  222.3222 H   0  0  0  0  0  0  0  0  0  0  0  0
  138.6939   75.4219  222.9583 H   0  0  0  0  0  0  0  0  0  0  0  0
  138.1218   72.9024  222.3016 H   0  0  0  0  0  0  0  0  0  0  0  0
  140.3154   71.2784  221.6163 H   0  0  0  0  0  0  0  0  0  0  0  0
  141.2528   72.6442  226.8744 H   0  0  0  0  0  0  0  0  0  0  0  0
  141.4753   71.4674  229.0586 H   0  0  0  0  0  0  0  0  0  0  0  0
  140.8033   69.1233  229.3329 H   0  0  0  0  0  0  0  0  0  0  0  0
  139.8581   67.8410  227.3799 H   0  0  0  0  0  0  0  0  0  0  0  0
  139.5994   68.7963  221.8795 H   0  0  0  0  0  0  0  0  0  0  0  0
  138.6948   67.8032  223.1597 H   0  0  0  0  0  0  0  0  0  0  0  0
  137.4119   70.2343  222.5349 H   0  0  0  0  0  0  0  0  0  0  0  0
  136.7248   69.6690  220.2250 H   0  0  0  0  0  0  0  0  0  0  0  0
  138.5371   69.6853  220.3077 H   0  0  0  0  0  0  0  0  0  0  0  0
  137.2293   67.7771  219.1028 H   0  0  0  0  0  0  0  0  0  0  0  0
  138.7275   67.4867  220.1447 H   0  0  0  0  0  0  0  0  0  0  0  0
  136.4130   66.0926  220.2217 H   0  0  0  0  0  0  0  0  0  0  0  0
  137.7243   66.2527  221.5157 H   0  0  0  0  0  0  0  0  0  0  0  0
  135.0324   67.4967  221.3602 H   0  0  0  0  0  0  0  0  0  0  0  0
  135.8615   66.4724  222.6593 H   0  0  0  0  0  0  0  0  0  0  0  0
  135.5068   69.1921  222.6429 H   0  0  0  0  0  0  0  0  0  0  0  0
  136.6156   68.1432  223.6783 H   0  0  0  0  0  0  0  0  0  0  0  0
  141.4038   72.9987  220.7417 H   0  0  0  0  0  0  0  0  0  0  0  0
  143.9792   73.4201  221.7887 H   0  0  0  0  0  0  0  0  0  0  0  0
  144.0722   71.8614  220.8960 H   0  0  0  0  0  0  0  0  0  0  0  0
  145.7554   74.3433  220.3123 H   0  0  0  0  0  0  0  0  0  0  0  0
  146.3160   72.9009  221.2109 H   0  0  0  0  0  0  0  0  0  0  0  0
  1  2  1  0
  2  3  1  0
  3  4  1  0
  4  5  1  0
  5  6  1  0
  6  7  1  0
  7  8  2  0
  8  9  1  0
  9 10  2  0
 10 11  1  0
 11 12  1  0
 12 13  2  0
 13 14  1  0
 14 15  2  0
 15 16  1  0
 16 17  2  0
 17 18  1  0
 18 19  2  0
 19 20  1  0
 20 21  2  0
 21 22  1  0
 22 23  2  0
 22 24  1  0
 24 25  1  0
 25 26  1  0
 26 27  1  0
 27 28  1  0
 28 29  1  0
 29 30  1  0
 30 31  1  0
 11 32  2  0
  5 33  1  0
 33 34  1  0
 34  2  1  0
 32  7  1  0
 24 14  1  0
 31 26  1  0
 21 16  1  0
  1 35  1  0
  1 36  1  0
  1 37  1  0
  3 38  1  0
  3 39  1  0
  4 40  1  0
  4 41  1  0
  6 42  1  0
  6 43  1  0
  8 44  1  0
  9 45  1  0
 10 46  1  0
 12 47  1  0
 13 48  1  0
 17 49  1  0
 18 50  1  0
 19 51  1  0
 20 52  1  0
 25 53  1  0
 25 54  1  0
 26 55  1  0
 27 56  1  0
 27 57  1  0
 28 58  1  0
 28 59  1  0
 29 60  1  0
 29 61  1  0
 30 62  1  0
 30 63  1  0
 31 64  1  0
 31 65  1  0
 32 66  1  0
 33 67  1  0
 33 68  1  0
 34 69  1  0
 34 70  1  0
M  END
>  <smiles>  (30) 
CN1CCN(Cc2cccc(/C=C/c3nc4ccccc4c(=O)n3CC3CCCCC3)c2)CC1

>  <score_type>  (30) 
oracle

>  <origin>  (30) 
autodockgpu

>  <m_score__min__energy>  (30) 
-9.4000000000000004

>  <m_primary>  (30) 
energy

>  <rmsd>  (30) 
11.184448585431044

>  <m_score__min__rmsd>  (30) 
11.184448585431044

>  <meeko>  (30) 
{"free_energy": -8.93, "intermolecular_energy": -11.01, "internal_energy": -1.72, "cluster_size": 9, "cluster_id": 2, "rank_in_cluster": 6}

>  <energy>  (30) 
-8.53

>  <cluster_rmsd>  (30) 
1.14

>  <cluster>  (30) 
1

$$$$

     RDKit          3D

 70 74  0  0  0  0  0  0  0  0999 V2000
  140.7890   82.4120  221.6860 C   0  0  0  0  0  0  0  0  0  0  0  0
  141.5110   81.4330  222.4370 N   0  0  0  0  0  0  0  0  0  0  0  0
  140.7050   80.7100  223.4030 C   0  0  0  0  0  0  0  0  0  0  0  0
  139.7710   79.7400  222.7590 C   0  0  0  0  0  0  0  0  0  0  0  0
  140.4370   78.8980  221.8300 N   0  0  0  0  0  0  0  0  0  0  0  0
  141.0640   77.7290  222.3460 C   0  0  0  0  0  0  0  0  0  0  0  0
  140.1440   76.5740  222.1850 C   0  0  0  0  0  0  0  0  0  0  0  0
  138.7770   76.6710  222.2360 C   0  0  0  0  0  0  0  0  0  0  0  0
  137.9860   75.5540  222.0800 C   0  0  0  0  0  0  0  0  0  0  0  0
  138.5850   74.3050  221.8670 C   0  0  0  0  0  0  0  0  0  0  0  0
  139.9510   74.1790  221.8110 C   0  0  0  0  0  0  0  0  0  0  0  0
  140.6300   72.8850  221.5910 C   0  0  0  0  0  0  0  0  0  0  0  0
  140.1620   71.7380  221.9560 C   0  0  0  0  0  0  0  0  0  0  0  0
  139.9550   71.1380  223.2350 C   0  0  0  0  0  0  0  0  0  0  0  0
  140.5860   71.7690  224.2850 N   0  0  0  0  0  0  0  0  0  0  0  0
  140.5560   71.4020  225.5370 C   0  0  0  0  0  0  0  0  0  0  0  0
  141.2390   72.1370  226.4790 C   0  0  0  0  0  0  0  0  0  0  0  0
  141.1610   71.6890  227.7850 C   0  0  0  0  0  0  0  0  0  0  0  0
  140.4440   70.5680  228.1440 C   0  0  0  0  0  0  0  0  0  0  0  0
  139.7550   69.8340  227.1770 C   0  0  0  0  0  0  0  0  0  0  0  0
  139.8380   70.2850  225.8870 C   0  0  0  0  0  0  0  0  0  0  0  0
  139.1930   69.6260  224.8690 C   0  0  0  0  0  0  0  0  0  0  0  0
  138.5380   68.6000  225.1870 O   0  0  0  0  0  0  0  0  0  0  0  0
  139.2570   70.0580  223.5600 N   0  0  0  0  0  0  0  0  0  0  0  0
  138.5250   69.2640  222.6280 C   0  0  0  0  0  0  0  0  0  0  0  0
  137.2920   69.8620  222.0510 C   0  0  0  0  0  0  0  0  0  0  0  0
  136.1020   68.9410  222.3470 C   0  0  0  0  0  0  0  0  0  0  0  0
  135.7340   68.9580  223.7880 C   0  0  0  0  0  0  0  0  0  0  0  0
  135.9600   70.2400  224.5080 C   0  0  0  0  0  0  0  0  0  0  0  0
  136.1500   71.4470  223.6600 C   0  0  0  0  0  0  0  0  0  0  0  0
  136.9830   71.2730  222.4310 C   0  0  0  0  0  0  0  0  0  0  0  0
  140.6930   75.3310  221.9730 C   0  0  0  0  0  0  0  0  0  0  0  0
  141.1520   79.6470  220.8650 C   0  0  0  0  0  0  0  0  0  0  0  0
  142.1910   80.5020  221.5500 C   0  0  0  0  0  0  0  0  0  0  0  0
  140.2805   83.1016  222.3759 H   0  0  0  0  0  0  0  0  0  0  0  0
  141.4883   82.9770  221.0522 H   0  0  0  0  0  0  0  0  0  0  0  0
  140.0427   81.9108  221.0522 H   0  0  0  0  0  0  0  0  0  0  0  0
  141.3752   80.1584  224.0787 H   0  0  0  0  0  0  0  0  0  0  0  0
  140.0968   81.4470  223.9479 H   0  0  0  0  0  0  0  0  0  0  0  0
  139.3135   79.1152  223.5402 H   0  0  0  0  0  0  0  0  0  0  0  0
  139.0087   80.3140  222.2119 H   0  0  0  0  0  0  0  0  0  0  0  0
  141.9964   77.5371  221.7948 H   0  0  0  0  0  0  0  0  0  0  0  0
  141.2967   77.8723  223.4115 H   0  0  0  0  0  0  0  0  0  0  0  0
  138.3070   77.6514  222.4033 H   0  0  0  0  0  0  0  0  0  0  0  0
  136.8903   75.6419  222.1224 H   0  0  0  0  0  0  0  0  0  0  0  0
  137.9523   73.4138  221.7430 H   0  0  0  0  0  0  0  0  0  0  0  0
  141.6038   72.8998  221.0797 H   0  0  0  0  0  0  0  0  0  0  0  0
  139.8636   71.0957  221.1143 H   0  0  0  0  0  0  0  0  0  0  0  0
  141.8162   73.0332  226.2075 H   0  0  0  0  0  0  0  0  0  0  0  0
  141.6922   72.2495  228.5683 H   0  0  0  0  0  0  0  0  0  0  0  0
  140.4146   70.2505  229.1968 H   0  0  0  0  0  0  0  0  0  0  0  0
  139.1740   68.9374  227.4386 H   0  0  0  0  0  0  0  0  0  0  0  0
  139.2003   69.0263  221.7928 H   0  0  0  0  0  0  0  0  0  0  0  0
  138.1767   68.3952  223.2058 H   0  0  0  0  0  0  0  0  0  0  0  0
  137.4904   69.9370  220.9716 H   0  0  0  0  0  0  0  0  0  0  0  0
  135.2373   69.2754  221.7549 H   0  0  0  0  0  0  0  0  0  0  0  0
  136.3909   67.9136  222.0805 H   0  0  0  0  0  0  0  0  0  0  0  0
  134.6640   68.7143  223.8641 H   0  0  0  0  0  0  0  0  0  0  0  0
  136.3999   68.2276  224.2708 H   0  0  0  0  0  0  0  0  0  0  0  0
  135.0889   70.4189  225.1554 H   0  0  0  0  0  0  0  0  0  0  0  0
  136.9087   70.1093  225.0492 H   0  0  0  0  0  0  0  0  0  0  0  0
  135.1551   71.7932  223.3434 H   0  0  0  0  0  0  0  0  0  0  0  0
  136.7029   72.1608  224.2884 H   0  0  0  0  0  0  0  0  0  0  0  0
  136.4473   71.7394  221.5911 H   0  0  0  0  0  0  0  0  0  0  0  0
  137.9523   71.7410  222.6577 H   0  0  0  0  0  0  0  0  0  0  0  0
  141.7892   75.2504  221.9300 H   0  0  0  0  0  0  0  0  0  0  0  0
  141.6485   78.9601  220.1638 H   0  0  0  0  0  0  0  0  0  0  0  0
  140.4526   80.2946  220.3159 H   0  0  0  0  0  0  0  0  0  0  0  0
  142.8711   79.8636  222.1330 H   0  0  0  0  0  0  0  0  0  0  0  0
  142.7773   81.0548  220.8013 H   0  0  0  0  0  0  0  0  0  0  0  0
  1  2  1  0
  2  3  1  0
  3  4  1  0
  4  5  1  0
  5  6  1  0
  6  7  1  0
  7  8  2  0
  8  9  1  0
  9 10  2  0
 10 11  1  0
 11 12  1  0
 12 13  2  0
 13 14  1  0
 14 15  2  0
 15 16  1  0
 16 17  2  0
 17 18  1  0
 18 19  2  0
 19 20  1  0
 20 21  2  0
 21 22  1  0
 22 23  2  0
 22 24  1  0
 24 25  1  0
 25 26  1  0
 26 27  1  0
 27 28  1  0
 28 29  1  0
 29 30  1  0
 30 31  1  0
 11 32  2  0
  5 33  1  0
 33 34  1  0
 34  2  1  0
 32  7  1  0
 24 14  1  0
 31 26  1  0
 21 16  1  0
  1 35  1  0
  1 36  1  0
  1 37  1  0
  3 38  1  0
  3 39  1  0
  4 40  1  0
  4 41  1  0
  6 42  1  0
  6 43  1  0
  8 44  1  0
  9 45  1  0
 10 46  1  0
 12 47  1  0
 13 48  1  0
 17 49  1  0
 18 50  1  0
 19 51  1  0
 20 52  1  0
 25 53  1  0
 25 54  1  0
 26 55  1  0
 27 56  1  0
 27 57  1  0
 28 58  1  0
 28 59  1  0
 29 60  1  0
 29 61  1  0
 30 62  1  0
 30 63  1  0
 31 64  1  0
 31 65  1  0
 32 66  1  0
 33 67  1  0
 33 68  1  0
 34 69  1  0
 34 70  1  0
M  END
>  <smiles>  (31) 
CN1CCN(Cc2cccc(/C=C/c3nc4ccccc4c(=O)n3CC3CCCCC3)c2)CC1

>  <score_type>  (31) 
oracle

>  <origin>  (31) 
autodockgpu

>  <m_score__min__energy>  (31) 
-9.4000000000000004

>  <m_primary>  (31) 
energy

>  <rmsd>  (31) 
11.069573441071105

>  <m_score__min__rmsd>  (31) 
11.069573441071105

>  <meeko>  (31) 
{"free_energy": -8.51, "intermolecular_energy": -10.6, "internal_energy": -2.26, "cluster_size": 35, "cluster_id": 1, "rank_in_cluster": 31}

>  <energy>  (31) 
-8.51

>  <cluster_rmsd>  (31) 
1.01

>  <cluster>  (31) 
1

$$$$

     RDKit          3D

 70 74  0  0  0  0  0  0  0  0999 V2000
  141.8680   81.3620  223.4230 C   0  0  0  0  0  0  0  0  0  0  0  0
  141.0490   80.2820  223.8790 N   0  0  0  0  0  0  0  0  0  0  0  0
  139.7510   80.2060  223.2330 C   0  0  0  0  0  0  0  0  0  0  0  0
  139.8410   79.7350  221.8190 C   0  0  0  0  0  0  0  0  0  0  0  0
  140.6050   78.5440  221.7040 N   0  0  0  0  0  0  0  0  0  0  0  0
  139.9240   77.3130  221.9180 C   0  0  0  0  0  0  0  0  0  0  0  0
  140.7040   76.2130  221.2950 C   0  0  0  0  0  0  0  0  0  0  0  0
  141.5420   76.3800  220.2220 C   0  0  0  0  0  0  0  0  0  0  0  0
  142.2330   75.3110  219.6950 C   0  0  0  0  0  0  0  0  0  0  0  0
  142.0780   74.0390  220.2620 C   0  0  0  0  0  0  0  0  0  0  0  0
  141.2460   73.8420  221.3370 C   0  0  0  0  0  0  0  0  0  0  0  0
  141.0480   72.5220  221.9690 C   0  0  0  0  0  0  0  0  0  0  0  0
  140.1070   72.2440  222.8100 C   0  0  0  0  0  0  0  0  0  0  0  0
  139.9610   71.2250  223.7990 C   0  0  0  0  0  0  0  0  0  0  0  0
  140.5000   71.5250  225.0300 N   0  0  0  0  0  0  0  0  0  0  0  0
  140.5020   70.7510  226.0820 C   0  0  0  0  0  0  0  0  0  0  0  0
  141.0820   71.1910  227.2500 C   0  0  0  0  0  0  0  0  0  0  0  0
  141.0450   70.3190  228.3220 C   0  0  0  0  0  0  0  0  0  0  0  0
  140.4640   69.0710  228.2450 C   0  0  0  0  0  0  0  0  0  0  0  0
  139.8780   68.6410  227.0540 C   0  0  0  0  0  0  0  0  0  0  0  0
  139.9190   69.5110  225.9980 C   0  0  0  0  0  0  0  0  0  0  0  0
  139.3690   69.1720  224.7850 C   0  0  0  0  0  0  0  0  0  0  0  0
  138.8380   68.0340  224.7060 O   0  0  0  0  0  0  0  0  0  0  0  0
  139.3940   70.0290  223.7040 N   0  0  0  0  0  0  0  0  0  0  0  0
  138.7720   69.5260  222.5230 C   0  0  0  0  0  0  0  0  0  0  0  0
  137.5100   70.1830  222.0910 C   0  0  0  0  0  0  0  0  0  0  0  0
  136.4350   69.1110  221.8720 C   0  0  0  0  0  0  0  0  0  0  0  0
  135.9770   68.5180  223.1570 C   0  0  0  0  0  0  0  0  0  0  0  0
  135.9850   69.4220  224.3380 C   0  0  0  0  0  0  0  0  0  0  0  0
  136.0690   70.8790  224.0500 C   0  0  0  0  0  0  0  0  0  0  0  0
  136.9940   71.2900  222.9500 C   0  0  0  0  0  0  0  0  0  0  0  0
  140.5800   74.9490  221.8240 C   0  0  0  0  0  0  0  0  0  0  0  0
  141.8870   78.6870  222.2850 C   0  0  0  0  0  0  0  0  0  0  0  0
  141.7500   79.0150  223.7520 C   0  0  0  0  0  0  0  0  0  0  0  0
  142.2778   81.9024  224.2890 H   0  0  0  0  0  0  0  0  0  0  0  0
  142.6937   80.9645  222.8146 H   0  0  0  0  0  0  0  0  0  0  0  0
  141.2624   82.0499  222.8146 H   0  0  0  0  0  0  0  0  0  0  0  0
  139.1167   79.5069  223.7977 H   0  0  0  0  0  0  0  0  0  0  0  0
  139.3249   81.2200  223.2203 H   0  0  0  0  0  0  0  0  0  0  0  0
  138.8252   79.5433  221.4430 H   0  0  0  0  0  0  0  0  0  0  0  0
  140.3412   80.5183  221.2306 H   0  0  0  0  0  0  0  0  0  0  0  0
  139.8254   77.1292  222.9980 H   0  0  0  0  0  0  0  0  0  0  0  0
  138.9221   77.3596  221.4663 H   0  0  0  0  0  0  0  0  0  0  0  0
  141.6637   77.3787  219.7773 H   0  0  0  0  0  0  0  0  0  0  0  0
  142.9025   75.4551  218.8342 H   0  0  0  0  0  0  0  0  0  0  0  0
  142.6303   73.1863  219.8403 H   0  0  0  0  0  0  0  0  0  0  0  0
  141.7514   71.7185  221.7052 H   0  0  0  0  0  0  0  0  0  0  0  0
  139.2479   72.9285  222.7523 H   0  0  0  0  0  0  0  0  0  0  0  0
  141.5500   72.1835  227.3264 H   0  0  0  0  0  0  0  0  0  0  0  0
  141.4970   70.6333  229.2743 H   0  0  0  0  0  0  0  0  0  0  0  0
  140.4625   68.4119  229.1257 H   0  0  0  0  0  0  0  0  0  0  0  0
  139.4061   67.6511  226.9678 H   0  0  0  0  0  0  0  0  0  0  0  0
  139.4953   69.6237  221.7000 H   0  0  0  0  0  0  0  0  0  0  0  0
  138.4857   68.4929  222.7695 H   0  0  0  0  0  0  0  0  0  0  0  0
  137.7660   70.7002  221.1546 H   0  0  0  0  0  0  0  0  0  0  0  0
  135.5735   69.5691  221.3641 H   0  0  0  0  0  0  0  0  0  0  0  0
  136.8725   68.3076  221.2611 H   0  0  0  0  0  0  0  0  0  0  0  0
  134.9460   68.1624  223.0137 H   0  0  0  0  0  0  0  0  0  0  0  0
  136.7021   67.7242  223.3895 H   0  0  0  0  0  0  0  0  0  0  0  0
  135.0578   69.2445  224.9026 H   0  0  0  0  0  0  0  0  0  0  0  0
  136.9050   69.1776  224.8892 H   0  0  0  0  0  0  0  0  0  0  0  0
  135.0594   71.2258  223.7845 H   0  0  0  0  0  0  0  0  0  0  0  0
  136.4831   71.3324  224.9627 H   0  0  0  0  0  0  0  0  0  0  0  0
  136.4557   71.9976  222.3023 H   0  0  0  0  0  0  0  0  0  0  0  0
  137.8763   71.7215  223.4454 H   0  0  0  0  0  0  0  0  0  0  0  0
  139.9106   74.8123  222.6861 H   0  0  0  0  0  0  0  0  0  0  0  0
  142.4462   77.7465  222.1718 H   0  0  0  0  0  0  0  0  0  0  0  0
  142.4259   79.5019  221.7795 H   0  0  0  0  0  0  0  0  0  0  0  0
  141.1784   78.2226  224.2573 H   0  0  0  0  0  0  0  0  0  0  0  0
  142.7447   79.0870  224.2161 H   0  0  0  0  0  0  0  0  0  0  0  0
  1  2  1  0
  2  3  1  0
  3  4  1  0
  4  5  1  0
  5  6  1  0
  6  7  1  0
  7  8  2  0
  8  9  1  0
  9 10  2  0
 10 11  1  0
 11 12  1  0
 12 13  2  0
 13 14  1  0
 14 15  2  0
 15 16  1  0
 16 17  2  0
 17 18  1  0
 18 19  2  0
 19 20  1  0
 20 21  2  0
 21 22  1  0
 22 23  2  0
 22 24  1  0
 24 25  1  0
 25 26  1  0
 26 27  1  0
 27 28  1  0
 28 29  1  0
 29 30  1  0
 30 31  1  0
 11 32  2  0
  5 33  1  0
 33 34  1  0
 34  2  1  0
 32  7  1  0
 24 14  1  0
 31 26  1  0
 21 16  1  0
  1 35  1  0
  1 36  1  0
  1 37  1  0
  3 38  1  0
  3 39  1  0
  4 40  1  0
  4 41  1  0
  6 42  1  0
  6 43  1  0
  8 44  1  0
  9 45  1  0
 10 46  1  0
 12 47  1  0
 13 48  1  0
 17 49  1  0
 18 50  1  0
 19 51  1  0
 20 52  1  0
 25 53  1  0
 25 54  1  0
 26 55  1  0
 27 56  1  0
 27 57  1  0
 28 58  1  0
 28 59  1  0
 29 60  1  0
 29 61  1  0
 30 62  1  0
 30 63  1  0
 31 64  1  0
 31 65  1  0
 32 66  1  0
 33 67  1  0
 33 68  1  0
 34 69  1  0
 34 70  1  0
M  END
>  <smiles>  (32) 
CN1CCN(Cc2cccc(/C=C/c3nc4ccccc4c(=O)n3CC3CCCCC3)c2)CC1

>  <score_type>  (32) 
oracle

>  <origin>  (32) 
autodockgpu

>  <m_score__min__energy>  (32) 
-9.4000000000000004

>  <m_primary>  (32) 
energy

>  <rmsd>  (32) 
11.5236170400991

>  <m_score__min__rmsd>  (32) 
11.5236170400991

>  <meeko>  (32) 
{"free_energy": -8.95, "intermolecular_energy": -11.04, "internal_energy": -1.85, "cluster_size": 35, "cluster_id": 1, "rank_in_cluster": 15}

>  <energy>  (32) 
-8.47

>  <cluster_rmsd>  (32) 
1.03

>  <cluster>  (32) 
1

$$$$

     RDKit          3D

 70 74  0  0  0  0  0  0  0  0999 V2000
  141.5400   81.7700  222.7610 C   0  0  0  0  0  0  0  0  0  0  0  0
  141.1670   80.6570  223.5780 N   0  0  0  0  0  0  0  0  0  0  0  0
  139.8310   80.1510  223.3210 C   0  0  0  0  0  0  0  0  0  0  0  0
  139.7350   79.4190  222.0240 C   0  0  0  0  0  0  0  0  0  0  0  0
  140.7510   78.4360  221.8920 N   0  0  0  0  0  0  0  0  0  0  0  0
  140.4960   77.1580  222.4650 C   0  0  0  0  0  0  0  0  0  0  0  0
  140.9210   76.1040  221.5090 C   0  0  0  0  0  0  0  0  0  0  0  0
  141.2890   76.3500  220.2110 C   0  0  0  0  0  0  0  0  0  0  0  0
  141.6700   75.3200  219.3790 C   0  0  0  0  0  0  0  0  0  0  0  0
  141.6830   74.0060  219.8650 C   0  0  0  0  0  0  0  0  0  0  0  0
  141.3190   73.7300  221.1610 C   0  0  0  0  0  0  0  0  0  0  0  0
  141.3140   72.3630  221.7200 C   0  0  0  0  0  0  0  0  0  0  0  0
  140.2710   71.7680  222.1970 C   0  0  0  0  0  0  0  0  0  0  0  0
  140.0120   71.1100  223.4370 C   0  0  0  0  0  0  0  0  0  0  0  0
  140.6160   71.6780  224.5370 N   0  0  0  0  0  0  0  0  0  0  0  0
  140.5390   71.2500  225.7680 C   0  0  0  0  0  0  0  0  0  0  0  0
  141.2000   71.9270  226.7670 C   0  0  0  0  0  0  0  0  0  0  0  0
  141.0720   71.4160  228.0460 C   0  0  0  0  0  0  0  0  0  0  0  0
  140.3270   70.2900  228.3250 C   0  0  0  0  0  0  0  0  0  0  0  0
  139.6610   69.6160  227.3000 C   0  0  0  0  0  0  0  0  0  0  0  0
  139.7930   70.1290  226.0370 C   0  0  0  0  0  0  0  0  0  0  0  0
  139.1740   69.5300  224.9670 C   0  0  0  0  0  0  0  0  0  0  0  0
  138.4940   68.5010  225.2120 O   0  0  0  0  0  0  0  0  0  0  0  0
  139.2880   70.0260  223.6840 N   0  0  0  0  0  0  0  0  0  0  0  0
  138.5770   69.2910  222.6900 C   0  0  0  0  0  0  0  0  0  0  0  0
  137.3530   69.9210  222.1280 C   0  0  0  0  0  0  0  0  0  0  0  0
  136.1620   68.9780  222.3360 C   0  0  0  0  0  0  0  0  0  0  0  0
  135.7640   68.8980  223.7670 C   0  0  0  0  0  0  0  0  0  0  0  0
  135.9680   70.1300  224.5760 C   0  0  0  0  0  0  0  0  0  0  0  0
  136.1700   71.3910  223.8140 C   0  0  0  0  0  0  0  0  0  0  0  0
  137.0300   71.3030  222.5940 C   0  0  0  0  0  0  0  0  0  0  0  0
  140.9470   74.8010  221.9480 C   0  0  0  0  0  0  0  0  0  0  0  0
  142.0400   78.9880  222.0810 C   0  0  0  0  0  0  0  0  0  0  0  0
  142.1430   79.5840  223.4640 C   0  0  0  0  0  0  0  0  0  0  0  0
  141.8239   82.6171  223.4028 H   0  0  0  0  0  0  0  0  0  0  0  0
  142.3931   81.4891  222.1259 H   0  0  0  0  0  0  0  0  0  0  0  0
  140.6899   82.0599  222.1259 H   0  0  0  0  0  0  0  0  0  0  0  0
  139.5514   79.4652  224.1343 H   0  0  0  0  0  0  0  0  0  0  0  0
  139.1518   81.0147  223.2676 H   0  0  0  0  0  0  0  0  0  0  0  0
  138.7536   78.9255  221.9665 H   0  0  0  0  0  0  0  0  0  0  0  0
  139.8611   80.1495  221.2113 H   0  0  0  0  0  0  0  0  0  0  0  0
  141.0620   77.0550  223.4026 H   0  0  0  0  0  0  0  0  0  0  0  0
  139.4217   77.0545  222.6776 H   0  0  0  0  0  0  0  0  0  0  0  0
  141.2799   77.3817  219.8297 H   0  0  0  0  0  0  0  0  0  0  0  0
  141.9623   75.5281  218.3392 H   0  0  0  0  0  0  0  0  0  0  0  0
  141.9886   73.1845  219.2004 H   0  0  0  0  0  0  0  0  0  0  0  0
  142.2661   71.8122  221.7310 H   0  0  0  0  0  0  0  0  0  0  0  0
  139.4113   71.7686  221.5108 H   0  0  0  0  0  0  0  0  0  0  0  0
  141.7982   72.8265  226.5596 H   0  0  0  0  0  0  0  0  0  0  0  0
  141.5850   71.9283  228.8733 H   0  0  0  0  0  0  0  0  0  0  0  0
  140.2572   69.9214  229.3591 H   0  0  0  0  0  0  0  0  0  0  0  0
  139.0593   68.7165  227.4971 H   0  0  0  0  0  0  0  0  0  0  0  0
  139.2690   69.1082  221.8547 H   0  0  0  0  0  0  0  0  0  0  0  0
  138.2208   68.3867  223.2051 H   0  0  0  0  0  0  0  0  0  0  0  0
  137.5726   70.0679  221.0602 H   0  0  0  0  0  0  0  0  0  0  0  0
  135.3083   69.3479  221.7491 H   0  0  0  0  0  0  0  0  0  0  0  0
  136.4613   67.9717  222.0076 H   0  0  0  0  0  0  0  0  0  0  0  0
  134.6940   68.6457  223.8040 H   0  0  0  0  0  0  0  0  0  0  0  0
  136.4241   68.1400  224.2139 H   0  0  0  0  0  0  0  0  0  0  0  0
  135.0823   70.2623  225.2148 H   0  0  0  0  0  0  0  0  0  0  0  0
  136.9051   69.9671  225.1285 H   0  0  0  0  0  0  0  0  0  0  0  0
  135.1802   71.7537  223.4997 H   0  0  0  0  0  0  0  0  0  0  0  0
  136.7062   72.0630  224.5002 H   0  0  0  0  0  0  0  0  0  0  0  0
  136.5101   71.8228  221.7757 H   0  0  0  0  0  0  0  0  0  0  0  0
  137.9920   71.7586  222.8715 H   0  0  0  0  0  0  0  0  0  0  0  0
  140.6537   74.6003  222.9890 H   0  0  0  0  0  0  0  0  0  0  0  0
  142.7962   78.1974  221.9668 H   0  0  0  0  0  0  0  0  0  0  0  0
  142.2113   79.7755  221.3324 H   0  0  0  0  0  0  0  0  0  0  0  0
  141.9340   78.8107  224.2178 H   0  0  0  0  0  0  0  0  0  0  0  0
  143.1567   79.9773  223.6305 H   0  0  0  0  0  0  0  0  0  0  0  0
  1  2  1  0
  2  3  1  0
  3  4  1  0
  4  5  1  0
  5  6  1  0
  6  7  1  0
  7  8  2  0
  8  9  1  0
  9 10  2  0
 10 11  1  0
 11 12  1  0
 12 13  2  0
 13 14  1  0
 14 15  2  0
 15 16  1  0
 16 17  2  0
 17 18  1  0
 18 19  2  0
 19 20  1  0
 20 21  2  0
 21 22  1  0
 22 23  2  0
 22 24  1  0
 24 25  1  0
 25 26  1  0
 26 27  1  0
 27 28  1  0
 28 29  1  0
 29 30  1  0
 30 31  1  0
 11 32  2  0
  5 33  1  0
 33 34  1  0
 34  2  1  0
 32  7  1  0
 24 14  1  0
 31 26  1  0
 21 16  1  0
  1 35  1  0
  1 36  1  0
  1 37  1  0
  3 38  1  0
  3 39  1  0
  4 40  1  0
  4 41  1  0
  6 42  1  0
  6 43  1  0
  8 44  1  0
  9 45  1  0
 10 46  1  0
 12 47  1  0
 13 48  1  0
 17 49  1  0
 18 50  1  0
 19 51  1  0
 20 52  1  0
 25 53  1  0
 25 54  1  0
 26 55  1  0
 27 56  1  0
 27 57  1  0
 28 58  1  0
 28 59  1  0
 29 60  1  0
 29 61  1  0
 30 62  1  0
 30 63  1  0
 31 64  1  0
 31 65  1  0
 32 66  1  0
 33 67  1  0
 33 68  1  0
 34 69  1  0
 34 70  1  0
M  END
>  <smiles>  (33) 
CN1CCN(Cc2cccc(/C=C/c3nc4ccccc4c(=O)n3CC3CCCCC3)c2)CC1

>  <score_type>  (33) 
oracle

>  <origin>  (33) 
autodockgpu

>  <m_score__min__energy>  (33) 
-9.4000000000000004

>  <m_primary>  (33) 
energy

>  <rmsd>  (33) 
11.208809197449837

>  <m_score__min__rmsd>  (33) 
11.208809197449837

>  <meeko>  (33) 
{"free_energy": -8.62, "intermolecular_energy": -10.7, "internal_energy": -1.93, "cluster_size": 35, "cluster_id": 1, "rank_in_cluster": 28}

>  <energy>  (33) 
-8.39

>  <cluster_rmsd>  (33) 
1.08

>  <cluster>  (33) 
1

$$$$

     RDKit          3D

 70 74  0  0  0  0  0  0  0  0999 V2000
  133.0330   73.7650  226.4370 C   0  0  0  0  0  0  0  0  0  0  0  0
  133.3820   74.8630  225.5910 N   0  0  0  0  0  0  0  0  0  0  0  0
  134.8110   75.0700  225.4410 C   0  0  0  0  0  0  0  0  0  0  0  0
  135.4560   74.0230  224.5960 C   0  0  0  0  0  0  0  0  0  0  0  0
  134.7760   73.8410  223.3630 N   0  0  0  0  0  0  0  0  0  0  0  0
  135.1250   74.7140  222.2950 C   0  0  0  0  0  0  0  0  0  0  0  0
  136.5890   74.9610  222.3300 C   0  0  0  0  0  0  0  0  0  0  0  0
  137.1570   76.1500  222.7110 C   0  0  0  0  0  0  0  0  0  0  0  0
  138.5260   76.3070  222.7170 C   0  0  0  0  0  0  0  0  0  0  0  0
  139.3470   75.2400  222.3290 C   0  0  0  0  0  0  0  0  0  0  0  0
  138.8060   74.0380  221.9420 C   0  0  0  0  0  0  0  0  0  0  0  0
  139.6280   72.8840  221.5230 C   0  0  0  0  0  0  0  0  0  0  0  0
  140.3530   72.1700  222.3200 C   0  0  0  0  0  0  0  0  0  0  0  0
  140.0500   71.4250  223.4990 C   0  0  0  0  0  0  0  0  0  0  0  0
  140.6590   71.8790  224.6490 N   0  0  0  0  0  0  0  0  0  0  0  0
  140.5460   71.3570  225.8400 C   0  0  0  0  0  0  0  0  0  0  0  0
  141.2180   71.9250  226.8990 C   0  0  0  0  0  0  0  0  0  0  0  0
  141.0510   71.3180  228.1300 C   0  0  0  0  0  0  0  0  0  0  0  0
  140.2580   70.2050  228.3090 C   0  0  0  0  0  0  0  0  0  0  0  0
  139.5820   69.6420  227.2250 C   0  0  0  0  0  0  0  0  0  0  0  0
  139.7540   70.2490  226.0100 C   0  0  0  0  0  0  0  0  0  0  0  0
  139.1280   69.7630  224.8870 C   0  0  0  0  0  0  0  0  0  0  0  0
  138.4040   68.7460  225.0400 O   0  0  0  0  0  0  0  0  0  0  0  0
  139.2810   70.3550  223.6500 N   0  0  0  0  0  0  0  0  0  0  0  0
  138.5570   69.7310  222.5910 C   0  0  0  0  0  0  0  0  0  0  0  0
  137.2870   70.3780  222.1660 C   0  0  0  0  0  0  0  0  0  0  0  0
  136.3190   69.3010  221.6610 C   0  0  0  0  0  0  0  0  0  0  0  0
  135.8050   68.4540  222.7710 C   0  0  0  0  0  0  0  0  0  0  0  0
  135.6490   69.1250  224.0900 C   0  0  0  0  0  0  0  0  0  0  0  0
  135.6430   70.6120  224.0760 C   0  0  0  0  0  0  0  0  0  0  0  0
  136.6200   71.2740  223.1570 C   0  0  0  0  0  0  0  0  0  0  0  0
  137.4300   73.9370  221.9560 C   0  0  0  0  0  0  0  0  0  0  0  0
  133.4000   73.5730  223.5600 C   0  0  0  0  0  0  0  0  0  0  0  0
  132.7530   74.7280  224.2860 C   0  0  0  0  0  0  0  0  0  0  0  0
  133.1294   74.0683  227.4899 H   0  0  0  0  0  0  0  0  0  0  0  0
  131.9946   73.4629  226.2360 H   0  0  0  0  0  0  0  0  0  0  0  0
  133.7065   72.9188  226.2360 H   0  0  0  0  0  0  0  0  0  0  0  0
  134.9778   76.0519  224.9740 H   0  0  0  0  0  0  0  0  0  0  0  0
  135.2629   75.0155  226.4424 H   0  0  0  0  0  0  0  0  0  0  0  0
  136.4935   74.3237  224.3883 H   0  0  0  0  0  0  0  0  0  0  0  0
  135.4201   73.0718  225.1473 H   0  0  0  0  0  0  0  0  0  0  0  0
  134.8522   74.2502  221.3356 H   0  0  0  0  0  0  0  0  0  0  0  0
  134.5851   75.6664  222.4024 H   0  0  0  0  0  0  0  0  0  0  0  0
  136.5123   76.9877  223.0152 H   0  0  0  0  0  0  0  0  0  0  0  0
  138.9717   77.2645  223.0246 H   0  0  0  0  0  0  0  0  0  0  0  0
  140.4397   75.3665  222.3343 H   0  0  0  0  0  0  0  0  0  0  0  0
  139.6226   72.6132  220.4569 H   0  0  0  0  0  0  0  0  0  0  0  0
  141.4140   72.1283  222.0326 H   0  0  0  0  0  0  0  0  0  0  0  0
  141.8535   72.8139  226.7725 H   0  0  0  0  0  0  0  0  0  0  0  0
  141.5721   71.7405  229.0018 H   0  0  0  0  0  0  0  0  0  0  0  0
  140.1574   69.7588  229.3094 H   0  0  0  0  0  0  0  0  0  0  0  0
  138.9427   68.7544  227.3414 H   0  0  0  0  0  0  0  0  0  0  0  0
  139.2196   69.6933  221.7137 H   0  0  0  0  0  0  0  0  0  0  0  0
  138.2576   68.7505  222.9898 H   0  0  0  0  0  0  0  0  0  0  0  0
  137.5767   71.0728  221.3640 H   0  0  0  0  0  0  0  0  0  0  0  0
  135.4687   69.7914  221.1645 H   0  0  0  0  0  0  0  0  0  0  0  0
  136.8656   68.6518  220.9611 H   0  0  0  0  0  0  0  0  0  0  0  0
  134.8190   68.0695  222.4711 H   0  0  0  0  0  0  0  0  0  0  0  0
  136.5665   67.6752  222.9246 H   0  0  0  0  0  0  0  0  0  0  0  0
  134.6962   68.7901  224.5258 H   0  0  0  0  0  0  0  0  0  0  0  0
  136.5388   68.8407  224.6708 H   0  0  0  0  0  0  0  0  0  0  0  0
  134.6344   70.9395  223.7838 H   0  0  0  0  0  0  0  0  0  0  0  0
  135.9454   70.9142  225.0895 H   0  0  0  0  0  0  0  0  0  0  0  0
  136.0829   72.0549  222.5986 H   0  0  0  0  0  0  0  0  0  0  0  0
  137.4240   71.6591  223.8014 H   0  0  0  0  0  0  0  0  0  0  0  0
  136.9781   72.9818  221.6502 H   0  0  0  0  0  0  0  0  0  0  0  0
  132.9114   73.4353  222.5841 H   0  0  0  0  0  0  0  0  0  0  0  0
  133.2905   72.6586  224.1616 H   0  0  0  0  0  0  0  0  0  0  0  0
  132.8928   75.6541  223.7091 H   0  0  0  0  0  0  0  0  0  0  0  0
  131.6752   74.5428  224.4042 H   0  0  0  0  0  0  0  0  0  0  0  0
  1  2  1  0
  2  3  1  0
  3  4  1  0
  4  5  1  0
  5  6  1  0
  6  7  1  0
  7  8  2  0
  8  9  1  0
  9 10  2  0
 10 11  1  0
 11 12  1  0
 12 13  2  0
 13 14  1  0
 14 15  2  0
 15 16  1  0
 16 17  2  0
 17 18  1  0
 18 19  2  0
 19 20  1  0
 20 21  2  0
 21 22  1  0
 22 23  2  0
 22 24  1  0
 24 25  1  0
 25 26  1  0
 26 27  1  0
 27 28  1  0
 28 29  1  0
 29 30  1  0
 30 31  1  0
 11 32  2  0
  5 33  1  0
 33 34  1  0
 34  2  1  0
 32  7  1  0
 24 14  1  0
 31 26  1  0
 21 16  1  0
  1 35  1  0
  1 36  1  0
  1 37  1  0
  3 38  1  0
  3 39  1  0
  4 40  1  0
  4 41  1  0
  6 42  1  0
  6 43  1  0
  8 44  1  0
  9 45  1  0
 10 46  1  0
 12 47  1  0
 13 48  1  0
 17 49  1  0
 18 50  1  0
 19 51  1  0
 20 52  1  0
 25 53  1  0
 25 54  1  0
 26 55  1  0
 27 56  1  0
 27 57  1  0
 28 58  1  0
 28 59  1  0
 29 60  1  0
 29 61  1  0
 30 62  1  0
 30 63  1  0
 31 64  1  0
 31 65  1  0
 32 66  1  0
 33 67  1  0
 33 68  1  0
 34 69  1  0
 34 70  1  0
M  END
>  <smiles>  (34) 
CN1CCN(Cc2cccc(/C=C/c3nc4ccccc4c(=O)n3CC3CCCCC3)c2)CC1

>  <score_type>  (34) 
oracle

>  <origin>  (34) 
autodockgpu

>  <m_score__min__energy>  (34) 
-9.4000000000000004

>  <m_primary>  (34) 
energy

>  <rmsd>  (34) 
11.070687135835183

>  <m_score__min__rmsd>  (34) 
11.070687135835183

>  <meeko>  (34) 
{"free_energy": -7.09, "intermolecular_energy": -9.18, "internal_energy": -3.05, "cluster_size": 2, "cluster_id": 4, "rank_in_cluster": 2}

>  <energy>  (34) 
-8.37

>  <cluster_rmsd>  (34) 
1.12

>  <cluster>  (34) 
1

$$$$

     RDKit          3D

 70 74  0  0  0  0  0  0  0  0999 V2000
  141.4020   81.5270  222.4390 C   0  0  0  0  0  0  0  0  0  0  0  0
  141.8010   80.3670  223.1730 N   0  0  0  0  0  0  0  0  0  0  0  0
  140.7090   79.6700  223.8280 C   0  0  0  0  0  0  0  0  0  0  0  0
  139.8360   78.9390  222.8630 C   0  0  0  0  0  0  0  0  0  0  0  0
  140.5870   78.1180  221.9830 N   0  0  0  0  0  0  0  0  0  0  0  0
  140.9250   76.8140  222.4410 C   0  0  0  0  0  0  0  0  0  0  0  0
  139.7480   75.9230  222.2800 C   0  0  0  0  0  0  0  0  0  0  0  0
  138.4490   76.3330  222.4370 C   0  0  0  0  0  0  0  0  0  0  0  0
  137.4060   75.4480  222.2730 C   0  0  0  0  0  0  0  0  0  0  0  0
  137.6750   74.1130  221.9410 C   0  0  0  0  0  0  0  0  0  0  0  0
  138.9670   73.6750  221.7780 C   0  0  0  0  0  0  0  0  0  0  0  0
  139.3030   72.2790  221.4300 C   0  0  0  0  0  0  0  0  0  0  0  0
  140.0950   71.5210  222.1150 C   0  0  0  0  0  0  0  0  0  0  0  0
  139.9610   70.8700  223.3780 C   0  0  0  0  0  0  0  0  0  0  0  0
  140.5040   71.5490  224.4460 N   0  0  0  0  0  0  0  0  0  0  0  0
  140.5170   71.1510  225.6890 C   0  0  0  0  0  0  0  0  0  0  0  0
  141.1000   71.9430  226.6520 C   0  0  0  0  0  0  0  0  0  0  0  0
  141.0750   71.4570  227.9470 C   0  0  0  0  0  0  0  0  0  0  0  0
  140.5030   70.2470  228.2750 C   0  0  0  0  0  0  0  0  0  0  0  0
  139.9140   69.4560  227.2870 C   0  0  0  0  0  0  0  0  0  0  0  0
  139.9430   69.9450  226.0080 C   0  0  0  0  0  0  0  0  0  0  0  0
  139.3890   69.2350  224.9710 C   0  0  0  0  0  0  0  0  0  0  0  0
  138.8670   68.1280  225.2610 O   0  0  0  0  0  0  0  0  0  0  0  0
  139.4030   69.7030  223.6730 N   0  0  0  0  0  0  0  0  0  0  0  0
  138.7790   68.8470  222.7180 C   0  0  0  0  0  0  0  0  0  0  0  0
  137.3310   68.5630  222.9070 C   0  0  0  0  0  0  0  0  0  0  0  0
  136.6830   69.7350  223.6530 C   0  0  0  0  0  0  0  0  0  0  0  0
  136.5860   70.9490  222.7990 C   0  0  0  0  0  0  0  0  0  0  0  0
  136.3920   70.7130  221.3430 C   0  0  0  0  0  0  0  0  0  0  0  0
  135.9330   69.3530  220.9520 C   0  0  0  0  0  0  0  0  0  0  0  0
  136.5470   68.2050  221.6880 C   0  0  0  0  0  0  0  0  0  0  0  0
  139.9710   74.6050  221.9530 C   0  0  0  0  0  0  0  0  0  0  0  0
  141.5950   78.8530  221.3150 C   0  0  0  0  0  0  0  0  0  0  0  0
  142.5460   79.4510  222.3240 C   0  0  0  0  0  0  0  0  0  0  0  0
  141.1264   82.3281  223.1407 H   0  0  0  0  0  0  0  0  0  0  0  0
  142.2356   81.8649  221.8058 H   0  0  0  0  0  0  0  0  0  0  0  0
  140.5369   81.2806  221.8058 H   0  0  0  0  0  0  0  0  0  0  0  0
  141.1301   78.9459  224.5410 H   0  0  0  0  0  0  0  0  0  0  0  0
  140.0884   80.4234  224.3352 H   0  0  0  0  0  0  0  0  0  0  0  0
  139.1349   78.3064  223.4272 H   0  0  0  0  0  0  0  0  0  0  0  0
  139.3003   79.6848  222.2574 H   0  0  0  0  0  0  0  0  0  0  0  0
  141.7668   76.4228  221.8507 H   0  0  0  0  0  0  0  0  0  0  0  0
  141.2155   76.8569  223.5011 H   0  0  0  0  0  0  0  0  0  0  0  0
  138.2372   77.3807  222.6969 H   0  0  0  0  0  0  0  0  0  0  0  0
  136.3676   75.7872  222.4019 H   0  0  0  0  0  0  0  0  0  0  0  0
  136.8415   73.4074  221.8093 H   0  0  0  0  0  0  0  0  0  0  0  0
  138.8468   71.8545  220.5236 H   0  0  0  0  0  0  0  0  0  0  0  0
  141.0648   71.3423  221.6277 H   0  0  0  0  0  0  0  0  0  0  0  0
  141.5612   72.9107  226.4051 H   0  0  0  0  0  0  0  0  0  0  0  0
  141.5297   72.0603  228.7465 H   0  0  0  0  0  0  0  0  0  0  0  0
  140.5106   69.9029  229.3198 H   0  0  0  0  0  0  0  0  0  0  0  0
  139.4494   68.4875  227.5241 H   0  0  0  0  0  0  0  0  0  0  0  0
  138.8992   69.3115  221.7282 H   0  0  0  0  0  0  0  0  0  0  0  0
  139.2780   67.8742  222.8387 H   0  0  0  0  0  0  0  0  0  0  0  0
  137.2980   67.6363  223.4987 H   0  0  0  0  0  0  0  0  0  0  0  0
  135.6713   69.4402  223.9686 H   0  0  0  0  0  0  0  0  0  0  0  0
  137.3136   69.9777  224.5210 H   0  0  0  0  0  0  0  0  0  0  0  0
  135.7347   71.5455  223.1588 H   0  0  0  0  0  0  0  0  0  0  0  0
  137.5605   71.4513  222.8889 H   0  0  0  0  0  0  0  0  0  0  0  0
  135.6448   71.4355  220.9828 H   0  0  0  0  0  0  0  0  0  0  0  0
  137.3885   70.8277  220.8915 H   0  0  0  0  0  0  0  0  0  0  0  0
  134.8454   69.3087  221.1108 H   0  0  0  0  0  0  0  0  0  0  0  0
  136.2469   69.2293  219.9050 H   0  0  0  0  0  0  0  0  0  0  0  0
  135.7364   67.5275  221.9943 H   0  0  0  0  0  0  0  0  0  0  0  0
  137.2670   67.7521  220.9905 H   0  0  0  0  0  0  0  0  0  0  0  0
  141.0117   74.2732  221.8234 H   0  0  0  0  0  0  0  0  0  0  0  0
  142.1504   78.1829  220.6422 H   0  0  0  0  0  0  0  0  0  0  0  0
  141.1291   79.6610  220.7318 H   0  0  0  0  0  0  0  0  0  0  0  0
  142.9869   78.6516  222.9376 H   0  0  0  0  0  0  0  0  0  0  0  0
  143.3547   79.9887  221.8075 H   0  0  0  0  0  0  0  0  0  0  0  0
  1  2  1  0
  2  3  1  0
  3  4  1  0
  4  5  1  0
  5  6  1  0
  6  7  1  0
  7  8  2  0
  8  9  1  0
  9 10  2  0
 10 11  1  0
 11 12  1  0
 12 13  2  0
 13 14  1  0
 14 15  2  0
 15 16  1  0
 16 17  2  0
 17 18  1  0
 18 19  2  0
 19 20  1  0
 20 21  2  0
 21 22  1  0
 22 23  2  0
 22 24  1  0
 24 25  1  0
 25 26  1  0
 26 27  1  0
 27 28  1  0
 28 29  1  0
 29 30  1  0
 30 31  1  0
 11 32  2  0
  5 33  1  0
 33 34  1  0
 34  2  1  0
 32  7  1  0
 24 14  1  0
 31 26  1  0
 21 16  1  0
  1 35  1  0
  1 36  1  0
  1 37  1  0
  3 38  1  0
  3 39  1  0
  4 40  1  0
  4 41  1  0
  6 42  1  0
  6 43  1  0
  8 44  1  0
  9 45  1  0
 10 46  1  0
 12 47  1  0
 13 48  1  0
 17 49  1  0
 18 50  1  0
 19 51  1  0
 20 52  1  0
 25 53  1  0
 25 54  1  0
 26 55  1  0
 27 56  1  0
 27 57  1  0
 28 58  1  0
 28 59  1  0
 29 60  1  0
 29 61  1  0
 30 62  1  0
 30 63  1  0
 31 64  1  0
 31 65  1  0
 32 66  1  0
 33 67  1  0
 33 68  1  0
 34 69  1  0
 34 70  1  0
M  END
>  <smiles>  (35) 
CN1CCN(Cc2cccc(/C=C/c3nc4ccccc4c(=O)n3CC3CCCCC3)c2)CC1

>  <score_type>  (35) 
oracle

>  <origin>  (35) 
autodockgpu

>  <m_score__min__energy>  (35) 
-9.4000000000000004

>  <m_primary>  (35) 
energy

>  <rmsd>  (35) 
10.914260956938572

>  <m_score__min__rmsd>  (35) 
10.914260956938572

>  <meeko>  (35) 
{"free_energy": -8.73, "intermolecular_energy": -10.82, "internal_energy": -2.01, "cluster_size": 35, "cluster_id": 1, "rank_in_cluster": 22}

>  <energy>  (35) 
-7.94

>  <cluster_rmsd>  (35) 
1.1

>  <cluster>  (35) 
1

$$$$

     RDKit          3D

 70 74  0  0  0  0  0  0  0  0999 V2000
  141.2270   81.1680  222.7460 C   0  0  0  0  0  0  0  0  0  0  0  0
  140.3520   80.2530  223.4110 N   0  0  0  0  0  0  0  0  0  0  0  0
  139.1770   79.8870  222.6410 C   0  0  0  0  0  0  0  0  0  0  0  0
  139.4990   78.9790  221.5010 C   0  0  0  0  0  0  0  0  0  0  0  0
  140.2790   77.8660  221.9110 N   0  0  0  0  0  0  0  0  0  0  0  0
  139.5810   76.7380  222.4250 C   0  0  0  0  0  0  0  0  0  0  0  0
  140.2110   75.4990  221.9000 C   0  0  0  0  0  0  0  0  0  0  0  0
  141.4530   75.4570  221.3200 C   0  0  0  0  0  0  0  0  0  0  0  0
  141.9730   74.2690  220.8540 C   0  0  0  0  0  0  0  0  0  0  0  0
  141.2240   73.0910  220.9740 C   0  0  0  0  0  0  0  0  0  0  0  0
  139.9780   73.1030  221.5500 C   0  0  0  0  0  0  0  0  0  0  0  0
  139.1490   71.8890  221.6980 C   0  0  0  0  0  0  0  0  0  0  0  0
  138.5430   71.5420  222.7850 C   0  0  0  0  0  0  0  0  0  0  0  0
  138.9520   70.7890  223.9260 C   0  0  0  0  0  0  0  0  0  0  0  0
  139.6400   71.5050  224.8820 N   0  0  0  0  0  0  0  0  0  0  0  0
  140.1250   71.0340  225.9990 C   0  0  0  0  0  0  0  0  0  0  0  0
  140.7920   71.8760  226.8600 C   0  0  0  0  0  0  0  0  0  0  0  0
  141.2770   71.3080  228.0230 C   0  0  0  0  0  0  0  0  0  0  0  0
  141.1120   69.9720  228.3230 C   0  0  0  0  0  0  0  0  0  0  0  0
  140.4310   69.1320  227.4400 C   0  0  0  0  0  0  0  0  0  0  0  0
  139.9550   69.7030  226.2910 C   0  0  0  0  0  0  0  0  0  0  0  0
  139.2740   68.9530  225.3630 C   0  0  0  0  0  0  0  0  0  0  0  0
  139.1200   67.7330  225.6280 O   0  0  0  0  0  0  0  0  0  0  0  0
  138.7810   69.5010  224.1970 N   0  0  0  0  0  0  0  0  0  0  0  0
  138.0920   68.5870  223.3460 C   0  0  0  0  0  0  0  0  0  0  0  0
  138.9200   67.7690  222.4200 C   0  0  0  0  0  0  0  0  0  0  0  0
  138.1000   66.5630  221.9460 C   0  0  0  0  0  0  0  0  0  0  0  0
  137.0120   66.9640  221.0140 C   0  0  0  0  0  0  0  0  0  0  0  0
  137.2920   68.1400  220.1470 C   0  0  0  0  0  0  0  0  0  0  0  0
  138.7190   68.5390  220.0180 C   0  0  0  0  0  0  0  0  0  0  0  0
  139.5430   68.4800  221.2640 C   0  0  0  0  0  0  0  0  0  0  0  0
  139.5080   74.3200  222.0000 C   0  0  0  0  0  0  0  0  0  0  0  0
  141.4490   78.2730  222.5960 C   0  0  0  0  0  0  0  0  0  0  0  0
  141.0730   79.0610  223.8280 C   0  0  0  0  0  0  0  0  0  0  0  0
  141.7847   81.7511  223.4936 H   0  0  0  0  0  0  0  0  0  0  0  0
  141.9338   80.6076  222.1164 H   0  0  0  0  0  0  0  0  0  0  0  0
  140.6356   81.8491  222.1164 H   0  0  0  0  0  0  0  0  0  0  0  0
  138.4640   79.3782  223.3064 H   0  0  0  0  0  0  0  0  0  0  0  0
  138.7517   80.8108  222.2219 H   0  0  0  0  0  0  0  0  0  0  0  0
  138.5591   78.6118  221.0631 H   0  0  0  0  0  0  0  0  0  0  0  0
  140.0839   79.5512  220.7659 H   0  0  0  0  0  0  0  0  0  0  0  0
  139.6332   76.7412  223.5238 H   0  0  0  0  0  0  0  0  0  0  0  0
  138.5268   76.7797  222.1136 H   0  0  0  0  0  0  0  0  0  0  0  0
  142.0407   76.3820  221.2257 H   0  0  0  0  0  0  0  0  0  0  0  0
  142.9703   74.2456  220.3905 H   0  0  0  0  0  0  0  0  0  0  0  0
  141.6402   72.1434  220.6015 H   0  0  0  0  0  0  0  0  0  0  0  0
  139.0401   71.2344  220.8207 H   0  0  0  0  0  0  0  0  0  0  0  0
  137.5039   71.8983  222.8424 H   0  0  0  0  0  0  0  0  0  0  0  0
  140.9315   72.9436  226.6345 H   0  0  0  0  0  0  0  0  0  0  0  0
  141.8161   71.9470  228.7378 H   0  0  0  0  0  0  0  0  0  0  0  0
  141.5185   69.5668  229.2614 H   0  0  0  0  0  0  0  0  0  0  0  0
  140.2842   68.0637  227.6572 H   0  0  0  0  0  0  0  0  0  0  0  0
  137.5309   67.8934  223.9895 H   0  0  0  0  0  0  0  0  0  0  0  0
  137.4724   69.2183  222.6921 H   0  0  0  0  0  0  0  0  0  0  0  0
  139.7915   67.4592  223.0154 H   0  0  0  0  0  0  0  0  0  0  0  0
  138.7690   65.8588  221.4297 H   0  0  0  0  0  0  0  0  0  0  0  0
  137.6382   66.0965  222.8287 H   0  0  0  0  0  0  0  0  0  0  0  0
  136.7982   66.1068  220.3586 H   0  0  0  0  0  0  0  0  0  0  0  0
  136.1699   67.2639  221.6551 H   0  0  0  0  0  0  0  0  0  0  0  0
  136.9158   67.9104  219.1391 H   0  0  0  0  0  0  0  0  0  0  0  0
  136.7929   68.9899  220.6355 H   0  0  0  0  0  0  0  0  0  0  0  0
  139.1862   67.8743  219.2765 H   0  0  0  0  0  0  0  0  0  0  0  0
  138.6998   69.6009  219.7315 H   0  0  0  0  0  0  0  0  0  0  0  0
  140.4862   67.9686  221.0214 H   0  0  0  0  0  0  0  0  0  0  0  0
  139.6714   69.5234  221.5879 H   0  0  0  0  0  0  0  0  0  0  0  0
  138.5122   74.3495  222.4664 H   0  0  0  0  0  0  0  0  0  0  0  0
  142.0260   77.3847  222.8927 H   0  0  0  0  0  0  0  0  0  0  0  0
  142.0569   78.9053  221.9322 H   0  0  0  0  0  0  0  0  0  0  0  0
  140.4320   78.4484  224.4790 H   0  0  0  0  0  0  0  0  0  0  0  0
  141.9782   79.3437  224.3854 H   0  0  0  0  0  0  0  0  0  0  0  0
  1  2  1  0
  2  3  1  0
  3  4  1  0
  4  5  1  0
  5  6  1  0
  6  7  1  0
  7  8  2  0
  8  9  1  0
  9 10  2  0
 10 11  1  0
 11 12  1  0
 12 13  2  0
 13 14  1  0
 14 15  2  0
 15 16  1  0
 16 17  2  0
 17 18  1  0
 18 19  2  0
 19 20  1  0
 20 21  2  0
 21 22  1  0
 22 23  2  0
 22 24  1  0
 24 25  1  0
 25 26  1  0
 26 27  1  0
 27 28  1  0
 28 29  1  0
 29 30  1  0
 30 31  1  0
 11 32  2  0
  5 33  1  0
 33 34  1  0
 34  2  1  0
 32  7  1  0
 24 14  1  0
 31 26  1  0
 21 16  1  0
  1 35  1  0
  1 36  1  0
  1 37  1  0
  3 38  1  0
  3 39  1  0
  4 40  1  0
  4 41  1  0
  6 42  1  0
  6 43  1  0
  8 44  1  0
  9 45  1  0
 10 46  1  0
 12 47  1  0
 13 48  1  0
 17 49  1  0
 18 50  1  0
 19 51  1  0
 20 52  1  0
 25 53  1  0
 25 54  1  0
 26 55  1  0
 27 56  1  0
 27 57  1  0
 28 58  1  0
 28 59  1  0
 29 60  1  0
 29 61  1  0
 30 62  1  0
 30 63  1  0
 31 64  1  0
 31 65  1  0
 32 66  1  0
 33 67  1  0
 33 68  1  0
 34 69  1  0
 34 70  1  0
M  END
>  <smiles>  (36) 
CN1CCN(Cc2cccc(/C=C/c3nc4ccccc4c(=O)n3CC3CCCCC3)c2)CC1

>  <score_type>  (36) 
oracle

>  <origin>  (36) 
autodockgpu

>  <m_score__min__energy>  (36) 
-9.4000000000000004

>  <m_primary>  (36) 
energy

>  <rmsd>  (36) 
11.550496251483015

>  <m_score__min__rmsd>  (36) 
11.550496251483015

>  <meeko>  (36) 
{"free_energy": -8.7, "intermolecular_energy": -10.79, "internal_energy": -1.84, "cluster_size": 35, "cluster_id": 1, "rank_in_cluster": 24}

>  <energy>  (36) 
-9.11

>  <cluster_rmsd>  (36) 
0.0

>  <cluster>  (36) 
2

$$$$

     RDKit          3D

 70 74  0  0  0  0  0  0  0  0999 V2000
  145.9490   71.0040  219.2920 C   0  0  0  0  0  0  0  0  0  0  0  0
  145.7910   72.3420  218.8140 N   0  0  0  0  0  0  0  0  0  0  0  0
  144.4990   72.6090  218.2070 C   0  0  0  0  0  0  0  0  0  0  0  0
  143.3980   72.6820  219.2130 C   0  0  0  0  0  0  0  0  0  0  0  0
  143.7140   73.5570  220.2850 N   0  0  0  0  0  0  0  0  0  0  0  0
  143.4390   74.9400  220.0960 C   0  0  0  0  0  0  0  0  0  0  0  0
  142.1090   75.2530  220.6790 C   0  0  0  0  0  0  0  0  0  0  0  0
  141.6250   76.5250  220.8460 C   0  0  0  0  0  0  0  0  0  0  0  0
  140.3800   76.7380  221.3970 C   0  0  0  0  0  0  0  0  0  0  0  0
  139.5990   75.6430  221.7900 C   0  0  0  0  0  0  0  0  0  0  0  0
  140.0580   74.3580  221.6350 C   0  0  0  0  0  0  0  0  0  0  0  0
  139.2750   73.1710  222.0350 C   0  0  0  0  0  0  0  0  0  0  0  0
  139.7870   72.0440  222.4050 C   0  0  0  0  0  0  0  0  0  0  0  0
  139.6660   71.2700  223.5980 C   0  0  0  0  0  0  0  0  0  0  0  0
  140.3390   71.7710  224.6900 N   0  0  0  0  0  0  0  0  0  0  0  0
  140.3880   71.2350  225.8800 C   0  0  0  0  0  0  0  0  0  0  0  0
  141.1060   71.8560  226.8770 C   0  0  0  0  0  0  0  0  0  0  0  0
  141.1110   71.2310  228.1110 C   0  0  0  0  0  0  0  0  0  0  0  0
  140.4410   70.0500  228.3490 C   0  0  0  0  0  0  0  0  0  0  0  0
  139.7170   69.4340  227.3270 C   0  0  0  0  0  0  0  0  0  0  0  0
  139.7170   70.0600  226.1090 C   0  0  0  0  0  0  0  0  0  0  0  0
  139.0320   69.5250  225.0450 C   0  0  0  0  0  0  0  0  0  0  0  0
  138.4190   68.4460  225.2530 O   0  0  0  0  0  0  0  0  0  0  0  0
  139.0120   70.1340  223.8070 N   0  0  0  0  0  0  0  0  0  0  0  0
  138.2480   69.4530  222.8130 C   0  0  0  0  0  0  0  0  0  0  0  0
  136.9940   70.1080  222.3570 C   0  0  0  0  0  0  0  0  0  0  0  0
  135.8310   69.1170  222.4930 C   0  0  0  0  0  0  0  0  0  0  0  0
  135.4770   68.8730  223.9170 C   0  0  0  0  0  0  0  0  0  0  0  0
  135.6770   70.0150  224.8490 C   0  0  0  0  0  0  0  0  0  0  0  0
  135.8280   71.3560  224.2240 C   0  0  0  0  0  0  0  0  0  0  0  0
  136.6520   71.4220  222.9780 C   0  0  0  0  0  0  0  0  0  0  0  0
  141.3110   74.2040  221.0770 C   0  0  0  0  0  0  0  0  0  0  0  0
  144.9470   73.2170  220.8900 C   0  0  0  0  0  0  0  0  0  0  0  0
  146.0580   73.3040  219.8720 C   0  0  0  0  0  0  0  0  0  0  0  0
  145.9489   71.0052  220.3920 H   0  0  0  0  0  0  0  0  0  0  0  0
  145.1179   70.3833  218.9259 H   0  0  0  0  0  0  0  0  0  0  0  0
  146.9018   70.5940  218.9259 H   0  0  0  0  0  0  0  0  0  0  0  0
  144.5522   73.5688  217.6722 H   0  0  0  0  0  0  0  0  0  0  0  0
  144.2726   71.7770  217.5240 H   0  0  0  0  0  0  0  0  0  0  0  0
  142.4862   73.0445  218.7158 H   0  0  0  0  0  0  0  0  0  0  0  0
  143.2508   71.6744  219.6291 H   0  0  0  0  0  0  0  0  0  0  0  0
  144.2119   75.5415  220.5968 H   0  0  0  0  0  0  0  0  0  0  0  0
  143.4383   75.1752  219.0214 H   0  0  0  0  0  0  0  0  0  0  0  0
  142.2373   77.3849  220.5367 H   0  0  0  0  0  0  0  0  0  0  0  0
  140.0012   77.7624  221.5277 H   0  0  0  0  0  0  0  0  0  0  0  0
  138.6050   75.8150  222.2285 H   0  0  0  0  0  0  0  0  0  0  0  0
  138.1782   73.2524  222.0165 H   0  0  0  0  0  0  0  0  0  0  0  0
  140.4473   71.5911  221.6508 H   0  0  0  0  0  0  0  0  0  0  0  0
  141.6464   72.7980  226.7019 H   0  0  0  0  0  0  0  0  0  0  0  0
  141.6721   71.6950  228.9355 H   0  0  0  0  0  0  0  0  0  0  0  0
  140.4771   69.5913  229.3482 H   0  0  0  0  0  0  0  0  0  0  0  0
  139.1732   68.4921  227.4918 H   0  0  0  0  0  0  0  0  0  0  0  0
  138.8929   69.3217  221.9316 H   0  0  0  0  0  0  0  0  0  0  0  0
  137.9227   68.5189  223.2942 H   0  0  0  0  0  0  0  0  0  0  0  0
  137.1799   70.3755  221.3063 H   0  0  0  0  0  0  0  0  0  0  0  0
  134.9522   69.5257  221.9726 H   0  0  0  0  0  0  0  0  0  0  0  0
  136.1434   68.1601  222.0495 H   0  0  0  0  0  0  0  0  0  0  0  0
  134.4144   68.5911  223.9550 H   0  0  0  0  0  0  0  0  0  0  0  0
  136.1667   68.0882  224.2612 H   0  0  0  0  0  0  0  0  0  0  0  0
  134.8078   70.0547  225.5220 H   0  0  0  0  0  0  0  0  0  0  0  0
  136.6337   69.8173  225.3546 H   0  0  0  0  0  0  0  0  0  0  0  0
  134.8214   71.7259  223.9791 H   0  0  0  0  0  0  0  0  0  0  0  0
  136.3700   71.9630  224.9641 H   0  0  0  0  0  0  0  0  0  0  0  0
  136.0948   72.0119  222.2353 H   0  0  0  0  0  0  0  0  0  0  0  0
  137.6108   71.8710  223.2763 H   0  0  0  0  0  0  0  0  0  0  0  0
  141.6950   73.1821  220.9422 H   0  0  0  0  0  0  0  0  0  0  0  0
  145.1530   73.9141  221.7156 H   0  0  0  0  0  0  0  0  0  0  0  0
  144.8898   72.1892  221.2778 H   0  0  0  0  0  0  0  0  0  0  0  0
  146.0957   74.3190  219.4497 H   0  0  0  0  0  0  0  0  0  0  0  0
  147.0241   73.0816  220.3486 H   0  0  0  0  0  0  0  0  0  0  0  0
  1  2  1  0
  2  3  1  0
  3  4  1  0
  4  5  1  0
  5  6  1  0
  6  7  1  0
  7  8  2  0
  8  9  1  0
  9 10  2  0
 10 11  1  0
 11 12  1  0
 12 13  2  0
 13 14  1  0
 14 15  2  0
 15 16  1  0
 16 17  2  0
 17 18  1  0
 18 19  2  0
 19 20  1  0
 20 21  2  0
 21 22  1  0
 22 23  2  0
 22 24  1  0
 24 25  1  0
 25 26  1  0
 26 27  1  0
 27 28  1  0
 28 29  1  0
 29 30  1  0
 30 31  1  0
 11 32  2  0
  5 33  1  0
 33 34  1  0
 34  2  1  0
 32  7  1  0
 24 14  1  0
 31 26  1  0
 21 16  1  0
  1 35  1  0
  1 36  1  0
  1 37  1  0
  3 38  1  0
  3 39  1  0
  4 40  1  0
  4 41  1  0
  6 42  1  0
  6 43  1  0
  8 44  1  0
  9 45  1  0
 10 46  1  0
 12 47  1  0
 13 48  1  0
 17 49  1  0
 18 50  1  0
 19 51  1  0
 20 52  1  0
 25 53  1  0
 25 54  1  0
 26 55  1  0
 27 56  1  0
 27 57  1  0
 28 58  1  0
 28 59  1  0
 29 60  1  0
 29 61  1  0
 30 62  1  0
 30 63  1  0
 31 64  1  0
 31 65  1  0
 32 66  1  0
 33 67  1  0
 33 68  1  0
 34 69  1  0
 34 70  1  0
M  END
>  <smiles>  (37) 
CN1CCN(Cc2cccc(/C=C/c3nc4ccccc4c(=O)n3CC3CCCCC3)c2)CC1

>  <score_type>  (37) 
oracle

>  <origin>  (37) 
autodockgpu

>  <m_score__min__energy>  (37) 
-9.4000000000000004

>  <m_primary>  (37) 
energy

>  <rmsd>  (37) 
11.354762493104724

>  <m_score__min__rmsd>  (37) 
11.354762493104724

>  <meeko>  (37) 
{"free_energy": -8.95, "intermolecular_energy": -11.03, "internal_energy": -2.02, "cluster_size": 9, "cluster_id": 2, "rank_in_cluster": 5}

>  <energy>  (37) 
-9.09

>  <cluster_rmsd>  (37) 
0.07

>  <cluster>  (37) 
2

$$$$

     RDKit          3D

 70 74  0  0  0  0  0  0  0  0999 V2000
  142.2250   81.4950  224.0160 C   0  0  0  0  0  0  0  0  0  0  0  0
  141.0140   80.9900  223.4480 N   0  0  0  0  0  0  0  0  0  0  0  0
  140.9370   81.1130  222.0040 C   0  0  0  0  0  0  0  0  0  0  0  0
  141.8380   80.1540  221.2990 C   0  0  0  0  0  0  0  0  0  0  0  0
  141.6710   78.8250  221.7670 N   0  0  0  0  0  0  0  0  0  0  0  0
  140.6290   78.0550  221.1770 C   0  0  0  0  0  0  0  0  0  0  0  0
  141.1100   76.6640  220.9740 C   0  0  0  0  0  0  0  0  0  0  0  0
  142.2070   76.3340  220.2210 C   0  0  0  0  0  0  0  0  0  0  0  0
  142.5930   75.0190  220.0760 C   0  0  0  0  0  0  0  0  0  0  0  0
  141.8570   74.0080  220.7070 C   0  0  0  0  0  0  0  0  0  0  0  0
  140.7540   74.3090  221.4680 C   0  0  0  0  0  0  0  0  0  0  0  0
  139.9440   73.2800  222.1520 C   0  0  0  0  0  0  0  0  0  0  0  0
  140.3680   72.1000  222.4650 C   0  0  0  0  0  0  0  0  0  0  0  0
  140.1410   71.2560  223.5940 C   0  0  0  0  0  0  0  0  0  0  0  0
  140.6740   71.7110  224.7800 N   0  0  0  0  0  0  0  0  0  0  0  0
  140.6090   71.1100  225.9370 C   0  0  0  0  0  0  0  0  0  0  0  0
  141.1930   71.6910  227.0400 C   0  0  0  0  0  0  0  0  0  0  0  0
  141.0830   70.9980  228.2310 C   0  0  0  0  0  0  0  0  0  0  0  0
  140.4280   69.7890  228.3290 C   0  0  0  0  0  0  0  0  0  0  0  0
  139.8400   69.2140  227.2020 C   0  0  0  0  0  0  0  0  0  0  0  0
  139.9540   69.9070  226.0270 C   0  0  0  0  0  0  0  0  0  0  0  0
  139.4070   69.4170  224.8650 C   0  0  0  0  0  0  0  0  0  0  0  0
  138.8090   68.3130  224.9460 O   0  0  0  0  0  0  0  0  0  0  0  0
  139.5040   70.0940  223.6670 N   0  0  0  0  0  0  0  0  0  0  0  0
  138.8760   69.4520  222.5600 C   0  0  0  0  0  0  0  0  0  0  0  0
  137.6290   70.0710  222.0360 C   0  0  0  0  0  0  0  0  0  0  0  0
  136.4670   69.0850  222.2110 C   0  0  0  0  0  0  0  0  0  0  0  0
  136.0840   68.9300  223.6400 C   0  0  0  0  0  0  0  0  0  0  0  0
  136.2600   70.1300  224.5010 C   0  0  0  0  0  0  0  0  0  0  0  0
  136.4190   71.4290  223.7950 C   0  0  0  0  0  0  0  0  0  0  0  0
  137.2700   71.4200  222.5660 C   0  0  0  0  0  0  0  0  0  0  0  0
  140.4140   75.6420  221.5790 C   0  0  0  0  0  0  0  0  0  0  0  0
  141.8240   78.7420  223.1710 C   0  0  0  0  0  0  0  0  0  0  0  0
  140.7920   79.6100  223.8500 C   0  0  0  0  0  0  0  0  0  0  0  0
  142.1553   81.4659  225.1134 H   0  0  0  0  0  0  0  0  0  0  0  0
  143.0714   80.8749  223.6858 H   0  0  0  0  0  0  0  0  0  0  0  0
  142.3800   82.5328  223.6858 H   0  0  0  0  0  0  0  0  0  0  0  0
  139.9010   80.9205  221.6885 H   0  0  0  0  0  0  0  0  0  0  0  0
  141.2588   82.1307  221.7379 H   0  0  0  0  0  0  0  0  0  0  0  0
  141.6138   80.1821  220.2224 H   0  0  0  0  0  0  0  0  0  0  0  0
  142.8770   80.4558  221.4973 H   0  0  0  0  0  0  0  0  0  0  0  0
  139.7531   78.0488  221.8424 H   0  0  0  0  0  0  0  0  0  0  0  0
  140.3447   78.4945  220.2095 H   0  0  0  0  0  0  0  0  0  0  0  0
  142.7859   77.1281  219.7267 H   0  0  0  0  0  0  0  0  0  0  0  0
  143.4740   74.7648  219.4683 H   0  0  0  0  0  0  0  0  0  0  0  0
  142.1666   72.9588  220.5915 H   0  0  0  0  0  0  0  0  0  0  0  0
  138.9067   73.5364  222.4133 H   0  0  0  0  0  0  0  0  0  0  0  0
  141.0368   71.6580  221.7118 H   0  0  0  0  0  0  0  0  0  0  0  0
  141.7190   72.6550  226.9769 H   0  0  0  0  0  0  0  0  0  0  0  0
  141.5360   71.4283  229.1363 H   0  0  0  0  0  0  0  0  0  0  0  0
  140.3687   69.2754  229.2999 H   0  0  0  0  0  0  0  0  0  0  0  0
  139.3108   68.2511  227.2550 H   0  0  0  0  0  0  0  0  0  0  0  0
  139.6041   69.4249  221.7359 H   0  0  0  0  0  0  0  0  0  0  0  0
  138.5669   68.4671  222.9400 H   0  0  0  0  0  0  0  0  0  0  0  0
  137.8353   70.2719  220.9744 H   0  0  0  0  0  0  0  0  0  0  0  0
  135.5979   69.4555  221.6477 H   0  0  0  0  0  0  0  0  0  0  0  0
  136.7923   68.1034  221.8360 H   0  0  0  0  0  0  0  0  0  0  0  0
  135.0220   68.6455  223.6738 H   0  0  0  0  0  0  0  0  0  0  0  0
  136.7691   68.1721  224.0478 H   0  0  0  0  0  0  0  0  0  0  0  0
  135.3767   70.2081  225.1519 H   0  0  0  0  0  0  0  0  0  0  0  0
  137.2066   69.9698  225.0379 H   0  0  0  0  0  0  0  0  0  0  0  0
  135.4165   71.7767  223.5049 H   0  0  0  0  0  0  0  0  0  0  0  0
  136.9418   72.0851  224.5065 H   0  0  0  0  0  0  0  0  0  0  0  0
  136.7279   71.9601  221.7758 H   0  0  0  0  0  0  0  0  0  0  0  0
  138.2209   71.8903  222.8567 H   0  0  0  0  0  0  0  0  0  0  0  0
  139.5351   75.9031  222.1867 H   0  0  0  0  0  0  0  0  0  0  0  0
  141.6914   77.6982  223.4917 H   0  0  0  0  0  0  0  0  0  0  0  0
  142.8302   79.0898  223.4479 H   0  0  0  0  0  0  0  0  0  0  0  0
  139.7831   79.2929  223.5473 H   0  0  0  0  0  0  0  0  0  0  0  0
  140.8804   79.5165  224.9425 H   0  0  0  0  0  0  0  0  0  0  0  0
  1  2  1  0
  2  3  1  0
  3  4  1  0
  4  5  1  0
  5  6  1  0
  6  7  1  0
  7  8  2  0
  8  9  1  0
  9 10  2  0
 10 11  1  0
 11 12  1  0
 12 13  2  0
 13 14  1  0
 14 15  2  0
 15 16  1  0
 16 17  2  0
 17 18  1  0
 18 19  2  0
 19 20  1  0
 20 21  2  0
 21 22  1  0
 22 23  2  0
 22 24  1  0
 24 25  1  0
 25 26  1  0
 26 27  1  0
 27 28  1  0
 28 29  1  0
 29 30  1  0
 30 31  1  0
 11 32  2  0
  5 33  1  0
 33 34  1  0
 34  2  1  0
 32  7  1  0
 24 14  1  0
 31 26  1  0
 21 16  1  0
  1 35  1  0
  1 36  1  0
  1 37  1  0
  3 38  1  0
  3 39  1  0
  4 40  1  0
  4 41  1  0
  6 42  1  0
  6 43  1  0
  8 44  1  0
  9 45  1  0
 10 46  1  0
 12 47  1  0
 13 48  1  0
 17 49  1  0
 18 50  1  0
 19 51  1  0
 20 52  1  0
 25 53  1  0
 25 54  1  0
 26 55  1  0
 27 56  1  0
 27 57  1  0
 28 58  1  0
 28 59  1  0
 29 60  1  0
 29 61  1  0
 30 62  1  0
 30 63  1  0
 31 64  1  0
 31 65  1  0
 32 66  1  0
 33 67  1  0
 33 68  1  0
 34 69  1  0
 34 70  1  0
M  END
>  <smiles>  (38) 
CN1CCN(Cc2cccc(/C=C/c3nc4ccccc4c(=O)n3CC3CCCCC3)c2)CC1

>  <score_type>  (38) 
oracle

>  <origin>  (38) 
autodockgpu

>  <m_score__min__energy>  (38) 
-9.4000000000000004

>  <m_primary>  (38) 
energy

>  <rmsd>  (38) 
11.266447131254951

>  <m_score__min__rmsd>  (38) 
11.266447131254951

>  <meeko>  (38) 
{"free_energy": -9.27, "intermolecular_energy": -11.36, "internal_energy": -1.89, "cluster_size": 35, "cluster_id": 1, "rank_in_cluster": 5}

>  <energy>  (38) 
-9.04

>  <cluster_rmsd>  (38) 
0.26

>  <cluster>  (38) 
2

$$$$

     RDKit          3D

 70 74  0  0  0  0  0  0  0  0999 V2000
  141.8630   81.3180  223.8950 C   0  0  0  0  0  0  0  0  0  0  0  0
  142.4940   80.1260  223.4210 N   0  0  0  0  0  0  0  0  0  0  0  0
  141.8760   78.8980  223.8890 C   0  0  0  0  0  0  0  0  0  0  0  0
  140.5600   78.6360  223.2360 C   0  0  0  0  0  0  0  0  0  0  0  0
  140.6390   78.7300  221.8220 N   0  0  0  0  0  0  0  0  0  0  0  0
  141.0580   77.5670  221.1160 C   0  0  0  0  0  0  0  0  0  0  0  0
  140.0790   76.4750  221.3570 C   0  0  0  0  0  0  0  0  0  0  0  0
  138.7200   76.6280  221.2590 C   0  0  0  0  0  0  0  0  0  0  0  0
  137.8730   75.5690  221.5000 C   0  0  0  0  0  0  0  0  0  0  0  0
  138.4060   74.3210  221.8490 C   0  0  0  0  0  0  0  0  0  0  0  0
  139.7630   74.1390  221.9550 C   0  0  0  0  0  0  0  0  0  0  0  0
  140.3730   72.8440  222.3200 C   0  0  0  0  0  0  0  0  0  0  0  0
  139.7090   71.7800  222.6310 C   0  0  0  0  0  0  0  0  0  0  0  0
  139.7670   70.8920  223.7460 C   0  0  0  0  0  0  0  0  0  0  0  0
  140.3040   71.4310  224.8950 N   0  0  0  0  0  0  0  0  0  0  0  0
  140.4720   70.8130  226.0330 C   0  0  0  0  0  0  0  0  0  0  0  0
  141.0250   71.4880  227.0980 C   0  0  0  0  0  0  0  0  0  0  0  0
  141.1720   70.7700  228.2710 C   0  0  0  0  0  0  0  0  0  0  0  0
  140.7920   69.4500  228.3870 C   0  0  0  0  0  0  0  0  0  0  0  0
  140.2320   68.7810  227.2970 C   0  0  0  0  0  0  0  0  0  0  0  0
  140.0900   69.4990  226.1400 C   0  0  0  0  0  0  0  0  0  0  0  0
  139.5500   68.9220  225.0160 C   0  0  0  0  0  0  0  0  0  0  0  0
  139.2020   67.7170  225.1130 O   0  0  0  0  0  0  0  0  0  0  0  0
  139.3930   69.6220  223.8380 N   0  0  0  0  0  0  0  0  0  0  0  0
  138.8100   68.8780  222.7690 C   0  0  0  0  0  0  0  0  0  0  0  0
  137.3670   68.5370  222.8910 C   0  0  0  0  0  0  0  0  0  0  0  0
  136.7250   69.4410  223.9510 C   0  0  0  0  0  0  0  0  0  0  0  0
  136.6080   70.8480  223.4800 C   0  0  0  0  0  0  0  0  0  0  0  0
  136.3900   71.0360  222.0210 C   0  0  0  0  0  0  0  0  0  0  0  0
  135.9320   69.8400  221.2640 C   0  0  0  0  0  0  0  0  0  0  0  0
  136.5640   68.5360  221.6320 C   0  0  0  0  0  0  0  0  0  0  0  0
  140.5630   75.2340  221.7020 C   0  0  0  0  0  0  0  0  0  0  0  0
  141.1830   79.9700  221.4100 C   0  0  0  0  0  0  0  0  0  0  0  0
  142.5760   80.1270  221.9690 C   0  0  0  0  0  0  0  0  0  0  0  0
  141.8620   81.3198  224.9950 H   0  0  0  0  0  0  0  0  0  0  0  0
  142.4145   82.1959  223.5274 H   0  0  0  0  0  0  0  0  0  0  0  0
  140.8269   81.3555  223.5274 H   0  0  0  0  0  0  0  0  0  0  0  0
  142.5516   78.0577  223.6710 H   0  0  0  0  0  0  0  0  0  0  0  0
  141.6980   79.0039  224.9693 H   0  0  0  0  0  0  0  0  0  0  0  0
  140.2249   77.6237  223.5063 H   0  0  0  0  0  0  0  0  0  0  0  0
  139.8490   79.3982  223.5876 H   0  0  0  0  0  0  0  0  0  0  0  0
  141.1073   77.7870  220.0394 H   0  0  0  0  0  0  0  0  0  0  0  0
  142.0534   77.2577  221.4674 H   0  0  0  0  0  0  0  0  0  0  0  0
  138.3014   77.6076  220.9848 H   0  0  0  0  0  0  0  0  0  0  0  0
  136.7841   75.7022  221.4189 H   0  0  0  0  0  0  0  0  0  0  0  0
  137.7285   73.4759  222.0406 H   0  0  0  0  0  0  0  0  0  0  0  0
  141.4712   72.7810  222.3276 H   0  0  0  0  0  0  0  0  0  0  0  0
  138.9468   71.5038  221.8875 H   0  0  0  0  0  0  0  0  0  0  0  0
  141.3331   72.5411  227.0202 H   0  0  0  0  0  0  0  0  0  0  0  0
  141.6096   71.2724  229.1463 H   0  0  0  0  0  0  0  0  0  0  0  0
  140.9305   68.9218  229.3419 H   0  0  0  0  0  0  0  0  0  0  0  0
  139.9201   67.7283  227.3645 H   0  0  0  0  0  0  0  0  0  0  0  0
  138.9350   69.4667  221.8483 H   0  0  0  0  0  0  0  0  0  0  0  0
  139.3335   67.9106  222.7759 H   0  0  0  0  0  0  0  0  0  0  0  0
  137.3494   67.4796  223.1937 H   0  0  0  0  0  0  0  0  0  0  0  0
  135.7202   69.0587  224.1837 H   0  0  0  0  0  0  0  0  0  0  0  0
  137.3681   69.4315  224.8434 H   0  0  0  0  0  0  0  0  0  0  0  0
  135.7605   71.3093  224.0081 H   0  0  0  0  0  0  0  0  0  0  0  0
  137.5820   71.3121  223.6943 H   0  0  0  0  0  0  0  0  0  0  0  0
  135.6325   71.8235  221.8939 H   0  0  0  0  0  0  0  0  0  0  0  0
  137.3779   71.2853  221.6063 H   0  0  0  0  0  0  0  0  0  0  0  0
  134.8475   69.7414  221.4190 H   0  0  0  0  0  0  0  0  0  0  0  0
  136.2293   70.0238  220.2210 H   0  0  0  0  0  0  0  0  0  0  0  0
  135.7620   67.7915  221.7435 H   0  0  0  0  0  0  0  0  0  0  0  0
  137.2748   68.3091  220.8237 H   0  0  0  0  0  0  0  0  0  0  0  0
  141.6529   75.1075  221.7808 H   0  0  0  0  0  0  0  0  0  0  0  0
  141.2242   80.0039  220.3113 H   0  0  0  0  0  0  0  0  0  0  0  0
  140.5477   80.7873  221.7820 H   0  0  0  0  0  0  0  0  0  0  0  0
  143.2071   79.2912  221.6325 H   0  0  0  0  0  0  0  0  0  0  0  0
  143.0188   81.0706  221.6174 H   0  0  0  0  0  0  0  0  0  0  0  0
  1  2  1  0
  2  3  1  0
  3  4  1  0
  4  5  1  0
  5  6  1  0
  6  7  1  0
  7  8  2  0
  8  9  1  0
  9 10  2  0
 10 11  1  0
 11 12  1  0
 12 13  2  0
 13 14  1  0
 14 15  2  0
 15 16  1  0
 16 17  2  0
 17 18  1  0
 18 19  2  0
 19 20  1  0
 20 21  2  0
 21 22  1  0
 22 23  2  0
 22 24  1  0
 24 25  1  0
 25 26  1  0
 26 27  1  0
 27 28  1  0
 28 29  1  0
 29 30  1  0
 30 31  1  0
 11 32  2  0
  5 33  1  0
 33 34  1  0
 34  2  1  0
 32  7  1  0
 24 14  1  0
 31 26  1  0
 21 16  1  0
  1 35  1  0
  1 36  1  0
  1 37  1  0
  3 38  1  0
  3 39  1  0
  4 40  1  0
  4 41  1  0
  6 42  1  0
  6 43  1  0
  8 44  1  0
  9 45  1  0
 10 46  1  0
 12 47  1  0
 13 48  1  0
 17 49  1  0
 18 50  1  0
 19 51  1  0
 20 52  1  0
 25 53  1  0
 25 54  1  0
 26 55  1  0
 27 56  1  0
 27 57  1  0
 28 58  1  0
 28 59  1  0
 29 60  1  0
 29 61  1  0
 30 62  1  0
 30 63  1  0
 31 64  1  0
 31 65  1  0
 32 66  1  0
 33 67  1  0
 33 68  1  0
 34 69  1  0
 34 70  1  0
M  END
>  <smiles>  (39) 
CN1CCN(Cc2cccc(/C=C/c3nc4ccccc4c(=O)n3CC3CCCCC3)c2)CC1

>  <score_type>  (39) 
oracle

>  <origin>  (39) 
autodockgpu

>  <m_score__min__energy>  (39) 
-9.4000000000000004

>  <m_primary>  (39) 
energy

>  <rmsd>  (39) 
11.34337994272285

>  <m_score__min__rmsd>  (39) 
11.34337994272285

>  <meeko>  (39) 
{"free_energy": -9.08, "intermolecular_energy": -11.17, "internal_energy": -1.91, "cluster_size": 35, "cluster_id": 1, "rank_in_cluster": 8}

>  <energy>  (39) 
-8.98

>  <cluster_rmsd>  (39) 
0.55

>  <cluster>  (39) 
2

$$$$

     RDKit          3D

 70 74  0  0  0  0  0  0  0  0999 V2000
  142.1510   81.2220  223.3620 C   0  0  0  0  0  0  0  0  0  0  0  0
  141.3420   80.1820  223.9180 N   0  0  0  0  0  0  0  0  0  0  0  0
  139.9390   80.2590  223.5540 C   0  0  0  0  0  0  0  0  0  0  0  0
  139.6960   79.8870  222.1290 C   0  0  0  0  0  0  0  0  0  0  0  0
  140.3040   78.6490  221.7920 N   0  0  0  0  0  0  0  0  0  0  0  0
  139.5670   77.4650  222.0760 C   0  0  0  0  0  0  0  0  0  0  0  0
  140.1310   76.3420  221.2820 C   0  0  0  0  0  0  0  0  0  0  0  0
  140.4420   76.4260  219.9490 C   0  0  0  0  0  0  0  0  0  0  0  0
  140.9600   75.3410  219.2780 C   0  0  0  0  0  0  0  0  0  0  0  0
  141.1710   74.1380  219.9640 C   0  0  0  0  0  0  0  0  0  0  0  0
  140.8690   74.0250  221.2990 C   0  0  0  0  0  0  0  0  0  0  0  0
  141.0710   72.7790  222.0660 C   0  0  0  0  0  0  0  0  0  0  0  0
  140.1230   71.9910  222.4520 C   0  0  0  0  0  0  0  0  0  0  0  0
  139.9650   71.1490  223.5930 C   0  0  0  0  0  0  0  0  0  0  0  0
  140.5050   71.6420  224.7610 N   0  0  0  0  0  0  0  0  0  0  0  0
  140.4980   71.0500  225.9250 C   0  0  0  0  0  0  0  0  0  0  0  0
  141.0810   71.6710  227.0070 C   0  0  0  0  0  0  0  0  0  0  0  0
  141.0350   70.9860  228.2070 C   0  0  0  0  0  0  0  0  0  0  0  0
  140.4420   69.7480  228.3340 C   0  0  0  0  0  0  0  0  0  0  0  0
  139.8550   69.1330  227.2270 C   0  0  0  0  0  0  0  0  0  0  0  0
  139.9050   69.8180  226.0430 C   0  0  0  0  0  0  0  0  0  0  0  0
  139.3540   69.2900  224.9010 C   0  0  0  0  0  0  0  0  0  0  0  0
  138.8130   68.1590  225.0060 O   0  0  0  0  0  0  0  0  0  0  0  0
  139.3880   69.9590  223.6940 N   0  0  0  0  0  0  0  0  0  0  0  0
  138.7640   69.2750  222.6090 C   0  0  0  0  0  0  0  0  0  0  0  0
  137.4920   69.8450  222.0910 C   0  0  0  0  0  0  0  0  0  0  0  0
  136.3400   68.8910  222.4270 C   0  0  0  0  0  0  0  0  0  0  0  0
  136.0330   68.8850  223.8830 C   0  0  0  0  0  0  0  0  0  0  0  0
  136.2560   70.1660  224.6060 C   0  0  0  0  0  0  0  0  0  0  0  0
  136.3790   71.3850  223.7620 C   0  0  0  0  0  0  0  0  0  0  0  0
  137.1640   71.2440  222.4970 C   0  0  0  0  0  0  0  0  0  0  0  0
  140.3530   75.1440  221.9210 C   0  0  0  0  0  0  0  0  0  0  0  0
  141.6850   78.6450  222.1000 C   0  0  0  0  0  0  0  0  0  0  0  0
  141.8800   78.8740  223.5790 C   0  0  0  0  0  0  0  0  0  0  0  0
  142.6060   81.8069  224.1750 H   0  0  0  0  0  0  0  0  0  0  0  0
  142.9436   80.7781  222.7417 H   0  0  0  0  0  0  0  0  0  0  0  0
  141.5257   81.8810  222.7417 H   0  0  0  0  0  0  0  0  0  0  0  0
  139.3692   79.5742  224.1993 H   0  0  0  0  0  0  0  0  0  0  0  0
  139.6166   81.3023  223.6863 H   0  0  0  0  0  0  0  0  0  0  0  0
  138.6116   79.8071  221.9626 H   0  0  0  0  0  0  0  0  0  0  0  0
  140.1393   80.6677  221.4934 H   0  0  0  0  0  0  0  0  0  0  0  0
  139.6417   77.2324  223.1485 H   0  0  0  0  0  0  0  0  0  0  0  0
  138.5096   77.6129  221.8116 H   0  0  0  0  0  0  0  0  0  0  0  0
  140.2758   77.3704  219.4100 H   0  0  0  0  0  0  0  0  0  0  0  0
  141.2069   75.4184  218.2089 H   0  0  0  0  0  0  0  0  0  0  0  0
  141.5842   73.2720  219.4261 H   0  0  0  0  0  0  0  0  0  0  0  0
  142.1030   72.5021  222.3273 H   0  0  0  0  0  0  0  0  0  0  0  0
  139.2659   71.9636  221.7631 H   0  0  0  0  0  0  0  0  0  0  0  0
  141.5575   72.6587  226.9212 H   0  0  0  0  0  0  0  0  0  0  0  0
  141.4898   71.4473  229.0960 H   0  0  0  0  0  0  0  0  0  0  0  0
  140.4314   69.2430  229.3112 H   0  0  0  0  0  0  0  0  0  0  0  0
  139.3755   68.1459  227.3024 H   0  0  0  0  0  0  0  0  0  0  0  0
  139.4810   69.2526  221.7751 H   0  0  0  0  0  0  0  0  0  0  0  0
  138.4904   68.2893  223.0135 H   0  0  0  0  0  0  0  0  0  0  0  0
  137.6417   69.9339  221.0049 H   0  0  0  0  0  0  0  0  0  0  0  0
  135.4427   69.2083  221.8754 H   0  0  0  0  0  0  0  0  0  0  0  0
  136.6434   67.8740  222.1378 H   0  0  0  0  0  0  0  0  0  0  0  0
  134.9739   68.6125  224.0017 H   0  0  0  0  0  0  0  0  0  0  0  0
  136.7376   68.1680  224.3297 H   0  0  0  0  0  0  0  0  0  0  0  0
  135.4086   70.3164  225.2910 H   0  0  0  0  0  0  0  0  0  0  0  0
  137.2294   70.0555  225.1063 H   0  0  0  0  0  0  0  0  0  0  0  0
  135.3630   71.7076  223.4907 H   0  0  0  0  0  0  0  0  0  0  0  0
  136.9395   72.1073  224.3736 H   0  0  0  0  0  0  0  0  0  0  0  0
  136.5818   71.7039  221.6849 H   0  0  0  0  0  0  0  0  0  0  0  0
  138.1297   71.7353  222.6871 H   0  0  0  0  0  0  0  0  0  0  0  0
  140.1047   75.0738  222.9903 H   0  0  0  0  0  0  0  0  0  0  0  0
  142.1186   77.6734  221.8207 H   0  0  0  0  0  0  0  0  0  0  0  0
  142.1843   79.4489  221.5392 H   0  0  0  0  0  0  0  0  0  0  0  0
  141.3501   78.0959  224.1480 H   0  0  0  0  0  0  0  0  0  0  0  0
  142.9502   78.8301  223.8294 H   0  0  0  0  0  0  0  0  0  0  0  0
  1  2  1  0
  2  3  1  0
  3  4  1  0
  4  5  1  0
  5  6  1  0
  6  7  1  0
  7  8  2  0
  8  9  1  0
  9 10  2  0
 10 11  1  0
 11 12  1  0
 12 13  2  0
 13 14  1  0
 14 15  2  0
 15 16  1  0
 16 17  2  0
 17 18  1  0
 18 19  2  0
 19 20  1  0
 20 21  2  0
 21 22  1  0
 22 23  2  0
 22 24  1  0
 24 25  1  0
 25 26  1  0
 26 27  1  0
 27 28  1  0
 28 29  1  0
 29 30  1  0
 30 31  1  0
 11 32  2  0
  5 33  1  0
 33 34  1  0
 34  2  1  0
 32  7  1  0
 24 14  1  0
 31 26  1  0
 21 16  1  0
  1 35  1  0
  1 36  1  0
  1 37  1  0
  3 38  1  0
  3 39  1  0
  4 40  1  0
  4 41  1  0
  6 42  1  0
  6 43  1  0
  8 44  1  0
  9 45  1  0
 10 46  1  0
 12 47  1  0
 13 48  1  0
 17 49  1  0
 18 50  1  0
 19 51  1  0
 20 52  1  0
 25 53  1  0
 25 54  1  0
 26 55  1  0
 27 56  1  0
 27 57  1  0
 28 58  1  0
 28 59  1  0
 29 60  1  0
 29 61  1  0
 30 62  1  0
 30 63  1  0
 31 64  1  0
 31 65  1  0
 32 66  1  0
 33 67  1  0
 33 68  1  0
 34 69  1  0
 34 70  1  0
M  END
>  <smiles>  (40) 
CN1CCN(Cc2cccc(/C=C/c3nc4ccccc4c(=O)n3CC3CCCCC3)c2)CC1

>  <score_type>  (40) 
oracle

>  <origin>  (40) 
autodockgpu

>  <m_score__min__energy>  (40) 
-9.4000000000000004

>  <m_primary>  (40) 
energy

>  <rmsd>  (40) 
11.385603700637771

>  <m_score__min__rmsd>  (40) 
11.385603700637771

>  <meeko>  (40) 
{"free_energy": -8.69, "intermolecular_energy": -10.77, "internal_energy": -1.88, "cluster_size": 35, "cluster_id": 1, "rank_in_cluster": 25}

>  <energy>  (40) 
-8.95

>  <cluster_rmsd>  (40) 
0.77

>  <cluster>  (40) 
2

$$$$

     RDKit          3D

 70 74  0  0  0  0  0  0  0  0999 V2000
  141.4680   81.2740  223.1170 C   0  0  0  0  0  0  0  0  0  0  0  0
  140.7110   80.2360  223.7450 N   0  0  0  0  0  0  0  0  0  0  0  0
  139.4470   79.9440  223.0950 C   0  0  0  0  0  0  0  0  0  0  0  0
  139.6220   79.2310  221.7950 C   0  0  0  0  0  0  0  0  0  0  0  0
  140.4720   78.1020  221.9180 N   0  0  0  0  0  0  0  0  0  0  0  0
  139.8730   76.8810  222.3410 C   0  0  0  0  0  0  0  0  0  0  0  0
  140.5530   75.7480  221.6620 C   0  0  0  0  0  0  0  0  0  0  0  0
  141.6250   75.8910  220.8190 C   0  0  0  0  0  0  0  0  0  0  0  0
  142.2030   74.7920  220.2230 C   0  0  0  0  0  0  0  0  0  0  0  0
  141.6920   73.5130  220.4820 C   0  0  0  0  0  0  0  0  0  0  0  0
  140.6200   73.3400  221.3230 C   0  0  0  0  0  0  0  0  0  0  0  0
  140.0430   72.0150  221.6270 C   0  0  0  0  0  0  0  0  0  0  0  0
  139.2770   71.7610  222.6360 C   0  0  0  0  0  0  0  0  0  0  0  0
  139.4160   70.9030  223.7680 C   0  0  0  0  0  0  0  0  0  0  0  0
  140.0520   71.4660  224.8520 N   0  0  0  0  0  0  0  0  0  0  0  0
  140.3070   70.8780  225.9900 C   0  0  0  0  0  0  0  0  0  0  0  0
  140.9530   71.5730  226.9860 C   0  0  0  0  0  0  0  0  0  0  0  0
  141.1880   70.8860  228.1630 C   0  0  0  0  0  0  0  0  0  0  0  0
  140.8030   69.5750  228.3480 C   0  0  0  0  0  0  0  0  0  0  0  0
  140.1470   68.8850  227.3280 C   0  0  0  0  0  0  0  0  0  0  0  0
  139.9190   69.5730  226.1660 C   0  0  0  0  0  0  0  0  0  0  0  0
  139.2810   68.9730  225.1080 C   0  0  0  0  0  0  0  0  0  0  0  0
  138.9280   67.7760  225.2670 O   0  0  0  0  0  0  0  0  0  0  0  0
  139.0360   69.6420  223.9260 N   0  0  0  0  0  0  0  0  0  0  0  0
  138.3570   68.8770  222.9310 C   0  0  0  0  0  0  0  0  0  0  0  0
  139.1980   68.0850  221.9960 C   0  0  0  0  0  0  0  0  0  0  0  0
  138.8620   66.5970  222.1560 C   0  0  0  0  0  0  0  0  0  0  0  0
  137.5160   66.2730  221.6120 C   0  0  0  0  0  0  0  0  0  0  0  0
  137.0670   67.0800  220.4460 C   0  0  0  0  0  0  0  0  0  0  0  0
  138.1250   67.8300  219.7180 C   0  0  0  0  0  0  0  0  0  0  0  0
  139.1740   68.4870  220.5580 C   0  0  0  0  0  0  0  0  0  0  0  0
  140.0810   74.4760  221.8920 C   0  0  0  0  0  0  0  0  0  0  0  0
  141.7190   78.4460  222.4920 C   0  0  0  0  0  0  0  0  0  0  0  0
  141.5050   79.0240  223.8700 C   0  0  0  0  0  0  0  0  0  0  0  0
  141.9305   81.9081  223.8877 H   0  0  0  0  0  0  0  0  0  0  0  0
  142.2536   80.8269  222.4901 H   0  0  0  0  0  0  0  0  0  0  0  0
  140.8023   81.8854  222.4901 H   0  0  0  0  0  0  0  0  0  0  0  0
  138.8438   79.3132  223.7645 H   0  0  0  0  0  0  0  0  0  0  0  0
  138.9505   80.9029  222.8852 H   0  0  0  0  0  0  0  0  0  0  0  0
  138.6368   78.8965  221.4381 H   0  0  0  0  0  0  0  0  0  0  0  0
  140.0866   79.9301  221.0841 H   0  0  0  0  0  0  0  0  0  0  0  0
  139.9801   76.7758  223.4307 H   0  0  0  0  0  0  0  0  0  0  0  0
  138.8040   76.8821  222.0817 H   0  0  0  0  0  0  0  0  0  0  0  0
  142.0278   76.8944  220.6165 H   0  0  0  0  0  0  0  0  0  0  0  0
  143.0616   74.9176  219.5470 H   0  0  0  0  0  0  0  0  0  0  0  0
  142.1554   72.6365  220.0056 H   0  0  0  0  0  0  0  0  0  0  0  0
  140.2825   71.1851  220.9458 H   0  0  0  0  0  0  0  0  0  0  0  0
  138.3281   72.3172  222.6192 H   0  0  0  0  0  0  0  0  0  0  0  0
  141.2659   72.6192  226.8533 H   0  0  0  0  0  0  0  0  0  0  0  0
  141.7026   71.4062  228.9843 H   0  0  0  0  0  0  0  0  0  0  0  0
  141.0137   69.0714  229.3030 H   0  0  0  0  0  0  0  0  0  0  0  0
  139.8285   67.8394  227.4512 H   0  0  0  0  0  0  0  0  0  0  0  0
  137.6887   68.1751  223.4513 H   0  0  0  0  0  0  0  0  0  0  0  0
  137.8492   69.6196  222.2980 H   0  0  0  0  0  0  0  0  0  0  0  0
  140.2346   68.3024  222.2930 H   0  0  0  0  0  0  0  0  0  0  0  0
  139.6156   66.0021  221.6192 H   0  0  0  0  0  0  0  0  0  0  0  0
  138.8628   66.3599  223.2301 H   0  0  0  0  0  0  0  0  0  0  0  0
  137.5232   65.2164  221.3060 H   0  0  0  0  0  0  0  0  0  0  0  0
  136.8079   66.5055  222.4210 H   0  0  0  0  0  0  0  0  0  0  0  0
  136.5875   66.3965  219.7299 H   0  0  0  0  0  0  0  0  0  0  0  0
  136.3959   67.8467  220.8605 H   0  0  0  0  0  0  0  0  0  0  0  0
  138.6309   67.1241  219.0428 H   0  0  0  0  0  0  0  0  0  0  0  0
  137.6015   68.6527  219.2090 H   0  0  0  0  0  0  0  0  0  0  0  0
  140.1552   68.2456  220.1232 H   0  0  0  0  0  0  0  0  0  0  0  0
  138.9347   69.5606  220.5509 H   0  0  0  0  0  0  0  0  0  0  0  0
  139.2228   74.3576  222.5699 H   0  0  0  0  0  0  0  0  0  0  0  0
  142.3473   77.5462  222.5669 H   0  0  0  0  0  0  0  0  0  0  0  0
  142.2171   79.1939  221.8576 H   0  0  0  0  0  0  0  0  0  0  0  0
  140.9729   78.2953  224.4993 H   0  0  0  0  0  0  0  0  0  0  0  0
  142.4743   79.2553  224.3358 H   0  0  0  0  0  0  0  0  0  0  0  0
  1  2  1  0
  2  3  1  0
  3  4  1  0
  4  5  1  0
  5  6  1  0
  6  7  1  0
  7  8  2  0
  8  9  1  0
  9 10  2  0
 10 11  1  0
 11 12  1  0
 12 13  2  0
 13 14  1  0
 14 15  2  0
 15 16  1  0
 16 17  2  0
 17 18  1  0
 18 19  2  0
 19 20  1  0
 20 21  2  0
 21 22  1  0
 22 23  2  0
 22 24  1  0
 24 25  1  0
 25 26  1  0
 26 27  1  0
 27 28  1  0
 28 29  1  0
 29 30  1  0
 30 31  1  0
 11 32  2  0
  5 33  1  0
 33 34  1  0
 34  2  1  0
 32  7  1  0
 24 14  1  0
 31 26  1  0
 21 16  1  0
  1 35  1  0
  1 36  1  0
  1 37  1  0
  3 38  1  0
  3 39  1  0
  4 40  1  0
  4 41  1  0
  6 42  1  0
  6 43  1  0
  8 44  1  0
  9 45  1  0
 10 46  1  0
 12 47  1  0
 13 48  1  0
 17 49  1  0
 18 50  1  0
 19 51  1  0
 20 52  1  0
 25 53  1  0
 25 54  1  0
 26 55  1  0
 27 56  1  0
 27 57  1  0
 28 58  1  0
 28 59  1  0
 29 60  1  0
 29 61  1  0
 30 62  1  0
 30 63  1  0
 31 64  1  0
 31 65  1  0
 32 66  1  0
 33 67  1  0
 33 68  1  0
 34 69  1  0
 34 70  1  0
M  END
>  <smiles>  (41) 
CN1CCN(Cc2cccc(/C=C/c3nc4ccccc4c(=O)n3CC3CCCCC3)c2)CC1

>  <score_type>  (41) 
oracle

>  <origin>  (41) 
autodockgpu

>  <m_score__min__energy>  (41) 
-9.4000000000000004

>  <m_primary>  (41) 
energy

>  <rmsd>  (41) 
11.755288162122683

>  <m_score__min__rmsd>  (41) 
11.755288162122683

>  <meeko>  (41) 
{"free_energy": -9.02, "intermolecular_energy": -11.11, "internal_energy": -1.57, "cluster_size": 35, "cluster_id": 1, "rank_in_cluster": 13}

>  <energy>  (41) 
-8.93

>  <cluster_rmsd>  (41) 
0.63

>  <cluster>  (41) 
2

$$$$

     RDKit          3D

 70 74  0  0  0  0  0  0  0  0999 V2000
  142.5340   81.2270  224.2080 C   0  0  0  0  0  0  0  0  0  0  0  0
  142.1980   80.8120  222.8810 N   0  0  0  0  0  0  0  0  0  0  0  0
  142.5640   79.4410  222.5760 C   0  0  0  0  0  0  0  0  0  0  0  0
  141.6900   78.4470  223.2650 C   0  0  0  0  0  0  0  0  0  0  0  0
  140.3120   78.7240  223.0700 N   0  0  0  0  0  0  0  0  0  0  0  0
  139.7080   78.2160  221.8850 C   0  0  0  0  0  0  0  0  0  0  0  0
  140.3690   76.9380  221.5160 C   0  0  0  0  0  0  0  0  0  0  0  0
  141.5020   76.8540  220.7490 C   0  0  0  0  0  0  0  0  0  0  0  0
  142.0580   75.6310  220.4440 C   0  0  0  0  0  0  0  0  0  0  0  0
  141.4590   74.4590  220.9240 C   0  0  0  0  0  0  0  0  0  0  0  0
  140.3230   74.5120  221.6940 C   0  0  0  0  0  0  0  0  0  0  0  0
  139.6530   73.3060  222.2230 C   0  0  0  0  0  0  0  0  0  0  0  0
  140.2630   72.2260  222.5850 C   0  0  0  0  0  0  0  0  0  0  0  0
  140.0670   71.3200  223.6700 C   0  0  0  0  0  0  0  0  0  0  0  0
  140.5750   71.7380  224.8800 N   0  0  0  0  0  0  0  0  0  0  0  0
  140.5290   71.0790  226.0060 C   0  0  0  0  0  0  0  0  0  0  0  0
  141.0830   71.6290  227.1400 C   0  0  0  0  0  0  0  0  0  0  0  0
  140.9960   70.8750  228.2960 C   0  0  0  0  0  0  0  0  0  0  0  0
  140.3920   69.6360  228.3300 C   0  0  0  0  0  0  0  0  0  0  0  0
  139.8350   69.0920  227.1720 C   0  0  0  0  0  0  0  0  0  0  0  0
  139.9250   69.8470  226.0330 C   0  0  0  0  0  0  0  0  0  0  0  0
  139.4050   69.3910  224.8450 C   0  0  0  0  0  0  0  0  0  0  0  0
  138.8540   68.2610  224.8680 O   0  0  0  0  0  0  0  0  0  0  0  0
  139.4800   70.1300  223.6830 N   0  0  0  0  0  0  0  0  0  0  0  0
  138.8840   69.5160  222.5410 C   0  0  0  0  0  0  0  0  0  0  0  0
  137.6370   70.1330  222.0140 C   0  0  0  0  0  0  0  0  0  0  0  0
  136.5890   69.0350  221.7920 C   0  0  0  0  0  0  0  0  0  0  0  0
  136.0730   68.4940  223.0780 C   0  0  0  0  0  0  0  0  0  0  0  0
  136.0090   69.4520  224.2150 C   0  0  0  0  0  0  0  0  0  0  0  0
  136.0880   70.8960  223.8640 C   0  0  0  0  0  0  0  0  0  0  0  0
  137.0630   71.2700  222.7940 C   0  0  0  0  0  0  0  0  0  0  0  0
  139.8110   75.7640  221.9680 C   0  0  0  0  0  0  0  0  0  0  0  0
  139.9870   80.0500  223.4470 C   0  0  0  0  0  0  0  0  0  0  0  0
  140.7840   81.0270  222.6170 C   0  0  0  0  0  0  0  0  0  0  0  0
  142.0147   80.5856  224.9353 H   0  0  0  0  0  0  0  0  0  0  0  0
  143.6209   81.1421  224.3546 H   0  0  0  0  0  0  0  0  0  0  0  0
  142.2248   82.2724  224.3546 H   0  0  0  0  0  0  0  0  0  0  0  0
  142.4831   79.2881  221.4897 H   0  0  0  0  0  0  0  0  0  0  0  0
  143.5927   79.2836  222.9323 H   0  0  0  0  0  0  0  0  0  0  0  0
  141.9103   77.4451  222.8678 H   0  0  0  0  0  0  0  0  0  0  0  0
  141.8979   78.5025  224.3437 H   0  0  0  0  0  0  0  0  0  0  0  0
  138.6370   78.0394  222.0633 H   0  0  0  0  0  0  0  0  0  0  0  0
  139.8224   78.9435  221.0679 H   0  0  0  0  0  0  0  0  0  0  0  0
  141.9729   77.7741  220.3725 H   0  0  0  0  0  0  0  0  0  0  0  0
  142.9670   75.5750  219.8271 H   0  0  0  0  0  0  0  0  0  0  0  0
  141.9046   73.4831  220.6809 H   0  0  0  0  0  0  0  0  0  0  0  0
  138.5571   73.3292  222.3152 H   0  0  0  0  0  0  0  0  0  0  0  0
  141.0995   71.9502  221.9260 H   0  0  0  0  0  0  0  0  0  0  0  0
  141.5690   72.6157  227.1272 H   0  0  0  0  0  0  0  0  0  0  0  0
  141.4254   71.2794  229.2245 H   0  0  0  0  0  0  0  0  0  0  0  0
  140.3490   69.0737  229.2744 H   0  0  0  0  0  0  0  0  0  0  0  0
  139.3479   68.1058  227.1739 H   0  0  0  0  0  0  0  0  0  0  0  0
  139.6283   69.5293  221.7312 H   0  0  0  0  0  0  0  0  0  0  0  0
  138.5844   68.5135  222.8804 H   0  0  0  0  0  0  0  0  0  0  0  0
  137.9334   70.6102  221.0683 H   0  0  0  0  0  0  0  0  0  0  0  0
  135.7487   69.4556  221.2202 H   0  0  0  0  0  0  0  0  0  0  0  0
  137.0687   68.2112  221.2431 H   0  0  0  0  0  0  0  0  0  0  0  0
  135.0553   68.1168  222.8992 H   0  0  0  0  0  0  0  0  0  0  0  0
  136.7947   67.7221  223.3835 H   0  0  0  0  0  0  0  0  0  0  0  0
  135.0568   69.2861  224.7402 H   0  0  0  0  0  0  0  0  0  0  0  0
  136.9033   69.2478  224.8221 H   0  0  0  0  0  0  0  0  0  0  0  0
  135.0888   71.2143  223.5318 H   0  0  0  0  0  0  0  0  0  0  0  0
  136.4481   71.3976  224.7743 H   0  0  0  0  0  0  0  0  0  0  0  0
  136.5495   71.9390  222.0878 H   0  0  0  0  0  0  0  0  0  0  0  0
  137.9132   71.7366  223.3131 H   0  0  0  0  0  0  0  0  0  0  0  0
  138.9023   75.8273  222.5847 H   0  0  0  0  0  0  0  0  0  0  0  0
  138.9130   80.2233  223.2840 H   0  0  0  0  0  0  0  0  0  0  0  0
  140.2284   80.1950  224.5104 H   0  0  0  0  0  0  0  0  0  0  0  0
  140.5767   80.8621  221.5494 H   0  0  0  0  0  0  0  0  0  0  0  0
  140.5048   82.0584  222.8781 H   0  0  0  0  0  0  0  0  0  0  0  0
  1  2  1  0
  2  3  1  0
  3  4  1  0
  4  5  1  0
  5  6  1  0
  6  7  1  0
  7  8  2  0
  8  9  1  0
  9 10  2  0
 10 11  1  0
 11 12  1  0
 12 13  2  0
 13 14  1  0
 14 15  2  0
 15 16  1  0
 16 17  2  0
 17 18  1  0
 18 19  2  0
 19 20  1  0
 20 21  2  0
 21 22  1  0
 22 23  2  0
 22 24  1  0
 24 25  1  0
 25 26  1  0
 26 27  1  0
 27 28  1  0
 28 29  1  0
 29 30  1  0
 30 31  1  0
 11 32  2  0
  5 33  1  0
 33 34  1  0
 34  2  1  0
 32  7  1  0
 24 14  1  0
 31 26  1  0
 21 16  1  0
  1 35  1  0
  1 36  1  0
  1 37  1  0
  3 38  1  0
  3 39  1  0
  4 40  1  0
  4 41  1  0
  6 42  1  0
  6 43  1  0
  8 44  1  0
  9 45  1  0
 10 46  1  0
 12 47  1  0
 13 48  1  0
 17 49  1  0
 18 50  1  0
 19 51  1  0
 20 52  1  0
 25 53  1  0
 25 54  1  0
 26 55  1  0
 27 56  1  0
 27 57  1  0
 28 58  1  0
 28 59  1  0
 29 60  1  0
 29 61  1  0
 30 62  1  0
 30 63  1  0
 31 64  1  0
 31 65  1  0
 32 66  1  0
 33 67  1  0
 33 68  1  0
 34 69  1  0
 34 70  1  0
M  END
>  <smiles>  (42) 
CN1CCN(Cc2cccc(/C=C/c3nc4ccccc4c(=O)n3CC3CCCCC3)c2)CC1

>  <score_type>  (42) 
oracle

>  <origin>  (42) 
autodockgpu

>  <m_score__min__energy>  (42) 
-9.4000000000000004

>  <m_primary>  (42) 
energy

>  <rmsd>  (42) 
11.29484406511935

>  <m_score__min__rmsd>  (42) 
11.29484406511935

>  <meeko>  (42) 
{"free_energy": -9.4, "intermolecular_energy": -11.49, "internal_energy": -1.87, "cluster_size": 35, "cluster_id": 1, "rank_in_cluster": 1}

>  <energy>  (42) 
-8.92

>  <cluster_rmsd>  (42) 
0.76

>  <cluster>  (42) 
2

$$$$

     RDKit          3D

 70 74  0  0  0  0  0  0  0  0999 V2000
  141.4540   81.9790  222.3760 C   0  0  0  0  0  0  0  0  0  0  0  0
  142.2410   80.7910  222.2530 N   0  0  0  0  0  0  0  0  0  0  0  0
  142.2990   79.9880  223.4610 C   0  0  0  0  0  0  0  0  0  0  0  0
  141.0150   79.2830  223.7430 C   0  0  0  0  0  0  0  0  0  0  0  0
  140.5380   78.5730  222.6110 N   0  0  0  0  0  0  0  0  0  0  0  0
  141.0460   77.2590  222.4070 C   0  0  0  0  0  0  0  0  0  0  0  0
  139.9080   76.3150  222.2700 C   0  0  0  0  0  0  0  0  0  0  0  0
  138.5930   76.6690  222.4360 C   0  0  0  0  0  0  0  0  0  0  0  0
  137.5900   75.7370  222.2960 C   0  0  0  0  0  0  0  0  0  0  0  0
  137.9140   74.4110  221.9790 C   0  0  0  0  0  0  0  0  0  0  0  0
  139.2220   74.0280  221.8070 C   0  0  0  0  0  0  0  0  0  0  0  0
  139.6160   72.6430  221.4750 C   0  0  0  0  0  0  0  0  0  0  0  0
  140.3220   71.8770  222.2390 C   0  0  0  0  0  0  0  0  0  0  0  0
  140.0360   71.1950  223.4600 C   0  0  0  0  0  0  0  0  0  0  0  0
  140.6470   71.7170  224.5780 N   0  0  0  0  0  0  0  0  0  0  0  0
  140.5480   71.2600  225.7970 C   0  0  0  0  0  0  0  0  0  0  0  0
  141.2220   71.8920  226.8180 C   0  0  0  0  0  0  0  0  0  0  0  0
  141.0690   71.3530  228.0820 C   0  0  0  0  0  0  0  0  0  0  0  0
  140.2900   70.2420  228.3270 C   0  0  0  0  0  0  0  0  0  0  0  0
  139.6130   69.6140  227.2810 C   0  0  0  0  0  0  0  0  0  0  0  0
  139.7690   70.1550  226.0330 C   0  0  0  0  0  0  0  0  0  0  0  0
  139.1410   69.6020  224.9430 C   0  0  0  0  0  0  0  0  0  0  0  0
  138.4300   68.5870  225.1570 O   0  0  0  0  0  0  0  0  0  0  0  0
  139.2790   70.1260  223.6740 N   0  0  0  0  0  0  0  0  0  0  0  0
  138.5550   69.4380  222.6560 C   0  0  0  0  0  0  0  0  0  0  0  0
  139.2840   68.3840  221.9020 C   0  0  0  0  0  0  0  0  0  0  0  0
  138.8190   67.0060  222.3870 C   0  0  0  0  0  0  0  0  0  0  0  0
  137.4300   66.7050  221.9490 C   0  0  0  0  0  0  0  0  0  0  0  0
  137.0130   67.2830  220.6440 C   0  0  0  0  0  0  0  0  0  0  0  0
  138.1070   67.7530  219.7520 C   0  0  0  0  0  0  0  0  0  0  0  0
  139.2430   68.4690  220.4110 C   0  0  0  0  0  0  0  0  0  0  0  0
  140.1860   75.0030  221.9600 C   0  0  0  0  0  0  0  0  0  0  0  0
  140.4300   79.4110  221.4750 C   0  0  0  0  0  0  0  0  0  0  0  0
  141.7840   79.9840  221.1330 C   0  0  0  0  0  0  0  0  0  0  0  0
  141.3015   82.2092  223.4408 H   0  0  0  0  0  0  0  0  0  0  0  0
  141.9764   82.8167  221.8909 H   0  0  0  0  0  0  0  0  0  0  0  0
  140.4789   81.8247  221.8909 H   0  0  0  0  0  0  0  0  0  0  0  0
  143.0954   79.2377  223.3475 H   0  0  0  0  0  0  0  0  0  0  0  0
  142.4984   80.6669  224.3032 H   0  0  0  0  0  0  0  0  0  0  0  0
  141.1740   78.5718  224.5670 H   0  0  0  0  0  0  0  0  0  0  0  0
  140.2634   80.0404  224.0101 H   0  0  0  0  0  0  0  0  0  0  0  0
  141.6550   77.2374  221.4912 H   0  0  0  0  0  0  0  0  0  0  0  0
  141.6704   76.9655  223.2637 H   0  0  0  0  0  0  0  0  0  0  0  0
  138.3373   77.7098  222.6839 H   0  0  0  0  0  0  0  0  0  0  0  0
  136.5390   76.0316  222.4323 H   0  0  0  0  0  0  0  0  0  0  0  0
  137.1110   73.6676  221.8665 H   0  0  0  0  0  0  0  0  0  0  0  0
  139.2846   72.2353  220.5086 H   0  0  0  0  0  0  0  0  0  0  0  0
  141.3483   71.7187  221.8763 H   0  0  0  0  0  0  0  0  0  0  0  0
  141.8484   72.7780  226.6377 H   0  0  0  0  0  0  0  0  0  0  0  0
  141.5895   71.8295  228.9258 H   0  0  0  0  0  0  0  0  0  0  0  0
  140.2019   69.8494  229.3508 H   0  0  0  0  0  0  0  0  0  0  0  0
  138.9845   68.7273  227.4508 H   0  0  0  0  0  0  0  0  0  0  0  0
  137.6843   68.9631  223.1318 H   0  0  0  0  0  0  0  0  0  0  0  0
  138.3135   70.2078  221.9083 H   0  0  0  0  0  0  0  0  0  0  0  0
  140.3467   68.5563  222.1279 H   0  0  0  0  0  0  0  0  0  0  0  0
  139.4945   66.2390  221.9803 H   0  0  0  0  0  0  0  0  0  0  0  0
  138.8376   67.0069  223.4868 H   0  0  0  0  0  0  0  0  0  0  0  0
  137.3296   65.6118  221.8792 H   0  0  0  0  0  0  0  0  0  0  0  0
  136.7767   67.1729  222.7002 H   0  0  0  0  0  0  0  0  0  0  0  0
  136.4462   66.5119  220.1016 H   0  0  0  0  0  0  0  0  0  0  0  0
  136.4312   68.1825  220.8939 H   0  0  0  0  0  0  0  0  0  0  0  0
  138.5200   66.8730  219.2371 H   0  0  0  0  0  0  0  0  0  0  0  0
  137.6419   68.4948  219.0861 H   0  0  0  0  0  0  0  0  0  0  0  0
  140.1807   68.0452  220.0223 H   0  0  0  0  0  0  0  0  0  0  0  0
  139.1036   69.5343  220.1749 H   0  0  0  0  0  0  0  0  0  0  0  0
  141.2391   74.7149  221.8264 H   0  0  0  0  0  0  0  0  0  0  0  0
  140.0555   78.8248  220.6229 H   0  0  0  0  0  0  0  0  0  0  0  0
  139.7323   80.2327  221.6943 H   0  0  0  0  0  0  0  0  0  0  0  0
  142.4970   79.1667  220.9495 H   0  0  0  0  0  0  0  0  0  0  0  0
  141.7126   80.6037  220.2270 H   0  0  0  0  0  0  0  0  0  0  0  0
  1  2  1  0
  2  3  1  0
  3  4  1  0
  4  5  1  0
  5  6  1  0
  6  7  1  0
  7  8  2  0
  8  9  1  0
  9 10  2  0
 10 11  1  0
 11 12  1  0
 12 13  2  0
 13 14  1  0
 14 15  2  0
 15 16  1  0
 16 17  2  0
 17 18  1  0
 18 19  2  0
 19 20  1  0
 20 21  2  0
 21 22  1  0
 22 23  2  0
 22 24  1  0
 24 25  1  0
 25 26  1  0
 26 27  1  0
 27 28  1  0
 28 29  1  0
 29 30  1  0
 30 31  1  0
 11 32  2  0
  5 33  1  0
 33 34  1  0
 34  2  1  0
 32  7  1  0
 24 14  1  0
 31 26  1  0
 21 16  1  0
  1 35  1  0
  1 36  1  0
  1 37  1  0
  3 38  1  0
  3 39  1  0
  4 40  1  0
  4 41  1  0
  6 42  1  0
  6 43  1  0
  8 44  1  0
  9 45  1  0
 10 46  1  0
 12 47  1  0
 13 48  1  0
 17 49  1  0
 18 50  1  0
 19 51  1  0
 20 52  1  0
 25 53  1  0
 25 54  1  0
 26 55  1  0
 27 56  1  0
 27 57  1  0
 28 58  1  0
 28 59  1  0
 29 60  1  0
 29 61  1  0
 30 62  1  0
 30 63  1  0
 31 64  1  0
 31 65  1  0
 32 66  1  0
 33 67  1  0
 33 68  1  0
 34 69  1  0
 34 70  1  0
M  END
>  <smiles>  (43) 
CN1CCN(Cc2cccc(/C=C/c3nc4ccccc4c(=O)n3CC3CCCCC3)c2)CC1

>  <score_type>  (43) 
oracle

>  <origin>  (43) 
autodockgpu

>  <m_score__min__energy>  (43) 
-9.4000000000000004

>  <m_primary>  (43) 
energy

>  <rmsd>  (43) 
11.37379678813096

>  <m_score__min__rmsd>  (43) 
11.37379678813096

>  <meeko>  (43) 
{"free_energy": -8.84, "intermolecular_energy": -10.93, "internal_energy": -1.73, "cluster_size": 35, "cluster_id": 1, "rank_in_cluster": 19}

>  <energy>  (43) 
-8.9

>  <cluster_rmsd>  (43) 
0.97

>  <cluster>  (43) 
2

$$$$

     RDKit          3D

 70 74  0  0  0  0  0  0  0  0999 V2000
  132.8600   73.8370  226.0660 C   0  0  0  0  0  0  0  0  0  0  0  0
  133.0120   75.0450  225.3170 N   0  0  0  0  0  0  0  0  0  0  0  0
  134.1400   75.8620  225.7280 C   0  0  0  0  0  0  0  0  0  0  0  0
  135.4510   75.2740  225.3250 C   0  0  0  0  0  0  0  0  0  0  0  0
  135.4760   74.9210  223.9500 N   0  0  0  0  0  0  0  0  0  0  0  0
  135.8150   75.9460  223.0230 C   0  0  0  0  0  0  0  0  0  0  0  0
  137.2510   75.8200  222.6660 C   0  0  0  0  0  0  0  0  0  0  0  0
  138.1330   76.8690  222.6550 C   0  0  0  0  0  0  0  0  0  0  0  0
  139.4530   76.6770  222.3110 C   0  0  0  0  0  0  0  0  0  0  0  0
  139.9000   75.3940  221.9670 C   0  0  0  0  0  0  0  0  0  0  0  0
  139.0390   74.3240  221.9690 C   0  0  0  0  0  0  0  0  0  0  0  0
  139.4590   72.9530  221.6140 C   0  0  0  0  0  0  0  0  0  0  0  0
  140.2050   72.1990  222.3530 C   0  0  0  0  0  0  0  0  0  0  0  0
  139.9480   71.4410  223.5340 C   0  0  0  0  0  0  0  0  0  0  0  0
  140.5830   71.8950  224.6690 N   0  0  0  0  0  0  0  0  0  0  0  0
  140.5120   71.3620  225.8590 C   0  0  0  0  0  0  0  0  0  0  0  0
  141.2070   71.9320  226.9020 C   0  0  0  0  0  0  0  0  0  0  0  0
  141.0840   71.3140  228.1330 C   0  0  0  0  0  0  0  0  0  0  0  0
  140.3130   70.1870  228.3250 C   0  0  0  0  0  0  0  0  0  0  0  0
  139.6150   69.6220  227.2570 C   0  0  0  0  0  0  0  0  0  0  0  0
  139.7420   70.2410  226.0430 C   0  0  0  0  0  0  0  0  0  0  0  0
  139.0910   69.7550  224.9350 C   0  0  0  0  0  0  0  0  0  0  0  0
  138.3870   68.7250  225.1010 O   0  0  0  0  0  0  0  0  0  0  0  0
  139.1990   70.3580  223.6990 N   0  0  0  0  0  0  0  0  0  0  0  0
  138.4540   69.7310  222.6560 C   0  0  0  0  0  0  0  0  0  0  0  0
  137.2000   70.4030  222.2220 C   0  0  0  0  0  0  0  0  0  0  0  0
  136.0830   69.3580  222.1100 C   0  0  0  0  0  0  0  0  0  0  0  0
  135.6500   68.8670  223.4460 C   0  0  0  0  0  0  0  0  0  0  0  0
  135.7300   69.8450  224.5630 C   0  0  0  0  0  0  0  0  0  0  0  0
  135.8520   71.2770  224.1780 C   0  0  0  0  0  0  0  0  0  0  0  0
  136.7520   71.5810  223.0230 C   0  0  0  0  0  0  0  0  0  0  0  0
  137.7290   74.5750  222.3230 C   0  0  0  0  0  0  0  0  0  0  0  0
  134.3990   74.0680  223.6110 C   0  0  0  0  0  0  0  0  0  0  0  0
  133.0880   74.7620  223.8920 C   0  0  0  0  0  0  0  0  0  0  0  0
  132.8889   74.0663  227.1414 H   0  0  0  0  0  0  0  0  0  0  0  0
  131.8960   73.3697  225.8165 H   0  0  0  0  0  0  0  0  0  0  0  0
  133.6782   73.1454  225.8165 H   0  0  0  0  0  0  0  0  0  0  0  0
  134.0424   76.8555  225.2659 H   0  0  0  0  0  0  0  0  0  0  0  0
  134.1253   75.9224  226.8262 H   0  0  0  0  0  0  0  0  0  0  0  0
  136.2447   76.0111  225.5168 H   0  0  0  0  0  0  0  0  0  0  0  0
  135.6076   74.3580  225.9136 H   0  0  0  0  0  0  0  0  0  0  0  0
  135.1994   75.8424  222.1173 H   0  0  0  0  0  0  0  0  0  0  0  0
  135.6297   76.9316  223.4749 H   0  0  0  0  0  0  0  0  0  0  0  0
  137.7826   77.8764  222.9241 H   0  0  0  0  0  0  0  0  0  0  0  0
  140.1524   77.5260  222.3063 H   0  0  0  0  0  0  0  0  0  0  0  0
  140.9541   75.2420  221.6918 H   0  0  0  0  0  0  0  0  0  0  0  0
  139.1125   72.5449  220.6531 H   0  0  0  0  0  0  0  0  0  0  0  0
  141.2448   72.1277  222.0013 H   0  0  0  0  0  0  0  0  0  0  0  0
  141.8266   72.8303  226.7636 H   0  0  0  0  0  0  0  0  0  0  0  0
  141.6226   71.7383  228.9932 H   0  0  0  0  0  0  0  0  0  0  0  0
  140.2480   69.7315  229.3241 H   0  0  0  0  0  0  0  0  0  0  0  0
  138.9934   68.7235  227.3845 H   0  0  0  0  0  0  0  0  0  0  0  0
  139.1116   69.6568  221.7773 H   0  0  0  0  0  0  0  0  0  0  0  0
  138.1302   68.7676  223.0766 H   0  0  0  0  0  0  0  0  0  0  0  0
  137.4396   70.8484  221.2452 H   0  0  0  0  0  0  0  0  0  0  0  0
  135.2202   69.8122  221.6008 H   0  0  0  0  0  0  0  0  0  0  0  0
  136.4721   68.5012  221.5404 H   0  0  0  0  0  0  0  0  0  0  0  0
  134.6031   68.5405  223.3603 H   0  0  0  0  0  0  0  0  0  0  0  0
  136.3552   68.0641  223.7070 H   0  0  0  0  0  0  0  0  0  0  0  0
  134.8181   69.7373  225.1687 H   0  0  0  0  0  0  0  0  0  0  0  0
  136.6611   69.6046  225.0972 H   0  0  0  0  0  0  0  0  0  0  0  0
  134.8460   71.6419  223.9234 H   0  0  0  0  0  0  0  0  0  0  0  0
  136.3113   71.7744  225.0450 H   0  0  0  0  0  0  0  0  0  0  0  0
  136.2160   72.2643  222.3479 H   0  0  0  0  0  0  0  0  0  0  0  0
  137.6654   72.0104  223.4603 H   0  0  0  0  0  0  0  0  0  0  0  0
  137.0246   73.7301  222.3317 H   0  0  0  0  0  0  0  0  0  0  0  0
  134.4563   73.8149  222.5420 H   0  0  0  0  0  0  0  0  0  0  0  0
  134.4599   73.1497  224.2135 H   0  0  0  0  0  0  0  0  0  0  0  0
  133.0366   75.7024  223.3236 H   0  0  0  0  0  0  0  0  0  0  0  0
  132.2485   74.1185  223.5901 H   0  0  0  0  0  0  0  0  0  0  0  0
  1  2  1  0
  2  3  1  0
  3  4  1  0
  4  5  1  0
  5  6  1  0
  6  7  1  0
  7  8  2  0
  8  9  1  0
  9 10  2  0
 10 11  1  0
 11 12  1  0
 12 13  2  0
 13 14  1  0
 14 15  2  0
 15 16  1  0
 16 17  2  0
 17 18  1  0
 18 19  2  0
 19 20  1  0
 20 21  2  0
 21 22  1  0
 22 23  2  0
 22 24  1  0
 24 25  1  0
 25 26  1  0
 26 27  1  0
 27 28  1  0
 28 29  1  0
 29 30  1  0
 30 31  1  0
 11 32  2  0
  5 33  1  0
 33 34  1  0
 34  2  1  0
 32  7  1  0
 24 14  1  0
 31 26  1  0
 21 16  1  0
  1 35  1  0
  1 36  1  0
  1 37  1  0
  3 38  1  0
  3 39  1  0
  4 40  1  0
  4 41  1  0
  6 42  1  0
  6 43  1  0
  8 44  1  0
  9 45  1  0
 10 46  1  0
 12 47  1  0
 13 48  1  0
 17 49  1  0
 18 50  1  0
 19 51  1  0
 20 52  1  0
 25 53  1  0
 25 54  1  0
 26 55  1  0
 27 56  1  0
 27 57  1  0
 28 58  1  0
 28 59  1  0
 29 60  1  0
 29 61  1  0
 30 62  1  0
 30 63  1  0
 31 64  1  0
 31 65  1  0
 32 66  1  0
 33 67  1  0
 33 68  1  0
 34 69  1  0
 34 70  1  0
M  END
>  <smiles>  (44) 
CN1CCN(Cc2cccc(/C=C/c3nc4ccccc4c(=O)n3CC3CCCCC3)c2)CC1

>  <score_type>  (44) 
oracle

>  <origin>  (44) 
autodockgpu

>  <m_score__min__energy>  (44) 
-9.4000000000000004

>  <m_primary>  (44) 
energy

>  <rmsd>  (44) 
11.12820391703364

>  <m_score__min__rmsd>  (44) 
11.12820391703364

>  <meeko>  (44) 
{"free_energy": -7.48, "intermolecular_energy": -9.57, "internal_energy": -2.87, "cluster_size": 2, "cluster_id": 4, "rank_in_cluster": 1}

>  <energy>  (44) 
-8.71

>  <cluster_rmsd>  (44) 
0.8

>  <cluster>  (44) 
2

$$$$

     RDKit          3D

 70 74  0  0  0  0  0  0  0  0999 V2000
  143.2550   80.1160  223.0810 C   0  0  0  0  0  0  0  0  0  0  0  0
  141.9640   80.3670  222.5210 N   0  0  0  0  0  0  0  0  0  0  0  0
  141.8280   79.9650  221.1330 C   0  0  0  0  0  0  0  0  0  0  0  0
  141.7730   78.4830  220.9680 C   0  0  0  0  0  0  0  0  0  0  0  0
  140.8140   77.8880  221.8290 N   0  0  0  0  0  0  0  0  0  0  0  0
  139.4680   77.8440  221.3690 C   0  0  0  0  0  0  0  0  0  0  0  0
  138.9260   76.4770  221.5860 C   0  0  0  0  0  0  0  0  0  0  0  0
  137.5890   76.1870  221.6680 C   0  0  0  0  0  0  0  0  0  0  0  0
  137.1600   74.8940  221.8730 C   0  0  0  0  0  0  0  0  0  0  0  0
  138.1010   73.8640  222.0010 C   0  0  0  0  0  0  0  0  0  0  0  0
  139.4470   74.1250  221.9240 C   0  0  0  0  0  0  0  0  0  0  0  0
  140.4780   73.0760  222.0530 C   0  0  0  0  0  0  0  0  0  0  0  0
  140.2320   71.8280  222.2820 C   0  0  0  0  0  0  0  0  0  0  0  0
  140.1080   71.0690  223.4840 C   0  0  0  0  0  0  0  0  0  0  0  0
  140.5750   71.6940  224.6200 N   0  0  0  0  0  0  0  0  0  0  0  0
  140.5810   71.1980  225.8280 C   0  0  0  0  0  0  0  0  0  0  0  0
  141.0820   71.9460  226.8680 C   0  0  0  0  0  0  0  0  0  0  0  0
  141.0550   71.3570  228.1190 C   0  0  0  0  0  0  0  0  0  0  0  0
  140.5580   70.0890  228.3320 C   0  0  0  0  0  0  0  0  0  0  0  0
  140.0530   69.3430  227.2660 C   0  0  0  0  0  0  0  0  0  0  0  0
  140.0830   69.9350  226.0310 C   0  0  0  0  0  0  0  0  0  0  0  0
  139.6070   69.2760  224.9240 C   0  0  0  0  0  0  0  0  0  0  0  0
  139.1540   68.1170  225.1090 O   0  0  0  0  0  0  0  0  0  0  0  0
  139.6240   69.8480  223.6680 N   0  0  0  0  0  0  0  0  0  0  0  0
  139.0860   69.0320  222.6290 C   0  0  0  0  0  0  0  0  0  0  0  0
  137.6510   68.6560  222.7370 C   0  0  0  0  0  0  0  0  0  0  0  0
  136.9130   69.7230  223.5530 C   0  0  0  0  0  0  0  0  0  0  0  0
  136.7770   71.0000  222.8010 C   0  0  0  0  0  0  0  0  0  0  0  0
  136.6460   70.8810  221.3240 C   0  0  0  0  0  0  0  0  0  0  0  0
  136.2790   69.5370  220.8020 C   0  0  0  0  0  0  0  0  0  0  0  0
  136.9310   68.3640  221.4620 C   0  0  0  0  0  0  0  0  0  0  0  0
  139.8190   75.4380  221.7160 C   0  0  0  0  0  0  0  0  0  0  0  0
  141.0270   78.2510  223.1800 C   0  0  0  0  0  0  0  0  0  0  0  0
  140.9230   79.7500  223.3280 C   0  0  0  0  0  0  0  0  0  0  0  0
  143.1873   80.1292  224.1788 H   0  0  0  0  0  0  0  0  0  0  0  0
  143.6142   79.1312  222.7475 H   0  0  0  0  0  0  0  0  0  0  0  0
  143.9570   80.8945  222.7475 H   0  0  0  0  0  0  0  0  0  0  0  0
  140.9013   80.3991  220.7296 H   0  0  0  0  0  0  0  0  0  0  0  0
  142.7146   80.3279  220.5924 H   0  0  0  0  0  0  0  0  0  0  0  0
  141.5073   78.2512  219.9261 H   0  0  0  0  0  0  0  0  0  0  0  0
  142.7614   78.0751  221.2264 H   0  0  0  0  0  0  0  0  0  0  0  0
  138.8634   78.5733  221.9280 H   0  0  0  0  0  0  0  0  0  0  0  0
  139.4335   78.0914  220.2977 H   0  0  0  0  0  0  0  0  0  0  0  0
  136.8501   76.9958  221.5690 H   0  0  0  0  0  0  0  0  0  0  0  0
  136.0846   74.6715  221.9358 H   0  0  0  0  0  0  0  0  0  0  0  0
  137.7570   72.8322  222.1654 H   0  0  0  0  0  0  0  0  0  0  0  0
  141.5303   73.3781  221.9466 H   0  0  0  0  0  0  0  0  0  0  0  0
  140.0899   71.2322  221.3683 H   0  0  0  0  0  0  0  0  0  0  0  0
  141.4827   72.9586  226.7129 H   0  0  0  0  0  0  0  0  0  0  0  0
  141.4455   71.9226  228.9778 H   0  0  0  0  0  0  0  0  0  0  0  0
  140.5594   69.6634  229.3463 H   0  0  0  0  0  0  0  0  0  0  0  0
  139.6506   68.3295  227.4104 H   0  0  0  0  0  0  0  0  0  0  0  0
  139.2160   69.5743  221.6809 H   0  0  0  0  0  0  0  0  0  0  0  0
  139.6353   68.0816  222.7003 H   0  0  0  0  0  0  0  0  0  0  0  0
  137.6497   67.6813  223.2469 H   0  0  0  0  0  0  0  0  0  0  0  0
  135.9093   69.3487  223.8029 H   0  0  0  0  0  0  0  0  0  0  0  0
  137.4989   69.9231  224.4622 H   0  0  0  0  0  0  0  0  0  0  0  0
  135.8819   71.5172  223.1768 H   0  0  0  0  0  0  0  0  0  0  0  0
  137.7183   71.5434  222.9705 H   0  0  0  0  0  0  0  0  0  0  0  0
  135.8712   71.5905  220.9978 H   0  0  0  0  0  0  0  0  0  0  0  0
  137.6489   71.0883  220.9225 H   0  0  0  0  0  0  0  0  0  0  0  0
  135.1908   69.4209  220.9134 H   0  0  0  0  0  0  0  0  0  0  0  0
  136.6360   69.5213  219.7617 H   0  0  0  0  0  0  0  0  0  0  0  0
  136.1498   67.6203  221.6778 H   0  0  0  0  0  0  0  0  0  0  0  0
  137.6993   68.0125  220.7576 H   0  0  0  0  0  0  0  0  0  0  0  0
  140.8928   75.6674  221.6503 H   0  0  0  0  0  0  0  0  0  0  0  0
  140.2675   77.7678  223.8123 H   0  0  0  0  0  0  0  0  0  0  0  0
  142.0301   77.9235  223.4908 H   0  0  0  0  0  0  0  0  0  0  0  0
  139.9354   80.0893  222.9822 H   0  0  0  0  0  0  0  0  0  0  0  0
  141.0466   80.0339  224.3835 H   0  0  0  0  0  0  0  0  0  0  0  0
  1  2  1  0
  2  3  1  0
  3  4  1  0
  4  5  1  0
  5  6  1  0
  6  7  1  0
  7  8  2  0
  8  9  1  0
  9 10  2  0
 10 11  1  0
 11 12  1  0
 12 13  2  0
 13 14  1  0
 14 15  2  0
 15 16  1  0
 16 17  2  0
 17 18  1  0
 18 19  2  0
 19 20  1  0
 20 21  2  0
 21 22  1  0
 22 23  2  0
 22 24  1  0
 24 25  1  0
 25 26  1  0
 26 27  1  0
 27 28  1  0
 28 29  1  0
 29 30  1  0
 30 31  1  0
 11 32  2  0
  5 33  1  0
 33 34  1  0
 34  2  1  0
 32  7  1  0
 24 14  1  0
 31 26  1  0
 21 16  1  0
  1 35  1  0
  1 36  1  0
  1 37  1  0
  3 38  1  0
  3 39  1  0
  4 40  1  0
  4 41  1  0
  6 42  1  0
  6 43  1  0
  8 44  1  0
  9 45  1  0
 10 46  1  0
 12 47  1  0
 13 48  1  0
 17 49  1  0
 18 50  1  0
 19 51  1  0
 20 52  1  0
 25 53  1  0
 25 54  1  0
 26 55  1  0
 27 56  1  0
 27 57  1  0
 28 58  1  0
 28 59  1  0
 29 60  1  0
 29 61  1  0
 30 62  1  0
 30 63  1  0
 31 64  1  0
 31 65  1  0
 32 66  1  0
 33 67  1  0
 33 68  1  0
 34 69  1  0
 34 70  1  0
M  END
>  <smiles>  (45) 
CN1CCN(Cc2cccc(/C=C/c3nc4ccccc4c(=O)n3CC3CCCCC3)c2)CC1

>  <score_type>  (45) 
oracle

>  <origin>  (45) 
autodockgpu

>  <m_score__min__energy>  (45) 
-9.4000000000000004

>  <m_primary>  (45) 
energy

>  <rmsd>  (45) 
10.887019568171386

>  <m_score__min__rmsd>  (45) 
10.887019568171386

>  <meeko>  (45) 
{"free_energy": -8.53, "intermolecular_energy": -10.62, "internal_energy": -2.11, "cluster_size": 35, "cluster_id": 1, "rank_in_cluster": 30}

>  <energy>  (45) 
-8.79

>  <cluster_rmsd>  (45) 
0.0

>  <cluster>  (45) 
3

$$$$

     RDKit          3D

 70 74  0  0  0  0  0  0  0  0999 V2000
  145.9250   70.8300  219.2340 C   0  0  0  0  0  0  0  0  0  0  0  0
  145.8580   72.1950  218.8140 N   0  0  0  0  0  0  0  0  0  0  0  0
  144.5840   72.5780  218.2340 C   0  0  0  0  0  0  0  0  0  0  0  0
  143.4990   72.6850  219.2530 C   0  0  0  0  0  0  0  0  0  0  0  0
  143.8850   73.4890  220.3570 N   0  0  0  0  0  0  0  0  0  0  0  0
  143.7070   74.8950  220.2310 C   0  0  0  0  0  0  0  0  0  0  0  0
  142.2890   75.2320  220.5220 C   0  0  0  0  0  0  0  0  0  0  0  0
  141.7060   76.4320  220.2070 C   0  0  0  0  0  0  0  0  0  0  0  0
  140.3850   76.6750  220.5100 C   0  0  0  0  0  0  0  0  0  0  0  0
  139.6270   75.6830  221.1470 C   0  0  0  0  0  0  0  0  0  0  0  0
  140.1840   74.4710  221.4740 C   0  0  0  0  0  0  0  0  0  0  0  0
  139.4280   73.3940  222.1460 C   0  0  0  0  0  0  0  0  0  0  0  0
  139.9130   72.2350  222.4480 C   0  0  0  0  0  0  0  0  0  0  0  0
  139.7650   71.3890  223.5880 C   0  0  0  0  0  0  0  0  0  0  0  0
  140.3910   71.8370  224.7310 N   0  0  0  0  0  0  0  0  0  0  0  0
  140.4080   71.2320  225.8890 C   0  0  0  0  0  0  0  0  0  0  0  0
  141.0790   71.8060  226.9450 C   0  0  0  0  0  0  0  0  0  0  0  0
  141.0540   71.1100  228.1400 C   0  0  0  0  0  0  0  0  0  0  0  0
  140.3990   69.9050  228.2850 C   0  0  0  0  0  0  0  0  0  0  0  0
  139.7230   69.3380  227.2030 C   0  0  0  0  0  0  0  0  0  0  0  0
  139.7530   70.0340  226.0250 C   0  0  0  0  0  0  0  0  0  0  0  0
  139.1150   69.5520  224.9070 C   0  0  0  0  0  0  0  0  0  0  0  0
  138.5170   68.4520  225.0300 O   0  0  0  0  0  0  0  0  0  0  0  0
  139.1270   70.2320  223.7070 N   0  0  0  0  0  0  0  0  0  0  0  0
  138.4120   69.5970  222.6480 C   0  0  0  0  0  0  0  0  0  0  0  0
  137.1500   70.2440  222.2020 C   0  0  0  0  0  0  0  0  0  0  0  0
  136.0120   69.2180  222.2570 C   0  0  0  0  0  0  0  0  0  0  0  0
  135.6350   68.8840  223.6570 C   0  0  0  0  0  0  0  0  0  0  0  0
  135.7850   69.9760  224.6550 C   0  0  0  0  0  0  0  0  0  0  0  0
  135.9110   71.3540  224.1090 C   0  0  0  0  0  0  0  0  0  0  0  0
  136.7600   71.5120  222.8880 C   0  0  0  0  0  0  0  0  0  0  0  0
  141.5110   74.2830  221.1460 C   0  0  0  0  0  0  0  0  0  0  0  0
  145.0950   73.0370  220.9350 C   0  0  0  0  0  0  0  0  0  0  0  0
  146.2020   73.0890  219.9090 C   0  0  0  0  0  0  0  0  0  0  0  0
  145.9272   70.7842  220.3330 H   0  0  0  0  0  0  0  0  0  0  0  0
  145.0526   70.2838  218.8460 H   0  0  0  0  0  0  0  0  0  0  0  0
  146.8467   70.3718  218.8460 H   0  0  0  0  0  0  0  0  0  0  0  0
  144.7009   73.5538  217.7399 H   0  0  0  0  0  0  0  0  0  0  0  0
  144.2939   71.7938  217.5193 H   0  0  0  0  0  0  0  0  0  0  0  0
  142.6113   73.1317  218.7813 H   0  0  0  0  0  0  0  0  0  0  0  0
  143.2834   71.6735  219.6277 H   0  0  0  0  0  0  0  0  0  0  0  0
  144.3634   75.4151  220.9442 H   0  0  0  0  0  0  0  0  0  0  0  0
  143.9616   75.2114  219.2087 H   0  0  0  0  0  0  0  0  0  0  0  0
  142.3006   77.2102  219.7061 H   0  0  0  0  0  0  0  0  0  0  0  0
  139.9273   77.6419  220.2537 H   0  0  0  0  0  0  0  0  0  0  0  0
  138.5716   75.8778  221.3883 H   0  0  0  0  0  0  0  0  0  0  0  0
  138.3782   73.5928  222.4077 H   0  0  0  0  0  0  0  0  0  0  0  0
  140.5710   71.8171  221.6719 H   0  0  0  0  0  0  0  0  0  0  0  0
  141.6064   72.7660  226.8440 H   0  0  0  0  0  0  0  0  0  0  0  0
  141.5774   71.5345  229.0094 H   0  0  0  0  0  0  0  0  0  0  0  0
  140.4092   69.3889  229.2564 H   0  0  0  0  0  0  0  0  0  0  0  0
  139.1922   68.3787  227.2929 H   0  0  0  0  0  0  0  0  0  0  0  0
  139.0837   69.5455  221.7784 H   0  0  0  0  0  0  0  0  0  0  0  0
  138.1047   68.6225  223.0553 H   0  0  0  0  0  0  0  0  0  0  0  0
  137.3501   70.5747  221.1721 H   0  0  0  0  0  0  0  0  0  0  0  0
  135.1335   69.6330  221.7412 H   0  0  0  0  0  0  0  0  0  0  0  0
  136.3595   68.2961  221.7678 H   0  0  0  0  0  0  0  0  0  0  0  0
  134.5798   68.5732  223.6555 H   0  0  0  0  0  0  0  0  0  0  0  0
  136.3377   68.0985  223.9719 H   0  0  0  0  0  0  0  0  0  0  0  0
  134.9021   69.9546  225.3107 H   0  0  0  0  0  0  0  0  0  0  0  0
  136.7367   69.7755  225.1688 H   0  0  0  0  0  0  0  0  0  0  0  0
  134.8998   71.7093  223.8614 H   0  0  0  0  0  0  0  0  0  0  0  0
  136.4188   71.9333  224.8941 H   0  0  0  0  0  0  0  0  0  0  0  0
  136.2037   72.1290  222.1670 H   0  0  0  0  0  0  0  0  0  0  0  0
  137.6999   71.9676  223.2332 H   0  0  0  0  0  0  0  0  0  0  0  0
  141.9747   73.3178  221.3980 H   0  0  0  0  0  0  0  0  0  0  0  0
  145.3561   73.6818  221.7871 H   0  0  0  0  0  0  0  0  0  0  0  0
  144.9679   72.0004  221.2804 H   0  0  0  0  0  0  0  0  0  0  0  0
  146.3089   74.1161  219.5300 H   0  0  0  0  0  0  0  0  0  0  0  0
  147.1537   72.7783  220.3648 H   0  0  0  0  0  0  0  0  0  0  0  0
  1  2  1  0
  2  3  1  0
  3  4  1  0
  4  5  1  0
  5  6  1  0
  6  7  1  0
  7  8  2  0
  8  9  1  0
  9 10  2  0
 10 11  1  0
 11 12  1  0
 12 13  2  0
 13 14  1  0
 14 15  2  0
 15 16  1  0
 16 17  2  0
 17 18  1  0
 18 19  2  0
 19 20  1  0
 20 21  2  0
 21 22  1  0
 22 23  2  0
 22 24  1  0
 24 25  1  0
 25 26  1  0
 26 27  1  0
 27 28  1  0
 28 29  1  0
 29 30  1  0
 30 31  1  0
 11 32  2  0
  5 33  1  0
 33 34  1  0
 34  2  1  0
 32  7  1  0
 24 14  1  0
 31 26  1  0
 21 16  1  0
  1 35  1  0
  1 36  1  0
  1 37  1  0
  3 38  1  0
  3 39  1  0
  4 40  1  0
  4 41  1  0
  6 42  1  0
  6 43  1  0
  8 44  1  0
  9 45  1  0
 10 46  1  0
 12 47  1  0
 13 48  1  0
 17 49  1  0
 18 50  1  0
 19 51  1  0
 20 52  1  0
 25 53  1  0
 25 54  1  0
 26 55  1  0
 27 56  1  0
 27 57  1  0
 28 58  1  0
 28 59  1  0
 29 60  1  0
 29 61  1  0
 30 62  1  0
 30 63  1  0
 31 64  1  0
 31 65  1  0
 32 66  1  0
 33 67  1  0
 33 68  1  0
 34 69  1  0
 34 70  1  0
M  END
>  <smiles>  (46) 
CN1CCN(Cc2cccc(/C=C/c3nc4ccccc4c(=O)n3CC3CCCCC3)c2)CC1

>  <score_type>  (46) 
oracle

>  <origin>  (46) 
autodockgpu

>  <m_score__min__energy>  (46) 
-9.4000000000000004

>  <m_primary>  (46) 
energy

>  <rmsd>  (46) 
11.275857739959974

>  <m_score__min__rmsd>  (46) 
11.275857739959974

>  <meeko>  (46) 
{"free_energy": -8.71, "intermolecular_energy": -10.8, "internal_energy": -2.02, "cluster_size": 9, "cluster_id": 2, "rank_in_cluster": 9}

>  <energy>  (46) 
-7.48

>  <cluster_rmsd>  (46) 
0.0

>  <cluster>  (46) 
4

$$$$

     RDKit          3D

 70 74  0  0  0  0  0  0  0  0999 V2000
  142.2560   81.2660  223.6960 C   0  0  0  0  0  0  0  0  0  0  0  0
  141.0220   80.7930  223.1500 N   0  0  0  0  0  0  0  0  0  0  0  0
  141.0560   80.5550  221.7190 C   0  0  0  0  0  0  0  0  0  0  0  0
  141.8480   79.3430  221.3580 C   0  0  0  0  0  0  0  0  0  0  0  0
  141.4570   78.2070  222.1140 N   0  0  0  0  0  0  0  0  0  0  0  0
  140.3520   77.4530  221.6270 C   0  0  0  0  0  0  0  0  0  0  0  0
  140.8610   76.2430  220.9320 C   0  0  0  0  0  0  0  0  0  0  0  0
  141.3260   76.2380  219.6420 C   0  0  0  0  0  0  0  0  0  0  0  0
  141.7810   75.0750  219.0610 C   0  0  0  0  0  0  0  0  0  0  0  0
  141.7700   73.8830  219.7970 C   0  0  0  0  0  0  0  0  0  0  0  0
  141.3110   73.8580  221.0910 C   0  0  0  0  0  0  0  0  0  0  0  0
  141.2780   72.6270  221.9080 C   0  0  0  0  0  0  0  0  0  0  0  0
  140.2220   72.1600  222.4890 C   0  0  0  0  0  0  0  0  0  0  0  0
  140.0350   71.2940  223.6080 C   0  0  0  0  0  0  0  0  0  0  0  0
  140.5660   71.7510  224.7950 N   0  0  0  0  0  0  0  0  0  0  0  0
  140.5320   71.1330  225.9450 C   0  0  0  0  0  0  0  0  0  0  0  0
  141.1080   71.7190  227.0490 C   0  0  0  0  0  0  0  0  0  0  0  0
  141.0330   71.0070  228.2320 C   0  0  0  0  0  0  0  0  0  0  0  0
  140.4200   69.7750  228.3210 C   0  0  0  0  0  0  0  0  0  0  0  0
  139.8400   69.1960  227.1910 C   0  0  0  0  0  0  0  0  0  0  0  0
  139.9180   69.9080  226.0250 C   0  0  0  0  0  0  0  0  0  0  0  0
  139.3760   69.4150  224.8620 C   0  0  0  0  0  0  0  0  0  0  0  0
  138.8160   68.2910  224.9340 O   0  0  0  0  0  0  0  0  0  0  0  0
  139.4390   70.1110  223.6730 N   0  0  0  0  0  0  0  0  0  0  0  0
  138.8200   69.4620  222.5630 C   0  0  0  0  0  0  0  0  0  0  0  0
  137.6000   70.1000  222.0000 C   0  0  0  0  0  0  0  0  0  0  0  0
  136.5170   69.0310  221.8080 C   0  0  0  0  0  0  0  0  0  0  0  0
  135.9710   68.5580  223.1080 C   0  0  0  0  0  0  0  0  0  0  0  0
  135.9290   69.5600  224.2060 C   0  0  0  0  0  0  0  0  0  0  0  0
  136.0600   70.9860  223.8020 C   0  0  0  0  0  0  0  0  0  0  0  0
  137.0580   71.2850  222.7300 C   0  0  0  0  0  0  0  0  0  0  0  0
  140.8680   75.0520  221.6220 C   0  0  0  0  0  0  0  0  0  0  0  0
  141.5060   78.4630  223.5050 C   0  0  0  0  0  0  0  0  0  0  0  0
  140.5730   79.5990  223.8490 C   0  0  0  0  0  0  0  0  0  0  0  0
  142.2026   81.2455  224.7945 H   0  0  0  0  0  0  0  0  0  0  0  0
  143.0788   80.6195  223.3568 H   0  0  0  0  0  0  0  0  0  0  0  0
  142.4359   82.2968  223.3568 H   0  0  0  0  0  0  0  0  0  0  0  0
  140.0250   80.4223  221.3592 H   0  0  0  0  0  0  0  0  0  0  0  0
  141.5412   81.4227  221.2482 H   0  0  0  0  0  0  0  0  0  0  0  0
  141.6993   79.1269  220.2897 H   0  0  0  0  0  0  0  0  0  0  0  0
  142.9055   79.5503  221.5789 H   0  0  0  0  0  0  0  0  0  0  0  0
  139.7109   77.1525  222.4688 H   0  0  0  0  0  0  0  0  0  0  0  0
  139.7647   78.0646  220.9263 H   0  0  0  0  0  0  0  0  0  0  0  0
  141.3358   77.1740  219.0643 H   0  0  0  0  0  0  0  0  0  0  0  0
  142.1509   75.0821  218.0251 H   0  0  0  0  0  0  0  0  0  0  0  0
  142.1339   72.9548  219.3322 H   0  0  0  0  0  0  0  0  0  0  0  0
  142.2180   72.0690  222.0303 H   0  0  0  0  0  0  0  0  0  0  0  0
  139.2808   72.4968  222.0300 H   0  0  0  0  0  0  0  0  0  0  0  0
  141.6013   72.7006  226.9933 H   0  0  0  0  0  0  0  0  0  0  0  0
  141.4803   71.4408  229.1385 H   0  0  0  0  0  0  0  0  0  0  0  0
  140.3880   69.2469  229.2854 H   0  0  0  0  0  0  0  0  0  0  0  0
  139.3443   68.2150  227.2356 H   0  0  0  0  0  0  0  0  0  0  0  0
  139.5653   69.4023  221.7562 H   0  0  0  0  0  0  0  0  0  0  0  0
  138.4796   68.4918  222.9539 H   0  0  0  0  0  0  0  0  0  0  0  0
  137.9218   70.5301  221.0401 H   0  0  0  0  0  0  0  0  0  0  0  0
  135.6971   69.4579  221.2117 H   0  0  0  0  0  0  0  0  0  0  0  0
  136.9726   68.1710  221.2954 H   0  0  0  0  0  0  0  0  0  0  0  0
  134.9427   68.2086  222.9330 H   0  0  0  0  0  0  0  0  0  0  0  0
  136.6632   67.7747  223.4505 H   0  0  0  0  0  0  0  0  0  0  0  0
  134.9669   69.4462  224.7270 H   0  0  0  0  0  0  0  0  0  0  0  0
  136.8105   69.3494  224.8293 H   0  0  0  0  0  0  0  0  0  0  0  0
  135.0757   71.3247  223.4465 H   0  0  0  0  0  0  0  0  0  0  0  0
  136.4269   71.5102  224.6967 H   0  0  0  0  0  0  0  0  0  0  0  0
  136.5752   71.9439  221.9932 H   0  0  0  0  0  0  0  0  0  0  0  0
  137.9186   71.7415  223.2408 H   0  0  0  0  0  0  0  0  0  0  0  0
  140.4985   75.0521  222.6581 H   0  0  0  0  0  0  0  0  0  0  0  0
  141.1998   77.5600  224.0535 H   0  0  0  0  0  0  0  0  0  0  0  0
  142.5328   78.7380  223.7878 H   0  0  0  0  0  0  0  0  0  0  0  0
  139.5497   79.3472  223.5336 H   0  0  0  0  0  0  0  0  0  0  0  0
  140.5769   79.7742  224.9350 H   0  0  0  0  0  0  0  0  0  0  0  0
  1  2  1  0
  2  3  1  0
  3  4  1  0
  4  5  1  0
  5  6  1  0
  6  7  1  0
  7  8  2  0
  8  9  1  0
  9 10  2  0
 10 11  1  0
 11 12  1  0
 12 13  2  0
 13 14  1  0
 14 15  2  0
 15 16  1  0
 16 17  2  0
 17 18  1  0
 18 19  2  0
 19 20  1  0
 20 21  2  0
 21 22  1  0
 22 23  2  0
 22 24  1  0
 24 25  1  0
 25 26  1  0
 26 27  1  0
 27 28  1  0
 28 29  1  0
 29 30  1  0
 30 31  1  0
 11 32  2  0
  5 33  1  0
 33 34  1  0
 34  2  1  0
 32  7  1  0
 24 14  1  0
 31 26  1  0
 21 16  1  0
  1 35  1  0
  1 36  1  0
  1 37  1  0
  3 38  1  0
  3 39  1  0
  4 40  1  0
  4 41  1  0
  6 42  1  0
  6 43  1  0
  8 44  1  0
  9 45  1  0
 10 46  1  0
 12 47  1  0
 13 48  1  0
 17 49  1  0
 18 50  1  0
 19 51  1  0
 20 52  1  0
 25 53  1  0
 25 54  1  0
 26 55  1  0
 27 56  1  0
 27 57  1  0
 28 58  1  0
 28 59  1  0
 29 60  1  0
 29 61  1  0
 30 62  1  0
 30 63  1  0
 31 64  1  0
 31 65  1  0
 32 66  1  0
 33 67  1  0
 33 68  1  0
 34 69  1  0
 34 70  1  0
M  END
>  <smiles>  (47) 
CN1CCN(Cc2cccc(/C=C/c3nc4ccccc4c(=O)n3CC3CCCCC3)c2)CC1

>  <score_type>  (47) 
oracle

>  <origin>  (47) 
autodockgpu

>  <m_score__min__energy>  (47) 
-9.4000000000000004

>  <m_primary>  (47) 
energy

>  <rmsd>  (47) 
11.252841338288134

>  <m_score__min__rmsd>  (47) 
11.252841338288134

>  <meeko>  (47) 
{"free_energy": -8.74, "intermolecular_energy": -10.83, "internal_energy": -1.87, "cluster_size": 35, "cluster_id": 1, "rank_in_cluster": 21}

>  <energy>  (47) 
-7.09

>  <cluster_rmsd>  (47) 
0.65

>  <cluster>  (47) 
4

$$$$

     RDKit          3D

 70 74  0  0  0  0  0  0  0  0999 V2000
  133.2220   67.1750  223.5990 C   0  0  0  0  0  0  0  0  0  0  0  0
  134.4100   67.7590  224.1420 N   0  0  0  0  0  0  0  0  0  0  0  0
  135.0580   68.7150  223.2630 C   0  0  0  0  0  0  0  0  0  0  0  0
  134.3020   69.9970  223.1540 C   0  0  0  0  0  0  0  0  0  0  0  0
  133.9710   70.5290  224.4270 N   0  0  0  0  0  0  0  0  0  0  0  0
  134.9530   71.3320  225.0710 C   0  0  0  0  0  0  0  0  0  0  0  0
  135.5580   72.2520  224.0740 C   0  0  0  0  0  0  0  0  0  0  0  0
  135.0290   73.4710  223.7370 C   0  0  0  0  0  0  0  0  0  0  0  0
  135.6440   74.2710  222.7990 C   0  0  0  0  0  0  0  0  0  0  0  0
  136.8250   73.8340  222.1840 C   0  0  0  0  0  0  0  0  0  0  0  0
  137.3770   72.6180  222.5020 C   0  0  0  0  0  0  0  0  0  0  0  0
  138.6180   72.1120  221.8800 C   0  0  0  0  0  0  0  0  0  0  0  0
  139.2970   71.1010  222.3130 C   0  0  0  0  0  0  0  0  0  0  0  0
  139.4230   70.4970  223.6000 C   0  0  0  0  0  0  0  0  0  0  0  0
  140.0700   71.2640  224.5440 N   0  0  0  0  0  0  0  0  0  0  0  0
  140.3150   70.9220  225.7800 C   0  0  0  0  0  0  0  0  0  0  0  0
  140.9740   71.8000  226.6110 C   0  0  0  0  0  0  0  0  0  0  0  0
  141.1980   71.3710  227.9060 C   0  0  0  0  0  0  0  0  0  0  0  0
  140.7910   70.1340  228.3600 C   0  0  0  0  0  0  0  0  0  0  0  0
  140.1220   69.2560  227.5050 C   0  0  0  0  0  0  0  0  0  0  0  0
  139.9050   69.6900  226.2240 C   0  0  0  0  0  0  0  0  0  0  0  0
  139.2550   68.8930  225.3130 C   0  0  0  0  0  0  0  0  0  0  0  0
  138.8820   67.7620  225.7190 O   0  0  0  0  0  0  0  0  0  0  0  0
  139.0210   69.3030  224.0170 N   0  0  0  0  0  0  0  0  0  0  0  0
  138.3280   68.3590  223.2030 C   0  0  0  0  0  0  0  0  0  0  0  0
  139.1150   67.6720  222.1440 C   0  0  0  0  0  0  0  0  0  0  0  0
  138.7710   66.1770  222.1530 C   0  0  0  0  0  0  0  0  0  0  0  0
  137.3970   65.9230  221.6420 C   0  0  0  0  0  0  0  0  0  0  0  0
  136.9010   66.8590  220.5980 C   0  0  0  0  0  0  0  0  0  0  0  0
  137.9310   67.6810  219.9080 C   0  0  0  0  0  0  0  0  0  0  0  0
  139.0260   68.2330  220.7630 C   0  0  0  0  0  0  0  0  0  0  0  0
  136.7180   71.8590  223.4470 C   0  0  0  0  0  0  0  0  0  0  0  0
  133.2780   69.5860  225.2230 C   0  0  0  0  0  0  0  0  0  0  0  0
  134.1410   68.3660  225.4360 C   0  0  0  0  0  0  0  0  0  0  0  0
  132.5644   66.8517  224.4194 H   0  0  0  0  0  0  0  0  0  0  0  0
  132.6979   67.9182  222.9801 H   0  0  0  0  0  0  0  0  0  0  0  0
  133.4904   66.3061  222.9801 H   0  0  0  0  0  0  0  0  0  0  0  0
  136.0626   68.9305  223.6559 H   0  0  0  0  0  0  0  0  0  0  0  0
  135.1029   68.2678  222.2590 H   0  0  0  0  0  0  0  0  0  0  0  0
  134.9200   70.7288  222.6131 H   0  0  0  0  0  0  0  0  0  0  0  0
  133.3640   69.7936  222.6166 H   0  0  0  0  0  0  0  0  0  0  0  0
  134.4814   71.9175  225.8740 H   0  0  0  0  0  0  0  0  0  0  0  0
  135.7334   70.6882  225.5029 H   0  0  0  0  0  0  0  0  0  0  0  0
  134.1028   73.8143  224.2211 H   0  0  0  0  0  0  0  0  0  0  0  0
  135.2107   75.2468  222.5344 H   0  0  0  0  0  0  0  0  0  0  0  0
  137.3163   74.4740  221.4364 H   0  0  0  0  0  0  0  0  0  0  0  0
  138.9903   72.6324  220.9853 H   0  0  0  0  0  0  0  0  0  0  0  0
  139.8974   70.6078  221.5344 H   0  0  0  0  0  0  0  0  0  0  0  0
  141.3046   72.7898  226.2631 H   0  0  0  0  0  0  0  0  0  0  0  0
  141.7216   72.0430  228.6019 H   0  0  0  0  0  0  0  0  0  0  0  0
  140.9942   69.8379  229.3997 H   0  0  0  0  0  0  0  0  0  0  0  0
  139.7858   68.2648  227.8434 H   0  0  0  0  0  0  0  0  0  0  0  0
  137.9200   67.5839  223.8684 H   0  0  0  0  0  0  0  0  0  0  0  0
  137.5747   68.9492  222.6606 H   0  0  0  0  0  0  0  0  0  0  0  0
  140.1670   67.8493  222.4120 H   0  0  0  0  0  0  0  0  0  0  0  0
  139.4918   65.6420  221.5173 H   0  0  0  0  0  0  0  0  0  0  0  0
  138.8203   65.8211  223.1927 H   0  0  0  0  0  0  0  0  0  0  0  0
  137.3788   64.9079  221.2186 H   0  0  0  0  0  0  0  0  0  0  0  0
  136.7308   66.0656  222.5056 H   0  0  0  0  0  0  0  0  0  0  0  0
  136.3801   66.2634  219.8338 H   0  0  0  0  0  0  0  0  0  0  0  0
  136.2590   67.5774  221.1287 H   0  0  0  0  0  0  0  0  0  0  0  0
  138.3959   67.0533  219.1335 H   0  0  0  0  0  0  0  0  0  0  0  0
  137.3923   68.5589  219.5218 H   0  0  0  0  0  0  0  0  0  0  0  0
  139.9822   68.0363  220.2561 H   0  0  0  0  0  0  0  0  0  0  0  0
  138.7987   69.3020  220.8879 H   0  0  0  0  0  0  0  0  0  0  0  0
  137.1454   70.8815  223.7152 H   0  0  0  0  0  0  0  0  0  0  0  0
  133.0363   70.0371  226.1967 H   0  0  0  0  0  0  0  0  0  0  0  0
  132.3501   69.2903  224.7116 H   0  0  0  0  0  0  0  0  0  0  0  0
  135.0881   68.6600  225.9119 H   0  0  0  0  0  0  0  0  0  0  0  0
  133.6234   67.6477  226.0888 H   0  0  0  0  0  0  0  0  0  0  0  0
  1  2  1  0
  2  3  1  0
  3  4  1  0
  4  5  1  0
  5  6  1  0
  6  7  1  0
  7  8  2  0
  8  9  1  0
  9 10  2  0
 10 11  1  0
 11 12  1  0
 12 13  2  0
 13 14  1  0
 14 15  2  0
 15 16  1  0
 16 17  2  0
 17 18  1  0
 18 19  2  0
 19 20  1  0
 20 21  2  0
 21 22  1  0
 22 23  2  0
 22 24  1  0
 24 25  1  0
 25 26  1  0
 26 27  1  0
 27 28  1  0
 28 29  1  0
 29 30  1  0
 30 31  1  0
 11 32  2  0
  5 33  1  0
 33 34  1  0
 34  2  1  0
 32  7  1  0
 24 14  1  0
 31 26  1  0
 21 16  1  0
  1 35  1  0
  1 36  1  0
  1 37  1  0
  3 38  1  0
  3 39  1  0
  4 40  1  0
  4 41  1  0
  6 42  1  0
  6 43  1  0
  8 44  1  0
  9 45  1  0
 10 46  1  0
 12 47  1  0
 13 48  1  0
 17 49  1  0
 18 50  1  0
 19 51  1  0
 20 52  1  0
 25 53  1  0
 25 54  1  0
 26 55  1  0
 27 56  1  0
 27 57  1  0
 28 58  1  0
 28 59  1  0
 29 60  1  0
 29 61  1  0
 30 62  1  0
 30 63  1  0
 31 64  1  0
 31 65  1  0
 32 66  1  0
 33 67  1  0
 33 68  1  0
 34 69  1  0
 34 70  1  0
M  END
>  <smiles>  (48) 
CN1CCN(Cc2cccc(/C=C/c3nc4ccccc4c(=O)n3CC3CCCCC3)c2)CC1

>  <score_type>  (48) 
oracle

>  <origin>  (48) 
autodockgpu

>  <m_score__min__energy>  (48) 
-9.4000000000000004

>  <m_primary>  (48) 
energy

>  <rmsd>  (48) 
11.783803328343518

>  <m_score__min__rmsd>  (48) 
11.783803328343518

>  <meeko>  (48) 
{"free_energy": -7.3, "intermolecular_energy": -9.38, "internal_energy": -2.87, "cluster_size": 2, "cluster_id": 5, "rank_in_cluster": 2}

>  <energy>  (48) 
-7.35

>  <cluster_rmsd>  (48) 
0.0

>  <cluster>  (48) 
5

$$$$

     RDKit          3D

 70 74  0  0  0  0  0  0  0  0999 V2000
  142.8250   80.1380  223.4510 C   0  0  0  0  0  0  0  0  0  0  0  0
  141.5820   80.3100  222.7670 N   0  0  0  0  0  0  0  0  0  0  0  0
  141.6510   80.0690  221.3370 C   0  0  0  0  0  0  0  0  0  0  0  0
  141.8000   78.6210  221.0070 C   0  0  0  0  0  0  0  0  0  0  0  0
  140.8350   77.8210  221.6720 N   0  0  0  0  0  0  0  0  0  0  0  0
  139.5630   77.6840  221.0480 C   0  0  0  0  0  0  0  0  0  0  0  0
  138.9410   76.4100  221.4910 C   0  0  0  0  0  0  0  0  0  0  0  0
  137.6990   76.3230  222.0660 C   0  0  0  0  0  0  0  0  0  0  0  0
  137.1870   75.1050  222.4550 C   0  0  0  0  0  0  0  0  0  0  0  0
  137.9430   73.9410  222.2600 C   0  0  0  0  0  0  0  0  0  0  0  0
  139.1890   73.9980  221.6870 C   0  0  0  0  0  0  0  0  0  0  0  0
  140.0260   72.8020  221.4620 C   0  0  0  0  0  0  0  0  0  0  0  0
  140.6930   72.1880  222.3830 C   0  0  0  0  0  0  0  0  0  0  0  0
  140.2960   71.4130  223.5140 C   0  0  0  0  0  0  0  0  0  0  0  0
  140.7310   71.8910  224.7310 N   0  0  0  0  0  0  0  0  0  0  0  0
  140.5080   71.3490  225.8980 C   0  0  0  0  0  0  0  0  0  0  0  0
  141.0100   71.9460  227.0320 C   0  0  0  0  0  0  0  0  0  0  0  0
  140.7330   71.3170  228.2320 C   0  0  0  0  0  0  0  0  0  0  0  0
  139.9950   70.1550  228.3090 C   0  0  0  0  0  0  0  0  0  0  0  0
  139.4910   69.5640  227.1490 C   0  0  0  0  0  0  0  0  0  0  0  0
  139.7710   70.1930  225.9650 C   0  0  0  0  0  0  0  0  0  0  0  0
  139.3170   69.6830  224.7730 C   0  0  0  0  0  0  0  0  0  0  0  0
  138.6450   68.6210  224.8340 O   0  0  0  0  0  0  0  0  0  0  0  0
  139.5820   70.2960  223.5660 N   0  0  0  0  0  0  0  0  0  0  0  0
  139.0320   69.6400  222.4250 C   0  0  0  0  0  0  0  0  0  0  0  0
  137.7820   70.2090  221.8550 C   0  0  0  0  0  0  0  0  0  0  0  0
  136.9300   69.0720  221.2780 C   0  0  0  0  0  0  0  0  0  0  0  0
  136.3470   68.2200  222.3490 C   0  0  0  0  0  0  0  0  0  0  0  0
  136.0180   68.9050  223.6270 C   0  0  0  0  0  0  0  0  0  0  0  0
  135.9360   70.3900  223.5760 C   0  0  0  0  0  0  0  0  0  0  0  0
  136.9680   71.0860  222.7490 C   0  0  0  0  0  0  0  0  0  0  0  0
  139.6520   75.2450  221.3170 C   0  0  0  0  0  0  0  0  0  0  0  0
  140.8510   78.0380  223.0710 C   0  0  0  0  0  0  0  0  0  0  0  0
  140.5450   79.4860  223.3670 C   0  0  0  0  0  0  0  0  0  0  0  0
  142.6522   80.1619  224.5371 H   0  0  0  0  0  0  0  0  0  0  0  0
  143.2666   79.1702  223.1712 H   0  0  0  0  0  0  0  0  0  0  0  0
  143.5128   80.9495  223.1712 H   0  0  0  0  0  0  0  0  0  0  0  0
  140.7275   80.4435  220.8714 H   0  0  0  0  0  0  0  0  0  0  0  0
  142.5391   80.5921  220.9528 H   0  0  0  0  0  0  0  0  0  0  0  0
  141.6818   78.4905  219.9212 H   0  0  0  0  0  0  0  0  0  0  0  0
  142.7970   78.2978  221.3411 H   0  0  0  0  0  0  0  0  0  0  0  0
  138.9188   78.5282  221.3350 H   0  0  0  0  0  0  0  0  0  0  0  0
  139.6845   77.6775  219.9548 H   0  0  0  0  0  0  0  0  0  0  0  0
  137.1050   77.2362  222.2182 H   0  0  0  0  0  0  0  0  0  0  0  0
  136.1901   75.0461  222.9163 H   0  0  0  0  0  0  0  0  0  0  0  0
  137.5323   72.9689  222.5703 H   0  0  0  0  0  0  0  0  0  0  0  0
  140.0859   72.4057  220.4376 H   0  0  0  0  0  0  0  0  0  0  0  0
  141.7836   72.2812  222.2736 H   0  0  0  0  0  0  0  0  0  0  0  0
  141.5997   72.8734  226.9862 H   0  0  0  0  0  0  0  0  0  0  0  0
  141.1168   71.7615  229.1621 H   0  0  0  0  0  0  0  0  0  0  0  0
  139.8026   69.6919  229.2880 H   0  0  0  0  0  0  0  0  0  0  0  0
  138.8979   68.6383  227.1842 H   0  0  0  0  0  0  0  0  0  0  0  0
  139.7952   69.6566  221.6330 H   0  0  0  0  0  0  0  0  0  0  0  0
  138.7528   68.6370  222.7799 H   0  0  0  0  0  0  0  0  0  0  0  0
  138.1184   70.9038  221.0713 H   0  0  0  0  0  0  0  0  0  0  0  0
  136.1124   69.5061  220.6838 H   0  0  0  0  0  0  0  0  0  0  0  0
  137.5799   68.4404  220.6545 H   0  0  0  0  0  0  0  0  0  0  0  0
  135.4196   67.7766  221.9575 H   0  0  0  0  0  0  0  0  0  0  0  0
  137.1283   67.4876  222.6004 H   0  0  0  0  0  0  0  0  0  0  0  0
  135.0432   68.5269  223.9688 H   0  0  0  0  0  0  0  0  0  0  0  0
  136.8548   68.6802  224.3046 H   0  0  0  0  0  0  0  0  0  0  0  0
  134.9482   70.6566  223.1720 H   0  0  0  0  0  0  0  0  0  0  0  0
  136.1133   70.7273  224.6079 H   0  0  0  0  0  0  0  0  0  0  0  0
  136.4530   71.8259  222.1187 H   0  0  0  0  0  0  0  0  0  0  0  0
  137.6783   71.5260  223.4644 H   0  0  0  0  0  0  0  0  0  0  0  0
  140.6484   75.3110  220.8557 H   0  0  0  0  0  0  0  0  0  0  0  0
  140.0930   77.3996  223.5483 H   0  0  0  0  0  0  0  0  0  0  0  0
  141.8470   77.7891  223.4659 H   0  0  0  0  0  0  0  0  0  0  0  0
  139.5666   79.7528  222.9410 H   0  0  0  0  0  0  0  0  0  0  0  0
  140.5162   79.6499  224.4543 H   0  0  0  0  0  0  0  0  0  0  0  0
  1  2  1  0
  2  3  1  0
  3  4  1  0
  4  5  1  0
  5  6  1  0
  6  7  1  0
  7  8  2  0
  8  9  1  0
  9 10  2  0
 10 11  1  0
 11 12  1  0
 12 13  2  0
 13 14  1  0
 14 15  2  0
 15 16  1  0
 16 17  2  0
 17 18  1  0
 18 19  2  0
 19 20  1  0
 20 21  2  0
 21 22  1  0
 22 23  2  0
 22 24  1  0
 24 25  1  0
 25 26  1  0
 26 27  1  0
 27 28  1  0
 28 29  1  0
 29 30  1  0
 30 31  1  0
 11 32  2  0
  5 33  1  0
 33 34  1  0
 34  2  1  0
 32  7  1  0
 24 14  1  0
 31 26  1  0
 21 16  1  0
  1 35  1  0
  1 36  1  0
  1 37  1  0
  3 38  1  0
  3 39  1  0
  4 40  1  0
  4 41  1  0
  6 42  1  0
  6 43  1  0
  8 44  1  0
  9 45  1  0
 10 46  1  0
 12 47  1  0
 13 48  1  0
 17 49  1  0
 18 50  1  0
 19 51  1  0
 20 52  1  0
 25 53  1  0
 25 54  1  0
 26 55  1  0
 27 56  1  0
 27 57  1  0
 28 58  1  0
 28 59  1  0
 29 60  1  0
 29 61  1  0
 30 62  1  0
 30 63  1  0
 31 64  1  0
 31 65  1  0
 32 66  1  0
 33 67  1  0
 33 68  1  0
 34 69  1  0
 34 70  1  0
M  END
>  <smiles>  (49) 
CN1CCN(Cc2cccc(/C=C/c3nc4ccccc4c(=O)n3CC3CCCCC3)c2)CC1

>  <score_type>  (49) 
oracle

>  <origin>  (49) 
autodockgpu

>  <m_score__min__energy>  (49) 
-9.4000000000000004

>  <m_primary>  (49) 
energy

>  <rmsd>  (49) 
10.988537652353822

>  <m_score__min__rmsd>  (49) 
10.988537652353822

>  <meeko>  (49) 
{"free_energy": -7.94, "intermolecular_energy": -10.03, "internal_energy": -2.32, "cluster_size": 35, "cluster_id": 1, "rank_in_cluster": 35}

>  <energy>  (49) 
-7.3

>  <cluster_rmsd>  (49) 
0.54

>  <cluster>  (49) 
5

$$$$

     RDKit          3D

 70 74  0  0  0  0  0  0  0  0999 V2000
  133.1420   67.0550  223.7630 C   0  0  0  0  0  0  0  0  0  0  0  0
  134.3130   67.7150  224.2510 N   0  0  0  0  0  0  0  0  0  0  0  0
  134.7330   68.8500  223.4490 C   0  0  0  0  0  0  0  0  0  0  0  0
  133.8280   70.0270  223.6030 C   0  0  0  0  0  0  0  0  0  0  0  0
  133.5980   70.3470  224.9660 N   0  0  0  0  0  0  0  0  0  0  0  0
  134.5560   71.1840  225.6060 C   0  0  0  0  0  0  0  0  0  0  0  0
  135.0750   72.1670  224.6220 C   0  0  0  0  0  0  0  0  0  0  0  0
  134.5000   73.3890  224.3830 C   0  0  0  0  0  0  0  0  0  0  0  0
  135.0380   74.2500  223.4520 C   0  0  0  0  0  0  0  0  0  0  0  0
  136.1850   73.8740  222.7410 C   0  0  0  0  0  0  0  0  0  0  0  0
  136.7820   72.6560  222.9590 C   0  0  0  0  0  0  0  0  0  0  0  0
  137.9910   72.2130  222.2350 C   0  0  0  0  0  0  0  0  0  0  0  0
  138.6820   71.1630  222.5350 C   0  0  0  0  0  0  0  0  0  0  0  0
  138.9920   70.5270  223.7740 C   0  0  0  0  0  0  0  0  0  0  0  0
  139.6750   71.3110  224.6780 N   0  0  0  0  0  0  0  0  0  0  0  0
  140.0770   70.9470  225.8660 C   0  0  0  0  0  0  0  0  0  0  0  0
  140.7520   71.8470  226.6600 C   0  0  0  0  0  0  0  0  0  0  0  0
  141.1460   71.3930  227.9060 C   0  0  0  0  0  0  0  0  0  0  0  0
  140.8870   70.1120  228.3460 C   0  0  0  0  0  0  0  0  0  0  0  0
  140.2000   69.2130  227.5290 C   0  0  0  0  0  0  0  0  0  0  0  0
  139.8140   69.6710  226.2980 C   0  0  0  0  0  0  0  0  0  0  0  0
  139.1330   68.8560  225.4260 C   0  0  0  0  0  0  0  0  0  0  0  0
  138.8940   67.6850  225.8190 O   0  0  0  0  0  0  0  0  0  0  0  0
  138.7300   69.2910  224.1800 N   0  0  0  0  0  0  0  0  0  0  0  0
  138.0290   68.3220  223.4020 C   0  0  0  0  0  0  0  0  0  0  0  0
  138.8150   67.5700  222.3890 C   0  0  0  0  0  0  0  0  0  0  0  0
  138.0580   66.2910  222.0130 C   0  0  0  0  0  0  0  0  0  0  0  0
  136.8390   66.5850  221.2110 C   0  0  0  0  0  0  0  0  0  0  0  0
  136.9120   67.7710  220.3170 C   0  0  0  0  0  0  0  0  0  0  0  0
  138.2750   68.2920  220.0240 C   0  0  0  0  0  0  0  0  0  0  0  0
  139.2380   68.3190  221.1680 C   0  0  0  0  0  0  0  0  0  0  0  0
  136.2010   71.8350  223.9040 C   0  0  0  0  0  0  0  0  0  0  0  0
  133.1230   69.2300  225.6930 C   0  0  0  0  0  0  0  0  0  0  0  0
  134.1390   68.1150  225.6380 C   0  0  0  0  0  0  0  0  0  0  0  0
  132.5334   66.7120  224.6127 H   0  0  0  0  0  0  0  0  0  0  0  0
  132.5549   67.7551  223.1505 H   0  0  0  0  0  0  0  0  0  0  0  0
  133.4369   66.1902  223.1505 H   0  0  0  0  0  0  0  0  0  0  0  0
  135.7476   69.1429  223.7568 H   0  0  0  0  0  0  0  0  0  0  0  0
  134.7028   68.5419  222.3935 H   0  0  0  0  0  0  0  0  0  0  0  0
  134.2871   70.8950  223.1072 H   0  0  0  0  0  0  0  0  0  0  0  0
  132.8602   69.7730  223.1461 H   0  0  0  0  0  0  0  0  0  0  0  0
  134.0799   71.7163  226.4426 H   0  0  0  0  0  0  0  0  0  0  0  0
  135.3847   70.5720  225.9915 H   0  0  0  0  0  0  0  0  0  0  0  0
  133.5993   73.6848  224.9409 H   0  0  0  0  0  0  0  0  0  0  0  0
  134.5693   75.2279  223.2677 H   0  0  0  0  0  0  0  0  0  0  0  0
  136.6133   74.5631  221.9983 H   0  0  0  0  0  0  0  0  0  0  0  0
  138.3266   72.8193  221.3807 H   0  0  0  0  0  0  0  0  0  0  0  0
  139.1185   70.6587  221.6602 H   0  0  0  0  0  0  0  0  0  0  0  0
  140.9664   72.8716  226.3219 H   0  0  0  0  0  0  0  0  0  0  0  0
  141.6873   72.0810  228.5721 H   0  0  0  0  0  0  0  0  0  0  0  0
  141.2233   69.7975  229.3450 H   0  0  0  0  0  0  0  0  0  0  0  0
  139.9795   68.1868  227.8580 H   0  0  0  0  0  0  0  0  0  0  0  0
  137.5969   67.5879  224.0979 H   0  0  0  0  0  0  0  0  0  0  0  0
  137.2952   68.9001  222.8212 H   0  0  0  0  0  0  0  0  0  0  0  0
  139.7722   67.3459  222.8826 H   0  0  0  0  0  0  0  0  0  0  0  0
  138.7240   65.6433  221.4239 H   0  0  0  0  0  0  0  0  0  0  0  0
  137.7437   65.7942  222.9427 H   0  0  0  0  0  0  0  0  0  0  0  0
  136.6288   65.7052  220.5850 H   0  0  0  0  0  0  0  0  0  0  0  0
  136.0527   66.8170  221.9445 H   0  0  0  0  0  0  0  0  0  0  0  0
  136.4442   67.4984  219.3595 H   0  0  0  0  0  0  0  0  0  0  0  0
  136.3989   68.5792  220.8588 H   0  0  0  0  0  0  0  0  0  0  0  0
  138.7111   67.6623  219.2345 H   0  0  0  0  0  0  0  0  0  0  0  0
  138.1300   69.3447  219.7399 H   0  0  0  0  0  0  0  0  0  0  0  0
  140.1885   67.8884  220.8198 H   0  0  0  0  0  0  0  0  0  0  0  0
  139.3110   69.3732  221.4734 H   0  0  0  0  0  0  0  0  0  0  0  0
  136.6659   70.8565  224.0947 H   0  0  0  0  0  0  0  0  0  0  0  0
  132.9557   69.5204  226.7407 H   0  0  0  0  0  0  0  0  0  0  0  0
  132.1782   68.8828  225.2494 H   0  0  0  0  0  0  0  0  0  0  0  0
  135.0982   68.4671  226.0454 H   0  0  0  0  0  0  0  0  0  0  0  0
  133.7911   67.2594  226.2354 H   0  0  0  0  0  0  0  0  0  0  0  0
  1  2  1  0
  2  3  1  0
  3  4  1  0
  4  5  1  0
  5  6  1  0
  6  7  1  0
  7  8  2  0
  8  9  1  0
  9 10  2  0
 10 11  1  0
 11 12  1  0
 12 13  2  0
 13 14  1  0
 14 15  2  0
 15 16  1  0
 16 17  2  0
 17 18  1  0
 18 19  2  0
 19 20  1  0
 20 21  2  0
 21 22  1  0
 22 23  2  0
 22 24  1  0
 24 25  1  0
 25 26  1  0
 26 27  1  0
 27 28  1  0
 28 29  1  0
 29 30  1  0
 30 31  1  0
 11 32  2  0
  5 33  1  0
 33 34  1  0
 34  2  1  0
 32  7  1  0
 24 14  1  0
 31 26  1  0
 21 16  1  0
  1 35  1  0
  1 36  1  0
  1 37  1  0
  3 38  1  0
  3 39  1  0
  4 40  1  0
  4 41  1  0
  6 42  1  0
  6 43  1  0
  8 44  1  0
  9 45  1  0
 10 46  1  0
 12 47  1  0
 13 48  1  0
 17 49  1  0
 18 50  1  0
 19 51  1  0
 20 52  1  0
 25 53  1  0
 25 54  1  0
 26 55  1  0
 27 56  1  0
 27 57  1  0
 28 58  1  0
 28 59  1  0
 29 60  1  0
 29 61  1  0
 30 62  1  0
 30 63  1  0
 31 64  1  0
 31 65  1  0
 32 66  1  0
 33 67  1  0
 33 68  1  0
 34 69  1  0
 34 70  1  0
M  END
>  <smiles>  (50) 
CN1CCN(Cc2cccc(/C=C/c3nc4ccccc4c(=O)n3CC3CCCCC3)c2)CC1

>  <score_type>  (50) 
oracle

>  <origin>  (50) 
autodockgpu

>  <m_score__min__energy>  (50) 
-9.4000000000000004

>  <m_primary>  (50) 
energy

>  <rmsd>  (50) 
11.681842372812344

>  <m_score__min__rmsd>  (50) 
11.681842372812344

>  <meeko>  (50) 
{"free_energy": -7.35, "intermolecular_energy": -9.44, "internal_energy": -2.88, "cluster_size": 2, "cluster_id": 5, "rank_in_cluster": 1}

>  <energy>  (50) 
-6.27

>  <cluster_rmsd>  (50) 
0.0

>  <cluster>  (50) 
6

$$$$
