
     RDKit          3D

 48 50  0  0  0  0  0  0  0  0999 V2000
  140.3690   71.8520  223.9410 C   0  0  0  0  0  0  0  0  0  0  0  0
  140.0730   70.5860  224.4860 N   0  0  0  0  0  0  0  0  0  0  0  0
  139.0300   69.8580  223.8870 C   0  0  0  0  0  0  0  0  0  0  0  0
  138.0820   70.6390  223.0180 C   0  0  0  0  0  0  0  0  0  0  0  0
  137.1340   71.4020  223.7910 N   0  0  0  0  0  0  0  0  0  0  0  0
  135.8840   70.8840  224.2350 C   0  0  0  0  0  0  0  0  0  0  0  0
  135.5150   69.7110  223.9780 O   0  0  0  0  0  0  0  0  0  0  0  0
  134.9860   71.7540  225.0270 C   0  0  0  0  0  0  0  0  0  0  0  0
  134.0020   71.2080  225.8020 C   0  0  0  0  0  0  0  0  0  0  0  0
  133.1760   72.0460  226.5330 C   0  0  0  0  0  0  0  0  0  0  0  0
  133.3260   73.4310  226.4960 C   0  0  0  0  0  0  0  0  0  0  0  0
  132.5060   74.2680  227.2220 C   0  0  0  0  0  0  0  0  0  0  0  0
  132.6630   75.6570  227.1810 C   0  0  0  0  0  0  0  0  0  0  0  0
  131.6180   76.7030  228.1060 Cl  0  0  0  0  0  0  0  0  0  0  0  0
  133.6830   76.1340  226.3730 C   0  0  0  0  0  0  0  0  0  0  0  0
  134.4940   75.2940  225.6540 C   0  0  0  0  0  0  0  0  0  0  0  0
  134.3300   73.9260  225.7020 C   0  0  0  0  0  0  0  0  0  0  0  0
  135.1260   73.1010  224.9960 N   0  0  0  0  0  0  0  0  0  0  0  0
  140.4300   70.3370  225.8290 C   0  0  0  0  0  0  0  0  0  0  0  0
  139.4100   69.3140  226.3610 C   0  0  0  0  0  0  0  0  0  0  0  0
  139.6860   69.0660  227.8220 C   0  0  0  0  0  0  0  0  0  0  0  0
  140.9860   69.6750  228.2700 C   0  0  0  0  0  0  0  0  0  0  0  0
  141.0880   71.1520  228.0400 C   0  0  0  0  0  0  0  0  0  0  0  0
  140.3890   71.5020  226.7480 C   0  0  0  0  0  0  0  0  0  0  0  0
  140.5373   72.5717  224.7557 H   0  0  0  0  0  0  0  0  0  0  0  0
  141.2749   71.7816  223.3210 H   0  0  0  0  0  0  0  0  0  0  0  0
  139.5258   72.1906  223.3210 H   0  0  0  0  0  0  0  0  0  0  0  0
  139.4843   69.0727  223.2650 H   0  0  0  0  0  0  0  0  0  0  0  0
  138.4194   69.4822  224.7212 H   0  0  0  0  0  0  0  0  0  0  0  0
  138.6646   71.3298  222.3908 H   0  0  0  0  0  0  0  0  0  0  0  0
  137.5168   69.9206  222.4061 H   0  0  0  0  0  0  0  0  0  0  0  0
  137.3450   72.3980  224.0590 H   0  0  0  0  0  0  0  0  0  0  0  0
  133.8675   70.1171  225.8449 H   0  0  0  0  0  0  0  0  0  0  0  0
  132.3832   71.6080  227.1572 H   0  0  0  0  0  0  0  0  0  0  0  0
  131.7114   73.8342  227.8468 H   0  0  0  0  0  0  0  0  0  0  0  0
  133.8470   77.2197  226.3064 H   0  0  0  0  0  0  0  0  0  0  0  0
  135.2909   75.7200  225.0267 H   0  0  0  0  0  0  0  0  0  0  0  0
  141.4792   70.0069  225.8141 H   0  0  0  0  0  0  0  0  0  0  0  0
  138.3912   69.7106  226.2395 H   0  0  0  0  0  0  0  0  0  0  0  0
  139.4981   68.3723  225.7993 H   0  0  0  0  0  0  0  0  0  0  0  0
  138.8685   69.5018  228.4151 H   0  0  0  0  0  0  0  0  0  0  0  0
  139.7556   67.9783  227.9708 H   0  0  0  0  0  0  0  0  0  0  0  0
  141.1017   69.4856  229.3474 H   0  0  0  0  0  0  0  0  0  0  0  0
  141.7772   69.2073  227.6656 H   0  0  0  0  0  0  0  0  0  0  0  0
  140.6108   71.6881  228.8736 H   0  0  0  0  0  0  0  0  0  0  0  0
  142.1466   71.4446  227.9788 H   0  0  0  0  0  0  0  0  0  0  0  0
  139.3420   71.7661  226.9580 H   0  0  0  0  0  0  0  0  0  0  0  0
  140.8969   72.3568  226.2775 H   0  0  0  0  0  0  0  0  0  0  0  0
  1  2  1  0
  2  3  1  0
  3  4  1  0
  4  5  1  0
  5  6  1  0
  6  7  2  0
  6  8  1  0
  8  9  2  0
  9 10  1  0
 10 11  2  0
 11 12  1  0
 12 13  2  0
 13 14  1  0
 13 15  1  0
 15 16  2  0
 16 17  1  0
 17 18  2  0
  2 19  1  0
 19 20  1  0
 20 21  1  0
 21 22  1  0
 22 23  1  0
 23 24  1  0
 18  8  1  0
 24 19  1  0
 17 11  1  0
  1 25  1  0
  1 26  1  0
  1 27  1  0
  3 28  1  0
  3 29  1  0
  4 30  1  0
  4 31  1  0
  5 32  1  0
  9 33  1  0
 10 34  1  0
 12 35  1  0
 15 36  1  0
 16 37  1  0
 19 38  1  0
 20 39  1  0
 20 40  1  0
 21 41  1  0
 21 42  1  0
 22 43  1  0
 22 44  1  0
 23 45  1  0
 23 46  1  0
 24 47  1  0
 24 48  1  0
M  END
>  <smiles>  (1) 
CN(CCNC(=O)c1ccc2cc(Cl)ccc2n1)C1CCCCC1

>  <score_type>  (1) 
oracle

>  <origin>  (1) 
autodockgpu

>  <m_score__min__energy>  (1) 
-8.2200000000000006

>  <m_primary>  (1) 
energy

>  <rmsd>  (1) 
7.860436806799653

>  <m_score__min__rmsd>  (1) 
7.860436806799653

>  <meeko>  (1) 
{"free_energy": -7.27, "intermolecular_energy": -8.77, "internal_energy": -1.29, "cluster_size": 17, "cluster_id": 3, "rank_in_cluster": 15}

>  <energy>  (1) 
-8.22

>  <cluster_rmsd>  (1) 
0.0

>  <cluster>  (1) 
1

$$$$

     RDKit          3D

 48 50  0  0  0  0  0  0  0  0999 V2000
  137.4840   70.9680  224.1990 C   0  0  0  0  0  0  0  0  0  0  0  0
  138.7230   70.3060  224.3040 N   0  0  0  0  0  0  0  0  0  0  0  0
  139.0090   69.3230  223.3390 C   0  0  0  0  0  0  0  0  0  0  0  0
  139.6770   69.7980  222.0780 C   0  0  0  0  0  0  0  0  0  0  0  0
  139.8660   71.2270  222.0640 N   0  0  0  0  0  0  0  0  0  0  0  0
  140.8200   71.8870  221.2380 C   0  0  0  0  0  0  0  0  0  0  0  0
  141.5740   71.2590  220.4540 O   0  0  0  0  0  0  0  0  0  0  0  0
  140.9290   73.3610  221.3010 C   0  0  0  0  0  0  0  0  0  0  0  0
  141.9950   74.0000  220.7340 C   0  0  0  0  0  0  0  0  0  0  0  0
  142.0710   75.3810  220.8080 C   0  0  0  0  0  0  0  0  0  0  0  0
  141.0870   76.1320  221.4480 C   0  0  0  0  0  0  0  0  0  0  0  0
  141.1580   77.5070  221.5240 C   0  0  0  0  0  0  0  0  0  0  0  0
  140.1670   78.2540  222.1670 C   0  0  0  0  0  0  0  0  0  0  0  0
  140.2720   79.9930  222.2550 Cl  0  0  0  0  0  0  0  0  0  0  0  0
  139.1180   77.5340  222.7170 C   0  0  0  0  0  0  0  0  0  0  0  0
  139.0540   76.1660  222.6380 C   0  0  0  0  0  0  0  0  0  0  0  0
  140.0380   75.4400  222.0010 C   0  0  0  0  0  0  0  0  0  0  0  0
  139.9750   74.0980  221.9220 N   0  0  0  0  0  0  0  0  0  0  0  0
  139.3540   70.2630  225.5660 C   0  0  0  0  0  0  0  0  0  0  0  0
  140.3400   71.4460  225.5930 C   0  0  0  0  0  0  0  0  0  0  0  0
  141.1090   71.4100  226.8880 C   0  0  0  0  0  0  0  0  0  0  0  0
  140.5440   70.4120  227.8610 C   0  0  0  0  0  0  0  0  0  0  0  0
  140.4790   69.0090  227.3400 C   0  0  0  0  0  0  0  0  0  0  0  0
  140.1410   69.0420  225.8680 C   0  0  0  0  0  0  0  0  0  0  0  0
  137.0933   71.1767  225.2059 H   0  0  0  0  0  0  0  0  0  0  0  0
  137.6188   71.9143  223.6546 H   0  0  0  0  0  0  0  0  0  0  0  0
  136.7723   70.3299  223.6546 H   0  0  0  0  0  0  0  0  0  0  0  0
  139.6685   68.5770  223.8065 H   0  0  0  0  0  0  0  0  0  0  0  0
  138.0311   68.9316  223.0220 H   0  0  0  0  0  0  0  0  0  0  0  0
  140.6593   69.3104  221.9928 H   0  0  0  0  0  0  0  0  0  0  0  0
  139.0241   69.5366  221.2322 H   0  0  0  0  0  0  0  0  0  0  0  0
  139.2860   71.8460  222.6870 H   0  0  0  0  0  0  0  0  0  0  0  0
  142.7829   73.4252  220.2252 H   0  0  0  0  0  0  0  0  0  0  0  0
  142.9282   75.8970  220.3509 H   0  0  0  0  0  0  0  0  0  0  0  0
  142.0134   78.0274  221.0685 H   0  0  0  0  0  0  0  0  0  0  0  0
  138.3119   78.0764  223.2328 H   0  0  0  0  0  0  0  0  0  0  0  0
  138.2018   75.6384  223.0913 H   0  0  0  0  0  0  0  0  0  0  0  0
  138.5488   70.2902  226.3149 H   0  0  0  0  0  0  0  0  0  0  0  0
  141.0379   71.3646  224.7466 H   0  0  0  0  0  0  0  0  0  0  0  0
  139.7875   72.3939  225.5135 H   0  0  0  0  0  0  0  0  0  0  0  0
  142.1533   71.1406  226.6717 H   0  0  0  0  0  0  0  0  0  0  0  0
  141.0377   72.4062  227.3490 H   0  0  0  0  0  0  0  0  0  0  0  0
  141.1743   70.4155  228.7625 H   0  0  0  0  0  0  0  0  0  0  0  0
  139.5075   70.7209  228.0616 H   0  0  0  0  0  0  0  0  0  0  0  0
  141.4527   68.5177  227.4832 H   0  0  0  0  0  0  0  0  0  0  0  0
  139.7057   68.4475  227.8847 H   0  0  0  0  0  0  0  0  0  0  0  0
  141.0700   69.0501  225.2790 H   0  0  0  0  0  0  0  0  0  0  0  0
  139.5489   68.1520  225.6088 H   0  0  0  0  0  0  0  0  0  0  0  0
  1  2  1  0
  2  3  1  0
  3  4  1  0
  4  5  1  0
  5  6  1  0
  6  7  2  0
  6  8  1  0
  8  9  2  0
  9 10  1  0
 10 11  2  0
 11 12  1  0
 12 13  2  0
 13 14  1  0
 13 15  1  0
 15 16  2  0
 16 17  1  0
 17 18  2  0
  2 19  1  0
 19 20  1  0
 20 21  1  0
 21 22  1  0
 22 23  1  0
 23 24  1  0
 18  8  1  0
 24 19  1  0
 17 11  1  0
  1 25  1  0
  1 26  1  0
  1 27  1  0
  3 28  1  0
  3 29  1  0
  4 30  1  0
  4 31  1  0
  5 32  1  0
  9 33  1  0
 10 34  1  0
 12 35  1  0
 15 36  1  0
 16 37  1  0
 19 38  1  0
 20 39  1  0
 20 40  1  0
 21 41  1  0
 21 42  1  0
 22 43  1  0
 22 44  1  0
 23 45  1  0
 23 46  1  0
 24 47  1  0
 24 48  1  0
M  END
>  <smiles>  (2) 
CN(CCNC(=O)c1ccc2cc(Cl)ccc2n1)C1CCCCC1

>  <score_type>  (2) 
oracle

>  <origin>  (2) 
autodockgpu

>  <m_score__min__energy>  (2) 
-8.2200000000000006

>  <m_primary>  (2) 
energy

>  <rmsd>  (2) 
8.128467973671299

>  <m_score__min__rmsd>  (2) 
8.128467973671299

>  <meeko>  (2) 
{"free_energy": -6.57, "intermolecular_energy": -8.06, "internal_energy": -1.89, "cluster_size": 22, "cluster_id": 2, "rank_in_cluster": 20}

>  <energy>  (2) 
-8.16

>  <cluster_rmsd>  (2) 
0.57

>  <cluster>  (2) 
1

$$$$

     RDKit          3D

 48 50  0  0  0  0  0  0  0  0999 V2000
  139.2520   71.4060  223.6270 C   0  0  0  0  0  0  0  0  0  0  0  0
  139.5470   70.3000  224.4490 N   0  0  0  0  0  0  0  0  0  0  0  0
  139.1990   69.0270  223.9620 C   0  0  0  0  0  0  0  0  0  0  0  0
  137.7290   68.7520  223.8000 C   0  0  0  0  0  0  0  0  0  0  0  0
  136.9120   69.7520  224.4400 N   0  0  0  0  0  0  0  0  0  0  0  0
  135.5280   69.5740  224.7250 C   0  0  0  0  0  0  0  0  0  0  0  0
  134.9150   68.5180  224.4310 O   0  0  0  0  0  0  0  0  0  0  0  0
  134.7830   70.6660  225.3890 C   0  0  0  0  0  0  0  0  0  0  0  0
  133.8820   70.3870  226.3770 C   0  0  0  0  0  0  0  0  0  0  0  0
  133.1990   71.4300  226.9810 C   0  0  0  0  0  0  0  0  0  0  0  0
  133.4100   72.7550  226.6050 C   0  0  0  0  0  0  0  0  0  0  0  0
  132.7330   73.7950  227.2050 C   0  0  0  0  0  0  0  0  0  0  0  0
  132.9500   75.1230  226.8230 C   0  0  0  0  0  0  0  0  0  0  0  0
  132.0860   76.4280  227.5900 Cl  0  0  0  0  0  0  0  0  0  0  0  0
  133.8800   75.3250  225.8150 C   0  0  0  0  0  0  0  0  0  0  0  0
  134.5490   74.2840  225.2230 C   0  0  0  0  0  0  0  0  0  0  0  0
  134.3260   72.9790  225.6080 C   0  0  0  0  0  0  0  0  0  0  0  0
  134.9840   71.9570  225.0280 N   0  0  0  0  0  0  0  0  0  0  0  0
  139.6750   70.5160  225.8390 C   0  0  0  0  0  0  0  0  0  0  0  0
  140.8110   71.5410  226.0100 C   0  0  0  0  0  0  0  0  0  0  0  0
  141.0560   71.7560  227.4810 C   0  0  0  0  0  0  0  0  0  0  0  0
  139.9950   71.1190  228.3370 C   0  0  0  0  0  0  0  0  0  0  0  0
  139.8280   69.6470  228.1210 C   0  0  0  0  0  0  0  0  0  0  0  0
  140.0380   69.3330  226.6580 C   0  0  0  0  0  0  0  0  0  0  0  0
  139.0193   72.2783  224.2555 H   0  0  0  0  0  0  0  0  0  0  0  0
  140.1210   71.6330  222.9919 H   0  0  0  0  0  0  0  0  0  0  0  0
  138.3854   71.1700  222.9919 H   0  0  0  0  0  0  0  0  0  0  0  0
  139.6730   68.9044  222.9770 H   0  0  0  0  0  0  0  0  0  0  0  0
  139.5468   68.3165  224.7264 H   0  0  0  0  0  0  0  0  0  0  0  0
  137.4888   68.7328  222.7267 H   0  0  0  0  0  0  0  0  0  0  0  0
  137.5129   67.7848  224.2772 H   0  0  0  0  0  0  0  0  0  0  0  0
  137.3280   70.6760  224.7250 H   0  0  0  0  0  0  0  0  0  0  0  0
  133.7011   69.3478  226.6889 H   0  0  0  0  0  0  0  0  0  0  0  0
  132.4727   71.2068  227.7765 H   0  0  0  0  0  0  0  0  0  0  0  0
  132.0065   73.5759  228.0013 H   0  0  0  0  0  0  0  0  0  0  0  0
  134.0879   76.3518  225.4795 H   0  0  0  0  0  0  0  0  0  0  0  0
  135.2773   74.4944  224.4259 H   0  0  0  0  0  0  0  0  0  0  0  0
  138.6837   70.8321  226.1959 H   0  0  0  0  0  0  0  0  0  0  0  0
  141.7270   71.1600  225.5348 H   0  0  0  0  0  0  0  0  0  0  0  0
  140.5292   72.4927  225.5358 H   0  0  0  0  0  0  0  0  0  0  0  0
  142.0312   71.3205  227.7443 H   0  0  0  0  0  0  0  0  0  0  0  0
  141.0348   72.8394  227.6703 H   0  0  0  0  0  0  0  0  0  0  0  0
  140.2589   71.2842  229.3920 H   0  0  0  0  0  0  0  0  0  0  0  0
  139.0407   71.5881  228.0554 H   0  0  0  0  0  0  0  0  0  0  0  0
  140.5675   69.1003  228.7245 H   0  0  0  0  0  0  0  0  0  0  0  0
  138.8154   69.3415  228.4231 H   0  0  0  0  0  0  0  0  0  0  0  0
  141.0942   69.0785  226.4859 H   0  0  0  0  0  0  0  0  0  0  0  0
  139.4033   68.4814  226.3719 H   0  0  0  0  0  0  0  0  0  0  0  0
  1  2  1  0
  2  3  1  0
  3  4  1  0
  4  5  1  0
  5  6  1  0
  6  7  2  0
  6  8  1  0
  8  9  2  0
  9 10  1  0
 10 11  2  0
 11 12  1  0
 12 13  2  0
 13 14  1  0
 13 15  1  0
 15 16  2  0
 16 17  1  0
 17 18  2  0
  2 19  1  0
 19 20  1  0
 20 21  1  0
 21 22  1  0
 22 23  1  0
 23 24  1  0
 18  8  1  0
 24 19  1  0
 17 11  1  0
  1 25  1  0
  1 26  1  0
  1 27  1  0
  3 28  1  0
  3 29  1  0
  4 30  1  0
  4 31  1  0
  5 32  1  0
  9 33  1  0
 10 34  1  0
 12 35  1  0
 15 36  1  0
 16 37  1  0
 19 38  1  0
 20 39  1  0
 20 40  1  0
 21 41  1  0
 21 42  1  0
 22 43  1  0
 22 44  1  0
 23 45  1  0
 23 46  1  0
 24 47  1  0
 24 48  1  0
M  END
>  <smiles>  (3) 
CN(CCNC(=O)c1ccc2cc(Cl)ccc2n1)C1CCCCC1

>  <score_type>  (3) 
oracle

>  <origin>  (3) 
autodockgpu

>  <m_score__min__energy>  (3) 
-8.2200000000000006

>  <m_primary>  (3) 
energy

>  <rmsd>  (3) 
8.141404658769876

>  <m_score__min__rmsd>  (3) 
8.141404658769876

>  <meeko>  (3) 
{"free_energy": -7.35, "intermolecular_energy": -8.84, "internal_energy": -1.72, "cluster_size": 17, "cluster_id": 3, "rank_in_cluster": 13}

>  <energy>  (3) 
-8.09

>  <cluster_rmsd>  (3) 
0.52

>  <cluster>  (3) 
1

$$$$

     RDKit          3D

 48 50  0  0  0  0  0  0  0  0999 V2000
  137.4550   70.1880  224.5190 C   0  0  0  0  0  0  0  0  0  0  0  0
  138.8640   70.2150  224.5130 N   0  0  0  0  0  0  0  0  0  0  0  0
  139.5130   69.5920  223.4320 C   0  0  0  0  0  0  0  0  0  0  0  0
  139.7490   70.4420  222.2140 C   0  0  0  0  0  0  0  0  0  0  0  0
  139.4700   71.8350  222.4570 N   0  0  0  0  0  0  0  0  0  0  0  0
  139.6180   72.8510  221.4690 C   0  0  0  0  0  0  0  0  0  0  0  0
  140.0090   72.5980  220.3030 O   0  0  0  0  0  0  0  0  0  0  0  0
  139.3010   74.2510  221.8250 C   0  0  0  0  0  0  0  0  0  0  0  0
  138.0020   74.6580  221.9420 C   0  0  0  0  0  0  0  0  0  0  0  0
  137.7340   75.9750  222.2770 C   0  0  0  0  0  0  0  0  0  0  0  0
  138.7580   76.8940  222.4960 C   0  0  0  0  0  0  0  0  0  0  0  0
  138.4960   78.2060  222.8290 C   0  0  0  0  0  0  0  0  0  0  0  0
  139.5290   79.1230  223.0480 C   0  0  0  0  0  0  0  0  0  0  0  0
  139.1810   80.7790  223.4690 Cl  0  0  0  0  0  0  0  0  0  0  0  0
  140.8190   78.6350  222.9110 C   0  0  0  0  0  0  0  0  0  0  0  0
  141.0710   77.3290  222.5790 C   0  0  0  0  0  0  0  0  0  0  0  0
  140.0450   76.4330  222.3650 C   0  0  0  0  0  0  0  0  0  0  0  0
  140.2920   75.1510  222.0400 N   0  0  0  0  0  0  0  0  0  0  0  0
  139.5340   70.3760  225.7460 C   0  0  0  0  0  0  0  0  0  0  0  0
  140.5630   71.5010  225.5310 C   0  0  0  0  0  0  0  0  0  0  0  0
  141.3730   71.6670  226.7910 C   0  0  0  0  0  0  0  0  0  0  0  0
  140.8040   70.8860  227.9440 C   0  0  0  0  0  0  0  0  0  0  0  0
  140.6700   69.4160  227.6890 C   0  0  0  0  0  0  0  0  0  0  0  0
  140.2850   69.1970  226.2440 C   0  0  0  0  0  0  0  0  0  0  0  0
  137.0928   70.1811  225.5576 H   0  0  0  0  0  0  0  0  0  0  0  0
  137.0690   71.0789  224.0020 H   0  0  0  0  0  0  0  0  0  0  0  0
  137.1034   69.2830  224.0020 H   0  0  0  0  0  0  0  0  0  0  0  0
  140.4918   69.2383  223.7881 H   0  0  0  0  0  0  0  0  0  0  0  0
  138.8320   68.7931  223.1034 H   0  0  0  0  0  0  0  0  0  0  0  0
  140.8011   70.3398  221.9097 H   0  0  0  0  0  0  0  0  0  0  0  0
  139.0668   70.0949  221.4240 H   0  0  0  0  0  0  0  0  0  0  0  0
  139.1400   72.1540  223.4040 H   0  0  0  0  0  0  0  0  0  0  0  0
  137.1789   73.9483  221.7722 H   0  0  0  0  0  0  0  0  0  0  0  0
  136.6884   76.3030  222.3723 H   0  0  0  0  0  0  0  0  0  0  0  0
  137.4519   78.5387  222.9245 H   0  0  0  0  0  0  0  0  0  0  0  0
  141.6668   79.3167  223.0737 H   0  0  0  0  0  0  0  0  0  0  0  0
  142.1126   76.9890  222.4814 H   0  0  0  0  0  0  0  0  0  0  0  0
  138.7561   70.5736  226.4982 H   0  0  0  0  0  0  0  0  0  0  0  0
  141.2287   71.2382  224.6957 H   0  0  0  0  0  0  0  0  0  0  0  0
  140.0439   72.4415  225.2943 H   0  0  0  0  0  0  0  0  0  0  0  0
  142.3989   71.3189  226.6002 H   0  0  0  0  0  0  0  0  0  0  0  0
  141.3540   72.7322  227.0648 H   0  0  0  0  0  0  0  0  0  0  0  0
  141.4636   71.0258  228.8131 H   0  0  0  0  0  0  0  0  0  0  0  0
  139.7868   71.2697  228.1118 H   0  0  0  0  0  0  0  0  0  0  0  0
  141.6290   68.9178  227.8941 H   0  0  0  0  0  0  0  0  0  0  0  0
  139.8949   68.9953  228.3465 H   0  0  0  0  0  0  0  0  0  0  0  0
  141.1937   69.0595  225.6396 H   0  0  0  0  0  0  0  0  0  0  0  0
  139.6523   68.3005  226.1658 H   0  0  0  0  0  0  0  0  0  0  0  0
  1  2  1  0
  2  3  1  0
  3  4  1  0
  4  5  1  0
  5  6  1  0
  6  7  2  0
  6  8  1  0
  8  9  2  0
  9 10  1  0
 10 11  2  0
 11 12  1  0
 12 13  2  0
 13 14  1  0
 13 15  1  0
 15 16  2  0
 16 17  1  0
 17 18  2  0
  2 19  1  0
 19 20  1  0
 20 21  1  0
 21 22  1  0
 22 23  1  0
 23 24  1  0
 18  8  1  0
 24 19  1  0
 17 11  1  0
  1 25  1  0
  1 26  1  0
  1 27  1  0
  3 28  1  0
  3 29  1  0
  4 30  1  0
  4 31  1  0
  5 32  1  0
  9 33  1  0
 10 34  1  0
 12 35  1  0
 15 36  1  0
 16 37  1  0
 19 38  1  0
 20 39  1  0
 20 40  1  0
 21 41  1  0
 21 42  1  0
 22 43  1  0
 22 44  1  0
 23 45  1  0
 23 46  1  0
 24 47  1  0
 24 48  1  0
M  END
>  <smiles>  (4) 
CN(CCNC(=O)c1ccc2cc(Cl)ccc2n1)C1CCCCC1

>  <score_type>  (4) 
oracle

>  <origin>  (4) 
autodockgpu

>  <m_score__min__energy>  (4) 
-8.2200000000000006

>  <m_primary>  (4) 
energy

>  <rmsd>  (4) 
8.206146698888945

>  <m_score__min__rmsd>  (4) 
8.206146698888945

>  <meeko>  (4) 
{"free_energy": -7.08, "intermolecular_energy": -8.57, "internal_energy": -1.56, "cluster_size": 22, "cluster_id": 2, "rank_in_cluster": 18}

>  <energy>  (4) 
-8.04

>  <cluster_rmsd>  (4) 
0.56

>  <cluster>  (4) 
1

$$$$

     RDKit          3D

 48 50  0  0  0  0  0  0  0  0999 V2000
  139.6540   71.1400  223.6170 C   0  0  0  0  0  0  0  0  0  0  0  0
  139.7390   70.1540  224.6200 N   0  0  0  0  0  0  0  0  0  0  0  0
  139.1630   68.9020  224.3410 C   0  0  0  0  0  0  0  0  0  0  0  0
  137.7790   68.9190  223.7510 C   0  0  0  0  0  0  0  0  0  0  0  0
  136.9270   69.8910  224.3880 N   0  0  0  0  0  0  0  0  0  0  0  0
  135.5820   69.6230  224.7760 C   0  0  0  0  0  0  0  0  0  0  0  0
  135.0400   68.5060  224.5860 O   0  0  0  0  0  0  0  0  0  0  0  0
  134.7950   70.6940  225.4270 C   0  0  0  0  0  0  0  0  0  0  0  0
  133.8270   70.3830  226.3390 C   0  0  0  0  0  0  0  0  0  0  0  0
  133.1050   71.4050  226.9330 C   0  0  0  0  0  0  0  0  0  0  0  0
  133.3440   72.7420  226.6210 C   0  0  0  0  0  0  0  0  0  0  0  0
  132.6280   73.7630  227.2090 C   0  0  0  0  0  0  0  0  0  0  0  0
  132.8730   75.1020  226.8920 C   0  0  0  0  0  0  0  0  0  0  0  0
  131.9590   76.3820  227.6450 Cl  0  0  0  0  0  0  0  0  0  0  0  0
  133.8700   75.3370  225.9590 C   0  0  0  0  0  0  0  0  0  0  0  0
  134.5780   74.3160  225.3770 C   0  0  0  0  0  0  0  0  0  0  0  0
  134.3270   72.9990  225.6980 C   0  0  0  0  0  0  0  0  0  0  0  0
  135.0220   71.9960  225.1280 N   0  0  0  0  0  0  0  0  0  0  0  0
  139.9050   70.5750  225.9580 C   0  0  0  0  0  0  0  0  0  0  0  0
  141.1020   71.5430  225.9570 C   0  0  0  0  0  0  0  0  0  0  0  0
  141.3860   71.9680  227.3750 C   0  0  0  0  0  0  0  0  0  0  0  0
  140.3040   71.5400  228.3280 C   0  0  0  0  0  0  0  0  0  0  0  0
  140.0460   70.0640  228.3470 C   0  0  0  0  0  0  0  0  0  0  0  0
  140.2110   69.5140  226.9490 C   0  0  0  0  0  0  0  0  0  0  0  0
  139.5685   72.1321  224.0844 H   0  0  0  0  0  0  0  0  0  0  0  0
  140.5584   71.1060  222.9918 H   0  0  0  0  0  0  0  0  0  0  0  0
  138.7688   70.9517  222.9918 H   0  0  0  0  0  0  0  0  0  0  0  0
  139.8227   68.3806  223.6319 H   0  0  0  0  0  0  0  0  0  0  0  0
  139.0588   68.4044  225.3165 H   0  0  0  0  0  0  0  0  0  0  0  0
  137.8534   69.1607  222.6805 H   0  0  0  0  0  0  0  0  0  0  0  0
  137.3333   67.9256  223.9074 H   0  0  0  0  0  0  0  0  0  0  0  0
  137.2830   70.8600  224.5910 H   0  0  0  0  0  0  0  0  0  0  0  0
  133.6232   69.3337  226.5986 H   0  0  0  0  0  0  0  0  0  0  0  0
  132.3252   71.1556  227.6677 H   0  0  0  0  0  0  0  0  0  0  0  0
  131.8468   73.5184  227.9438 H   0  0  0  0  0  0  0  0  0  0  0  0
  134.1011   76.3746  225.6760 H   0  0  0  0  0  0  0  0  0  0  0  0
  135.3603   74.5526  224.6407 H   0  0  0  0  0  0  0  0  0  0  0  0
  138.9407   71.0028  226.2697 H   0  0  0  0  0  0  0  0  0  0  0  0
  141.9852   71.0380  225.5388 H   0  0  0  0  0  0  0  0  0  0  0  0
  140.8681   72.4251  225.3428 H   0  0  0  0  0  0  0  0  0  0  0  0
  142.3373   71.5180  227.6951 H   0  0  0  0  0  0  0  0  0  0  0  0
  141.4344   73.0668  227.3931 H   0  0  0  0  0  0  0  0  0  0  0  0
  140.5952   71.8517  229.3419 H   0  0  0  0  0  0  0  0  0  0  0  0
  139.3747   72.0173  227.9837 H   0  0  0  0  0  0  0  0  0  0  0  0
  140.7625   69.5737  229.0225 H   0  0  0  0  0  0  0  0  0  0  0  0
  139.0228   69.8717  228.7020 H   0  0  0  0  0  0  0  0  0  0  0  0
  141.2470   69.1711  226.8103 H   0  0  0  0  0  0  0  0  0  0  0  0
  139.5214   68.6692  226.8048 H   0  0  0  0  0  0  0  0  0  0  0  0
  1  2  1  0
  2  3  1  0
  3  4  1  0
  4  5  1  0
  5  6  1  0
  6  7  2  0
  6  8  1  0
  8  9  2  0
  9 10  1  0
 10 11  2  0
 11 12  1  0
 12 13  2  0
 13 14  1  0
 13 15  1  0
 15 16  2  0
 16 17  1  0
 17 18  2  0
  2 19  1  0
 19 20  1  0
 20 21  1  0
 21 22  1  0
 22 23  1  0
 23 24  1  0
 18  8  1  0
 24 19  1  0
 17 11  1  0
  1 25  1  0
  1 26  1  0
  1 27  1  0
  3 28  1  0
  3 29  1  0
  4 30  1  0
  4 31  1  0
  5 32  1  0
  9 33  1  0
 10 34  1  0
 12 35  1  0
 15 36  1  0
 16 37  1  0
 19 38  1  0
 20 39  1  0
 20 40  1  0
 21 41  1  0
 21 42  1  0
 22 43  1  0
 22 44  1  0
 23 45  1  0
 23 46  1  0
 24 47  1  0
 24 48  1  0
M  END
>  <smiles>  (5) 
CN(CCNC(=O)c1ccc2cc(Cl)ccc2n1)C1CCCCC1

>  <score_type>  (5) 
oracle

>  <origin>  (5) 
autodockgpu

>  <m_score__min__energy>  (5) 
-8.2200000000000006

>  <m_primary>  (5) 
energy

>  <rmsd>  (5) 
8.152994517334118

>  <m_score__min__rmsd>  (5) 
8.152994517334118

>  <meeko>  (5) 
{"free_energy": -7.55, "intermolecular_energy": -9.04, "internal_energy": -1.43, "cluster_size": 17, "cluster_id": 3, "rank_in_cluster": 2}

>  <energy>  (5) 
-7.98

>  <cluster_rmsd>  (5) 
0.81

>  <cluster>  (5) 
1

$$$$

     RDKit          3D

 48 50  0  0  0  0  0  0  0  0999 V2000
  139.0780   69.2980  223.6700 C   0  0  0  0  0  0  0  0  0  0  0  0
  139.5800   70.3730  224.4310 N   0  0  0  0  0  0  0  0  0  0  0  0
  140.2320   71.4040  223.7320 C   0  0  0  0  0  0  0  0  0  0  0  0
  139.4930   71.9890  222.5600 C   0  0  0  0  0  0  0  0  0  0  0  0
  139.8070   73.3800  222.3550 N   0  0  0  0  0  0  0  0  0  0  0  0
  140.9070   73.8310  221.5700 C   0  0  0  0  0  0  0  0  0  0  0  0
  141.6910   73.0350  220.9960 O   0  0  0  0  0  0  0  0  0  0  0  0
  141.1380   75.2850  221.4230 C   0  0  0  0  0  0  0  0  0  0  0  0
  141.9030   75.7630  220.3970 C   0  0  0  0  0  0  0  0  0  0  0  0
  142.1020   77.1290  220.2840 C   0  0  0  0  0  0  0  0  0  0  0  0
  141.5410   78.0260  221.1910 C   0  0  0  0  0  0  0  0  0  0  0  0
  141.7370   79.3860  221.0820 C   0  0  0  0  0  0  0  0  0  0  0  0
  141.1700   80.2800  221.9960 C   0  0  0  0  0  0  0  0  0  0  0  0
  141.4270   81.9980  221.8440 Cl  0  0  0  0  0  0  0  0  0  0  0  0
  140.4080   79.7180  223.0080 C   0  0  0  0  0  0  0  0  0  0  0  0
  140.2180   78.3640  223.1100 C   0  0  0  0  0  0  0  0  0  0  0  0
  140.7820   77.4920  222.2030 C   0  0  0  0  0  0  0  0  0  0  0  0
  140.5960   76.1630  222.3020 N   0  0  0  0  0  0  0  0  0  0  0  0
  139.8690   70.1470  225.7950 C   0  0  0  0  0  0  0  0  0  0  0  0
  140.6640   71.3760  226.2730 C   0  0  0  0  0  0  0  0  0  0  0  0
  141.0780   71.1620  227.7060 C   0  0  0  0  0  0  0  0  0  0  0  0
  140.4110   69.9630  228.3200 C   0  0  0  0  0  0  0  0  0  0  0  0
  140.6520   68.6780  227.5880 C   0  0  0  0  0  0  0  0  0  0  0  0
  140.6970   68.9550  226.1030 C   0  0  0  0  0  0  0  0  0  0  0  0
  138.7105   68.5110  224.3450 H   0  0  0  0  0  0  0  0  0  0  0  0
  138.2521   69.6520  223.0356 H   0  0  0  0  0  0  0  0  0  0  0  0
  139.8797   68.8920  223.0356 H   0  0  0  0  0  0  0  0  0  0  0  0
  140.4285   72.2189  224.4442 H   0  0  0  0  0  0  0  0  0  0  0  0
  141.1355   70.9426  223.3068 H   0  0  0  0  0  0  0  0  0  0  0  0
  139.7653   71.4276  221.6541 H   0  0  0  0  0  0  0  0  0  0  0  0
  138.4158   71.9145  222.7700 H   0  0  0  0  0  0  0  0  0  0  0  0
  139.2140   74.1300  222.7950 H   0  0  0  0  0  0  0  0  0  0  0  0
  142.3550   75.0720  219.6702 H   0  0  0  0  0  0  0  0  0  0  0  0
  142.7178   77.5152  219.4583 H   0  0  0  0  0  0  0  0  0  0  0  0
  142.3527   79.7767  220.2584 H   0  0  0  0  0  0  0  0  0  0  0  0
  139.9409   80.3791  223.7529 H   0  0  0  0  0  0  0  0  0  0  0  0
  139.6039   77.9658  223.9311 H   0  0  0  0  0  0  0  0  0  0  0  0
  138.9030   69.9751  226.2922 H   0  0  0  0  0  0  0  0  0  0  0  0
  141.5583   71.5043  225.6454 H   0  0  0  0  0  0  0  0  0  0  0  0
  140.0385   72.2776  226.1963 H   0  0  0  0  0  0  0  0  0  0  0  0
  142.1679   71.0172  227.7414 H   0  0  0  0  0  0  0  0  0  0  0  0
  140.7714   72.0485  228.2806 H   0  0  0  0  0  0  0  0  0  0  0  0
  140.7864   69.8491  229.3477 H   0  0  0  0  0  0  0  0  0  0  0  0
  139.3279   70.1502  228.2774 H   0  0  0  0  0  0  0  0  0  0  0  0
  141.6100   68.2443  227.9109 H   0  0  0  0  0  0  0  0  0  0  0  0
  139.8405   67.9687  227.8080 H   0  0  0  0  0  0  0  0  0  0  0  0
  141.7368   69.1421  225.7966 H   0  0  0  0  0  0  0  0  0  0  0  0
  140.3036   68.0852  225.5565 H   0  0  0  0  0  0  0  0  0  0  0  0
  1  2  1  0
  2  3  1  0
  3  4  1  0
  4  5  1  0
  5  6  1  0
  6  7  2  0
  6  8  1  0
  8  9  2  0
  9 10  1  0
 10 11  2  0
 11 12  1  0
 12 13  2  0
 13 14  1  0
 13 15  1  0
 15 16  2  0
 16 17  1  0
 17 18  2  0
  2 19  1  0
 19 20  1  0
 20 21  1  0
 21 22  1  0
 22 23  1  0
 23 24  1  0
 18  8  1  0
 24 19  1  0
 17 11  1  0
  1 25  1  0
  1 26  1  0
  1 27  1  0
  3 28  1  0
  3 29  1  0
  4 30  1  0
  4 31  1  0
  5 32  1  0
  9 33  1  0
 10 34  1  0
 12 35  1  0
 15 36  1  0
 16 37  1  0
 19 38  1  0
 20 39  1  0
 20 40  1  0
 21 41  1  0
 21 42  1  0
 22 43  1  0
 22 44  1  0
 23 45  1  0
 23 46  1  0
 24 47  1  0
 24 48  1  0
M  END
>  <smiles>  (6) 
CN(CCNC(=O)c1ccc2cc(Cl)ccc2n1)C1CCCCC1

>  <score_type>  (6) 
oracle

>  <origin>  (6) 
autodockgpu

>  <m_score__min__energy>  (6) 
-8.2200000000000006

>  <m_primary>  (6) 
energy

>  <rmsd>  (6) 
8.86867565491455

>  <m_score__min__rmsd>  (6) 
8.86867565491455

>  <meeko>  (6) 
{"free_energy": -8.09, "intermolecular_energy": -9.58, "internal_energy": -0.99, "cluster_size": 22, "cluster_id": 2, "rank_in_cluster": 1}

>  <energy>  (6) 
-7.75

>  <cluster_rmsd>  (6) 
0.8

>  <cluster>  (6) 
1

$$$$

     RDKit          3D

 48 50  0  0  0  0  0  0  0  0999 V2000
  141.8240   76.5470  220.4870 C   0  0  0  0  0  0  0  0  0  0  0  0
  141.7180   75.1830  220.1470 N   0  0  0  0  0  0  0  0  0  0  0  0
  140.4240   74.6720  219.9420 C   0  0  0  0  0  0  0  0  0  0  0  0
  139.4400   74.8720  221.0620 C   0  0  0  0  0  0  0  0  0  0  0  0
  139.5610   73.8610  222.0820 N   0  0  0  0  0  0  0  0  0  0  0  0
  139.6700   72.4690  221.8000 C   0  0  0  0  0  0  0  0  0  0  0  0
  139.6660   72.0210  220.6270 O   0  0  0  0  0  0  0  0  0  0  0  0
  139.7920   71.5160  222.9250 C   0  0  0  0  0  0  0  0  0  0  0  0
  139.4070   70.2140  222.7720 C   0  0  0  0  0  0  0  0  0  0  0  0
  139.5330   69.3430  223.8420 C   0  0  0  0  0  0  0  0  0  0  0  0
  140.0410   69.7640  225.0690 C   0  0  0  0  0  0  0  0  0  0  0  0
  140.1680   68.9010  226.1360 C   0  0  0  0  0  0  0  0  0  0  0  0
  140.6800   69.3300  227.3650 C   0  0  0  0  0  0  0  0  0  0  0  0
  140.8340   68.2260  228.7060 Cl  0  0  0  0  0  0  0  0  0  0  0  0
  141.0480   70.6640  227.4410 C   0  0  0  0  0  0  0  0  0  0  0  0
  140.9180   71.5170  226.3750 C   0  0  0  0  0  0  0  0  0  0  0  0
  140.4120   71.0820  225.1680 C   0  0  0  0  0  0  0  0  0  0  0  0
  140.2850   71.9180  224.1210 N   0  0  0  0  0  0  0  0  0  0  0  0
  142.7710   74.3190  220.5190 C   0  0  0  0  0  0  0  0  0  0  0  0
  144.0690   74.9920  220.0350 C   0  0  0  0  0  0  0  0  0  0  0  0
  145.2300   74.0780  220.3280 C   0  0  0  0  0  0  0  0  0  0  0  0
  144.8390   72.9190  221.2030 C   0  0  0  0  0  0  0  0  0  0  0  0
  143.7330   72.0730  220.6510 C   0  0  0  0  0  0  0  0  0  0  0  0
  142.7460   72.9590  219.9260 C   0  0  0  0  0  0  0  0  0  0  0  0
  141.8322   76.6524  221.5819 H   0  0  0  0  0  0  0  0  0  0  0  0
  142.7567   76.9569  220.0722 H   0  0  0  0  0  0  0  0  0  0  0  0
  140.9658   77.0960  220.0722 H   0  0  0  0  0  0  0  0  0  0  0  0
  140.0117   75.1556  219.0441 H   0  0  0  0  0  0  0  0  0  0  0  0
  140.5506   73.5827  219.8557 H   0  0  0  0  0  0  0  0  0  0  0  0
  139.6176   75.8574  221.5175 H   0  0  0  0  0  0  0  0  0  0  0  0
  138.4276   74.8029  220.6375 H   0  0  0  0  0  0  0  0  0  0  0  0
  139.5710   74.1300  223.0990 H   0  0  0  0  0  0  0  0  0  0  0  0
  139.0022   69.8619  221.8117 H   0  0  0  0  0  0  0  0  0  0  0  0
  139.2246   68.2942  223.7198 H   0  0  0  0  0  0  0  0  0  0  0  0
  139.8599   67.8516  226.0186 H   0  0  0  0  0  0  0  0  0  0  0  0
  141.4572   71.0508  228.3860 H   0  0  0  0  0  0  0  0  0  0  0  0
  141.2231   72.5681  226.4848 H   0  0  0  0  0  0  0  0  0  0  0  0
  142.6819   74.1719  221.6055 H   0  0  0  0  0  0  0  0  0  0  0  0
  144.0080   75.1763  218.9523 H   0  0  0  0  0  0  0  0  0  0  0  0
  144.2085   75.9510  220.5555 H   0  0  0  0  0  0  0  0  0  0  0  0
  145.6208   73.6869  219.3770 H   0  0  0  0  0  0  0  0  0  0  0  0
  145.9908   74.6630  220.8655 H   0  0  0  0  0  0  0  0  0  0  0  0
  145.7234   72.2803  221.3436 H   0  0  0  0  0  0  0  0  0  0  0  0
  144.4662   73.3481  222.1447 H   0  0  0  0  0  0  0  0  0  0  0  0
  144.1491   71.3346  219.9498 H   0  0  0  0  0  0  0  0  0  0  0  0
  143.2243   71.5468  221.4722 H   0  0  0  0  0  0  0  0  0  0  0  0
  143.0195   73.0181  218.8622 H   0  0  0  0  0  0  0  0  0  0  0  0
  141.7351   72.5362  220.0227 H   0  0  0  0  0  0  0  0  0  0  0  0
  1  2  1  0
  2  3  1  0
  3  4  1  0
  4  5  1  0
  5  6  1  0
  6  7  2  0
  6  8  1  0
  8  9  2  0
  9 10  1  0
 10 11  2  0
 11 12  1  0
 12 13  2  0
 13 14  1  0
 13 15  1  0
 15 16  2  0
 16 17  1  0
 17 18  2  0
  2 19  1  0
 19 20  1  0
 20 21  1  0
 21 22  1  0
 22 23  1  0
 23 24  1  0
 18  8  1  0
 24 19  1  0
 17 11  1  0
  1 25  1  0
  1 26  1  0
  1 27  1  0
  3 28  1  0
  3 29  1  0
  4 30  1  0
  4 31  1  0
  5 32  1  0
  9 33  1  0
 10 34  1  0
 12 35  1  0
 15 36  1  0
 16 37  1  0
 19 38  1  0
 20 39  1  0
 20 40  1  0
 21 41  1  0
 21 42  1  0
 22 43  1  0
 22 44  1  0
 23 45  1  0
 23 46  1  0
 24 47  1  0
 24 48  1  0
M  END
>  <smiles>  (7) 
CN(CCNC(=O)c1ccc2cc(Cl)ccc2n1)C1CCCCC1

>  <score_type>  (7) 
oracle

>  <origin>  (7) 
autodockgpu

>  <m_score__min__energy>  (7) 
-8.2200000000000006

>  <m_primary>  (7) 
energy

>  <rmsd>  (7) 
3.0710832215780837

>  <m_score__min__rmsd>  (7) 
3.0710832215780837

>  <meeko>  (7) 
{"free_energy": -7.07, "intermolecular_energy": -8.57, "internal_energy": -1.45, "cluster_size": 2, "cluster_id": 4, "rank_in_cluster": 1}

>  <energy>  (7) 
-7.37

>  <cluster_rmsd>  (7) 
1.08

>  <cluster>  (7) 
1

$$$$

     RDKit          3D

 48 50  0  0  0  0  0  0  0  0999 V2000
  139.2410   71.5160  223.6270 C   0  0  0  0  0  0  0  0  0  0  0  0
  139.5280   70.3130  224.3030 N   0  0  0  0  0  0  0  0  0  0  0  0
  139.1790   69.1150  223.6560 C   0  0  0  0  0  0  0  0  0  0  0  0
  137.7340   68.7040  223.7450 C   0  0  0  0  0  0  0  0  0  0  0  0
  136.9190   69.7070  224.3820 N   0  0  0  0  0  0  0  0  0  0  0  0
  135.5530   69.5040  224.7330 C   0  0  0  0  0  0  0  0  0  0  0  0
  134.9580   68.4220  224.5070 O   0  0  0  0  0  0  0  0  0  0  0  0
  134.8090   70.6030  225.3870 C   0  0  0  0  0  0  0  0  0  0  0  0
  133.8940   70.3310  226.3640 C   0  0  0  0  0  0  0  0  0  0  0  0
  133.2110   71.3790  226.9600 C   0  0  0  0  0  0  0  0  0  0  0  0
  133.4350   72.7020  226.5840 C   0  0  0  0  0  0  0  0  0  0  0  0
  132.7580   73.7480  227.1740 C   0  0  0  0  0  0  0  0  0  0  0  0
  132.9890   75.0730  226.7930 C   0  0  0  0  0  0  0  0  0  0  0  0
  132.1240   76.3850  227.5490 Cl  0  0  0  0  0  0  0  0  0  0  0  0
  133.9310   75.2670  225.7960 C   0  0  0  0  0  0  0  0  0  0  0  0
  134.6010   74.2220  225.2140 C   0  0  0  0  0  0  0  0  0  0  0  0
  134.3650   72.9190  225.5970 C   0  0  0  0  0  0  0  0  0  0  0  0
  135.0220   71.8920  225.0270 N   0  0  0  0  0  0  0  0  0  0  0  0
  139.6510   70.3510  225.7090 C   0  0  0  0  0  0  0  0  0  0  0  0
  140.6480   71.4820  226.0230 C   0  0  0  0  0  0  0  0  0  0  0  0
  140.8880   71.5210  227.5100 C   0  0  0  0  0  0  0  0  0  0  0  0
  139.9330   70.6400  228.2670 C   0  0  0  0  0  0  0  0  0  0  0  0
  139.9540   69.2020  227.8480 C   0  0  0  0  0  0  0  0  0  0  0  0
  140.1780   69.1230  226.3560 C   0  0  0  0  0  0  0  0  0  0  0  0
  139.0509   72.3128  224.3612 H   0  0  0  0  0  0  0  0  0  0  0  0
  140.0977   71.7955  222.9961 H   0  0  0  0  0  0  0  0  0  0  0  0
  138.3504   71.3786  222.9961 H   0  0  0  0  0  0  0  0  0  0  0  0
  139.4312   69.2239  222.5909 H   0  0  0  0  0  0  0  0  0  0  0  0
  139.7403   68.3261  224.1781 H   0  0  0  0  0  0  0  0  0  0  0  0
  137.3520   68.5312  222.7280 H   0  0  0  0  0  0  0  0  0  0  0  0
  137.6808   67.7899  224.3545 H   0  0  0  0  0  0  0  0  0  0  0  0
  137.3210   70.6520  224.6130 H   0  0  0  0  0  0  0  0  0  0  0  0
  133.7018   69.2932  226.6737 H   0  0  0  0  0  0  0  0  0  0  0  0
  132.4750   71.1616  227.7481 H   0  0  0  0  0  0  0  0  0  0  0  0
  132.0201   73.5354  227.9616 H   0  0  0  0  0  0  0  0  0  0  0  0
  134.1483   76.2919  225.4607 H   0  0  0  0  0  0  0  0  0  0  0  0
  135.3410   74.4272  224.4264 H   0  0  0  0  0  0  0  0  0  0  0  0
  138.6334   70.4840  226.1050 H   0  0  0  0  0  0  0  0  0  0  0  0
  141.5973   71.2932  225.5004 H   0  0  0  0  0  0  0  0  0  0  0  0
  140.2376   72.4453  225.6860 H   0  0  0  0  0  0  0  0  0  0  0  0
  141.9154   71.1835  227.7112 H   0  0  0  0  0  0  0  0  0  0  0  0
  140.7307   72.5557  227.8486 H   0  0  0  0  0  0  0  0  0  0  0  0
  140.1907   70.6910  229.3352 H   0  0  0  0  0  0  0  0  0  0  0  0
  138.9216   71.0152  228.0518 H   0  0  0  0  0  0  0  0  0  0  0  0
  140.7680   68.6783  228.3706 H   0  0  0  0  0  0  0  0  0  0  0  0
  138.9946   68.7284  228.1035 H   0  0  0  0  0  0  0  0  0  0  0  0
  141.2552   69.0346  226.1514 H   0  0  0  0  0  0  0  0  0  0  0  0
  139.6540   68.2436  225.9534 H   0  0  0  0  0  0  0  0  0  0  0  0
  1  2  1  0
  2  3  1  0
  3  4  1  0
  4  5  1  0
  5  6  1  0
  6  7  2  0
  6  8  1  0
  8  9  2  0
  9 10  1  0
 10 11  2  0
 11 12  1  0
 12 13  2  0
 13 14  1  0
 13 15  1  0
 15 16  2  0
 16 17  1  0
 17 18  2  0
  2 19  1  0
 19 20  1  0
 20 21  1  0
 21 22  1  0
 22 23  1  0
 23 24  1  0
 18  8  1  0
 24 19  1  0
 17 11  1  0
  1 25  1  0
  1 26  1  0
  1 27  1  0
  3 28  1  0
  3 29  1  0
  4 30  1  0
  4 31  1  0
  5 32  1  0
  9 33  1  0
 10 34  1  0
 12 35  1  0
 15 36  1  0
 16 37  1  0
 19 38  1  0
 20 39  1  0
 20 40  1  0
 21 41  1  0
 21 42  1  0
 22 43  1  0
 22 44  1  0
 23 45  1  0
 23 46  1  0
 24 47  1  0
 24 48  1  0
M  END
>  <smiles>  (8) 
CN(CCNC(=O)c1ccc2cc(Cl)ccc2n1)C1CCCCC1

>  <score_type>  (8) 
oracle

>  <origin>  (8) 
autodockgpu

>  <m_score__min__energy>  (8) 
-8.2200000000000006

>  <m_primary>  (8) 
energy

>  <rmsd>  (8) 
8.111678235359207

>  <m_score__min__rmsd>  (8) 
8.111678235359207

>  <meeko>  (8) 
{"free_energy": -7.26, "intermolecular_energy": -8.75, "internal_energy": -1.79, "cluster_size": 17, "cluster_id": 3, "rank_in_cluster": 16}

>  <energy>  (8) 
-7.09

>  <cluster_rmsd>  (8) 
1.17

>  <cluster>  (8) 
1

$$$$

     RDKit          3D

 48 50  0  0  0  0  0  0  0  0999 V2000
  138.8490   69.4250  223.7420 C   0  0  0  0  0  0  0  0  0  0  0  0
  139.4810   70.4480  224.4770 N   0  0  0  0  0  0  0  0  0  0  0  0
  140.1890   71.4190  223.7480 C   0  0  0  0  0  0  0  0  0  0  0  0
  139.4880   71.9970  222.5480 C   0  0  0  0  0  0  0  0  0  0  0  0
  139.8050   73.3880  222.3480 N   0  0  0  0  0  0  0  0  0  0  0  0
  140.9000   73.8390  221.5550 C   0  0  0  0  0  0  0  0  0  0  0  0
  141.6750   73.0430  220.9700 O   0  0  0  0  0  0  0  0  0  0  0  0
  141.1350   75.2930  221.4140 C   0  0  0  0  0  0  0  0  0  0  0  0
  141.9200   75.7710  220.4040 C   0  0  0  0  0  0  0  0  0  0  0  0
  142.1220   77.1370  220.2950 C   0  0  0  0  0  0  0  0  0  0  0  0
  141.5450   78.0330  221.1920 C   0  0  0  0  0  0  0  0  0  0  0  0
  141.7430   79.3940  221.0880 C   0  0  0  0  0  0  0  0  0  0  0  0
  141.1600   80.2870  221.9910 C   0  0  0  0  0  0  0  0  0  0  0  0
  141.4210   82.0050  221.8450 Cl  0  0  0  0  0  0  0  0  0  0  0  0
  140.3770   79.7260  222.9870 C   0  0  0  0  0  0  0  0  0  0  0  0
  140.1840   78.3720  223.0850 C   0  0  0  0  0  0  0  0  0  0  0  0
  140.7650   77.5000  222.1880 C   0  0  0  0  0  0  0  0  0  0  0  0
  140.5760   76.1710  222.2830 N   0  0  0  0  0  0  0  0  0  0  0  0
  139.8140   70.1920  225.8260 C   0  0  0  0  0  0  0  0  0  0  0  0
  140.6030   71.4220  226.3120 C   0  0  0  0  0  0  0  0  0  0  0  0
  141.0630   71.1770  227.7270 C   0  0  0  0  0  0  0  0  0  0  0  0
  140.4330   69.9510  228.3290 C   0  0  0  0  0  0  0  0  0  0  0  0
  140.6720   68.6900  227.5560 C   0  0  0  0  0  0  0  0  0  0  0  0
  140.6690   69.0060  226.0790 C   0  0  0  0  0  0  0  0  0  0  0  0
  138.4003   68.6987  224.4357 H   0  0  0  0  0  0  0  0  0  0  0  0
  138.0626   69.8610  223.1083 H   0  0  0  0  0  0  0  0  0  0  0  0
  139.5908   68.9169  223.1083 H   0  0  0  0  0  0  0  0  0  0  0  0
  140.4205   72.2486  224.4323 H   0  0  0  0  0  0  0  0  0  0  0  0
  141.0719   70.8986  223.3484 H   0  0  0  0  0  0  0  0  0  0  0  0
  139.7926   71.4326  221.6543 H   0  0  0  0  0  0  0  0  0  0  0  0
  138.4045   71.9200  222.7213 H   0  0  0  0  0  0  0  0  0  0  0  0
  139.2200   74.1380  222.7980 H   0  0  0  0  0  0  0  0  0  0  0  0
  142.3860   75.0800  219.6861 H   0  0  0  0  0  0  0  0  0  0  0  0
  142.7529   77.5233  219.4809 H   0  0  0  0  0  0  0  0  0  0  0  0
  142.3738   79.7852  220.2762 H   0  0  0  0  0  0  0  0  0  0  0  0
  139.8952   80.3875  223.7220 H   0  0  0  0  0  0  0  0  0  0  0  0
  139.5541   77.9738  223.8941 H   0  0  0  0  0  0  0  0  0  0  0  0
  138.8662   69.9913  226.3469 H   0  0  0  0  0  0  0  0  0  0  0  0
  141.4759   71.5816  225.6620 H   0  0  0  0  0  0  0  0  0  0  0  0
  139.9615   72.3149  226.2771 H   0  0  0  0  0  0  0  0  0  0  0  0
  142.1555   71.0490  227.7264 H   0  0  0  0  0  0  0  0  0  0  0  0
  140.7597   72.0430  228.3337 H   0  0  0  0  0  0  0  0  0  0  0  0
  140.8409   69.8164  229.3417 H   0  0  0  0  0  0  0  0  0  0  0  0
  139.3463   70.1215  228.3239 H   0  0  0  0  0  0  0  0  0  0  0  0
  141.6456   68.2636  227.8392 H   0  0  0  0  0  0  0  0  0  0  0  0
  139.8781   67.9624  227.7803 H   0  0  0  0  0  0  0  0  0  0  0  0
  141.6963   69.2178  225.7478 H   0  0  0  0  0  0  0  0  0  0  0  0
  140.2730   68.1443  225.5216 H   0  0  0  0  0  0  0  0  0  0  0  0
  1  2  1  0
  2  3  1  0
  3  4  1  0
  4  5  1  0
  5  6  1  0
  6  7  2  0
  6  8  1  0
  8  9  2  0
  9 10  1  0
 10 11  2  0
 11 12  1  0
 12 13  2  0
 13 14  1  0
 13 15  1  0
 15 16  2  0
 16 17  1  0
 17 18  2  0
  2 19  1  0
 19 20  1  0
 20 21  1  0
 21 22  1  0
 22 23  1  0
 23 24  1  0
 18  8  1  0
 24 19  1  0
 17 11  1  0
  1 25  1  0
  1 26  1  0
  1 27  1  0
  3 28  1  0
  3 29  1  0
  4 30  1  0
  4 31  1  0
  5 32  1  0
  9 33  1  0
 10 34  1  0
 12 35  1  0
 15 36  1  0
 16 37  1  0
 19 38  1  0
 20 39  1  0
 20 40  1  0
 21 41  1  0
 21 42  1  0
 22 43  1  0
 22 44  1  0
 23 45  1  0
 23 46  1  0
 24 47  1  0
 24 48  1  0
M  END
>  <smiles>  (9) 
CN(CCNC(=O)c1ccc2cc(Cl)ccc2n1)C1CCCCC1

>  <score_type>  (9) 
oracle

>  <origin>  (9) 
autodockgpu

>  <m_score__min__energy>  (9) 
-8.2200000000000006

>  <m_primary>  (9) 
energy

>  <rmsd>  (9) 
8.859162933506308

>  <m_score__min__rmsd>  (9) 
8.859162933506308

>  <meeko>  (9) 
{"free_energy": -8.08, "intermolecular_energy": -9.57, "internal_energy": -1.0, "cluster_size": 22, "cluster_id": 2, "rank_in_cluster": 2}

>  <energy>  (9) 
-8.09

>  <cluster_rmsd>  (9) 
0.0

>  <cluster>  (9) 
2

$$$$

     RDKit          3D

 48 50  0  0  0  0  0  0  0  0999 V2000
  139.4250   71.1420  223.6160 C   0  0  0  0  0  0  0  0  0  0  0  0
  139.5120   70.0810  224.5390 N   0  0  0  0  0  0  0  0  0  0  0  0
  138.9270   68.8570  224.1670 C   0  0  0  0  0  0  0  0  0  0  0  0
  137.5440   68.9280  223.5810 C   0  0  0  0  0  0  0  0  0  0  0  0
  136.7260   69.9210  224.2290 N   0  0  0  0  0  0  0  0  0  0  0  0
  135.4490   69.6420  224.7950 C   0  0  0  0  0  0  0  0  0  0  0  0
  134.9410   68.4940  224.7670 O   0  0  0  0  0  0  0  0  0  0  0  0
  134.6930   70.7380  225.4410 C   0  0  0  0  0  0  0  0  0  0  0  0
  133.7020   70.4580  226.3380 C   0  0  0  0  0  0  0  0  0  0  0  0
  133.0110   71.5040  226.9270 C   0  0  0  0  0  0  0  0  0  0  0  0
  133.3020   72.8330  226.6250 C   0  0  0  0  0  0  0  0  0  0  0  0
  132.6170   73.8770  227.2090 C   0  0  0  0  0  0  0  0  0  0  0  0
  132.9160   75.2080  226.9020 C   0  0  0  0  0  0  0  0  0  0  0  0
  132.0390   76.5170  227.6490 Cl  0  0  0  0  0  0  0  0  0  0  0  0
  133.9340   75.4100  225.9840 C   0  0  0  0  0  0  0  0  0  0  0  0
  134.6110   74.3660  225.4070 C   0  0  0  0  0  0  0  0  0  0  0  0
  134.3070   73.0570  225.7170 C   0  0  0  0  0  0  0  0  0  0  0  0
  134.9720   72.0320  225.1520 N   0  0  0  0  0  0  0  0  0  0  0  0
  139.6880   70.3960  225.9040 C   0  0  0  0  0  0  0  0  0  0  0  0
  140.7670   71.4940  225.9540 C   0  0  0  0  0  0  0  0  0  0  0  0
  141.0640   71.8200  227.3950 C   0  0  0  0  0  0  0  0  0  0  0  0
  140.0820   71.1830  228.3400 C   0  0  0  0  0  0  0  0  0  0  0  0
  139.9930   69.6920  228.2270 C   0  0  0  0  0  0  0  0  0  0  0  0
  140.1570   69.2940  226.7790 C   0  0  0  0  0  0  0  0  0  0  0  0
  139.3468   72.0952  224.1594 H   0  0  0  0  0  0  0  0  0  0  0  0
  140.3253   71.1529  222.9840 H   0  0  0  0  0  0  0  0  0  0  0  0
  138.5350   71.0062  222.9840 H   0  0  0  0  0  0  0  0  0  0  0  0
  139.5831   68.3857  223.4204 H   0  0  0  0  0  0  0  0  0  0  0  0
  138.8193   68.2883  225.1024 H   0  0  0  0  0  0  0  0  0  0  0  0
  137.6248   69.1784  222.5129 H   0  0  0  0  0  0  0  0  0  0  0  0
  137.0652   67.9488  223.7289 H   0  0  0  0  0  0  0  0  0  0  0  0
  137.0580   70.9170  224.3040 H   0  0  0  0  0  0  0  0  0  0  0  0
  133.4559   69.4158  226.5894 H   0  0  0  0  0  0  0  0  0  0  0  0
  132.2133   71.2803  227.6506 H   0  0  0  0  0  0  0  0  0  0  0  0
  131.8177   73.6582  227.9324 H   0  0  0  0  0  0  0  0  0  0  0  0
  134.2077   76.4394  225.7095 H   0  0  0  0  0  0  0  0  0  0  0  0
  135.4119   74.5768  224.6830 H   0  0  0  0  0  0  0  0  0  0  0  0
  138.6960   70.6776  226.2870 H   0  0  0  0  0  0  0  0  0  0  0  0
  141.6822   71.1354  225.4602 H   0  0  0  0  0  0  0  0  0  0  0  0
  140.4074   72.3943  225.4343 H   0  0  0  0  0  0  0  0  0  0  0  0
  142.0740   71.4586  227.6383 H   0  0  0  0  0  0  0  0  0  0  0  0
  140.9870   72.9107  227.5154 H   0  0  0  0  0  0  0  0  0  0  0  0
  140.3823   71.4328  229.3683 H   0  0  0  0  0  0  0  0  0  0  0  0
  139.0900   71.5778  228.0753 H   0  0  0  0  0  0  0  0  0  0  0  0
  140.7892   69.2291  228.8285 H   0  0  0  0  0  0  0  0  0  0  0  0
  139.0146   69.3507  228.5960 H   0  0  0  0  0  0  0  0  0  0  0  0
  141.2181   69.0896  226.5734 H   0  0  0  0  0  0  0  0  0  0  0  0
  139.5625   68.3904  226.5789 H   0  0  0  0  0  0  0  0  0  0  0  0
  1  2  1  0
  2  3  1  0
  3  4  1  0
  4  5  1  0
  5  6  1  0
  6  7  2  0
  6  8  1  0
  8  9  2  0
  9 10  1  0
 10 11  2  0
 11 12  1  0
 12 13  2  0
 13 14  1  0
 13 15  1  0
 15 16  2  0
 16 17  1  0
 17 18  2  0
  2 19  1  0
 19 20  1  0
 20 21  1  0
 21 22  1  0
 22 23  1  0
 23 24  1  0
 18  8  1  0
 24 19  1  0
 17 11  1  0
  1 25  1  0
  1 26  1  0
  1 27  1  0
  3 28  1  0
  3 29  1  0
  4 30  1  0
  4 31  1  0
  5 32  1  0
  9 33  1  0
 10 34  1  0
 12 35  1  0
 15 36  1  0
 16 37  1  0
 19 38  1  0
 20 39  1  0
 20 40  1  0
 21 41  1  0
 21 42  1  0
 22 43  1  0
 22 44  1  0
 23 45  1  0
 23 46  1  0
 24 47  1  0
 24 48  1  0
M  END
>  <smiles>  (10) 
CN(CCNC(=O)c1ccc2cc(Cl)ccc2n1)C1CCCCC1

>  <score_type>  (10) 
oracle

>  <origin>  (10) 
autodockgpu

>  <m_score__min__energy>  (10) 
-8.2200000000000006

>  <m_primary>  (10) 
energy

>  <rmsd>  (10) 
8.193261977067769

>  <m_score__min__rmsd>  (10) 
8.193261977067769

>  <meeko>  (10) 
{"free_energy": -7.48, "intermolecular_energy": -8.97, "internal_energy": -1.48, "cluster_size": 17, "cluster_id": 3, "rank_in_cluster": 5}

>  <energy>  (10) 
-8.08

>  <cluster_rmsd>  (10) 
0.07

>  <cluster>  (10) 
2

$$$$

     RDKit          3D

 48 50  0  0  0  0  0  0  0  0999 V2000
  138.1400   68.8350  225.1430 C   0  0  0  0  0  0  0  0  0  0  0  0
  139.0370   69.9130  225.0020 N   0  0  0  0  0  0  0  0  0  0  0  0
  139.5790   70.1330  223.7230 C   0  0  0  0  0  0  0  0  0  0  0  0
  138.7190   70.8990  222.7550 C   0  0  0  0  0  0  0  0  0  0  0  0
  139.2140   72.2320  222.5220 N   0  0  0  0  0  0  0  0  0  0  0  0
  140.2500   72.5360  221.5930 C   0  0  0  0  0  0  0  0  0  0  0  0
  140.8130   71.6490  220.9050 O   0  0  0  0  0  0  0  0  0  0  0  0
  140.6810   73.9420  221.4310 C   0  0  0  0  0  0  0  0  0  0  0  0
  141.7200   74.2550  220.6010 C   0  0  0  0  0  0  0  0  0  0  0  0
  142.1010   75.5800  220.4670 C   0  0  0  0  0  0  0  0  0  0  0  0
  141.4510   76.5990  221.1600 C   0  0  0  0  0  0  0  0  0  0  0  0
  141.8280   77.9190  221.0300 C   0  0  0  0  0  0  0  0  0  0  0  0
  141.1700   78.9370  221.7280 C   0  0  0  0  0  0  0  0  0  0  0  0
  141.6580   80.6020  221.5530 Cl  0  0  0  0  0  0  0  0  0  0  0  0
  140.1270   78.5400  222.5490 C   0  0  0  0  0  0  0  0  0  0  0  0
  139.7580   77.2250  222.6730 C   0  0  0  0  0  0  0  0  0  0  0  0
  140.4150   76.2290  221.9800 C   0  0  0  0  0  0  0  0  0  0  0  0
  140.0530   74.9390  222.1010 N   0  0  0  0  0  0  0  0  0  0  0  0
  139.7230   70.3660  226.1500 C   0  0  0  0  0  0  0  0  0  0  0  0
  140.6290   71.5190  225.6800 C   0  0  0  0  0  0  0  0  0  0  0  0
  141.4550   71.9960  226.8460 C   0  0  0  0  0  0  0  0  0  0  0  0
  141.0000   71.4010  228.1510 C   0  0  0  0  0  0  0  0  0  0  0  0
  141.0050   69.9040  228.1820 C   0  0  0  0  0  0  0  0  0  0  0  0
  140.6020   69.3780  226.8240 C   0  0  0  0  0  0  0  0  0  0  0  0
  137.9730   68.6343  226.2116 H   0  0  0  0  0  0  0  0  0  0  0  0
  137.1831   69.0892  224.6637 H   0  0  0  0  0  0  0  0  0  0  0  0
  138.5639   67.9402  224.6637 H   0  0  0  0  0  0  0  0  0  0  0  0
  140.5189   70.6903  223.8491 H   0  0  0  0  0  0  0  0  0  0  0  0
  139.6983   69.1332  223.2802 H   0  0  0  0  0  0  0  0  0  0  0  0
  138.6953   70.3578  221.7976 H   0  0  0  0  0  0  0  0  0  0  0  0
  137.7133   70.9846  223.1923 H   0  0  0  0  0  0  0  0  0  0  0  0
  138.8120   73.0490  223.0500 H   0  0  0  0  0  0  0  0  0  0  0  0
  142.2473   73.4649  220.0462 H   0  0  0  0  0  0  0  0  0  0  0  0
  142.9363   75.8336  219.7977 H   0  0  0  0  0  0  0  0  0  0  0  0
  142.6640   78.1769  220.3632 H   0  0  0  0  0  0  0  0  0  0  0  0
  139.5776   79.3035  223.1193 H   0  0  0  0  0  0  0  0  0  0  0  0
  138.9226   76.9593  223.3374 H   0  0  0  0  0  0  0  0  0  0  0  0
  138.9511   70.6301  226.8879 H   0  0  0  0  0  0  0  0  0  0  0  0
  141.2927   71.1638  224.8779 H   0  0  0  0  0  0  0  0  0  0  0  0
  140.0124   72.3454  225.2968 H   0  0  0  0  0  0  0  0  0  0  0  0
  142.5042   71.7131  226.6752 H   0  0  0  0  0  0  0  0  0  0  0  0
  141.3389   73.0876  226.9158 H   0  0  0  0  0  0  0  0  0  0  0  0
  141.6677   71.7641  228.9463 H   0  0  0  0  0  0  0  0  0  0  0  0
  139.9553   71.7150  228.2925 H   0  0  0  0  0  0  0  0  0  0  0  0
  142.0143   69.5445  228.4312 H   0  0  0  0  0  0  0  0  0  0  0  0
  140.2945   69.5475  228.9423 H   0  0  0  0  0  0  0  0  0  0  0  0
  141.5019   69.2118  226.2136 H   0  0  0  0  0  0  0  0  0  0  0  0
  140.0599   68.4286  226.9454 H   0  0  0  0  0  0  0  0  0  0  0  0
  1  2  1  0
  2  3  1  0
  3  4  1  0
  4  5  1  0
  5  6  1  0
  6  7  2  0
  6  8  1  0
  8  9  2  0
  9 10  1  0
 10 11  2  0
 11 12  1  0
 12 13  2  0
 13 14  1  0
 13 15  1  0
 15 16  2  0
 16 17  1  0
 17 18  2  0
  2 19  1  0
 19 20  1  0
 20 21  1  0
 21 22  1  0
 22 23  1  0
 23 24  1  0
 18  8  1  0
 24 19  1  0
 17 11  1  0
  1 25  1  0
  1 26  1  0
  1 27  1  0
  3 28  1  0
  3 29  1  0
  4 30  1  0
  4 31  1  0
  5 32  1  0
  9 33  1  0
 10 34  1  0
 12 35  1  0
 15 36  1  0
 16 37  1  0
 19 38  1  0
 20 39  1  0
 20 40  1  0
 21 41  1  0
 21 42  1  0
 22 43  1  0
 22 44  1  0
 23 45  1  0
 23 46  1  0
 24 47  1  0
 24 48  1  0
M  END
>  <smiles>  (11) 
CN(CCNC(=O)c1ccc2cc(Cl)ccc2n1)C1CCCCC1

>  <score_type>  (11) 
oracle

>  <origin>  (11) 
autodockgpu

>  <m_score__min__energy>  (11) 
-8.2200000000000006

>  <m_primary>  (11) 
energy

>  <rmsd>  (11) 
8.541023427219372

>  <m_score__min__rmsd>  (11) 
8.541023427219372

>  <meeko>  (11) 
{"free_energy": -7.81, "intermolecular_energy": -9.3, "internal_energy": -1.24, "cluster_size": 22, "cluster_id": 2, "rank_in_cluster": 10}

>  <energy>  (11) 
-8.03

>  <cluster_rmsd>  (11) 
0.36

>  <cluster>  (11) 
2

$$$$

     RDKit          3D

 48 50  0  0  0  0  0  0  0  0999 V2000
  141.1860   74.9720  221.5780 C   0  0  0  0  0  0  0  0  0  0  0  0
  140.1730   75.9070  221.8710 N   0  0  0  0  0  0  0  0  0  0  0  0
  139.0020   75.8490  221.0950 C   0  0  0  0  0  0  0  0  0  0  0  0
  138.4290   74.4790  220.8510 C   0  0  0  0  0  0  0  0  0  0  0  0
  138.7460   73.5580  221.9130 N   0  0  0  0  0  0  0  0  0  0  0  0
  138.5140   72.1540  221.8320 C   0  0  0  0  0  0  0  0  0  0  0  0
  138.0090   71.6170  220.8150 O   0  0  0  0  0  0  0  0  0  0  0  0
  138.8810   71.2980  222.9800 C   0  0  0  0  0  0  0  0  0  0  0  0
  138.4860   69.9900  223.0220 C   0  0  0  0  0  0  0  0  0  0  0  0
  138.8430   69.2110  224.1100 C   0  0  0  0  0  0  0  0  0  0  0  0
  139.5940   69.7300  225.1620 C   0  0  0  0  0  0  0  0  0  0  0  0
  139.9520   68.9580  226.2470 C   0  0  0  0  0  0  0  0  0  0  0  0
  140.7070   69.4850  227.3000 C   0  0  0  0  0  0  0  0  0  0  0  0
  141.1520   68.4950  228.6650 Cl  0  0  0  0  0  0  0  0  0  0  0  0
  141.0690   70.8170  227.1850 C   0  0  0  0  0  0  0  0  0  0  0  0
  140.7090   71.5790  226.1030 C   0  0  0  0  0  0  0  0  0  0  0  0
  139.9640   71.0490  225.0710 C   0  0  0  0  0  0  0  0  0  0  0  0
  139.6110   71.7950  224.0080 N   0  0  0  0  0  0  0  0  0  0  0  0
  140.5410   77.1120  222.5100 C   0  0  0  0  0  0  0  0  0  0  0  0
  139.2350   77.8990  222.7250 C   0  0  0  0  0  0  0  0  0  0  0  0
  139.5670   79.2380  223.3300 C   0  0  0  0  0  0  0  0  0  0  0  0
  141.0030   79.3270  223.7680 C   0  0  0  0  0  0  0  0  0  0  0  0
  141.9990   79.0690  222.6790 C   0  0  0  0  0  0  0  0  0  0  0  0
  141.4590   78.0020  221.7560 C   0  0  0  0  0  0  0  0  0  0  0  0
  141.6080   74.5825  222.5162 H   0  0  0  0  0  0  0  0  0  0  0  0
  140.7612   74.1419  220.9946 H   0  0  0  0  0  0  0  0  0  0  0  0
  141.9795   75.4618  220.9946 H   0  0  0  0  0  0  0  0  0  0  0  0
  138.2327   76.4478  221.6045 H   0  0  0  0  0  0  0  0  0  0  0  0
  139.2896   76.2268  220.1027 H   0  0  0  0  0  0  0  0  0  0  0  0
  137.3352   74.5622  220.7693 H   0  0  0  0  0  0  0  0  0  0  0  0
  138.8720   74.0887  219.9228 H   0  0  0  0  0  0  0  0  0  0  0  0
  139.1710   73.9060  222.8110 H   0  0  0  0  0  0  0  0  0  0  0  0
  137.8917   69.5614  222.2015 H   0  0  0  0  0  0  0  0  0  0  0  0
  138.5262   68.1582  224.1441 H   0  0  0  0  0  0  0  0  0  0  0  0
  139.6370   67.9048  226.2853 H   0  0  0  0  0  0  0  0  0  0  0  0
  141.6641   71.2783  227.9869 H   0  0  0  0  0  0  0  0  0  0  0  0
  141.0205   72.6330  226.0577 H   0  0  0  0  0  0  0  0  0  0  0  0
  141.0856   76.8257  223.4218 H   0  0  0  0  0  0  0  0  0  0  0  0
  138.7286   78.0452  221.7595 H   0  0  0  0  0  0  0  0  0  0  0  0
  138.5693   77.3399  223.3990 H   0  0  0  0  0  0  0  0  0  0  0  0
  139.3764   80.0212  222.5815 H   0  0  0  0  0  0  0  0  0  0  0  0
  138.9351   79.3705  224.2206 H   0  0  0  0  0  0  0  0  0  0  0  0
  141.1800   80.3380  224.1638 H   0  0  0  0  0  0  0  0  0  0  0  0
  141.1508   78.5396  224.5218 H   0  0  0  0  0  0  0  0  0  0  0  0
  142.1709   79.9949  222.1105 H   0  0  0  0  0  0  0  0  0  0  0  0
  142.9491   78.7315  223.1189 H   0  0  0  0  0  0  0  0  0  0  0  0
  140.9116   78.4764  220.9281 H   0  0  0  0  0  0  0  0  0  0  0  0
  142.2938   77.4099  221.3528 H   0  0  0  0  0  0  0  0  0  0  0  0
  1  2  1  0
  2  3  1  0
  3  4  1  0
  4  5  1  0
  5  6  1  0
  6  7  2  0
  6  8  1  0
  8  9  2  0
  9 10  1  0
 10 11  2  0
 11 12  1  0
 12 13  2  0
 13 14  1  0
 13 15  1  0
 15 16  2  0
 16 17  1  0
 17 18  2  0
  2 19  1  0
 19 20  1  0
 20 21  1  0
 21 22  1  0
 22 23  1  0
 23 24  1  0
 18  8  1  0
 24 19  1  0
 17 11  1  0
  1 25  1  0
  1 26  1  0
  1 27  1  0
  3 28  1  0
  3 29  1  0
  4 30  1  0
  4 31  1  0
  5 32  1  0
  9 33  1  0
 10 34  1  0
 12 35  1  0
 15 36  1  0
 16 37  1  0
 19 38  1  0
 20 39  1  0
 20 40  1  0
 21 41  1  0
 21 42  1  0
 22 43  1  0
 22 44  1  0
 23 45  1  0
 23 46  1  0
 24 47  1  0
 24 48  1  0
M  END
>  <smiles>  (12) 
CN(CCNC(=O)c1ccc2cc(Cl)ccc2n1)C1CCCCC1

>  <score_type>  (12) 
oracle

>  <origin>  (12) 
autodockgpu

>  <m_score__min__energy>  (12) 
-8.2200000000000006

>  <m_primary>  (12) 
energy

>  <rmsd>  (12) 
2.7978903992875304

>  <m_score__min__rmsd>  (12) 
2.7978903992875304

>  <meeko>  (12) 
{"free_energy": -7.37, "intermolecular_energy": -8.87, "internal_energy": -1.45, "cluster_size": 8, "cluster_id": 1, "rank_in_cluster": 7}

>  <energy>  (12) 
-8.03

>  <cluster_rmsd>  (12) 
0.16

>  <cluster>  (12) 
2

$$$$

     RDKit          3D

 48 50  0  0  0  0  0  0  0  0999 V2000
  141.6230   77.1780  220.5910 C   0  0  0  0  0  0  0  0  0  0  0  0
  140.7520   77.4890  221.6540 N   0  0  0  0  0  0  0  0  0  0  0  0
  139.6020   76.6920  221.7960 C   0  0  0  0  0  0  0  0  0  0  0  0
  139.6610   75.3190  221.1820 C   0  0  0  0  0  0  0  0  0  0  0  0
  139.7120   74.2790  222.1780 N   0  0  0  0  0  0  0  0  0  0  0  0
  139.9680   72.9110  221.8730 C   0  0  0  0  0  0  0  0  0  0  0  0
  140.1680   72.5130  220.6980 O   0  0  0  0  0  0  0  0  0  0  0  0
  140.0020   71.9230  222.9740 C   0  0  0  0  0  0  0  0  0  0  0  0
  139.5380   70.6530  222.7770 C   0  0  0  0  0  0  0  0  0  0  0  0
  139.5810   69.7490  223.8250 C   0  0  0  0  0  0  0  0  0  0  0  0
  140.0860   70.1040  225.0740 C   0  0  0  0  0  0  0  0  0  0  0  0
  140.1310   69.2080  226.1210 C   0  0  0  0  0  0  0  0  0  0  0  0
  140.6390   69.5710  227.3710 C   0  0  0  0  0  0  0  0  0  0  0  0
  140.6900   68.4250  228.6850 Cl  0  0  0  0  0  0  0  0  0  0  0  0
  141.0910   70.8760  227.4920 C   0  0  0  0  0  0  0  0  0  0  0  0
  141.0420   71.7630  226.4470 C   0  0  0  0  0  0  0  0  0  0  0  0
  140.5380   71.3930  225.2180 C   0  0  0  0  0  0  0  0  0  0  0  0
  140.4910   72.2620  224.1910 N   0  0  0  0  0  0  0  0  0  0  0  0
  140.7710   78.8040  222.1690 C   0  0  0  0  0  0  0  0  0  0  0  0
  142.1760   79.0110  222.7630 C   0  0  0  0  0  0  0  0  0  0  0  0
  142.2370   80.3720  223.4080 C   0  0  0  0  0  0  0  0  0  0  0  0
  141.0330   81.2130  223.0840 C   0  0  0  0  0  0  0  0  0  0  0  0
  139.7250   80.5930  223.4700 C   0  0  0  0  0  0  0  0  0  0  0  0
  139.8000   79.1000  223.2520 C   0  0  0  0  0  0  0  0  0  0  0  0
  142.5865   76.8340  220.9951 H   0  0  0  0  0  0  0  0  0  0  0  0
  141.1792   76.3828  219.9740 H   0  0  0  0  0  0  0  0  0  0  0  0
  141.7833   78.0745  219.9740 H   0  0  0  0  0  0  0  0  0  0  0  0
  139.4101   76.5697  222.8722 H   0  0  0  0  0  0  0  0  0  0  0  0
  138.8084   77.2231  221.2500 H   0  0  0  0  0  0  0  0  0  0  0  0
  138.7659   75.1703  220.5601 H   0  0  0  0  0  0  0  0  0  0  0  0
  140.5806   75.2569  220.5816 H   0  0  0  0  0  0  0  0  0  0  0  0
  139.5550   74.5050  223.1930 H   0  0  0  0  0  0  0  0  0  0  0  0
  139.1354   70.3526  221.7984 H   0  0  0  0  0  0  0  0  0  0  0  0
  139.2076   68.7264  223.6677 H   0  0  0  0  0  0  0  0  0  0  0  0
  139.7585   68.1842  225.9688 H   0  0  0  0  0  0  0  0  0  0  0  0
  141.5017   71.2105  228.4561 H   0  0  0  0  0  0  0  0  0  0  0  0
  141.4117   72.7888  226.5921 H   0  0  0  0  0  0  0  0  0  0  0  0
  140.4987   79.4674  221.3349 H   0  0  0  0  0  0  0  0  0  0  0  0
  142.3761   78.2356  223.5171 H   0  0  0  0  0  0  0  0  0  0  0  0
  142.9316   78.9415  221.9666 H   0  0  0  0  0  0  0  0  0  0  0  0
  142.2955   80.2439  224.4990 H   0  0  0  0  0  0  0  0  0  0  0  0
  143.1243   80.8903  223.0156 H   0  0  0  0  0  0  0  0  0  0  0  0
  141.1296   82.1716  223.6148 H   0  0  0  0  0  0  0  0  0  0  0  0
  141.0155   81.3293  221.9903 H   0  0  0  0  0  0  0  0  0  0  0  0
  139.5183   80.8001  224.5304 H   0  0  0  0  0  0  0  0  0  0  0  0
  138.9187   81.0167  222.8533 H   0  0  0  0  0  0  0  0  0  0  0  0
  140.1270   78.6102  224.1811 H   0  0  0  0  0  0  0  0  0  0  0  0
  138.8073   78.7218  222.9666 H   0  0  0  0  0  0  0  0  0  0  0  0
  1  2  1  0
  2  3  1  0
  3  4  1  0
  4  5  1  0
  5  6  1  0
  6  7  2  0
  6  8  1  0
  8  9  2  0
  9 10  1  0
 10 11  2  0
 11 12  1  0
 12 13  2  0
 13 14  1  0
 13 15  1  0
 15 16  2  0
 16 17  1  0
 17 18  2  0
  2 19  1  0
 19 20  1  0
 20 21  1  0
 21 22  1  0
 22 23  1  0
 23 24  1  0
 18  8  1  0
 24 19  1  0
 17 11  1  0
  1 25  1  0
  1 26  1  0
  1 27  1  0
  3 28  1  0
  3 29  1  0
  4 30  1  0
  4 31  1  0
  5 32  1  0
  9 33  1  0
 10 34  1  0
 12 35  1  0
 15 36  1  0
 16 37  1  0
 19 38  1  0
 20 39  1  0
 20 40  1  0
 21 41  1  0
 21 42  1  0
 22 43  1  0
 22 44  1  0
 23 45  1  0
 23 46  1  0
 24 47  1  0
 24 48  1  0
M  END
>  <smiles>  (13) 
CN(CCNC(=O)c1ccc2cc(Cl)ccc2n1)C1CCCCC1

>  <score_type>  (13) 
oracle

>  <origin>  (13) 
autodockgpu

>  <m_score__min__energy>  (13) 
-8.2200000000000006

>  <m_primary>  (13) 
energy

>  <rmsd>  (13) 
3.581161119393762

>  <m_score__min__rmsd>  (13) 
3.581161119393762

>  <meeko>  (13) 
{"free_energy": -8.04, "intermolecular_energy": -9.53, "internal_energy": -0.88, "cluster_size": 8, "cluster_id": 1, "rank_in_cluster": 4}

>  <energy>  (13) 
-7.99

>  <cluster_rmsd>  (13) 
0.43

>  <cluster>  (13) 
2

$$$$

     RDKit          3D

 48 50  0  0  0  0  0  0  0  0999 V2000
  141.2010   74.7660  221.5920 C   0  0  0  0  0  0  0  0  0  0  0  0
  140.2250   75.7780  221.6860 N   0  0  0  0  0  0  0  0  0  0  0  0
  139.1950   75.7670  220.7290 C   0  0  0  0  0  0  0  0  0  0  0  0
  138.2670   74.5830  220.7590 C   0  0  0  0  0  0  0  0  0  0  0  0
  138.5870   73.6650  221.8230 N   0  0  0  0  0  0  0  0  0  0  0  0
  138.2740   72.2760  221.7830 C   0  0  0  0  0  0  0  0  0  0  0  0
  137.6890   71.7490  220.8040 O   0  0  0  0  0  0  0  0  0  0  0  0
  138.6510   71.4210  222.9300 C   0  0  0  0  0  0  0  0  0  0  0  0
  138.1590   70.1510  223.0370 C   0  0  0  0  0  0  0  0  0  0  0  0
  138.5290   69.3730  224.1220 C   0  0  0  0  0  0  0  0  0  0  0  0
  139.3880   69.8560  225.1060 C   0  0  0  0  0  0  0  0  0  0  0  0
  139.7590   69.0850  226.1870 C   0  0  0  0  0  0  0  0  0  0  0  0
  140.6220   69.5760  227.1710 C   0  0  0  0  0  0  0  0  0  0  0  0
  141.0810   68.5890  228.5330 Cl  0  0  0  0  0  0  0  0  0  0  0  0
  141.0790   70.8730  226.9930 C   0  0  0  0  0  0  0  0  0  0  0  0
  140.7060   71.6340  225.9140 C   0  0  0  0  0  0  0  0  0  0  0  0
  139.8530   71.1390  224.9510 C   0  0  0  0  0  0  0  0  0  0  0  0
  139.4870   71.8840  223.8920 N   0  0  0  0  0  0  0  0  0  0  0  0
  140.5710   76.9800  222.3420 C   0  0  0  0  0  0  0  0  0  0  0  0
  139.2430   77.6930  222.6560 C   0  0  0  0  0  0  0  0  0  0  0  0
  139.5450   79.0290  223.2860 C   0  0  0  0  0  0  0  0  0  0  0  0
  140.9980   79.1770  223.6450 C   0  0  0  0  0  0  0  0  0  0  0  0
  141.9400   79.0020  222.4930 C   0  0  0  0  0  0  0  0  0  0  0  0
  141.3990   77.9370  221.5680 C   0  0  0  0  0  0  0  0  0  0  0  0
  141.5030   74.4529  222.6023 H   0  0  0  0  0  0  0  0  0  0  0  0
  140.7845   73.9041  221.0501 H   0  0  0  0  0  0  0  0  0  0  0  0
  142.0774   75.1510  221.0501 H   0  0  0  0  0  0  0  0  0  0  0  0
  138.5881   76.6719  220.8800 H   0  0  0  0  0  0  0  0  0  0  0  0
  139.7022   75.7163  219.7542 H   0  0  0  0  0  0  0  0  0  0  0  0
  137.2375   74.9438  220.9005 H   0  0  0  0  0  0  0  0  0  0  0  0
  138.3763   74.0451  219.8057 H   0  0  0  0  0  0  0  0  0  0  0  0
  139.0750   74.0050  222.6900 H   0  0  0  0  0  0  0  0  0  0  0  0
  137.4777   69.7512  222.2714 H   0  0  0  0  0  0  0  0  0  0  0  0
  138.1350   68.3496  224.2083 H   0  0  0  0  0  0  0  0  0  0  0  0
  139.3674   68.0610  226.2772 H   0  0  0  0  0  0  0  0  0  0  0  0
  141.7615   71.3050  227.7397 H   0  0  0  0  0  0  0  0  0  0  0  0
  141.0949   72.6582  225.8156 H   0  0  0  0  0  0  0  0  0  0  0  0
  141.1814   76.6942  223.2113 H   0  0  0  0  0  0  0  0  0  0  0  0
  138.6751   77.8429  221.7259 H   0  0  0  0  0  0  0  0  0  0  0  0
  138.6449   77.0809  223.3471 H   0  0  0  0  0  0  0  0  0  0  0  0
  139.2736   79.8241  222.5759 H   0  0  0  0  0  0  0  0  0  0  0  0
  138.9604   79.1022  224.2149 H   0  0  0  0  0  0  0  0  0  0  0  0
  141.1486   80.1833  224.0630 H   0  0  0  0  0  0  0  0  0  0  0  0
  141.2276   78.3762  224.3633 H   0  0  0  0  0  0  0  0  0  0  0  0
  142.0333   79.9519  221.9461 H   0  0  0  0  0  0  0  0  0  0  0  0
  142.9295   78.6999  222.8666 H   0  0  0  0  0  0  0  0  0  0  0  0
  140.7820   78.4080  220.7885 H   0  0  0  0  0  0  0  0  0  0  0  0
  142.2368   77.3998  221.0996 H   0  0  0  0  0  0  0  0  0  0  0  0
  1  2  1  0
  2  3  1  0
  3  4  1  0
  4  5  1  0
  5  6  1  0
  6  7  2  0
  6  8  1  0
  8  9  2  0
  9 10  1  0
 10 11  2  0
 11 12  1  0
 12 13  2  0
 13 14  1  0
 13 15  1  0
 15 16  2  0
 16 17  1  0
 17 18  2  0
  2 19  1  0
 19 20  1  0
 20 21  1  0
 21 22  1  0
 22 23  1  0
 23 24  1  0
 18  8  1  0
 24 19  1  0
 17 11  1  0
  1 25  1  0
  1 26  1  0
  1 27  1  0
  3 28  1  0
  3 29  1  0
  4 30  1  0
  4 31  1  0
  5 32  1  0
  9 33  1  0
 10 34  1  0
 12 35  1  0
 15 36  1  0
 16 37  1  0
 19 38  1  0
 20 39  1  0
 20 40  1  0
 21 41  1  0
 21 42  1  0
 22 43  1  0
 22 44  1  0
 23 45  1  0
 23 46  1  0
 24 47  1  0
 24 48  1  0
M  END
>  <smiles>  (14) 
CN(CCNC(=O)c1ccc2cc(Cl)ccc2n1)C1CCCCC1

>  <score_type>  (14) 
oracle

>  <origin>  (14) 
autodockgpu

>  <m_score__min__energy>  (14) 
-8.2200000000000006

>  <m_primary>  (14) 
energy

>  <rmsd>  (14) 
2.7678550377743125

>  <m_score__min__rmsd>  (14) 
2.7678550377743125

>  <meeko>  (14) 
{"free_energy": -7.09, "intermolecular_energy": -8.58, "internal_energy": -1.61, "cluster_size": 8, "cluster_id": 1, "rank_in_cluster": 8}

>  <energy>  (14) 
-7.98

>  <cluster_rmsd>  (14) 
0.29

>  <cluster>  (14) 
2

$$$$

     RDKit          3D

 48 50  0  0  0  0  0  0  0  0999 V2000
  139.3900   71.3520  223.6160 C   0  0  0  0  0  0  0  0  0  0  0  0
  139.5960   70.2630  224.4850 N   0  0  0  0  0  0  0  0  0  0  0  0
  139.1720   68.9980  224.0410 C   0  0  0  0  0  0  0  0  0  0  0  0
  137.7230   68.8760  223.6540 C   0  0  0  0  0  0  0  0  0  0  0  0
  136.8990   69.8640  224.3030 N   0  0  0  0  0  0  0  0  0  0  0  0
  135.5570   69.6210  224.7150 C   0  0  0  0  0  0  0  0  0  0  0  0
  134.9920   68.5140  224.5360 O   0  0  0  0  0  0  0  0  0  0  0  0
  134.8010   70.7070  225.3770 C   0  0  0  0  0  0  0  0  0  0  0  0
  133.8580   70.4160  226.3220 C   0  0  0  0  0  0  0  0  0  0  0  0
  133.1660   71.4520  226.9260 C   0  0  0  0  0  0  0  0  0  0  0  0
  133.4070   72.7830  226.5920 C   0  0  0  0  0  0  0  0  0  0  0  0
  132.7200   73.8170  227.1910 C   0  0  0  0  0  0  0  0  0  0  0  0
  132.9680   75.1510  226.8510 C   0  0  0  0  0  0  0  0  0  0  0  0
  132.0900   76.4480  227.6170 Cl  0  0  0  0  0  0  0  0  0  0  0  0
  133.9390   75.3650  225.8850 C   0  0  0  0  0  0  0  0  0  0  0  0
  134.6180   74.3310  225.2930 C   0  0  0  0  0  0  0  0  0  0  0  0
  134.3640   73.0190  225.6360 C   0  0  0  0  0  0  0  0  0  0  0  0
  135.0310   72.0040  225.0570 N   0  0  0  0  0  0  0  0  0  0  0  0
  139.7140   70.5250  225.8680 C   0  0  0  0  0  0  0  0  0  0  0  0
  140.8390   71.5660  226.0110 C   0  0  0  0  0  0  0  0  0  0  0  0
  141.0750   71.8310  227.4760 C   0  0  0  0  0  0  0  0  0  0  0  0
  140.0150   71.2130  228.3460 C   0  0  0  0  0  0  0  0  0  0  0  0
  139.8630   69.7320  228.1780 C   0  0  0  0  0  0  0  0  0  0  0  0
  140.0840   69.3730  226.7270 C   0  0  0  0  0  0  0  0  0  0  0  0
  139.2174   72.2643  224.2059 H   0  0  0  0  0  0  0  0  0  0  0  0
  140.2783   71.4881  222.9817 H   0  0  0  0  0  0  0  0  0  0  0  0
  138.5133   71.1542  222.9817 H   0  0  0  0  0  0  0  0  0  0  0  0
  139.7768   68.7319  223.1616 H   0  0  0  0  0  0  0  0  0  0  0  0
  139.3018   68.3271  224.9030 H   0  0  0  0  0  0  0  0  0  0  0  0
  137.6358   69.0027  222.5648 H   0  0  0  0  0  0  0  0  0  0  0  0
  137.3720   67.8832  223.9721 H   0  0  0  0  0  0  0  0  0  0  0  0
  137.2770   70.8270  224.4990 H   0  0  0  0  0  0  0  0  0  0  0  0
  133.6512   69.3718  226.5994 H   0  0  0  0  0  0  0  0  0  0  0  0
  132.4077   71.2186  227.6879 H   0  0  0  0  0  0  0  0  0  0  0  0
  131.9603   73.5882  227.9529 H   0  0  0  0  0  0  0  0  0  0  0  0
  134.1722   76.3969  225.5838 H   0  0  0  0  0  0  0  0  0  0  0  0
  135.3794   74.5518  224.5304 H   0  0  0  0  0  0  0  0  0  0  0  0
  138.7177   70.8424  226.2095 H   0  0  0  0  0  0  0  0  0  0  0  0
  141.7609   71.1789  225.5525 H   0  0  0  0  0  0  0  0  0  0  0  0
  140.5502   72.4991  225.5051 H   0  0  0  0  0  0  0  0  0  0  0  0
  142.0524   71.4127  227.7582 H   0  0  0  0  0  0  0  0  0  0  0  0
  141.0443   72.9197  227.6302 H   0  0  0  0  0  0  0  0  0  0  0  0
  140.2707   71.4157  229.3965 H   0  0  0  0  0  0  0  0  0  0  0  0
  139.0582   71.6633  228.0432 H   0  0  0  0  0  0  0  0  0  0  0  0
  140.6044   69.2125  228.8029 H   0  0  0  0  0  0  0  0  0  0  0  0
  138.8520   69.4263  228.4852 H   0  0  0  0  0  0  0  0  0  0  0  0
  141.1436   69.1236  226.5687 H   0  0  0  0  0  0  0  0  0  0  0  0
  139.4590   68.5064  226.4655 H   0  0  0  0  0  0  0  0  0  0  0  0
  1  2  1  0
  2  3  1  0
  3  4  1  0
  4  5  1  0
  5  6  1  0
  6  7  2  0
  6  8  1  0
  8  9  2  0
  9 10  1  0
 10 11  2  0
 11 12  1  0
 12 13  2  0
 13 14  1  0
 13 15  1  0
 15 16  2  0
 16 17  1  0
 17 18  2  0
  2 19  1  0
 19 20  1  0
 20 21  1  0
 21 22  1  0
 22 23  1  0
 23 24  1  0
 18  8  1  0
 24 19  1  0
 17 11  1  0
  1 25  1  0
  1 26  1  0
  1 27  1  0
  3 28  1  0
  3 29  1  0
  4 30  1  0
  4 31  1  0
  5 32  1  0
  9 33  1  0
 10 34  1  0
 12 35  1  0
 15 36  1  0
 16 37  1  0
 19 38  1  0
 20 39  1  0
 20 40  1  0
 21 41  1  0
 21 42  1  0
 22 43  1  0
 22 44  1  0
 23 45  1  0
 23 46  1  0
 24 47  1  0
 24 48  1  0
M  END
>  <smiles>  (15) 
CN(CCNC(=O)c1ccc2cc(Cl)ccc2n1)C1CCCCC1

>  <score_type>  (15) 
oracle

>  <origin>  (15) 
autodockgpu

>  <m_score__min__energy>  (15) 
-8.2200000000000006

>  <m_primary>  (15) 
energy

>  <rmsd>  (15) 
8.124192836867623

>  <m_score__min__rmsd>  (15) 
8.124192836867623

>  <meeko>  (15) 
{"free_energy": -7.41, "intermolecular_energy": -8.9, "internal_energy": -1.62, "cluster_size": 17, "cluster_id": 3, "rank_in_cluster": 9}

>  <energy>  (15) 
-7.97

>  <cluster_rmsd>  (15) 
0.28

>  <cluster>  (15) 
2

$$$$

     RDKit          3D

 48 50  0  0  0  0  0  0  0  0999 V2000
  139.2280   68.2580  224.7900 C   0  0  0  0  0  0  0  0  0  0  0  0
  138.8110   69.5170  225.2660 N   0  0  0  0  0  0  0  0  0  0  0  0
  137.9810   70.2790  224.4240 C   0  0  0  0  0  0  0  0  0  0  0  0
  138.4670   70.4860  223.0160 C   0  0  0  0  0  0  0  0  0  0  0  0
  138.9240   71.8340  222.7890 N   0  0  0  0  0  0  0  0  0  0  0  0
  140.0130   72.1610  221.9290 C   0  0  0  0  0  0  0  0  0  0  0  0
  140.6580   71.2840  221.3030 O   0  0  0  0  0  0  0  0  0  0  0  0
  140.3980   73.5800  221.7650 C   0  0  0  0  0  0  0  0  0  0  0  0
  141.5300   73.9130  221.0760 C   0  0  0  0  0  0  0  0  0  0  0  0
  141.8660   75.2500  220.9390 C   0  0  0  0  0  0  0  0  0  0  0  0
  141.0790   76.2600  221.4870 C   0  0  0  0  0  0  0  0  0  0  0  0
  141.4100   77.5920  221.3520 C   0  0  0  0  0  0  0  0  0  0  0  0
  140.6150   78.6010  221.9040 C   0  0  0  0  0  0  0  0  0  0  0  0
  141.0470   80.2800  221.7250 Cl  0  0  0  0  0  0  0  0  0  0  0  0
  139.4840   78.1830  222.5870 C   0  0  0  0  0  0  0  0  0  0  0  0
  139.1610   76.8560  222.7180 C   0  0  0  0  0  0  0  0  0  0  0  0
  139.9530   75.8700  222.1690 C   0  0  0  0  0  0  0  0  0  0  0  0
  139.6370   74.5680  222.2960 N   0  0  0  0  0  0  0  0  0  0  0  0
  139.6000   70.1550  226.2490 C   0  0  0  0  0  0  0  0  0  0  0  0
  140.4940   71.1570  225.4950 C   0  0  0  0  0  0  0  0  0  0  0  0
  141.4250   71.8160  226.4810 C   0  0  0  0  0  0  0  0  0  0  0  0
  141.0630   71.5030  227.9070 C   0  0  0  0  0  0  0  0  0  0  0  0
  141.0310   70.0410  228.2300 C   0  0  0  0  0  0  0  0  0  0  0  0
  140.5050   69.2800  227.0350 C   0  0  0  0  0  0  0  0  0  0  0  0
  139.4467   67.5978  225.6423 H   0  0  0  0  0  0  0  0  0  0  0  0
  138.4288   67.8143  224.1781 H   0  0  0  0  0  0  0  0  0  0  0  0
  140.1340   68.3791  224.1781 H   0  0  0  0  0  0  0  0  0  0  0  0
  137.0049   69.7746  224.3705 H   0  0  0  0  0  0  0  0  0  0  0  0
  137.9509   71.2825  224.8734 H   0  0  0  0  0  0  0  0  0  0  0  0
  139.2992   69.7929  222.8233 H   0  0  0  0  0  0  0  0  0  0  0  0
  137.6225   70.2975  222.3368 H   0  0  0  0  0  0  0  0  0  0  0  0
  138.4540   72.6430  223.2680 H   0  0  0  0  0  0  0  0  0  0  0  0
  142.1657   73.1304  220.6362 H   0  0  0  0  0  0  0  0  0  0  0  0
  142.7764   75.5204  220.3840 H   0  0  0  0  0  0  0  0  0  0  0  0
  142.3196   77.8666  220.7978 H   0  0  0  0  0  0  0  0  0  0  0  0
  138.8245   78.9389  223.0383 H   0  0  0  0  0  0  0  0  0  0  0  0
  138.2532   76.5735  223.2713 H   0  0  0  0  0  0  0  0  0  0  0  0
  138.8986   70.5886  226.9770 H   0  0  0  0  0  0  0  0  0  0  0  0
  141.0806   70.6264  224.7306 H   0  0  0  0  0  0  0  0  0  0  0  0
  139.8700   71.9184  225.0041 H   0  0  0  0  0  0  0  0  0  0  0  0
  142.4492   71.4627  226.2906 H   0  0  0  0  0  0  0  0  0  0  0  0
  141.3429   72.9044  226.3447 H   0  0  0  0  0  0  0  0  0  0  0  0
  141.8028   71.9843  228.5635 H   0  0  0  0  0  0  0  0  0  0  0  0
  140.0419   71.8814  228.0622 H   0  0  0  0  0  0  0  0  0  0  0  0
  142.0474   69.6945  228.4686 H   0  0  0  0  0  0  0  0  0  0  0  0
  140.3756   69.8680  229.0963 H   0  0  0  0  0  0  0  0  0  0  0  0
  141.3475   68.9622  226.4031 H   0  0  0  0  0  0  0  0  0  0  0  0
  139.9502   68.3949  227.3798 H   0  0  0  0  0  0  0  0  0  0  0  0
  1  2  1  0
  2  3  1  0
  3  4  1  0
  4  5  1  0
  5  6  1  0
  6  7  2  0
  6  8  1  0
  8  9  2  0
  9 10  1  0
 10 11  2  0
 11 12  1  0
 12 13  2  0
 13 14  1  0
 13 15  1  0
 15 16  2  0
 16 17  1  0
 17 18  2  0
  2 19  1  0
 19 20  1  0
 20 21  1  0
 21 22  1  0
 22 23  1  0
 23 24  1  0
 18  8  1  0
 24 19  1  0
 17 11  1  0
  1 25  1  0
  1 26  1  0
  1 27  1  0
  3 28  1  0
  3 29  1  0
  4 30  1  0
  4 31  1  0
  5 32  1  0
  9 33  1  0
 10 34  1  0
 12 35  1  0
 15 36  1  0
 16 37  1  0
 19 38  1  0
 20 39  1  0
 20 40  1  0
 21 41  1  0
 21 42  1  0
 22 43  1  0
 22 44  1  0
 23 45  1  0
 23 46  1  0
 24 47  1  0
 24 48  1  0
M  END
>  <smiles>  (16) 
CN(CCNC(=O)c1ccc2cc(Cl)ccc2n1)C1CCCCC1

>  <score_type>  (16) 
oracle

>  <origin>  (16) 
autodockgpu

>  <m_score__min__energy>  (16) 
-8.2200000000000006

>  <m_primary>  (16) 
energy

>  <rmsd>  (16) 
8.478472631827984

>  <m_score__min__rmsd>  (16) 
8.478472631827984

>  <meeko>  (16) 
{"free_energy": -7.72, "intermolecular_energy": -9.21, "internal_energy": -1.31, "cluster_size": 22, "cluster_id": 2, "rank_in_cluster": 15}

>  <energy>  (16) 
-7.97

>  <cluster_rmsd>  (16) 
1.13

>  <cluster>  (16) 
2

$$$$

     RDKit          3D

 48 50  0  0  0  0  0  0  0  0999 V2000
  137.2090   70.7920  224.2130 C   0  0  0  0  0  0  0  0  0  0  0  0
  138.5200   70.2760  224.2340 N   0  0  0  0  0  0  0  0  0  0  0  0
  138.8350   69.2870  223.2850 C   0  0  0  0  0  0  0  0  0  0  0  0
  139.6120   69.7410  222.0790 C   0  0  0  0  0  0  0  0  0  0  0  0
  139.7980   71.1700  222.0550 N   0  0  0  0  0  0  0  0  0  0  0  0
  140.8300   71.8170  221.3160 C   0  0  0  0  0  0  0  0  0  0  0  0
  141.6610   71.1760  220.6260 O   0  0  0  0  0  0  0  0  0  0  0  0
  140.9290   73.2920  221.3600 C   0  0  0  0  0  0  0  0  0  0  0  0
  141.9870   73.9310  220.7790 C   0  0  0  0  0  0  0  0  0  0  0  0
  142.0540   75.3140  220.8350 C   0  0  0  0  0  0  0  0  0  0  0  0
  141.0680   76.0660  221.4690 C   0  0  0  0  0  0  0  0  0  0  0  0
  141.1310   77.4420  221.5270 C   0  0  0  0  0  0  0  0  0  0  0  0
  140.1370   78.1910  222.1640 C   0  0  0  0  0  0  0  0  0  0  0  0
  140.2310   79.9310  222.2290 Cl  0  0  0  0  0  0  0  0  0  0  0  0
  139.0960   77.4710  222.7290 C   0  0  0  0  0  0  0  0  0  0  0  0
  139.0410   76.1020  222.6670 C   0  0  0  0  0  0  0  0  0  0  0  0
  140.0270   75.3740  222.0360 C   0  0  0  0  0  0  0  0  0  0  0  0
  139.9730   74.0310  221.9750 N   0  0  0  0  0  0  0  0  0  0  0  0
  139.2520   70.3630  225.4380 C   0  0  0  0  0  0  0  0  0  0  0  0
  140.3320   71.4360  225.2070 C   0  0  0  0  0  0  0  0  0  0  0  0
  141.2060   71.5200  226.4310 C   0  0  0  0  0  0  0  0  0  0  0  0
  140.6470   70.7380  227.5880 C   0  0  0  0  0  0  0  0  0  0  0  0
  140.4200   69.2850  227.2990 C   0  0  0  0  0  0  0  0  0  0  0  0
  139.9580   69.1300  225.8690 C   0  0  0  0  0  0  0  0  0  0  0  0
  136.8535   70.9319  225.2445 H   0  0  0  0  0  0  0  0  0  0  0  0
  137.2040   71.7592  223.6890 H   0  0  0  0  0  0  0  0  0  0  0  0
  136.5461   70.0877  223.6890 H   0  0  0  0  0  0  0  0  0  0  0  0
  139.4280   68.5123  223.7931 H   0  0  0  0  0  0  0  0  0  0  0  0
  137.8677   68.9373  222.8950 H   0  0  0  0  0  0  0  0  0  0  0  0
  140.5991   69.2558  222.0908 H   0  0  0  0  0  0  0  0  0  0  0  0
  139.0378   69.4610  221.1835 H   0  0  0  0  0  0  0  0  0  0  0  0
  139.1560   71.7990  222.6030 H   0  0  0  0  0  0  0  0  0  0  0  0
  142.7759   73.3552  220.2730 H   0  0  0  0  0  0  0  0  0  0  0  0
  142.9058   75.8299  220.3678 H   0  0  0  0  0  0  0  0  0  0  0  0
  141.9817   77.9618  221.0621 H   0  0  0  0  0  0  0  0  0  0  0  0
  138.2893   78.0143  223.2429 H   0  0  0  0  0  0  0  0  0  0  0  0
  138.1937   75.5747  223.1297 H   0  0  0  0  0  0  0  0  0  0  0  0
  138.5202   70.5800  226.2301 H   0  0  0  0  0  0  0  0  0  0  0  0
  140.9436   71.1625  224.3346 H   0  0  0  0  0  0  0  0  0  0  0  0
  139.8559   72.4101  225.0214 H   0  0  0  0  0  0  0  0  0  0  0  0
  142.2009   71.1217  226.1829 H   0  0  0  0  0  0  0  0  0  0  0  0
  141.2593   72.5761  226.7339 H   0  0  0  0  0  0  0  0  0  0  0  0
  141.3519   70.8158  228.4289 H   0  0  0  0  0  0  0  0  0  0  0  0
  139.6617   71.1716  227.8141 H   0  0  0  0  0  0  0  0  0  0  0  0
  141.3583   68.7298  227.4449 H   0  0  0  0  0  0  0  0  0  0  0  0
  139.6534   68.8877  227.9805 H   0  0  0  0  0  0  0  0  0  0  0  0
  140.8291   68.9606  225.2190 H   0  0  0  0  0  0  0  0  0  0  0  0
  139.2730   68.2723  225.7970 H   0  0  0  0  0  0  0  0  0  0  0  0
  1  2  1  0
  2  3  1  0
  3  4  1  0
  4  5  1  0
  5  6  1  0
  6  7  2  0
  6  8  1  0
  8  9  2  0
  9 10  1  0
 10 11  2  0
 11 12  1  0
 12 13  2  0
 13 14  1  0
 13 15  1  0
 15 16  2  0
 16 17  1  0
 17 18  2  0
  2 19  1  0
 19 20  1  0
 20 21  1  0
 21 22  1  0
 22 23  1  0
 23 24  1  0
 18  8  1  0
 24 19  1  0
 17 11  1  0
  1 25  1  0
  1 26  1  0
  1 27  1  0
  3 28  1  0
  3 29  1  0
  4 30  1  0
  4 31  1  0
  5 32  1  0
  9 33  1  0
 10 34  1  0
 12 35  1  0
 15 36  1  0
 16 37  1  0
 19 38  1  0
 20 39  1  0
 20 40  1  0
 21 41  1  0
 21 42  1  0
 22 43  1  0
 22 44  1  0
 23 45  1  0
 23 46  1  0
 24 47  1  0
 24 48  1  0
M  END
>  <smiles>  (17) 
CN(CCNC(=O)c1ccc2cc(Cl)ccc2n1)C1CCCCC1

>  <score_type>  (17) 
oracle

>  <origin>  (17) 
autodockgpu

>  <m_score__min__energy>  (17) 
-8.2200000000000006

>  <m_primary>  (17) 
energy

>  <rmsd>  (17) 
8.075558889784626

>  <m_score__min__rmsd>  (17) 
8.075558889784626

>  <meeko>  (17) 
{"free_energy": -6.56, "intermolecular_energy": -8.05, "internal_energy": -1.97, "cluster_size": 22, "cluster_id": 2, "rank_in_cluster": 21}

>  <energy>  (17) 
-7.89

>  <cluster_rmsd>  (17) 
1.29

>  <cluster>  (17) 
2

$$$$

     RDKit          3D

 48 50  0  0  0  0  0  0  0  0999 V2000
  139.9270   77.7280  219.6770 C   0  0  0  0  0  0  0  0  0  0  0  0
  140.8910   77.2820  220.6040 N   0  0  0  0  0  0  0  0  0  0  0  0
  140.8360   75.9290  220.9860 C   0  0  0  0  0  0  0  0  0  0  0  0
  139.4830   75.3980  221.3730 C   0  0  0  0  0  0  0  0  0  0  0  0
  139.5710   74.3260  222.3310 N   0  0  0  0  0  0  0  0  0  0  0  0
  139.7910   72.9650  221.9720 C   0  0  0  0  0  0  0  0  0  0  0  0
  139.9240   72.6020  220.7770 O   0  0  0  0  0  0  0  0  0  0  0  0
  139.8670   71.9430  223.0380 C   0  0  0  0  0  0  0  0  0  0  0  0
  139.4660   70.6600  222.7960 C   0  0  0  0  0  0  0  0  0  0  0  0
  139.5480   69.7230  223.8130 C   0  0  0  0  0  0  0  0  0  0  0  0
  140.0310   70.0590  225.0760 C   0  0  0  0  0  0  0  0  0  0  0  0
  140.1150   69.1300  226.0910 C   0  0  0  0  0  0  0  0  0  0  0  0
  140.6010   69.4750  227.3560 C   0  0  0  0  0  0  0  0  0  0  0  0
  140.7010   68.2880  228.6300 Cl  0  0  0  0  0  0  0  0  0  0  0  0
  140.9890   70.7940  227.5240 C   0  0  0  0  0  0  0  0  0  0  0  0
  140.9020   71.7130  226.5090 C   0  0  0  0  0  0  0  0  0  0  0  0
  140.4210   71.3620  225.2660 C   0  0  0  0  0  0  0  0  0  0  0  0
  140.3360   72.2630  224.2690 N   0  0  0  0  0  0  0  0  0  0  0  0
  141.4890   78.2350  221.4560 C   0  0  0  0  0  0  0  0  0  0  0  0
  140.9200   77.9700  222.8620 C   0  0  0  0  0  0  0  0  0  0  0  0
  141.4560   79.0110  223.8100 C   0  0  0  0  0  0  0  0  0  0  0  0
  142.5520   79.8360  223.1930 C   0  0  0  0  0  0  0  0  0  0  0  0
  142.1580   80.5400  221.9310 C   0  0  0  0  0  0  0  0  0  0  0  0
  141.2150   79.6600  221.1450 C   0  0  0  0  0  0  0  0  0  0  0  0
  139.0574   78.1303  220.2173 H   0  0  0  0  0  0  0  0  0  0  0  0
  140.3629   78.5160  219.0452 H   0  0  0  0  0  0  0  0  0  0  0  0
  139.6086   76.8857  219.0452 H   0  0  0  0  0  0  0  0  0  0  0  0
  141.2025   75.3275  220.1411 H   0  0  0  0  0  0  0  0  0  0  0  0
  141.4495   75.8571  221.8962 H   0  0  0  0  0  0  0  0  0  0  0  0
  138.8936   76.2168  221.8113 H   0  0  0  0  0  0  0  0  0  0  0  0
  139.0049   75.0005  220.4656 H   0  0  0  0  0  0  0  0  0  0  0  0
  139.4700   74.5220  223.3610 H   0  0  0  0  0  0  0  0  0  0  0  0
  139.0825   70.3742  221.8054 H   0  0  0  0  0  0  0  0  0  0  0  0
  139.2243   68.6898  223.6190 H   0  0  0  0  0  0  0  0  0  0  0  0
  139.7929   68.0954  225.9018 H   0  0  0  0  0  0  0  0  0  0  0  0
  141.3789   71.1146  228.5013 H   0  0  0  0  0  0  0  0  0  0  0  0
  141.2222   72.7496  226.6907 H   0  0  0  0  0  0  0  0  0  0  0  0
  142.5762   78.1096  221.3450 H   0  0  0  0  0  0  0  0  0  0  0  0
  139.8219   78.0277  222.8328 H   0  0  0  0  0  0  0  0  0  0  0  0
  141.2189   76.9674  223.2019 H   0  0  0  0  0  0  0  0  0  0  0  0
  140.6330   79.6792  224.1035 H   0  0  0  0  0  0  0  0  0  0  0  0
  141.8787   78.4874  224.6801 H   0  0  0  0  0  0  0  0  0  0  0  0
  142.8672   80.5933  223.9259 H   0  0  0  0  0  0  0  0  0  0  0  0
  143.3589   79.1379  222.9254 H   0  0  0  0  0  0  0  0  0  0  0  0
  141.6566   81.4871  222.1792 H   0  0  0  0  0  0  0  0  0  0  0  0
  143.0548   80.7503  221.3297 H   0  0  0  0  0  0  0  0  0  0  0  0
  140.1768   79.9011  221.4170 H   0  0  0  0  0  0  0  0  0  0  0  0
  141.3635   79.8344  220.0691 H   0  0  0  0  0  0  0  0  0  0  0  0
  1  2  1  0
  2  3  1  0
  3  4  1  0
  4  5  1  0
  5  6  1  0
  6  7  2  0
  6  8  1  0
  8  9  2  0
  9 10  1  0
 10 11  2  0
 11 12  1  0
 12 13  2  0
 13 14  1  0
 13 15  1  0
 15 16  2  0
 16 17  1  0
 17 18  2  0
  2 19  1  0
 19 20  1  0
 20 21  1  0
 21 22  1  0
 22 23  1  0
 23 24  1  0
 18  8  1  0
 24 19  1  0
 17 11  1  0
  1 25  1  0
  1 26  1  0
  1 27  1  0
  3 28  1  0
  3 29  1  0
  4 30  1  0
  4 31  1  0
  5 32  1  0
  9 33  1  0
 10 34  1  0
 12 35  1  0
 15 36  1  0
 16 37  1  0
 19 38  1  0
 20 39  1  0
 20 40  1  0
 21 41  1  0
 21 42  1  0
 22 43  1  0
 22 44  1  0
 23 45  1  0
 23 46  1  0
 24 47  1  0
 24 48  1  0
M  END
>  <smiles>  (18) 
CN(CCNC(=O)c1ccc2cc(Cl)ccc2n1)C1CCCCC1

>  <score_type>  (18) 
oracle

>  <origin>  (18) 
autodockgpu

>  <m_score__min__energy>  (18) 
-8.2200000000000006

>  <m_primary>  (18) 
energy

>  <rmsd>  (18) 
3.0262208390381584

>  <m_score__min__rmsd>  (18) 
3.0262208390381584

>  <meeko>  (18) 
{"free_energy": -7.75, "intermolecular_energy": -9.24, "internal_energy": -0.95, "cluster_size": 8, "cluster_id": 1, "rank_in_cluster": 6}

>  <energy>  (18) 
-7.81

>  <cluster_rmsd>  (18) 
1.13

>  <cluster>  (18) 
2

$$$$

     RDKit          3D

 48 50  0  0  0  0  0  0  0  0999 V2000
  139.1960   68.6150  224.4360 C   0  0  0  0  0  0  0  0  0  0  0  0
  138.8680   69.8560  225.0180 N   0  0  0  0  0  0  0  0  0  0  0  0
  138.1880   70.7840  224.2090 C   0  0  0  0  0  0  0  0  0  0  0  0
  138.6770   70.9220  222.7930 C   0  0  0  0  0  0  0  0  0  0  0  0
  139.1470   72.2530  222.5040 N   0  0  0  0  0  0  0  0  0  0  0  0
  140.3780   72.5260  221.8410 C   0  0  0  0  0  0  0  0  0  0  0  0
  141.1490   71.6120  221.4580 O   0  0  0  0  0  0  0  0  0  0  0  0
  140.7640   73.9320  221.5920 C   0  0  0  0  0  0  0  0  0  0  0  0
  141.7570   74.2300  220.7020 C   0  0  0  0  0  0  0  0  0  0  0  0
  142.0980   75.5550  220.4890 C   0  0  0  0  0  0  0  0  0  0  0  0
  141.4520   76.5910  221.1600 C   0  0  0  0  0  0  0  0  0  0  0  0
  141.7870   77.9120  220.9510 C   0  0  0  0  0  0  0  0  0  0  0  0
  141.1340   78.9460  221.6280 C   0  0  0  0  0  0  0  0  0  0  0  0
  141.5700   80.6120  221.3520 Cl  0  0  0  0  0  0  0  0  0  0  0  0
  140.1380   78.5650  222.5130 C   0  0  0  0  0  0  0  0  0  0  0  0
  139.8100   77.2490  222.7160 C   0  0  0  0  0  0  0  0  0  0  0  0
  140.4620   76.2370  222.0430 C   0  0  0  0  0  0  0  0  0  0  0  0
  140.1400   74.9450  222.2420 N   0  0  0  0  0  0  0  0  0  0  0  0
  139.6340   70.3010  226.1170 C   0  0  0  0  0  0  0  0  0  0  0  0
  140.5250   71.4390  225.5860 C   0  0  0  0  0  0  0  0  0  0  0  0
  141.4320   71.9060  226.6950 C   0  0  0  0  0  0  0  0  0  0  0  0
  141.0530   71.3210  228.0280 C   0  0  0  0  0  0  0  0  0  0  0  0
  141.0370   69.8240  228.0640 C   0  0  0  0  0  0  0  0  0  0  0  0
  140.5390   69.3010  226.7360 C   0  0  0  0  0  0  0  0  0  0  0  0
  139.3908   67.8781  225.2291 H   0  0  0  0  0  0  0  0  0  0  0  0
  138.3583   68.2697  223.8123 H   0  0  0  0  0  0  0  0  0  0  0  0
  140.0949   68.7287  223.8123 H   0  0  0  0  0  0  0  0  0  0  0  0
  137.1308   70.4825  224.1700 H   0  0  0  0  0  0  0  0  0  0  0  0
  138.3655   71.7639  224.6761 H   0  0  0  0  0  0  0  0  0  0  0  0
  139.5026   70.2129  222.6332 H   0  0  0  0  0  0  0  0  0  0  0  0
  137.8307   70.7110  222.1227 H   0  0  0  0  0  0  0  0  0  0  0  0
  138.5770   73.0910  222.7860 H   0  0  0  0  0  0  0  0  0  0  0  0
  142.2792   73.4270  220.1612 H   0  0  0  0  0  0  0  0  0  0  0  0
  142.8978   75.7953  219.7731 H   0  0  0  0  0  0  0  0  0  0  0  0
  142.5858   78.1577  220.2357 H   0  0  0  0  0  0  0  0  0  0  0  0
  139.5938   79.3421  223.0698 H   0  0  0  0  0  0  0  0  0  0  0  0
  139.0117   76.9957  223.4292 H   0  0  0  0  0  0  0  0  0  0  0  0
  138.9158   70.5791  226.9024 H   0  0  0  0  0  0  0  0  0  0  0  0
  141.1300   71.0721  224.7438 H   0  0  0  0  0  0  0  0  0  0  0  0
  139.8974   72.2739  225.2410 H   0  0  0  0  0  0  0  0  0  0  0  0
  142.4636   71.6066  226.4579 H   0  0  0  0  0  0  0  0  0  0  0  0
  141.3375   72.9995  226.7686 H   0  0  0  0  0  0  0  0  0  0  0  0
  141.7759   71.6756  228.7775 H   0  0  0  0  0  0  0  0  0  0  0  0
  140.0243   71.6512  228.2350 H   0  0  0  0  0  0  0  0  0  0  0  0
  142.0546   69.4494  228.2489 H   0  0  0  0  0  0  0  0  0  0  0  0
  140.3717   69.4804  228.8698 H   0  0  0  0  0  0  0  0  0  0  0  0
  141.3950   69.1193  226.0694 H   0  0  0  0  0  0  0  0  0  0  0  0
  139.9912   68.3605  226.8951 H   0  0  0  0  0  0  0  0  0  0  0  0
  1  2  1  0
  2  3  1  0
  3  4  1  0
  4  5  1  0
  5  6  1  0
  6  7  2  0
  6  8  1  0
  8  9  2  0
  9 10  1  0
 10 11  2  0
 11 12  1  0
 12 13  2  0
 13 14  1  0
 13 15  1  0
 15 16  2  0
 16 17  1  0
 17 18  2  0
  2 19  1  0
 19 20  1  0
 20 21  1  0
 21 22  1  0
 22 23  1  0
 23 24  1  0
 18  8  1  0
 24 19  1  0
 17 11  1  0
  1 25  1  0
  1 26  1  0
  1 27  1  0
  3 28  1  0
  3 29  1  0
  4 30  1  0
  4 31  1  0
  5 32  1  0
  9 33  1  0
 10 34  1  0
 12 35  1  0
 15 36  1  0
 16 37  1  0
 19 38  1  0
 20 39  1  0
 20 40  1  0
 21 41  1  0
 21 42  1  0
 22 43  1  0
 22 44  1  0
 23 45  1  0
 23 46  1  0
 24 47  1  0
 24 48  1  0
M  END
>  <smiles>  (19) 
CN(CCNC(=O)c1ccc2cc(Cl)ccc2n1)C1CCCCC1

>  <score_type>  (19) 
oracle

>  <origin>  (19) 
autodockgpu

>  <m_score__min__energy>  (19) 
-8.2200000000000006

>  <m_primary>  (19) 
energy

>  <rmsd>  (19) 
8.515920308305088

>  <m_score__min__rmsd>  (19) 
8.515920308305088

>  <meeko>  (19) 
{"free_energy": -7.76, "intermolecular_energy": -9.25, "internal_energy": -1.26, "cluster_size": 22, "cluster_id": 2, "rank_in_cluster": 13}

>  <energy>  (19) 
-7.8

>  <cluster_rmsd>  (19) 
0.99

>  <cluster>  (19) 
2

$$$$

     RDKit          3D

 48 50  0  0  0  0  0  0  0  0999 V2000
  139.0430   71.2860  223.7250 C   0  0  0  0  0  0  0  0  0  0  0  0
  138.5870   70.0900  224.3150 N   0  0  0  0  0  0  0  0  0  0  0  0
  137.3620   69.5750  223.8550 C   0  0  0  0  0  0  0  0  0  0  0  0
  136.3420   69.2360  224.9070 C   0  0  0  0  0  0  0  0  0  0  0  0
  135.5920   70.3910  225.3320 N   0  0  0  0  0  0  0  0  0  0  0  0
  134.4010   70.3140  226.1090 C   0  0  0  0  0  0  0  0  0  0  0  0
  133.9150   69.2170  226.4820 O   0  0  0  0  0  0  0  0  0  0  0  0
  133.7100   71.5640  226.4930 C   0  0  0  0  0  0  0  0  0  0  0  0
  132.5470   71.5200  227.2090 C   0  0  0  0  0  0  0  0  0  0  0  0
  131.9220   72.7070  227.5550 C   0  0  0  0  0  0  0  0  0  0  0  0
  132.4510   73.9430  227.1900 C   0  0  0  0  0  0  0  0  0  0  0  0
  131.8320   75.1260  227.5330 C   0  0  0  0  0  0  0  0  0  0  0  0
  132.3700   76.3630  227.1640 C   0  0  0  0  0  0  0  0  0  0  0  0
  131.5750   77.8520  227.6050 Cl  0  0  0  0  0  0  0  0  0  0  0  0
  133.5510   76.3260  226.4410 C   0  0  0  0  0  0  0  0  0  0  0  0
  134.1610   75.1450  226.1040 C   0  0  0  0  0  0  0  0  0  0  0  0
  133.6210   73.9300  226.4720 C   0  0  0  0  0  0  0  0  0  0  0  0
  134.2190   72.7710  226.1420 N   0  0  0  0  0  0  0  0  0  0  0  0
  139.0540   69.7630  225.6060 C   0  0  0  0  0  0  0  0  0  0  0  0
  140.0770   70.8510  225.9810 C   0  0  0  0  0  0  0  0  0  0  0  0
  140.6780   70.5140  227.3210 C   0  0  0  0  0  0  0  0  0  0  0  0
  139.9560   69.3850  228.0040 C   0  0  0  0  0  0  0  0  0  0  0  0
  139.8980   68.1180  227.2090 C   0  0  0  0  0  0  0  0  0  0  0  0
  139.7470   68.4580  225.7440 C   0  0  0  0  0  0  0  0  0  0  0  0
  139.3163   72.0028  224.5134 H   0  0  0  0  0  0  0  0  0  0  0  0
  139.9235   71.0744  223.1006 H   0  0  0  0  0  0  0  0  0  0  0  0
  138.2451   71.7143  223.1006 H   0  0  0  0  0  0  0  0  0  0  0  0
  136.9150   70.3235  223.1843 H   0  0  0  0  0  0  0  0  0  0  0  0
  137.6103   68.6194  223.3700 H   0  0  0  0  0  0  0  0  0  0  0  0
  135.6437   68.4919  224.4963 H   0  0  0  0  0  0  0  0  0  0  0  0
  136.8788   68.8417  225.7824 H   0  0  0  0  0  0  0  0  0  0  0  0
  135.9110   71.3590  225.0700 H   0  0  0  0  0  0  0  0  0  0  0  0
  132.1125   70.5543  227.5069 H   0  0  0  0  0  0  0  0  0  0  0  0
  130.9858   72.6727  228.1316 H   0  0  0  0  0  0  0  0  0  0  0  0
  130.8953   75.0964  228.1090 H   0  0  0  0  0  0  0  0  0  0  0  0
  134.0138   77.2733  226.1275 H   0  0  0  0  0  0  0  0  0  0  0  0
  135.0987   75.1668  225.5293 H   0  0  0  0  0  0  0  0  0  0  0  0
  138.1639   69.6975  226.2490 H   0  0  0  0  0  0  0  0  0  0  0  0
  140.8701   70.8903  225.2198 H   0  0  0  0  0  0  0  0  0  0  0  0
  139.5784   71.8302  226.0316 H   0  0  0  0  0  0  0  0  0  0  0  0
  141.7289   70.2242  227.1743 H   0  0  0  0  0  0  0  0  0  0  0  0
  140.5918   71.4042  227.9614 H   0  0  0  0  0  0  0  0  0  0  0  0
  140.4695   69.1724  228.9533 H   0  0  0  0  0  0  0  0  0  0  0  0
  138.9163   69.7160  228.1439 H   0  0  0  0  0  0  0  0  0  0  0  0
  140.8251   67.5457  227.3604 H   0  0  0  0  0  0  0  0  0  0  0  0
  139.0403   67.5133  227.5387 H   0  0  0  0  0  0  0  0  0  0  0  0
  140.7415   68.5202  225.2780 H   0  0  0  0  0  0  0  0  0  0  0  0
  139.1559   67.6754  225.2458 H   0  0  0  0  0  0  0  0  0  0  0  0
  1  2  1  0
  2  3  1  0
  3  4  1  0
  4  5  1  0
  5  6  1  0
  6  7  2  0
  6  8  1  0
  8  9  2  0
  9 10  1  0
 10 11  2  0
 11 12  1  0
 12 13  2  0
 13 14  1  0
 13 15  1  0
 15 16  2  0
 16 17  1  0
 17 18  2  0
  2 19  1  0
 19 20  1  0
 20 21  1  0
 21 22  1  0
 22 23  1  0
 23 24  1  0
 18  8  1  0
 24 19  1  0
 17 11  1  0
  1 25  1  0
  1 26  1  0
  1 27  1  0
  3 28  1  0
  3 29  1  0
  4 30  1  0
  4 31  1  0
  5 32  1  0
  9 33  1  0
 10 34  1  0
 12 35  1  0
 15 36  1  0
 16 37  1  0
 19 38  1  0
 20 39  1  0
 20 40  1  0
 21 41  1  0
 21 42  1  0
 22 43  1  0
 22 44  1  0
 23 45  1  0
 23 46  1  0
 24 47  1  0
 24 48  1  0
M  END
>  <smiles>  (20) 
CN(CCNC(=O)c1ccc2cc(Cl)ccc2n1)C1CCCCC1

>  <score_type>  (20) 
oracle

>  <origin>  (20) 
autodockgpu

>  <m_score__min__energy>  (20) 
-8.2200000000000006

>  <m_primary>  (20) 
energy

>  <rmsd>  (20) 
8.863234589200118

>  <m_score__min__rmsd>  (20) 
8.863234589200118

>  <meeko>  (20) 
{"free_energy": -7.43, "intermolecular_energy": -8.92, "internal_energy": -1.26, "cluster_size": 17, "cluster_id": 3, "rank_in_cluster": 8}

>  <energy>  (20) 
-7.78

>  <cluster_rmsd>  (20) 
1.13

>  <cluster>  (20) 
2

$$$$

     RDKit          3D

 48 50  0  0  0  0  0  0  0  0999 V2000
  139.3040   71.3290  223.5730 C   0  0  0  0  0  0  0  0  0  0  0  0
  139.6060   70.3130  224.5020 N   0  0  0  0  0  0  0  0  0  0  0  0
  139.1890   69.0080  224.1840 C   0  0  0  0  0  0  0  0  0  0  0  0
  137.7410   68.8410  223.8090 C   0  0  0  0  0  0  0  0  0  0  0  0
  136.8990   69.8310  224.4320 N   0  0  0  0  0  0  0  0  0  0  0  0
  135.5360   69.5980  224.7780 C   0  0  0  0  0  0  0  0  0  0  0  0
  134.9690   68.4990  224.5600 O   0  0  0  0  0  0  0  0  0  0  0  0
  134.7610   70.6840  225.4180 C   0  0  0  0  0  0  0  0  0  0  0  0
  133.7780   70.3920  226.3200 C   0  0  0  0  0  0  0  0  0  0  0  0
  133.0680   71.4290  226.9030 C   0  0  0  0  0  0  0  0  0  0  0  0
  133.3340   72.7600  226.5910 C   0  0  0  0  0  0  0  0  0  0  0  0
  132.6300   73.7950  227.1690 C   0  0  0  0  0  0  0  0  0  0  0  0
  132.9030   75.1300  226.8510 C   0  0  0  0  0  0  0  0  0  0  0  0
  132.0030   76.4280  227.5910 Cl  0  0  0  0  0  0  0  0  0  0  0  0
  133.9140   75.3440  225.9290 C   0  0  0  0  0  0  0  0  0  0  0  0
  134.6100   74.3090  225.3580 C   0  0  0  0  0  0  0  0  0  0  0  0
  134.3320   72.9970  225.6780 C   0  0  0  0  0  0  0  0  0  0  0  0
  135.0150   71.9810  225.1190 N   0  0  0  0  0  0  0  0  0  0  0  0
  139.8180   70.6810  225.8490 C   0  0  0  0  0  0  0  0  0  0  0  0
  141.0840   71.5580  225.8590 C   0  0  0  0  0  0  0  0  0  0  0  0
  141.4150   71.9190  227.2840 C   0  0  0  0  0  0  0  0  0  0  0  0
  140.3150   71.5430  228.2390 C   0  0  0  0  0  0  0  0  0  0  0  0
  139.9490   70.0910  228.2190 C   0  0  0  0  0  0  0  0  0  0  0  0
  140.0570   69.5720  226.8040 C   0  0  0  0  0  0  0  0  0  0  0  0
  139.0307   72.2486  224.1112 H   0  0  0  0  0  0  0  0  0  0  0  0
  140.1837   71.5216  222.9414 H   0  0  0  0  0  0  0  0  0  0  0  0
  138.4619   71.0098  222.9414 H   0  0  0  0  0  0  0  0  0  0  0  0
  139.7967   68.6598  223.3358 H   0  0  0  0  0  0  0  0  0  0  0  0
  139.3206   68.4258  225.1080 H   0  0  0  0  0  0  0  0  0  0  0  0
  137.6453   68.9313  222.7169 H   0  0  0  0  0  0  0  0  0  0  0  0
  137.4137   67.8510  224.1593 H   0  0  0  0  0  0  0  0  0  0  0  0
  137.2760   70.7870  224.6560 H   0  0  0  0  0  0  0  0  0  0  0  0
  133.5529   69.3472  226.5802 H   0  0  0  0  0  0  0  0  0  0  0  0
  132.2756   71.1956  227.6294 H   0  0  0  0  0  0  0  0  0  0  0  0
  131.8366   73.5663  227.8958 H   0  0  0  0  0  0  0  0  0  0  0  0
  134.1668   76.3764  225.6457 H   0  0  0  0  0  0  0  0  0  0  0  0
  135.4052   74.5300  224.6308 H   0  0  0  0  0  0  0  0  0  0  0  0
  138.8917   71.1691  226.1862 H   0  0  0  0  0  0  0  0  0  0  0  0
  141.9224   71.0016  225.4145 H   0  0  0  0  0  0  0  0  0  0  0  0
  140.9091   72.4725  225.2733 H   0  0  0  0  0  0  0  0  0  0  0  0
  142.3343   71.3914  227.5781 H   0  0  0  0  0  0  0  0  0  0  0  0
  141.5446   73.0102  227.3331 H   0  0  0  0  0  0  0  0  0  0  0  0
  140.6399   71.8021  229.2575 H   0  0  0  0  0  0  0  0  0  0  0  0
  139.4196   72.0972  227.9210 H   0  0  0  0  0  0  0  0  0  0  0  0
  140.6348   69.5295  228.8704 H   0  0  0  0  0  0  0  0  0  0  0  0
  138.9184   69.9641  228.5820 H   0  0  0  0  0  0  0  0  0  0  0  0
  141.0634   69.1589  226.6412 H   0  0  0  0  0  0  0  0  0  0  0  0
  139.3060   68.7841  226.6450 H   0  0  0  0  0  0  0  0  0  0  0  0
  1  2  1  0
  2  3  1  0
  3  4  1  0
  4  5  1  0
  5  6  1  0
  6  7  2  0
  6  8  1  0
  8  9  2  0
  9 10  1  0
 10 11  2  0
 11 12  1  0
 12 13  2  0
 13 14  1  0
 13 15  1  0
 15 16  2  0
 16 17  1  0
 17 18  2  0
  2 19  1  0
 19 20  1  0
 20 21  1  0
 21 22  1  0
 22 23  1  0
 23 24  1  0
 18  8  1  0
 24 19  1  0
 17 11  1  0
  1 25  1  0
  1 26  1  0
  1 27  1  0
  3 28  1  0
  3 29  1  0
  4 30  1  0
  4 31  1  0
  5 32  1  0
  9 33  1  0
 10 34  1  0
 12 35  1  0
 15 36  1  0
 16 37  1  0
 19 38  1  0
 20 39  1  0
 20 40  1  0
 21 41  1  0
 21 42  1  0
 22 43  1  0
 22 44  1  0
 23 45  1  0
 23 46  1  0
 24 47  1  0
 24 48  1  0
M  END
>  <smiles>  (21) 
CN(CCNC(=O)c1ccc2cc(Cl)ccc2n1)C1CCCCC1

>  <score_type>  (21) 
oracle

>  <origin>  (21) 
autodockgpu

>  <m_score__min__energy>  (21) 
-8.2200000000000006

>  <m_primary>  (21) 
energy

>  <rmsd>  (21) 
8.106737665893636

>  <m_score__min__rmsd>  (21) 
8.106737665893636

>  <meeko>  (21) 
{"free_energy": -7.45, "intermolecular_energy": -8.94, "internal_energy": -1.59, "cluster_size": 17, "cluster_id": 3, "rank_in_cluster": 6}

>  <energy>  (21) 
-7.76

>  <cluster_rmsd>  (21) 
1.12

>  <cluster>  (21) 
2

$$$$

     RDKit          3D

 48 50  0  0  0  0  0  0  0  0999 V2000
  137.2880   70.3940  224.4480 C   0  0  0  0  0  0  0  0  0  0  0  0
  138.6910   70.2720  224.4310 N   0  0  0  0  0  0  0  0  0  0  0  0
  139.2680   69.6470  223.3110 C   0  0  0  0  0  0  0  0  0  0  0  0
  139.9230   70.5530  222.3040 C   0  0  0  0  0  0  0  0  0  0  0  0
  139.6160   71.9410  222.5360 N   0  0  0  0  0  0  0  0  0  0  0  0
  139.7330   72.9510  221.5380 C   0  0  0  0  0  0  0  0  0  0  0  0
  140.1180   72.6950  220.3700 O   0  0  0  0  0  0  0  0  0  0  0  0
  139.3880   74.3470  221.8830 C   0  0  0  0  0  0  0  0  0  0  0  0
  138.0820   74.7340  221.9780 C   0  0  0  0  0  0  0  0  0  0  0  0
  137.7880   76.0480  222.3030 C   0  0  0  0  0  0  0  0  0  0  0  0
  138.7940   76.9830  222.5350 C   0  0  0  0  0  0  0  0  0  0  0  0
  138.5070   78.2920  222.8590 C   0  0  0  0  0  0  0  0  0  0  0  0
  139.5220   79.2260  223.0910 C   0  0  0  0  0  0  0  0  0  0  0  0
  139.1420   80.8780  223.5000 Cl  0  0  0  0  0  0  0  0  0  0  0  0
  140.8210   78.7570  222.9770 C   0  0  0  0  0  0  0  0  0  0  0  0
  141.0990   77.4540  222.6540 C   0  0  0  0  0  0  0  0  0  0  0  0
  140.0900   76.5420  222.4270 C   0  0  0  0  0  0  0  0  0  0  0  0
  140.3620   75.2630  222.1100 N   0  0  0  0  0  0  0  0  0  0  0  0
  139.3780   70.2880  225.6650 C   0  0  0  0  0  0  0  0  0  0  0  0
  140.3490   71.4810  225.6000 C   0  0  0  0  0  0  0  0  0  0  0  0
  141.1750   71.5060  226.8590 C   0  0  0  0  0  0  0  0  0  0  0  0
  140.6670   70.5430  227.8960 C   0  0  0  0  0  0  0  0  0  0  0  0
  140.5960   69.1190  227.4360 C   0  0  0  0  0  0  0  0  0  0  0  0
  140.1930   69.0890  225.9800 C   0  0  0  0  0  0  0  0  0  0  0  0
  136.9352   70.4247  225.4894 H   0  0  0  0  0  0  0  0  0  0  0  0
  136.9943   71.3211  223.9339 H   0  0  0  0  0  0  0  0  0  0  0  0
  136.8387   69.5315  223.9339 H   0  0  0  0  0  0  0  0  0  0  0  0
  140.0317   68.9445  223.6760 H   0  0  0  0  0  0  0  0  0  0  0  0
  138.4313   69.1726  222.7772 H   0  0  0  0  0  0  0  0  0  0  0  0
  141.0130   70.4173  222.3624 H   0  0  0  0  0  0  0  0  0  0  0  0
  139.5374   70.2849  221.3093 H   0  0  0  0  0  0  0  0  0  0  0  0
  139.2870   72.2620  223.4830 H   0  0  0  0  0  0  0  0  0  0  0  0
  137.2729   74.0108  221.7985 H   0  0  0  0  0  0  0  0  0  0  0  0
  136.7360   76.3602  222.3796 H   0  0  0  0  0  0  0  0  0  0  0  0
  137.4565   78.6089  222.9368 H   0  0  0  0  0  0  0  0  0  0  0  0
  141.6555   79.4522  223.1512 H   0  0  0  0  0  0  0  0  0  0  0  0
  142.1471   77.1298  222.5744 H   0  0  0  0  0  0  0  0  0  0  0  0
  138.6065   70.3376  226.4475 H   0  0  0  0  0  0  0  0  0  0  0  0
  141.0094   71.3726  224.7270 H   0  0  0  0  0  0  0  0  0  0  0  0
  139.7818   72.4189  225.5074 H   0  0  0  0  0  0  0  0  0  0  0  0
  142.2119   71.2392  226.6067 H   0  0  0  0  0  0  0  0  0  0  0  0
  141.1116   72.5194  227.2821 H   0  0  0  0  0  0  0  0  0  0  0  0
  141.3372   70.5902  228.7670 H   0  0  0  0  0  0  0  0  0  0  0  0
  139.6368   70.8489  228.1306 H   0  0  0  0  0  0  0  0  0  0  0  0
  141.5809   68.6438  227.5554 H   0  0  0  0  0  0  0  0  0  0  0  0
  139.8546   68.5721  228.0370 H   0  0  0  0  0  0  0  0  0  0  0  0
  141.0950   69.0836  225.3504 H   0  0  0  0  0  0  0  0  0  0  0  0
  139.6014   68.1828  225.7830 H   0  0  0  0  0  0  0  0  0  0  0  0
  1  2  1  0
  2  3  1  0
  3  4  1  0
  4  5  1  0
  5  6  1  0
  6  7  2  0
  6  8  1  0
  8  9  2  0
  9 10  1  0
 10 11  2  0
 11 12  1  0
 12 13  2  0
 13 14  1  0
 13 15  1  0
 15 16  2  0
 16 17  1  0
 17 18  2  0
  2 19  1  0
 19 20  1  0
 20 21  1  0
 21 22  1  0
 22 23  1  0
 23 24  1  0
 18  8  1  0
 24 19  1  0
 17 11  1  0
  1 25  1  0
  1 26  1  0
  1 27  1  0
  3 28  1  0
  3 29  1  0
  4 30  1  0
  4 31  1  0
  5 32  1  0
  9 33  1  0
 10 34  1  0
 12 35  1  0
 15 36  1  0
 16 37  1  0
 19 38  1  0
 20 39  1  0
 20 40  1  0
 21 41  1  0
 21 42  1  0
 22 43  1  0
 22 44  1  0
 23 45  1  0
 23 46  1  0
 24 47  1  0
 24 48  1  0
M  END
>  <smiles>  (22) 
CN(CCNC(=O)c1ccc2cc(Cl)ccc2n1)C1CCCCC1

>  <score_type>  (22) 
oracle

>  <origin>  (22) 
autodockgpu

>  <m_score__min__energy>  (22) 
-8.2200000000000006

>  <m_primary>  (22) 
energy

>  <rmsd>  (22) 
8.208265077327015

>  <m_score__min__rmsd>  (22) 
8.208265077327015

>  <meeko>  (22) 
{"free_energy": -6.97, "intermolecular_energy": -8.46, "internal_energy": -1.52, "cluster_size": 22, "cluster_id": 2, "rank_in_cluster": 19}

>  <energy>  (22) 
-7.75

>  <cluster_rmsd>  (22) 
1.31

>  <cluster>  (22) 
2

$$$$

     RDKit          3D

 48 50  0  0  0  0  0  0  0  0999 V2000
  138.8700   69.4340  223.5960 C   0  0  0  0  0  0  0  0  0  0  0  0
  139.3650   70.3790  224.5170 N   0  0  0  0  0  0  0  0  0  0  0  0
  140.0720   71.4760  223.9940 C   0  0  0  0  0  0  0  0  0  0  0  0
  139.6490   71.9570  222.6330 C   0  0  0  0  0  0  0  0  0  0  0  0
  139.9510   73.3500  222.4280 N   0  0  0  0  0  0  0  0  0  0  0  0
  140.9410   73.8150  221.5140 C   0  0  0  0  0  0  0  0  0  0  0  0
  141.6280   73.0290  220.8160 O   0  0  0  0  0  0  0  0  0  0  0  0
  141.1690   75.2700  221.3800 C   0  0  0  0  0  0  0  0  0  0  0  0
  141.9160   75.7600  220.3460 C   0  0  0  0  0  0  0  0  0  0  0  0
  142.1130   77.1280  220.2450 C   0  0  0  0  0  0  0  0  0  0  0  0
  141.5680   78.0130  221.1720 C   0  0  0  0  0  0  0  0  0  0  0  0
  141.7620   79.3750  221.0750 C   0  0  0  0  0  0  0  0  0  0  0  0
  141.2110   80.2580  222.0090 C   0  0  0  0  0  0  0  0  0  0  0  0
  141.4660   81.9780  221.8720 Cl  0  0  0  0  0  0  0  0  0  0  0  0
  140.4670   79.6850  223.0280 C   0  0  0  0  0  0  0  0  0  0  0  0
  140.2790   78.3300  223.1180 C   0  0  0  0  0  0  0  0  0  0  0  0
  140.8270   77.4680  222.1910 C   0  0  0  0  0  0  0  0  0  0  0  0
  140.6420   76.1380  222.2780 N   0  0  0  0  0  0  0  0  0  0  0  0
  139.5890   69.9600  225.8470 C   0  0  0  0  0  0  0  0  0  0  0  0
  140.3700   71.0980  226.5290 C   0  0  0  0  0  0  0  0  0  0  0  0
  140.7150   70.6780  227.9350 C   0  0  0  0  0  0  0  0  0  0  0  0
  140.0110   69.4140  228.3430 C   0  0  0  0  0  0  0  0  0  0  0  0
  140.2750   68.2420  227.4490 C   0  0  0  0  0  0  0  0  0  0  0  0
  140.3920   68.7240  226.0220 C   0  0  0  0  0  0  0  0  0  0  0  0
  138.4267   68.5878  224.1414 H   0  0  0  0  0  0  0  0  0  0  0  0
  138.1028   69.9051  222.9639 H   0  0  0  0  0  0  0  0  0  0  0  0
  139.6940   69.0716  222.9639 H   0  0  0  0  0  0  0  0  0  0  0  0
  139.9559   72.3146  224.6963 H   0  0  0  0  0  0  0  0  0  0  0  0
  141.1071   71.1247  223.8711 H   0  0  0  0  0  0  0  0  0  0  0  0
  140.1746   71.3649  221.8693 H   0  0  0  0  0  0  0  0  0  0  0  0
  138.5586   71.8340  222.5562 H   0  0  0  0  0  0  0  0  0  0  0  0
  139.4340   74.0920  222.9670 H   0  0  0  0  0  0  0  0  0  0  0  0
  142.3552   75.0775  219.6035 H   0  0  0  0  0  0  0  0  0  0  0  0
  142.7139   77.5241  219.4132 H   0  0  0  0  0  0  0  0  0  0  0  0
  142.3630   79.7753  220.2452 H   0  0  0  0  0  0  0  0  0  0  0  0
  140.0131   80.3376  223.7883 H   0  0  0  0  0  0  0  0  0  0  0  0
  139.6796   77.9224  223.9454 H   0  0  0  0  0  0  0  0  0  0  0  0
  138.5993   69.7340  226.2706 H   0  0  0  0  0  0  0  0  0  0  0  0
  141.2935   71.3008  225.9669 H   0  0  0  0  0  0  0  0  0  0  0  0
  139.7558   72.0103  226.5523 H   0  0  0  0  0  0  0  0  0  0  0  0
  141.8009   70.5142  227.9986 H   0  0  0  0  0  0  0  0  0  0  0  0
  140.3884   71.4789  228.6146 H   0  0  0  0  0  0  0  0  0  0  0  0
  140.3377   69.1513  229.3600 H   0  0  0  0  0  0  0  0  0  0  0  0
  138.9325   69.6209  228.2787 H   0  0  0  0  0  0  0  0  0  0  0  0
  141.2130   67.7529  227.7505 H   0  0  0  0  0  0  0  0  0  0  0  0
  139.4480   67.5212  227.5296 H   0  0  0  0  0  0  0  0  0  0  0  0
  141.4466   68.9369  225.7927 H   0  0  0  0  0  0  0  0  0  0  0  0
  140.0174   67.9453  225.3413 H   0  0  0  0  0  0  0  0  0  0  0  0
  1  2  1  0
  2  3  1  0
  3  4  1  0
  4  5  1  0
  5  6  1  0
  6  7  2  0
  6  8  1  0
  8  9  2  0
  9 10  1  0
 10 11  2  0
 11 12  1  0
 12 13  2  0
 13 14  1  0
 13 15  1  0
 15 16  2  0
 16 17  1  0
 17 18  2  0
  2 19  1  0
 19 20  1  0
 20 21  1  0
 21 22  1  0
 22 23  1  0
 23 24  1  0
 18  8  1  0
 24 19  1  0
 17 11  1  0
  1 25  1  0
  1 26  1  0
  1 27  1  0
  3 28  1  0
  3 29  1  0
  4 30  1  0
  4 31  1  0
  5 32  1  0
  9 33  1  0
 10 34  1  0
 12 35  1  0
 15 36  1  0
 16 37  1  0
 19 38  1  0
 20 39  1  0
 20 40  1  0
 21 41  1  0
 21 42  1  0
 22 43  1  0
 22 44  1  0
 23 45  1  0
 23 46  1  0
 24 47  1  0
 24 48  1  0
M  END
>  <smiles>  (23) 
CN(CCNC(=O)c1ccc2cc(Cl)ccc2n1)C1CCCCC1

>  <score_type>  (23) 
oracle

>  <origin>  (23) 
autodockgpu

>  <m_score__min__energy>  (23) 
-8.2200000000000006

>  <m_primary>  (23) 
energy

>  <rmsd>  (23) 
8.913975847500845

>  <m_score__min__rmsd>  (23) 
8.913975847500845

>  <meeko>  (23) 
{"free_energy": -7.98, "intermolecular_energy": -9.47, "internal_energy": -0.99, "cluster_size": 22, "cluster_id": 2, "rank_in_cluster": 6}

>  <energy>  (23) 
-7.72

>  <cluster_rmsd>  (23) 
1.35

>  <cluster>  (23) 
2

$$$$

     RDKit          3D

 48 50  0  0  0  0  0  0  0  0999 V2000
  138.6790   77.2740  222.7030 C   0  0  0  0  0  0  0  0  0  0  0  0
  139.8890   77.5490  222.0350 N   0  0  0  0  0  0  0  0  0  0  0  0
  140.5670   76.4590  221.4600 C   0  0  0  0  0  0  0  0  0  0  0  0
  139.7250   75.2670  221.0930 C   0  0  0  0  0  0  0  0  0  0  0  0
  139.7590   74.2430  222.1060 N   0  0  0  0  0  0  0  0  0  0  0  0
  140.0290   72.8720  221.8290 C   0  0  0  0  0  0  0  0  0  0  0  0
  140.2580   72.4560  220.6660 O   0  0  0  0  0  0  0  0  0  0  0  0
  140.0420   71.9020  222.9460 C   0  0  0  0  0  0  0  0  0  0  0  0
  139.5590   70.6360  222.7680 C   0  0  0  0  0  0  0  0  0  0  0  0
  139.5830   69.7490  223.8310 C   0  0  0  0  0  0  0  0  0  0  0  0
  140.0870   70.1170  225.0770 C   0  0  0  0  0  0  0  0  0  0  0  0
  140.1140   69.2370  226.1380 C   0  0  0  0  0  0  0  0  0  0  0  0
  140.6220   69.6140  227.3850 C   0  0  0  0  0  0  0  0  0  0  0  0
  140.6480   68.4890  228.7170 Cl  0  0  0  0  0  0  0  0  0  0  0  0
  141.0930   70.9130  227.4870 C   0  0  0  0  0  0  0  0  0  0  0  0
  141.0630   71.7830  226.4270 C   0  0  0  0  0  0  0  0  0  0  0  0
  140.5590   71.4010  225.2010 C   0  0  0  0  0  0  0  0  0  0  0  0
  140.5300   72.2530  224.1600 N   0  0  0  0  0  0  0  0  0  0  0  0
  140.5990   78.7160  222.3920 C   0  0  0  0  0  0  0  0  0  0  0  0
  141.1870   79.2770  221.0850 C   0  0  0  0  0  0  0  0  0  0  0  0
  142.0310   80.4840  221.4080 C   0  0  0  0  0  0  0  0  0  0  0  0
  141.8650   80.9320  222.8340 C   0  0  0  0  0  0  0  0  0  0  0  0
  142.1800   79.8800  223.8530 C   0  0  0  0  0  0  0  0  0  0  0  0
  141.7350   78.5340  223.3300 C   0  0  0  0  0  0  0  0  0  0  0  0
  138.8435   77.3114  223.7900 H   0  0  0  0  0  0  0  0  0  0  0  0
  137.9254   78.0238  222.4202 H   0  0  0  0  0  0  0  0  0  0  0  0
  138.3235   76.2722  222.4202 H   0  0  0  0  0  0  0  0  0  0  0  0
  141.0591   76.8164  220.5434 H   0  0  0  0  0  0  0  0  0  0  0  0
  141.2581   76.1011  222.2373 H   0  0  0  0  0  0  0  0  0  0  0  0
  138.6844   75.5967  220.9576 H   0  0  0  0  0  0  0  0  0  0  0  0
  140.1333   74.8381  220.1660 H   0  0  0  0  0  0  0  0  0  0  0  0
  139.5770   74.4840  223.1130 H   0  0  0  0  0  0  0  0  0  0  0  0
  139.1563   70.3256  221.7926 H   0  0  0  0  0  0  0  0  0  0  0  0
  139.1950   68.7296  223.6885 H   0  0  0  0  0  0  0  0  0  0  0  0
  139.7276   68.2163  226.0006 H   0  0  0  0  0  0  0  0  0  0  0  0
  141.5037   71.2572  228.4477 H   0  0  0  0  0  0  0  0  0  0  0  0
  141.4483   72.8051  226.5570 H   0  0  0  0  0  0  0  0  0  0  0  0
  139.8822   79.3662  222.9149 H   0  0  0  0  0  0  0  0  0  0  0  0
  141.8094   78.5100  220.6009 H   0  0  0  0  0  0  0  0  0  0  0  0
  140.3731   79.5630  220.4026 H   0  0  0  0  0  0  0  0  0  0  0  0
  143.0881   80.2323  221.2371 H   0  0  0  0  0  0  0  0  0  0  0  0
  141.7035   81.3075  220.7564 H   0  0  0  0  0  0  0  0  0  0  0  0
  142.5334   81.7886  223.0057 H   0  0  0  0  0  0  0  0  0  0  0  0
  140.8023   81.1855  222.9621 H   0  0  0  0  0  0  0  0  0  0  0  0
  143.2637   79.8620  224.0406 H   0  0  0  0  0  0  0  0  0  0  0  0
  141.6528   80.1048  224.7919 H   0  0  0  0  0  0  0  0  0  0  0  0
  142.5712   78.0511  222.8032 H   0  0  0  0  0  0  0  0  0  0  0  0
  141.4164   77.9017  224.1718 H   0  0  0  0  0  0  0  0  0  0  0  0
  1  2  1  0
  2  3  1  0
  3  4  1  0
  4  5  1  0
  5  6  1  0
  6  7  2  0
  6  8  1  0
  8  9  2  0
  9 10  1  0
 10 11  2  0
 11 12  1  0
 12 13  2  0
 13 14  1  0
 13 15  1  0
 15 16  2  0
 16 17  1  0
 17 18  2  0
  2 19  1  0
 19 20  1  0
 20 21  1  0
 21 22  1  0
 22 23  1  0
 23 24  1  0
 18  8  1  0
 24 19  1  0
 17 11  1  0
  1 25  1  0
  1 26  1  0
  1 27  1  0
  3 28  1  0
  3 29  1  0
  4 30  1  0
  4 31  1  0
  5 32  1  0
  9 33  1  0
 10 34  1  0
 12 35  1  0
 15 36  1  0
 16 37  1  0
 19 38  1  0
 20 39  1  0
 20 40  1  0
 21 41  1  0
 21 42  1  0
 22 43  1  0
 22 44  1  0
 23 45  1  0
 23 46  1  0
 24 47  1  0
 24 48  1  0
M  END
>  <smiles>  (24) 
CN(CCNC(=O)c1ccc2cc(Cl)ccc2n1)C1CCCCC1

>  <score_type>  (24) 
oracle

>  <origin>  (24) 
autodockgpu

>  <m_score__min__energy>  (24) 
-8.2200000000000006

>  <m_primary>  (24) 
energy

>  <rmsd>  (24) 
3.6930830135526374

>  <m_score__min__rmsd>  (24) 
3.6930830135526374

>  <meeko>  (24) 
{"free_energy": -8.09, "intermolecular_energy": -9.58, "internal_energy": -0.93, "cluster_size": 8, "cluster_id": 1, "rank_in_cluster": 3}

>  <energy>  (24) 
-7.6

>  <cluster_rmsd>  (24) 
1.38

>  <cluster>  (24) 
2

$$$$

     RDKit          3D

 48 50  0  0  0  0  0  0  0  0999 V2000
  138.3470   69.8150  223.9590 C   0  0  0  0  0  0  0  0  0  0  0  0
  139.3410   70.5800  224.6020 N   0  0  0  0  0  0  0  0  0  0  0  0
  140.2180   71.3120  223.7830 C   0  0  0  0  0  0  0  0  0  0  0  0
  139.6270   71.9020  222.5310 C   0  0  0  0  0  0  0  0  0  0  0  0
  139.9510   73.2990  222.3810 N   0  0  0  0  0  0  0  0  0  0  0  0
  140.8460   73.7960  221.3910 C   0  0  0  0  0  0  0  0  0  0  0  0
  141.4230   73.0410  220.5700 O   0  0  0  0  0  0  0  0  0  0  0  0
  141.1050   75.2510  221.3220 C   0  0  0  0  0  0  0  0  0  0  0  0
  141.9400   75.7600  220.3680 C   0  0  0  0  0  0  0  0  0  0  0  0
  142.1650   77.1270  220.3280 C   0  0  0  0  0  0  0  0  0  0  0  0
  141.5610   77.9920  221.2370 C   0  0  0  0  0  0  0  0  0  0  0  0
  141.7820   79.3520  221.2010 C   0  0  0  0  0  0  0  0  0  0  0  0
  141.1720   80.2150  222.1160 C   0  0  0  0  0  0  0  0  0  0  0  0
  141.4620   81.9340  222.0570 Cl  0  0  0  0  0  0  0  0  0  0  0  0
  140.3390   79.6240  223.0530 C   0  0  0  0  0  0  0  0  0  0  0  0
  140.1240   78.2700  223.0830 C   0  0  0  0  0  0  0  0  0  0  0  0
  140.7320   77.4280  222.1750 C   0  0  0  0  0  0  0  0  0  0  0  0
  140.5210   76.0990  222.2040 N   0  0  0  0  0  0  0  0  0  0  0  0
  139.7370   70.2000  225.9030 C   0  0  0  0  0  0  0  0  0  0  0  0
  140.5240   71.3930  226.4770 C   0  0  0  0  0  0  0  0  0  0  0  0
  141.0500   71.0200  227.8390 C   0  0  0  0  0  0  0  0  0  0  0  0
  140.4700   69.7270  228.3420 C   0  0  0  0  0  0  0  0  0  0  0  0
  140.6990   68.5540  227.4380 C   0  0  0  0  0  0  0  0  0  0  0  0
  140.6250   69.0140  226.0010 C   0  0  0  0  0  0  0  0  0  0  0  0
  137.7135   69.3274  224.7146 H   0  0  0  0  0  0  0  0  0  0  0  0
  137.7281   70.4720  223.3303 H   0  0  0  0  0  0  0  0  0  0  0  0
  138.8237   69.0485  223.3303 H   0  0  0  0  0  0  0  0  0  0  0  0
  140.6249   72.1391  224.3832 H   0  0  0  0  0  0  0  0  0  0  0  0
  140.9702   70.5872  223.4382 H   0  0  0  0  0  0  0  0  0  0  0  0
  140.0178   71.3525  221.6619 H   0  0  0  0  0  0  0  0  0  0  0  0
  138.5327   71.8150  222.6010 H   0  0  0  0  0  0  0  0  0  0  0  0
  139.5230   74.0160  223.0210 H   0  0  0  0  0  0  0  0  0  0  0  0
  142.4274   75.0936  219.6411 H   0  0  0  0  0  0  0  0  0  0  0  0
  142.8366   77.5384  219.5601 H   0  0  0  0  0  0  0  0  0  0  0  0
  142.4534   79.7676  220.4351 H   0  0  0  0  0  0  0  0  0  0  0  0
  139.8350   80.2605  223.7952 H   0  0  0  0  0  0  0  0  0  0  0  0
  139.4537   77.8471  223.8458 H   0  0  0  0  0  0  0  0  0  0  0  0
  138.8161   69.9277  226.4395 H   0  0  0  0  0  0  0  0  0  0  0  0
  141.3645   71.6362  225.8103 H   0  0  0  0  0  0  0  0  0  0  0  0
  139.8649   72.2698  226.5590 H   0  0  0  0  0  0  0  0  0  0  0  0
  142.1436   70.9174  227.7796 H   0  0  0  0  0  0  0  0  0  0  0  0
  140.7578   71.8148  228.5411 H   0  0  0  0  0  0  0  0  0  0  0  0
  140.9240   69.5028  229.3185 H   0  0  0  0  0  0  0  0  0  0  0  0
  139.3811   69.8720  228.3992 H   0  0  0  0  0  0  0  0  0  0  0  0
  141.6921   68.1247  227.6364 H   0  0  0  0  0  0  0  0  0  0  0  0
  139.9299   67.7894  227.6219 H   0  0  0  0  0  0  0  0  0  0  0  0
  141.6326   69.2810  225.6497 H   0  0  0  0  0  0  0  0  0  0  0  0
  140.2210   68.2025  225.3779 H   0  0  0  0  0  0  0  0  0  0  0  0
  1  2  1  0
  2  3  1  0
  3  4  1  0
  4  5  1  0
  5  6  1  0
  6  7  2  0
  6  8  1  0
  8  9  2  0
  9 10  1  0
 10 11  2  0
 11 12  1  0
 12 13  2  0
 13 14  1  0
 13 15  1  0
 15 16  2  0
 16 17  1  0
 17 18  2  0
  2 19  1  0
 19 20  1  0
 20 21  1  0
 21 22  1  0
 22 23  1  0
 23 24  1  0
 18  8  1  0
 24 19  1  0
 17 11  1  0
  1 25  1  0
  1 26  1  0
  1 27  1  0
  3 28  1  0
  3 29  1  0
  4 30  1  0
  4 31  1  0
  5 32  1  0
  9 33  1  0
 10 34  1  0
 12 35  1  0
 15 36  1  0
 16 37  1  0
 19 38  1  0
 20 39  1  0
 20 40  1  0
 21 41  1  0
 21 42  1  0
 22 43  1  0
 22 44  1  0
 23 45  1  0
 23 46  1  0
 24 47  1  0
 24 48  1  0
M  END
>  <smiles>  (25) 
CN(CCNC(=O)c1ccc2cc(Cl)ccc2n1)C1CCCCC1

>  <score_type>  (25) 
oracle

>  <origin>  (25) 
autodockgpu

>  <m_score__min__energy>  (25) 
-8.2200000000000006

>  <m_primary>  (25) 
energy

>  <rmsd>  (25) 
8.825551690063573

>  <m_score__min__rmsd>  (25) 
8.825551690063573

>  <meeko>  (25) 
{"free_energy": -7.97, "intermolecular_energy": -9.46, "internal_energy": -1.03, "cluster_size": 22, "cluster_id": 2, "rank_in_cluster": 7}

>  <energy>  (25) 
-7.52

>  <cluster_rmsd>  (25) 
1.88

>  <cluster>  (25) 
2

$$$$

     RDKit          3D

 48 50  0  0  0  0  0  0  0  0999 V2000
  139.1810   68.1440  224.9230 C   0  0  0  0  0  0  0  0  0  0  0  0
  139.3930   69.5350  224.8510 N   0  0  0  0  0  0  0  0  0  0  0  0
  139.6480   70.0800  223.5810 C   0  0  0  0  0  0  0  0  0  0  0  0
  138.5860   70.9820  223.0140 C   0  0  0  0  0  0  0  0  0  0  0  0
  139.0960   72.2910  222.6930 N   0  0  0  0  0  0  0  0  0  0  0  0
  140.2130   72.5130  221.8380 C   0  0  0  0  0  0  0  0  0  0  0  0
  140.8410   71.5670  221.2990 O   0  0  0  0  0  0  0  0  0  0  0  0
  140.6520   73.9000  221.5720 C   0  0  0  0  0  0  0  0  0  0  0  0
  141.6660   74.1480  220.6900 C   0  0  0  0  0  0  0  0  0  0  0  0
  142.0560   75.4570  220.4610 C   0  0  0  0  0  0  0  0  0  0  0  0
  141.4400   76.5250  221.1090 C   0  0  0  0  0  0  0  0  0  0  0  0
  141.8250   77.8300  220.8830 C   0  0  0  0  0  0  0  0  0  0  0  0
  141.2020   78.8970  221.5360 C   0  0  0  0  0  0  0  0  0  0  0  0
  141.7010   80.5420  221.2400 Cl  0  0  0  0  0  0  0  0  0  0  0  0
  140.1820   78.5660  222.4150 C   0  0  0  0  0  0  0  0  0  0  0  0
  139.8050   77.2660  222.6340 C   0  0  0  0  0  0  0  0  0  0  0  0
  140.4280   76.2210  221.9840 C   0  0  0  0  0  0  0  0  0  0  0  0
  140.0570   74.9450  222.1980 N   0  0  0  0  0  0  0  0  0  0  0  0
  139.8410   70.2030  226.0120 C   0  0  0  0  0  0  0  0  0  0  0  0
  140.8420   71.2700  225.5330 C   0  0  0  0  0  0  0  0  0  0  0  0
  141.4230   71.9680  226.7360 C   0  0  0  0  0  0  0  0  0  0  0  0
  140.7040   71.6110  228.0070 C   0  0  0  0  0  0  0  0  0  0  0  0
  140.6770   70.1440  228.3110 C   0  0  0  0  0  0  0  0  0  0  0  0
  140.5480   69.3720  227.0180 C   0  0  0  0  0  0  0  0  0  0  0  0
  139.1338   67.8344  225.9775 H   0  0  0  0  0  0  0  0  0  0  0  0
  138.2339   67.8911  224.4239 H   0  0  0  0  0  0  0  0  0  0  0  0
  140.0097   67.6205  224.4239 H   0  0  0  0  0  0  0  0  0  0  0  0
  140.5798   70.6608  223.6471 H   0  0  0  0  0  0  0  0  0  0  0  0
  139.6949   69.2190  222.8979 H   0  0  0  0  0  0  0  0  0  0  0  0
  138.1847   70.5240  222.0979 H   0  0  0  0  0  0  0  0  0  0  0  0
  137.8037   71.1031  223.7778 H   0  0  0  0  0  0  0  0  0  0  0  0
  138.6430   73.1520  223.0950 H   0  0  0  0  0  0  0  0  0  0  0  0
  142.1661   73.3185  220.1686 H   0  0  0  0  0  0  0  0  0  0  0  0
  142.8715   75.6580  219.7506 H   0  0  0  0  0  0  0  0  0  0  0  0
  142.6401   78.0354  220.1734 H   0  0  0  0  0  0  0  0  0  0  0  0
  139.6594   79.3707  222.9529 H   0  0  0  0  0  0  0  0  0  0  0  0
  138.9902   77.0524  223.3415 H   0  0  0  0  0  0  0  0  0  0  0  0
  138.9406   70.5810  226.5184 H   0  0  0  0  0  0  0  0  0  0  0  0
  141.6483   70.7892  224.9597 H   0  0  0  0  0  0  0  0  0  0  0  0
  140.3295   72.0001  224.8894 H   0  0  0  0  0  0  0  0  0  0  0  0
  142.4801   71.6805  226.8352 H   0  0  0  0  0  0  0  0  0  0  0  0
  141.3135   73.0515  226.5811 H   0  0  0  0  0  0  0  0  0  0  0  0
  141.2030   72.1262  228.8410 H   0  0  0  0  0  0  0  0  0  0  0  0
  139.6577   71.9238  227.8746 H   0  0  0  0  0  0  0  0  0  0  0  0
  141.6087   69.8563  228.8201 H   0  0  0  0  0  0  0  0  0  0  0  0
  139.8216   69.9171  228.9644 H   0  0  0  0  0  0  0  0  0  0  0  0
  141.5498   69.1158  226.6428 H   0  0  0  0  0  0  0  0  0  0  0  0
  139.9760   68.4498  227.1980 H   0  0  0  0  0  0  0  0  0  0  0  0
  1  2  1  0
  2  3  1  0
  3  4  1  0
  4  5  1  0
  5  6  1  0
  6  7  2  0
  6  8  1  0
  8  9  2  0
  9 10  1  0
 10 11  2  0
 11 12  1  0
 12 13  2  0
 13 14  1  0
 13 15  1  0
 15 16  2  0
 16 17  1  0
 17 18  2  0
  2 19  1  0
 19 20  1  0
 20 21  1  0
 21 22  1  0
 22 23  1  0
 23 24  1  0
 18  8  1  0
 24 19  1  0
 17 11  1  0
  1 25  1  0
  1 26  1  0
  1 27  1  0
  3 28  1  0
  3 29  1  0
  4 30  1  0
  4 31  1  0
  5 32  1  0
  9 33  1  0
 10 34  1  0
 12 35  1  0
 15 36  1  0
 16 37  1  0
 19 38  1  0
 20 39  1  0
 20 40  1  0
 21 41  1  0
 21 42  1  0
 22 43  1  0
 22 44  1  0
 23 45  1  0
 23 46  1  0
 24 47  1  0
 24 48  1  0
M  END
>  <smiles>  (26) 
CN(CCNC(=O)c1ccc2cc(Cl)ccc2n1)C1CCCCC1

>  <score_type>  (26) 
oracle

>  <origin>  (26) 
autodockgpu

>  <m_score__min__energy>  (26) 
-8.2200000000000006

>  <m_primary>  (26) 
energy

>  <rmsd>  (26) 
8.592978243826542

>  <m_score__min__rmsd>  (26) 
8.592978243826542

>  <meeko>  (26) 
{"free_energy": -7.97, "intermolecular_energy": -9.46, "internal_energy": -1.26, "cluster_size": 22, "cluster_id": 2, "rank_in_cluster": 8}

>  <energy>  (26) 
-7.08

>  <cluster_rmsd>  (26) 
1.68

>  <cluster>  (26) 
2

$$$$

     RDKit          3D

 48 50  0  0  0  0  0  0  0  0999 V2000
  139.0690   68.1310  225.5640 C   0  0  0  0  0  0  0  0  0  0  0  0
  139.2520   69.4600  225.1330 N   0  0  0  0  0  0  0  0  0  0  0  0
  139.4390   69.6680  223.7550 C   0  0  0  0  0  0  0  0  0  0  0  0
  138.3970   70.4960  223.0550 C   0  0  0  0  0  0  0  0  0  0  0  0
  138.8470   71.8420  222.8040 N   0  0  0  0  0  0  0  0  0  0  0  0
  139.9830   72.1550  222.0040 C   0  0  0  0  0  0  0  0  0  0  0  0
  140.6810   71.2660  221.4560 O   0  0  0  0  0  0  0  0  0  0  0  0
  140.3560   73.5730  221.8080 C   0  0  0  0  0  0  0  0  0  0  0  0
  141.4740   73.9020  221.0950 C   0  0  0  0  0  0  0  0  0  0  0  0
  141.8000   75.2380  220.9280 C   0  0  0  0  0  0  0  0  0  0  0  0
  141.0140   76.2530  221.4710 C   0  0  0  0  0  0  0  0  0  0  0  0
  141.3340   77.5840  221.3070 C   0  0  0  0  0  0  0  0  0  0  0  0
  140.5410   78.5970  221.8530 C   0  0  0  0  0  0  0  0  0  0  0  0
  140.9590   80.2760  221.6370 Cl  0  0  0  0  0  0  0  0  0  0  0  0
  139.4240   78.1840  222.5620 C   0  0  0  0  0  0  0  0  0  0  0  0
  139.1120   76.8580  222.7210 C   0  0  0  0  0  0  0  0  0  0  0  0
  139.9020   75.8670  222.1780 C   0  0  0  0  0  0  0  0  0  0  0  0
  139.5970   74.5660  222.3330 N   0  0  0  0  0  0  0  0  0  0  0  0
  139.7390   70.4030  226.0640 C   0  0  0  0  0  0  0  0  0  0  0  0
  141.0570   70.9430  225.4770 C   0  0  0  0  0  0  0  0  0  0  0  0
  141.6750   71.8990  226.4660 C   0  0  0  0  0  0  0  0  0  0  0  0
  140.7420   72.2340  227.5970 C   0  0  0  0  0  0  0  0  0  0  0  0
  140.2540   71.0470  228.3680 C   0  0  0  0  0  0  0  0  0  0  0  0
  140.0530   69.8880  227.4200 C   0  0  0  0  0  0  0  0  0  0  0  0
  139.0647   68.0994  226.6635 H   0  0  0  0  0  0  0  0  0  0  0  0
  138.1100   67.7506  225.1825 H   0  0  0  0  0  0  0  0  0  0  0  0
  139.8895   67.5055  225.1825 H   0  0  0  0  0  0  0  0  0  0  0  0
  140.4093   70.1685  223.6210 H   0  0  0  0  0  0  0  0  0  0  0  0
  139.3736   68.6696  223.2979 H   0  0  0  0  0  0  0  0  0  0  0  0
  138.1531   70.0194  222.0941 H   0  0  0  0  0  0  0  0  0  0  0  0
  137.5153   70.5522  223.7103 H   0  0  0  0  0  0  0  0  0  0  0  0
  138.3330   72.6610  223.2200 H   0  0  0  0  0  0  0  0  0  0  0  0
  142.1076   73.1156  220.6589 H   0  0  0  0  0  0  0  0  0  0  0  0
  142.6997   75.5039  220.3537 H   0  0  0  0  0  0  0  0  0  0  0  0
  142.2331   77.8545  220.7339 H   0  0  0  0  0  0  0  0  0  0  0  0
  138.7672   78.9435  223.0112 H   0  0  0  0  0  0  0  0  0  0  0  0
  138.2143   76.5798  223.2927 H   0  0  0  0  0  0  0  0  0  0  0  0
  138.9362   71.1416  226.2049 H   0  0  0  0  0  0  0  0  0  0  0  0
  141.7477   70.1076  225.2895 H   0  0  0  0  0  0  0  0  0  0  0  0
  140.8577   71.4639  224.5289 H   0  0  0  0  0  0  0  0  0  0  0  0
  142.5837   71.4392  226.8817 H   0  0  0  0  0  0  0  0  0  0  0  0
  141.9048   72.8329  225.9321 H   0  0  0  0  0  0  0  0  0  0  0  0
  141.2705   72.9025  228.2925 H   0  0  0  0  0  0  0  0  0  0  0  0
  139.8548   72.7010  227.1444 H   0  0  0  0  0  0  0  0  0  0  0  0
  140.9970   70.7733  229.1315 H   0  0  0  0  0  0  0  0  0  0  0  0
  139.3011   71.2919  228.8600 H   0  0  0  0  0  0  0  0  0  0  0  0
  140.9721   69.2850  227.3789 H   0  0  0  0  0  0  0  0  0  0  0  0
  139.2195   69.2648  227.7763 H   0  0  0  0  0  0  0  0  0  0  0  0
  1  2  1  0
  2  3  1  0
  3  4  1  0
  4  5  1  0
  5  6  1  0
  6  7  2  0
  6  8  1  0
  8  9  2  0
  9 10  1  0
 10 11  2  0
 11 12  1  0
 12 13  2  0
 13 14  1  0
 13 15  1  0
 15 16  2  0
 16 17  1  0
 17 18  2  0
  2 19  1  0
 19 20  1  0
 20 21  1  0
 21 22  1  0
 22 23  1  0
 23 24  1  0
 18  8  1  0
 24 19  1  0
 17 11  1  0
  1 25  1  0
  1 26  1  0
  1 27  1  0
  3 28  1  0
  3 29  1  0
  4 30  1  0
  4 31  1  0
  5 32  1  0
  9 33  1  0
 10 34  1  0
 12 35  1  0
 15 36  1  0
 16 37  1  0
 19 38  1  0
 20 39  1  0
 20 40  1  0
 21 41  1  0
 21 42  1  0
 22 43  1  0
 22 44  1  0
 23 45  1  0
 23 46  1  0
 24 47  1  0
 24 48  1  0
M  END
>  <smiles>  (27) 
CN(CCNC(=O)c1ccc2cc(Cl)ccc2n1)C1CCCCC1

>  <score_type>  (27) 
oracle

>  <origin>  (27) 
autodockgpu

>  <m_score__min__energy>  (27) 
-8.2200000000000006

>  <m_primary>  (27) 
energy

>  <rmsd>  (27) 
8.470834330361088

>  <m_score__min__rmsd>  (27) 
8.470834330361088

>  <meeko>  (27) 
{"free_energy": -7.6, "intermolecular_energy": -9.1, "internal_energy": -1.4, "cluster_size": 22, "cluster_id": 2, "rank_in_cluster": 16}

>  <energy>  (27) 
-6.97

>  <cluster_rmsd>  (27) 
1.65

>  <cluster>  (27) 
2

$$$$

     RDKit          3D

 48 50  0  0  0  0  0  0  0  0999 V2000
  138.6430   69.4570  223.8390 C   0  0  0  0  0  0  0  0  0  0  0  0
  139.3880   70.4120  224.5590 N   0  0  0  0  0  0  0  0  0  0  0  0
  140.1280   71.3450  223.8110 C   0  0  0  0  0  0  0  0  0  0  0  0
  139.4390   71.9400  222.6140 C   0  0  0  0  0  0  0  0  0  0  0  0
  139.7780   73.3270  222.4220 N   0  0  0  0  0  0  0  0  0  0  0  0
  140.8210   73.7700  221.5570 C   0  0  0  0  0  0  0  0  0  0  0  0
  141.5260   72.9690  220.8950 O   0  0  0  0  0  0  0  0  0  0  0  0
  141.0840   75.2200  221.4320 C   0  0  0  0  0  0  0  0  0  0  0  0
  141.9030   75.6910  220.4450 C   0  0  0  0  0  0  0  0  0  0  0  0
  142.1320   77.0540  220.3510 C   0  0  0  0  0  0  0  0  0  0  0  0
  141.5460   77.9550  221.2390 C   0  0  0  0  0  0  0  0  0  0  0  0
  141.7700   79.3120  221.1490 C   0  0  0  0  0  0  0  0  0  0  0  0
  141.1790   80.2100  222.0430 C   0  0  0  0  0  0  0  0  0  0  0  0
  141.4730   81.9240  221.9160 Cl  0  0  0  0  0  0  0  0  0  0  0  0
  140.3600   79.6560  223.0140 C   0  0  0  0  0  0  0  0  0  0  0  0
  140.1420   78.3040  223.0980 C   0  0  0  0  0  0  0  0  0  0  0  0
  140.7320   77.4280  222.2110 C   0  0  0  0  0  0  0  0  0  0  0  0
  140.5170   76.1020  222.2910 N   0  0  0  0  0  0  0  0  0  0  0  0
  139.7710   70.1010  225.8820 C   0  0  0  0  0  0  0  0  0  0  0  0
  140.5640   71.3160  226.3960 C   0  0  0  0  0  0  0  0  0  0  0  0
  141.0760   71.0140  227.7810 C   0  0  0  0  0  0  0  0  0  0  0  0
  140.4800   69.7560  228.3490 C   0  0  0  0  0  0  0  0  0  0  0  0
  140.7040   68.5330  227.5130 C   0  0  0  0  0  0  0  0  0  0  0  0
  140.6460   68.9140  226.0520 C   0  0  0  0  0  0  0  0  0  0  0  0
  138.1232   68.7907  224.5431 H   0  0  0  0  0  0  0  0  0  0  0  0
  137.9040   69.9698  223.2059 H   0  0  0  0  0  0  0  0  0  0  0  0
  139.3203   68.8650  223.2059 H   0  0  0  0  0  0  0  0  0  0  0  0
  140.4027   72.1708  224.4837 H   0  0  0  0  0  0  0  0  0  0  0  0
  140.9828   70.7831  223.4066 H   0  0  0  0  0  0  0  0  0  0  0  0
  139.7364   71.3757  221.7178 H   0  0  0  0  0  0  0  0  0  0  0  0
  138.3541   71.8791  222.7851 H   0  0  0  0  0  0  0  0  0  0  0  0
  139.2500   74.0810  222.9330 H   0  0  0  0  0  0  0  0  0  0  0  0
  142.3746   74.9967  219.7340 H   0  0  0  0  0  0  0  0  0  0  0  0
  142.7916   77.4343  219.5571 H   0  0  0  0  0  0  0  0  0  0  0  0
  142.4283   79.6970  220.3563 H   0  0  0  0  0  0  0  0  0  0  0  0
  139.8694   80.3209  223.7401 H   0  0  0  0  0  0  0  0  0  0  0  0
  139.4844   77.9114  223.8875 H   0  0  0  0  0  0  0  0  0  0  0  0
  138.8437   69.8674  226.4256 H   0  0  0  0  0  0  0  0  0  0  0  0
  141.4119   71.5147  225.7240 H   0  0  0  0  0  0  0  0  0  0  0  0
  139.9123   72.2017  226.4243 H   0  0  0  0  0  0  0  0  0  0  0  0
  142.1690   70.8986  227.7365 H   0  0  0  0  0  0  0  0  0  0  0  0
  140.7860   71.8488  228.4360 H   0  0  0  0  0  0  0  0  0  0  0  0
  140.9245   69.5816  229.3399 H   0  0  0  0  0  0  0  0  0  0  0  0
  139.3922   69.9141  228.3890 H   0  0  0  0  0  0  0  0  0  0  0  0
  141.6911   68.1055  227.7431 H   0  0  0  0  0  0  0  0  0  0  0  0
  139.9257   67.7872  227.7322 H   0  0  0  0  0  0  0  0  0  0  0  0
  141.6590   69.1516  225.6950 H   0  0  0  0  0  0  0  0  0  0  0  0
  140.2389   68.0735  225.4709 H   0  0  0  0  0  0  0  0  0  0  0  0
  1  2  1  0
  2  3  1  0
  3  4  1  0
  4  5  1  0
  5  6  1  0
  6  7  2  0
  6  8  1  0
  8  9  2  0
  9 10  1  0
 10 11  2  0
 11 12  1  0
 12 13  2  0
 13 14  1  0
 13 15  1  0
 15 16  2  0
 16 17  1  0
 17 18  2  0
  2 19  1  0
 19 20  1  0
 20 21  1  0
 21 22  1  0
 22 23  1  0
 23 24  1  0
 18  8  1  0
 24 19  1  0
 17 11  1  0
  1 25  1  0
  1 26  1  0
  1 27  1  0
  3 28  1  0
  3 29  1  0
  4 30  1  0
  4 31  1  0
  5 32  1  0
  9 33  1  0
 10 34  1  0
 12 35  1  0
 15 36  1  0
 16 37  1  0
 19 38  1  0
 20 39  1  0
 20 40  1  0
 21 41  1  0
 21 42  1  0
 22 43  1  0
 22 44  1  0
 23 45  1  0
 23 46  1  0
 24 47  1  0
 24 48  1  0
M  END
>  <smiles>  (28) 
CN(CCNC(=O)c1ccc2cc(Cl)ccc2n1)C1CCCCC1

>  <score_type>  (28) 
oracle

>  <origin>  (28) 
autodockgpu

>  <m_score__min__energy>  (28) 
-8.2200000000000006

>  <m_primary>  (28) 
energy

>  <rmsd>  (28) 
8.847484589315487

>  <m_score__min__rmsd>  (28) 
8.847484589315487

>  <meeko>  (28) 
{"free_energy": -8.03, "intermolecular_energy": -9.52, "internal_energy": -1.02, "cluster_size": 22, "cluster_id": 2, "rank_in_cluster": 4}

>  <energy>  (28) 
-6.57

>  <cluster_rmsd>  (28) 
1.51

>  <cluster>  (28) 
2

$$$$

     RDKit          3D

 48 50  0  0  0  0  0  0  0  0999 V2000
  139.9110   67.7190  226.1020 C   0  0  0  0  0  0  0  0  0  0  0  0
  139.1730   68.9190  226.1290 N   0  0  0  0  0  0  0  0  0  0  0  0
  138.0500   69.0010  225.2870 C   0  0  0  0  0  0  0  0  0  0  0  0
  138.2580   68.5980  223.8530 C   0  0  0  0  0  0  0  0  0  0  0  0
  139.0950   69.5300  223.1400 N   0  0  0  0  0  0  0  0  0  0  0  0
  138.8450   70.9320  223.0890 C   0  0  0  0  0  0  0  0  0  0  0  0
  137.8630   71.4580  223.6680 O   0  0  0  0  0  0  0  0  0  0  0  0
  139.7710   71.8000  222.3300 C   0  0  0  0  0  0  0  0  0  0  0  0
  140.7790   71.2530  221.5870 C   0  0  0  0  0  0  0  0  0  0  0  0
  141.6320   72.0900  220.8860 C   0  0  0  0  0  0  0  0  0  0  0  0
  141.4860   73.4750  220.9220 C   0  0  0  0  0  0  0  0  0  0  0  0
  142.3320   74.3120  220.2260 C   0  0  0  0  0  0  0  0  0  0  0  0
  142.1790   75.7010  220.2650 C   0  0  0  0  0  0  0  0  0  0  0  0
  143.2580   76.7460  219.3790 Cl  0  0  0  0  0  0  0  0  0  0  0  0
  141.1340   76.1790  221.0400 C   0  0  0  0  0  0  0  0  0  0  0  0
  140.2970   75.3410  221.7300 C   0  0  0  0  0  0  0  0  0  0  0  0
  140.4570   73.9720  221.6840 C   0  0  0  0  0  0  0  0  0  0  0  0
  139.6350   73.1490  222.3600 N   0  0  0  0  0  0  0  0  0  0  0  0
  139.8280   70.0970  226.5520 C   0  0  0  0  0  0  0  0  0  0  0  0
  140.9750   70.3310  225.5520 C   0  0  0  0  0  0  0  0  0  0  0  0
  141.7700   71.5320  225.9950 C   0  0  0  0  0  0  0  0  0  0  0  0
  141.0960   72.2850  227.1100 C   0  0  0  0  0  0  0  0  0  0  0  0
  140.8130   71.4610  228.3280 C   0  0  0  0  0  0  0  0  0  0  0  0
  140.4390   70.0600  227.9040 C   0  0  0  0  0  0  0  0  0  0  0  0
  140.1134   67.3898  227.1319 H   0  0  0  0  0  0  0  0  0  0  0  0
  139.3328   66.9447  225.5765 H   0  0  0  0  0  0  0  0  0  0  0  0
  140.8629   67.8857  225.5765 H   0  0  0  0  0  0  0  0  0  0  0  0
  137.2685   68.3509  225.7073 H   0  0  0  0  0  0  0  0  0  0  0  0
  137.7863   70.0685  225.2550 H   0  0  0  0  0  0  0  0  0  0  0  0
  138.7328   67.6060  223.8294 H   0  0  0  0  0  0  0  0  0  0  0  0
  137.2743   68.5836  223.3608 H   0  0  0  0  0  0  0  0  0  0  0  0
  139.9440   69.1920  222.6180 H   0  0  0  0  0  0  0  0  0  0  0  0
  140.9115   70.1618  221.5460 H   0  0  0  0  0  0  0  0  0  0  0  0
  142.4434   71.6507  220.2871 H   0  0  0  0  0  0  0  0  0  0  0  0
  143.1455   73.8772  219.6267 H   0  0  0  0  0  0  0  0  0  0  0  0
  140.9712   77.2650  221.1033 H   0  0  0  0  0  0  0  0  0  0  0  0
  139.4818   75.7688  222.3321 H   0  0  0  0  0  0  0  0  0  0  0  0
  139.0585   70.8819  226.5942 H   0  0  0  0  0  0  0  0  0  0  0  0
  141.6274   69.4458  225.5244 H   0  0  0  0  0  0  0  0  0  0  0  0
  140.5638   70.5058  224.5468 H   0  0  0  0  0  0  0  0  0  0  0  0
  142.7571   71.1937  226.3431 H   0  0  0  0  0  0  0  0  0  0  0  0
  141.8580   72.2124  225.1352 H   0  0  0  0  0  0  0  0  0  0  0  0
  141.7474   73.1213  227.4037 H   0  0  0  0  0  0  0  0  0  0  0  0
  140.1220   72.6173  226.7216 H   0  0  0  0  0  0  0  0  0  0  0  0
  141.7093   71.4258  228.9648 H   0  0  0  0  0  0  0  0  0  0  0  0
  139.9831   71.9100  228.8933 H   0  0  0  0  0  0  0  0  0  0  0  0
  141.3411   69.4310  227.8813 H   0  0  0  0  0  0  0  0  0  0  0  0
  139.7170   69.6413  228.6205 H   0  0  0  0  0  0  0  0  0  0  0  0
  1  2  1  0
  2  3  1  0
  3  4  1  0
  4  5  1  0
  5  6  1  0
  6  7  2  0
  6  8  1  0
  8  9  2  0
  9 10  1  0
 10 11  2  0
 11 12  1  0
 12 13  2  0
 13 14  1  0
 13 15  1  0
 15 16  2  0
 16 17  1  0
 17 18  2  0
  2 19  1  0
 19 20  1  0
 20 21  1  0
 21 22  1  0
 22 23  1  0
 23 24  1  0
 18  8  1  0
 24 19  1  0
 17 11  1  0
  1 25  1  0
  1 26  1  0
  1 27  1  0
  3 28  1  0
  3 29  1  0
  4 30  1  0
  4 31  1  0
  5 32  1  0
  9 33  1  0
 10 34  1  0
 12 35  1  0
 15 36  1  0
 16 37  1  0
 19 38  1  0
 20 39  1  0
 20 40  1  0
 21 41  1  0
 21 42  1  0
 22 43  1  0
 22 44  1  0
 23 45  1  0
 23 46  1  0
 24 47  1  0
 24 48  1  0
M  END
>  <smiles>  (29) 
CN(CCNC(=O)c1ccc2cc(Cl)ccc2n1)C1CCCCC1

>  <score_type>  (29) 
oracle

>  <origin>  (29) 
autodockgpu

>  <m_score__min__energy>  (29) 
-8.2200000000000006

>  <m_primary>  (29) 
energy

>  <rmsd>  (29) 
8.299322830975024

>  <m_score__min__rmsd>  (29) 
8.299322830975024

>  <meeko>  (29) 
{"free_energy": -6.81, "intermolecular_energy": -8.3, "internal_energy": -1.36, "cluster_size": 1, "cluster_id": 5, "rank_in_cluster": 1}

>  <energy>  (29) 
-6.56

>  <cluster_rmsd>  (29) 
1.56

>  <cluster>  (29) 
2

$$$$

     RDKit          3D

 48 50  0  0  0  0  0  0  0  0999 V2000
  139.1710   68.7090  224.3250 C   0  0  0  0  0  0  0  0  0  0  0  0
  138.8570   69.9650  224.8810 N   0  0  0  0  0  0  0  0  0  0  0  0
  138.2570   70.9110  224.0310 C   0  0  0  0  0  0  0  0  0  0  0  0
  138.8860   71.0880  222.6770 C   0  0  0  0  0  0  0  0  0  0  0  0
  139.3210   72.4430  222.4490 N   0  0  0  0  0  0  0  0  0  0  0  0
  140.4200   72.7860  221.6100 C   0  0  0  0  0  0  0  0  0  0  0  0
  141.0950   71.9180  221.0040 O   0  0  0  0  0  0  0  0  0  0  0  0
  140.7800   74.2110  221.4440 C   0  0  0  0  0  0  0  0  0  0  0  0
  141.7860   74.5750  220.5940 C   0  0  0  0  0  0  0  0  0  0  0  0
  142.1020   75.9170  220.4580 C   0  0  0  0  0  0  0  0  0  0  0  0
  141.4190   76.9030  221.1670 C   0  0  0  0  0  0  0  0  0  0  0  0
  141.7300   78.2390  221.0350 C   0  0  0  0  0  0  0  0  0  0  0  0
  141.0390   79.2230  221.7500 C   0  0  0  0  0  0  0  0  0  0  0  0
  141.4450   80.9090  221.5710 Cl  0  0  0  0  0  0  0  0  0  0  0  0
  140.0330   78.7750  222.5910 C   0  0  0  0  0  0  0  0  0  0  0  0
  139.7300   77.4430  222.7170 C   0  0  0  0  0  0  0  0  0  0  0  0
  140.4180   76.4820  222.0070 C   0  0  0  0  0  0  0  0  0  0  0  0
  140.1200   75.1750  222.1310 N   0  0  0  0  0  0  0  0  0  0  0  0
  139.5770   70.3910  226.0190 C   0  0  0  0  0  0  0  0  0  0  0  0
  140.5630   71.4650  225.5250 C   0  0  0  0  0  0  0  0  0  0  0  0
  141.4250   71.9040  226.6800 C   0  0  0  0  0  0  0  0  0  0  0  0
  140.9310   71.3710  227.9970 C   0  0  0  0  0  0  0  0  0  0  0  0
  140.8260   69.8780  228.0590 C   0  0  0  0  0  0  0  0  0  0  0  0
  140.3820   69.3550  226.7130 C   0  0  0  0  0  0  0  0  0  0  0  0
  139.3520   67.9851  225.1332 H   0  0  0  0  0  0  0  0  0  0  0  0
  138.3318   68.3628  223.7038 H   0  0  0  0  0  0  0  0  0  0  0  0
  140.0744   68.7985  223.7038 H   0  0  0  0  0  0  0  0  0  0  0  0
  137.2113   70.6065  223.8769 H   0  0  0  0  0  0  0  0  0  0  0  0
  138.3799   71.8790  224.5387 H   0  0  0  0  0  0  0  0  0  0  0  0
  139.7563   70.4195  222.6011 H   0  0  0  0  0  0  0  0  0  0  0  0
  138.1265   70.8462  221.9189 H   0  0  0  0  0  0  0  0  0  0  0  0
  138.8240   73.2470  222.9130 H   0  0  0  0  0  0  0  0  0  0  0  0
  142.3379   73.8123  220.0250 H   0  0  0  0  0  0  0  0  0  0  0  0
  142.9116   76.2112  219.7738 H   0  0  0  0  0  0  0  0  0  0  0  0
  142.5392   78.5382  220.3526 H   0  0  0  0  0  0  0  0  0  0  0  0
  139.4599   79.5098  223.1754 H   0  0  0  0  0  0  0  0  0  0  0  0
  138.9224   77.1357  223.3977 H   0  0  0  0  0  0  0  0  0  0  0  0
  138.8285   70.7267  226.7518 H   0  0  0  0  0  0  0  0  0  0  0  0
  141.1968   71.0464  224.7293 H   0  0  0  0  0  0  0  0  0  0  0  0
  140.0070   72.3263  225.1263 H   0  0  0  0  0  0  0  0  0  0  0  0
  142.4502   71.5414  226.5139 H   0  0  0  0  0  0  0  0  0  0  0  0
  141.3897   73.0024  226.7273 H   0  0  0  0  0  0  0  0  0  0  0  0
  141.6255   71.7002  228.7839 H   0  0  0  0  0  0  0  0  0  0  0  0
  139.9125   71.7637  228.1330 H   0  0  0  0  0  0  0  0  0  0  0  0
  141.8068   69.4505  228.3146 H   0  0  0  0  0  0  0  0  0  0  0  0
  140.0931   69.5906  228.8273 H   0  0  0  0  0  0  0  0  0  0  0  0
  141.2657   69.1098  226.1055 H   0  0  0  0  0  0  0  0  0  0  0  0
  139.7713   68.4511  226.8548 H   0  0  0  0  0  0  0  0  0  0  0  0
  1  2  1  0
  2  3  1  0
  3  4  1  0
  4  5  1  0
  5  6  1  0
  6  7  2  0
  6  8  1  0
  8  9  2  0
  9 10  1  0
 10 11  2  0
 11 12  1  0
 12 13  2  0
 13 14  1  0
 13 15  1  0
 15 16  2  0
 16 17  1  0
 17 18  2  0
  2 19  1  0
 19 20  1  0
 20 21  1  0
 21 22  1  0
 22 23  1  0
 23 24  1  0
 18  8  1  0
 24 19  1  0
 17 11  1  0
  1 25  1  0
  1 26  1  0
  1 27  1  0
  3 28  1  0
  3 29  1  0
  4 30  1  0
  4 31  1  0
  5 32  1  0
  9 33  1  0
 10 34  1  0
 12 35  1  0
 15 36  1  0
 16 37  1  0
 19 38  1  0
 20 39  1  0
 20 40  1  0
 21 41  1  0
 21 42  1  0
 22 43  1  0
 22 44  1  0
 23 45  1  0
 23 46  1  0
 24 47  1  0
 24 48  1  0
M  END
>  <smiles>  (30) 
CN(CCNC(=O)c1ccc2cc(Cl)ccc2n1)C1CCCCC1

>  <score_type>  (30) 
oracle

>  <origin>  (30) 
autodockgpu

>  <m_score__min__energy>  (30) 
-8.2200000000000006

>  <m_primary>  (30) 
energy

>  <rmsd>  (30) 
8.572540731553055

>  <m_score__min__rmsd>  (30) 
8.572540731553055

>  <meeko>  (30) 
{"free_energy": -7.8, "intermolecular_energy": -9.29, "internal_energy": -1.21, "cluster_size": 22, "cluster_id": 2, "rank_in_cluster": 11}

>  <energy>  (30) 
-6.55

>  <cluster_rmsd>  (30) 
1.57

>  <cluster>  (30) 
2

$$$$

     RDKit          3D

 48 50  0  0  0  0  0  0  0  0999 V2000
  139.8130   70.8660  223.6100 C   0  0  0  0  0  0  0  0  0  0  0  0
  139.5520   69.9250  224.6260 N   0  0  0  0  0  0  0  0  0  0  0  0
  138.6430   68.8940  224.3280 C   0  0  0  0  0  0  0  0  0  0  0  0
  137.4410   69.2780  223.5090 C   0  0  0  0  0  0  0  0  0  0  0  0
  136.5830   70.2060  224.2000 N   0  0  0  0  0  0  0  0  0  0  0  0
  135.4170   69.8130  224.9190 C   0  0  0  0  0  0  0  0  0  0  0  0
  135.0540   68.6130  225.0000 O   0  0  0  0  0  0  0  0  0  0  0  0
  134.6070   70.8480  225.5970 C   0  0  0  0  0  0  0  0  0  0  0  0
  133.6280   70.4920  226.4800 C   0  0  0  0  0  0  0  0  0  0  0  0
  132.8840   71.4830  227.1000 C   0  0  0  0  0  0  0  0  0  0  0  0
  133.1120   72.8330  226.8430 C   0  0  0  0  0  0  0  0  0  0  0  0
  132.3740   73.8230  227.4570 C   0  0  0  0  0  0  0  0  0  0  0  0
  132.6080   75.1760  227.1950 C   0  0  0  0  0  0  0  0  0  0  0  0
  131.6670   76.4160  227.9810 Cl  0  0  0  0  0  0  0  0  0  0  0  0
  133.6180   75.4570  226.2880 C   0  0  0  0  0  0  0  0  0  0  0  0
  134.3470   74.4680  225.6810 C   0  0  0  0  0  0  0  0  0  0  0  0
  134.1070   73.1360  225.9470 C   0  0  0  0  0  0  0  0  0  0  0  0
  134.8230   72.1640  225.3520 N   0  0  0  0  0  0  0  0  0  0  0  0
  139.7680   70.3130  225.9670 C   0  0  0  0  0  0  0  0  0  0  0  0
  140.7710   71.4810  225.9180 C   0  0  0  0  0  0  0  0  0  0  0  0
  141.1110   71.8910  227.3280 C   0  0  0  0  0  0  0  0  0  0  0  0
  140.2190   71.2340  228.3450 C   0  0  0  0  0  0  0  0  0  0  0  0
  140.2280   69.7370  228.3000 C   0  0  0  0  0  0  0  0  0  0  0  0
  140.3520   69.2850  226.8630 C   0  0  0  0  0  0  0  0  0  0  0  0
  140.0808   71.8314  224.0643 H   0  0  0  0  0  0  0  0  0  0  0  0
  140.6465   70.5105  222.9863 H   0  0  0  0  0  0  0  0  0  0  0  0
  138.9155   70.9906  222.9863 H   0  0  0  0  0  0  0  0  0  0  0  0
  139.1895   68.1154  223.7756 H   0  0  0  0  0  0  0  0  0  0  0  0
  138.2427   68.5677  225.2992 H   0  0  0  0  0  0  0  0  0  0  0  0
  137.7844   69.7431  222.5732 H   0  0  0  0  0  0  0  0  0  0  0  0
  136.8607   68.3642  223.3138 H   0  0  0  0  0  0  0  0  0  0  0  0
  136.7960   71.2360  224.1930 H   0  0  0  0  0  0  0  0  0  0  0  0
  133.4324   69.4314  226.6964 H   0  0  0  0  0  0  0  0  0  0  0  0
  132.0953   71.1971  227.8115 H   0  0  0  0  0  0  0  0  0  0  0  0
  131.5837   73.5418  228.1686 H   0  0  0  0  0  0  0  0  0  0  0  0
  133.8413   76.5070  226.0479 H   0  0  0  0  0  0  0  0  0  0  0  0
  135.1387   74.7416  224.9680 H   0  0  0  0  0  0  0  0  0  0  0  0
  138.7777   70.5455  226.3857 H   0  0  0  0  0  0  0  0  0  0  0  0
  141.6848   71.1615  225.3957 H   0  0  0  0  0  0  0  0  0  0  0  0
  140.3275   72.3312  225.3790 H   0  0  0  0  0  0  0  0  0  0  0  0
  142.1534   71.6084  227.5368 H   0  0  0  0  0  0  0  0  0  0  0  0
  140.9658   72.9786  227.4061 H   0  0  0  0  0  0  0  0  0  0  0  0
  140.5473   71.5502  229.3461 H   0  0  0  0  0  0  0  0  0  0  0  0
  139.1913   71.5491  228.1117 H   0  0  0  0  0  0  0  0  0  0  0  0
  141.0812   69.3564  228.8806 H   0  0  0  0  0  0  0  0  0  0  0  0
  139.2936   69.3481  228.7310 H   0  0  0  0  0  0  0  0  0  0  0  0
  141.4140   69.1428  226.6141 H   0  0  0  0  0  0  0  0  0  0  0  0
  139.8129   68.3354  226.7304 H   0  0  0  0  0  0  0  0  0  0  0  0
  1  2  1  0
  2  3  1  0
  3  4  1  0
  4  5  1  0
  5  6  1  0
  6  7  2  0
  6  8  1  0
  8  9  2  0
  9 10  1  0
 10 11  2  0
 11 12  1  0
 12 13  2  0
 13 14  1  0
 13 15  1  0
 15 16  2  0
 16 17  1  0
 17 18  2  0
  2 19  1  0
 19 20  1  0
 20 21  1  0
 21 22  1  0
 22 23  1  0
 23 24  1  0
 18  8  1  0
 24 19  1  0
 17 11  1  0
  1 25  1  0
  1 26  1  0
  1 27  1  0
  3 28  1  0
  3 29  1  0
  4 30  1  0
  4 31  1  0
  5 32  1  0
  9 33  1  0
 10 34  1  0
 12 35  1  0
 15 36  1  0
 16 37  1  0
 19 38  1  0
 20 39  1  0
 20 40  1  0
 21 41  1  0
 21 42  1  0
 22 43  1  0
 22 44  1  0
 23 45  1  0
 23 46  1  0
 24 47  1  0
 24 48  1  0
M  END
>  <smiles>  (31) 
CN(CCNC(=O)c1ccc2cc(Cl)ccc2n1)C1CCCCC1

>  <score_type>  (31) 
oracle

>  <origin>  (31) 
autodockgpu

>  <m_score__min__energy>  (31) 
-8.2200000000000006

>  <m_primary>  (31) 
energy

>  <rmsd>  (31) 
8.273883321061902

>  <m_score__min__rmsd>  (31) 
8.273883321061902

>  <meeko>  (31) 
{"free_energy": -7.52, "intermolecular_energy": -9.02, "internal_energy": -1.31, "cluster_size": 17, "cluster_id": 3, "rank_in_cluster": 3}

>  <energy>  (31) 
-7.84

>  <cluster_rmsd>  (31) 
0.0

>  <cluster>  (31) 
3

$$$$

     RDKit          3D

 48 50  0  0  0  0  0  0  0  0999 V2000
  141.7820   76.7010  220.4990 C   0  0  0  0  0  0  0  0  0  0  0  0
  141.0130   77.0560  221.6250 N   0  0  0  0  0  0  0  0  0  0  0  0
  139.6820   76.6040  221.6620 C   0  0  0  0  0  0  0  0  0  0  0  0
  139.4260   75.2340  221.0960 C   0  0  0  0  0  0  0  0  0  0  0  0
  139.4940   74.2050  222.1030 N   0  0  0  0  0  0  0  0  0  0  0  0
  139.9900   72.8930  221.8550 C   0  0  0  0  0  0  0  0  0  0  0  0
  140.4050   72.5370  220.7240 O   0  0  0  0  0  0  0  0  0  0  0  0
  140.0190   71.9140  222.9630 C   0  0  0  0  0  0  0  0  0  0  0  0
  139.5570   70.6420  222.7740 C   0  0  0  0  0  0  0  0  0  0  0  0
  139.5970   69.7460  223.8300 C   0  0  0  0  0  0  0  0  0  0  0  0
  140.0940   70.1120  225.0780 C   0  0  0  0  0  0  0  0  0  0  0  0
  140.1360   69.2230  226.1320 C   0  0  0  0  0  0  0  0  0  0  0  0
  140.6370   69.5970  227.3820 C   0  0  0  0  0  0  0  0  0  0  0  0
  140.6820   68.4610  228.7050 Cl  0  0  0  0  0  0  0  0  0  0  0  0
  141.0860   70.9030  227.4950 C   0  0  0  0  0  0  0  0  0  0  0  0
  141.0420   71.7820  226.4430 C   0  0  0  0  0  0  0  0  0  0  0  0
  140.5450   71.4020  225.2140 C   0  0  0  0  0  0  0  0  0  0  0  0
  140.5020   72.2630  224.1810 N   0  0  0  0  0  0  0  0  0  0  0  0
  141.3930   78.2020  222.3590 C   0  0  0  0  0  0  0  0  0  0  0  0
  140.1290   78.6730  223.1010 C   0  0  0  0  0  0  0  0  0  0  0  0
  140.4460   79.9470  223.8420 C   0  0  0  0  0  0  0  0  0  0  0  0
  141.9180   80.2530  223.8490 C   0  0  0  0  0  0  0  0  0  0  0  0
  142.5330   80.3620  222.4880 C   0  0  0  0  0  0  0  0  0  0  0  0
  141.8810   79.3580  221.5670 C   0  0  0  0  0  0  0  0  0  0  0  0
  142.7346   76.2612  220.8294 H   0  0  0  0  0  0  0  0  0  0  0  0
  141.2294   75.9669  219.8943 H   0  0  0  0  0  0  0  0  0  0  0  0
  141.9823   77.5977  219.8943 H   0  0  0  0  0  0  0  0  0  0  0  0
  139.3597   76.5974  222.7137 H   0  0  0  0  0  0  0  0  0  0  0  0
  139.1198   77.2964  221.0182 H   0  0  0  0  0  0  0  0  0  0  0  0
  138.4237   75.2200  220.6429 H   0  0  0  0  0  0  0  0  0  0  0  0
  140.2070   75.0268  220.3496 H   0  0  0  0  0  0  0  0  0  0  0  0
  139.1690   74.3990  223.0850 H   0  0  0  0  0  0  0  0  0  0  0  0
  139.1586   70.3334  221.7962 H   0  0  0  0  0  0  0  0  0  0  0  0
  139.2273   68.7211  223.6788 H   0  0  0  0  0  0  0  0  0  0  0  0
  139.7671   68.1971  225.9854 H   0  0  0  0  0  0  0  0  0  0  0  0
  141.4905   71.2457  228.4588 H   0  0  0  0  0  0  0  0  0  0  0  0
  141.4100   72.8092  226.5822 H   0  0  0  0  0  0  0  0  0  0  0  0
  142.2384   77.8977  222.9935 H   0  0  0  0  0  0  0  0  0  0  0  0
  139.3224   78.8579  222.3763 H   0  0  0  0  0  0  0  0  0  0  0  0
  139.8029   77.8991  223.8114 H   0  0  0  0  0  0  0  0  0  0  0  0
  139.9142   80.7793  223.3578 H   0  0  0  0  0  0  0  0  0  0  0  0
  140.1247   79.8174  224.8860 H   0  0  0  0  0  0  0  0  0  0  0  0
  142.0683   81.2089  224.3722 H   0  0  0  0  0  0  0  0  0  0  0  0
  142.4122   79.4078  224.3504 H   0  0  0  0  0  0  0  0  0  0  0  0
  142.3780   81.3774  222.0944 H   0  0  0  0  0  0  0  0  0  0  0  0
  143.6121   80.1584  222.5525 H   0  0  0  0  0  0  0  0  0  0  0  0
  141.0336   79.8316  221.0497 H   0  0  0  0  0  0  0  0  0  0  0  0
  142.6157   79.0100  220.8260 H   0  0  0  0  0  0  0  0  0  0  0  0
  1  2  1  0
  2  3  1  0
  3  4  1  0
  4  5  1  0
  5  6  1  0
  6  7  2  0
  6  8  1  0
  8  9  2  0
  9 10  1  0
 10 11  2  0
 11 12  1  0
 12 13  2  0
 13 14  1  0
 13 15  1  0
 15 16  2  0
 16 17  1  0
 17 18  2  0
  2 19  1  0
 19 20  1  0
 20 21  1  0
 21 22  1  0
 22 23  1  0
 23 24  1  0
 18  8  1  0
 24 19  1  0
 17 11  1  0
  1 25  1  0
  1 26  1  0
  1 27  1  0
  3 28  1  0
  3 29  1  0
  4 30  1  0
  4 31  1  0
  5 32  1  0
  9 33  1  0
 10 34  1  0
 12 35  1  0
 15 36  1  0
 16 37  1  0
 19 38  1  0
 20 39  1  0
 20 40  1  0
 21 41  1  0
 21 42  1  0
 22 43  1  0
 22 44  1  0
 23 45  1  0
 23 46  1  0
 24 47  1  0
 24 48  1  0
M  END
>  <smiles>  (32) 
CN(CCNC(=O)c1ccc2cc(Cl)ccc2n1)C1CCCCC1

>  <score_type>  (32) 
oracle

>  <origin>  (32) 
autodockgpu

>  <m_score__min__energy>  (32) 
-8.2200000000000006

>  <m_primary>  (32) 
energy

>  <rmsd>  (32) 
3.157860810901968

>  <m_score__min__rmsd>  (32) 
3.157860810901968

>  <meeko>  (32) 
{"free_energy": -8.16, "intermolecular_energy": -9.65, "internal_energy": -0.88, "cluster_size": 8, "cluster_id": 1, "rank_in_cluster": 2}

>  <energy>  (32) 
-7.55

>  <cluster_rmsd>  (32) 
1.47

>  <cluster>  (32) 
3

$$$$

     RDKit          3D

 48 50  0  0  0  0  0  0  0  0999 V2000
  138.1080   70.0390  224.1580 C   0  0  0  0  0  0  0  0  0  0  0  0
  139.2170   70.6720  224.7550 N   0  0  0  0  0  0  0  0  0  0  0  0
  140.0870   71.3770  223.9040 C   0  0  0  0  0  0  0  0  0  0  0  0
  139.4950   71.8980  222.6230 C   0  0  0  0  0  0  0  0  0  0  0  0
  139.8140   73.2850  222.3980 N   0  0  0  0  0  0  0  0  0  0  0  0
  140.9090   73.7200  221.5970 C   0  0  0  0  0  0  0  0  0  0  0  0
  141.6820   72.9120  221.0250 O   0  0  0  0  0  0  0  0  0  0  0  0
  141.1450   75.1700  221.4290 C   0  0  0  0  0  0  0  0  0  0  0  0
  141.8960   75.6320  220.3850 C   0  0  0  0  0  0  0  0  0  0  0  0
  142.1010   76.9960  220.2530 C   0  0  0  0  0  0  0  0  0  0  0  0
  141.5610   77.9060  221.1590 C   0  0  0  0  0  0  0  0  0  0  0  0
  141.7620   79.2630  221.0300 C   0  0  0  0  0  0  0  0  0  0  0  0
  141.2160   80.1710  221.9430 C   0  0  0  0  0  0  0  0  0  0  0  0
  141.4800   81.8860  221.7670 Cl  0  0  0  0  0  0  0  0  0  0  0  0
  140.4670   79.6260  222.9740 C   0  0  0  0  0  0  0  0  0  0  0  0
  140.2710   78.2740  223.0950 C   0  0  0  0  0  0  0  0  0  0  0  0
  140.8150   77.3880  222.1890 C   0  0  0  0  0  0  0  0  0  0  0  0
  140.6230   76.0610  222.3060 N   0  0  0  0  0  0  0  0  0  0  0  0
  139.6820   70.1770  225.9930 C   0  0  0  0  0  0  0  0  0  0  0  0
  140.4730   71.3270  226.6430 C   0  0  0  0  0  0  0  0  0  0  0  0
  141.0700   70.8360  227.9370 C   0  0  0  0  0  0  0  0  0  0  0  0
  140.5380   69.4870  228.3370 C   0  0  0  0  0  0  0  0  0  0  0  0
  140.7450   68.4130  227.3130 C   0  0  0  0  0  0  0  0  0  0  0  0
  140.5940   69.0080  225.9330 C   0  0  0  0  0  0  0  0  0  0  0  0
  137.4381   69.6566  224.9422 H   0  0  0  0  0  0  0  0  0  0  0  0
  137.5650   70.7632  223.5330 H   0  0  0  0  0  0  0  0  0  0  0  0
  138.4555   69.2032  223.5330 H   0  0  0  0  0  0  0  0  0  0  0  0
  140.4794   72.2377  224.4655 H   0  0  0  0  0  0  0  0  0  0  0  0
  140.8499   70.6465  223.5968 H   0  0  0  0  0  0  0  0  0  0  0  0
  139.8877   71.3041  221.7845 H   0  0  0  0  0  0  0  0  0  0  0  0
  138.4009   71.8121  222.6983 H   0  0  0  0  0  0  0  0  0  0  0  0
  139.2300   74.0430  222.8340 H   0  0  0  0  0  0  0  0  0  0  0  0
  142.3321   74.9302  219.6588 H   0  0  0  0  0  0  0  0  0  0  0  0
  142.7047   77.3692  219.4126 H   0  0  0  0  0  0  0  0  0  0  0  0
  142.3649   79.6404  220.1909 H   0  0  0  0  0  0  0  0  0  0  0  0
  140.0158   80.2987  223.7183 H   0  0  0  0  0  0  0  0  0  0  0  0
  139.6683   77.8890  223.9308 H   0  0  0  0  0  0  0  0  0  0  0  0
  138.7939   69.8328  226.5432 H   0  0  0  0  0  0  0  0  0  0  0  0
  141.2761   71.6524  225.9654 H   0  0  0  0  0  0  0  0  0  0  0  0
  139.8029   72.1769  226.8396 H   0  0  0  0  0  0  0  0  0  0  0  0
  142.1612   70.7646  227.8182 H   0  0  0  0  0  0  0  0  0  0  0  0
  140.7971   71.5522  228.7260 H   0  0  0  0  0  0  0  0  0  0  0  0
  141.0420   69.1795  229.2651 H   0  0  0  0  0  0  0  0  0  0  0  0
  139.4506   69.6010  228.4579 H   0  0  0  0  0  0  0  0  0  0  0  0
  141.7542   67.9894  227.4228 H   0  0  0  0  0  0  0  0  0  0  0  0
  139.9996   67.6168  227.4561 H   0  0  0  0  0  0  0  0  0  0  0  0
  141.5786   69.3302  225.5633 H   0  0  0  0  0  0  0  0  0  0  0  0
  140.1751   68.2519  225.2526 H   0  0  0  0  0  0  0  0  0  0  0  0
  1  2  1  0
  2  3  1  0
  3  4  1  0
  4  5  1  0
  5  6  1  0
  6  7  2  0
  6  8  1  0
  8  9  2  0
  9 10  1  0
 10 11  2  0
 11 12  1  0
 12 13  2  0
 13 14  1  0
 13 15  1  0
 15 16  2  0
 16 17  1  0
 17 18  2  0
  2 19  1  0
 19 20  1  0
 20 21  1  0
 21 22  1  0
 22 23  1  0
 23 24  1  0
 18  8  1  0
 24 19  1  0
 17 11  1  0
  1 25  1  0
  1 26  1  0
  1 27  1  0
  3 28  1  0
  3 29  1  0
  4 30  1  0
  4 31  1  0
  5 32  1  0
  9 33  1  0
 10 34  1  0
 12 35  1  0
 15 36  1  0
 16 37  1  0
 19 38  1  0
 20 39  1  0
 20 40  1  0
 21 41  1  0
 21 42  1  0
 22 43  1  0
 22 44  1  0
 23 45  1  0
 23 46  1  0
 24 47  1  0
 24 48  1  0
M  END
>  <smiles>  (33) 
CN(CCNC(=O)c1ccc2cc(Cl)ccc2n1)C1CCCCC1

>  <score_type>  (33) 
oracle

>  <origin>  (33) 
autodockgpu

>  <m_score__min__energy>  (33) 
-8.2200000000000006

>  <m_primary>  (33) 
energy

>  <rmsd>  (33) 
8.812286339487216

>  <m_score__min__rmsd>  (33) 
8.812286339487216

>  <meeko>  (33) 
{"free_energy": -8.03, "intermolecular_energy": -9.52, "internal_energy": -0.99, "cluster_size": 22, "cluster_id": 2, "rank_in_cluster": 3}

>  <energy>  (33) 
-7.52

>  <cluster_rmsd>  (33) 
1.3

>  <cluster>  (33) 
3

$$$$

     RDKit          3D

 48 50  0  0  0  0  0  0  0  0999 V2000
  139.1910   68.2830  224.8420 C   0  0  0  0  0  0  0  0  0  0  0  0
  138.8130   69.5690  225.2760 N   0  0  0  0  0  0  0  0  0  0  0  0
  138.0490   70.3470  224.3880 C   0  0  0  0  0  0  0  0  0  0  0  0
  138.6050   70.5210  223.0020 C   0  0  0  0  0  0  0  0  0  0  0  0
  139.0420   71.8720  222.7540 N   0  0  0  0  0  0  0  0  0  0  0  0
  140.1490   72.2010  221.9200 C   0  0  0  0  0  0  0  0  0  0  0  0
  140.8310   71.3220  221.3370 O   0  0  0  0  0  0  0  0  0  0  0  0
  140.5100   73.6230  221.7320 C   0  0  0  0  0  0  0  0  0  0  0  0
  141.6080   73.9660  220.9960 C   0  0  0  0  0  0  0  0  0  0  0  0
  141.9220   75.3050  220.8360 C   0  0  0  0  0  0  0  0  0  0  0  0
  141.1460   76.3100  221.4090 C   0  0  0  0  0  0  0  0  0  0  0  0
  141.4540   77.6440  221.2520 C   0  0  0  0  0  0  0  0  0  0  0  0
  140.6700   78.6470  221.8300 C   0  0  0  0  0  0  0  0  0  0  0  0
  141.0740   80.3310  221.6220 Cl  0  0  0  0  0  0  0  0  0  0  0  0
  139.5730   78.2200  222.5610 C   0  0  0  0  0  0  0  0  0  0  0  0
  139.2720   76.8910  222.7130 C   0  0  0  0  0  0  0  0  0  0  0  0
  140.0530   75.9100  222.1390 C   0  0  0  0  0  0  0  0  0  0  0  0
  139.7580   74.6060  222.2870 N   0  0  0  0  0  0  0  0  0  0  0  0
  139.5940   70.1930  226.2730 C   0  0  0  0  0  0  0  0  0  0  0  0
  140.4750   71.2240  225.5440 C   0  0  0  0  0  0  0  0  0  0  0  0
  141.3970   71.8710  226.5450 C   0  0  0  0  0  0  0  0  0  0  0  0
  141.0390   71.5210  227.9630 C   0  0  0  0  0  0  0  0  0  0  0  0
  141.0260   70.0510  228.2520 C   0  0  0  0  0  0  0  0  0  0  0  0
  140.5100   69.3120  227.0390 C   0  0  0  0  0  0  0  0  0  0  0  0
  139.3795   67.6418  225.7157 H   0  0  0  0  0  0  0  0  0  0  0  0
  138.3826   67.8483  224.2357 H   0  0  0  0  0  0  0  0  0  0  0  0
  140.1060   68.3548  224.2357 H   0  0  0  0  0  0  0  0  0  0  0  0
  137.0602   69.8742  224.2948 H   0  0  0  0  0  0  0  0  0  0  0  0
  138.0325   71.3565  224.8246 H   0  0  0  0  0  0  0  0  0  0  0  0
  139.4623   69.8432  222.8770 H   0  0  0  0  0  0  0  0  0  0  0  0
  137.8027   70.2898  222.2859 H   0  0  0  0  0  0  0  0  0  0  0  0
  138.5400   72.6830  223.1980 H   0  0  0  0  0  0  0  0  0  0  0  0
  142.2352   73.1882  220.5360 H   0  0  0  0  0  0  0  0  0  0  0  0
  142.8055   75.5819  220.2421 H   0  0  0  0  0  0  0  0  0  0  0  0
  142.3363   77.9260  220.6587 H   0  0  0  0  0  0  0  0  0  0  0  0
  138.9232   78.9709  223.0342 H   0  0  0  0  0  0  0  0  0  0  0  0
  138.3906   76.6017  223.3042 H   0  0  0  0  0  0  0  0  0  0  0  0
  138.8866   70.5999  227.0105 H   0  0  0  0  0  0  0  0  0  0  0  0
  141.0685   70.7195  224.7673 H   0  0  0  0  0  0  0  0  0  0  0  0
  139.8412   71.9889  225.0716 H   0  0  0  0  0  0  0  0  0  0  0  0
  142.4255   71.5348  226.3469 H   0  0  0  0  0  0  0  0  0  0  0  0
  141.3012   72.9612  226.4339 H   0  0  0  0  0  0  0  0  0  0  0  0
  141.7725   71.9966  228.6307 H   0  0  0  0  0  0  0  0  0  0  0  0
  140.0132   71.8828  228.1268 H   0  0  0  0  0  0  0  0  0  0  0  0
  142.0467   69.7122  228.4829 H   0  0  0  0  0  0  0  0  0  0  0  0
  140.3731   69.8490  229.1139 H   0  0  0  0  0  0  0  0  0  0  0  0
  141.3567   69.0201  226.4003 H   0  0  0  0  0  0  0  0  0  0  0  0
  139.9663   68.4122  227.3628 H   0  0  0  0  0  0  0  0  0  0  0  0
  1  2  1  0
  2  3  1  0
  3  4  1  0
  4  5  1  0
  5  6  1  0
  6  7  2  0
  6  8  1  0
  8  9  2  0
  9 10  1  0
 10 11  2  0
 11 12  1  0
 12 13  2  0
 13 14  1  0
 13 15  1  0
 15 16  2  0
 16 17  1  0
 17 18  2  0
  2 19  1  0
 19 20  1  0
 20 21  1  0
 21 22  1  0
 22 23  1  0
 23 24  1  0
 18  8  1  0
 24 19  1  0
 17 11  1  0
  1 25  1  0
  1 26  1  0
  1 27  1  0
  3 28  1  0
  3 29  1  0
  4 30  1  0
  4 31  1  0
  5 32  1  0
  9 33  1  0
 10 34  1  0
 12 35  1  0
 15 36  1  0
 16 37  1  0
 19 38  1  0
 20 39  1  0
 20 40  1  0
 21 41  1  0
 21 42  1  0
 22 43  1  0
 22 44  1  0
 23 45  1  0
 23 46  1  0
 24 47  1  0
 24 48  1  0
M  END
>  <smiles>  (34) 
CN(CCNC(=O)c1ccc2cc(Cl)ccc2n1)C1CCCCC1

>  <score_type>  (34) 
oracle

>  <origin>  (34) 
autodockgpu

>  <m_score__min__energy>  (34) 
-8.2200000000000006

>  <m_primary>  (34) 
energy

>  <rmsd>  (34) 
8.505643193005813

>  <m_score__min__rmsd>  (34) 
8.505643193005813

>  <meeko>  (34) 
{"free_energy": -7.75, "intermolecular_energy": -9.24, "internal_energy": -1.3, "cluster_size": 22, "cluster_id": 2, "rank_in_cluster": 14}

>  <energy>  (34) 
-7.49

>  <cluster_rmsd>  (34) 
1.4

>  <cluster>  (34) 
3

$$$$

     RDKit          3D

 48 50  0  0  0  0  0  0  0  0999 V2000
  141.7630   76.5200  220.0880 C   0  0  0  0  0  0  0  0  0  0  0  0
  141.1510   77.0480  221.2420 N   0  0  0  0  0  0  0  0  0  0  0  0
  139.8530   76.5980  221.5430 C   0  0  0  0  0  0  0  0  0  0  0  0
  139.4600   75.2620  220.9750 C   0  0  0  0  0  0  0  0  0  0  0  0
  139.4240   74.2310  221.9810 N   0  0  0  0  0  0  0  0  0  0  0  0
  140.1780   73.0250  221.8990 C   0  0  0  0  0  0  0  0  0  0  0  0
  140.9370   72.7750  220.9300 O   0  0  0  0  0  0  0  0  0  0  0  0
  140.0680   72.0330  222.9900 C   0  0  0  0  0  0  0  0  0  0  0  0
  139.3870   70.8640  222.7970 C   0  0  0  0  0  0  0  0  0  0  0  0
  139.3010   69.9530  223.8360 C   0  0  0  0  0  0  0  0  0  0  0  0
  139.8900   70.2010  225.0740 C   0  0  0  0  0  0  0  0  0  0  0  0
  139.8060   69.2970  226.1110 C   0  0  0  0  0  0  0  0  0  0  0  0
  140.4020   69.5520  227.3510 C   0  0  0  0  0  0  0  0  0  0  0  0
  140.2860   68.3980  228.6530 Cl  0  0  0  0  0  0  0  0  0  0  0  0
  141.0740   70.7580  227.4690 C   0  0  0  0  0  0  0  0  0  0  0  0
  141.1530   71.6520  226.4330 C   0  0  0  0  0  0  0  0  0  0  0  0
  140.5620   71.3900  225.2150 C   0  0  0  0  0  0  0  0  0  0  0  0
  140.6400   72.2670  224.1970 N   0  0  0  0  0  0  0  0  0  0  0  0
  141.5970   78.3000  221.7210 C   0  0  0  0  0  0  0  0  0  0  0  0
  141.4040   78.2660  223.2490 C   0  0  0  0  0  0  0  0  0  0  0  0
  141.7850   79.6090  223.8170 C   0  0  0  0  0  0  0  0  0  0  0  0
  142.4570   80.4910  222.8000 C   0  0  0  0  0  0  0  0  0  0  0  0
  141.6450   80.7410  221.5660 C   0  0  0  0  0  0  0  0  0  0  0  0
  140.8670   79.4920  221.2230 C   0  0  0  0  0  0  0  0  0  0  0  0
  142.5654   75.8277  220.3826 H   0  0  0  0  0  0  0  0  0  0  0  0
  141.0140   75.9800  219.4902 H   0  0  0  0  0  0  0  0  0  0  0  0
  142.1874   77.3401  219.4902 H   0  0  0  0  0  0  0  0  0  0  0  0
  139.7661   76.5349  222.6377 H   0  0  0  0  0  0  0  0  0  0  0  0
  139.1751   77.3260  221.0735 H   0  0  0  0  0  0  0  0  0  0  0  0
  138.4614   75.3497  220.5221 H   0  0  0  0  0  0  0  0  0  0  0  0
  140.2156   74.9778  220.2278 H   0  0  0  0  0  0  0  0  0  0  0  0
  138.8170   74.3400  222.8330 H   0  0  0  0  0  0  0  0  0  0  0  0
  138.9129   70.6494  221.8279 H   0  0  0  0  0  0  0  0  0  0  0  0
  138.7547   69.0110  223.6804 H   0  0  0  0  0  0  0  0  0  0  0  0
  139.2587   68.3548  225.9606 H   0  0  0  0  0  0  0  0  0  0  0  0
  141.5595   71.0058  228.4244 H   0  0  0  0  0  0  0  0  0  0  0  0
  141.6983   72.5966  226.5760 H   0  0  0  0  0  0  0  0  0  0  0  0
  142.6326   78.4165  221.3689 H   0  0  0  0  0  0  0  0  0  0  0  0
  140.3512   78.0505  223.4839 H   0  0  0  0  0  0  0  0  0  0  0  0
  142.0375   77.4813  223.6882 H   0  0  0  0  0  0  0  0  0  0  0  0
  140.8749   80.1124  224.1751 H   0  0  0  0  0  0  0  0  0  0  0  0
  142.4987   79.4370  224.6362 H   0  0  0  0  0  0  0  0  0  0  0  0
  142.6714   81.4606  223.2733 H   0  0  0  0  0  0  0  0  0  0  0  0
  143.3656   79.9620  222.4766 H   0  0  0  0  0  0  0  0  0  0  0  0
  140.9468   81.5716  221.7468 H   0  0  0  0  0  0  0  0  0  0  0  0
  142.3117   81.0026  220.7311 H   0  0  0  0  0  0  0  0  0  0  0  0
  139.8745   79.5374  221.6951 H   0  0  0  0  0  0  0  0  0  0  0  0
  140.7519   79.4209  220.1314 H   0  0  0  0  0  0  0  0  0  0  0  0
  1  2  1  0
  2  3  1  0
  3  4  1  0
  4  5  1  0
  5  6  1  0
  6  7  2  0
  6  8  1  0
  8  9  2  0
  9 10  1  0
 10 11  2  0
 11 12  1  0
 12 13  2  0
 13 14  1  0
 13 15  1  0
 15 16  2  0
 16 17  1  0
 17 18  2  0
  2 19  1  0
 19 20  1  0
 20 21  1  0
 21 22  1  0
 22 23  1  0
 23 24  1  0
 18  8  1  0
 24 19  1  0
 17 11  1  0
  1 25  1  0
  1 26  1  0
  1 27  1  0
  3 28  1  0
  3 29  1  0
  4 30  1  0
  4 31  1  0
  5 32  1  0
  9 33  1  0
 10 34  1  0
 12 35  1  0
 15 36  1  0
 16 37  1  0
 19 38  1  0
 20 39  1  0
 20 40  1  0
 21 41  1  0
 21 42  1  0
 22 43  1  0
 22 44  1  0
 23 45  1  0
 23 46  1  0
 24 47  1  0
 24 48  1  0
M  END
>  <smiles>  (35) 
CN(CCNC(=O)c1ccc2cc(Cl)ccc2n1)C1CCCCC1

>  <score_type>  (35) 
oracle

>  <origin>  (35) 
autodockgpu

>  <m_score__min__energy>  (35) 
-8.2200000000000006

>  <m_primary>  (35) 
energy

>  <rmsd>  (35) 
2.9970720211873063

>  <m_score__min__rmsd>  (35) 
2.9970720211873063

>  <meeko>  (35) 
{"free_energy": -7.98, "intermolecular_energy": -9.48, "internal_energy": -0.81, "cluster_size": 8, "cluster_id": 1, "rank_in_cluster": 5}

>  <energy>  (35) 
-7.48

>  <cluster_rmsd>  (35) 
1.4

>  <cluster>  (35) 
3

$$$$

     RDKit          3D

 48 50  0  0  0  0  0  0  0  0999 V2000
  139.0750   71.2280  223.6690 C   0  0  0  0  0  0  0  0  0  0  0  0
  138.5890   70.0570  224.2840 N   0  0  0  0  0  0  0  0  0  0  0  0
  137.3480   69.5670  223.8400 C   0  0  0  0  0  0  0  0  0  0  0  0
  136.3420   69.2290  224.9060 C   0  0  0  0  0  0  0  0  0  0  0  0
  135.5910   70.3830  225.3340 N   0  0  0  0  0  0  0  0  0  0  0  0
  134.3890   70.3020  226.0930 C   0  0  0  0  0  0  0  0  0  0  0  0
  133.8920   69.2030  226.4450 O   0  0  0  0  0  0  0  0  0  0  0  0
  133.6990   71.5510  226.4820 C   0  0  0  0  0  0  0  0  0  0  0  0
  132.5380   71.5040  227.2010 C   0  0  0  0  0  0  0  0  0  0  0  0
  131.9130   72.6900  227.5520 C   0  0  0  0  0  0  0  0  0  0  0  0
  132.4400   73.9270  227.1890 C   0  0  0  0  0  0  0  0  0  0  0  0
  131.8220   75.1090  227.5360 C   0  0  0  0  0  0  0  0  0  0  0  0
  132.3570   76.3480  227.1690 C   0  0  0  0  0  0  0  0  0  0  0  0
  131.5630   77.8340  227.6160 Cl  0  0  0  0  0  0  0  0  0  0  0  0
  133.5360   76.3120  226.4410 C   0  0  0  0  0  0  0  0  0  0  0  0
  134.1460   75.1320  226.0990 C   0  0  0  0  0  0  0  0  0  0  0  0
  133.6080   73.9170  226.4670 C   0  0  0  0  0  0  0  0  0  0  0  0
  134.2060   72.7580  226.1320 N   0  0  0  0  0  0  0  0  0  0  0  0
  139.0530   69.7420  225.5800 C   0  0  0  0  0  0  0  0  0  0  0  0
  140.0570   70.8480  225.9560 C   0  0  0  0  0  0  0  0  0  0  0  0
  140.6550   70.5250  227.3010 C   0  0  0  0  0  0  0  0  0  0  0  0
  139.9460   69.3880  227.9840 C   0  0  0  0  0  0  0  0  0  0  0  0
  139.9130   68.1170  227.1940 C   0  0  0  0  0  0  0  0  0  0  0  0
  139.7650   68.4480  225.7270 C   0  0  0  0  0  0  0  0  0  0  0  0
  139.3750   71.9507  224.4421 H   0  0  0  0  0  0  0  0  0  0  0  0
  139.9442   70.9794  223.0424 H   0  0  0  0  0  0  0  0  0  0  0  0
  138.2852   71.6680  223.0424 H   0  0  0  0  0  0  0  0  0  0  0  0
  136.9004   70.3314  223.1878 H   0  0  0  0  0  0  0  0  0  0  0  0
  137.5728   68.6144  223.3379 H   0  0  0  0  0  0  0  0  0  0  0  0
  135.6425   68.4793  224.5076 H   0  0  0  0  0  0  0  0  0  0  0  0
  136.8912   68.8423  225.7771 H   0  0  0  0  0  0  0  0  0  0  0  0
  135.9190   71.3520  225.0880 H   0  0  0  0  0  0  0  0  0  0  0  0
  132.1050   70.5372  227.4974 H   0  0  0  0  0  0  0  0  0  0  0  0
  130.9785   72.6535  228.1311 H   0  0  0  0  0  0  0  0  0  0  0  0
  130.8870   75.0772  228.1146 H   0  0  0  0  0  0  0  0  0  0  0  0
  133.9972   77.2601  226.1275 H   0  0  0  0  0  0  0  0  0  0  0  0
  135.0814   75.1555  225.5206 H   0  0  0  0  0  0  0  0  0  0  0  0
  138.1607   69.6650  226.2186 H   0  0  0  0  0  0  0  0  0  0  0  0
  140.8539   70.8966  225.1993 H   0  0  0  0  0  0  0  0  0  0  0  0
  139.5434   71.8198  225.9992 H   0  0  0  0  0  0  0  0  0  0  0  0
  141.7110   70.2504  227.1616 H   0  0  0  0  0  0  0  0  0  0  0  0
  140.5516   71.4162  227.9374 H   0  0  0  0  0  0  0  0  0  0  0  0
  140.4563   69.1874  228.9376 H   0  0  0  0  0  0  0  0  0  0  0  0
  138.9004   69.7034  228.1156 H   0  0  0  0  0  0  0  0  0  0  0  0
  140.8484   67.5604  227.3531 H   0  0  0  0  0  0  0  0  0  0  0  0
  139.0632   67.5001  227.5214 H   0  0  0  0  0  0  0  0  0  0  0  0
  140.7609   68.5233  225.2660 H   0  0  0  0  0  0  0  0  0  0  0  0
  139.1888   67.6544  225.2289 H   0  0  0  0  0  0  0  0  0  0  0  0
  1  2  1  0
  2  3  1  0
  3  4  1  0
  4  5  1  0
  5  6  1  0
  6  7  2  0
  6  8  1  0
  8  9  2  0
  9 10  1  0
 10 11  2  0
 11 12  1  0
 12 13  2  0
 13 14  1  0
 13 15  1  0
 15 16  2  0
 16 17  1  0
 17 18  2  0
  2 19  1  0
 19 20  1  0
 20 21  1  0
 21 22  1  0
 22 23  1  0
 23 24  1  0
 18  8  1  0
 24 19  1  0
 17 11  1  0
  1 25  1  0
  1 26  1  0
  1 27  1  0
  3 28  1  0
  3 29  1  0
  4 30  1  0
  4 31  1  0
  5 32  1  0
  9 33  1  0
 10 34  1  0
 12 35  1  0
 15 36  1  0
 16 37  1  0
 19 38  1  0
 20 39  1  0
 20 40  1  0
 21 41  1  0
 21 42  1  0
 22 43  1  0
 22 44  1  0
 23 45  1  0
 23 46  1  0
 24 47  1  0
 24 48  1  0
M  END
>  <smiles>  (36) 
CN(CCNC(=O)c1ccc2cc(Cl)ccc2n1)C1CCCCC1

>  <score_type>  (36) 
oracle

>  <origin>  (36) 
autodockgpu

>  <m_score__min__energy>  (36) 
-8.2200000000000006

>  <m_primary>  (36) 
energy

>  <rmsd>  (36) 
8.860726949901759

>  <m_score__min__rmsd>  (36) 
8.860726949901759

>  <meeko>  (36) 
{"free_energy": -7.44, "intermolecular_energy": -8.93, "internal_energy": -1.26, "cluster_size": 17, "cluster_id": 3, "rank_in_cluster": 7}

>  <energy>  (36) 
-7.45

>  <cluster_rmsd>  (36) 
1.49

>  <cluster>  (36) 
3

$$$$

     RDKit          3D

 48 50  0  0  0  0  0  0  0  0999 V2000
  141.0660   76.2140  221.9250 C   0  0  0  0  0  0  0  0  0  0  0  0
  141.1820   75.2920  220.8660 N   0  0  0  0  0  0  0  0  0  0  0  0
  140.0020   74.9480  220.1830 C   0  0  0  0  0  0  0  0  0  0  0  0
  138.7860   74.6960  221.0320 C   0  0  0  0  0  0  0  0  0  0  0  0
  139.0350   73.7240  222.0670 N   0  0  0  0  0  0  0  0  0  0  0  0
  139.1380   72.3240  221.8240 C   0  0  0  0  0  0  0  0  0  0  0  0
  139.0150   71.8340  220.6740 O   0  0  0  0  0  0  0  0  0  0  0  0
  139.3990   71.4140  222.9610 C   0  0  0  0  0  0  0  0  0  0  0  0
  139.0580   70.0940  222.8820 C   0  0  0  0  0  0  0  0  0  0  0  0
  139.3150   69.2650  223.9610 C   0  0  0  0  0  0  0  0  0  0  0  0
  139.9110   69.7460  225.1250 C   0  0  0  0  0  0  0  0  0  0  0  0
  140.1680   68.9240  226.2010 C   0  0  0  0  0  0  0  0  0  0  0  0
  140.7680   69.4140  227.3660 C   0  0  0  0  0  0  0  0  0  0  0  0
  141.0860   68.3620  228.7190 Cl  0  0  0  0  0  0  0  0  0  0  0  0
  141.0840   70.7640  227.3700 C   0  0  0  0  0  0  0  0  0  0  0  0
  140.8250   71.5750  226.2950 C   0  0  0  0  0  0  0  0  0  0  0  0
  140.2330   71.0810  225.1510 C   0  0  0  0  0  0  0  0  0  0  0  0
  139.9790   71.8760  224.0960 N   0  0  0  0  0  0  0  0  0  0  0  0
  142.2830   74.4070  220.8680 C   0  0  0  0  0  0  0  0  0  0  0  0
  143.3660   75.0700  219.9970 C   0  0  0  0  0  0  0  0  0  0  0  0
  144.5430   74.1360  219.8880 C   0  0  0  0  0  0  0  0  0  0  0  0
  144.4350   72.9690  220.8310 C   0  0  0  0  0  0  0  0  0  0  0  0
  143.1950   72.1470  220.6570 C   0  0  0  0  0  0  0  0  0  0  0  0
  142.0430   73.0570  220.3010 C   0  0  0  0  0  0  0  0  0  0  0  0
  141.1331   75.6805  222.8846 H   0  0  0  0  0  0  0  0  0  0  0  0
  141.8783   76.9528  221.8586 H   0  0  0  0  0  0  0  0  0  0  0  0
  140.0960   76.7285  221.8586 H   0  0  0  0  0  0  0  0  0  0  0  0
  139.7633   75.7704  219.4925 H   0  0  0  0  0  0  0  0  0  0  0  0
  140.2187   73.9881  219.6914 H   0  0  0  0  0  0  0  0  0  0  0  0
  138.4797   75.6425  221.5015 H   0  0  0  0  0  0  0  0  0  0  0  0
  137.9954   74.2981  220.3789 H   0  0  0  0  0  0  0  0  0  0  0  0
  139.1520   74.0300  223.0680 H   0  0  0  0  0  0  0  0  0  0  0  0
  138.5852   69.6943  221.9728 H   0  0  0  0  0  0  0  0  0  0  0  0
  139.0421   68.2013  223.8977 H   0  0  0  0  0  0  0  0  0  0  0  0
  139.8955   67.8599  226.1426 H   0  0  0  0  0  0  0  0  0  0  0  0
  141.5571   71.1980  228.2632 H   0  0  0  0  0  0  0  0  0  0  0  0
  141.0945   72.6403  226.3458 H   0  0  0  0  0  0  0  0  0  0  0  0
  142.5474   74.2433  221.9231 H   0  0  0  0  0  0  0  0  0  0  0  0
  142.9610   75.2724  218.9945 H   0  0  0  0  0  0  0  0  0  0  0  0
  143.6837   76.0185  220.4546 H   0  0  0  0  0  0  0  0  0  0  0  0
  144.5976   73.7544  218.8577 H   0  0  0  0  0  0  0  0  0  0  0  0
  145.4476   74.7020  220.1552 H   0  0  0  0  0  0  0  0  0  0  0  0
  145.3059   72.3162  220.6720 H   0  0  0  0  0  0  0  0  0  0  0  0
  144.3941   73.3885  221.8470 H   0  0  0  0  0  0  0  0  0  0  0  0
  143.3488   71.4150  219.8504 H   0  0  0  0  0  0  0  0  0  0  0  0
  142.9701   71.6140  221.5926 H   0  0  0  0  0  0  0  0  0  0  0  0
  141.9579   73.1292  219.2067 H   0  0  0  0  0  0  0  0  0  0  0  0
  141.1107   72.6464  220.7160 H   0  0  0  0  0  0  0  0  0  0  0  0
  1  2  1  0
  2  3  1  0
  3  4  1  0
  4  5  1  0
  5  6  1  0
  6  7  2  0
  6  8  1  0
  8  9  2  0
  9 10  1  0
 10 11  2  0
 11 12  1  0
 12 13  2  0
 13 14  1  0
 13 15  1  0
 15 16  2  0
 16 17  1  0
 17 18  2  0
  2 19  1  0
 19 20  1  0
 20 21  1  0
 21 22  1  0
 22 23  1  0
 23 24  1  0
 18  8  1  0
 24 19  1  0
 17 11  1  0
  1 25  1  0
  1 26  1  0
  1 27  1  0
  3 28  1  0
  3 29  1  0
  4 30  1  0
  4 31  1  0
  5 32  1  0
  9 33  1  0
 10 34  1  0
 12 35  1  0
 15 36  1  0
 16 37  1  0
 19 38  1  0
 20 39  1  0
 20 40  1  0
 21 41  1  0
 21 42  1  0
 22 43  1  0
 22 44  1  0
 23 45  1  0
 23 46  1  0
 24 47  1  0
 24 48  1  0
M  END
>  <smiles>  (37) 
CN(CCNC(=O)c1ccc2cc(Cl)ccc2n1)C1CCCCC1

>  <score_type>  (37) 
oracle

>  <origin>  (37) 
autodockgpu

>  <m_score__min__energy>  (37) 
-8.2200000000000006

>  <m_primary>  (37) 
energy

>  <rmsd>  (37) 
2.919073250330629

>  <m_score__min__rmsd>  (37) 
2.919073250330629

>  <meeko>  (37) 
{"free_energy": -6.94, "intermolecular_energy": -8.43, "internal_energy": -1.6, "cluster_size": 2, "cluster_id": 4, "rank_in_cluster": 2}

>  <energy>  (37) 
-7.44

>  <cluster_rmsd>  (37) 
0.73

>  <cluster>  (37) 
3

$$$$

     RDKit          3D

 48 50  0  0  0  0  0  0  0  0999 V2000
  139.1900   68.5150  224.5560 C   0  0  0  0  0  0  0  0  0  0  0  0
  138.8980   69.7920  225.0760 N   0  0  0  0  0  0  0  0  0  0  0  0
  138.2800   70.7110  224.2100 C   0  0  0  0  0  0  0  0  0  0  0  0
  138.8750   70.8380  222.8340 C   0  0  0  0  0  0  0  0  0  0  0  0
  139.3030   72.1830  222.5460 N   0  0  0  0  0  0  0  0  0  0  0  0
  140.4790   72.4920  221.8040 C   0  0  0  0  0  0  0  0  0  0  0  0
  141.2350   71.6000  221.3440 O   0  0  0  0  0  0  0  0  0  0  0  0
  140.8260   73.9100  221.5620 C   0  0  0  0  0  0  0  0  0  0  0  0
  141.8040   74.2400  220.6680 C   0  0  0  0  0  0  0  0  0  0  0  0
  142.1070   75.5760  220.4620 C   0  0  0  0  0  0  0  0  0  0  0  0
  141.4390   76.5890  221.1460 C   0  0  0  0  0  0  0  0  0  0  0  0
  141.7370   77.9200  220.9440 C   0  0  0  0  0  0  0  0  0  0  0  0
  141.0620   78.9320  221.6330 C   0  0  0  0  0  0  0  0  0  0  0  0
  141.4510   80.6100  221.3670 Cl  0  0  0  0  0  0  0  0  0  0  0  0
  140.0840   78.5170  222.5230 C   0  0  0  0  0  0  0  0  0  0  0  0
  139.7920   77.1910  222.7190 C   0  0  0  0  0  0  0  0  0  0  0  0
  140.4650   76.2020  222.0330 C   0  0  0  0  0  0  0  0  0  0  0  0
  140.1800   74.9010  222.2240 N   0  0  0  0  0  0  0  0  0  0  0  0
  139.6510   70.2520  226.1790 C   0  0  0  0  0  0  0  0  0  0  0  0
  140.5340   71.3960  225.6460 C   0  0  0  0  0  0  0  0  0  0  0  0
  141.4280   71.8790  226.7590 C   0  0  0  0  0  0  0  0  0  0  0  0
  141.0460   71.2990  228.0930 C   0  0  0  0  0  0  0  0  0  0  0  0
  141.0450   69.8020  228.1380 C   0  0  0  0  0  0  0  0  0  0  0  0
  140.5620   69.2660  226.8110 C   0  0  0  0  0  0  0  0  0  0  0  0
  139.3513   67.8098  225.3846 H   0  0  0  0  0  0  0  0  0  0  0  0
  138.3478   68.1691  223.9388 H   0  0  0  0  0  0  0  0  0  0  0  0
  140.0989   68.5695  223.9388 H   0  0  0  0  0  0  0  0  0  0  0  0
  137.2294   70.4066  224.0935 H   0  0  0  0  0  0  0  0  0  0  0  0
  138.4197   71.6954  224.6807 H   0  0  0  0  0  0  0  0  0  0  0  0
  139.7435   70.1670  222.7607 H   0  0  0  0  0  0  0  0  0  0  0  0
  138.0970   70.5687  222.1045 H   0  0  0  0  0  0  0  0  0  0  0  0
  138.7430   73.0050  222.8880 H   0  0  0  0  0  0  0  0  0  0  0  0
  142.3443   73.4551  220.1185 H   0  0  0  0  0  0  0  0  0  0  0  0
  142.8938   75.8432  219.7412 H   0  0  0  0  0  0  0  0  0  0  0  0
  142.5235   78.1917  220.2246 H   0  0  0  0  0  0  0  0  0  0  0  0
  139.5240   79.2750  223.0903 H   0  0  0  0  0  0  0  0  0  0  0  0
  139.0066   76.9115  223.4366 H   0  0  0  0  0  0  0  0  0  0  0  0
  138.9243   70.5269  226.9577 H   0  0  0  0  0  0  0  0  0  0  0  0
  141.1488   71.0299  224.8105 H   0  0  0  0  0  0  0  0  0  0  0  0
  139.9007   72.2221  225.2904 H   0  0  0  0  0  0  0  0  0  0  0  0
  142.4642   71.5887  226.5311 H   0  0  0  0  0  0  0  0  0  0  0  0
  141.3211   72.9718  226.8251 H   0  0  0  0  0  0  0  0  0  0  0  0
  141.7602   71.6656  228.8450 H   0  0  0  0  0  0  0  0  0  0  0  0
  140.0128   71.6203  228.2914 H   0  0  0  0  0  0  0  0  0  0  0  0
  142.0651   69.4390  228.3322 H   0  0  0  0  0  0  0  0  0  0  0  0
  140.3776   69.4567  228.9413 H   0  0  0  0  0  0  0  0  0  0  0  0
  141.4245   69.0890  226.1516 H   0  0  0  0  0  0  0  0  0  0  0  0
  140.0228   68.3210  226.9727 H   0  0  0  0  0  0  0  0  0  0  0  0
  1  2  1  0
  2  3  1  0
  3  4  1  0
  4  5  1  0
  5  6  1  0
  6  7  2  0
  6  8  1  0
  8  9  2  0
  9 10  1  0
 10 11  2  0
 11 12  1  0
 12 13  2  0
 13 14  1  0
 13 15  1  0
 15 16  2  0
 16 17  1  0
 17 18  2  0
  2 19  1  0
 19 20  1  0
 20 21  1  0
 21 22  1  0
 22 23  1  0
 23 24  1  0
 18  8  1  0
 24 19  1  0
 17 11  1  0
  1 25  1  0
  1 26  1  0
  1 27  1  0
  3 28  1  0
  3 29  1  0
  4 30  1  0
  4 31  1  0
  5 32  1  0
  9 33  1  0
 10 34  1  0
 12 35  1  0
 15 36  1  0
 16 37  1  0
 19 38  1  0
 20 39  1  0
 20 40  1  0
 21 41  1  0
 21 42  1  0
 22 43  1  0
 22 44  1  0
 23 45  1  0
 23 46  1  0
 24 47  1  0
 24 48  1  0
M  END
>  <smiles>  (38) 
CN(CCNC(=O)c1ccc2cc(Cl)ccc2n1)C1CCCCC1

>  <score_type>  (38) 
oracle

>  <origin>  (38) 
autodockgpu

>  <m_score__min__energy>  (38) 
-8.2200000000000006

>  <m_primary>  (38) 
energy

>  <rmsd>  (38) 
8.562713932901604

>  <m_score__min__rmsd>  (38) 
8.562713932901604

>  <meeko>  (38) 
{"free_energy": -7.78, "intermolecular_energy": -9.28, "internal_energy": -1.22, "cluster_size": 22, "cluster_id": 2, "rank_in_cluster": 12}

>  <energy>  (38) 
-7.43

>  <cluster_rmsd>  (38) 
0.73

>  <cluster>  (38) 
3

$$$$

     RDKit          3D

 48 50  0  0  0  0  0  0  0  0999 V2000
  138.8320   68.0690  223.8160 C   0  0  0  0  0  0  0  0  0  0  0  0
  138.3580   69.0080  224.7540 N   0  0  0  0  0  0  0  0  0  0  0  0
  137.4600   69.9840  224.2860 C   0  0  0  0  0  0  0  0  0  0  0  0
  135.9960   69.6900  224.4740 C   0  0  0  0  0  0  0  0  0  0  0  0
  135.2700   70.8290  224.9750 N   0  0  0  0  0  0  0  0  0  0  0  0
  134.2510   70.7390  225.9660 C   0  0  0  0  0  0  0  0  0  0  0  0
  133.9110   69.6440  226.4780 O   0  0  0  0  0  0  0  0  0  0  0  0
  133.5700   71.9740  226.4120 C   0  0  0  0  0  0  0  0  0  0  0  0
  132.4060   71.9030  227.1240 C   0  0  0  0  0  0  0  0  0  0  0  0
  131.7900   73.0760  227.5280 C   0  0  0  0  0  0  0  0  0  0  0  0
  132.3290   74.3250  227.2250 C   0  0  0  0  0  0  0  0  0  0  0  0
  131.7190   75.4950  227.6250 C   0  0  0  0  0  0  0  0  0  0  0  0
  132.2660   76.7440  227.3180 C   0  0  0  0  0  0  0  0  0  0  0  0
  131.4820   78.2150  227.8310 Cl  0  0  0  0  0  0  0  0  0  0  0  0
  133.4470   76.7340  226.5930 C   0  0  0  0  0  0  0  0  0  0  0  0
  134.0480   75.5660  226.1980 C   0  0  0  0  0  0  0  0  0  0  0  0
  133.4990   74.3390  226.5070 C   0  0  0  0  0  0  0  0  0  0  0  0
  134.0880   73.1920  226.1200 N   0  0  0  0  0  0  0  0  0  0  0  0
  139.1400   69.2570  225.9030 C   0  0  0  0  0  0  0  0  0  0  0  0
  139.9640   70.5210  225.5950 C   0  0  0  0  0  0  0  0  0  0  0  0
  140.8860   70.7960  226.7550 C   0  0  0  0  0  0  0  0  0  0  0  0
  140.5760   69.9350  227.9490 C   0  0  0  0  0  0  0  0  0  0  0  0
  140.6250   68.4630  227.6780 C   0  0  0  0  0  0  0  0  0  0  0  0
  140.1060   68.1970  226.2840 C   0  0  0  0  0  0  0  0  0  0  0  0
  139.2664   67.2085  224.3460 H   0  0  0  0  0  0  0  0  0  0  0  0
  137.9980   67.7281  223.1849 H   0  0  0  0  0  0  0  0  0  0  0  0
  139.6016   68.5375  223.1849 H   0  0  0  0  0  0  0  0  0  0  0  0
  137.6830   70.9240  224.8120 H   0  0  0  0  0  0  0  0  0  0  0  0
  137.6129   70.0245  223.1974 H   0  0  0  0  0  0  0  0  0  0  0  0
  135.5670   69.3953  223.5049 H   0  0  0  0  0  0  0  0  0  0  0  0
  135.9073   68.8817  225.2148 H   0  0  0  0  0  0  0  0  0  0  0  0
  135.4760   71.7940  224.6090 H   0  0  0  0  0  0  0  0  0  0  0  0
  131.9639   70.9271  227.3731 H   0  0  0  0  0  0  0  0  0  0  0  0
  130.8531   73.0204  228.1016 H   0  0  0  0  0  0  0  0  0  0  0  0
  130.7815   75.4444  228.1982 H   0  0  0  0  0  0  0  0  0  0  0  0
  133.9169   77.6921  226.3261 H   0  0  0  0  0  0  0  0  0  0  0  0
  134.9854   75.6087  225.6240 H   0  0  0  0  0  0  0  0  0  0  0  0
  138.4366   69.3348  226.7452 H   0  0  0  0  0  0  0  0  0  0  0  0
  140.5564   70.3624  224.6818 H   0  0  0  0  0  0  0  0  0  0  0  0
  139.2907   71.3774  225.4423 H   0  0  0  0  0  0  0  0  0  0  0  0
  141.9211   70.6010  226.4378 H   0  0  0  0  0  0  0  0  0  0  0  0
  140.7473   71.8458  227.0528 H   0  0  0  0  0  0  0  0  0  0  0  0
  141.3073   70.1643  228.7380 H   0  0  0  0  0  0  0  0  0  0  0  0
  139.5417   70.1663  228.2436 H   0  0  0  0  0  0  0  0  0  0  0  0
  141.6633   68.1085  227.7579 H   0  0  0  0  0  0  0  0  0  0  0  0
  140.0020   67.9311  228.4121 H   0  0  0  0  0  0  0  0  0  0  0  0
  140.9465   68.1951  225.5744 H   0  0  0  0  0  0  0  0  0  0  0  0
  139.6034   67.2188  226.2613 H   0  0  0  0  0  0  0  0  0  0  0  0
  1  2  1  0
  2  3  1  0
  3  4  1  0
  4  5  1  0
  5  6  1  0
  6  7  2  0
  6  8  1  0
  8  9  2  0
  9 10  1  0
 10 11  2  0
 11 12  1  0
 12 13  2  0
 13 14  1  0
 13 15  1  0
 15 16  2  0
 16 17  1  0
 17 18  2  0
  2 19  1  0
 19 20  1  0
 20 21  1  0
 21 22  1  0
 22 23  1  0
 23 24  1  0
 18  8  1  0
 24 19  1  0
 17 11  1  0
  1 25  1  0
  1 26  1  0
  1 27  1  0
  3 28  1  0
  3 29  1  0
  4 30  1  0
  4 31  1  0
  5 32  1  0
  9 33  1  0
 10 34  1  0
 12 35  1  0
 15 36  1  0
 16 37  1  0
 19 38  1  0
 20 39  1  0
 20 40  1  0
 21 41  1  0
 21 42  1  0
 22 43  1  0
 22 44  1  0
 23 45  1  0
 23 46  1  0
 24 47  1  0
 24 48  1  0
M  END
>  <smiles>  (39) 
CN(CCNC(=O)c1ccc2cc(Cl)ccc2n1)C1CCCCC1

>  <score_type>  (39) 
oracle

>  <origin>  (39) 
autodockgpu

>  <m_score__min__energy>  (39) 
-8.2200000000000006

>  <m_primary>  (39) 
energy

>  <rmsd>  (39) 
9.226502681978785

>  <m_score__min__rmsd>  (39) 
9.226502681978785

>  <meeko>  (39) 
{"free_energy": -7.84, "intermolecular_energy": -9.33, "internal_energy": -1.02, "cluster_size": 17, "cluster_id": 3, "rank_in_cluster": 1}

>  <energy>  (39) 
-7.41

>  <cluster_rmsd>  (39) 
1.48

>  <cluster>  (39) 
3

$$$$

     RDKit          3D

 48 50  0  0  0  0  0  0  0  0999 V2000
  138.9030   69.2880  224.2270 C   0  0  0  0  0  0  0  0  0  0  0  0
  139.5460   70.4960  224.5640 N   0  0  0  0  0  0  0  0  0  0  0  0
  140.2070   71.1820  223.5300 C   0  0  0  0  0  0  0  0  0  0  0  0
  139.3330   71.9000  222.5390 C   0  0  0  0  0  0  0  0  0  0  0  0
  139.6980   73.2870  222.3920 N   0  0  0  0  0  0  0  0  0  0  0  0
  140.6870   73.7470  221.4760 C   0  0  0  0  0  0  0  0  0  0  0  0
  141.3180   72.9640  220.7230 O   0  0  0  0  0  0  0  0  0  0  0  0
  140.9830   75.1950  221.4040 C   0  0  0  0  0  0  0  0  0  0  0  0
  141.8730   75.6740  220.4850 C   0  0  0  0  0  0  0  0  0  0  0  0
  142.1310   77.0340  220.4410 C   0  0  0  0  0  0  0  0  0  0  0  0
  141.5050   77.9230  221.3110 C   0  0  0  0  0  0  0  0  0  0  0  0
  141.7580   79.2780  221.2710 C   0  0  0  0  0  0  0  0  0  0  0  0
  141.1250   80.1650  222.1470 C   0  0  0  0  0  0  0  0  0  0  0  0
  141.4570   81.8760  222.0820 Cl  0  0  0  0  0  0  0  0  0  0  0  0
  140.2360   79.6030  223.0490 C   0  0  0  0  0  0  0  0  0  0  0  0
  139.9890   78.2550  223.0840 C   0  0  0  0  0  0  0  0  0  0  0  0
  140.6190   77.3890  222.2150 C   0  0  0  0  0  0  0  0  0  0  0  0
  140.3770   76.0660  222.2480 N   0  0  0  0  0  0  0  0  0  0  0  0
  139.9370   70.6910  225.9070 C   0  0  0  0  0  0  0  0  0  0  0  0
  140.8920   71.9000  225.9040 C   0  0  0  0  0  0  0  0  0  0  0  0
  141.4130   72.1120  227.3020 C   0  0  0  0  0  0  0  0  0  0  0  0
  140.6890   71.2710  228.3170 C   0  0  0  0  0  0  0  0  0  0  0  0
  140.7320   69.7990  228.0420 C   0  0  0  0  0  0  0  0  0  0  0  0
  140.6670   69.5700  226.5500 C   0  0  0  0  0  0  0  0  0  0  0  0
  138.6192   68.7548  225.1463 H   0  0  0  0  0  0  0  0  0  0  0  0
  138.0011   69.5052  223.6358 H   0  0  0  0  0  0  0  0  0  0  0  0
  139.5868   68.6612  223.6358 H   0  0  0  0  0  0  0  0  0  0  0  0
  140.8701   71.9275  223.9933 H   0  0  0  0  0  0  0  0  0  0  0  0
  140.7288   70.4058  222.9511 H   0  0  0  0  0  0  0  0  0  0  0  0
  139.4255   71.4043  221.5614 H   0  0  0  0  0  0  0  0  0  0  0  0
  138.2990   71.8618  222.9124 H   0  0  0  0  0  0  0  0  0  0  0  0
  139.2310   74.0250  222.9790 H   0  0  0  0  0  0  0  0  0  0  0  0
  142.3783   74.9883  219.7889 H   0  0  0  0  0  0  0  0  0  0  0  0
  142.8473   77.4211  219.7013 H   0  0  0  0  0  0  0  0  0  0  0  0
  142.4738   79.6698  220.5334 H   0  0  0  0  0  0  0  0  0  0  0  0
  139.7118   80.2592  223.7594 H   0  0  0  0  0  0  0  0  0  0  0  0
  139.2746   77.8564  223.8193 H   0  0  0  0  0  0  0  0  0  0  0  0
  139.0088   70.8118  226.4848 H   0  0  0  0  0  0  0  0  0  0  0  0
  141.7327   71.7051  225.2219 H   0  0  0  0  0  0  0  0  0  0  0  0
  140.3556   72.7986  225.5652 H   0  0  0  0  0  0  0  0  0  0  0  0
  142.4813   71.8510  227.3243 H   0  0  0  0  0  0  0  0  0  0  0  0
  141.2507   73.1679  227.5640 H   0  0  0  0  0  0  0  0  0  0  0  0
  141.1451   71.4509  229.3017 H   0  0  0  0  0  0  0  0  0  0  0  0
  139.6308   71.5683  228.2750 H   0  0  0  0  0  0  0  0  0  0  0  0
  141.6677   69.3779  228.4384 H   0  0  0  0  0  0  0  0  0  0  0  0
  139.8770   69.3071  228.5289 H   0  0  0  0  0  0  0  0  0  0  0  0
  141.6875   69.5159  226.1429 H   0  0  0  0  0  0  0  0  0  0  0  0
  140.1400   68.6260  226.3473 H   0  0  0  0  0  0  0  0  0  0  0  0
  1  2  1  0
  2  3  1  0
  3  4  1  0
  4  5  1  0
  5  6  1  0
  6  7  2  0
  6  8  1  0
  8  9  2  0
  9 10  1  0
 10 11  2  0
 11 12  1  0
 12 13  2  0
 13 14  1  0
 13 15  1  0
 15 16  2  0
 16 17  1  0
 17 18  2  0
  2 19  1  0
 19 20  1  0
 20 21  1  0
 21 22  1  0
 22 23  1  0
 23 24  1  0
 18  8  1  0
 24 19  1  0
 17 11  1  0
  1 25  1  0
  1 26  1  0
  1 27  1  0
  3 28  1  0
  3 29  1  0
  4 30  1  0
  4 31  1  0
  5 32  1  0
  9 33  1  0
 10 34  1  0
 12 35  1  0
 15 36  1  0
 16 37  1  0
 19 38  1  0
 20 39  1  0
 20 40  1  0
 21 41  1  0
 21 42  1  0
 22 43  1  0
 22 44  1  0
 23 45  1  0
 23 46  1  0
 24 47  1  0
 24 48  1  0
M  END
>  <smiles>  (40) 
CN(CCNC(=O)c1ccc2cc(Cl)ccc2n1)C1CCCCC1

>  <score_type>  (40) 
oracle

>  <origin>  (40) 
autodockgpu

>  <m_score__min__energy>  (40) 
-8.2200000000000006

>  <m_primary>  (40) 
energy

>  <rmsd>  (40) 
8.76895385150156

>  <m_score__min__rmsd>  (40) 
8.76895385150156

>  <meeko>  (40) 
{"free_energy": -7.99, "intermolecular_energy": -9.48, "internal_energy": -1.12, "cluster_size": 22, "cluster_id": 2, "rank_in_cluster": 5}

>  <energy>  (40) 
-7.39

>  <cluster_rmsd>  (40) 
1.31

>  <cluster>  (40) 
3

$$$$

     RDKit          3D

 48 50  0  0  0  0  0  0  0  0999 V2000
  139.3230   71.3860  223.6060 C   0  0  0  0  0  0  0  0  0  0  0  0
  139.6700   70.3620  224.5090 N   0  0  0  0  0  0  0  0  0  0  0  0
  139.3340   69.0450  224.1460 C   0  0  0  0  0  0  0  0  0  0  0  0
  137.8740   68.7680  223.9100 C   0  0  0  0  0  0  0  0  0  0  0  0
  137.0240   69.7470  224.5400 N   0  0  0  0  0  0  0  0  0  0  0  0
  135.6300   69.5530  224.7580 C   0  0  0  0  0  0  0  0  0  0  0  0
  135.0380   68.5020  224.4100 O   0  0  0  0  0  0  0  0  0  0  0  0
  134.8500   70.6240  225.4170 C   0  0  0  0  0  0  0  0  0  0  0  0
  133.9500   70.3190  226.3990 C   0  0  0  0  0  0  0  0  0  0  0  0
  133.2340   71.3410  226.9990 C   0  0  0  0  0  0  0  0  0  0  0  0
  133.4090   72.6720  226.6240 C   0  0  0  0  0  0  0  0  0  0  0  0
  132.6980   73.6920  227.2190 C   0  0  0  0  0  0  0  0  0  0  0  0
  132.8800   75.0250  226.8380 C   0  0  0  0  0  0  0  0  0  0  0  0
  131.9730   76.3050  227.6000 Cl  0  0  0  0  0  0  0  0  0  0  0  0
  133.8100   75.2540  225.8360 C   0  0  0  0  0  0  0  0  0  0  0  0
  134.5130   74.2330  225.2490 C   0  0  0  0  0  0  0  0  0  0  0  0
  134.3250   72.9220  225.6330 C   0  0  0  0  0  0  0  0  0  0  0  0
  135.0150   71.9200  225.0580 N   0  0  0  0  0  0  0  0  0  0  0  0
  139.8400   70.7000  225.8690 C   0  0  0  0  0  0  0  0  0  0  0  0
  141.0920   71.5940  225.9350 C   0  0  0  0  0  0  0  0  0  0  0  0
  141.3800   71.9240  227.3760 C   0  0  0  0  0  0  0  0  0  0  0  0
  140.2610   71.5100  228.2920 C   0  0  0  0  0  0  0  0  0  0  0  0
  139.9170   70.0540  228.2280 C   0  0  0  0  0  0  0  0  0  0  0  0
  140.0700   69.5710  226.8040 C   0  0  0  0  0  0  0  0  0  0  0  0
  139.0193   72.2822  224.1670 H   0  0  0  0  0  0  0  0  0  0  0  0
  140.1900   71.6260  222.9730 H   0  0  0  0  0  0  0  0  0  0  0  0
  138.4887   71.0495  222.9730 H   0  0  0  0  0  0  0  0  0  0  0  0
  139.8743   68.8053  223.2183 H   0  0  0  0  0  0  0  0  0  0  0  0
  139.6135   68.4235  225.0095 H   0  0  0  0  0  0  0  0  0  0  0  0
  137.6824   68.7775  222.8269 H   0  0  0  0  0  0  0  0  0  0  0  0
  137.6416   67.7869  224.3498 H   0  0  0  0  0  0  0  0  0  0  0  0
  137.4210   70.6650  224.8670 H   0  0  0  0  0  0  0  0  0  0  0  0
  133.7963   69.2748  226.7089 H   0  0  0  0  0  0  0  0  0  0  0  0
  132.5100   71.0968  227.7903 H   0  0  0  0  0  0  0  0  0  0  0  0
  131.9722   73.4523  228.0101 H   0  0  0  0  0  0  0  0  0  0  0  0
  133.9897   76.2863  225.5013 H   0  0  0  0  0  0  0  0  0  0  0  0
  135.2405   74.4643  224.4570 H   0  0  0  0  0  0  0  0  0  0  0  0
  138.8976   71.1666  226.1919 H   0  0  0  0  0  0  0  0  0  0  0  0
  141.9500   71.0607  225.4997 H   0  0  0  0  0  0  0  0  0  0  0  0
  140.9189   72.5204  225.3678 H   0  0  0  0  0  0  0  0  0  0  0  0
  142.2986   71.4017  227.6816 H   0  0  0  0  0  0  0  0  0  0  0  0
  141.4926   73.0154  227.4549 H   0  0  0  0  0  0  0  0  0  0  0  0
  140.5551   71.7491  229.3246 H   0  0  0  0  0  0  0  0  0  0  0  0
  139.3663   72.0591  227.9634 H   0  0  0  0  0  0  0  0  0  0  0  0
  140.5936   69.4866  228.8840 H   0  0  0  0  0  0  0  0  0  0  0  0
  138.8793   69.9038  228.5604 H   0  0  0  0  0  0  0  0  0  0  0  0
  141.0863   69.1761  226.6584 H   0  0  0  0  0  0  0  0  0  0  0  0
  139.3350   68.7768  226.6062 H   0  0  0  0  0  0  0  0  0  0  0  0
  1  2  1  0
  2  3  1  0
  3  4  1  0
  4  5  1  0
  5  6  1  0
  6  7  2  0
  6  8  1  0
  8  9  2  0
  9 10  1  0
 10 11  2  0
 11 12  1  0
 12 13  2  0
 13 14  1  0
 13 15  1  0
 15 16  2  0
 16 17  1  0
 17 18  2  0
  2 19  1  0
 19 20  1  0
 20 21  1  0
 21 22  1  0
 22 23  1  0
 23 24  1  0
 18  8  1  0
 24 19  1  0
 17 11  1  0
  1 25  1  0
  1 26  1  0
  1 27  1  0
  3 28  1  0
  3 29  1  0
  4 30  1  0
  4 31  1  0
  5 32  1  0
  9 33  1  0
 10 34  1  0
 12 35  1  0
 15 36  1  0
 16 37  1  0
 19 38  1  0
 20 39  1  0
 20 40  1  0
 21 41  1  0
 21 42  1  0
 22 43  1  0
 22 44  1  0
 23 45  1  0
 23 46  1  0
 24 47  1  0
 24 48  1  0
M  END
>  <smiles>  (41) 
CN(CCNC(=O)c1ccc2cc(Cl)ccc2n1)C1CCCCC1

>  <score_type>  (41) 
oracle

>  <origin>  (41) 
autodockgpu

>  <m_score__min__energy>  (41) 
-8.2200000000000006

>  <m_primary>  (41) 
energy

>  <rmsd>  (41) 
8.099737306267697

>  <m_score__min__rmsd>  (41) 
8.099737306267697

>  <meeko>  (41) 
{"free_energy": -7.37, "intermolecular_energy": -8.86, "internal_energy": -1.64, "cluster_size": 17, "cluster_id": 3, "rank_in_cluster": 11}

>  <energy>  (41) 
-7.37

>  <cluster_rmsd>  (41) 
1.54

>  <cluster>  (41) 
3

$$$$

     RDKit          3D

 48 50  0  0  0  0  0  0  0  0999 V2000
  139.2670   67.8950  225.1780 C   0  0  0  0  0  0  0  0  0  0  0  0
  139.3510   69.2940  225.0320 N   0  0  0  0  0  0  0  0  0  0  0  0
  139.4080   69.8000  223.7210 C   0  0  0  0  0  0  0  0  0  0  0  0
  138.3400   70.7870  223.3370 C   0  0  0  0  0  0  0  0  0  0  0  0
  138.8880   72.0580  222.9390 N   0  0  0  0  0  0  0  0  0  0  0  0
  140.0170   72.1940  222.0800 C   0  0  0  0  0  0  0  0  0  0  0  0
  140.6210   71.1990  221.6070 O   0  0  0  0  0  0  0  0  0  0  0  0
  140.4970   73.5490  221.7320 C   0  0  0  0  0  0  0  0  0  0  0  0
  141.5260   73.7120  220.8480 C   0  0  0  0  0  0  0  0  0  0  0  0
  141.9550   74.9930  220.5400 C   0  0  0  0  0  0  0  0  0  0  0  0
  141.3630   76.1170  221.1110 C   0  0  0  0  0  0  0  0  0  0  0  0
  141.7860   77.3930  220.8080 C   0  0  0  0  0  0  0  0  0  0  0  0
  141.1860   78.5170  221.3840 C   0  0  0  0  0  0  0  0  0  0  0  0
  141.7340   80.1250  220.9900 Cl  0  0  0  0  0  0  0  0  0  0  0  0
  140.1500   78.2700  222.2700 C   0  0  0  0  0  0  0  0  0  0  0  0
  139.7340   76.9970  222.5680 C   0  0  0  0  0  0  0  0  0  0  0  0
  140.3330   75.8960  221.9930 C   0  0  0  0  0  0  0  0  0  0  0  0
  139.9260   74.6470  222.2840 N   0  0  0  0  0  0  0  0  0  0  0  0
  139.8740   70.0480  226.1060 C   0  0  0  0  0  0  0  0  0  0  0  0
  140.7870   71.1150  225.4750 C   0  0  0  0  0  0  0  0  0  0  0  0
  141.4450   71.9050  226.5770 C   0  0  0  0  0  0  0  0  0  0  0  0
  140.8560   71.6040  227.9270 C   0  0  0  0  0  0  0  0  0  0  0  0
  140.9130   70.1590  228.3180 C   0  0  0  0  0  0  0  0  0  0  0  0
  140.6990   69.3050  227.0900 C   0  0  0  0  0  0  0  0  0  0  0  0
  139.2516   67.6382  226.2475 H   0  0  0  0  0  0  0  0  0  0  0  0
  138.3454   67.5312  224.7002 H   0  0  0  0  0  0  0  0  0  0  0  0
  140.1385   67.4235  224.7002 H   0  0  0  0  0  0  0  0  0  0  0  0
  140.3820   70.2956  223.5958 H   0  0  0  0  0  0  0  0  0  0  0  0
  139.2510   68.9306  223.0656 H   0  0  0  0  0  0  0  0  0  0  0  0
  137.7609   70.3732  222.4983 H   0  0  0  0  0  0  0  0  0  0  0  0
  137.7049   70.9558  224.2191 H   0  0  0  0  0  0  0  0  0  0  0  0
  138.4580   72.9550  223.2830 H   0  0  0  0  0  0  0  0  0  0  0  0
  142.0078   72.8373  220.3867 H   0  0  0  0  0  0  0  0  0  0  0  0
  142.7827   75.1254  219.8277 H   0  0  0  0  0  0  0  0  0  0  0  0
  142.6141   77.5304  220.0971 H   0  0  0  0  0  0  0  0  0  0  0  0
  139.6450   79.1214  222.7497 H   0  0  0  0  0  0  0  0  0  0  0  0
  138.9072   76.8519  223.2789 H   0  0  0  0  0  0  0  0  0  0  0  0
  139.0086   70.4274  226.6692 H   0  0  0  0  0  0  0  0  0  0  0  0
  141.5570   70.6259  224.8603 H   0  0  0  0  0  0  0  0  0  0  0  0
  140.1923   71.7862  224.8380 H   0  0  0  0  0  0  0  0  0  0  0  0
  142.5170   71.6593  226.5964 H   0  0  0  0  0  0  0  0  0  0  0  0
  141.2803   72.9726  226.3692 H   0  0  0  0  0  0  0  0  0  0  0  0
  141.4067   72.1864  228.6804 H   0  0  0  0  0  0  0  0  0  0  0  0
  139.7908   71.8729  227.8722 H   0  0  0  0  0  0  0  0  0  0  0  0
  141.8969   69.9345  228.7557 H   0  0  0  0  0  0  0  0  0  0  0  0
  140.1290   69.9448  229.0592 H   0  0  0  0  0  0  0  0  0  0  0  0
  141.6725   69.0593  226.6405 H   0  0  0  0  0  0  0  0  0  0  0  0
  140.1811   68.3774  227.3753 H   0  0  0  0  0  0  0  0  0  0  0  0
  1  2  1  0
  2  3  1  0
  3  4  1  0
  4  5  1  0
  5  6  1  0
  6  7  2  0
  6  8  1  0
  8  9  2  0
  9 10  1  0
 10 11  2  0
 11 12  1  0
 12 13  2  0
 13 14  1  0
 13 15  1  0
 15 16  2  0
 16 17  1  0
 17 18  2  0
  2 19  1  0
 19 20  1  0
 20 21  1  0
 21 22  1  0
 22 23  1  0
 23 24  1  0
 18  8  1  0
 24 19  1  0
 17 11  1  0
  1 25  1  0
  1 26  1  0
  1 27  1  0
  3 28  1  0
  3 29  1  0
  4 30  1  0
  4 31  1  0
  5 32  1  0
  9 33  1  0
 10 34  1  0
 12 35  1  0
 15 36  1  0
 16 37  1  0
 19 38  1  0
 20 39  1  0
 20 40  1  0
 21 41  1  0
 21 42  1  0
 22 43  1  0
 22 44  1  0
 23 45  1  0
 23 46  1  0
 24 47  1  0
 24 48  1  0
M  END
>  <smiles>  (42) 
CN(CCNC(=O)c1ccc2cc(Cl)ccc2n1)C1CCCCC1

>  <score_type>  (42) 
oracle

>  <origin>  (42) 
autodockgpu

>  <m_score__min__energy>  (42) 
-8.2200000000000006

>  <m_primary>  (42) 
energy

>  <rmsd>  (42) 
8.551600304346776

>  <m_score__min__rmsd>  (42) 
8.551600304346776

>  <meeko>  (42) 
{"free_energy": -7.89, "intermolecular_energy": -9.38, "internal_energy": -1.28, "cluster_size": 22, "cluster_id": 2, "rank_in_cluster": 9}

>  <energy>  (42) 
-7.36

>  <cluster_rmsd>  (42) 
1.56

>  <cluster>  (42) 
3

$$$$

     RDKit          3D

 48 50  0  0  0  0  0  0  0  0999 V2000
  139.7140   71.1640  223.5920 C   0  0  0  0  0  0  0  0  0  0  0  0
  139.6050   70.1370  224.5500 N   0  0  0  0  0  0  0  0  0  0  0  0
  138.9050   68.9780  224.1710 C   0  0  0  0  0  0  0  0  0  0  0  0
  137.6100   69.1890  223.4360 C   0  0  0  0  0  0  0  0  0  0  0  0
  136.7400   70.1140  224.1180 N   0  0  0  0  0  0  0  0  0  0  0  0
  135.4980   69.7370  224.7070 C   0  0  0  0  0  0  0  0  0  0  0  0
  135.0710   68.5560  224.6700 O   0  0  0  0  0  0  0  0  0  0  0  0
  134.6830   70.7670  225.3870 C   0  0  0  0  0  0  0  0  0  0  0  0
  133.7170   70.4050  226.2830 C   0  0  0  0  0  0  0  0  0  0  0  0
  132.9690   71.3910  226.9040 C   0  0  0  0  0  0  0  0  0  0  0  0
  133.1780   72.7420  226.6370 C   0  0  0  0  0  0  0  0  0  0  0  0
  132.4360   73.7270  227.2540 C   0  0  0  0  0  0  0  0  0  0  0  0
  132.6520   75.0810  226.9820 C   0  0  0  0  0  0  0  0  0  0  0  0
  131.7040   76.3150  227.7700 Cl  0  0  0  0  0  0  0  0  0  0  0  0
  133.6490   75.3690  226.0630 C   0  0  0  0  0  0  0  0  0  0  0  0
  134.3830   74.3840  225.4530 C   0  0  0  0  0  0  0  0  0  0  0  0
  134.1610   73.0510  225.7290 C   0  0  0  0  0  0  0  0  0  0  0  0
  134.8810   72.0840  225.1320 N   0  0  0  0  0  0  0  0  0  0  0  0
  139.7200   70.4810  225.9140 C   0  0  0  0  0  0  0  0  0  0  0  0
  140.8490   71.5240  225.9990 C   0  0  0  0  0  0  0  0  0  0  0  0
  141.0810   71.8750  227.4460 C   0  0  0  0  0  0  0  0  0  0  0  0
  140.0150   71.3150  228.3480 C   0  0  0  0  0  0  0  0  0  0  0  0
  139.8570   69.8280  228.2680 C   0  0  0  0  0  0  0  0  0  0  0  0
  140.0820   69.3810  226.8420 C   0  0  0  0  0  0  0  0  0  0  0  0
  139.8168   72.1327  224.1030 H   0  0  0  0  0  0  0  0  0  0  0  0
  140.5983   70.9858  222.9625 H   0  0  0  0  0  0  0  0  0  0  0  0
  138.8120   71.1754  222.9625 H   0  0  0  0  0  0  0  0  0  0  0  0
  139.5658   68.3854  223.5213 H   0  0  0  0  0  0  0  0  0  0  0  0
  138.6286   68.4824  225.1134 H   0  0  0  0  0  0  0  0  0  0  0  0
  137.8321   69.5849  222.4340 H   0  0  0  0  0  0  0  0  0  0  0  0
  137.0931   68.2197  223.3786 H   0  0  0  0  0  0  0  0  0  0  0  0
  137.0030   71.1290  224.2030 H   0  0  0  0  0  0  0  0  0  0  0  0
  133.5358   69.3436  226.5082 H   0  0  0  0  0  0  0  0  0  0  0  0
  132.1911   71.1004  227.6255 H   0  0  0  0  0  0  0  0  0  0  0  0
  131.6570   73.4410  227.9761 H   0  0  0  0  0  0  0  0  0  0  0  0
  133.8580   76.4202  225.8153 H   0  0  0  0  0  0  0  0  0  0  0  0
  135.1637   74.6624  224.7298 H   0  0  0  0  0  0  0  0  0  0  0  0
  138.7239   70.8228  226.2318 H   0  0  0  0  0  0  0  0  0  0  0  0
  141.7708   71.1064  225.5679 H   0  0  0  0  0  0  0  0  0  0  0  0
  140.5659   72.4264  225.4372 H   0  0  0  0  0  0  0  0  0  0  0  0
  142.0555   71.4699  227.7563 H   0  0  0  0  0  0  0  0  0  0  0  0
  141.0546   72.9711  227.5345 H   0  0  0  0  0  0  0  0  0  0  0  0
  140.2683   71.5790  229.3854 H   0  0  0  0  0  0  0  0  0  0  0  0
  139.0612   71.7509  228.0159 H   0  0  0  0  0  0  0  0  0  0  0  0
  140.5935   69.3437  228.9260 H   0  0  0  0  0  0  0  0  0  0  0  0
  138.8431   69.5461  228.5883 H   0  0  0  0  0  0  0  0  0  0  0  0
  141.1411   69.1182  226.7032 H   0  0  0  0  0  0  0  0  0  0  0  0
  139.4546   68.5025  226.6306 H   0  0  0  0  0  0  0  0  0  0  0  0
  1  2  1  0
  2  3  1  0
  3  4  1  0
  4  5  1  0
  5  6  1  0
  6  7  2  0
  6  8  1  0
  8  9  2  0
  9 10  1  0
 10 11  2  0
 11 12  1  0
 12 13  2  0
 13 14  1  0
 13 15  1  0
 15 16  2  0
 16 17  1  0
 17 18  2  0
  2 19  1  0
 19 20  1  0
 20 21  1  0
 21 22  1  0
 22 23  1  0
 23 24  1  0
 18  8  1  0
 24 19  1  0
 17 11  1  0
  1 25  1  0
  1 26  1  0
  1 27  1  0
  3 28  1  0
  3 29  1  0
  4 30  1  0
  4 31  1  0
  5 32  1  0
  9 33  1  0
 10 34  1  0
 12 35  1  0
 15 36  1  0
 16 37  1  0
 19 38  1  0
 20 39  1  0
 20 40  1  0
 21 41  1  0
 21 42  1  0
 22 43  1  0
 22 44  1  0
 23 45  1  0
 23 46  1  0
 24 47  1  0
 24 48  1  0
M  END
>  <smiles>  (43) 
CN(CCNC(=O)c1ccc2cc(Cl)ccc2n1)C1CCCCC1

>  <score_type>  (43) 
oracle

>  <origin>  (43) 
autodockgpu

>  <m_score__min__energy>  (43) 
-8.2200000000000006

>  <m_primary>  (43) 
energy

>  <rmsd>  (43) 
8.184718988036611

>  <m_score__min__rmsd>  (43) 
8.184718988036611

>  <meeko>  (43) 
{"free_energy": -7.49, "intermolecular_energy": -8.98, "internal_energy": -1.39, "cluster_size": 17, "cluster_id": 3, "rank_in_cluster": 4}

>  <energy>  (43) 
-7.35

>  <cluster_rmsd>  (43) 
1.49

>  <cluster>  (43) 
3

$$$$

     RDKit          3D

 48 50  0  0  0  0  0  0  0  0999 V2000
  138.6680   77.3530  222.7000 C   0  0  0  0  0  0  0  0  0  0  0  0
  139.9550   77.5210  222.1510 N   0  0  0  0  0  0  0  0  0  0  0  0
  140.5100   76.4240  221.4710 C   0  0  0  0  0  0  0  0  0  0  0  0
  139.5800   75.2790  221.1750 C   0  0  0  0  0  0  0  0  0  0  0  0
  139.6520   74.2450  222.1760 N   0  0  0  0  0  0  0  0  0  0  0  0
  139.8870   72.8720  221.8740 C   0  0  0  0  0  0  0  0  0  0  0  0
  140.0490   72.4650  220.6970 O   0  0  0  0  0  0  0  0  0  0  0  0
  139.9450   71.8920  222.9800 C   0  0  0  0  0  0  0  0  0  0  0  0
  139.5050   70.6130  222.7940 C   0  0  0  0  0  0  0  0  0  0  0  0
  139.5700   69.7160  223.8480 C   0  0  0  0  0  0  0  0  0  0  0  0
  140.0740   70.0890  225.0920 C   0  0  0  0  0  0  0  0  0  0  0  0
  140.1410   69.1990  226.1430 C   0  0  0  0  0  0  0  0  0  0  0  0
  140.6490   69.5800  227.3890 C   0  0  0  0  0  0  0  0  0  0  0  0
  140.7270   68.4430  228.7090 Cl  0  0  0  0  0  0  0  0  0  0  0  0
  141.0760   70.8940  227.5000 C   0  0  0  0  0  0  0  0  0  0  0  0
  141.0050   71.7730  226.4500 C   0  0  0  0  0  0  0  0  0  0  0  0
  140.5020   71.3860  225.2250 C   0  0  0  0  0  0  0  0  0  0  0  0
  140.4340   72.2480  224.1940 N   0  0  0  0  0  0  0  0  0  0  0  0
  140.7950   78.5080  222.7120 C   0  0  0  0  0  0  0  0  0  0  0  0
  139.8890   79.7090  223.0370 C   0  0  0  0  0  0  0  0  0  0  0  0
  140.7410   80.8340  223.5640 C   0  0  0  0  0  0  0  0  0  0  0  0
  142.1520   80.3980  223.8490 C   0  0  0  0  0  0  0  0  0  0  0  0
  142.8670   79.8100  222.6710 C   0  0  0  0  0  0  0  0  0  0  0  0
  141.8850   79.0160  221.8420 C   0  0  0  0  0  0  0  0  0  0  0  0
  138.7338   77.3616  223.7980 H   0  0  0  0  0  0  0  0  0  0  0  0
  138.0166   78.1737  222.3653 H   0  0  0  0  0  0  0  0  0  0  0  0
  138.2491   76.3925  222.3653 H   0  0  0  0  0  0  0  0  0  0  0  0
  140.9055   76.7901  220.5121 H   0  0  0  0  0  0  0  0  0  0  0  0
  141.2708   76.0136  222.1513 H   0  0  0  0  0  0  0  0  0  0  0  0
  138.5494   75.6614  221.1345 H   0  0  0  0  0  0  0  0  0  0  0  0
  139.8825   74.8389  220.2133 H   0  0  0  0  0  0  0  0  0  0  0  0
  139.5270   74.4800  223.1940 H   0  0  0  0  0  0  0  0  0  0  0  0
  139.1038   70.2985  221.8193 H   0  0  0  0  0  0  0  0  0  0  0  0
  139.2154   68.6854  223.6991 H   0  0  0  0  0  0  0  0  0  0  0  0
  139.7874   68.1675  225.9983 H   0  0  0  0  0  0  0  0  0  0  0  0
  141.4845   71.2424  228.4601 H   0  0  0  0  0  0  0  0  0  0  0  0
  141.3558   72.8065  226.5870 H   0  0  0  0  0  0  0  0  0  0  0  0
  141.2946   78.0366  223.5712 H   0  0  0  0  0  0  0  0  0  0  0  0
  139.3682   80.0361  222.1250 H   0  0  0  0  0  0  0  0  0  0  0  0
  139.1438   79.4201  223.7928 H   0  0  0  0  0  0  0  0  0  0  0  0
  140.7644   81.6401  222.8159 H   0  0  0  0  0  0  0  0  0  0  0  0
  140.2975   81.1763  224.5106 H   0  0  0  0  0  0  0  0  0  0  0  0
  142.7200   81.2745  224.1941 H   0  0  0  0  0  0  0  0  0  0  0  0
  142.0884   79.6033  224.6069 H   0  0  0  0  0  0  0  0  0  0  0  0
  143.2962   80.6177  222.0600 H   0  0  0  0  0  0  0  0  0  0  0  0
  143.6755   79.1506  223.0198 H   0  0  0  0  0  0  0  0  0  0  0  0
  141.4586   79.6625  221.0608 H   0  0  0  0  0  0  0  0  0  0  0  0
  142.4047   78.1668  221.3742 H   0  0  0  0  0  0  0  0  0  0  0  0
  1  2  1  0
  2  3  1  0
  3  4  1  0
  4  5  1  0
  5  6  1  0
  6  7  2  0
  6  8  1  0
  8  9  2  0
  9 10  1  0
 10 11  2  0
 11 12  1  0
 12 13  2  0
 13 14  1  0
 13 15  1  0
 15 16  2  0
 16 17  1  0
 17 18  2  0
  2 19  1  0
 19 20  1  0
 20 21  1  0
 21 22  1  0
 22 23  1  0
 23 24  1  0
 18  8  1  0
 24 19  1  0
 17 11  1  0
  1 25  1  0
  1 26  1  0
  1 27  1  0
  3 28  1  0
  3 29  1  0
  4 30  1  0
  4 31  1  0
  5 32  1  0
  9 33  1  0
 10 34  1  0
 12 35  1  0
 15 36  1  0
 16 37  1  0
 19 38  1  0
 20 39  1  0
 20 40  1  0
 21 41  1  0
 21 42  1  0
 22 43  1  0
 22 44  1  0
 23 45  1  0
 23 46  1  0
 24 47  1  0
 24 48  1  0
M  END
>  <smiles>  (44) 
CN(CCNC(=O)c1ccc2cc(Cl)ccc2n1)C1CCCCC1

>  <score_type>  (44) 
oracle

>  <origin>  (44) 
autodockgpu

>  <m_score__min__energy>  (44) 
-8.2200000000000006

>  <m_primary>  (44) 
energy

>  <rmsd>  (44) 
3.4063653427562173

>  <m_score__min__rmsd>  (44) 
3.4063653427562173

>  <meeko>  (44) 
{"free_energy": -8.22, "intermolecular_energy": -9.71, "internal_energy": -0.93, "cluster_size": 8, "cluster_id": 1, "rank_in_cluster": 1}

>  <energy>  (44) 
-7.31

>  <cluster_rmsd>  (44) 
1.47

>  <cluster>  (44) 
3

$$$$

     RDKit          3D

 48 50  0  0  0  0  0  0  0  0999 V2000
  139.4050   71.5050  223.7740 C   0  0  0  0  0  0  0  0  0  0  0  0
  139.5990   70.2370  224.3570 N   0  0  0  0  0  0  0  0  0  0  0  0
  139.1900   69.1180  223.6100 C   0  0  0  0  0  0  0  0  0  0  0  0
  137.7890   68.6270  223.8530 C   0  0  0  0  0  0  0  0  0  0  0  0
  136.9630   69.6240  224.4850 N   0  0  0  0  0  0  0  0  0  0  0  0
  135.5850   69.4260  224.7880 C   0  0  0  0  0  0  0  0  0  0  0  0
  134.9880   68.3540  224.5210 O   0  0  0  0  0  0  0  0  0  0  0  0
  134.8290   70.5170  225.4410 C   0  0  0  0  0  0  0  0  0  0  0  0
  133.9160   70.2370  226.4190 C   0  0  0  0  0  0  0  0  0  0  0  0
  133.2220   71.2790  227.0130 C   0  0  0  0  0  0  0  0  0  0  0  0
  133.4340   72.6040  226.6370 C   0  0  0  0  0  0  0  0  0  0  0  0
  132.7460   73.6430  227.2260 C   0  0  0  0  0  0  0  0  0  0  0  0
  132.9630   74.9710  226.8440 C   0  0  0  0  0  0  0  0  0  0  0  0
  132.0850   76.2750  227.5980 Cl  0  0  0  0  0  0  0  0  0  0  0  0
  133.9040   75.1740  225.8470 C   0  0  0  0  0  0  0  0  0  0  0  0
  134.5850   74.1340  225.2660 C   0  0  0  0  0  0  0  0  0  0  0  0
  134.3610   72.8290  225.6500 C   0  0  0  0  0  0  0  0  0  0  0  0
  135.0290   71.8090  225.0810 N   0  0  0  0  0  0  0  0  0  0  0  0
  139.6870   70.1560  225.7640 C   0  0  0  0  0  0  0  0  0  0  0  0
  140.5540   71.3490  226.2080 C   0  0  0  0  0  0  0  0  0  0  0  0
  140.7580   71.2740  227.6990 C   0  0  0  0  0  0  0  0  0  0  0  0
  139.8840   70.2340  228.3450 C   0  0  0  0  0  0  0  0  0  0  0  0
  140.0640   68.8510  227.7990 C   0  0  0  0  0  0  0  0  0  0  0  0
  140.3260   68.9340  226.3140 C   0  0  0  0  0  0  0  0  0  0  0  0
  139.2896   72.2591  224.5664 H   0  0  0  0  0  0  0  0  0  0  0  0
  140.2748   71.7587  223.1502 H   0  0  0  0  0  0  0  0  0  0  0  0
  138.4991   71.4871  223.1502 H   0  0  0  0  0  0  0  0  0  0  0  0
  139.2732   69.3784  222.5445 H   0  0  0  0  0  0  0  0  0  0  0  0
  139.8472   68.2964  223.9310 H   0  0  0  0  0  0  0  0  0  0  0  0
  137.3375   68.3533  222.8880 H   0  0  0  0  0  0  0  0  0  0  0  0
  137.8480   67.7608  224.5285 H   0  0  0  0  0  0  0  0  0  0  0  0
  137.3650   70.5600  224.7480 H   0  0  0  0  0  0  0  0  0  0  0  0
  133.7345   69.1978  226.7306 H   0  0  0  0  0  0  0  0  0  0  0  0
  132.4865   71.0550  227.7997 H   0  0  0  0  0  0  0  0  0  0  0  0
  132.0103   73.4231  228.0136 H   0  0  0  0  0  0  0  0  0  0  0  0
  134.1114   76.2007  225.5110 H   0  0  0  0  0  0  0  0  0  0  0  0
  135.3237   74.3456  224.4789 H   0  0  0  0  0  0  0  0  0  0  0  0
  138.6530   70.1462  226.1390 H   0  0  0  0  0  0  0  0  0  0  0  0
  141.5283   71.3073  225.6992 H   0  0  0  0  0  0  0  0  0  0  0  0
  140.0526   72.2926  225.9468 H   0  0  0  0  0  0  0  0  0  0  0  0
  141.8105   71.0252  227.8996 H   0  0  0  0  0  0  0  0  0  0  0  0
  140.4871   72.2515  228.1245 H   0  0  0  0  0  0  0  0  0  0  0  0
  140.1127   70.2120  229.4207 H   0  0  0  0  0  0  0  0  0  0  0  0
  138.8436   70.5225  228.1345 H   0  0  0  0  0  0  0  0  0  0  0  0
  140.9173   68.3670  228.2967 H   0  0  0  0  0  0  0  0  0  0  0  0
  139.1543   68.2602  227.9815 H   0  0  0  0  0  0  0  0  0  0  0  0
  141.4106   68.9757  226.1352 H   0  0  0  0  0  0  0  0  0  0  0  0
  139.9054   68.0467  225.8183 H   0  0  0  0  0  0  0  0  0  0  0  0
  1  2  1  0
  2  3  1  0
  3  4  1  0
  4  5  1  0
  5  6  1  0
  6  7  2  0
  6  8  1  0
  8  9  2  0
  9 10  1  0
 10 11  2  0
 11 12  1  0
 12 13  2  0
 13 14  1  0
 13 15  1  0
 15 16  2  0
 16 17  1  0
 17 18  2  0
  2 19  1  0
 19 20  1  0
 20 21  1  0
 21 22  1  0
 22 23  1  0
 23 24  1  0
 18  8  1  0
 24 19  1  0
 17 11  1  0
  1 25  1  0
  1 26  1  0
  1 27  1  0
  3 28  1  0
  3 29  1  0
  4 30  1  0
  4 31  1  0
  5 32  1  0
  9 33  1  0
 10 34  1  0
 12 35  1  0
 15 36  1  0
 16 37  1  0
 19 38  1  0
 20 39  1  0
 20 40  1  0
 21 41  1  0
 21 42  1  0
 22 43  1  0
 22 44  1  0
 23 45  1  0
 23 46  1  0
 24 47  1  0
 24 48  1  0
M  END
>  <smiles>  (45) 
CN(CCNC(=O)c1ccc2cc(Cl)ccc2n1)C1CCCCC1

>  <score_type>  (45) 
oracle

>  <origin>  (45) 
autodockgpu

>  <m_score__min__energy>  (45) 
-8.2200000000000006

>  <m_primary>  (45) 
energy

>  <rmsd>  (45) 
8.172052879647003

>  <m_score__min__rmsd>  (45) 
8.172052879647003

>  <meeko>  (45) 
{"free_energy": -7.25, "intermolecular_energy": -8.74, "internal_energy": -1.75, "cluster_size": 17, "cluster_id": 3, "rank_in_cluster": 17}

>  <energy>  (45) 
-7.27

>  <cluster_rmsd>  (45) 
1.47

>  <cluster>  (45) 
3

$$$$

     RDKit          3D

 48 50  0  0  0  0  0  0  0  0999 V2000
  140.2990   71.5340  223.9800 C   0  0  0  0  0  0  0  0  0  0  0  0
  139.7380   70.2970  224.3560 N   0  0  0  0  0  0  0  0  0  0  0  0
  138.8330   69.7040  223.4580 C   0  0  0  0  0  0  0  0  0  0  0  0
  137.6260   69.0430  224.0650 C   0  0  0  0  0  0  0  0  0  0  0  0
  136.7160   69.9970  224.6480 N   0  0  0  0  0  0  0  0  0  0  0  0
  135.3940   69.6690  225.0650 C   0  0  0  0  0  0  0  0  0  0  0  0
  134.9240   68.5100  224.9500 O   0  0  0  0  0  0  0  0  0  0  0  0
  134.5440   70.7260  225.6550 C   0  0  0  0  0  0  0  0  0  0  0  0
  133.4890   70.3970  226.4590 C   0  0  0  0  0  0  0  0  0  0  0  0
  132.7100   71.4080  226.9970 C   0  0  0  0  0  0  0  0  0  0  0  0
  132.9760   72.7500  226.7380 C   0  0  0  0  0  0  0  0  0  0  0  0
  132.2030   73.7590  227.2730 C   0  0  0  0  0  0  0  0  0  0  0  0
  132.4770   75.1050  227.0090 C   0  0  0  0  0  0  0  0  0  0  0  0
  131.4890   76.3700  227.6920 Cl  0  0  0  0  0  0  0  0  0  0  0  0
  133.5620   75.3580  226.1860 C   0  0  0  0  0  0  0  0  0  0  0  0
  134.3270   74.3490  225.6580 C   0  0  0  0  0  0  0  0  0  0  0  0
  134.0470   73.0260  225.9250 C   0  0  0  0  0  0  0  0  0  0  0  0
  134.7970   72.0350  225.4070 N   0  0  0  0  0  0  0  0  0  0  0  0
  139.6850   69.9790  225.7310 C   0  0  0  0  0  0  0  0  0  0  0  0
  140.3680   71.1460  226.4680 C   0  0  0  0  0  0  0  0  0  0  0  0
  140.4190   70.8290  227.9400 C   0  0  0  0  0  0  0  0  0  0  0  0
  139.5970   69.6200  228.2940 C   0  0  0  0  0  0  0  0  0  0  0  0
  139.9790   68.3750  227.5550 C   0  0  0  0  0  0  0  0  0  0  0  0
  140.3870   68.7390  226.1470 C   0  0  0  0  0  0  0  0  0  0  0  0
  140.5592   72.1078  224.8817 H   0  0  0  0  0  0  0  0  0  0  0  0
  141.2058   71.3589  223.3824 H   0  0  0  0  0  0  0  0  0  0  0  0
  139.5698   72.1008  223.3824 H   0  0  0  0  0  0  0  0  0  0  0  0
  138.4767   70.4888  222.7745 H   0  0  0  0  0  0  0  0  0  0  0  0
  139.3945   68.8947  222.9684 H   0  0  0  0  0  0  0  0  0  0  0  0
  137.0967   68.4832  223.2799 H   0  0  0  0  0  0  0  0  0  0  0  0
  137.9748   68.3763  224.8674 H   0  0  0  0  0  0  0  0  0  0  0  0
  137.0110   70.9980  224.7860 H   0  0  0  0  0  0  0  0  0  0  0  0
  133.2614   69.3429  226.6761 H   0  0  0  0  0  0  0  0  0  0  0  0
  131.8607   71.1444  227.6445 H   0  0  0  0  0  0  0  0  0  0  0  0
  131.3529   73.4998  227.9211 H   0  0  0  0  0  0  0  0  0  0  0  0
  133.8184   76.4009  225.9482 H   0  0  0  0  0  0  0  0  0  0  0  0
  135.1794   74.6003  225.0097 H   0  0  0  0  0  0  0  0  0  0  0  0
  138.6239   69.8148  225.9699 H   0  0  0  0  0  0  0  0  0  0  0  0
  141.3899   71.2786  226.0830 H   0  0  0  0  0  0  0  0  0  0  0  0
  139.7997   72.0737  226.3055 H   0  0  0  0  0  0  0  0  0  0  0  0
  141.4647   70.6413  228.2251 H   0  0  0  0  0  0  0  0  0  0  0  0
  140.0019   71.6896  228.4835 H   0  0  0  0  0  0  0  0  0  0  0  0
  139.7114   69.4295  229.3713 H   0  0  0  0  0  0  0  0  0  0  0  0
  138.5603   69.8500  228.0072 H   0  0  0  0  0  0  0  0  0  0  0  0
  140.8209   67.8866  228.0674 H   0  0  0  0  0  0  0  0  0  0  0  0
  139.1226   67.6853  227.5251 H   0  0  0  0  0  0  0  0  0  0  0  0
  141.4740   68.9041  226.1117 H   0  0  0  0  0  0  0  0  0  0  0  0
  140.1172   67.9195  225.4646 H   0  0  0  0  0  0  0  0  0  0  0  0
  1  2  1  0
  2  3  1  0
  3  4  1  0
  4  5  1  0
  5  6  1  0
  6  7  2  0
  6  8  1  0
  8  9  2  0
  9 10  1  0
 10 11  2  0
 11 12  1  0
 12 13  2  0
 13 14  1  0
 13 15  1  0
 15 16  2  0
 16 17  1  0
 17 18  2  0
  2 19  1  0
 19 20  1  0
 20 21  1  0
 21 22  1  0
 22 23  1  0
 23 24  1  0
 18  8  1  0
 24 19  1  0
 17 11  1  0
  1 25  1  0
  1 26  1  0
  1 27  1  0
  3 28  1  0
  3 29  1  0
  4 30  1  0
  4 31  1  0
  5 32  1  0
  9 33  1  0
 10 34  1  0
 12 35  1  0
 15 36  1  0
 16 37  1  0
 19 38  1  0
 20 39  1  0
 20 40  1  0
 21 41  1  0
 21 42  1  0
 22 43  1  0
 22 44  1  0
 23 45  1  0
 23 46  1  0
 24 47  1  0
 24 48  1  0
M  END
>  <smiles>  (46) 
CN(CCNC(=O)c1ccc2cc(Cl)ccc2n1)C1CCCCC1

>  <score_type>  (46) 
oracle

>  <origin>  (46) 
autodockgpu

>  <m_score__min__energy>  (46) 
-8.2200000000000006

>  <m_primary>  (46) 
energy

>  <rmsd>  (46) 
8.362027657155993

>  <m_score__min__rmsd>  (46) 
8.362027657155993

>  <meeko>  (46) 
{"free_energy": -7.39, "intermolecular_energy": -8.88, "internal_energy": -1.37, "cluster_size": 17, "cluster_id": 3, "rank_in_cluster": 10}

>  <energy>  (46) 
-7.26

>  <cluster_rmsd>  (46) 
1.49

>  <cluster>  (46) 
3

$$$$

     RDKit          3D

 48 50  0  0  0  0  0  0  0  0999 V2000
  139.7340   67.5020  225.7210 C   0  0  0  0  0  0  0  0  0  0  0  0
  139.2000   68.7800  225.4600 N   0  0  0  0  0  0  0  0  0  0  0  0
  138.6340   68.9910  224.1900 C   0  0  0  0  0  0  0  0  0  0  0  0
  137.7070   70.1690  224.0580 C   0  0  0  0  0  0  0  0  0  0  0  0
  138.3780   71.3360  223.5440 N   0  0  0  0  0  0  0  0  0  0  0  0
  139.3710   71.2870  222.5240 C   0  0  0  0  0  0  0  0  0  0  0  0
  139.7370   70.2060  221.9980 O   0  0  0  0  0  0  0  0  0  0  0  0
  139.9950   72.5480  222.0660 C   0  0  0  0  0  0  0  0  0  0  0  0
  141.1480   72.5220  221.3330 C   0  0  0  0  0  0  0  0  0  0  0  0
  141.7100   73.7180  220.9180 C   0  0  0  0  0  0  0  0  0  0  0  0
  141.1280   74.9450  221.2310 C   0  0  0  0  0  0  0  0  0  0  0  0
  141.6830   76.1370  220.8200 C   0  0  0  0  0  0  0  0  0  0  0  0
  141.0930   77.3650  221.1360 C   0  0  0  0  0  0  0  0  0  0  0  0
  141.8090   78.8650  220.6090 Cl  0  0  0  0  0  0  0  0  0  0  0  0
  139.9260   77.3080  221.8820 C   0  0  0  0  0  0  0  0  0  0  0  0
  139.3790   76.1170  222.2880 C   0  0  0  0  0  0  0  0  0  0  0  0
  139.9710   74.9130  221.9700 C   0  0  0  0  0  0  0  0  0  0  0  0
  139.4340   73.7440  222.3670 N   0  0  0  0  0  0  0  0  0  0  0  0
  139.6860   69.8730  226.2100 C   0  0  0  0  0  0  0  0  0  0  0  0
  140.8590   70.4580  225.4020 C   0  0  0  0  0  0  0  0  0  0  0  0
  141.4800   71.5830  226.1900 C   0  0  0  0  0  0  0  0  0  0  0  0
  140.6550   71.9660  227.3870 C   0  0  0  0  0  0  0  0  0  0  0  0
  140.3930   70.8430  228.3420 C   0  0  0  0  0  0  0  0  0  0  0  0
  140.2110   69.5610  227.5630 C   0  0  0  0  0  0  0  0  0  0  0  0
  139.7989   67.3467  226.8080 H   0  0  0  0  0  0  0  0  0  0  0  0
  139.0812   66.7347  225.2793 H   0  0  0  0  0  0  0  0  0  0  0  0
  140.7386   67.4272  225.2793 H   0  0  0  0  0  0  0  0  0  0  0  0
  139.4583   69.1321  223.4755 H   0  0  0  0  0  0  0  0  0  0  0  0
  138.0106   68.1055  223.9971 H   0  0  0  0  0  0  0  0  0  0  0  0
  136.8889   69.9007  223.3734 H   0  0  0  0  0  0  0  0  0  0  0  0
  137.3268   70.4130  225.0609 H   0  0  0  0  0  0  0  0  0  0  0  0
  138.1470   72.2920  223.9190 H   0  0  0  0  0  0  0  0  0  0  0  0
  141.6235   71.5640  221.0759 H   0  0  0  0  0  0  0  0  0  0  0  0
  142.6378   73.6989  220.3273 H   0  0  0  0  0  0  0  0  0  0  0  0
  142.6112   76.1226  220.2299 H   0  0  0  0  0  0  0  0  0  0  0  0
  139.4229   78.2468  222.1570 H   0  0  0  0  0  0  0  0  0  0  0  0
  138.4508   76.1228  222.8782 H   0  0  0  0  0  0  0  0  0  0  0  0
  138.8295   70.5443  226.3705 H   0  0  0  0  0  0  0  0  0  0  0  0
  141.6101   69.6749  225.2213 H   0  0  0  0  0  0  0  0  0  0  0  0
  140.4946   70.8361  224.4354 H   0  0  0  0  0  0  0  0  0  0  0  0
  142.4758   71.2663  226.5337 H   0  0  0  0  0  0  0  0  0  0  0  0
  141.5425   72.4609  225.5302 H   0  0  0  0  0  0  0  0  0  0  0  0
  141.1851   72.7626  227.9296 H   0  0  0  0  0  0  0  0  0  0  0  0
  139.6753   72.2873  227.0035 H   0  0  0  0  0  0  0  0  0  0  0  0
  141.2454   70.7381  229.0293 H   0  0  0  0  0  0  0  0  0  0  0  0
  139.4828   71.0556  228.9219 H   0  0  0  0  0  0  0  0  0  0  0  0
  141.1794   69.0476  227.4709 H   0  0  0  0  0  0  0  0  0  0  0  0
  139.4988   68.9098  228.0909 H   0  0  0  0  0  0  0  0  0  0  0  0
  1  2  1  0
  2  3  1  0
  3  4  1  0
  4  5  1  0
  5  6  1  0
  6  7  2  0
  6  8  1  0
  8  9  2  0
  9 10  1  0
 10 11  2  0
 11 12  1  0
 12 13  2  0
 13 14  1  0
 13 15  1  0
 15 16  2  0
 16 17  1  0
 17 18  2  0
  2 19  1  0
 19 20  1  0
 20 21  1  0
 21 22  1  0
 22 23  1  0
 23 24  1  0
 18  8  1  0
 24 19  1  0
 17 11  1  0
  1 25  1  0
  1 26  1  0
  1 27  1  0
  3 28  1  0
  3 29  1  0
  4 30  1  0
  4 31  1  0
  5 32  1  0
  9 33  1  0
 10 34  1  0
 12 35  1  0
 15 36  1  0
 16 37  1  0
 19 38  1  0
 20 39  1  0
 20 40  1  0
 21 41  1  0
 21 42  1  0
 22 43  1  0
 22 44  1  0
 23 45  1  0
 23 46  1  0
 24 47  1  0
 24 48  1  0
M  END
>  <smiles>  (47) 
CN(CCNC(=O)c1ccc2cc(Cl)ccc2n1)C1CCCCC1

>  <score_type>  (47) 
oracle

>  <origin>  (47) 
autodockgpu

>  <m_score__min__energy>  (47) 
-8.2200000000000006

>  <m_primary>  (47) 
energy

>  <rmsd>  (47) 
8.40224663092436

>  <m_score__min__rmsd>  (47) 
8.40224663092436

>  <meeko>  (47) 
{"free_energy": -7.52, "intermolecular_energy": -9.01, "internal_energy": -1.46, "cluster_size": 22, "cluster_id": 2, "rank_in_cluster": 17}

>  <energy>  (47) 
-7.25

>  <cluster_rmsd>  (47) 
1.48

>  <cluster>  (47) 
3

$$$$

     RDKit          3D

 48 50  0  0  0  0  0  0  0  0999 V2000
  140.4640   71.8980  223.6730 C   0  0  0  0  0  0  0  0  0  0  0  0
  139.9920   70.7630  224.3620 N   0  0  0  0  0  0  0  0  0  0  0  0
  139.0830   69.9320  223.6830 C   0  0  0  0  0  0  0  0  0  0  0  0
  138.0500   70.6240  222.8360 C   0  0  0  0  0  0  0  0  0  0  0  0
  137.1130   71.3800  223.6270 N   0  0  0  0  0  0  0  0  0  0  0  0
  135.9270   70.8240  224.1890 C   0  0  0  0  0  0  0  0  0  0  0  0
  135.6140   69.6180  224.0290 O   0  0  0  0  0  0  0  0  0  0  0  0
  135.0350   71.6910  224.9890 C   0  0  0  0  0  0  0  0  0  0  0  0
  134.0670   71.1420  225.7810 C   0  0  0  0  0  0  0  0  0  0  0  0
  133.2450   71.9780  226.5190 C   0  0  0  0  0  0  0  0  0  0  0  0
  133.3830   73.3640  226.4710 C   0  0  0  0  0  0  0  0  0  0  0  0
  132.5670   74.2000  227.2040 C   0  0  0  0  0  0  0  0  0  0  0  0
  132.7120   75.5890  227.1520 C   0  0  0  0  0  0  0  0  0  0  0  0
  131.6720   76.6330  228.0850 Cl  0  0  0  0  0  0  0  0  0  0  0  0
  133.7160   76.0690  226.3260 C   0  0  0  0  0  0  0  0  0  0  0  0
  134.5230   75.2320  225.6000 C   0  0  0  0  0  0  0  0  0  0  0  0
  134.3710   73.8620  225.6590 C   0  0  0  0  0  0  0  0  0  0  0  0
  135.1630   73.0400  224.9470 N   0  0  0  0  0  0  0  0  0  0  0  0
  140.0190   70.7800  225.7740 C   0  0  0  0  0  0  0  0  0  0  0  0
  141.0610   71.8420  226.1700 C   0  0  0  0  0  0  0  0  0  0  0  0
  141.1990   71.8530  227.6700 C   0  0  0  0  0  0  0  0  0  0  0  0
  140.1400   71.0280  228.3480 C   0  0  0  0  0  0  0  0  0  0  0  0
  140.1000   69.5950  227.9130 C   0  0  0  0  0  0  0  0  0  0  0  0
  140.4220   69.5160  226.4390 C   0  0  0  0  0  0  0  0  0  0  0  0
  140.7815   72.6615  224.3984 H   0  0  0  0  0  0  0  0  0  0  0  0
  141.3188   71.6144  223.0414 H   0  0  0  0  0  0  0  0  0  0  0  0
  139.6602   72.3041  223.0414 H   0  0  0  0  0  0  0  0  0  0  0  0
  139.6632   69.2668  223.0267 H   0  0  0  0  0  0  0  0  0  0  0  0
  138.5163   69.4132  224.4702 H   0  0  0  0  0  0  0  0  0  0  0  0
  138.5612   71.3084  222.1430 H   0  0  0  0  0  0  0  0  0  0  0  0
  137.4862   69.8508  222.2934 H   0  0  0  0  0  0  0  0  0  0  0  0
  137.2800   72.4010  223.8190 H   0  0  0  0  0  0  0  0  0  0  0  0
  133.9418   70.0503  225.8322 H   0  0  0  0  0  0  0  0  0  0  0  0
  132.4652   71.5376  227.1577 H   0  0  0  0  0  0  0  0  0  0  0  0
  131.7852   73.7641  227.8433 H   0  0  0  0  0  0  0  0  0  0  0  0
  133.8701   77.1555  226.2507 H   0  0  0  0  0  0  0  0  0  0  0  0
  135.3067   75.6608  224.9582 H   0  0  0  0  0  0  0  0  0  0  0  0
  138.9867   70.9733  226.1011 H   0  0  0  0  0  0  0  0  0  0  0  0
  142.0305   71.5973  225.7116 H   0  0  0  0  0  0  0  0  0  0  0  0
  140.7368   72.8324  225.8178 H   0  0  0  0  0  0  0  0  0  0  0  0
  142.1867   71.4491  227.9371 H   0  0  0  0  0  0  0  0  0  0  0  0
  141.0840   72.8927  228.0103 H   0  0  0  0  0  0  0  0  0  0  0  0
  140.3253   71.0536  229.4320 H   0  0  0  0  0  0  0  0  0  0  0  0
  139.1716   71.4684  228.0684 H   0  0  0  0  0  0  0  0  0  0  0  0
  140.8414   69.0162  228.4834 H   0  0  0  0  0  0  0  0  0  0  0  0
  139.0977   69.1803  228.0958 H   0  0  0  0  0  0  0  0  0  0  0  0
  141.5032   69.3618  226.3080 H   0  0  0  0  0  0  0  0  0  0  0  0
  139.8735   68.6752  225.9894 H   0  0  0  0  0  0  0  0  0  0  0  0
  1  2  1  0
  2  3  1  0
  3  4  1  0
  4  5  1  0
  5  6  1  0
  6  7  2  0
  6  8  1  0
  8  9  2  0
  9 10  1  0
 10 11  2  0
 11 12  1  0
 12 13  2  0
 13 14  1  0
 13 15  1  0
 15 16  2  0
 16 17  1  0
 17 18  2  0
  2 19  1  0
 19 20  1  0
 20 21  1  0
 21 22  1  0
 22 23  1  0
 23 24  1  0
 18  8  1  0
 24 19  1  0
 17 11  1  0
  1 25  1  0
  1 26  1  0
  1 27  1  0
  3 28  1  0
  3 29  1  0
  4 30  1  0
  4 31  1  0
  5 32  1  0
  9 33  1  0
 10 34  1  0
 12 35  1  0
 15 36  1  0
 16 37  1  0
 19 38  1  0
 20 39  1  0
 20 40  1  0
 21 41  1  0
 21 42  1  0
 22 43  1  0
 22 44  1  0
 23 45  1  0
 23 46  1  0
 24 47  1  0
 24 48  1  0
M  END
>  <smiles>  (48) 
CN(CCNC(=O)c1ccc2cc(Cl)ccc2n1)C1CCCCC1

>  <score_type>  (48) 
oracle

>  <origin>  (48) 
autodockgpu

>  <m_score__min__energy>  (48) 
-8.2200000000000006

>  <m_primary>  (48) 
energy

>  <rmsd>  (48) 
7.941511554464924

>  <m_score__min__rmsd>  (48) 
7.941511554464924

>  <meeko>  (48) 
{"free_energy": -7.36, "intermolecular_energy": -8.85, "internal_energy": -1.31, "cluster_size": 17, "cluster_id": 3, "rank_in_cluster": 12}

>  <energy>  (48) 
-7.07

>  <cluster_rmsd>  (48) 
0.0

>  <cluster>  (48) 
4

$$$$

     RDKit          3D

 48 50  0  0  0  0  0  0  0  0999 V2000
  139.2100   71.5140  223.6070 C   0  0  0  0  0  0  0  0  0  0  0  0
  139.5180   70.3900  224.3990 N   0  0  0  0  0  0  0  0  0  0  0  0
  139.1820   69.1280  223.8800 C   0  0  0  0  0  0  0  0  0  0  0  0
  137.7130   68.8300  223.7440 C   0  0  0  0  0  0  0  0  0  0  0  0
  136.8930   69.8290  224.3790 N   0  0  0  0  0  0  0  0  0  0  0  0
  135.5400   69.6070  224.7660 C   0  0  0  0  0  0  0  0  0  0  0  0
  134.9610   68.5080  224.5750 O   0  0  0  0  0  0  0  0  0  0  0  0
  134.7880   70.7030  225.4150 C   0  0  0  0  0  0  0  0  0  0  0  0
  133.8420   70.4260  226.3610 C   0  0  0  0  0  0  0  0  0  0  0  0
  133.1530   71.4720  226.9530 C   0  0  0  0  0  0  0  0  0  0  0  0
  133.4020   72.7980  226.6050 C   0  0  0  0  0  0  0  0  0  0  0  0
  132.7190   73.8420  227.1910 C   0  0  0  0  0  0  0  0  0  0  0  0
  132.9740   75.1710  226.8380 C   0  0  0  0  0  0  0  0  0  0  0  0
  132.1010   76.4810  227.5880 Cl  0  0  0  0  0  0  0  0  0  0  0  0
  133.9470   75.3700  225.8710 C   0  0  0  0  0  0  0  0  0  0  0  0
  134.6230   74.3260  225.2920 C   0  0  0  0  0  0  0  0  0  0  0  0
  134.3620   73.0200  225.6490 C   0  0  0  0  0  0  0  0  0  0  0  0
  135.0250   71.9950  225.0820 N   0  0  0  0  0  0  0  0  0  0  0  0
  139.6480   70.5720  225.7930 C   0  0  0  0  0  0  0  0  0  0  0  0
  140.8170   71.5550  225.9900 C   0  0  0  0  0  0  0  0  0  0  0  0
  141.0640   71.7290  227.4660 C   0  0  0  0  0  0  0  0  0  0  0  0
  139.9790   71.1100  228.3050 C   0  0  0  0  0  0  0  0  0  0  0  0
  139.7650   69.6490  228.0560 C   0  0  0  0  0  0  0  0  0  0  0  0
  139.9700   69.3600  226.5870 C   0  0  0  0  0  0  0  0  0  0  0  0
  138.9758   72.3687  224.2587 H   0  0  0  0  0  0  0  0  0  0  0  0
  140.0731   71.7627  222.9720 H   0  0  0  0  0  0  0  0  0  0  0  0
  138.3407   71.2880  222.9720 H   0  0  0  0  0  0  0  0  0  0  0  0
  139.6341   69.0460  222.8806 H   0  0  0  0  0  0  0  0  0  0  0  0
  139.5612   68.4003  224.6126 H   0  0  0  0  0  0  0  0  0  0  0  0
  137.4575   68.7896  222.6749 H   0  0  0  0  0  0  0  0  0  0  0  0
  137.5169   67.8679  224.2398 H   0  0  0  0  0  0  0  0  0  0  0  0
  137.2800   70.7860  224.5820 H   0  0  0  0  0  0  0  0  0  0  0  0
  133.6301   69.3857  226.6489 H   0  0  0  0  0  0  0  0  0  0  0  0
  132.3917   71.2505  227.7155 H   0  0  0  0  0  0  0  0  0  0  0  0
  131.9563   73.6250  227.9534 H   0  0  0  0  0  0  0  0  0  0  0  0
  134.1846   76.3974  225.5580 H   0  0  0  0  0  0  0  0  0  0  0  0
  135.3873   74.5346  224.5289 H   0  0  0  0  0  0  0  0  0  0  0  0
  138.6663   70.9131  226.1534 H   0  0  0  0  0  0  0  0  0  0  0  0
  141.7215   71.1545  225.5088 H   0  0  0  0  0  0  0  0  0  0  0  0
  140.5684   72.5258  225.5365 H   0  0  0  0  0  0  0  0  0  0  0  0
  142.0229   71.2548  227.7222 H   0  0  0  0  0  0  0  0  0  0  0  0
  141.0790   72.8081  227.6791 H   0  0  0  0  0  0  0  0  0  0  0  0
  140.2441   71.2437  229.3642 H   0  0  0  0  0  0  0  0  0  0  0  0
  139.0417   71.6166  228.0314 H   0  0  0  0  0  0  0  0  0  0  0  0
  140.4841   69.0654  228.6496 H   0  0  0  0  0  0  0  0  0  0  0  0
  138.7418   69.3703  228.3482 H   0  0  0  0  0  0  0  0  0  0  0  0
  141.0181   69.0754  226.4124 H   0  0  0  0  0  0  0  0  0  0  0  0
  139.3094   68.5356  226.2806 H   0  0  0  0  0  0  0  0  0  0  0  0
  1  2  1  0
  2  3  1  0
  3  4  1  0
  4  5  1  0
  5  6  1  0
  6  7  2  0
  6  8  1  0
  8  9  2  0
  9 10  1  0
 10 11  2  0
 11 12  1  0
 12 13  2  0
 13 14  1  0
 13 15  1  0
 15 16  2  0
 16 17  1  0
 17 18  2  0
  2 19  1  0
 19 20  1  0
 20 21  1  0
 21 22  1  0
 22 23  1  0
 23 24  1  0
 18  8  1  0
 24 19  1  0
 17 11  1  0
  1 25  1  0
  1 26  1  0
  1 27  1  0
  3 28  1  0
  3 29  1  0
  4 30  1  0
  4 31  1  0
  5 32  1  0
  9 33  1  0
 10 34  1  0
 12 35  1  0
 15 36  1  0
 16 37  1  0
 19 38  1  0
 20 39  1  0
 20 40  1  0
 21 41  1  0
 21 42  1  0
 22 43  1  0
 22 44  1  0
 23 45  1  0
 23 46  1  0
 24 47  1  0
 24 48  1  0
M  END
>  <smiles>  (49) 
CN(CCNC(=O)c1ccc2cc(Cl)ccc2n1)C1CCCCC1

>  <score_type>  (49) 
oracle

>  <origin>  (49) 
autodockgpu

>  <m_score__min__energy>  (49) 
-8.2200000000000006

>  <m_primary>  (49) 
energy

>  <rmsd>  (49) 
8.107551685439287

>  <m_score__min__rmsd>  (49) 
8.107551685439287

>  <meeko>  (49) 
{"free_energy": -7.31, "intermolecular_energy": -8.8, "internal_energy": -1.76, "cluster_size": 17, "cluster_id": 3, "rank_in_cluster": 14}

>  <energy>  (49) 
-6.94

>  <cluster_rmsd>  (49) 
0.6

>  <cluster>  (49) 
4

$$$$

     RDKit          3D

 48 50  0  0  0  0  0  0  0  0999 V2000
  137.1950   70.8030  224.1770 C   0  0  0  0  0  0  0  0  0  0  0  0
  138.5090   70.2950  224.2070 N   0  0  0  0  0  0  0  0  0  0  0  0
  138.8330   69.2980  223.2700 C   0  0  0  0  0  0  0  0  0  0  0  0
  139.5810   69.7490  222.0450 C   0  0  0  0  0  0  0  0  0  0  0  0
  139.7600   71.1780  222.0100 N   0  0  0  0  0  0  0  0  0  0  0  0
  140.8270   71.8210  221.3190 C   0  0  0  0  0  0  0  0  0  0  0  0
  141.6980   71.1760  220.6860 O   0  0  0  0  0  0  0  0  0  0  0  0
  140.9150   73.2980  221.3460 C   0  0  0  0  0  0  0  0  0  0  0  0
  141.9680   73.9380  220.7580 C   0  0  0  0  0  0  0  0  0  0  0  0
  142.0250   75.3220  220.7980 C   0  0  0  0  0  0  0  0  0  0  0  0
  141.0330   76.0740  221.4240 C   0  0  0  0  0  0  0  0  0  0  0  0
  141.0850   77.4510  221.4670 C   0  0  0  0  0  0  0  0  0  0  0  0
  140.0870   78.1990  222.0960 C   0  0  0  0  0  0  0  0  0  0  0  0
  140.1670   79.9410  222.1410 Cl  0  0  0  0  0  0  0  0  0  0  0  0
  139.0510   77.4780  222.6690 C   0  0  0  0  0  0  0  0  0  0  0  0
  139.0060   76.1080  222.6240 C   0  0  0  0  0  0  0  0  0  0  0  0
  139.9980   75.3800  222.0000 C   0  0  0  0  0  0  0  0  0  0  0  0
  139.9540   74.0360  221.9540 N   0  0  0  0  0  0  0  0  0  0  0  0
  139.2370   70.3980  225.4130 C   0  0  0  0  0  0  0  0  0  0  0  0
  140.3010   71.4850  225.1780 C   0  0  0  0  0  0  0  0  0  0  0  0
  141.1710   71.5880  226.4050 C   0  0  0  0  0  0  0  0  0  0  0  0
  140.6200   70.8040  227.5640 C   0  0  0  0  0  0  0  0  0  0  0  0
  140.4140   69.3470  227.2820 C   0  0  0  0  0  0  0  0  0  0  0  0
  139.9590   69.1780  225.8520 C   0  0  0  0  0  0  0  0  0  0  0  0
  136.8325   70.9432  225.2061 H   0  0  0  0  0  0  0  0  0  0  0  0
  137.1873   71.7689  223.6508 H   0  0  0  0  0  0  0  0  0  0  0  0
  136.5395   70.0935  223.6508 H   0  0  0  0  0  0  0  0  0  0  0  0
  139.4515   68.5460  223.7818 H   0  0  0  0  0  0  0  0  0  0  0  0
  137.8684   68.9196  222.9006 H   0  0  0  0  0  0  0  0  0  0  0  0
  140.5703   69.2681  222.0374 H   0  0  0  0  0  0  0  0  0  0  0  0
  138.9885   69.4620  221.1638 H   0  0  0  0  0  0  0  0  0  0  0  0
  139.0850   71.8120  222.5120 H   0  0  0  0  0  0  0  0  0  0  0  0
  142.7612   73.3622  220.2587 H   0  0  0  0  0  0  0  0  0  0  0  0
  142.8729   75.8388  220.3247 H   0  0  0  0  0  0  0  0  0  0  0  0
  141.9312   77.9722  220.9955 H   0  0  0  0  0  0  0  0  0  0  0  0
  138.2398   78.0215  223.1755 H   0  0  0  0  0  0  0  0  0  0  0  0
  138.1634   75.5798  223.0941 H   0  0  0  0  0  0  0  0  0  0  0  0
  138.5008   70.6078  226.2029 H   0  0  0  0  0  0  0  0  0  0  0  0
  140.9187   71.2156  224.3086 H   0  0  0  0  0  0  0  0  0  0  0  0
  139.8115   72.4511  224.9852 H   0  0  0  0  0  0  0  0  0  0  0  0
  142.1723   71.2029  226.1618 H   0  0  0  0  0  0  0  0  0  0  0  0
  141.2084   72.6463  226.7026 H   0  0  0  0  0  0  0  0  0  0  0  0
  141.3215   70.8958  228.4063 H   0  0  0  0  0  0  0  0  0  0  0  0
  139.6280   71.2248  227.7851 H   0  0  0  0  0  0  0  0  0  0  0  0
  141.3594   68.8055  227.4338 H   0  0  0  0  0  0  0  0  0  0  0  0
  139.6507   68.9428  227.9631 H   0  0  0  0  0  0  0  0  0  0  0  0
  140.8345   69.0179  225.2055 H   0  0  0  0  0  0  0  0  0  0  0  0
  139.2868   68.3101  225.7822 H   0  0  0  0  0  0  0  0  0  0  0  0
  1  2  1  0
  2  3  1  0
  3  4  1  0
  4  5  1  0
  5  6  1  0
  6  7  2  0
  6  8  1  0
  8  9  2  0
  9 10  1  0
 10 11  2  0
 11 12  1  0
 12 13  2  0
 13 14  1  0
 13 15  1  0
 15 16  2  0
 16 17  1  0
 17 18  2  0
  2 19  1  0
 19 20  1  0
 20 21  1  0
 21 22  1  0
 22 23  1  0
 23 24  1  0
 18  8  1  0
 24 19  1  0
 17 11  1  0
  1 25  1  0
  1 26  1  0
  1 27  1  0
  3 28  1  0
  3 29  1  0
  4 30  1  0
  4 31  1  0
  5 32  1  0
  9 33  1  0
 10 34  1  0
 12 35  1  0
 15 36  1  0
 16 37  1  0
 19 38  1  0
 20 39  1  0
 20 40  1  0
 21 41  1  0
 21 42  1  0
 22 43  1  0
 22 44  1  0
 23 45  1  0
 23 46  1  0
 24 47  1  0
 24 48  1  0
M  END
>  <smiles>  (50) 
CN(CCNC(=O)c1ccc2cc(Cl)ccc2n1)C1CCCCC1

>  <score_type>  (50) 
oracle

>  <origin>  (50) 
autodockgpu

>  <m_score__min__energy>  (50) 
-8.2200000000000006

>  <m_primary>  (50) 
energy

>  <rmsd>  (50) 
8.067391621275172

>  <m_score__min__rmsd>  (50) 
8.067391621275172

>  <meeko>  (50) 
{"free_energy": -6.55, "intermolecular_energy": -8.04, "internal_energy": -1.96, "cluster_size": 22, "cluster_id": 2, "rank_in_cluster": 22}

>  <energy>  (50) 
-6.81

>  <cluster_rmsd>  (50) 
0.0

>  <cluster>  (50) 
5

$$$$
