
     RDKit          3D

 49 52  0  0  0  0  0  0  0  0999 V2000
  141.4830   72.0400  221.6600 O   0  0  0  0  0  0  0  0  0  0  0  0
  140.5020   72.2890  222.4030 C   0  0  0  0  0  0  0  0  0  0  0  0
  139.5740   73.3440  222.1110 N   0  0  0  0  0  0  0  0  0  0  0  0
  139.8170   74.1110  220.9190 C   0  0  0  0  0  0  0  0  0  0  0  0
  140.8890   75.1460  221.1460 C   0  0  0  0  0  0  0  0  0  0  0  0
  141.2530   75.4090  222.3220 O   0  0  0  0  0  0  0  0  0  0  0  0
  141.4350   75.7750  219.9950 N   0  0  0  0  0  0  0  0  0  0  0  0
  141.5400   77.1990  219.7050 C   0  0  0  0  0  0  0  0  0  0  0  0
  142.8690   77.2600  218.9720 C   0  0  2  0  0  0  0  0  0  0  0  0
  142.9700   78.4160  218.2020 O   0  0  0  0  0  0  0  0  0  0  0  0
  142.7870   76.0230  218.1010 C   0  0  0  0  0  0  0  0  0  0  0  0
  141.9970   75.0270  218.8870 C   0  0  1  0  0  0  0  0  0  0  0  0
  142.8490   73.8880  219.3640 C   0  0  0  0  0  0  0  0  0  0  0  0
  142.5060   72.5980  219.0170 C   0  0  0  0  0  0  0  0  0  0  0  0
  143.3150   71.5610  219.4720 C   0  0  0  0  0  0  0  0  0  0  0  0
  144.4360   71.8260  220.2560 C   0  0  0  0  0  0  0  0  0  0  0  0
  144.7740   73.1250  220.6010 C   0  0  0  0  0  0  0  0  0  0  0  0
  146.1950   73.4420  221.5930 Cl  0  0  0  0  0  0  0  0  0  0  0  0
  143.9680   74.1650  220.1470 C   0  0  0  0  0  0  0  0  0  0  0  0
  140.2680   71.4930  223.6200 C   0  0  0  0  0  0  0  0  0  0  0  0
  139.5650   70.3020  223.5140 C   0  0  0  0  0  0  0  0  0  0  0  0
  139.3300   69.5340  224.6290 C   0  0  0  0  0  0  0  0  0  0  0  0
  139.7950   69.9550  225.8520 C   0  0  0  0  0  0  0  0  0  0  0  0
  139.5640   69.1920  226.9780 C   0  0  0  0  0  0  0  0  0  0  0  0
  140.0300   69.6130  228.2080 C   0  0  0  0  0  0  0  0  0  0  0  0
  139.7950   68.8560  229.2930 F   0  0  0  0  0  0  0  0  0  0  0  0
  140.7300   70.7990  228.3100 C   0  0  0  0  0  0  0  0  0  0  0  0
  140.9560   71.5580  227.1730 C   0  0  0  0  0  0  0  0  0  0  0  0
  140.4910   71.1410  225.9450 C   0  0  0  0  0  0  0  0  0  0  0  0
  140.7130   71.8820  224.8280 N   0  0  0  0  0  0  0  0  0  0  0  0
  138.7610   73.5430  222.7360 H   0  0  0  0  0  0  0  0  0  0  0  0
  140.1379   73.4324  220.1149 H   0  0  0  0  0  0  0  0  0  0  0  0
  138.8866   74.6282  220.6418 H   0  0  0  0  0  0  0  0  0  0  0  0
  140.7124   77.5413  219.0663 H   0  0  0  0  0  0  0  0  0  0  0  0
  141.4879   77.8435  220.5949 H   0  0  0  0  0  0  0  0  0  0  0  0
  143.7473   77.2872  219.6336 H   0  0  0  0  0  0  0  0  0  0  0  0
  143.7010   78.9620  218.5870 H   0  0  0  0  0  0  0  0  0  0  0  0
  142.2785   76.2541  217.1534 H   0  0  0  0  0  0  0  0  0  0  0  0
  143.7857   75.6390  217.8459 H   0  0  0  0  0  0  0  0  0  0  0  0
  141.2135   74.5596  218.2724 H   0  0  0  0  0  0  0  0  0  0  0  0
  141.6191   72.3948  218.3988 H   0  0  0  0  0  0  0  0  0  0  0  0
  143.0670   70.5218  219.2101 H   0  0  0  0  0  0  0  0  0  0  0  0
  145.0619   70.9919  220.6062 H   0  0  0  0  0  0  0  0  0  0  0  0
  144.2142   75.2053  220.4062 H   0  0  0  0  0  0  0  0  0  0  0  0
  139.1939   69.9708  222.5329 H   0  0  0  0  0  0  0  0  0  0  0  0
  138.7737   68.5889  224.5434 H   0  0  0  0  0  0  0  0  0  0  0  0
  139.0076   68.2466  226.8959 H   0  0  0  0  0  0  0  0  0  0  0  0
  141.1054   71.1386  229.2866 H   0  0  0  0  0  0  0  0  0  0  0  0
  141.5126   72.5035  227.2517 H   0  0  0  0  0  0  0  0  0  0  0  0
  1  2  2  0
  2  3  1  0
  3  4  1  0
  4  5  1  0
  5  6  2  0
  5  7  1  0
  7  8  1  0
  8  9  1  0
  9 10  1  0
  9 11  1  0
 11 12  1  0
 12 13  1  0
 13 14  2  0
 14 15  1  0
 15 16  2  0
 16 17  1  0
 17 18  1  0
 17 19  2  0
  2 20  1  0
 20 21  2  0
 21 22  1  0
 22 23  2  0
 23 24  1  0
 24 25  2  0
 25 26  1  0
 25 27  1  0
 27 28  2  0
 28 29  1  0
 29 30  2  0
 12  7  1  0
 19 13  1  0
 30 20  1  0
 29 23  1  0
  3 31  1  0
  4 32  1  0
  4 33  1  0
  8 34  1  0
  8 35  1  0
  9 36  1  1
 10 37  1  0
 11 38  1  0
 11 39  1  0
 12 40  1  6
 14 41  1  0
 15 42  1  0
 16 43  1  0
 19 44  1  0
 21 45  1  0
 22 46  1  0
 24 47  1  0
 27 48  1  0
 28 49  1  0
M  END
>  <smiles>  (1) 
O=C(NCC(=O)N1C[C@H](O)C[C@H]1c1cccc(Cl)c1)c1ccc2cc(F)ccc2n1

>  <score_type>  (1) 
oracle

>  <origin>  (1) 
autodockgpu

>  <m_score__min__energy>  (1) 
-8.7799999999999994

>  <m_primary>  (1) 
energy

>  <rmsd>  (1) 
2.2197092521571116

>  <m_score__min__rmsd>  (1) 
2.2197092521571116

>  <meeko>  (1) 
{"free_energy": -8.44, "intermolecular_energy": -10.23, "internal_energy": -1.79, "cluster_size": 29, "cluster_id": 2, "rank_in_cluster": 22}

>  <energy>  (1) 
-8.78

>  <cluster_rmsd>  (1) 
0.0

>  <cluster>  (1) 
1

$$$$

     RDKit          3D

 49 52  0  0  0  0  0  0  0  0999 V2000
  140.2550   71.7560  221.0310 O   0  0  0  0  0  0  0  0  0  0  0  0
  139.9890   72.2880  222.1380 C   0  0  0  0  0  0  0  0  0  0  0  0
  139.7510   73.6970  222.2690 N   0  0  0  0  0  0  0  0  0  0  0  0
  139.8290   74.4820  221.0660 C   0  0  0  0  0  0  0  0  0  0  0  0
  140.8840   75.5520  221.1820 C   0  0  0  0  0  0  0  0  0  0  0  0
  141.2740   75.9130  222.3230 O   0  0  0  0  0  0  0  0  0  0  0  0
  141.3850   76.1020  219.9700 N   0  0  0  0  0  0  0  0  0  0  0  0
  141.5010   77.5030  219.5910 C   0  0  0  0  0  0  0  0  0  0  0  0
  142.7940   77.4930  218.7930 C   0  0  2  0  0  0  0  0  0  0  0  0
  142.8780   78.5990  217.9510 O   0  0  0  0  0  0  0  0  0  0  0  0
  142.6470   76.2090  218.0030 C   0  0  0  0  0  0  0  0  0  0  0  0
  141.8780   75.2770  218.8840 C   0  0  1  0  0  0  0  0  0  0  0  0
  142.7310   74.1510  219.3870 C   0  0  0  0  0  0  0  0  0  0  0  0
  142.2950   72.8530  219.2290 C   0  0  0  0  0  0  0  0  0  0  0  0
  143.1060   71.8270  219.7030 C   0  0  0  0  0  0  0  0  0  0  0  0
  144.3230   72.1110  220.3200 C   0  0  0  0  0  0  0  0  0  0  0  0
  144.7550   73.4200  220.4760 C   0  0  0  0  0  0  0  0  0  0  0  0
  146.2960   73.7620  221.2580 Cl  0  0  0  0  0  0  0  0  0  0  0  0
  143.9460   74.4470  220.0020 C   0  0  0  0  0  0  0  0  0  0  0  0
  139.9140   71.4670  223.3580 C   0  0  0  0  0  0  0  0  0  0  0  0
  139.3070   70.2210  223.2890 C   0  0  0  0  0  0  0  0  0  0  0  0
  139.2190   69.4290  224.4080 C   0  0  0  0  0  0  0  0  0  0  0  0
  139.7360   69.8810  225.5990 C   0  0  0  0  0  0  0  0  0  0  0  0
  139.6530   69.0940  226.7290 C   0  0  0  0  0  0  0  0  0  0  0  0
  140.1720   69.5450  227.9280 C   0  0  0  0  0  0  0  0  0  0  0  0
  140.0800   68.7640  229.0170 F   0  0  0  0  0  0  0  0  0  0  0  0
  140.7740   70.7850  227.9940 C   0  0  0  0  0  0  0  0  0  0  0  0
  140.8530   71.5680  226.8520 C   0  0  0  0  0  0  0  0  0  0  0  0
  140.3350   71.1200  225.6570 C   0  0  0  0  0  0  0  0  0  0  0  0
  140.4110   71.8840  224.5360 N   0  0  0  0  0  0  0  0  0  0  0  0
  139.5320   74.1280  223.1940 H   0  0  0  0  0  0  0  0  0  0  0  0
  140.0784   73.8219  220.2222 H   0  0  0  0  0  0  0  0  0  0  0  0
  138.8558   74.9681  220.9031 H   0  0  0  0  0  0  0  0  0  0  0  0
  140.6496   77.8242  218.9731 H   0  0  0  0  0  0  0  0  0  0  0  0
  141.5038   78.1998  220.4421 H   0  0  0  0  0  0  0  0  0  0  0  0
  143.7040   77.5411  219.4091 H   0  0  0  0  0  0  0  0  0  0  0  0
  143.7440   78.5380  217.4730 H   0  0  0  0  0  0  0  0  0  0  0  0
  142.0972   76.3946  217.0685 H   0  0  0  0  0  0  0  0  0  0  0  0
  143.6251   75.7897  217.7245 H   0  0  0  0  0  0  0  0  0  0  0  0
  141.0573   74.7897  218.3372 H   0  0  0  0  0  0  0  0  0  0  0  0
  141.3332   72.6347  218.7420 H   0  0  0  0  0  0  0  0  0  0  0  0
  142.7837   70.7814  219.5897 H   0  0  0  0  0  0  0  0  0  0  0  0
  144.9498   71.2856  220.6885 H   0  0  0  0  0  0  0  0  0  0  0  0
  144.2654   75.4938  220.1126 H   0  0  0  0  0  0  0  0  0  0  0  0
  138.8942   69.8657  222.3333 H   0  0  0  0  0  0  0  0  0  0  0  0
  138.7387   68.4410  224.3515 H   0  0  0  0  0  0  0  0  0  0  0  0
  139.1729   68.1057  226.6757 H   0  0  0  0  0  0  0  0  0  0  0  0
  141.1882   71.1498  228.9455 H   0  0  0  0  0  0  0  0  0  0  0  0
  141.3339   72.5561  226.9011 H   0  0  0  0  0  0  0  0  0  0  0  0
  1  2  2  0
  2  3  1  0
  3  4  1  0
  4  5  1  0
  5  6  2  0
  5  7  1  0
  7  8  1  0
  8  9  1  0
  9 10  1  0
  9 11  1  0
 11 12  1  0
 12 13  1  0
 13 14  2  0
 14 15  1  0
 15 16  2  0
 16 17  1  0
 17 18  1  0
 17 19  2  0
  2 20  1  0
 20 21  2  0
 21 22  1  0
 22 23  2  0
 23 24  1  0
 24 25  2  0
 25 26  1  0
 25 27  1  0
 27 28  2  0
 28 29  1  0
 29 30  2  0
 12  7  1  0
 19 13  1  0
 30 20  1  0
 29 23  1  0
  3 31  1  0
  4 32  1  0
  4 33  1  0
  8 34  1  0
  8 35  1  0
  9 36  1  1
 10 37  1  0
 11 38  1  0
 11 39  1  0
 12 40  1  6
 14 41  1  0
 15 42  1  0
 16 43  1  0
 19 44  1  0
 21 45  1  0
 22 46  1  0
 24 47  1  0
 27 48  1  0
 28 49  1  0
M  END
>  <smiles>  (2) 
O=C(NCC(=O)N1C[C@H](O)C[C@H]1c1cccc(Cl)c1)c1ccc2cc(F)ccc2n1

>  <score_type>  (2) 
oracle

>  <origin>  (2) 
autodockgpu

>  <m_score__min__energy>  (2) 
-8.7799999999999994

>  <m_primary>  (2) 
energy

>  <rmsd>  (2) 
2.1399452538321384

>  <m_score__min__rmsd>  (2) 
2.1399452538321384

>  <meeko>  (2) 
{"free_energy": -8.48, "intermolecular_energy": -10.27, "internal_energy": -1.97, "cluster_size": 29, "cluster_id": 2, "rank_in_cluster": 20}

>  <energy>  (2) 
-8.76

>  <cluster_rmsd>  (2) 
0.05

>  <cluster>  (2) 
1

$$$$

     RDKit          3D

 49 52  0  0  0  0  0  0  0  0999 V2000
  141.2070   72.0580  221.2930 O   0  0  0  0  0  0  0  0  0  0  0  0
  140.3940   72.4260  222.1770 C   0  0  0  0  0  0  0  0  0  0  0  0
  139.6320   73.6350  222.0530 N   0  0  0  0  0  0  0  0  0  0  0  0
  139.8400   74.4150  220.8630 C   0  0  0  0  0  0  0  0  0  0  0  0
  140.9870   75.3780  221.0360 C   0  0  0  0  0  0  0  0  0  0  0  0
  141.4500   75.5840  222.1870 O   0  0  0  0  0  0  0  0  0  0  0  0
  141.4860   76.0070  219.8630 N   0  0  0  0  0  0  0  0  0  0  0  0
  141.5580   77.4290  219.5590 C   0  0  0  0  0  0  0  0  0  0  0  0
  142.8620   77.5070  218.7840 C   0  0  2  0  0  0  0  0  0  0  0  0
  142.9190   78.6580  218.0020 O   0  0  0  0  0  0  0  0  0  0  0  0
  142.7730   76.2620  217.9250 C   0  0  0  0  0  0  0  0  0  0  0  0
  142.0250   75.2590  218.7440 C   0  0  1  0  0  0  0  0  0  0  0  0
  142.9110   74.1380  219.2010 C   0  0  0  0  0  0  0  0  0  0  0  0
  142.5940   72.8430  218.8510 C   0  0  0  0  0  0  0  0  0  0  0  0
  143.4340   71.8230  219.2880 C   0  0  0  0  0  0  0  0  0  0  0  0
  144.5590   72.1100  220.0590 C   0  0  0  0  0  0  0  0  0  0  0  0
  144.8700   73.4150  220.4070 C   0  0  0  0  0  0  0  0  0  0  0  0
  146.2970   73.7600  221.3820 Cl  0  0  0  0  0  0  0  0  0  0  0  0
  144.0330   74.4370  219.9710 C   0  0  0  0  0  0  0  0  0  0  0  0
  140.1940   71.6150  223.3890 C   0  0  0  0  0  0  0  0  0  0  0  0
  139.4480   70.4480  223.2970 C   0  0  0  0  0  0  0  0  0  0  0  0
  139.2420   69.6660  224.4070 C   0  0  0  0  0  0  0  0  0  0  0  0
  139.7790   70.0490  225.6130 C   0  0  0  0  0  0  0  0  0  0  0  0
  139.5770   69.2730  226.7360 C   0  0  0  0  0  0  0  0  0  0  0  0
  140.1160   69.6550  227.9490 C   0  0  0  0  0  0  0  0  0  0  0  0
  139.9090   68.8850  229.0300 F   0  0  0  0  0  0  0  0  0  0  0  0
  140.8570   70.8160  228.0380 C   0  0  0  0  0  0  0  0  0  0  0  0
  141.0540   71.5890  226.9050 C   0  0  0  0  0  0  0  0  0  0  0  0
  140.5170   71.2100  225.6940 C   0  0  0  0  0  0  0  0  0  0  0  0
  140.7080   71.9650  224.5810 N   0  0  0  0  0  0  0  0  0  0  0  0
  138.9590   73.9320  222.7940 H   0  0  0  0  0  0  0  0  0  0  0  0
  140.0629   73.7384  220.0249 H   0  0  0  0  0  0  0  0  0  0  0  0
  138.9265   74.9938  220.6618 H   0  0  0  0  0  0  0  0  0  0  0  0
  140.7051   77.7522  218.9441 H   0  0  0  0  0  0  0  0  0  0  0  0
  141.5233   78.0796  220.4453 H   0  0  0  0  0  0  0  0  0  0  0  0
  143.7600   77.5547  219.4175 H   0  0  0  0  0  0  0  0  0  0  0  0
  143.7770   78.6340  217.5070 H   0  0  0  0  0  0  0  0  0  0  0  0
  142.2306   76.4772  216.9925 H   0  0  0  0  0  0  0  0  0  0  0  0
  143.7693   75.8925  217.6405 H   0  0  0  0  0  0  0  0  0  0  0  0
  141.2299   74.7732  218.1593 H   0  0  0  0  0  0  0  0  0  0  0  0
  141.7034   72.6223  218.2442 H   0  0  0  0  0  0  0  0  0  0  0  0
  143.2077   70.7799  219.0222 H   0  0  0  0  0  0  0  0  0  0  0  0
  145.2092   71.2893  220.3961 H   0  0  0  0  0  0  0  0  0  0  0  0
  144.2570   75.4813  220.2342 H   0  0  0  0  0  0  0  0  0  0  0  0
  139.0194   70.1478  222.3294 H   0  0  0  0  0  0  0  0  0  0  0  0
  138.6521   68.7406  224.3316 H   0  0  0  0  0  0  0  0  0  0  0  0
  138.9855   68.3483  226.6650 H   0  0  0  0  0  0  0  0  0  0  0  0
  141.2881   71.1255  229.0015 H   0  0  0  0  0  0  0  0  0  0  0  0
  141.6449   72.5143  226.9730 H   0  0  0  0  0  0  0  0  0  0  0  0
  1  2  2  0
  2  3  1  0
  3  4  1  0
  4  5  1  0
  5  6  2  0
  5  7  1  0
  7  8  1  0
  8  9  1  0
  9 10  1  0
  9 11  1  0
 11 12  1  0
 12 13  1  0
 13 14  2  0
 14 15  1  0
 15 16  2  0
 16 17  1  0
 17 18  1  0
 17 19  2  0
  2 20  1  0
 20 21  2  0
 21 22  1  0
 22 23  2  0
 23 24  1  0
 24 25  2  0
 25 26  1  0
 25 27  1  0
 27 28  2  0
 28 29  1  0
 29 30  2  0
 12  7  1  0
 19 13  1  0
 30 20  1  0
 29 23  1  0
  3 31  1  0
  4 32  1  0
  4 33  1  0
  8 34  1  0
  8 35  1  0
  9 36  1  1
 10 37  1  0
 11 38  1  0
 11 39  1  0
 12 40  1  6
 14 41  1  0
 15 42  1  0
 16 43  1  0
 19 44  1  0
 21 45  1  0
 22 46  1  0
 24 47  1  0
 27 48  1  0
 28 49  1  0
M  END
>  <smiles>  (3) 
O=C(NCC(=O)N1C[C@H](O)C[C@H]1c1cccc(Cl)c1)c1ccc2cc(F)ccc2n1

>  <score_type>  (3) 
oracle

>  <origin>  (3) 
autodockgpu

>  <m_score__min__energy>  (3) 
-8.7799999999999994

>  <m_primary>  (3) 
energy

>  <rmsd>  (3) 
2.2273434908912

>  <m_score__min__rmsd>  (3) 
2.2273434908912

>  <meeko>  (3) 
{"free_energy": -8.55, "intermolecular_energy": -10.34, "internal_energy": -1.81, "cluster_size": 29, "cluster_id": 2, "rank_in_cluster": 8}

>  <energy>  (3) 
-8.73

>  <cluster_rmsd>  (3) 
0.13

>  <cluster>  (3) 
1

$$$$

     RDKit          3D

 49 52  0  0  0  0  0  0  0  0999 V2000
  141.0360   71.9000  221.1020 O   0  0  0  0  0  0  0  0  0  0  0  0
  140.3760   72.3550  222.0690 C   0  0  0  0  0  0  0  0  0  0  0  0
  139.7630   73.6510  222.0300 N   0  0  0  0  0  0  0  0  0  0  0  0
  139.9380   74.4160  220.8250 C   0  0  0  0  0  0  0  0  0  0  0  0
  141.0360   75.4370  220.9820 C   0  0  0  0  0  0  0  0  0  0  0  0
  141.4460   75.7280  222.1350 O   0  0  0  0  0  0  0  0  0  0  0  0
  141.5520   76.0200  219.7930 N   0  0  0  0  0  0  0  0  0  0  0  0
  141.4130   77.3910  219.3220 C   0  0  0  0  0  0  0  0  0  0  0  0
  142.7650   77.6260  218.6710 C   0  0  2  0  0  0  0  0  0  0  0  0
  142.7140   78.6790  217.7620 O   0  0  0  0  0  0  0  0  0  0  0  0
  142.9930   76.3020  217.9710 C   0  0  0  0  0  0  0  0  0  0  0  0
  142.3390   75.2700  218.8330 C   0  0  1  0  0  0  0  0  0  0  0  0
  143.3450   74.3880  219.5090 C   0  0  0  0  0  0  0  0  0  0  0  0
  144.3660   74.9630  220.2360 C   0  0  0  0  0  0  0  0  0  0  0  0
  145.2850   74.1210  220.8550 C   0  0  0  0  0  0  0  0  0  0  0  0
  145.1710   72.7370  220.7370 C   0  0  0  0  0  0  0  0  0  0  0  0
  144.1420   72.1660  220.0040 C   0  0  0  0  0  0  0  0  0  0  0  0
  144.0130   70.4140  219.8650 Cl  0  0  0  0  0  0  0  0  0  0  0  0
  143.2210   73.0050  219.3850 C   0  0  0  0  0  0  0  0  0  0  0  0
  140.2070   71.5570  223.2950 C   0  0  0  0  0  0  0  0  0  0  0  0
  139.5600   70.3320  223.2120 C   0  0  0  0  0  0  0  0  0  0  0  0
  139.3850   69.5620  224.3350 C   0  0  0  0  0  0  0  0  0  0  0  0
  139.8560   70.0130  225.5450 C   0  0  0  0  0  0  0  0  0  0  0  0
  139.6850   69.2480  226.6810 C   0  0  0  0  0  0  0  0  0  0  0  0
  140.1570   69.6990  227.8980 C   0  0  0  0  0  0  0  0  0  0  0  0
  139.9810   68.9400  228.9920 F   0  0  0  0  0  0  0  0  0  0  0  0
  140.8000   70.9180  227.9780 C   0  0  0  0  0  0  0  0  0  0  0  0
  140.9660   71.6790  226.8320 C   0  0  0  0  0  0  0  0  0  0  0  0
  140.4960   71.2310  225.6170 C   0  0  0  0  0  0  0  0  0  0  0  0
  140.6580   71.9740  224.4910 N   0  0  0  0  0  0  0  0  0  0  0  0
  139.2160   74.0190  222.8400 H   0  0  0  0  0  0  0  0  0  0  0  0
  140.1971   73.7342  220.0016 H   0  0  0  0  0  0  0  0  0  0  0  0
  138.9983   74.9455  220.6090 H   0  0  0  0  0  0  0  0  0  0  0  0
  140.5944   77.4845  218.5932 H   0  0  0  0  0  0  0  0  0  0  0  0
  141.1643   78.1139  220.1129 H   0  0  0  0  0  0  0  0  0  0  0  0
  143.5620   77.9055  219.3758 H   0  0  0  0  0  0  0  0  0  0  0  0
  143.6450   78.8760  217.4890 H   0  0  0  0  0  0  0  0  0  0  0  0
  142.5345   76.3130  216.9712 H   0  0  0  0  0  0  0  0  0  0  0  0
  144.0645   76.0954  217.8327 H   0  0  0  0  0  0  0  0  0  0  0  0
  141.7137   74.5861  218.2403 H   0  0  0  0  0  0  0  0  0  0  0  0
  144.4516   76.0561  220.3241 H   0  0  0  0  0  0  0  0  0  0  0  0
  146.1090   74.5518  221.4428 H   0  0  0  0  0  0  0  0  0  0  0  0
  145.9082   72.0882  221.2327 H   0  0  0  0  0  0  0  0  0  0  0  0
  142.3950   72.5772  218.7978 H   0  0  0  0  0  0  0  0  0  0  0  0
  139.1853   69.9761  222.2410 H   0  0  0  0  0  0  0  0  0  0  0  0
  138.8717   68.5915  224.2670 H   0  0  0  0  0  0  0  0  0  0  0  0
  139.1718   68.2772  226.6169 H   0  0  0  0  0  0  0  0  0  0  0  0
  141.1779   71.2826  228.9446 H   0  0  0  0  0  0  0  0  0  0  0  0
  141.4782   72.6506  226.8930 H   0  0  0  0  0  0  0  0  0  0  0  0
  1  2  2  0
  2  3  1  0
  3  4  1  0
  4  5  1  0
  5  6  2  0
  5  7  1  0
  7  8  1  0
  8  9  1  0
  9 10  1  0
  9 11  1  0
 11 12  1  0
 12 13  1  0
 13 14  2  0
 14 15  1  0
 15 16  2  0
 16 17  1  0
 17 18  1  0
 17 19  2  0
  2 20  1  0
 20 21  2  0
 21 22  1  0
 22 23  2  0
 23 24  1  0
 24 25  2  0
 25 26  1  0
 25 27  1  0
 27 28  2  0
 28 29  1  0
 29 30  2  0
 12  7  1  0
 19 13  1  0
 30 20  1  0
 29 23  1  0
  3 31  1  0
  4 32  1  0
  4 33  1  0
  8 34  1  0
  8 35  1  0
  9 36  1  1
 10 37  1  0
 11 38  1  0
 11 39  1  0
 12 40  1  6
 14 41  1  0
 15 42  1  0
 16 43  1  0
 19 44  1  0
 21 45  1  0
 22 46  1  0
 24 47  1  0
 27 48  1  0
 28 49  1  0
M  END
>  <smiles>  (4) 
O=C(NCC(=O)N1C[C@H](O)C[C@H]1c1cccc(Cl)c1)c1ccc2cc(F)ccc2n1

>  <score_type>  (4) 
oracle

>  <origin>  (4) 
autodockgpu

>  <m_score__min__energy>  (4) 
-8.7799999999999994

>  <m_primary>  (4) 
energy

>  <rmsd>  (4) 
2.1959293686055306

>  <m_score__min__rmsd>  (4) 
2.1959293686055306

>  <meeko>  (4) 
{"free_energy": -8.61, "intermolecular_energy": -10.4, "internal_energy": -1.88, "cluster_size": 29, "cluster_id": 2, "rank_in_cluster": 5}

>  <energy>  (4) 
-8.73

>  <cluster_rmsd>  (4) 
1.12

>  <cluster>  (4) 
1

$$$$

     RDKit          3D

 49 52  0  0  0  0  0  0  0  0999 V2000
  139.9350   73.6710  222.5020 O   0  0  0  0  0  0  0  0  0  0  0  0
  140.1430   72.4420  222.3420 C   0  0  0  0  0  0  0  0  0  0  0  0
  140.4010   71.8750  221.0500 N   0  0  0  0  0  0  0  0  0  0  0  0
  140.4130   72.7820  219.9340 C   0  0  0  0  0  0  0  0  0  0  0  0
  141.6110   72.5460  219.0520 C   0  0  0  0  0  0  0  0  0  0  0  0
  141.4440   72.3760  217.8170 O   0  0  0  0  0  0  0  0  0  0  0  0
  142.8860   72.5290  219.6820 N   0  0  0  0  0  0  0  0  0  0  0  0
  144.0110   71.6400  219.4280 C   0  0  0  0  0  0  0  0  0  0  0  0
  145.1880   72.5800  219.6250 C   0  0  2  0  0  0  0  0  0  0  0  0
  146.3600   71.8750  219.8850 O   0  0  0  0  0  0  0  0  0  0  0  0
  144.7390   73.3710  220.8360 C   0  0  0  0  0  0  0  0  0  0  0  0
  143.2510   73.4620  220.7310 C   0  0  1  0  0  0  0  0  0  0  0  0
  142.7970   74.8560  220.4150 C   0  0  0  0  0  0  0  0  0  0  0  0
  143.3710   75.5280  219.3560 C   0  0  0  0  0  0  0  0  0  0  0  0
  142.9310   76.8200  219.0850 C   0  0  0  0  0  0  0  0  0  0  0  0
  141.9390   77.4110  219.8650 C   0  0  0  0  0  0  0  0  0  0  0  0
  141.3670   76.7290  220.9280 C   0  0  0  0  0  0  0  0  0  0  0  0
  140.1140   77.4920  221.9040 Cl  0  0  0  0  0  0  0  0  0  0  0  0
  141.8040   75.4370  221.2020 C   0  0  0  0  0  0  0  0  0  0  0  0
  140.1270   71.5290  223.4970 C   0  0  0  0  0  0  0  0  0  0  0  0
  139.5980   70.2560  223.3360 C   0  0  0  0  0  0  0  0  0  0  0  0
  139.5680   69.3780  224.3920 C   0  0  0  0  0  0  0  0  0  0  0  0
  140.0650   69.7700  225.6120 C   0  0  0  0  0  0  0  0  0  0  0  0
  140.0390   68.8960  226.6800 C   0  0  0  0  0  0  0  0  0  0  0  0
  140.5380   69.2870  227.9070 C   0  0  0  0  0  0  0  0  0  0  0  0
  140.5030   68.4220  228.9350 F   0  0  0  0  0  0  0  0  0  0  0  0
  141.0630   70.5540  228.0650 C   0  0  0  0  0  0  0  0  0  0  0  0
  141.0840   71.4230  226.9860 C   0  0  0  0  0  0  0  0  0  0  0  0
  140.5870   71.0360  225.7620 C   0  0  0  0  0  0  0  0  0  0  0  0
  140.6070   71.8860  224.7020 N   0  0  0  0  0  0  0  0  0  0  0  0
  140.5720   70.8520  220.9290 H   0  0  0  0  0  0  0  0  0  0  0  0
  139.4974   72.6347  219.3423 H   0  0  0  0  0  0  0  0  0  0  0  0
  140.4636   73.8101  220.3218 H   0  0  0  0  0  0  0  0  0  0  0  0
  144.0362   70.8079  220.1469 H   0  0  0  0  0  0  0  0  0  0  0  0
  143.9851   71.1532  218.4419 H   0  0  0  0  0  0  0  0  0  0  0  0
  145.4233   73.1984  218.7463 H   0  0  0  0  0  0  0  0  0  0  0  0
  146.2960   71.5310  220.8130 H   0  0  0  0  0  0  0  0  0  0  0  0
  145.0270   72.8514  221.7618 H   0  0  0  0  0  0  0  0  0  0  0  0
  145.2054   74.3668  220.8661 H   0  0  0  0  0  0  0  0  0  0  0  0
  142.7635   73.2130  221.6851 H   0  0  0  0  0  0  0  0  0  0  0  0
  144.1537   75.0564  218.7436 H   0  0  0  0  0  0  0  0  0  0  0  0
  143.3706   77.3804  218.2467 H   0  0  0  0  0  0  0  0  0  0  0  0
  141.6049   78.4333  219.6341 H   0  0  0  0  0  0  0  0  0  0  0  0
  141.3661   74.8741  222.0394 H   0  0  0  0  0  0  0  0  0  0  0  0
  139.2006   69.9485  222.3575 H   0  0  0  0  0  0  0  0  0  0  0  0
  139.1495   68.3690  224.2622 H   0  0  0  0  0  0  0  0  0  0  0  0
  139.6203   67.8867  226.5537 H   0  0  0  0  0  0  0  0  0  0  0  0
  141.4616   70.8712  229.0400 H   0  0  0  0  0  0  0  0  0  0  0  0
  141.5023   72.4329  227.1088 H   0  0  0  0  0  0  0  0  0  0  0  0
  1  2  2  0
  2  3  1  0
  3  4  1  0
  4  5  1  0
  5  6  2  0
  5  7  1  0
  7  8  1  0
  8  9  1  0
  9 10  1  0
  9 11  1  0
 11 12  1  0
 12 13  1  0
 13 14  2  0
 14 15  1  0
 15 16  2  0
 16 17  1  0
 17 18  1  0
 17 19  2  0
  2 20  1  0
 20 21  2  0
 21 22  1  0
 22 23  2  0
 23 24  1  0
 24 25  2  0
 25 26  1  0
 25 27  1  0
 27 28  2  0
 28 29  1  0
 29 30  2  0
 12  7  1  0
 19 13  1  0
 30 20  1  0
 29 23  1  0
  3 31  1  0
  4 32  1  0
  4 33  1  0
  8 34  1  0
  8 35  1  0
  9 36  1  6
 10 37  1  0
 11 38  1  0
 11 39  1  0
 12 40  1  1
 14 41  1  0
 15 42  1  0
 16 43  1  0
 19 44  1  0
 21 45  1  0
 22 46  1  0
 24 47  1  0
 27 48  1  0
 28 49  1  0
M  END
>  <smiles>  (5) 
O=C(NCC(=O)N1C[C@H](O)C[C@H]1c1cccc(Cl)c1)c1ccc2cc(F)ccc2n1

>  <score_type>  (5) 
oracle

>  <origin>  (5) 
autodockgpu

>  <m_score__min__energy>  (5) 
-8.7799999999999994

>  <m_primary>  (5) 
energy

>  <rmsd>  (5) 
3.608974579875421

>  <m_score__min__rmsd>  (5) 
3.608974579875421

>  <meeko>  (5) 
{"free_energy": -8.72, "intermolecular_energy": -10.51, "internal_energy": -1.66, "cluster_size": 11, "cluster_id": 1, "rank_in_cluster": 5}

>  <energy>  (5) 
-8.72

>  <cluster_rmsd>  (5) 
0.13

>  <cluster>  (5) 
1

$$$$

     RDKit          3D

 49 52  0  0  0  0  0  0  0  0999 V2000
  140.7050   71.7090  221.0450 O   0  0  0  0  0  0  0  0  0  0  0  0
  140.3050   72.2500  222.1060 C   0  0  0  0  0  0  0  0  0  0  0  0
  139.9410   73.6360  222.1650 N   0  0  0  0  0  0  0  0  0  0  0  0
  140.0540   74.3880  220.9440 C   0  0  0  0  0  0  0  0  0  0  0  0
  141.0350   75.5230  221.0920 C   0  0  0  0  0  0  0  0  0  0  0  0
  141.3530   75.9170  222.2440 O   0  0  0  0  0  0  0  0  0  0  0  0
  141.5540   76.0900  219.8960 N   0  0  0  0  0  0  0  0  0  0  0  0
  141.4540   77.4660  219.4290 C   0  0  0  0  0  0  0  0  0  0  0  0
  142.8040   77.6560  218.7590 C   0  0  2  0  0  0  0  0  0  0  0  0
  142.7750   78.7110  217.8510 O   0  0  0  0  0  0  0  0  0  0  0  0
  142.9760   76.3260  218.0530 C   0  0  0  0  0  0  0  0  0  0  0  0
  142.3000   75.3160  218.9230 C   0  0  1  0  0  0  0  0  0  0  0  0
  143.2850   74.3980  219.5840 C   0  0  0  0  0  0  0  0  0  0  0  0
  144.3790   74.9350  220.2290 C   0  0  0  0  0  0  0  0  0  0  0  0
  145.2760   74.0610  220.8340 C   0  0  0  0  0  0  0  0  0  0  0  0
  145.0700   72.6830  220.7840 C   0  0  0  0  0  0  0  0  0  0  0  0
  143.9680   72.1510  220.1320 C   0  0  0  0  0  0  0  0  0  0  0  0
  143.7220   70.4070  220.0790 Cl  0  0  0  0  0  0  0  0  0  0  0  0
  143.0680   73.0230  219.5270 C   0  0  0  0  0  0  0  0  0  0  0  0
  140.1950   71.4630  223.3470 C   0  0  0  0  0  0  0  0  0  0  0  0
  139.5730   70.2230  223.2990 C   0  0  0  0  0  0  0  0  0  0  0  0
  139.4540   69.4630  224.4360 C   0  0  0  0  0  0  0  0  0  0  0  0
  139.9550   69.9390  225.6250 C   0  0  0  0  0  0  0  0  0  0  0  0
  139.8400   69.1840  226.7740 C   0  0  0  0  0  0  0  0  0  0  0  0
  140.3430   69.6600  227.9690 C   0  0  0  0  0  0  0  0  0  0  0  0
  140.2210   68.9100  229.0770 F   0  0  0  0  0  0  0  0  0  0  0  0
  140.9610   70.8940  228.0140 C   0  0  0  0  0  0  0  0  0  0  0  0
  141.0710   71.6440  226.8540 C   0  0  0  0  0  0  0  0  0  0  0  0
  140.5700   71.1720  225.6610 C   0  0  0  0  0  0  0  0  0  0  0  0
  140.6770   71.9050  224.5220 N   0  0  0  0  0  0  0  0  0  0  0  0
  139.6100   74.0750  223.0520 H   0  0  0  0  0  0  0  0  0  0  0  0
  140.3975   73.7192  220.1411 H   0  0  0  0  0  0  0  0  0  0  0  0
  139.0673   74.8096  220.7018 H   0  0  0  0  0  0  0  0  0  0  0  0
  140.6287   77.5883  218.7122 H   0  0  0  0  0  0  0  0  0  0  0  0
  141.2408   78.1956  220.2241 H   0  0  0  0  0  0  0  0  0  0  0  0
  143.6199   77.9070  219.4528 H   0  0  0  0  0  0  0  0  0  0  0  0
  143.6890   78.8040  217.4800 H   0  0  0  0  0  0  0  0  0  0  0  0
  142.5032   76.3548  217.0602 H   0  0  0  0  0  0  0  0  0  0  0  0
  144.0375   76.0829  217.8980 H   0  0  0  0  0  0  0  0  0  0  0  0
  141.6431   74.6557  218.3377 H   0  0  0  0  0  0  0  0  0  0  0  0
  144.5377   76.0229  220.2641 H   0  0  0  0  0  0  0  0  0  0  0  0
  146.1570   74.4611  221.3573 H   0  0  0  0  0  0  0  0  0  0  0  0
  145.7916   72.0087  221.2684 H   0  0  0  0  0  0  0  0  0  0  0  0
  142.1853   72.6267  219.0038 H   0  0  0  0  0  0  0  0  0  0  0  0
  139.1735   69.8475  222.3453 H   0  0  0  0  0  0  0  0  0  0  0  0
  138.9614   68.4803  224.3963 H   0  0  0  0  0  0  0  0  0  0  0  0
  139.3469   68.2014  226.7383 H   0  0  0  0  0  0  0  0  0  0  0  0
  141.3628   71.2786  228.9631 H   0  0  0  0  0  0  0  0  0  0  0  0
  141.5638   72.6269  226.8863 H   0  0  0  0  0  0  0  0  0  0  0  0
  1  2  2  0
  2  3  1  0
  3  4  1  0
  4  5  1  0
  5  6  2  0
  5  7  1  0
  7  8  1  0
  8  9  1  0
  9 10  1  0
  9 11  1  0
 11 12  1  0
 12 13  1  0
 13 14  2  0
 14 15  1  0
 15 16  2  0
 16 17  1  0
 17 18  1  0
 17 19  2  0
  2 20  1  0
 20 21  2  0
 21 22  1  0
 22 23  2  0
 23 24  1  0
 24 25  2  0
 25 26  1  0
 25 27  1  0
 27 28  2  0
 28 29  1  0
 29 30  2  0
 12  7  1  0
 19 13  1  0
 30 20  1  0
 29 23  1  0
  3 31  1  0
  4 32  1  0
  4 33  1  0
  8 34  1  0
  8 35  1  0
  9 36  1  1
 10 37  1  0
 11 38  1  0
 11 39  1  0
 12 40  1  6
 14 41  1  0
 15 42  1  0
 16 43  1  0
 19 44  1  0
 21 45  1  0
 22 46  1  0
 24 47  1  0
 27 48  1  0
 28 49  1  0
M  END
>  <smiles>  (6) 
O=C(NCC(=O)N1C[C@H](O)C[C@H]1c1cccc(Cl)c1)c1ccc2cc(F)ccc2n1

>  <score_type>  (6) 
oracle

>  <origin>  (6) 
autodockgpu

>  <m_score__min__energy>  (6) 
-8.7799999999999994

>  <m_primary>  (6) 
energy

>  <rmsd>  (6) 
2.1985353742453473

>  <m_score__min__rmsd>  (6) 
2.1985353742453473

>  <meeko>  (6) 
{"free_energy": -8.57, "intermolecular_energy": -10.36, "internal_energy": -2.03, "cluster_size": 29, "cluster_id": 2, "rank_in_cluster": 7}

>  <energy>  (6) 
-8.72

>  <cluster_rmsd>  (6) 
0.12

>  <cluster>  (6) 
1

$$$$

     RDKit          3D

 49 52  0  0  0  0  0  0  0  0999 V2000
  138.7030   75.6050  221.7030 O   0  0  0  0  0  0  0  0  0  0  0  0
  139.8990   75.9490  221.8790 C   0  0  0  0  0  0  0  0  0  0  0  0
  140.9940   75.0640  221.6030 N   0  0  0  0  0  0  0  0  0  0  0  0
  140.6620   73.7540  221.1120 C   0  0  0  0  0  0  0  0  0  0  0  0
  141.5210   73.3800  219.9320 C   0  0  0  0  0  0  0  0  0  0  0  0
  140.9740   73.1150  218.8310 O   0  0  0  0  0  0  0  0  0  0  0  0
  142.9270   73.3490  220.1390 N   0  0  0  0  0  0  0  0  0  0  0  0
  143.8040   72.1900  220.2290 C   0  0  0  0  0  0  0  0  0  0  0  0
  145.0600   72.7080  219.5500 C   0  0  2  0  0  0  0  0  0  0  0  0
  146.1770   71.9600  219.9120 O   0  0  0  0  0  0  0  0  0  0  0  0
  145.1370   74.1170  220.1010 C   0  0  0  0  0  0  0  0  0  0  0  0
  143.7200   74.5520  220.2980 C   0  0  1  0  0  0  0  0  0  0  0  0
  143.3190   75.6130  219.3170 C   0  0  0  0  0  0  0  0  0  0  0  0
  143.5160   75.3940  217.9700 C   0  0  0  0  0  0  0  0  0  0  0  0
  143.1340   76.3940  217.0810 C   0  0  0  0  0  0  0  0  0  0  0  0
  142.5710   77.5810  217.5470 C   0  0  0  0  0  0  0  0  0  0  0  0
  142.3770   77.7940  218.9030 C   0  0  0  0  0  0  0  0  0  0  0  0
  141.6640   79.3010  219.4740 Cl  0  0  0  0  0  0  0  0  0  0  0  0
  142.7570   76.7960  219.7940 C   0  0  0  0  0  0  0  0  0  0  0  0
  140.2200   77.2950  222.3820 C   0  0  0  0  0  0  0  0  0  0  0  0
  139.1810   78.1280  222.7720 C   0  0  0  0  0  0  0  0  0  0  0  0
  139.4440   79.3900  223.2470 C   0  0  0  0  0  0  0  0  0  0  0  0
  140.7460   79.8230  223.3330 C   0  0  0  0  0  0  0  0  0  0  0  0
  141.0220   81.0890  223.8070 C   0  0  0  0  0  0  0  0  0  0  0  0
  142.3290   81.5270  223.8940 C   0  0  0  0  0  0  0  0  0  0  0  0
  142.5770   82.7620  224.3590 F   0  0  0  0  0  0  0  0  0  0  0  0
  143.3610   80.6960  223.5060 C   0  0  0  0  0  0  0  0  0  0  0  0
  143.0720   79.4270  223.0300 C   0  0  0  0  0  0  0  0  0  0  0  0
  141.7700   78.9880  222.9420 C   0  0  0  0  0  0  0  0  0  0  0  0
  141.4840   77.7440  222.4770 N   0  0  0  0  0  0  0  0  0  0  0  0
  141.9840   75.3600  221.7530 H   0  0  0  0  0  0  0  0  0  0  0  0
  140.8175   73.0195  221.9160 H   0  0  0  0  0  0  0  0  0  0  0  0
  139.6104   73.7594  220.7893 H   0  0  0  0  0  0  0  0  0  0  0  0
  143.9980   71.9131  221.2758 H   0  0  0  0  0  0  0  0  0  0  0  0
  143.3909   71.2782  219.7730 H   0  0  0  0  0  0  0  0  0  0  0  0
  145.0331   72.6549  218.4516 H   0  0  0  0  0  0  0  0  0  0  0  0
  146.0040   71.5940  220.8170 H   0  0  0  0  0  0  0  0  0  0  0  0
  145.6775   74.1252  221.0590 H   0  0  0  0  0  0  0  0  0  0  0  0
  145.6776   74.7905  219.4198 H   0  0  0  0  0  0  0  0  0  0  0  0
  143.5728   75.0088  221.2878 H   0  0  0  0  0  0  0  0  0  0  0  0
  143.9623   74.4558  217.6086 H   0  0  0  0  0  0  0  0  0  0  0  0
  143.2776   76.2465  216.0004 H   0  0  0  0  0  0  0  0  0  0  0  0
  142.2764   78.3599  216.8284 H   0  0  0  0  0  0  0  0  0  0  0  0
  142.6141   76.9402  220.8751 H   0  0  0  0  0  0  0  0  0  0  0  0
  138.1413   77.7760  222.7005 H   0  0  0  0  0  0  0  0  0  0  0  0
  138.6192   80.0489  223.5561 H   0  0  0  0  0  0  0  0  0  0  0  0
  140.1995   81.7508  224.1162 H   0  0  0  0  0  0  0  0  0  0  0  0
  144.4041   81.0384  223.5741 H   0  0  0  0  0  0  0  0  0  0  0  0
  143.8920   78.7630  222.7190 H   0  0  0  0  0  0  0  0  0  0  0  0
  1  2  2  0
  2  3  1  0
  3  4  1  0
  4  5  1  0
  5  6  2  0
  5  7  1  0
  7  8  1  0
  8  9  1  0
  9 10  1  0
  9 11  1  0
 11 12  1  0
 12 13  1  0
 13 14  2  0
 14 15  1  0
 15 16  2  0
 16 17  1  0
 17 18  1  0
 17 19  2  0
  2 20  1  0
 20 21  2  0
 21 22  1  0
 22 23  2  0
 23 24  1  0
 24 25  2  0
 25 26  1  0
 25 27  1  0
 27 28  2  0
 28 29  1  0
 29 30  2  0
 12  7  1  0
 19 13  1  0
 30 20  1  0
 29 23  1  0
  3 31  1  0
  4 32  1  0
  4 33  1  0
  8 34  1  0
  8 35  1  0
  9 36  1  6
 10 37  1  0
 11 38  1  0
 11 39  1  0
 12 40  1  1
 14 41  1  0
 15 42  1  0
 16 43  1  0
 19 44  1  0
 21 45  1  0
 22 46  1  0
 24 47  1  0
 27 48  1  0
 28 49  1  0
M  END
>  <smiles>  (7) 
O=C(NCC(=O)N1C[C@H](O)C[C@H]1c1cccc(Cl)c1)c1ccc2cc(F)ccc2n1

>  <score_type>  (7) 
oracle

>  <origin>  (7) 
autodockgpu

>  <m_score__min__energy>  (7) 
-8.7799999999999994

>  <m_primary>  (7) 
energy

>  <rmsd>  (7) 
8.02320697056694

>  <m_score__min__rmsd>  (7) 
8.02320697056694

>  <meeko>  (7) 
{"free_energy": -7.5, "intermolecular_energy": -9.29, "internal_energy": -2.57, "cluster_size": 4, "cluster_id": 6, "rank_in_cluster": 1}

>  <energy>  (7) 
-8.7

>  <cluster_rmsd>  (7) 
0.19

>  <cluster>  (7) 
1

$$$$

     RDKit          3D

 49 52  0  0  0  0  0  0  0  0999 V2000
  139.9330   73.6600  222.6270 O   0  0  0  0  0  0  0  0  0  0  0  0
  140.1400   72.4320  222.4620 C   0  0  0  0  0  0  0  0  0  0  0  0
  140.3940   71.8700  221.1660 N   0  0  0  0  0  0  0  0  0  0  0  0
  140.4040   72.7810  220.0540 C   0  0  0  0  0  0  0  0  0  0  0  0
  141.5670   72.5070  219.1350 C   0  0  0  0  0  0  0  0  0  0  0  0
  141.3510   72.3040  217.9120 O   0  0  0  0  0  0  0  0  0  0  0  0
  142.8640   72.4960  219.7180 N   0  0  0  0  0  0  0  0  0  0  0  0
  143.9760   71.6000  219.4340 C   0  0  0  0  0  0  0  0  0  0  0  0
  145.1620   72.5390  219.5730 C   0  0  2  0  0  0  0  0  0  0  0  0
  146.3420   71.8350  219.8000 O   0  0  0  0  0  0  0  0  0  0  0  0
  144.7610   73.3480  220.7890 C   0  0  0  0  0  0  0  0  0  0  0  0
  143.2700   73.4430  220.7390 C   0  0  1  0  0  0  0  0  0  0  0  0
  142.8080   74.8330  220.4200 C   0  0  0  0  0  0  0  0  0  0  0  0
  143.3850   75.5100  219.3670 C   0  0  0  0  0  0  0  0  0  0  0  0
  142.9370   76.7990  219.0930 C   0  0  0  0  0  0  0  0  0  0  0  0
  141.9350   77.3820  219.8660 C   0  0  0  0  0  0  0  0  0  0  0  0
  141.3600   76.6950  220.9240 C   0  0  0  0  0  0  0  0  0  0  0  0
  140.0930   77.4470  221.8910 Cl  0  0  0  0  0  0  0  0  0  0  0  0
  141.8050   75.4060  221.2000 C   0  0  0  0  0  0  0  0  0  0  0  0
  140.1260   71.5140  223.6130 C   0  0  0  0  0  0  0  0  0  0  0  0
  139.5960   70.2420  223.4470 C   0  0  0  0  0  0  0  0  0  0  0  0
  139.5670   69.3600  224.4990 C   0  0  0  0  0  0  0  0  0  0  0  0
  140.0670   69.7460  225.7200 C   0  0  0  0  0  0  0  0  0  0  0  0
  140.0430   68.8680  226.7840 C   0  0  0  0  0  0  0  0  0  0  0  0
  140.5450   69.2530  228.0130 C   0  0  0  0  0  0  0  0  0  0  0  0
  140.5120   68.3840  229.0360 F   0  0  0  0  0  0  0  0  0  0  0  0
  141.0720   70.5190  228.1740 C   0  0  0  0  0  0  0  0  0  0  0  0
  141.0910   71.3930  227.0990 C   0  0  0  0  0  0  0  0  0  0  0  0
  140.5900   71.0110  225.8740 C   0  0  0  0  0  0  0  0  0  0  0  0
  140.6090   71.8650  224.8170 N   0  0  0  0  0  0  0  0  0  0  0  0
  140.5640   70.8470  221.0410 H   0  0  0  0  0  0  0  0  0  0  0  0
  139.4665   72.6685  219.4896 H   0  0  0  0  0  0  0  0  0  0  0  0
  140.5018   73.8050  220.4436 H   0  0  0  0  0  0  0  0  0  0  0  0
  144.0264   70.7779  220.1631 H   0  0  0  0  0  0  0  0  0  0  0  0
  143.9114   71.0995  218.4566 H   0  0  0  0  0  0  0  0  0  0  0  0
  145.3652   73.1433  218.6766 H   0  0  0  0  0  0  0  0  0  0  0  0
  146.3230   71.5270  220.7420 H   0  0  0  0  0  0  0  0  0  0  0  0
  145.0821   72.8401  221.7103 H   0  0  0  0  0  0  0  0  0  0  0  0
  145.2311   74.3425  220.7876 H   0  0  0  0  0  0  0  0  0  0  0  0
  142.8179   73.2102  221.7144 H   0  0  0  0  0  0  0  0  0  0  0  0
  144.1765   75.0451  218.7609 H   0  0  0  0  0  0  0  0  0  0  0  0
  143.3783   77.3630  218.2580 H   0  0  0  0  0  0  0  0  0  0  0  0
  141.5953   78.4021  219.6334 H   0  0  0  0  0  0  0  0  0  0  0  0
  141.3652   74.8391  222.0338 H   0  0  0  0  0  0  0  0  0  0  0  0
  139.1971   69.9389  222.4677 H   0  0  0  0  0  0  0  0  0  0  0  0
  139.1469   68.3522  224.3657 H   0  0  0  0  0  0  0  0  0  0  0  0
  139.6235   67.8595  226.6540 H   0  0  0  0  0  0  0  0  0  0  0  0
  141.4740   70.8316  229.1490 H   0  0  0  0  0  0  0  0  0  0  0  0
  141.5104   72.4021  227.2251 H   0  0  0  0  0  0  0  0  0  0  0  0
  1  2  2  0
  2  3  1  0
  3  4  1  0
  4  5  1  0
  5  6  2  0
  5  7  1  0
  7  8  1  0
  8  9  1  0
  9 10  1  0
  9 11  1  0
 11 12  1  0
 12 13  1  0
 13 14  2  0
 14 15  1  0
 15 16  2  0
 16 17  1  0
 17 18  1  0
 17 19  2  0
  2 20  1  0
 20 21  2  0
 21 22  1  0
 22 23  2  0
 23 24  1  0
 24 25  2  0
 25 26  1  0
 25 27  1  0
 27 28  2  0
 28 29  1  0
 29 30  2  0
 12  7  1  0
 19 13  1  0
 30 20  1  0
 29 23  1  0
  3 31  1  0
  4 32  1  0
  4 33  1  0
  8 34  1  0
  8 35  1  0
  9 36  1  6
 10 37  1  0
 11 38  1  0
 11 39  1  0
 12 40  1  1
 14 41  1  0
 15 42  1  0
 16 43  1  0
 19 44  1  0
 21 45  1  0
 22 46  1  0
 24 47  1  0
 27 48  1  0
 28 49  1  0
M  END
>  <smiles>  (8) 
O=C(NCC(=O)N1C[C@H](O)C[C@H]1c1cccc(Cl)c1)c1ccc2cc(F)ccc2n1

>  <score_type>  (8) 
oracle

>  <origin>  (8) 
autodockgpu

>  <m_score__min__energy>  (8) 
-8.7799999999999994

>  <m_primary>  (8) 
energy

>  <rmsd>  (8) 
3.604045503950905

>  <m_score__min__rmsd>  (8) 
3.604045503950905

>  <meeko>  (8) 
{"free_energy": -8.76, "intermolecular_energy": -10.55, "internal_energy": -1.63, "cluster_size": 11, "cluster_id": 1, "rank_in_cluster": 2}

>  <energy>  (8) 
-8.57

>  <cluster_rmsd>  (8) 
1.24

>  <cluster>  (8) 
1

$$$$

     RDKit          3D

 49 52  0  0  0  0  0  0  0  0999 V2000
  140.0670   71.7210  221.0690 O   0  0  0  0  0  0  0  0  0  0  0  0
  139.8890   72.2650  222.1870 C   0  0  0  0  0  0  0  0  0  0  0  0
  139.7150   73.6830  222.3250 N   0  0  0  0  0  0  0  0  0  0  0  0
  139.7540   74.4610  221.1160 C   0  0  0  0  0  0  0  0  0  0  0  0
  140.7840   75.5570  221.2070 C   0  0  0  0  0  0  0  0  0  0  0  0
  141.1340   75.9830  222.3380 O   0  0  0  0  0  0  0  0  0  0  0  0
  141.3090   76.0550  219.9830 N   0  0  0  0  0  0  0  0  0  0  0  0
  141.4270   77.4380  219.5430 C   0  0  0  0  0  0  0  0  0  0  0  0
  142.7370   77.4000  218.7750 C   0  0  2  0  0  0  0  0  0  0  0  0
  142.8350   78.4680  217.8870 O   0  0  0  0  0  0  0  0  0  0  0  0
  142.6140   76.0810  218.0410 C   0  0  0  0  0  0  0  0  0  0  0  0
  141.8310   75.1850  218.9450 C   0  0  1  0  0  0  0  0  0  0  0  0
  142.6780   74.0880  219.5170 C   0  0  0  0  0  0  0  0  0  0  0  0
  142.1990   72.7950  219.5120 C   0  0  0  0  0  0  0  0  0  0  0  0
  143.0060   71.7960  220.0470 C   0  0  0  0  0  0  0  0  0  0  0  0
  144.2600   72.1010  220.5730 C   0  0  0  0  0  0  0  0  0  0  0  0
  144.7350   73.4040  220.5750 C   0  0  0  0  0  0  0  0  0  0  0  0
  146.3230   73.7730  221.2430 Cl  0  0  0  0  0  0  0  0  0  0  0  0
  143.9300   74.4050  220.0400 C   0  0  0  0  0  0  0  0  0  0  0  0
  139.8520   71.4510  223.4140 C   0  0  0  0  0  0  0  0  0  0  0  0
  139.2590   70.1980  223.3670 C   0  0  0  0  0  0  0  0  0  0  0  0
  139.2080   69.4120  224.4920 C   0  0  0  0  0  0  0  0  0  0  0  0
  139.7490   69.8760  225.6680 C   0  0  0  0  0  0  0  0  0  0  0  0
  139.7020   69.0960  226.8040 C   0  0  0  0  0  0  0  0  0  0  0  0
  140.2440   69.5600  227.9870 C   0  0  0  0  0  0  0  0  0  0  0  0
  140.1890   68.7850  229.0830 F   0  0  0  0  0  0  0  0  0  0  0  0
  140.8340   70.8080  228.0310 C   0  0  0  0  0  0  0  0  0  0  0  0
  140.8750   71.5840  226.8830 C   0  0  0  0  0  0  0  0  0  0  0  0
  140.3340   71.1230  225.7030 C   0  0  0  0  0  0  0  0  0  0  0  0
  140.3740   71.8810  224.5760 N   0  0  0  0  0  0  0  0  0  0  0  0
  139.5680   74.1250  223.2590 H   0  0  0  0  0  0  0  0  0  0  0  0
  140.0055   73.8012  220.2726 H   0  0  0  0  0  0  0  0  0  0  0  0
  138.7666   74.9221  220.9662 H   0  0  0  0  0  0  0  0  0  0  0  0
  140.5879   77.7258  218.8925 H   0  0  0  0  0  0  0  0  0  0  0  0
  141.4079   78.1725  220.3616 H   0  0  0  0  0  0  0  0  0  0  0  0
  143.6330   77.4810  219.4079 H   0  0  0  0  0  0  0  0  0  0  0  0
  143.7680   78.7990  217.9280 H   0  0  0  0  0  0  0  0  0  0  0  0
  142.0841   76.2211  217.0873 H   0  0  0  0  0  0  0  0  0  0  0  0
  143.6003   75.6557  217.8036 H   0  0  0  0  0  0  0  0  0  0  0  0
  141.0256   74.6689  218.4020 H   0  0  0  0  0  0  0  0  0  0  0  0
  141.2077   72.5602  219.0971 H   0  0  0  0  0  0  0  0  0  0  0  0
  142.6507   70.7550  220.0549 H   0  0  0  0  0  0  0  0  0  0  0  0
  144.8820   71.2966  220.9926 H   0  0  0  0  0  0  0  0  0  0  0  0
  144.2822   75.4470  220.0299 H   0  0  0  0  0  0  0  0  0  0  0  0
  138.8273   69.8320  222.4238 H   0  0  0  0  0  0  0  0  0  0  0  0
  138.7377   68.4184  224.4527 H   0  0  0  0  0  0  0  0  0  0  0  0
  139.2319   68.1021  226.7683 H   0  0  0  0  0  0  0  0  0  0  0  0
  141.2679   71.1832  228.9696 H   0  0  0  0  0  0  0  0  0  0  0  0
  141.3445   72.5783  226.9147 H   0  0  0  0  0  0  0  0  0  0  0  0
  1  2  2  0
  2  3  1  0
  3  4  1  0
  4  5  1  0
  5  6  2  0
  5  7  1  0
  7  8  1  0
  8  9  1  0
  9 10  1  0
  9 11  1  0
 11 12  1  0
 12 13  1  0
 13 14  2  0
 14 15  1  0
 15 16  2  0
 16 17  1  0
 17 18  1  0
 17 19  2  0
  2 20  1  0
 20 21  2  0
 21 22  1  0
 22 23  2  0
 23 24  1  0
 24 25  2  0
 25 26  1  0
 25 27  1  0
 27 28  2  0
 28 29  1  0
 29 30  2  0
 12  7  1  0
 19 13  1  0
 30 20  1  0
 29 23  1  0
  3 31  1  0
  4 32  1  0
  4 33  1  0
  8 34  1  0
  8 35  1  0
  9 36  1  1
 10 37  1  0
 11 38  1  0
 11 39  1  0
 12 40  1  6
 14 41  1  0
 15 42  1  0
 16 43  1  0
 19 44  1  0
 21 45  1  0
 22 46  1  0
 24 47  1  0
 27 48  1  0
 28 49  1  0
M  END
>  <smiles>  (9) 
O=C(NCC(=O)N1C[C@H](O)C[C@H]1c1cccc(Cl)c1)c1ccc2cc(F)ccc2n1

>  <score_type>  (9) 
oracle

>  <origin>  (9) 
autodockgpu

>  <m_score__min__energy>  (9) 
-8.7799999999999994

>  <m_primary>  (9) 
energy

>  <rmsd>  (9) 
2.1028801725616275

>  <m_score__min__rmsd>  (9) 
2.1028801725616275

>  <meeko>  (9) 
{"free_energy": -8.39, "intermolecular_energy": -10.18, "internal_energy": -1.99, "cluster_size": 29, "cluster_id": 2, "rank_in_cluster": 24}

>  <energy>  (9) 
-8.25

>  <cluster_rmsd>  (9) 
1.48

>  <cluster>  (9) 
1

$$$$

     RDKit          3D

 49 52  0  0  0  0  0  0  0  0999 V2000
  140.6280   71.8100  221.0030 O   0  0  0  0  0  0  0  0  0  0  0  0
  140.2470   72.3170  222.0870 C   0  0  0  0  0  0  0  0  0  0  0  0
  139.8810   73.7010  222.1930 N   0  0  0  0  0  0  0  0  0  0  0  0
  139.9700   74.4890  220.9930 C   0  0  0  0  0  0  0  0  0  0  0  0
  141.0360   75.5470  221.1130 C   0  0  0  0  0  0  0  0  0  0  0  0
  141.4280   75.9000  222.2550 O   0  0  0  0  0  0  0  0  0  0  0  0
  141.5460   76.0920  219.9030 N   0  0  0  0  0  0  0  0  0  0  0  0
  141.4560   77.4630  219.4190 C   0  0  0  0  0  0  0  0  0  0  0  0
  142.8000   77.6280  218.7290 C   0  0  2  0  0  0  0  0  0  0  0  0
  142.7710   78.6710  217.8080 O   0  0  0  0  0  0  0  0  0  0  0  0
  142.9480   76.2870  218.0400 C   0  0  0  0  0  0  0  0  0  0  0  0
  142.2710   75.2960  218.9310 C   0  0  1  0  0  0  0  0  0  0  0  0
  143.2540   74.3760  219.5920 C   0  0  0  0  0  0  0  0  0  0  0  0
  144.3320   74.9120  220.2640 C   0  0  0  0  0  0  0  0  0  0  0  0
  145.2280   74.0350  220.8680 C   0  0  0  0  0  0  0  0  0  0  0  0
  145.0350   72.6570  220.7920 C   0  0  0  0  0  0  0  0  0  0  0  0
  143.9480   72.1260  220.1140 C   0  0  0  0  0  0  0  0  0  0  0  0
  143.7190   70.3810  220.0280 Cl  0  0  0  0  0  0  0  0  0  0  0  0
  143.0510   73.0000  219.5090 C   0  0  0  0  0  0  0  0  0  0  0  0
  140.1630   71.4950  223.3050 C   0  0  0  0  0  0  0  0  0  0  0  0
  139.5690   70.2430  223.2260 C   0  0  0  0  0  0  0  0  0  0  0  0
  139.4740   69.4490  224.3430 C   0  0  0  0  0  0  0  0  0  0  0  0
  139.9710   69.9030  225.5410 C   0  0  0  0  0  0  0  0  0  0  0  0
  139.8800   69.1140  226.6690 C   0  0  0  0  0  0  0  0  0  0  0  0
  140.3790   69.5680  227.8750 C   0  0  0  0  0  0  0  0  0  0  0  0
  140.2810   68.7850  228.9620 F   0  0  0  0  0  0  0  0  0  0  0  0
  140.9700   70.8140  227.9500 C   0  0  0  0  0  0  0  0  0  0  0  0
  141.0560   71.5980  226.8110 C   0  0  0  0  0  0  0  0  0  0  0  0
  140.5580   71.1480  225.6080 C   0  0  0  0  0  0  0  0  0  0  0  0
  140.6420   71.9140  224.4890 N   0  0  0  0  0  0  0  0  0  0  0  0
  139.5670   74.1130  223.0990 H   0  0  0  0  0  0  0  0  0  0  0  0
  140.2135   73.8287  220.1476 H   0  0  0  0  0  0  0  0  0  0  0  0
  139.0025   74.9866  220.8308 H   0  0  0  0  0  0  0  0  0  0  0  0
  140.6229   77.5856  218.7112 H   0  0  0  0  0  0  0  0  0  0  0  0
  141.2616   78.2055  220.2069 H   0  0  0  0  0  0  0  0  0  0  0  0
  143.6280   77.8786  219.4084 H   0  0  0  0  0  0  0  0  0  0  0  0
  143.7070   78.8450  217.5330 H   0  0  0  0  0  0  0  0  0  0  0  0
  142.4639   76.3080  217.0525 H   0  0  0  0  0  0  0  0  0  0  0  0
  144.0049   76.0296  217.8766 H   0  0  0  0  0  0  0  0  0  0  0  0
  141.5994   74.6356  218.3629 H   0  0  0  0  0  0  0  0  0  0  0  0
  144.4795   76.0006  220.3211 H   0  0  0  0  0  0  0  0  0  0  0  0
  146.0976   74.4337  221.4110 H   0  0  0  0  0  0  0  0  0  0  0  0
  145.7549   71.9810  221.2766 H   0  0  0  0  0  0  0  0  0  0  0  0
  142.1807   72.6047  218.9646 H   0  0  0  0  0  0  0  0  0  0  0  0
  139.1725   69.8849  222.2645 H   0  0  0  0  0  0  0  0  0  0  0  0
  139.0034   68.4568  224.2789 H   0  0  0  0  0  0  0  0  0  0  0  0
  139.4094   68.1216  226.6083 H   0  0  0  0  0  0  0  0  0  0  0  0
  141.3694   71.1812  228.9069 H   0  0  0  0  0  0  0  0  0  0  0  0
  141.5270   72.5904  226.8679 H   0  0  0  0  0  0  0  0  0  0  0  0
  1  2  2  0
  2  3  1  0
  3  4  1  0
  4  5  1  0
  5  6  2  0
  5  7  1  0
  7  8  1  0
  8  9  1  0
  9 10  1  0
  9 11  1  0
 11 12  1  0
 12 13  1  0
 13 14  2  0
 14 15  1  0
 15 16  2  0
 16 17  1  0
 17 18  1  0
 17 19  2  0
  2 20  1  0
 20 21  2  0
 21 22  1  0
 22 23  2  0
 23 24  1  0
 24 25  2  0
 25 26  1  0
 25 27  1  0
 27 28  2  0
 28 29  1  0
 29 30  2  0
 12  7  1  0
 19 13  1  0
 30 20  1  0
 29 23  1  0
  3 31  1  0
  4 32  1  0
  4 33  1  0
  8 34  1  0
  8 35  1  0
  9 36  1  1
 10 37  1  0
 11 38  1  0
 11 39  1  0
 12 40  1  6
 14 41  1  0
 15 42  1  0
 16 43  1  0
 19 44  1  0
 21 45  1  0
 22 46  1  0
 24 47  1  0
 27 48  1  0
 28 49  1  0
M  END
>  <smiles>  (10) 
O=C(NCC(=O)N1C[C@H](O)C[C@H]1c1cccc(Cl)c1)c1ccc2cc(F)ccc2n1

>  <score_type>  (10) 
oracle

>  <origin>  (10) 
autodockgpu

>  <m_score__min__energy>  (10) 
-8.7799999999999994

>  <m_primary>  (10) 
energy

>  <rmsd>  (10) 
2.183829355031568

>  <m_score__min__rmsd>  (10) 
2.183829355031568

>  <meeko>  (10) 
{"free_energy": -8.51, "intermolecular_energy": -10.3, "internal_energy": -2.02, "cluster_size": 29, "cluster_id": 2, "rank_in_cluster": 16}

>  <energy>  (10) 
-8.14

>  <cluster_rmsd>  (10) 
1.22

>  <cluster>  (10) 
1

$$$$

     RDKit          3D

 49 52  0  0  0  0  0  0  0  0999 V2000
  140.4890   71.7570  220.9390 O   0  0  0  0  0  0  0  0  0  0  0  0
  140.1870   72.2790  222.0410 C   0  0  0  0  0  0  0  0  0  0  0  0
  139.8870   73.6770  222.1650 N   0  0  0  0  0  0  0  0  0  0  0  0
  139.9490   74.4620  220.9610 C   0  0  0  0  0  0  0  0  0  0  0  0
  140.9720   75.5620  221.0800 C   0  0  0  0  0  0  0  0  0  0  0  0
  141.3210   75.9590  222.2210 O   0  0  0  0  0  0  0  0  0  0  0  0
  141.4930   76.0950  219.8690 N   0  0  0  0  0  0  0  0  0  0  0  0
  141.4090   77.4610  219.3710 C   0  0  0  0  0  0  0  0  0  0  0  0
  142.7580   77.6170  218.6910 C   0  0  2  0  0  0  0  0  0  0  0  0
  142.7390   78.6520  217.7590 O   0  0  0  0  0  0  0  0  0  0  0  0
  142.9100   76.2700  218.0150 C   0  0  0  0  0  0  0  0  0  0  0  0
  142.2250   75.2890  218.9110 C   0  0  1  0  0  0  0  0  0  0  0  0
  143.2000   74.3730  219.5890 C   0  0  0  0  0  0  0  0  0  0  0  0
  144.2830   74.9130  220.2500 C   0  0  0  0  0  0  0  0  0  0  0  0
  145.1720   74.0410  220.8710 C   0  0  0  0  0  0  0  0  0  0  0  0
  144.9690   72.6640  220.8200 C   0  0  0  0  0  0  0  0  0  0  0  0
  143.8780   72.1280  220.1520 C   0  0  0  0  0  0  0  0  0  0  0  0
  143.6360   70.3840  220.0980 Cl  0  0  0  0  0  0  0  0  0  0  0  0
  142.9870   72.9970  219.5310 C   0  0  0  0  0  0  0  0  0  0  0  0
  140.1290   71.4590  223.2630 C   0  0  0  0  0  0  0  0  0  0  0  0
  139.5930   70.1810  223.1850 C   0  0  0  0  0  0  0  0  0  0  0  0
  139.5240   69.3880  224.3050 C   0  0  0  0  0  0  0  0  0  0  0  0
  139.9900   69.8700  225.5050 C   0  0  0  0  0  0  0  0  0  0  0  0
  139.9250   69.0830  226.6360 C   0  0  0  0  0  0  0  0  0  0  0  0
  140.3920   69.5650  227.8440 C   0  0  0  0  0  0  0  0  0  0  0  0
  140.3200   68.7830  228.9340 F   0  0  0  0  0  0  0  0  0  0  0  0
  140.9250   70.8370  227.9180 C   0  0  0  0  0  0  0  0  0  0  0  0
  140.9850   71.6190  226.7760 C   0  0  0  0  0  0  0  0  0  0  0  0
  140.5190   71.1410  225.5710 C   0  0  0  0  0  0  0  0  0  0  0  0
  140.5780   71.9050  224.4490 N   0  0  0  0  0  0  0  0  0  0  0  0
  139.6380   74.1000  223.0860 H   0  0  0  0  0  0  0  0  0  0  0  0
  140.2217   73.8078  220.1198 H   0  0  0  0  0  0  0  0  0  0  0  0
  138.9631   74.9198  220.7924 H   0  0  0  0  0  0  0  0  0  0  0  0
  140.5820   77.5779  218.6552 H   0  0  0  0  0  0  0  0  0  0  0  0
  141.2092   78.2116  220.1499 H   0  0  0  0  0  0  0  0  0  0  0  0
  143.5801   77.8723  219.3758 H   0  0  0  0  0  0  0  0  0  0  0  0
  143.6690   78.7790  217.4430 H   0  0  0  0  0  0  0  0  0  0  0  0
  142.4332   76.2822  217.0238 H   0  0  0  0  0  0  0  0  0  0  0  0
  143.9676   76.0098  217.8609 H   0  0  0  0  0  0  0  0  0  0  0  0
  141.5575   74.6240  218.3434 H   0  0  0  0  0  0  0  0  0  0  0  0
  144.4396   76.0012  220.2854 H   0  0  0  0  0  0  0  0  0  0  0  0
  146.0439   74.4433  221.4076 H   0  0  0  0  0  0  0  0  0  0  0  0
  145.6842   71.9919  221.3167 H   0  0  0  0  0  0  0  0  0  0  0  0
  142.1139   72.5980  218.9939 H   0  0  0  0  0  0  0  0  0  0  0  0
  139.2216   69.8012  222.2218 H   0  0  0  0  0  0  0  0  0  0  0  0
  139.0992   68.3753  224.2418 H   0  0  0  0  0  0  0  0  0  0  0  0
  139.5007   68.0699  226.5762 H   0  0  0  0  0  0  0  0  0  0  0  0
  141.2990   71.2262  228.8764 H   0  0  0  0  0  0  0  0  0  0  0  0
  141.4092   72.6324  226.8321 H   0  0  0  0  0  0  0  0  0  0  0  0
  1  2  2  0
  2  3  1  0
  3  4  1  0
  4  5  1  0
  5  6  2  0
  5  7  1  0
  7  8  1  0
  8  9  1  0
  9 10  1  0
  9 11  1  0
 11 12  1  0
 12 13  1  0
 13 14  2  0
 14 15  1  0
 15 16  2  0
 16 17  1  0
 17 18  1  0
 17 19  2  0
  2 20  1  0
 20 21  2  0
 21 22  1  0
 22 23  2  0
 23 24  1  0
 24 25  2  0
 25 26  1  0
 25 27  1  0
 27 28  2  0
 28 29  1  0
 29 30  2  0
 12  7  1  0
 19 13  1  0
 30 20  1  0
 29 23  1  0
  3 31  1  0
  4 32  1  0
  4 33  1  0
  8 34  1  0
  8 35  1  0
  9 36  1  1
 10 37  1  0
 11 38  1  0
 11 39  1  0
 12 40  1  6
 14 41  1  0
 15 42  1  0
 16 43  1  0
 19 44  1  0
 21 45  1  0
 22 46  1  0
 24 47  1  0
 27 48  1  0
 28 49  1  0
M  END
>  <smiles>  (11) 
O=C(NCC(=O)N1C[C@H](O)C[C@H]1c1cccc(Cl)c1)c1ccc2cc(F)ccc2n1

>  <score_type>  (11) 
oracle

>  <origin>  (11) 
autodockgpu

>  <m_score__min__energy>  (11) 
-8.7799999999999994

>  <m_primary>  (11) 
energy

>  <rmsd>  (11) 
2.1539518023249613

>  <m_score__min__rmsd>  (11) 
2.1539518023249613

>  <meeko>  (11) 
{"free_energy": -8.39, "intermolecular_energy": -10.18, "internal_energy": -2.09, "cluster_size": 29, "cluster_id": 2, "rank_in_cluster": 23}

>  <energy>  (11) 
-8.0

>  <cluster_rmsd>  (11) 
1.64

>  <cluster>  (11) 
1

$$$$

     RDKit          3D

 49 52  0  0  0  0  0  0  0  0999 V2000
  138.7010   75.6310  220.9850 O   0  0  0  0  0  0  0  0  0  0  0  0
  139.8750   75.8860  221.3520 C   0  0  0  0  0  0  0  0  0  0  0  0
  140.9530   74.9590  221.1540 N   0  0  0  0  0  0  0  0  0  0  0  0
  140.6290   73.7150  220.5110 C   0  0  0  0  0  0  0  0  0  0  0  0
  141.7520   73.2550  219.6170 C   0  0  0  0  0  0  0  0  0  0  0  0
  141.4810   72.7490  218.4980 O   0  0  0  0  0  0  0  0  0  0  0  0
  143.0770   73.4250  220.1040 N   0  0  0  0  0  0  0  0  0  0  0  0
  144.0500   72.4000  220.4570 C   0  0  0  0  0  0  0  0  0  0  0  0
  145.3470   73.0480  220.0050 C   0  0  2  0  0  0  0  0  0  0  0  0
  146.4470   72.4780  220.6400 O   0  0  0  0  0  0  0  0  0  0  0  0
  145.1360   74.4810  220.4490 C   0  0  0  0  0  0  0  0  0  0  0  0
  143.6670   74.7310  220.3240 C   0  0  1  0  0  0  0  0  0  0  0  0
  143.3540   75.6760  219.2030 C   0  0  0  0  0  0  0  0  0  0  0  0
  143.6130   75.2920  217.9050 C   0  0  0  0  0  0  0  0  0  0  0  0
  143.3110   76.1880  216.8840 C   0  0  0  0  0  0  0  0  0  0  0  0
  142.7650   77.4370  217.1730 C   0  0  0  0  0  0  0  0  0  0  0  0
  142.5080   77.8170  218.4820 C   0  0  0  0  0  0  0  0  0  0  0  0
  141.8160   79.4000  218.8300 Cl  0  0  0  0  0  0  0  0  0  0  0  0
  142.8070   76.9220  219.5040 C   0  0  0  0  0  0  0  0  0  0  0  0
  140.1880   77.1660  222.0100 C   0  0  0  0  0  0  0  0  0  0  0  0
  139.1550   77.8890  222.5890 C   0  0  0  0  0  0  0  0  0  0  0  0
  139.4110   79.0870  223.2110 C   0  0  0  0  0  0  0  0  0  0  0  0
  140.6990   79.5650  223.2560 C   0  0  0  0  0  0  0  0  0  0  0  0
  140.9670   80.7670  223.8770 C   0  0  0  0  0  0  0  0  0  0  0  0
  142.2610   81.2500  223.9240 C   0  0  0  0  0  0  0  0  0  0  0  0
  142.5020   82.4220  224.5330 F   0  0  0  0  0  0  0  0  0  0  0  0
  143.2860   80.5280  223.3470 C   0  0  0  0  0  0  0  0  0  0  0  0
  143.0060   79.3220  222.7250 C   0  0  0  0  0  0  0  0  0  0  0  0
  141.7170   78.8390  222.6770 C   0  0  0  0  0  0  0  0  0  0  0  0
  141.4380   77.6560  222.0690 N   0  0  0  0  0  0  0  0  0  0  0  0
  141.9250   75.1810  221.4640 H   0  0  0  0  0  0  0  0  0  0  0  0
  140.4466   72.9502  221.2803 H   0  0  0  0  0  0  0  0  0  0  0  0
  139.7313   73.8655  219.8933 H   0  0  0  0  0  0  0  0  0  0  0  0
  144.0538   72.2050  221.5396 H   0  0  0  0  0  0  0  0  0  0  0  0
  143.8548   71.4188  219.9997 H   0  0  0  0  0  0  0  0  0  0  0  0
  145.5555   72.9354  218.9308 H   0  0  0  0  0  0  0  0  0  0  0  0
  146.1150   71.7040  221.1620 H   0  0  0  0  0  0  0  0  0  0  0  0
  145.4598   74.6110  221.4922 H   0  0  0  0  0  0  0  0  0  0  0  0
  145.7211   75.1853  219.8394 H   0  0  0  0  0  0  0  0  0  0  0  0
  143.2620   75.2144  221.2253 H   0  0  0  0  0  0  0  0  0  0  0  0
  144.0460   74.3056  217.6825 H   0  0  0  0  0  0  0  0  0  0  0  0
  143.5053   75.9075  215.8383 H   0  0  0  0  0  0  0  0  0  0  0  0
  142.5346   78.1313  216.3516 H   0  0  0  0  0  0  0  0  0  0  0  0
  142.6115   77.1979  220.5507 H   0  0  0  0  0  0  0  0  0  0  0  0
  138.1263   77.5013  222.5499 H   0  0  0  0  0  0  0  0  0  0  0  0
  138.5913   79.6594  223.6696 H   0  0  0  0  0  0  0  0  0  0  0  0
  140.1493   81.3423  224.3357 H   0  0  0  0  0  0  0  0  0  0  0  0
  144.3180   80.9074  223.3807 H   0  0  0  0  0  0  0  0  0  0  0  0
  143.8213   78.7445  222.2649 H   0  0  0  0  0  0  0  0  0  0  0  0
  1  2  2  0
  2  3  1  0
  3  4  1  0
  4  5  1  0
  5  6  2  0
  5  7  1  0
  7  8  1  0
  8  9  1  0
  9 10  1  0
  9 11  1  0
 11 12  1  0
 12 13  1  0
 13 14  2  0
 14 15  1  0
 15 16  2  0
 16 17  1  0
 17 18  1  0
 17 19  2  0
  2 20  1  0
 20 21  2  0
 21 22  1  0
 22 23  2  0
 23 24  1  0
 24 25  2  0
 25 26  1  0
 25 27  1  0
 27 28  2  0
 28 29  1  0
 29 30  2  0
 12  7  1  0
 19 13  1  0
 30 20  1  0
 29 23  1  0
  3 31  1  0
  4 32  1  0
  4 33  1  0
  8 34  1  0
  8 35  1  0
  9 36  1  6
 10 37  1  0
 11 38  1  0
 11 39  1  0
 12 40  1  1
 14 41  1  0
 15 42  1  0
 16 43  1  0
 19 44  1  0
 21 45  1  0
 22 46  1  0
 24 47  1  0
 27 48  1  0
 28 49  1  0
M  END
>  <smiles>  (12) 
O=C(NCC(=O)N1C[C@H](O)C[C@H]1c1cccc(Cl)c1)c1ccc2cc(F)ccc2n1

>  <score_type>  (12) 
oracle

>  <origin>  (12) 
autodockgpu

>  <m_score__min__energy>  (12) 
-8.7799999999999994

>  <m_primary>  (12) 
energy

>  <rmsd>  (12) 
7.9244069493502325

>  <m_score__min__rmsd>  (12) 
7.9244069493502325

>  <meeko>  (12) 
{"free_energy": -7.41, "intermolecular_energy": -9.2, "internal_energy": -2.36, "cluster_size": 4, "cluster_id": 6, "rank_in_cluster": 2}

>  <energy>  (12) 
-8.7

>  <cluster_rmsd>  (12) 
0.0

>  <cluster>  (12) 
2

$$$$

     RDKit          3D

 49 52  0  0  0  0  0  0  0  0999 V2000
  140.3320   71.6360  221.0120 O   0  0  0  0  0  0  0  0  0  0  0  0
  140.0630   72.2030  222.1000 C   0  0  0  0  0  0  0  0  0  0  0  0
  139.8480   73.6190  222.1880 N   0  0  0  0  0  0  0  0  0  0  0  0
  139.9540   74.3680  220.9650 C   0  0  0  0  0  0  0  0  0  0  0  0
  140.8370   75.5760  221.1410 C   0  0  0  0  0  0  0  0  0  0  0  0
  141.0630   76.0110  222.3000 O   0  0  0  0  0  0  0  0  0  0  0  0
  141.3740   76.1630  219.9620 N   0  0  0  0  0  0  0  0  0  0  0  0
  141.5020   77.5750  219.6310 C   0  0  0  0  0  0  0  0  0  0  0  0
  142.8180   77.5890  218.8720 C   0  0  2  0  0  0  0  0  0  0  0  0
  142.9270   78.7210  218.0690 O   0  0  0  0  0  0  0  0  0  0  0  0
  142.6940   76.3310  218.0370 C   0  0  0  0  0  0  0  0  0  0  0  0
  141.8990   75.3730  218.8650 C   0  0  1  0  0  0  0  0  0  0  0  0
  142.7370   74.2300  219.3570 C   0  0  0  0  0  0  0  0  0  0  0  0
  142.2870   72.9390  219.1770 C   0  0  0  0  0  0  0  0  0  0  0  0
  143.0850   71.8980  219.6420 C   0  0  0  0  0  0  0  0  0  0  0  0
  144.3010   72.1600  220.2700 C   0  0  0  0  0  0  0  0  0  0  0  0
  144.7460   73.4610  220.4480 C   0  0  0  0  0  0  0  0  0  0  0  0
  146.2850   73.7750  221.2450 Cl  0  0  0  0  0  0  0  0  0  0  0  0
  143.9510   74.5040  219.9840 C   0  0  0  0  0  0  0  0  0  0  0  0
  139.9580   71.4180  223.3420 C   0  0  0  0  0  0  0  0  0  0  0  0
  139.3570   70.1690  223.2940 C   0  0  0  0  0  0  0  0  0  0  0  0
  139.2430   69.4100  224.4340 C   0  0  0  0  0  0  0  0  0  0  0  0
  139.7290   69.8980  225.6230 C   0  0  0  0  0  0  0  0  0  0  0  0
  139.6190   69.1450  226.7740 C   0  0  0  0  0  0  0  0  0  0  0  0
  140.1060   69.6330  227.9710 C   0  0  0  0  0  0  0  0  0  0  0  0
  139.9890   68.8850  229.0810 F   0  0  0  0  0  0  0  0  0  0  0  0
  140.7040   70.8770  228.0150 C   0  0  0  0  0  0  0  0  0  0  0  0
  140.8080   71.6250  226.8540 C   0  0  0  0  0  0  0  0  0  0  0  0
  140.3230   71.1410  225.6590 C   0  0  0  0  0  0  0  0  0  0  0  0
  140.4250   71.8720  224.5180 N   0  0  0  0  0  0  0  0  0  0  0  0
  139.6250   74.0790  223.0980 H   0  0  0  0  0  0  0  0  0  0  0  0
  140.3815   73.7217  220.1843 H   0  0  0  0  0  0  0  0  0  0  0  0
  138.9488   74.7101  220.6777 H   0  0  0  0  0  0  0  0  0  0  0  0
  140.6695   77.9167  218.9984 H   0  0  0  0  0  0  0  0  0  0  0  0
  141.4799   78.2444  220.5036 H   0  0  0  0  0  0  0  0  0  0  0  0
  143.7094   77.6161  219.5160 H   0  0  0  0  0  0  0  0  0  0  0  0
  143.7380   78.6080  217.5110 H   0  0  0  0  0  0  0  0  0  0  0  0
  142.1721   76.5470  217.0931 H   0  0  0  0  0  0  0  0  0  0  0  0
  143.6796   75.9195  217.7738 H   0  0  0  0  0  0  0  0  0  0  0  0
  141.0944   74.9050  218.2788 H   0  0  0  0  0  0  0  0  0  0  0  0
  141.3261   72.7380  218.6808 H   0  0  0  0  0  0  0  0  0  0  0  0
  142.7524   70.8575  219.5124 H   0  0  0  0  0  0  0  0  0  0  0  0
  144.9168   71.3225  220.6298 H   0  0  0  0  0  0  0  0  0  0  0  0
  144.2808   75.5455  220.1121 H   0  0  0  0  0  0  0  0  0  0  0  0
  138.9698   69.7841  222.3391 H   0  0  0  0  0  0  0  0  0  0  0  0
  138.7663   68.4194  224.3949 H   0  0  0  0  0  0  0  0  0  0  0  0
  139.1426   68.1542  226.7383 H   0  0  0  0  0  0  0  0  0  0  0  0
  141.0947   71.2708  228.9649 H   0  0  0  0  0  0  0  0  0  0  0  0
  141.2832   72.6165  226.8865 H   0  0  0  0  0  0  0  0  0  0  0  0
  1  2  2  0
  2  3  1  0
  3  4  1  0
  4  5  1  0
  5  6  2  0
  5  7  1  0
  7  8  1  0
  8  9  1  0
  9 10  1  0
  9 11  1  0
 11 12  1  0
 12 13  1  0
 13 14  2  0
 14 15  1  0
 15 16  2  0
 16 17  1  0
 17 18  1  0
 17 19  2  0
  2 20  1  0
 20 21  2  0
 21 22  1  0
 22 23  2  0
 23 24  1  0
 24 25  2  0
 25 26  1  0
 25 27  1  0
 27 28  2  0
 28 29  1  0
 29 30  2  0
 12  7  1  0
 19 13  1  0
 30 20  1  0
 29 23  1  0
  3 31  1  0
  4 32  1  0
  4 33  1  0
  8 34  1  0
  8 35  1  0
  9 36  1  1
 10 37  1  0
 11 38  1  0
 11 39  1  0
 12 40  1  6
 14 41  1  0
 15 42  1  0
 16 43  1  0
 19 44  1  0
 21 45  1  0
 22 46  1  0
 24 47  1  0
 27 48  1  0
 28 49  1  0
M  END
>  <smiles>  (13) 
O=C(NCC(=O)N1C[C@H](O)C[C@H]1c1cccc(Cl)c1)c1ccc2cc(F)ccc2n1

>  <score_type>  (13) 
oracle

>  <origin>  (13) 
autodockgpu

>  <m_score__min__energy>  (13) 
-8.7799999999999994

>  <m_primary>  (13) 
energy

>  <rmsd>  (13) 
2.1635412027616083

>  <m_score__min__rmsd>  (13) 
2.1635412027616083

>  <meeko>  (13) 
{"free_energy": -8.52, "intermolecular_energy": -10.31, "internal_energy": -1.99, "cluster_size": 29, "cluster_id": 2, "rank_in_cluster": 14}

>  <energy>  (13) 
-8.7

>  <cluster_rmsd>  (13) 
0.06

>  <cluster>  (13) 
2

$$$$

     RDKit          3D

 49 52  0  0  0  0  0  0  0  0999 V2000
  141.3730   72.5660  221.6430 O   0  0  0  0  0  0  0  0  0  0  0  0
  140.4120   72.6610  222.4460 C   0  0  0  0  0  0  0  0  0  0  0  0
  139.4480   73.7200  222.3580 N   0  0  0  0  0  0  0  0  0  0  0  0
  139.6300   74.6770  221.3000 C   0  0  0  0  0  0  0  0  0  0  0  0
  139.6890   76.0820  221.8400 C   0  0  0  0  0  0  0  0  0  0  0  0
  138.8710   76.4370  222.7280 O   0  0  0  0  0  0  0  0  0  0  0  0
  140.6880   76.9400  221.3040 N   0  0  0  0  0  0  0  0  0  0  0  0
  141.4590   76.7780  220.0790 C   0  0  0  0  0  0  0  0  0  0  0  0
  141.5800   78.2160  219.6060 C   0  0  2  0  0  0  0  0  0  0  0  0
  142.6450   78.3710  218.7220 O   0  0  0  0  0  0  0  0  0  0  0  0
  141.8400   78.9390  220.9120 C   0  0  0  0  0  0  0  0  0  0  0  0
  141.0920   78.1720  221.9550 C   0  0  1  0  0  0  0  0  0  0  0  0
  139.9110   78.9380  222.4720 C   0  0  0  0  0  0  0  0  0  0  0  0
  139.9270   79.4050  223.7700 C   0  0  0  0  0  0  0  0  0  0  0  0
  138.8190   80.1130  224.2240 C   0  0  0  0  0  0  0  0  0  0  0  0
  137.7280   80.3390  223.3870 C   0  0  0  0  0  0  0  0  0  0  0  0
  137.7190   79.8650  222.0840 C   0  0  0  0  0  0  0  0  0  0  0  0
  136.3310   80.1600  221.0390 Cl  0  0  0  0  0  0  0  0  0  0  0  0
  138.8250   79.1570  221.6270 C   0  0  0  0  0  0  0  0  0  0  0  0
  140.2420   71.6720  223.5230 C   0  0  0  0  0  0  0  0  0  0  0  0
  139.5920   70.4790  223.2380 C   0  0  0  0  0  0  0  0  0  0  0  0
  139.4170   69.5330  224.2190 C   0  0  0  0  0  0  0  0  0  0  0  0
  139.8890   69.7770  225.4870 C   0  0  0  0  0  0  0  0  0  0  0  0
  139.7160   68.8350  226.4800 C   0  0  0  0  0  0  0  0  0  0  0  0
  140.1900   69.0770  227.7550 C   0  0  0  0  0  0  0  0  0  0  0  0
  140.0130   68.1470  228.7080 F   0  0  0  0  0  0  0  0  0  0  0  0
  140.8360   70.2650  228.0350 C   0  0  0  0  0  0  0  0  0  0  0  0
  141.0030   71.2050  227.0310 C   0  0  0  0  0  0  0  0  0  0  0  0
  140.5310   70.9650  225.7590 C   0  0  0  0  0  0  0  0  0  0  0  0
  140.6940   71.8840  224.7710 N   0  0  0  0  0  0  0  0  0  0  0  0
  138.6530   73.7890  223.0310 H   0  0  0  0  0  0  0  0  0  0  0  0
  140.5700   74.4553  220.7735 H   0  0  0  0  0  0  0  0  0  0  0  0
  138.7739   74.6037  220.6132 H   0  0  0  0  0  0  0  0  0  0  0  0
  142.4462   76.3368  220.2808 H   0  0  0  0  0  0  0  0  0  0  0  0
  140.9978   76.1013  219.3446 H   0  0  0  0  0  0  0  0  0  0  0  0
  140.7023   78.5833  219.0541 H   0  0  0  0  0  0  0  0  0  0  0  0
  143.4740   78.1640  219.2220 H   0  0  0  0  0  0  0  0  0  0  0  0
  142.9163   78.9457  221.1390 H   0  0  0  0  0  0  0  0  0  0  0  0
  141.5130   79.9883  220.8672 H   0  0  0  0  0  0  0  0  0  0  0  0
  141.7165   77.9793  222.8398 H   0  0  0  0  0  0  0  0  0  0  0  0
  140.7905   79.2229  224.4266 H   0  0  0  0  0  0  0  0  0  0  0  0
  138.8039   80.4984  225.2542 H   0  0  0  0  0  0  0  0  0  0  0  0
  136.8617   80.9014  223.7654 H   0  0  0  0  0  0  0  0  0  0  0  0
  138.8426   78.7695  220.5977 H   0  0  0  0  0  0  0  0  0  0  0  0
  139.2152   70.2901  222.2220 H   0  0  0  0  0  0  0  0  0  0  0  0
  138.9031   68.5874  223.9915 H   0  0  0  0  0  0  0  0  0  0  0  0
  139.1999   67.8897  226.2563 H   0  0  0  0  0  0  0  0  0  0  0  0
  141.2154   70.4636  229.0482 H   0  0  0  0  0  0  0  0  0  0  0  0
  141.5174   72.1520  227.2515 H   0  0  0  0  0  0  0  0  0  0  0  0
  1  2  2  0
  2  3  1  0
  3  4  1  0
  4  5  1  0
  5  6  2  0
  5  7  1  0
  7  8  1  0
  8  9  1  0
  9 10  1  0
  9 11  1  0
 11 12  1  0
 12 13  1  0
 13 14  2  0
 14 15  1  0
 15 16  2  0
 16 17  1  0
 17 18  1  0
 17 19  2  0
  2 20  1  0
 20 21  2  0
 21 22  1  0
 22 23  2  0
 23 24  1  0
 24 25  2  0
 25 26  1  0
 25 27  1  0
 27 28  2  0
 28 29  1  0
 29 30  2  0
 12  7  1  0
 19 13  1  0
 30 20  1  0
 29 23  1  0
  3 31  1  0
  4 32  1  0
  4 33  1  0
  8 34  1  0
  8 35  1  0
  9 36  1  6
 10 37  1  0
 11 38  1  0
 11 39  1  0
 12 40  1  1
 14 41  1  0
 15 42  1  0
 16 43  1  0
 19 44  1  0
 21 45  1  0
 22 46  1  0
 24 47  1  0
 27 48  1  0
 28 49  1  0
M  END
>  <smiles>  (14) 
O=C(NCC(=O)N1C[C@H](O)C[C@H]1c1cccc(Cl)c1)c1ccc2cc(F)ccc2n1

>  <score_type>  (14) 
oracle

>  <origin>  (14) 
autodockgpu

>  <m_score__min__energy>  (14) 
-8.7799999999999994

>  <m_primary>  (14) 
energy

>  <rmsd>  (14) 
2.205540381272507

>  <m_score__min__rmsd>  (14) 
2.205540381272507

>  <meeko>  (14) 
{"free_energy": -8.18, "intermolecular_energy": -9.97, "internal_energy": -1.28, "cluster_size": 4, "cluster_id": 3, "rank_in_cluster": 3}

>  <energy>  (14) 
-8.69

>  <cluster_rmsd>  (14) 
0.07

>  <cluster>  (14) 
2

$$$$

     RDKit          3D

 49 52  0  0  0  0  0  0  0  0999 V2000
  140.3010   71.1360  221.0950 O   0  0  0  0  0  0  0  0  0  0  0  0
  140.0700   71.7360  222.1740 C   0  0  0  0  0  0  0  0  0  0  0  0
  139.9040   73.1600  222.2330 N   0  0  0  0  0  0  0  0  0  0  0  0
  140.0140   73.8780  220.9920 C   0  0  0  0  0  0  0  0  0  0  0  0
  140.7210   75.1950  221.1840 C   0  0  0  0  0  0  0  0  0  0  0  0
  140.7540   75.7150  222.3300 O   0  0  0  0  0  0  0  0  0  0  0  0
  141.3200   75.7820  220.0370 N   0  0  0  0  0  0  0  0  0  0  0  0
  141.4410   77.1940  219.7010 C   0  0  0  0  0  0  0  0  0  0  0  0
  142.8020   77.2280  219.0260 C   0  0  2  0  0  0  0  0  0  0  0  0
  142.9400   78.3550  218.2210 O   0  0  0  0  0  0  0  0  0  0  0  0
  142.7550   75.9600  218.1970 C   0  0  0  0  0  0  0  0  0  0  0  0
  141.9280   74.9940  218.9830 C   0  0  1  0  0  0  0  0  0  0  0  0
  142.7550   73.8720  219.5370 C   0  0  0  0  0  0  0  0  0  0  0  0
  142.3160   72.5740  219.3870 C   0  0  0  0  0  0  0  0  0  0  0  0
  143.1020   71.5520  219.9100 C   0  0  0  0  0  0  0  0  0  0  0  0
  144.2980   71.8410  220.5660 C   0  0  0  0  0  0  0  0  0  0  0  0
  144.7320   73.1490  220.7130 C   0  0  0  0  0  0  0  0  0  0  0  0
  146.2460   73.4960  221.5460 Cl  0  0  0  0  0  0  0  0  0  0  0  0
  143.9480   74.1730  220.1910 C   0  0  0  0  0  0  0  0  0  0  0  0
  139.9600   70.9840  223.4350 C   0  0  0  0  0  0  0  0  0  0  0  0
  139.3550   69.7360  223.4190 C   0  0  0  0  0  0  0  0  0  0  0  0
  139.2360   69.0070  224.5770 C   0  0  0  0  0  0  0  0  0  0  0  0
  139.7210   69.5240  225.7550 C   0  0  0  0  0  0  0  0  0  0  0  0
  139.6070   68.8000  226.9240 C   0  0  0  0  0  0  0  0  0  0  0  0
  140.0930   69.3170  228.1090 C   0  0  0  0  0  0  0  0  0  0  0  0
  139.9720   68.5980  229.2370 F   0  0  0  0  0  0  0  0  0  0  0  0
  140.6950   70.5600  228.1230 C   0  0  0  0  0  0  0  0  0  0  0  0
  140.8050   71.2780  226.9430 C   0  0  0  0  0  0  0  0  0  0  0  0
  140.3200   70.7650  225.7600 C   0  0  0  0  0  0  0  0  0  0  0  0
  140.4270   71.4660  224.6010 N   0  0  0  0  0  0  0  0  0  0  0  0
  139.7130   73.6490  223.1350 H   0  0  0  0  0  0  0  0  0  0  0  0
  140.5813   73.2678  220.2737 H   0  0  0  0  0  0  0  0  0  0  0  0
  139.0002   74.0790  220.6154 H   0  0  0  0  0  0  0  0  0  0  0  0
  140.6435   77.5136  219.0141 H   0  0  0  0  0  0  0  0  0  0  0  0
  141.3508   77.8702  220.5639 H   0  0  0  0  0  0  0  0  0  0  0  0
  143.6504   77.2785  219.7243 H   0  0  0  0  0  0  0  0  0  0  0  0
  143.7010   78.8800  218.5790 H   0  0  0  0  0  0  0  0  0  0  0  0
  142.2895   76.1574  217.2201 H   0  0  0  0  0  0  0  0  0  0  0  0
  143.7629   75.5657  218.0002 H   0  0  0  0  0  0  0  0  0  0  0  0
  141.1706   74.5057  218.3522 H   0  0  0  0  0  0  0  0  0  0  0  0
  141.3714   72.3525  218.8687 H   0  0  0  0  0  0  0  0  0  0  0  0
  142.7769   70.5064  219.8050 H   0  0  0  0  0  0  0  0  0  0  0  0
  144.9057   71.0192  220.9726 H   0  0  0  0  0  0  0  0  0  0  0  0
  144.2698   75.2198  220.2945 H   0  0  0  0  0  0  0  0  0  0  0  0
  138.9683   69.3278  222.4736 H   0  0  0  0  0  0  0  0  0  0  0  0
  138.7564   68.0172  224.5620 H   0  0  0  0  0  0  0  0  0  0  0  0
  139.1284   67.8097  226.9122 H   0  0  0  0  0  0  0  0  0  0  0  0
  141.0842   70.9768  229.0637 H   0  0  0  0  0  0  0  0  0  0  0  0
  141.2846   72.2679  226.9509 H   0  0  0  0  0  0  0  0  0  0  0  0
  1  2  2  0
  2  3  1  0
  3  4  1  0
  4  5  1  0
  5  6  2  0
  5  7  1  0
  7  8  1  0
  8  9  1  0
  9 10  1  0
  9 11  1  0
 11 12  1  0
 12 13  1  0
 13 14  2  0
 14 15  1  0
 15 16  2  0
 16 17  1  0
 17 18  1  0
 17 19  2  0
  2 20  1  0
 20 21  2  0
 21 22  1  0
 22 23  2  0
 23 24  1  0
 24 25  2  0
 25 26  1  0
 25 27  1  0
 27 28  2  0
 28 29  1  0
 29 30  2  0
 12  7  1  0
 19 13  1  0
 30 20  1  0
 29 23  1  0
  3 31  1  0
  4 32  1  0
  4 33  1  0
  8 34  1  0
  8 35  1  0
  9 36  1  1
 10 37  1  0
 11 38  1  0
 11 39  1  0
 12 40  1  6
 14 41  1  0
 15 42  1  0
 16 43  1  0
 19 44  1  0
 21 45  1  0
 22 46  1  0
 24 47  1  0
 27 48  1  0
 28 49  1  0
M  END
>  <smiles>  (15) 
O=C(NCC(=O)N1C[C@H](O)C[C@H]1c1cccc(Cl)c1)c1ccc2cc(F)ccc2n1

>  <score_type>  (15) 
oracle

>  <origin>  (15) 
autodockgpu

>  <m_score__min__energy>  (15) 
-8.7799999999999994

>  <m_primary>  (15) 
energy

>  <rmsd>  (15) 
2.098566019466379

>  <m_score__min__rmsd>  (15) 
2.098566019466379

>  <meeko>  (15) 
{"free_energy": -8.32, "intermolecular_energy": -10.11, "internal_energy": -1.99, "cluster_size": 29, "cluster_id": 2, "rank_in_cluster": 26}

>  <energy>  (15) 
-8.64

>  <cluster_rmsd>  (15) 
0.12

>  <cluster>  (15) 
2

$$$$

     RDKit          3D

 49 52  0  0  0  0  0  0  0  0999 V2000
  140.7320   73.3750  222.1900 O   0  0  0  0  0  0  0  0  0  0  0  0
  140.3220   74.2480  221.3860 C   0  0  0  0  0  0  0  0  0  0  0  0
  140.2160   73.9950  219.9770 N   0  0  0  0  0  0  0  0  0  0  0  0
  140.6020   72.6870  219.5220 C   0  0  0  0  0  0  0  0  0  0  0  0
  141.8520   72.7490  218.6840 C   0  0  0  0  0  0  0  0  0  0  0  0
  141.7560   72.7170  217.4290 O   0  0  0  0  0  0  0  0  0  0  0  0
  143.0910   72.8420  219.3750 N   0  0  0  0  0  0  0  0  0  0  0  0
  144.1060   71.8130  219.5570 C   0  0  0  0  0  0  0  0  0  0  0  0
  145.3830   72.6330  219.4870 C   0  0  2  0  0  0  0  0  0  0  0  0
  146.4480   71.9630  220.0820 O   0  0  0  0  0  0  0  0  0  0  0  0
  144.9920   73.8630  220.2800 C   0  0  0  0  0  0  0  0  0  0  0  0
  143.5310   74.0580  220.0300 C   0  0  1  0  0  0  0  0  0  0  0  0
  143.2650   75.2690  219.1870 C   0  0  0  0  0  0  0  0  0  0  0  0
  143.6730   75.2760  217.8700 C   0  0  0  0  0  0  0  0  0  0  0  0
  143.4130   76.4120  217.1090 C   0  0  0  0  0  0  0  0  0  0  0  0
  142.7600   77.5080  217.6700 C   0  0  0  0  0  0  0  0  0  0  0  0
  142.3530   77.4940  218.9960 C   0  0  0  0  0  0  0  0  0  0  0  0
  141.5290   78.8880  219.6890 Cl  0  0  0  0  0  0  0  0  0  0  0  0
  142.6120   76.3590  219.7580 C   0  0  0  0  0  0  0  0  0  0  0  0
  139.9310   75.5820  221.8710 C   0  0  0  0  0  0  0  0  0  0  0  0
  138.5840   75.9140  221.9020 C   0  0  0  0  0  0  0  0  0  0  0  0
  138.1840   77.1500  222.3490 C   0  0  0  0  0  0  0  0  0  0  0  0
  139.1290   78.0570  222.7650 C   0  0  0  0  0  0  0  0  0  0  0  0
  138.7380   79.3020  223.2150 C   0  0  0  0  0  0  0  0  0  0  0  0
  139.6850   80.2160  223.6340 C   0  0  0  0  0  0  0  0  0  0  0  0
  139.2850   81.4230  224.0690 F   0  0  0  0  0  0  0  0  0  0  0  0
  141.0250   79.8830  223.6020 C   0  0  0  0  0  0  0  0  0  0  0  0
  141.4060   78.6310  223.1480 C   0  0  0  0  0  0  0  0  0  0  0  0
  140.4640   77.7180  222.7290 C   0  0  0  0  0  0  0  0  0  0  0  0
  140.8340   76.4890  222.2840 N   0  0  0  0  0  0  0  0  0  0  0  0
  139.8740   74.7290  219.3180 H   0  0  0  0  0  0  0  0  0  0  0  0
  140.7866   72.0435  220.3948 H   0  0  0  0  0  0  0  0  0  0  0  0
  139.7884   72.2787  218.9044 H   0  0  0  0  0  0  0  0  0  0  0  0
  144.0019   71.3136  220.5315 H   0  0  0  0  0  0  0  0  0  0  0  0
  144.0554   70.9973  218.8208 H   0  0  0  0  0  0  0  0  0  0  0  0
  145.7252   72.8476  218.4639 H   0  0  0  0  0  0  0  0  0  0  0  0
  146.2190   71.8380  221.0380 H   0  0  0  0  0  0  0  0  0  0  0  0
  145.1798   73.7038  221.3521 H   0  0  0  0  0  0  0  0  0  0  0  0
  145.5768   74.7441  219.9772 H   0  0  0  0  0  0  0  0  0  0  0  0
  142.9822   74.2367  220.9664 H   0  0  0  0  0  0  0  0  0  0  0  0
  144.1893   74.4085  217.4331 H   0  0  0  0  0  0  0  0  0  0  0  0
  143.7258   76.4451  216.0549 H   0  0  0  0  0  0  0  0  0  0  0  0
  142.5645   78.3970  217.0523 H   0  0  0  0  0  0  0  0  0  0  0  0
  142.3008   76.3224  220.8124 H   0  0  0  0  0  0  0  0  0  0  0  0
  137.8326   75.1838  221.5669 H   0  0  0  0  0  0  0  0  0  0  0  0
  137.1158   77.4116  222.3737 H   0  0  0  0  0  0  0  0  0  0  0  0
  137.6706   79.5666  223.2399 H   0  0  0  0  0  0  0  0  0  0  0  0
  141.7839   80.6065  223.9345 H   0  0  0  0  0  0  0  0  0  0  0  0
  142.4726   78.3631  223.1219 H   0  0  0  0  0  0  0  0  0  0  0  0
  1  2  2  0
  2  3  1  0
  3  4  1  0
  4  5  1  0
  5  6  2  0
  5  7  1  0
  7  8  1  0
  8  9  1  0
  9 10  1  0
  9 11  1  0
 11 12  1  0
 12 13  1  0
 13 14  2  0
 14 15  1  0
 15 16  2  0
 16 17  1  0
 17 18  1  0
 17 19  2  0
  2 20  1  0
 20 21  2  0
 21 22  1  0
 22 23  2  0
 23 24  1  0
 24 25  2  0
 25 26  1  0
 25 27  1  0
 27 28  2  0
 28 29  1  0
 29 30  2  0
 12  7  1  0
 19 13  1  0
 30 20  1  0
 29 23  1  0
  3 31  1  0
  4 32  1  0
  4 33  1  0
  8 34  1  0
  8 35  1  0
  9 36  1  6
 10 37  1  0
 11 38  1  0
 11 39  1  0
 12 40  1  1
 14 41  1  0
 15 42  1  0
 16 43  1  0
 19 44  1  0
 21 45  1  0
 22 46  1  0
 24 47  1  0
 27 48  1  0
 28 49  1  0
M  END
>  <smiles>  (16) 
O=C(NCC(=O)N1C[C@H](O)C[C@H]1c1cccc(Cl)c1)c1ccc2cc(F)ccc2n1

>  <score_type>  (16) 
oracle

>  <origin>  (16) 
autodockgpu

>  <m_score__min__energy>  (16) 
-8.7799999999999994

>  <m_primary>  (16) 
energy

>  <rmsd>  (16) 
7.227895034071147

>  <m_score__min__rmsd>  (16) 
7.227895034071147

>  <meeko>  (16) 
{"free_energy": -7.0, "intermolecular_energy": -8.79, "internal_energy": -2.47, "cluster_size": 4, "cluster_id": 6, "rank_in_cluster": 4}

>  <energy>  (16) 
-8.61

>  <cluster_rmsd>  (16) 
0.1

>  <cluster>  (16) 
2

$$$$

     RDKit          3D

 49 52  0  0  0  0  0  0  0  0999 V2000
  139.6060   73.3700  222.6790 O   0  0  0  0  0  0  0  0  0  0  0  0
  140.1290   72.2290  222.6420 C   0  0  0  0  0  0  0  0  0  0  0  0
  140.8290   71.7500  221.4850 N   0  0  0  0  0  0  0  0  0  0  0  0
  140.9090   72.6410  220.3590 C   0  0  0  0  0  0  0  0  0  0  0  0
  141.8640   73.7750  220.6280 C   0  0  0  0  0  0  0  0  0  0  0  0
  141.4080   74.8960  220.9750 O   0  0  0  0  0  0  0  0  0  0  0  0
  143.2510   73.5050  220.4720 N   0  0  0  0  0  0  0  0  0  0  0  0
  143.9440   72.2300  220.5920 C   0  0  0  0  0  0  0  0  0  0  0  0
  145.0090   72.3630  219.5170 C   0  0  2  0  0  0  0  0  0  0  0  0
  146.0670   71.4860  219.7410 O   0  0  0  0  0  0  0  0  0  0  0  0
  145.4390   73.8040  219.7010 C   0  0  0  0  0  0  0  0  0  0  0  0
  144.2170   74.5380  220.1500 C   0  0  1  0  0  0  0  0  0  0  0  0
  143.7020   75.4670  219.0920 C   0  0  0  0  0  0  0  0  0  0  0  0
  143.7110   75.0600  217.7750 C   0  0  0  0  0  0  0  0  0  0  0  0
  143.2270   75.9420  216.8130 C   0  0  0  0  0  0  0  0  0  0  0  0
  142.7490   77.1990  217.1790 C   0  0  0  0  0  0  0  0  0  0  0  0
  142.7430   77.6010  218.5060 C   0  0  0  0  0  0  0  0  0  0  0  0
  142.1350   79.1940  218.9510 Cl  0  0  0  0  0  0  0  0  0  0  0  0
  143.2260   76.7220  219.4690 C   0  0  0  0  0  0  0  0  0  0  0  0
  140.0370   71.3300  223.8050 C   0  0  0  0  0  0  0  0  0  0  0  0
  139.3360   70.1390  223.6750 C   0  0  0  0  0  0  0  0  0  0  0  0
  139.2310   69.2770  224.7390 C   0  0  0  0  0  0  0  0  0  0  0  0
  139.8250   69.6030  225.9360 C   0  0  0  0  0  0  0  0  0  0  0  0
  139.7240   68.7450  227.0110 C   0  0  0  0  0  0  0  0  0  0  0  0
  140.3200   69.0690  228.2150 C   0  0  0  0  0  0  0  0  0  0  0  0
  140.2110   68.2210  229.2500 F   0  0  0  0  0  0  0  0  0  0  0  0
  141.0170   70.2550  228.3410 C   0  0  0  0  0  0  0  0  0  0  0  0
  141.1110   71.1090  227.2540 C   0  0  0  0  0  0  0  0  0  0  0  0
  140.5170   70.7880  226.0530 C   0  0  0  0  0  0  0  0  0  0  0  0
  140.6090   71.6240  224.9860 N   0  0  0  0  0  0  0  0  0  0  0  0
  141.2600   70.7990  221.4650 H   0  0  0  0  0  0  0  0  0  0  0  0
  141.2583   72.0786  219.4805 H   0  0  0  0  0  0  0  0  0  0  0  0
  139.9096   73.0631  220.1772 H   0  0  0  0  0  0  0  0  0  0  0  0
  144.3923   72.1084  221.5891 H   0  0  0  0  0  0  0  0  0  0  0  0
  143.2924   71.3519  220.4721 H   0  0  0  0  0  0  0  0  0  0  0  0
  144.6579   72.1235  218.5024 H   0  0  0  0  0  0  0  0  0  0  0  0
  146.2720   71.5150  220.7100 H   0  0  0  0  0  0  0  0  0  0  0  0
  146.2295   73.8738  220.4627 H   0  0  0  0  0  0  0  0  0  0  0  0
  145.8474   74.2271  218.7714 H   0  0  0  0  0  0  0  0  0  0  0  0
  144.4288   75.1825  221.0159 H   0  0  0  0  0  0  0  0  0  0  0  0
  144.0898   74.0667  217.4924 H   0  0  0  0  0  0  0  0  0  0  0  0
  143.2218   75.6442  215.7541 H   0  0  0  0  0  0  0  0  0  0  0  0
  142.3710   77.8820  216.4040 H   0  0  0  0  0  0  0  0  0  0  0  0
  143.2326   77.0169  220.5287 H   0  0  0  0  0  0  0  0  0  0  0  0
  138.8624   69.8844  222.7154 H   0  0  0  0  0  0  0  0  0  0  0  0
  138.6761   68.3330  224.6347 H   0  0  0  0  0  0  0  0  0  0  0  0
  139.1681   67.8012  226.9099 H   0  0  0  0  0  0  0  0  0  0  0  0
  141.4935   70.5193  229.2966 H   0  0  0  0  0  0  0  0  0  0  0  0
  141.6660   72.0538  227.3510 H   0  0  0  0  0  0  0  0  0  0  0  0
  1  2  2  0
  2  3  1  0
  3  4  1  0
  4  5  1  0
  5  6  2  0
  5  7  1  0
  7  8  1  0
  8  9  1  0
  9 10  1  0
  9 11  1  0
 11 12  1  0
 12 13  1  0
 13 14  2  0
 14 15  1  0
 15 16  2  0
 16 17  1  0
 17 18  1  0
 17 19  2  0
  2 20  1  0
 20 21  2  0
 21 22  1  0
 22 23  2  0
 23 24  1  0
 24 25  2  0
 25 26  1  0
 25 27  1  0
 27 28  2  0
 28 29  1  0
 29 30  2  0
 12  7  1  0
 19 13  1  0
 30 20  1  0
 29 23  1  0
  3 31  1  0
  4 32  1  0
  4 33  1  0
  8 34  1  0
  8 35  1  0
  9 36  1  6
 10 37  1  0
 11 38  1  0
 11 39  1  0
 12 40  1  1
 14 41  1  0
 15 42  1  0
 16 43  1  0
 19 44  1  0
 21 45  1  0
 22 46  1  0
 24 47  1  0
 27 48  1  0
 28 49  1  0
M  END
>  <smiles>  (17) 
O=C(NCC(=O)N1C[C@H](O)C[C@H]1c1cccc(Cl)c1)c1ccc2cc(F)ccc2n1

>  <score_type>  (17) 
oracle

>  <origin>  (17) 
autodockgpu

>  <m_score__min__energy>  (17) 
-8.7799999999999994

>  <m_primary>  (17) 
energy

>  <rmsd>  (17) 
3.494547818958634

>  <m_score__min__rmsd>  (17) 
3.494547818958634

>  <meeko>  (17) 
{"free_energy": -8.57, "intermolecular_energy": -10.36, "internal_energy": -1.31, "cluster_size": 11, "cluster_id": 1, "rank_in_cluster": 8}

>  <energy>  (17) 
-8.59

>  <cluster_rmsd>  (17) 
0.22

>  <cluster>  (17) 
2

$$$$

     RDKit          3D

 49 52  0  0  0  0  0  0  0  0999 V2000
  140.7160   71.8810  221.1690 O   0  0  0  0  0  0  0  0  0  0  0  0
  140.1810   72.3650  222.1970 C   0  0  0  0  0  0  0  0  0  0  0  0
  139.6760   73.7070  222.2320 N   0  0  0  0  0  0  0  0  0  0  0  0
  139.8100   74.4830  221.0280 C   0  0  0  0  0  0  0  0  0  0  0  0
  140.9560   75.4550  221.1320 C   0  0  0  0  0  0  0  0  0  0  0  0
  141.4400   75.7200  222.2620 O   0  0  0  0  0  0  0  0  0  0  0  0
  141.4320   76.0270  219.9200 N   0  0  0  0  0  0  0  0  0  0  0  0
  141.5170   77.4340  219.5530 C   0  0  0  0  0  0  0  0  0  0  0  0
  142.8000   77.4570  218.7400 C   0  0  2  0  0  0  0  0  0  0  0  0
  142.8520   78.5730  217.9090 O   0  0  0  0  0  0  0  0  0  0  0  0
  142.6680   76.1780  217.9390 C   0  0  0  0  0  0  0  0  0  0  0  0
  141.9280   75.2230  218.8190 C   0  0  1  0  0  0  0  0  0  0  0  0
  142.8090   74.1090  219.3000 C   0  0  0  0  0  0  0  0  0  0  0  0
  142.4400   72.8030  219.0520 C   0  0  0  0  0  0  0  0  0  0  0  0
  143.2760   71.7890  219.5080 C   0  0  0  0  0  0  0  0  0  0  0  0
  144.4500   72.0910  220.1960 C   0  0  0  0  0  0  0  0  0  0  0  0
  144.8140   73.4060  220.4420 C   0  0  0  0  0  0  0  0  0  0  0  0
  146.3010   73.7710  221.3130 Cl  0  0  0  0  0  0  0  0  0  0  0  0
  143.9800   74.4230  219.9860 C   0  0  0  0  0  0  0  0  0  0  0  0
  140.0520   71.5560  223.4200 C   0  0  0  0  0  0  0  0  0  0  0  0
  139.3640   70.3520  223.3570 C   0  0  0  0  0  0  0  0  0  0  0  0
  139.2250   69.5720  224.4780 C   0  0  0  0  0  0  0  0  0  0  0  0
  139.7720   69.9920  225.6670 C   0  0  0  0  0  0  0  0  0  0  0  0
  139.6380   69.2170  226.8000 C   0  0  0  0  0  0  0  0  0  0  0  0
  140.1870   69.6370  227.9970 C   0  0  0  0  0  0  0  0  0  0  0  0
  140.0460   68.8680  229.0890 F   0  0  0  0  0  0  0  0  0  0  0  0
  140.8710   70.8340  228.0570 C   0  0  0  0  0  0  0  0  0  0  0  0
  141.0000   71.6050  226.9130 C   0  0  0  0  0  0  0  0  0  0  0  0
  140.4530   71.1890  225.7200 C   0  0  0  0  0  0  0  0  0  0  0  0
  140.5780   71.9420  224.5960 N   0  0  0  0  0  0  0  0  0  0  0  0
  139.2330   74.1000  223.0920 H   0  0  0  0  0  0  0  0  0  0  0  0
  139.9909   73.8041  220.1816 H   0  0  0  0  0  0  0  0  0  0  0  0
  138.8818   75.0534  220.8757 H   0  0  0  0  0  0  0  0  0  0  0  0
  140.6523   77.7446  218.9482 H   0  0  0  0  0  0  0  0  0  0  0  0
  141.5169   78.1224  220.4109 H   0  0  0  0  0  0  0  0  0  0  0  0
  143.7167   77.5164  219.3451 H   0  0  0  0  0  0  0  0  0  0  0  0
  143.7580   78.5970  217.5070 H   0  0  0  0  0  0  0  0  0  0  0  0
  142.1035   76.3621  217.0130 H   0  0  0  0  0  0  0  0  0  0  0  0
  143.6506   75.7804  217.6449 H   0  0  0  0  0  0  0  0  0  0  0  0
  141.1101   74.7259  218.2769 H   0  0  0  0  0  0  0  0  0  0  0  0
  141.5118   72.5703  218.5095 H   0  0  0  0  0  0  0  0  0  0  0  0
  143.0079   70.7382  219.3238 H   0  0  0  0  0  0  0  0  0  0  0  0
  145.0970   71.2743  220.5488 H   0  0  0  0  0  0  0  0  0  0  0  0
  144.2457   75.4749  220.1674 H   0  0  0  0  0  0  0  0  0  0  0  0
  138.9276   70.0210  222.4031 H   0  0  0  0  0  0  0  0  0  0  0  0
  138.6800   68.6180  224.4252 H   0  0  0  0  0  0  0  0  0  0  0  0
  139.0931   68.2627  226.7509 H   0  0  0  0  0  0  0  0  0  0  0  0
  141.3107   71.1737  229.0064 H   0  0  0  0  0  0  0  0  0  0  0  0
  141.5451   72.5594  226.9584 H   0  0  0  0  0  0  0  0  0  0  0  0
  1  2  2  0
  2  3  1  0
  3  4  1  0
  4  5  1  0
  5  6  2  0
  5  7  1  0
  7  8  1  0
  8  9  1  0
  9 10  1  0
  9 11  1  0
 11 12  1  0
 12 13  1  0
 13 14  2  0
 14 15  1  0
 15 16  2  0
 16 17  1  0
 17 18  1  0
 17 19  2  0
  2 20  1  0
 20 21  2  0
 21 22  1  0
 22 23  2  0
 23 24  1  0
 24 25  2  0
 25 26  1  0
 25 27  1  0
 27 28  2  0
 28 29  1  0
 29 30  2  0
 12  7  1  0
 19 13  1  0
 30 20  1  0
 29 23  1  0
  3 31  1  0
  4 32  1  0
  4 33  1  0
  8 34  1  0
  8 35  1  0
  9 36  1  1
 10 37  1  0
 11 38  1  0
 11 39  1  0
 12 40  1  6
 14 41  1  0
 15 42  1  0
 16 43  1  0
 19 44  1  0
 21 45  1  0
 22 46  1  0
 24 47  1  0
 27 48  1  0
 28 49  1  0
M  END
>  <smiles>  (18) 
O=C(NCC(=O)N1C[C@H](O)C[C@H]1c1cccc(Cl)c1)c1ccc2cc(F)ccc2n1

>  <score_type>  (18) 
oracle

>  <origin>  (18) 
autodockgpu

>  <m_score__min__energy>  (18) 
-8.7799999999999994

>  <m_primary>  (18) 
energy

>  <rmsd>  (18) 
2.1739688796833327

>  <m_score__min__rmsd>  (18) 
2.1739688796833327

>  <meeko>  (18) 
{"free_energy": -8.51, "intermolecular_energy": -10.3, "internal_energy": -1.84, "cluster_size": 29, "cluster_id": 2, "rank_in_cluster": 17}

>  <energy>  (18) 
-8.57

>  <cluster_rmsd>  (18) 
0.23

>  <cluster>  (18) 
2

$$$$

     RDKit          3D

 49 52  0  0  0  0  0  0  0  0999 V2000
  140.6580   71.7160  221.0390 O   0  0  0  0  0  0  0  0  0  0  0  0
  140.2730   72.2560  222.1050 C   0  0  0  0  0  0  0  0  0  0  0  0
  139.9190   73.6450  222.1710 N   0  0  0  0  0  0  0  0  0  0  0  0
  140.0250   74.3990  220.9510 C   0  0  0  0  0  0  0  0  0  0  0  0
  141.0100   75.5300  221.0940 C   0  0  0  0  0  0  0  0  0  0  0  0
  141.3310   75.9270  222.2430 O   0  0  0  0  0  0  0  0  0  0  0  0
  141.5290   76.0920  219.8950 N   0  0  0  0  0  0  0  0  0  0  0  0
  141.4380   77.4680  219.4260 C   0  0  0  0  0  0  0  0  0  0  0  0
  142.7870   77.6460  218.7500 C   0  0  2  0  0  0  0  0  0  0  0  0
  142.7630   78.7000  217.8410 O   0  0  0  0  0  0  0  0  0  0  0  0
  142.9460   76.3140  218.0460 C   0  0  0  0  0  0  0  0  0  0  0  0
  142.2650   75.3100  218.9200 C   0  0  1  0  0  0  0  0  0  0  0  0
  143.2460   74.3860  219.5790 C   0  0  0  0  0  0  0  0  0  0  0  0
  144.3370   74.9160  220.2340 C   0  0  0  0  0  0  0  0  0  0  0  0
  145.2300   74.0360  220.8370 C   0  0  0  0  0  0  0  0  0  0  0  0
  145.0210   72.6590  220.7750 C   0  0  0  0  0  0  0  0  0  0  0  0
  143.9220   72.1330  220.1140 C   0  0  0  0  0  0  0  0  0  0  0  0
  143.6740   70.3900  220.0460 Cl  0  0  0  0  0  0  0  0  0  0  0  0
  143.0270   73.0110  219.5110 C   0  0  0  0  0  0  0  0  0  0  0  0
  140.1720   71.4670  223.3450 C   0  0  0  0  0  0  0  0  0  0  0  0
  139.5550   70.2250  223.2970 C   0  0  0  0  0  0  0  0  0  0  0  0
  139.4430   69.4620  224.4340 C   0  0  0  0  0  0  0  0  0  0  0  0
  139.9470   69.9380  225.6210 C   0  0  0  0  0  0  0  0  0  0  0  0
  139.8390   69.1810  226.7690 C   0  0  0  0  0  0  0  0  0  0  0  0
  140.3440   69.6580  227.9640 C   0  0  0  0  0  0  0  0  0  0  0  0
  140.2290   68.9050  229.0710 F   0  0  0  0  0  0  0  0  0  0  0  0
  140.9570   70.8940  228.0080 C   0  0  0  0  0  0  0  0  0  0  0  0
  141.0590   71.6460  226.8490 C   0  0  0  0  0  0  0  0  0  0  0  0
  140.5560   71.1740  225.6570 C   0  0  0  0  0  0  0  0  0  0  0  0
  140.6560   71.9090  224.5190 N   0  0  0  0  0  0  0  0  0  0  0  0
  139.6010   74.0830  223.0630 H   0  0  0  0  0  0  0  0  0  0  0  0
  140.3604   73.7308  220.1441 H   0  0  0  0  0  0  0  0  0  0  0  0
  139.0378   74.8241  220.7171 H   0  0  0  0  0  0  0  0  0  0  0  0
  140.6107   77.5956  218.7123 H   0  0  0  0  0  0  0  0  0  0  0  0
  141.2338   78.2007  220.2207 H   0  0  0  0  0  0  0  0  0  0  0  0
  143.6077   77.8914  219.4401 H   0  0  0  0  0  0  0  0  0  0  0  0
  143.6820   78.8020  217.4860 H   0  0  0  0  0  0  0  0  0  0  0  0
  142.4701   76.3450  217.0548 H   0  0  0  0  0  0  0  0  0  0  0  0
  144.0051   76.0624  217.8880 H   0  0  0  0  0  0  0  0  0  0  0  0
  141.6007   74.6538  218.3385 H   0  0  0  0  0  0  0  0  0  0  0  0
  144.4969   76.0034  220.2786 H   0  0  0  0  0  0  0  0  0  0  0  0
  146.1091   74.4303  221.3677 H   0  0  0  0  0  0  0  0  0  0  0  0
  145.7390   71.9798  221.2578 H   0  0  0  0  0  0  0  0  0  0  0  0
  142.1463   72.6201  218.9804 H   0  0  0  0  0  0  0  0  0  0  0  0
  139.1537   69.8496  222.3441 H   0  0  0  0  0  0  0  0  0  0  0  0
  138.9537   68.4776  224.3948 H   0  0  0  0  0  0  0  0  0  0  0  0
  139.3502   68.1962  226.7334 H   0  0  0  0  0  0  0  0  0  0  0  0
  141.3613   71.2788  228.9559 H   0  0  0  0  0  0  0  0  0  0  0  0
  141.5473   72.6312  226.8812 H   0  0  0  0  0  0  0  0  0  0  0  0
  1  2  2  0
  2  3  1  0
  3  4  1  0
  4  5  1  0
  5  6  2  0
  5  7  1  0
  7  8  1  0
  8  9  1  0
  9 10  1  0
  9 11  1  0
 11 12  1  0
 12 13  1  0
 13 14  2  0
 14 15  1  0
 15 16  2  0
 16 17  1  0
 17 18  1  0
 17 19  2  0
  2 20  1  0
 20 21  2  0
 21 22  1  0
 22 23  2  0
 23 24  1  0
 24 25  2  0
 25 26  1  0
 25 27  1  0
 27 28  2  0
 28 29  1  0
 29 30  2  0
 12  7  1  0
 19 13  1  0
 30 20  1  0
 29 23  1  0
  3 31  1  0
  4 32  1  0
  4 33  1  0
  8 34  1  0
  8 35  1  0
  9 36  1  1
 10 37  1  0
 11 38  1  0
 11 39  1  0
 12 40  1  6
 14 41  1  0
 15 42  1  0
 16 43  1  0
 19 44  1  0
 21 45  1  0
 22 46  1  0
 24 47  1  0
 27 48  1  0
 28 49  1  0
M  END
>  <smiles>  (19) 
O=C(NCC(=O)N1C[C@H](O)C[C@H]1c1cccc(Cl)c1)c1ccc2cc(F)ccc2n1

>  <score_type>  (19) 
oracle

>  <origin>  (19) 
autodockgpu

>  <m_score__min__energy>  (19) 
-8.7799999999999994

>  <m_primary>  (19) 
energy

>  <rmsd>  (19) 
2.186863970231524

>  <m_score__min__rmsd>  (19) 
2.186863970231524

>  <meeko>  (19) 
{"free_energy": -8.55, "intermolecular_energy": -10.34, "internal_energy": -2.04, "cluster_size": 29, "cluster_id": 2, "rank_in_cluster": 10}

>  <energy>  (19) 
-8.55

>  <cluster_rmsd>  (19) 
0.86

>  <cluster>  (19) 
2

$$$$

     RDKit          3D

 49 52  0  0  0  0  0  0  0  0999 V2000
  141.2100   72.2120  221.1700 O   0  0  0  0  0  0  0  0  0  0  0  0
  140.4020   72.5630  222.0650 C   0  0  0  0  0  0  0  0  0  0  0  0
  139.6390   73.7740  221.9710 N   0  0  0  0  0  0  0  0  0  0  0  0
  139.8410   74.5780  220.7960 C   0  0  0  0  0  0  0  0  0  0  0  0
  141.1360   75.3440  220.8750 C   0  0  0  0  0  0  0  0  0  0  0  0
  141.7150   75.4620  221.9850 O   0  0  0  0  0  0  0  0  0  0  0  0
  141.6360   75.8980  219.6640 N   0  0  0  0  0  0  0  0  0  0  0  0
  141.4770   77.2530  219.1550 C   0  0  0  0  0  0  0  0  0  0  0  0
  142.8210   77.4820  218.4850 C   0  0  2  0  0  0  0  0  0  0  0  0
  142.7500   78.5080  217.5460 O   0  0  0  0  0  0  0  0  0  0  0  0
  143.0560   76.1410  217.8210 C   0  0  0  0  0  0  0  0  0  0  0  0
  142.4210   75.1280  218.7180 C   0  0  1  0  0  0  0  0  0  0  0  0
  143.4420   74.2760  219.4110 C   0  0  0  0  0  0  0  0  0  0  0  0
  144.4020   74.8780  220.1970 C   0  0  0  0  0  0  0  0  0  0  0  0
  145.3370   74.0630  220.8280 C   0  0  0  0  0  0  0  0  0  0  0  0
  145.2980   72.6800  220.6650 C   0  0  0  0  0  0  0  0  0  0  0  0
  144.3300   72.0810  219.8730 C   0  0  0  0  0  0  0  0  0  0  0  0
  144.2960   70.3310  219.6780 Cl  0  0  0  0  0  0  0  0  0  0  0  0
  143.3940   72.8930  219.2410 C   0  0  0  0  0  0  0  0  0  0  0  0
  140.2090   71.7270  223.2620 C   0  0  0  0  0  0  0  0  0  0  0  0
  139.4930   70.5440  223.1430 C   0  0  0  0  0  0  0  0  0  0  0  0
  139.2950   69.7390  224.2380 C   0  0  0  0  0  0  0  0  0  0  0  0
  139.8090   70.1150  225.4560 C   0  0  0  0  0  0  0  0  0  0  0  0
  139.6150   69.3150  226.5630 C   0  0  0  0  0  0  0  0  0  0  0  0
  140.1310   69.6910  227.7890 C   0  0  0  0  0  0  0  0  0  0  0  0
  139.9310   68.8980  228.8550 F   0  0  0  0  0  0  0  0  0  0  0  0
  140.8420   70.8680  227.9050 C   0  0  0  0  0  0  0  0  0  0  0  0
  141.0310   71.6640  226.7860 C   0  0  0  0  0  0  0  0  0  0  0  0
  140.5170   71.2920  225.5640 C   0  0  0  0  0  0  0  0  0  0  0  0
  140.7020   72.0700  224.4650 N   0  0  0  0  0  0  0  0  0  0  0  0
  138.9700   74.0560  222.7220 H   0  0  0  0  0  0  0  0  0  0  0  0
  139.8652   73.9227  219.9128 H   0  0  0  0  0  0  0  0  0  0  0  0
  139.0140   75.2994  220.7216 H   0  0  0  0  0  0  0  0  0  0  0  0
  140.6509   77.3165  218.4315 H   0  0  0  0  0  0  0  0  0  0  0  0
  141.2269   77.9963  219.9263 H   0  0  0  0  0  0  0  0  0  0  0  0
  143.6217   77.7890  219.1739 H   0  0  0  0  0  0  0  0  0  0  0  0
  143.6790   78.7180  217.2710 H   0  0  0  0  0  0  0  0  0  0  0  0
  142.5881   76.1187  216.8257 H   0  0  0  0  0  0  0  0  0  0  0  0
  144.1283   75.9412  217.6784 H   0  0  0  0  0  0  0  0  0  0  0  0
  141.7979   74.4211  218.1505 H   0  0  0  0  0  0  0  0  0  0  0  0
  144.4279   75.9706  220.3216 H   0  0  0  0  0  0  0  0  0  0  0  0
  146.1143   74.5151  221.4615 H   0  0  0  0  0  0  0  0  0  0  0  0
  146.0465   72.0535  221.1723 H   0  0  0  0  0  0  0  0  0  0  0  0
  142.6156   72.4438  218.6068 H   0  0  0  0  0  0  0  0  0  0  0  0
  139.0818   70.2495  222.1662 H   0  0  0  0  0  0  0  0  0  0  0  0
  138.7294   68.8006  224.1410 H   0  0  0  0  0  0  0  0  0  0  0  0
  139.0489   68.3765  226.4699 H   0  0  0  0  0  0  0  0  0  0  0  0
  141.2555   71.1722  228.8779 H   0  0  0  0  0  0  0  0  0  0  0  0
  141.5975   72.6027  226.8752 H   0  0  0  0  0  0  0  0  0  0  0  0
  1  2  2  0
  2  3  1  0
  3  4  1  0
  4  5  1  0
  5  6  2  0
  5  7  1  0
  7  8  1  0
  8  9  1  0
  9 10  1  0
  9 11  1  0
 11 12  1  0
 12 13  1  0
 13 14  2  0
 14 15  1  0
 15 16  2  0
 16 17  1  0
 17 18  1  0
 17 19  2  0
  2 20  1  0
 20 21  2  0
 21 22  1  0
 22 23  2  0
 23 24  1  0
 24 25  2  0
 25 26  1  0
 25 27  1  0
 27 28  2  0
 28 29  1  0
 29 30  2  0
 12  7  1  0
 19 13  1  0
 30 20  1  0
 29 23  1  0
  3 31  1  0
  4 32  1  0
  4 33  1  0
  8 34  1  0
  8 35  1  0
  9 36  1  1
 10 37  1  0
 11 38  1  0
 11 39  1  0
 12 40  1  6
 14 41  1  0
 15 42  1  0
 16 43  1  0
 19 44  1  0
 21 45  1  0
 22 46  1  0
 24 47  1  0
 27 48  1  0
 28 49  1  0
M  END
>  <smiles>  (20) 
O=C(NCC(=O)N1C[C@H](O)C[C@H]1c1cccc(Cl)c1)c1ccc2cc(F)ccc2n1

>  <score_type>  (20) 
oracle

>  <origin>  (20) 
autodockgpu

>  <m_score__min__energy>  (20) 
-8.7799999999999994

>  <m_primary>  (20) 
energy

>  <rmsd>  (20) 
2.2432161782500977

>  <m_score__min__rmsd>  (20) 
2.2432161782500977

>  <meeko>  (20) 
{"free_energy": -8.45, "intermolecular_energy": -10.24, "internal_energy": -1.82, "cluster_size": 29, "cluster_id": 2, "rank_in_cluster": 21}

>  <energy>  (20) 
-8.55

>  <cluster_rmsd>  (20) 
0.23

>  <cluster>  (20) 
2

$$$$

     RDKit          3D

 49 52  0  0  0  0  0  0  0  0999 V2000
  140.7200   71.6560  221.0230 O   0  0  0  0  0  0  0  0  0  0  0  0
  140.3130   72.2070  222.0760 C   0  0  0  0  0  0  0  0  0  0  0  0
  139.9570   73.5960  222.1190 N   0  0  0  0  0  0  0  0  0  0  0  0
  140.0850   74.3380  220.8940 C   0  0  0  0  0  0  0  0  0  0  0  0
  140.9980   75.5240  221.0680 C   0  0  0  0  0  0  0  0  0  0  0  0
  141.2470   75.9460  222.2270 O   0  0  0  0  0  0  0  0  0  0  0  0
  141.5330   76.1080  219.8870 N   0  0  0  0  0  0  0  0  0  0  0  0
  141.4370   77.4890  219.4350 C   0  0  0  0  0  0  0  0  0  0  0  0
  142.7970   77.6900  218.7880 C   0  0  2  0  0  0  0  0  0  0  0  0
  142.7790   78.7560  217.8930 O   0  0  0  0  0  0  0  0  0  0  0  0
  142.9840   76.3700  218.0700 C   0  0  0  0  0  0  0  0  0  0  0  0
  142.2970   75.3470  218.9170 C   0  0  1  0  0  0  0  0  0  0  0  0
  143.2750   74.4240  219.5820 C   0  0  0  0  0  0  0  0  0  0  0  0
  144.3650   74.9560  220.2370 C   0  0  0  0  0  0  0  0  0  0  0  0
  145.2560   74.0770  220.8460 C   0  0  0  0  0  0  0  0  0  0  0  0
  145.0450   72.7010  220.7910 C   0  0  0  0  0  0  0  0  0  0  0  0
  143.9460   72.1740  220.1300 C   0  0  0  0  0  0  0  0  0  0  0  0
  143.6950   70.4310  220.0700 Cl  0  0  0  0  0  0  0  0  0  0  0  0
  143.0540   73.0500  219.5200 C   0  0  0  0  0  0  0  0  0  0  0  0
  140.1880   71.4320  223.3210 C   0  0  0  0  0  0  0  0  0  0  0  0
  139.5640   70.1930  223.2770 C   0  0  0  0  0  0  0  0  0  0  0  0
  139.4310   69.4430  224.4200 C   0  0  0  0  0  0  0  0  0  0  0  0
  139.9200   69.9280  225.6090 C   0  0  0  0  0  0  0  0  0  0  0  0
  139.7900   69.1830  226.7640 C   0  0  0  0  0  0  0  0  0  0  0  0
  140.2810   69.6680  227.9610 C   0  0  0  0  0  0  0  0  0  0  0  0
  140.1450   68.9280  229.0730 F   0  0  0  0  0  0  0  0  0  0  0  0
  140.9010   70.9010  228.0010 C   0  0  0  0  0  0  0  0  0  0  0  0
  141.0260   71.6410  226.8360 C   0  0  0  0  0  0  0  0  0  0  0  0
  140.5370   71.1600  225.6420 C   0  0  0  0  0  0  0  0  0  0  0  0
  140.6580   71.8820  224.4980 N   0  0  0  0  0  0  0  0  0  0  0  0
  139.6200   74.0440  223.0000 H   0  0  0  0  0  0  0  0  0  0  0  0
  140.4979   73.6784  220.1165 H   0  0  0  0  0  0  0  0  0  0  0  0
  139.0895   74.7046  220.6032 H   0  0  0  0  0  0  0  0  0  0  0  0
  140.6225   77.6180  218.7070 H   0  0  0  0  0  0  0  0  0  0  0  0
  141.2099   78.2086  220.2354 H   0  0  0  0  0  0  0  0  0  0  0  0
  143.6017   77.9344  219.4971 H   0  0  0  0  0  0  0  0  0  0  0  0
  143.6920   78.8380  217.5160 H   0  0  0  0  0  0  0  0  0  0  0  0
  142.5272   76.4093  217.0701 H   0  0  0  0  0  0  0  0  0  0  0  0
  144.0487   76.1318  217.9296 H   0  0  0  0  0  0  0  0  0  0  0  0
  141.6513   74.6914  218.3144 H   0  0  0  0  0  0  0  0  0  0  0  0
  144.5260   76.0434  220.2772 H   0  0  0  0  0  0  0  0  0  0  0  0
  146.1351   74.4726  221.3758 H   0  0  0  0  0  0  0  0  0  0  0  0
  145.7606   72.0229  221.2790 H   0  0  0  0  0  0  0  0  0  0  0  0
  142.1743   72.6578  218.9888 H   0  0  0  0  0  0  0  0  0  0  0  0
  139.1742   69.8099  222.3224 H   0  0  0  0  0  0  0  0  0  0  0  0
  138.9365   68.4611  224.3838 H   0  0  0  0  0  0  0  0  0  0  0  0
  139.2946   68.2014  226.7313 H   0  0  0  0  0  0  0  0  0  0  0  0
  141.2930   71.2932  228.9510 H   0  0  0  0  0  0  0  0  0  0  0  0
  141.5210   72.6229  226.8654 H   0  0  0  0  0  0  0  0  0  0  0  0
  1  2  2  0
  2  3  1  0
  3  4  1  0
  4  5  1  0
  5  6  2  0
  5  7  1  0
  7  8  1  0
  8  9  1  0
  9 10  1  0
  9 11  1  0
 11 12  1  0
 12 13  1  0
 13 14  2  0
 14 15  1  0
 15 16  2  0
 16 17  1  0
 17 18  1  0
 17 19  2  0
  2 20  1  0
 20 21  2  0
 21 22  1  0
 22 23  2  0
 23 24  1  0
 24 25  2  0
 25 26  1  0
 25 27  1  0
 27 28  2  0
 28 29  1  0
 29 30  2  0
 12  7  1  0
 19 13  1  0
 30 20  1  0
 29 23  1  0
  3 31  1  0
  4 32  1  0
  4 33  1  0
  8 34  1  0
  8 35  1  0
  9 36  1  1
 10 37  1  0
 11 38  1  0
 11 39  1  0
 12 40  1  6
 14 41  1  0
 15 42  1  0
 16 43  1  0
 19 44  1  0
 21 45  1  0
 22 46  1  0
 24 47  1  0
 27 48  1  0
 28 49  1  0
M  END
>  <smiles>  (21) 
O=C(NCC(=O)N1C[C@H](O)C[C@H]1c1cccc(Cl)c1)c1ccc2cc(F)ccc2n1

>  <score_type>  (21) 
oracle

>  <origin>  (21) 
autodockgpu

>  <m_score__min__energy>  (21) 
-8.7799999999999994

>  <m_primary>  (21) 
energy

>  <rmsd>  (21) 
2.1962439955228374

>  <m_score__min__rmsd>  (21) 
2.1962439955228374

>  <meeko>  (21) 
{"free_energy": -8.54, "intermolecular_energy": -10.33, "internal_energy": -2.05, "cluster_size": 29, "cluster_id": 2, "rank_in_cluster": 12}

>  <energy>  (21) 
-8.55

>  <cluster_rmsd>  (21) 
0.24

>  <cluster>  (21) 
2

$$$$

     RDKit          3D

 49 52  0  0  0  0  0  0  0  0999 V2000
  141.1630   71.8000  221.1410 O   0  0  0  0  0  0  0  0  0  0  0  0
  140.4690   72.2750  222.0730 C   0  0  0  0  0  0  0  0  0  0  0  0
  139.8520   73.5680  221.9820 N   0  0  0  0  0  0  0  0  0  0  0  0
  140.0650   74.3030  220.7640 C   0  0  0  0  0  0  0  0  0  0  0  0
  141.0970   75.3850  220.9540 C   0  0  0  0  0  0  0  0  0  0  0  0
  141.4470   75.7050  222.1190 O   0  0  0  0  0  0  0  0  0  0  0  0
  141.6230   75.9910  219.7800 N   0  0  0  0  0  0  0  0  0  0  0  0
  141.4890   77.3720  219.3370 C   0  0  0  0  0  0  0  0  0  0  0  0
  142.8470   77.6170  218.7000 C   0  0  2  0  0  0  0  0  0  0  0  0
  142.8040   78.6880  217.8120 O   0  0  0  0  0  0  0  0  0  0  0  0
  143.0760   76.3070  217.9740 C   0  0  0  0  0  0  0  0  0  0  0  0
  142.4140   75.2590  218.8100 C   0  0  1  0  0  0  0  0  0  0  0  0
  143.4130   74.3610  219.4760 C   0  0  0  0  0  0  0  0  0  0  0  0
  144.4310   74.9190  220.2200 C   0  0  0  0  0  0  0  0  0  0  0  0
  145.3440   74.0620  220.8270 C   0  0  0  0  0  0  0  0  0  0  0  0
  145.2270   72.6800  220.6820 C   0  0  0  0  0  0  0  0  0  0  0  0
  144.2010   72.1270  219.9310 C   0  0  0  0  0  0  0  0  0  0  0  0
  144.0680   70.3780  219.7580 Cl  0  0  0  0  0  0  0  0  0  0  0  0
  143.2860   72.9810  219.3230 C   0  0  0  0  0  0  0  0  0  0  0  0
  140.2620   71.5070  223.3130 C   0  0  0  0  0  0  0  0  0  0  0  0
  139.5740   70.3040  223.2470 C   0  0  0  0  0  0  0  0  0  0  0  0
  139.3630   69.5620  224.3830 C   0  0  0  0  0  0  0  0  0  0  0  0
  139.8390   70.0210  225.5890 C   0  0  0  0  0  0  0  0  0  0  0  0
  139.6320   69.2840  226.7370 C   0  0  0  0  0  0  0  0  0  0  0  0
  140.1080   69.7420  227.9500 C   0  0  0  0  0  0  0  0  0  0  0  0
  139.8970   69.0100  229.0560 F   0  0  0  0  0  0  0  0  0  0  0  0
  140.7920   70.9400  228.0130 C   0  0  0  0  0  0  0  0  0  0  0  0
  140.9940   71.6720  226.8540 C   0  0  0  0  0  0  0  0  0  0  0  0
  140.5190   71.2170  225.6430 C   0  0  0  0  0  0  0  0  0  0  0  0
  140.7160   71.9320  224.5050 N   0  0  0  0  0  0  0  0  0  0  0  0
  139.2780   73.9530  222.7630 H   0  0  0  0  0  0  0  0  0  0  0  0
  140.4110   73.6103  219.9827 H   0  0  0  0  0  0  0  0  0  0  0  0
  139.1154   74.7747  220.4711 H   0  0  0  0  0  0  0  0  0  0  0  0
  140.6756   77.4823  218.6048 H   0  0  0  0  0  0  0  0  0  0  0  0
  141.2357   78.0790  220.1407 H   0  0  0  0  0  0  0  0  0  0  0  0
  143.6399   77.8799  219.4157 H   0  0  0  0  0  0  0  0  0  0  0  0
  143.7140   78.7930  217.4350 H   0  0  0  0  0  0  0  0  0  0  0  0
  142.6239   76.3400  216.9717 H   0  0  0  0  0  0  0  0  0  0  0  0
  144.1479   76.1004  217.8384 H   0  0  0  0  0  0  0  0  0  0  0  0
  141.7919   74.5891  218.1983 H   0  0  0  0  0  0  0  0  0  0  0  0
  144.5189   76.0099  220.3305 H   0  0  0  0  0  0  0  0  0  0  0  0
  146.1662   74.4789  221.4272 H   0  0  0  0  0  0  0  0  0  0  0  0
  145.9588   72.0195  221.1702 H   0  0  0  0  0  0  0  0  0  0  0  0
  142.4628   72.5675  218.7219 H   0  0  0  0  0  0  0  0  0  0  0  0
  139.1955   69.9427  222.2794 H   0  0  0  0  0  0  0  0  0  0  0  0
  138.8177   68.6082  224.3289 H   0  0  0  0  0  0  0  0  0  0  0  0
  139.0869   68.3299  226.6860 H   0  0  0  0  0  0  0  0  0  0  0  0
  141.1736   71.3103  228.9759 H   0  0  0  0  0  0  0  0  0  0  0  0
  141.5392   72.6262  226.9010 H   0  0  0  0  0  0  0  0  0  0  0  0
  1  2  2  0
  2  3  1  0
  3  4  1  0
  4  5  1  0
  5  6  2  0
  5  7  1  0
  7  8  1  0
  8  9  1  0
  9 10  1  0
  9 11  1  0
 11 12  1  0
 12 13  1  0
 13 14  2  0
 14 15  1  0
 15 16  2  0
 16 17  1  0
 17 18  1  0
 17 19  2  0
  2 20  1  0
 20 21  2  0
 21 22  1  0
 22 23  2  0
 23 24  1  0
 24 25  2  0
 25 26  1  0
 25 27  1  0
 27 28  2  0
 28 29  1  0
 29 30  2  0
 12  7  1  0
 19 13  1  0
 30 20  1  0
 29 23  1  0
  3 31  1  0
  4 32  1  0
  4 33  1  0
  8 34  1  0
  8 35  1  0
  9 36  1  1
 10 37  1  0
 11 38  1  0
 11 39  1  0
 12 40  1  6
 14 41  1  0
 15 42  1  0
 16 43  1  0
 19 44  1  0
 21 45  1  0
 22 46  1  0
 24 47  1  0
 27 48  1  0
 28 49  1  0
M  END
>  <smiles>  (22) 
O=C(NCC(=O)N1C[C@H](O)C[C@H]1c1cccc(Cl)c1)c1ccc2cc(F)ccc2n1

>  <score_type>  (22) 
oracle

>  <origin>  (22) 
autodockgpu

>  <m_score__min__energy>  (22) 
-8.7799999999999994

>  <m_primary>  (22) 
energy

>  <rmsd>  (22) 
2.238574712449854

>  <m_score__min__rmsd>  (22) 
2.238574712449854

>  <meeko>  (22) 
{"free_energy": -8.69, "intermolecular_energy": -10.48, "internal_energy": -1.87, "cluster_size": 29, "cluster_id": 2, "rank_in_cluster": 3}

>  <energy>  (22) 
-8.55

>  <cluster_rmsd>  (22) 
0.24

>  <cluster>  (22) 
2

$$$$

     RDKit          3D

 49 52  0  0  0  0  0  0  0  0999 V2000
  141.2410   71.7580  221.2630 O   0  0  0  0  0  0  0  0  0  0  0  0
  140.4850   72.2540  222.1360 C   0  0  0  0  0  0  0  0  0  0  0  0
  139.8820   73.5460  221.9760 N   0  0  0  0  0  0  0  0  0  0  0  0
  140.1820   74.2560  220.7620 C   0  0  0  0  0  0  0  0  0  0  0  0
  139.5370   75.6180  220.7530 C   0  0  0  0  0  0  0  0  0  0  0  0
  138.4200   75.7680  220.1930 O   0  0  0  0  0  0  0  0  0  0  0  0
  140.2430   76.6730  221.3930 N   0  0  0  0  0  0  0  0  0  0  0  0
  141.4100   77.4020  220.9150 C   0  0  0  0  0  0  0  0  0  0  0  0
  141.1270   78.8000  221.4370 C   0  0  2  0  0  0  0  0  0  0  0  0
  142.2920   79.5600  221.5070 O   0  0  0  0  0  0  0  0  0  0  0  0
  140.5820   78.4980  222.8170 C   0  0  0  0  0  0  0  0  0  0  0  0
  139.8640   77.1930  222.6920 C   0  0  1  0  0  0  0  0  0  0  0  0
  138.3780   77.3580  222.8100 C   0  0  0  0  0  0  0  0  0  0  0  0
  137.8230   78.6080  222.6350 C   0  0  0  0  0  0  0  0  0  0  0  0
  136.4420   78.7330  222.7490 C   0  0  0  0  0  0  0  0  0  0  0  0
  135.6490   77.6230  223.0330 C   0  0  0  0  0  0  0  0  0  0  0  0
  136.2150   76.3690  223.2080 C   0  0  0  0  0  0  0  0  0  0  0  0
  135.1970   74.9750  223.5660 Cl  0  0  0  0  0  0  0  0  0  0  0  0
  137.5950   76.2410  223.0940 C   0  0  0  0  0  0  0  0  0  0  0  0
  140.1900   71.5120  223.3730 C   0  0  0  0  0  0  0  0  0  0  0  0
  139.3420   70.4160  223.3090 C   0  0  0  0  0  0  0  0  0  0  0  0
  139.0450   69.7010  224.4430 C   0  0  0  0  0  0  0  0  0  0  0  0
  139.5940   70.0790  225.6450 C   0  0  0  0  0  0  0  0  0  0  0  0
  139.3020   69.3690  226.7910 C   0  0  0  0  0  0  0  0  0  0  0  0
  139.8520   69.7470  228.0010 C   0  0  0  0  0  0  0  0  0  0  0  0
  139.5560   69.0420  229.1050 F   0  0  0  0  0  0  0  0  0  0  0  0
  140.6960   70.8380  228.0620 C   0  0  0  0  0  0  0  0  0  0  0  0
  140.9820   71.5450  226.9050 C   0  0  0  0  0  0  0  0  0  0  0  0
  140.4340   71.1700  225.6980 C   0  0  0  0  0  0  0  0  0  0  0  0
  140.7140   71.8600  224.5620 N   0  0  0  0  0  0  0  0  0  0  0  0
  139.2560   73.9490  222.7080 H   0  0  0  0  0  0  0  0  0  0  0  0
  141.2722   74.3748  220.6760 H   0  0  0  0  0  0  0  0  0  0  0  0
  139.7865   73.6779  219.9138 H   0  0  0  0  0  0  0  0  0  0  0  0
  142.3398   76.9950  221.3392 H   0  0  0  0  0  0  0  0  0  0  0  0
  141.5565   77.3505  219.8260 H   0  0  0  0  0  0  0  0  0  0  0  0
  140.4474   79.3887  220.8034 H   0  0  0  0  0  0  0  0  0  0  0  0
  143.0500   78.9270  221.5940 H   0  0  0  0  0  0  0  0  0  0  0  0
  141.4033   78.4157  223.5441 H   0  0  0  0  0  0  0  0  0  0  0  0
  139.9142   79.2962  223.1732 H   0  0  0  0  0  0  0  0  0  0  0  0
  140.1392   76.5028  223.5031 H   0  0  0  0  0  0  0  0  0  0  0  0
  138.4538   79.4811  222.4117 H   0  0  0  0  0  0  0  0  0  0  0  0
  135.9714   79.7180  222.6136 H   0  0  0  0  0  0  0  0  0  0  0  0
  134.5590   77.7430  223.1196 H   0  0  0  0  0  0  0  0  0  0  0  0
  138.0687   75.2573  223.2281 H   0  0  0  0  0  0  0  0  0  0  0  0
  138.9051   70.1181  222.3445 H   0  0  0  0  0  0  0  0  0  0  0  0
  138.3726   68.8320  224.3898 H   0  0  0  0  0  0  0  0  0  0  0  0
  138.6297   68.4998  226.7416 H   0  0  0  0  0  0  0  0  0  0  0  0
  141.1381   71.1437  229.0218 H   0  0  0  0  0  0  0  0  0  0  0  0
  141.6537   72.4149  226.9508 H   0  0  0  0  0  0  0  0  0  0  0  0
  1  2  2  0
  2  3  1  0
  3  4  1  0
  4  5  1  0
  5  6  2  0
  5  7  1  0
  7  8  1  0
  8  9  1  0
  9 10  1  0
  9 11  1  0
 11 12  1  0
 12 13  1  0
 13 14  2  0
 14 15  1  0
 15 16  2  0
 16 17  1  0
 17 18  1  0
 17 19  2  0
  2 20  1  0
 20 21  2  0
 21 22  1  0
 22 23  2  0
 23 24  1  0
 24 25  2  0
 25 26  1  0
 25 27  1  0
 27 28  2  0
 28 29  1  0
 29 30  2  0
 12  7  1  0
 19 13  1  0
 30 20  1  0
 29 23  1  0
  3 31  1  0
  4 32  1  0
  4 33  1  0
  8 34  1  0
  8 35  1  0
  9 36  1  6
 10 37  1  0
 11 38  1  0
 11 39  1  0
 12 40  1  1
 14 41  1  0
 15 42  1  0
 16 43  1  0
 19 44  1  0
 21 45  1  0
 22 46  1  0
 24 47  1  0
 27 48  1  0
 28 49  1  0
M  END
>  <smiles>  (23) 
O=C(NCC(=O)N1C[C@H](O)C[C@H]1c1cccc(Cl)c1)c1ccc2cc(F)ccc2n1

>  <score_type>  (23) 
oracle

>  <origin>  (23) 
autodockgpu

>  <m_score__min__energy>  (23) 
-8.7799999999999994

>  <m_primary>  (23) 
energy

>  <rmsd>  (23) 
2.8059919434913216

>  <m_score__min__rmsd>  (23) 
2.8059919434913216

>  <meeko>  (23) 
{"free_energy": -7.68, "intermolecular_energy": -9.47, "internal_energy": -1.42, "cluster_size": 1, "cluster_id": 5, "rank_in_cluster": 1}

>  <energy>  (23) 
-8.54

>  <cluster_rmsd>  (23) 
0.22

>  <cluster>  (23) 
2

$$$$

     RDKit          3D

 49 52  0  0  0  0  0  0  0  0999 V2000
  140.7890   71.6090  221.0190 O   0  0  0  0  0  0  0  0  0  0  0  0
  140.3510   72.1800  222.0480 C   0  0  0  0  0  0  0  0  0  0  0  0
  139.9910   73.5690  222.0530 N   0  0  0  0  0  0  0  0  0  0  0  0
  140.1550   74.2870  220.8180 C   0  0  0  0  0  0  0  0  0  0  0  0
  140.9810   75.5310  221.0150 C   0  0  0  0  0  0  0  0  0  0  0  0
  141.1460   75.9840  222.1780 O   0  0  0  0  0  0  0  0  0  0  0  0
  141.5370   76.1300  219.8520 N   0  0  0  0  0  0  0  0  0  0  0  0
  141.4400   77.5150  219.4120 C   0  0  0  0  0  0  0  0  0  0  0  0
  142.8120   77.7340  218.7970 C   0  0  2  0  0  0  0  0  0  0  0  0
  142.8040   78.8090  217.9120 O   0  0  0  0  0  0  0  0  0  0  0  0
  143.0240   76.4220  218.0690 C   0  0  0  0  0  0  0  0  0  0  0  0
  142.3270   75.3860  218.8910 C   0  0  1  0  0  0  0  0  0  0  0  0
  143.2980   74.4630  219.5670 C   0  0  0  0  0  0  0  0  0  0  0  0
  144.3850   74.9950  220.2270 C   0  0  0  0  0  0  0  0  0  0  0  0
  145.2690   74.1170  220.8470 C   0  0  0  0  0  0  0  0  0  0  0  0
  145.0550   72.7410  220.7960 C   0  0  0  0  0  0  0  0  0  0  0  0
  143.9590   72.2130  220.1300 C   0  0  0  0  0  0  0  0  0  0  0  0
  143.7040   70.4710  220.0760 Cl  0  0  0  0  0  0  0  0  0  0  0  0
  143.0740   73.0890  219.5100 C   0  0  0  0  0  0  0  0  0  0  0  0
  140.1900   71.4290  223.3050 C   0  0  0  0  0  0  0  0  0  0  0  0
  139.5310   70.2080  223.2740 C   0  0  0  0  0  0  0  0  0  0  0  0
  139.3640   69.4810  224.4270 C   0  0  0  0  0  0  0  0  0  0  0  0
  139.8530   69.9720  225.6140 C   0  0  0  0  0  0  0  0  0  0  0  0
  139.6890   69.2510  226.7780 C   0  0  0  0  0  0  0  0  0  0  0  0
  140.1790   69.7420  227.9730 C   0  0  0  0  0  0  0  0  0  0  0  0
  140.0100   69.0240  229.0960 F   0  0  0  0  0  0  0  0  0  0  0  0
  140.8340   70.9570  228.0010 C   0  0  0  0  0  0  0  0  0  0  0  0
  140.9920   71.6740  226.8250 C   0  0  0  0  0  0  0  0  0  0  0  0
  140.5040   71.1860  225.6330 C   0  0  0  0  0  0  0  0  0  0  0  0
  140.6580   71.8860  224.4790 N   0  0  0  0  0  0  0  0  0  0  0  0
  139.6280   74.0340  222.9150 H   0  0  0  0  0  0  0  0  0  0  0  0
  140.6573   73.6350  220.0882 H   0  0  0  0  0  0  0  0  0  0  0  0
  139.1604   74.5841  220.4538 H   0  0  0  0  0  0  0  0  0  0  0  0
  140.6406   77.6452  218.6677 H   0  0  0  0  0  0  0  0  0  0  0  0
  141.1899   78.2242  220.2148 H   0  0  0  0  0  0  0  0  0  0  0  0
  143.5994   77.9777  219.5254 H   0  0  0  0  0  0  0  0  0  0  0  0
  143.7080   78.8620  217.5090 H   0  0  0  0  0  0  0  0  0  0  0  0
  142.5880   76.4683  217.0602 H   0  0  0  0  0  0  0  0  0  0  0  0
  144.0931   76.1928  217.9483 H   0  0  0  0  0  0  0  0  0  0  0  0
  141.6987   74.7325  218.2680 H   0  0  0  0  0  0  0  0  0  0  0  0
  144.5489   76.0821  220.2626 H   0  0  0  0  0  0  0  0  0  0  0  0
  146.1447   74.5128  221.3822 H   0  0  0  0  0  0  0  0  0  0  0  0
  145.7660   72.0634  221.2914 H   0  0  0  0  0  0  0  0  0  0  0  0
  142.1969   72.6968  218.9744 H   0  0  0  0  0  0  0  0  0  0  0  0
  139.1406   69.8207  222.3213 H   0  0  0  0  0  0  0  0  0  0  0  0
  138.8427   68.5127  224.4008 H   0  0  0  0  0  0  0  0  0  0  0  0
  139.1670   68.2830  226.7551 H   0  0  0  0  0  0  0  0  0  0  0  0
  141.2274   71.3530  228.9489 H   0  0  0  0  0  0  0  0  0  0  0  0
  141.5126   72.6428  226.8441 H   0  0  0  0  0  0  0  0  0  0  0  0
  1  2  2  0
  2  3  1  0
  3  4  1  0
  4  5  1  0
  5  6  2  0
  5  7  1  0
  7  8  1  0
  8  9  1  0
  9 10  1  0
  9 11  1  0
 11 12  1  0
 12 13  1  0
 13 14  2  0
 14 15  1  0
 15 16  2  0
 16 17  1  0
 17 18  1  0
 17 19  2  0
  2 20  1  0
 20 21  2  0
 21 22  1  0
 22 23  2  0
 23 24  1  0
 24 25  2  0
 25 26  1  0
 25 27  1  0
 27 28  2  0
 28 29  1  0
 29 30  2  0
 12  7  1  0
 19 13  1  0
 30 20  1  0
 29 23  1  0
  3 31  1  0
  4 32  1  0
  4 33  1  0
  8 34  1  0
  8 35  1  0
  9 36  1  1
 10 37  1  0
 11 38  1  0
 11 39  1  0
 12 40  1  6
 14 41  1  0
 15 42  1  0
 16 43  1  0
 19 44  1  0
 21 45  1  0
 22 46  1  0
 24 47  1  0
 27 48  1  0
 28 49  1  0
M  END
>  <smiles>  (24) 
O=C(NCC(=O)N1C[C@H](O)C[C@H]1c1cccc(Cl)c1)c1ccc2cc(F)ccc2n1

>  <score_type>  (24) 
oracle

>  <origin>  (24) 
autodockgpu

>  <m_score__min__energy>  (24) 
-8.7799999999999994

>  <m_primary>  (24) 
energy

>  <rmsd>  (24) 
2.2181754930175863

>  <m_score__min__rmsd>  (24) 
2.2181754930175863

>  <meeko>  (24) 
{"free_energy": -8.52, "intermolecular_energy": -10.31, "internal_energy": -2.05, "cluster_size": 29, "cluster_id": 2, "rank_in_cluster": 15}

>  <energy>  (24) 
-8.54

>  <cluster_rmsd>  (24) 
0.9

>  <cluster>  (24) 
2

$$$$

     RDKit          3D

 49 52  0  0  0  0  0  0  0  0999 V2000
  140.6560   71.6420  221.0070 O   0  0  0  0  0  0  0  0  0  0  0  0
  140.3000   72.2060  222.0720 C   0  0  0  0  0  0  0  0  0  0  0  0
  139.9870   73.6050  222.1250 N   0  0  0  0  0  0  0  0  0  0  0  0
  140.0990   74.3420  220.8950 C   0  0  0  0  0  0  0  0  0  0  0  0
  141.0040   75.5360  221.0550 C   0  0  0  0  0  0  0  0  0  0  0  0
  141.2490   75.9740  222.2080 O   0  0  0  0  0  0  0  0  0  0  0  0
  141.5390   76.1070  219.8670 N   0  0  0  0  0  0  0  0  0  0  0  0
  141.4460   77.4840  219.4040 C   0  0  0  0  0  0  0  0  0  0  0  0
  142.8050   77.6750  218.7520 C   0  0  2  0  0  0  0  0  0  0  0  0
  142.7880   78.7340  217.8470 O   0  0  0  0  0  0  0  0  0  0  0  0
  142.9850   76.3480  218.0440 C   0  0  0  0  0  0  0  0  0  0  0  0
  142.2970   75.3350  218.9020 C   0  0  1  0  0  0  0  0  0  0  0  0
  143.2730   74.4140  219.5720 C   0  0  0  0  0  0  0  0  0  0  0  0
  144.3640   74.9480  220.2250 C   0  0  0  0  0  0  0  0  0  0  0  0
  145.2530   74.0720  220.8390 C   0  0  0  0  0  0  0  0  0  0  0  0
  145.0410   72.6950  220.7900 C   0  0  0  0  0  0  0  0  0  0  0  0
  143.9410   72.1660  220.1320 C   0  0  0  0  0  0  0  0  0  0  0  0
  143.6880   70.4230  220.0800 Cl  0  0  0  0  0  0  0  0  0  0  0  0
  143.0500   73.0400  219.5170 C   0  0  0  0  0  0  0  0  0  0  0  0
  140.1910   71.4350  223.3220 C   0  0  0  0  0  0  0  0  0  0  0  0
  139.5780   70.1910  223.2890 C   0  0  0  0  0  0  0  0  0  0  0  0
  139.4600   69.4450  224.4360 C   0  0  0  0  0  0  0  0  0  0  0  0
  139.9530   69.9400  225.6190 C   0  0  0  0  0  0  0  0  0  0  0  0
  139.8390   69.2000  226.7780 C   0  0  0  0  0  0  0  0  0  0  0  0
  140.3340   69.6950  227.9690 C   0  0  0  0  0  0  0  0  0  0  0  0
  140.2130   68.9590  229.0860 F   0  0  0  0  0  0  0  0  0  0  0  0
  140.9440   70.9330  227.9990 C   0  0  0  0  0  0  0  0  0  0  0  0
  141.0530   71.6690  226.8300 C   0  0  0  0  0  0  0  0  0  0  0  0
  140.5590   71.1770  225.6410 C   0  0  0  0  0  0  0  0  0  0  0  0
  140.6660   71.8950  224.4930 N   0  0  0  0  0  0  0  0  0  0  0  0
  139.6930   74.0640  223.0150 H   0  0  0  0  0  0  0  0  0  0  0  0
  140.5105   73.6817  220.1174 H   0  0  0  0  0  0  0  0  0  0  0  0
  139.0982   74.6994  220.6110 H   0  0  0  0  0  0  0  0  0  0  0  0
  140.6300   77.6096  218.6771 H   0  0  0  0  0  0  0  0  0  0  0  0
  141.2230   78.2110  220.1988 H   0  0  0  0  0  0  0  0  0  0  0  0
  143.6123   77.9226  219.4569 H   0  0  0  0  0  0  0  0  0  0  0  0
  143.7010   78.8110  217.4700 H   0  0  0  0  0  0  0  0  0  0  0  0
  142.5250   76.3806  217.0453 H   0  0  0  0  0  0  0  0  0  0  0  0
  144.0483   76.1047  217.9018 H   0  0  0  0  0  0  0  0  0  0  0  0
  141.6472   74.6764  218.3069 H   0  0  0  0  0  0  0  0  0  0  0  0
  144.5265   76.0354  220.2593 H   0  0  0  0  0  0  0  0  0  0  0  0
  146.1316   74.4695  221.3682 H   0  0  0  0  0  0  0  0  0  0  0  0
  145.7565   72.0185  221.2803 H   0  0  0  0  0  0  0  0  0  0  0  0
  142.1699   72.6462  218.9876 H   0  0  0  0  0  0  0  0  0  0  0  0
  139.1844   69.8000  222.3391 H   0  0  0  0  0  0  0  0  0  0  0  0
  138.9744   68.4584  224.4078 H   0  0  0  0  0  0  0  0  0  0  0  0
  139.3528   68.2136  226.7536 H   0  0  0  0  0  0  0  0  0  0  0  0
  141.3407   71.3323  228.9441 H   0  0  0  0  0  0  0  0  0  0  0  0
  141.5386   72.6558  226.8511 H   0  0  0  0  0  0  0  0  0  0  0  0
  1  2  2  0
  2  3  1  0
  3  4  1  0
  4  5  1  0
  5  6  2  0
  5  7  1  0
  7  8  1  0
  8  9  1  0
  9 10  1  0
  9 11  1  0
 11 12  1  0
 12 13  1  0
 13 14  2  0
 14 15  1  0
 15 16  2  0
 16 17  1  0
 17 18  1  0
 17 19  2  0
  2 20  1  0
 20 21  2  0
 21 22  1  0
 22 23  2  0
 23 24  1  0
 24 25  2  0
 25 26  1  0
 25 27  1  0
 27 28  2  0
 28 29  1  0
 29 30  2  0
 12  7  1  0
 19 13  1  0
 30 20  1  0
 29 23  1  0
  3 31  1  0
  4 32  1  0
  4 33  1  0
  8 34  1  0
  8 35  1  0
  9 36  1  1
 10 37  1  0
 11 38  1  0
 11 39  1  0
 12 40  1  6
 14 41  1  0
 15 42  1  0
 16 43  1  0
 19 44  1  0
 21 45  1  0
 22 46  1  0
 24 47  1  0
 27 48  1  0
 28 49  1  0
M  END
>  <smiles>  (25) 
O=C(NCC(=O)N1C[C@H](O)C[C@H]1c1cccc(Cl)c1)c1ccc2cc(F)ccc2n1

>  <score_type>  (25) 
oracle

>  <origin>  (25) 
autodockgpu

>  <m_score__min__energy>  (25) 
-8.7799999999999994

>  <m_primary>  (25) 
energy

>  <rmsd>  (25) 
2.1995027421573115

>  <m_score__min__rmsd>  (25) 
2.1995027421573115

>  <meeko>  (25) 
{"free_energy": -8.5, "intermolecular_energy": -10.29, "internal_energy": -2.08, "cluster_size": 29, "cluster_id": 2, "rank_in_cluster": 18}

>  <energy>  (25) 
-8.52

>  <cluster_rmsd>  (25) 
0.9

>  <cluster>  (25) 
2

$$$$

     RDKit          3D

 49 52  0  0  0  0  0  0  0  0999 V2000
  139.9180   73.6740  222.5040 O   0  0  0  0  0  0  0  0  0  0  0  0
  140.1340   72.4470  222.3440 C   0  0  0  0  0  0  0  0  0  0  0  0
  140.4010   71.8840  221.0520 N   0  0  0  0  0  0  0  0  0  0  0  0
  140.4120   72.7930  219.9370 C   0  0  0  0  0  0  0  0  0  0  0  0
  141.6060   72.5520  219.0500 C   0  0  0  0  0  0  0  0  0  0  0  0
  141.4320   72.3800  217.8160 O   0  0  0  0  0  0  0  0  0  0  0  0
  142.8830   72.5360  219.6740 N   0  0  0  0  0  0  0  0  0  0  0  0
  144.0070   71.6460  219.4140 C   0  0  0  0  0  0  0  0  0  0  0  0
  145.1860   72.5850  219.6040 C   0  0  2  0  0  0  0  0  0  0  0  0
  146.3590   71.8790  219.8590 O   0  0  0  0  0  0  0  0  0  0  0  0
  144.7430   73.3760  220.8180 C   0  0  0  0  0  0  0  0  0  0  0  0
  143.2550   73.4690  220.7200 C   0  0  1  0  0  0  0  0  0  0  0  0
  142.8000   74.8630  220.4060 C   0  0  0  0  0  0  0  0  0  0  0  0
  143.3830   75.5410  219.3570 C   0  0  0  0  0  0  0  0  0  0  0  0
  142.9420   76.8330  219.0860 C   0  0  0  0  0  0  0  0  0  0  0  0
  141.9400   77.4180  219.8590 C   0  0  0  0  0  0  0  0  0  0  0  0
  141.3590   76.7290  220.9130 C   0  0  0  0  0  0  0  0  0  0  0  0
  140.0930   77.4830  221.8790 Cl  0  0  0  0  0  0  0  0  0  0  0  0
  141.7970   75.4370  221.1850 C   0  0  0  0  0  0  0  0  0  0  0  0
  140.1190   71.5320  223.4970 C   0  0  0  0  0  0  0  0  0  0  0  0
  139.5890   70.2600  223.3340 C   0  0  0  0  0  0  0  0  0  0  0  0
  139.5600   69.3800  224.3880 C   0  0  0  0  0  0  0  0  0  0  0  0
  140.0580   69.7690  225.6090 C   0  0  0  0  0  0  0  0  0  0  0  0
  140.0320   68.8940  226.6750 C   0  0  0  0  0  0  0  0  0  0  0  0
  140.5320   69.2820  227.9030 C   0  0  0  0  0  0  0  0  0  0  0  0
  140.4980   68.4160  228.9290 F   0  0  0  0  0  0  0  0  0  0  0  0
  141.0580   70.5490  228.0630 C   0  0  0  0  0  0  0  0  0  0  0  0
  141.0780   71.4200  226.9850 C   0  0  0  0  0  0  0  0  0  0  0  0
  140.5800   71.0350  225.7600 C   0  0  0  0  0  0  0  0  0  0  0  0
  140.6000   71.8870  224.7020 N   0  0  0  0  0  0  0  0  0  0  0  0
  140.5790   70.8620  220.9300 H   0  0  0  0  0  0  0  0  0  0  0  0
  139.4934   72.6507  219.3488 H   0  0  0  0  0  0  0  0  0  0  0  0
  140.4681   73.8206  220.3255 H   0  0  0  0  0  0  0  0  0  0  0  0
  144.0357   70.8141  220.1331 H   0  0  0  0  0  0  0  0  0  0  0  0
  143.9753   71.1592  218.4281 H   0  0  0  0  0  0  0  0  0  0  0  0
  145.4177   73.2027  218.7238 H   0  0  0  0  0  0  0  0  0  0  0  0
  146.2980   71.5360  220.7870 H   0  0  0  0  0  0  0  0  0  0  0  0
  145.0346   72.8554  221.7421 H   0  0  0  0  0  0  0  0  0  0  0  0
  145.2107   74.3712  220.8465 H   0  0  0  0  0  0  0  0  0  0  0  0
  142.7727   73.2212  221.6771 H   0  0  0  0  0  0  0  0  0  0  0  0
  144.1740   75.0744  218.7515 H   0  0  0  0  0  0  0  0  0  0  0  0
  143.3882   77.3978  218.2542 H   0  0  0  0  0  0  0  0  0  0  0  0
  141.6056   78.4405  219.6296 H   0  0  0  0  0  0  0  0  0  0  0  0
  141.3518   74.8685  222.0148 H   0  0  0  0  0  0  0  0  0  0  0  0
  139.1900   69.9549  222.3554 H   0  0  0  0  0  0  0  0  0  0  0  0
  139.1414   68.3713  224.2562 H   0  0  0  0  0  0  0  0  0  0  0  0
  139.6123   67.8853  226.5471 H   0  0  0  0  0  0  0  0  0  0  0  0
  141.4578   70.8643  229.0381 H   0  0  0  0  0  0  0  0  0  0  0  0
  141.4962   72.4298  227.1092 H   0  0  0  0  0  0  0  0  0  0  0  0
  1  2  2  0
  2  3  1  0
  3  4  1  0
  4  5  1  0
  5  6  2  0
  5  7  1  0
  7  8  1  0
  8  9  1  0
  9 10  1  0
  9 11  1  0
 11 12  1  0
 12 13  1  0
 13 14  2  0
 14 15  1  0
 15 16  2  0
 16 17  1  0
 17 18  1  0
 17 19  2  0
  2 20  1  0
 20 21  2  0
 21 22  1  0
 22 23  2  0
 23 24  1  0
 24 25  2  0
 25 26  1  0
 25 27  1  0
 27 28  2  0
 28 29  1  0
 29 30  2  0
 12  7  1  0
 19 13  1  0
 30 20  1  0
 29 23  1  0
  3 31  1  0
  4 32  1  0
  4 33  1  0
  8 34  1  0
  8 35  1  0
  9 36  1  6
 10 37  1  0
 11 38  1  0
 11 39  1  0
 12 40  1  1
 14 41  1  0
 15 42  1  0
 16 43  1  0
 19 44  1  0
 21 45  1  0
 22 46  1  0
 24 47  1  0
 27 48  1  0
 28 49  1  0
M  END
>  <smiles>  (26) 
O=C(NCC(=O)N1C[C@H](O)C[C@H]1c1cccc(Cl)c1)c1ccc2cc(F)ccc2n1

>  <score_type>  (26) 
oracle

>  <origin>  (26) 
autodockgpu

>  <m_score__min__energy>  (26) 
-8.7799999999999994

>  <m_primary>  (26) 
energy

>  <rmsd>  (26) 
3.6038588649321643

>  <m_score__min__rmsd>  (26) 
3.6038588649321643

>  <meeko>  (26) 
{"free_energy": -8.73, "intermolecular_energy": -10.52, "internal_energy": -1.65, "cluster_size": 11, "cluster_id": 1, "rank_in_cluster": 3}

>  <energy>  (26) 
-8.52

>  <cluster_rmsd>  (26) 
0.22

>  <cluster>  (26) 
2

$$$$

     RDKit          3D

 49 52  0  0  0  0  0  0  0  0999 V2000
  140.6230   71.7220  221.0210 O   0  0  0  0  0  0  0  0  0  0  0  0
  140.2690   72.2590  222.1000 C   0  0  0  0  0  0  0  0  0  0  0  0
  139.9360   73.6520  222.1840 N   0  0  0  0  0  0  0  0  0  0  0  0
  140.0270   74.4160  220.9680 C   0  0  0  0  0  0  0  0  0  0  0  0
  141.0250   75.5370  221.1020 C   0  0  0  0  0  0  0  0  0  0  0  0
  141.3550   75.9350  222.2490 O   0  0  0  0  0  0  0  0  0  0  0  0
  141.5440   76.0890  219.8990 N   0  0  0  0  0  0  0  0  0  0  0  0
  141.4540   77.4610  219.4190 C   0  0  0  0  0  0  0  0  0  0  0  0
  142.8030   77.6330  218.7430 C   0  0  2  0  0  0  0  0  0  0  0  0
  142.7800   78.6800  217.8250 O   0  0  0  0  0  0  0  0  0  0  0  0
  142.9620   76.2960  218.0490 C   0  0  0  0  0  0  0  0  0  0  0  0
  142.2810   75.2990  218.9310 C   0  0  1  0  0  0  0  0  0  0  0  0
  143.2600   74.3800  219.5970 C   0  0  0  0  0  0  0  0  0  0  0  0
  144.3390   74.9160  220.2680 C   0  0  0  0  0  0  0  0  0  0  0  0
  145.2320   74.0400  220.8780 C   0  0  0  0  0  0  0  0  0  0  0  0
  145.0360   72.6620  220.8060 C   0  0  0  0  0  0  0  0  0  0  0  0
  143.9490   72.1300  220.1280 C   0  0  0  0  0  0  0  0  0  0  0  0
  143.7170   70.3850  220.0470 Cl  0  0  0  0  0  0  0  0  0  0  0  0
  143.0540   73.0030  219.5190 C   0  0  0  0  0  0  0  0  0  0  0  0
  140.1810   71.4610  223.3340 C   0  0  0  0  0  0  0  0  0  0  0  0
  139.5950   70.2050  223.2780 C   0  0  0  0  0  0  0  0  0  0  0  0
  139.4970   69.4340  224.4100 C   0  0  0  0  0  0  0  0  0  0  0  0
  139.9840   69.9160  225.6020 C   0  0  0  0  0  0  0  0  0  0  0  0
  139.8900   69.1500  226.7460 C   0  0  0  0  0  0  0  0  0  0  0  0
  140.3800   69.6320  227.9450 C   0  0  0  0  0  0  0  0  0  0  0  0
  140.2790   68.8710  229.0470 F   0  0  0  0  0  0  0  0  0  0  0  0
  140.9630   70.8820  227.9970 C   0  0  0  0  0  0  0  0  0  0  0  0
  141.0510   71.6430  226.8430 C   0  0  0  0  0  0  0  0  0  0  0  0
  140.5640   71.1650  225.6460 C   0  0  0  0  0  0  0  0  0  0  0  0
  140.6500   71.9080  224.5120 N   0  0  0  0  0  0  0  0  0  0  0  0
  139.6430   74.0880  223.0860 H   0  0  0  0  0  0  0  0  0  0  0  0
  140.3414   73.7517  220.1496 H   0  0  0  0  0  0  0  0  0  0  0  0
  139.0397   74.8522  220.7561 H   0  0  0  0  0  0  0  0  0  0  0  0
  140.6273   77.5833  218.7037 H   0  0  0  0  0  0  0  0  0  0  0  0
  141.2495   78.2001  220.2076 H   0  0  0  0  0  0  0  0  0  0  0  0
  143.6230   77.8833  219.4322 H   0  0  0  0  0  0  0  0  0  0  0  0
  143.7110   78.8220  217.5180 H   0  0  0  0  0  0  0  0  0  0  0  0
  142.4859   76.3194  217.0576 H   0  0  0  0  0  0  0  0  0  0  0  0
  144.0210   76.0431  217.8925 H   0  0  0  0  0  0  0  0  0  0  0  0
  141.6173   74.6379  218.3544 H   0  0  0  0  0  0  0  0  0  0  0  0
  144.4895   76.0044  220.3196 H   0  0  0  0  0  0  0  0  0  0  0  0
  146.1007   74.4390  221.4221 H   0  0  0  0  0  0  0  0  0  0  0  0
  145.7538   71.9863  221.2940 H   0  0  0  0  0  0  0  0  0  0  0  0
  142.1833   72.6072  218.9756 H   0  0  0  0  0  0  0  0  0  0  0  0
  139.2067   69.8246  222.3217 H   0  0  0  0  0  0  0  0  0  0  0  0
  139.0323   68.4381  224.3635 H   0  0  0  0  0  0  0  0  0  0  0  0
  139.4244   68.1543  226.7035 H   0  0  0  0  0  0  0  0  0  0  0  0
  141.3550   71.2711  228.9483 H   0  0  0  0  0  0  0  0  0  0  0  0
  141.5147   72.6397  226.8826 H   0  0  0  0  0  0  0  0  0  0  0  0
  1  2  2  0
  2  3  1  0
  3  4  1  0
  4  5  1  0
  5  6  2  0
  5  7  1  0
  7  8  1  0
  8  9  1  0
  9 10  1  0
  9 11  1  0
 11 12  1  0
 12 13  1  0
 13 14  2  0
 14 15  1  0
 15 16  2  0
 16 17  1  0
 17 18  1  0
 17 19  2  0
  2 20  1  0
 20 21  2  0
 21 22  1  0
 22 23  2  0
 23 24  1  0
 24 25  2  0
 25 26  1  0
 25 27  1  0
 27 28  2  0
 28 29  1  0
 29 30  2  0
 12  7  1  0
 19 13  1  0
 30 20  1  0
 29 23  1  0
  3 31  1  0
  4 32  1  0
  4 33  1  0
  8 34  1  0
  8 35  1  0
  9 36  1  1
 10 37  1  0
 11 38  1  0
 11 39  1  0
 12 40  1  6
 14 41  1  0
 15 42  1  0
 16 43  1  0
 19 44  1  0
 21 45  1  0
 22 46  1  0
 24 47  1  0
 27 48  1  0
 28 49  1  0
M  END
>  <smiles>  (27) 
O=C(NCC(=O)N1C[C@H](O)C[C@H]1c1cccc(Cl)c1)c1ccc2cc(F)ccc2n1

>  <score_type>  (27) 
oracle

>  <origin>  (27) 
autodockgpu

>  <m_score__min__energy>  (27) 
-8.7799999999999994

>  <m_primary>  (27) 
energy

>  <rmsd>  (27) 
2.1885758128472785

>  <m_score__min__rmsd>  (27) 
2.1885758128472785

>  <meeko>  (27) 
{"free_energy": -8.49, "intermolecular_energy": -10.28, "internal_energy": -2.05, "cluster_size": 29, "cluster_id": 2, "rank_in_cluster": 19}

>  <energy>  (27) 
-8.51

>  <cluster_rmsd>  (27) 
0.24

>  <cluster>  (27) 
2

$$$$

     RDKit          3D

 49 52  0  0  0  0  0  0  0  0999 V2000
  140.6750   73.6510  222.3030 O   0  0  0  0  0  0  0  0  0  0  0  0
  140.1820   74.4810  221.4990 C   0  0  0  0  0  0  0  0  0  0  0  0
  140.0470   74.1970  220.0990 N   0  0  0  0  0  0  0  0  0  0  0  0
  140.5040   72.9090  219.6510 C   0  0  0  0  0  0  0  0  0  0  0  0
  141.7360   73.0360  218.7930 C   0  0  0  0  0  0  0  0  0  0  0  0
  141.6160   73.0600  217.5410 O   0  0  0  0  0  0  0  0  0  0  0  0
  142.9860   73.1230  219.4650 N   0  0  0  0  0  0  0  0  0  0  0  0
  143.9990   72.0900  219.6300 C   0  0  0  0  0  0  0  0  0  0  0  0
  145.2780   72.9050  219.5400 C   0  0  2  0  0  0  0  0  0  0  0  0
  146.3500   72.2300  220.1180 O   0  0  0  0  0  0  0  0  0  0  0  0
  144.9050   74.1350  220.3410 C   0  0  0  0  0  0  0  0  0  0  0  0
  143.4420   74.3370  220.1140 C   0  0  1  0  0  0  0  0  0  0  0  0
  143.1670   75.5500  219.2760 C   0  0  0  0  0  0  0  0  0  0  0  0
  143.5710   75.5630  217.9570 C   0  0  0  0  0  0  0  0  0  0  0  0
  143.3030   76.7010  217.2020 C   0  0  0  0  0  0  0  0  0  0  0  0
  142.6470   77.7920  217.7690 C   0  0  0  0  0  0  0  0  0  0  0  0
  142.2440   77.7710  219.0950 C   0  0  0  0  0  0  0  0  0  0  0  0
  141.4150   79.1590  219.7960 Cl  0  0  0  0  0  0  0  0  0  0  0  0
  142.5100   76.6350  219.8530 C   0  0  0  0  0  0  0  0  0  0  0  0
  139.7200   75.7960  221.9760 C   0  0  0  0  0  0  0  0  0  0  0  0
  138.3560   76.0390  222.0450 C   0  0  0  0  0  0  0  0  0  0  0  0
  137.8890   77.2540  222.4860 C   0  0  0  0  0  0  0  0  0  0  0  0
  138.7850   78.2280  222.8580 C   0  0  0  0  0  0  0  0  0  0  0  0
  138.3280   79.4520  223.3010 C   0  0  0  0  0  0  0  0  0  0  0  0
  139.2250   80.4330  223.6750 C   0  0  0  0  0  0  0  0  0  0  0  0
  138.7610   81.6180  224.1040 F   0  0  0  0  0  0  0  0  0  0  0  0
  140.5820   80.1880  223.6050 C   0  0  0  0  0  0  0  0  0  0  0  0
  141.0310   78.9550  223.1580 C   0  0  0  0  0  0  0  0  0  0  0  0
  140.1370   77.9760  222.7840 C   0  0  0  0  0  0  0  0  0  0  0  0
  140.5740   76.7660  222.3460 N   0  0  0  0  0  0  0  0  0  0  0  0
  139.6360   74.8950  219.4390 H   0  0  0  0  0  0  0  0  0  0  0  0
  140.7396   72.2872  220.5273 H   0  0  0  0  0  0  0  0  0  0  0  0
  139.7072   72.4464  219.0500 H   0  0  0  0  0  0  0  0  0  0  0  0
  143.9085   71.5903  220.6058 H   0  0  0  0  0  0  0  0  0  0  0  0
  143.9332   71.2749  218.8943 H   0  0  0  0  0  0  0  0  0  0  0  0
  145.6043   73.1193  218.5116 H   0  0  0  0  0  0  0  0  0  0  0  0
  146.0470   71.9010  221.0020 H   0  0  0  0  0  0  0  0  0  0  0  0
  145.1085   73.9729  221.4098 H   0  0  0  0  0  0  0  0  0  0  0  0
  145.4891   75.0140  220.0309 H   0  0  0  0  0  0  0  0  0  0  0  0
  142.9095   74.5179  221.0593 H   0  0  0  0  0  0  0  0  0  0  0  0
  144.0896   74.6994  217.5151 H   0  0  0  0  0  0  0  0  0  0  0  0
  143.6121   76.7397  216.1470 H   0  0  0  0  0  0  0  0  0  0  0  0
  142.4462   78.6826  217.1554 H   0  0  0  0  0  0  0  0  0  0  0  0
  142.2016   76.5933  220.9080 H   0  0  0  0  0  0  0  0  0  0  0  0
  137.6446   75.2553  221.7453 H   0  0  0  0  0  0  0  0  0  0  0  0
  136.8072   77.4455  222.5408 H   0  0  0  0  0  0  0  0  0  0  0  0
  137.2468   79.6469  223.3564 H   0  0  0  0  0  0  0  0  0  0  0  0
  141.3015   80.9654  223.9017 H   0  0  0  0  0  0  0  0  0  0  0  0
  142.1115   78.7565  223.1014 H   0  0  0  0  0  0  0  0  0  0  0  0
  1  2  2  0
  2  3  1  0
  3  4  1  0
  4  5  1  0
  5  6  2  0
  5  7  1  0
  7  8  1  0
  8  9  1  0
  9 10  1  0
  9 11  1  0
 11 12  1  0
 12 13  1  0
 13 14  2  0
 14 15  1  0
 15 16  2  0
 16 17  1  0
 17 18  1  0
 17 19  2  0
  2 20  1  0
 20 21  2  0
 21 22  1  0
 22 23  2  0
 23 24  1  0
 24 25  2  0
 25 26  1  0
 25 27  1  0
 27 28  2  0
 28 29  1  0
 29 30  2  0
 12  7  1  0
 19 13  1  0
 30 20  1  0
 29 23  1  0
  3 31  1  0
  4 32  1  0
  4 33  1  0
  8 34  1  0
  8 35  1  0
  9 36  1  6
 10 37  1  0
 11 38  1  0
 11 39  1  0
 12 40  1  1
 14 41  1  0
 15 42  1  0
 16 43  1  0
 19 44  1  0
 21 45  1  0
 22 46  1  0
 24 47  1  0
 27 48  1  0
 28 49  1  0
M  END
>  <smiles>  (28) 
O=C(NCC(=O)N1C[C@H](O)C[C@H]1c1cccc(Cl)c1)c1ccc2cc(F)ccc2n1

>  <score_type>  (28) 
oracle

>  <origin>  (28) 
autodockgpu

>  <m_score__min__energy>  (28) 
-8.7799999999999994

>  <m_primary>  (28) 
energy

>  <rmsd>  (28) 
7.269862183814598

>  <m_score__min__rmsd>  (28) 
7.269862183814598

>  <meeko>  (28) 
{"free_energy": -7.08, "intermolecular_energy": -8.87, "internal_energy": -2.42, "cluster_size": 4, "cluster_id": 6, "rank_in_cluster": 3}

>  <energy>  (28) 
-8.51

>  <cluster_rmsd>  (28) 
0.87

>  <cluster>  (28) 
2

$$$$

     RDKit          3D

 49 52  0  0  0  0  0  0  0  0999 V2000
  141.1450   71.9920  221.1580 O   0  0  0  0  0  0  0  0  0  0  0  0
  140.3740   72.3940  222.0640 C   0  0  0  0  0  0  0  0  0  0  0  0
  139.6600   73.6350  221.9620 N   0  0  0  0  0  0  0  0  0  0  0  0
  139.8670   74.4050  220.7650 C   0  0  0  0  0  0  0  0  0  0  0  0
  141.0100   75.3730  220.9310 C   0  0  0  0  0  0  0  0  0  0  0  0
  141.4580   75.6070  222.0830 O   0  0  0  0  0  0  0  0  0  0  0  0
  141.5240   75.9760  219.7500 N   0  0  0  0  0  0  0  0  0  0  0  0
  141.3710   77.3510  219.2950 C   0  0  0  0  0  0  0  0  0  0  0  0
  142.7230   77.6080  218.6520 C   0  0  2  0  0  0  0  0  0  0  0  0
  142.6630   78.6710  217.7540 O   0  0  0  0  0  0  0  0  0  0  0  0
  142.9680   76.2950  217.9370 C   0  0  0  0  0  0  0  0  0  0  0  0
  142.3230   75.2460  218.7840 C   0  0  1  0  0  0  0  0  0  0  0  0
  143.3360   74.3670  219.4550 C   0  0  0  0  0  0  0  0  0  0  0  0
  144.3440   74.9460  220.1980 C   0  0  0  0  0  0  0  0  0  0  0  0
  145.2700   74.1070  220.8100 C   0  0  0  0  0  0  0  0  0  0  0  0
  145.1760   72.7230  220.6700 C   0  0  0  0  0  0  0  0  0  0  0  0
  144.1610   72.1490  219.9210 C   0  0  0  0  0  0  0  0  0  0  0  0
  144.0570   70.3980  219.7540 Cl  0  0  0  0  0  0  0  0  0  0  0  0
  143.2330   72.9850  219.3080 C   0  0  0  0  0  0  0  0  0  0  0  0
  140.1750   71.5920  223.2830 C   0  0  0  0  0  0  0  0  0  0  0  0
  139.4250   70.4260  223.2000 C   0  0  0  0  0  0  0  0  0  0  0  0
  139.2200   69.6530  224.3170 C   0  0  0  0  0  0  0  0  0  0  0  0
  139.7620   70.0430  225.5190 C   0  0  0  0  0  0  0  0  0  0  0  0
  139.5610   69.2740  226.6470 C   0  0  0  0  0  0  0  0  0  0  0  0
  140.1040   69.6630  227.8560 C   0  0  0  0  0  0  0  0  0  0  0  0
  139.8970   68.9020  228.9430 F   0  0  0  0  0  0  0  0  0  0  0  0
  140.8490   70.8230  227.9350 C   0  0  0  0  0  0  0  0  0  0  0  0
  141.0440   71.5880  226.7960 C   0  0  0  0  0  0  0  0  0  0  0  0
  140.5030   71.2020  225.5890 C   0  0  0  0  0  0  0  0  0  0  0  0
  140.6930   71.9490  224.4700 N   0  0  0  0  0  0  0  0  0  0  0  0
  139.0220   73.9600  222.7220 H   0  0  0  0  0  0  0  0  0  0  0  0
  140.0934   73.7216  219.9333 H   0  0  0  0  0  0  0  0  0  0  0  0
  138.9518   74.9788  220.5571 H   0  0  0  0  0  0  0  0  0  0  0  0
  140.5541   77.4441  218.5643 H   0  0  0  0  0  0  0  0  0  0  0  0
  141.1111   78.0618  220.0932 H   0  0  0  0  0  0  0  0  0  0  0  0
  143.5142   77.8877  219.3632 H   0  0  0  0  0  0  0  0  0  0  0  0
  143.5900   78.8600  217.4610 H   0  0  0  0  0  0  0  0  0  0  0  0
  142.5127   76.3128  216.9358 H   0  0  0  0  0  0  0  0  0  0  0  0
  144.0422   76.1019  217.8000 H   0  0  0  0  0  0  0  0  0  0  0  0
  141.7084   74.5622  218.1801 H   0  0  0  0  0  0  0  0  0  0  0  0
  144.4136   76.0387  220.3035 H   0  0  0  0  0  0  0  0  0  0  0  0
  146.0840   74.5398  221.4100 H   0  0  0  0  0  0  0  0  0  0  0  0
  145.9185   72.0770  221.1613 H   0  0  0  0  0  0  0  0  0  0  0  0
  142.4180   72.5551  218.7073 H   0  0  0  0  0  0  0  0  0  0  0  0
  138.9932   70.1201  222.2356 H   0  0  0  0  0  0  0  0  0  0  0  0
  138.6268   68.7291  224.2503 H   0  0  0  0  0  0  0  0  0  0  0  0
  138.9676   68.3500  226.5833 H   0  0  0  0  0  0  0  0  0  0  0  0
  141.2845   71.1375  228.8949 H   0  0  0  0  0  0  0  0  0  0  0  0
  141.6367   72.5127  226.8561 H   0  0  0  0  0  0  0  0  0  0  0  0
  1  2  2  0
  2  3  1  0
  3  4  1  0
  4  5  1  0
  5  6  2  0
  5  7  1  0
  7  8  1  0
  8  9  1  0
  9 10  1  0
  9 11  1  0
 11 12  1  0
 12 13  1  0
 13 14  2  0
 14 15  1  0
 15 16  2  0
 16 17  1  0
 17 18  1  0
 17 19  2  0
  2 20  1  0
 20 21  2  0
 21 22  1  0
 22 23  2  0
 23 24  1  0
 24 25  2  0
 25 26  1  0
 25 27  1  0
 27 28  2  0
 28 29  1  0
 29 30  2  0
 12  7  1  0
 19 13  1  0
 30 20  1  0
 29 23  1  0
  3 31  1  0
  4 32  1  0
  4 33  1  0
  8 34  1  0
  8 35  1  0
  9 36  1  1
 10 37  1  0
 11 38  1  0
 11 39  1  0
 12 40  1  6
 14 41  1  0
 15 42  1  0
 16 43  1  0
 19 44  1  0
 21 45  1  0
 22 46  1  0
 24 47  1  0
 27 48  1  0
 28 49  1  0
M  END
>  <smiles>  (29) 
O=C(NCC(=O)N1C[C@H](O)C[C@H]1c1cccc(Cl)c1)c1ccc2cc(F)ccc2n1

>  <score_type>  (29) 
oracle

>  <origin>  (29) 
autodockgpu

>  <m_score__min__energy>  (29) 
-8.7799999999999994

>  <m_primary>  (29) 
energy

>  <rmsd>  (29) 
2.1876260532942893

>  <m_score__min__rmsd>  (29) 
2.1876260532942893

>  <meeko>  (29) 
{"free_energy": -8.64, "intermolecular_energy": -10.43, "internal_energy": -1.83, "cluster_size": 29, "cluster_id": 2, "rank_in_cluster": 4}

>  <energy>  (29) 
-8.5

>  <cluster_rmsd>  (29) 
0.24

>  <cluster>  (29) 
2

$$$$

     RDKit          3D

 49 52  0  0  0  0  0  0  0  0999 V2000
  139.9290   73.6750  222.5230 O   0  0  0  0  0  0  0  0  0  0  0  0
  140.1350   72.4470  222.3620 C   0  0  0  0  0  0  0  0  0  0  0  0
  140.3900   71.8810  221.0690 N   0  0  0  0  0  0  0  0  0  0  0  0
  140.4010   72.7890  219.9540 C   0  0  0  0  0  0  0  0  0  0  0  0
  141.6000   72.5550  219.0710 C   0  0  0  0  0  0  0  0  0  0  0  0
  141.4320   72.3780  217.8370 O   0  0  0  0  0  0  0  0  0  0  0  0
  142.8750   72.5480  219.7000 N   0  0  0  0  0  0  0  0  0  0  0  0
  144.0030   71.6610  219.4510 C   0  0  0  0  0  0  0  0  0  0  0  0
  145.1770   72.6060  219.6390 C   0  0  2  0  0  0  0  0  0  0  0  0
  146.3520   71.9070  219.9040 O   0  0  0  0  0  0  0  0  0  0  0  0
  144.7270   73.4050  220.8450 C   0  0  0  0  0  0  0  0  0  0  0  0
  143.2380   73.4900  220.7410 C   0  0  1  0  0  0  0  0  0  0  0  0
  142.7800   74.8800  220.4140 C   0  0  0  0  0  0  0  0  0  0  0  0
  143.3510   75.5460  219.3510 C   0  0  0  0  0  0  0  0  0  0  0  0
  142.9060   76.8340  219.0690 C   0  0  0  0  0  0  0  0  0  0  0  0
  141.9120   77.4280  219.8450 C   0  0  0  0  0  0  0  0  0  0  0  0
  141.3430   76.7520  220.9140 C   0  0  0  0  0  0  0  0  0  0  0  0
  140.0870   77.5170  221.8850 Cl  0  0  0  0  0  0  0  0  0  0  0  0
  141.7850   75.4640  221.1970 C   0  0  0  0  0  0  0  0  0  0  0  0
  140.1200   71.5320  223.5160 C   0  0  0  0  0  0  0  0  0  0  0  0
  139.5920   70.2590  223.3530 C   0  0  0  0  0  0  0  0  0  0  0  0
  139.5630   69.3800  224.4070 C   0  0  0  0  0  0  0  0  0  0  0  0
  140.0600   69.7700  225.6280 C   0  0  0  0  0  0  0  0  0  0  0  0
  140.0340   68.8950  226.6950 C   0  0  0  0  0  0  0  0  0  0  0  0
  140.5330   69.2850  227.9230 C   0  0  0  0  0  0  0  0  0  0  0  0
  140.4990   68.4190  228.9490 F   0  0  0  0  0  0  0  0  0  0  0  0
  141.0570   70.5520  228.0820 C   0  0  0  0  0  0  0  0  0  0  0  0
  141.0780   71.4230  227.0040 C   0  0  0  0  0  0  0  0  0  0  0  0
  140.5800   71.0370  225.7790 C   0  0  0  0  0  0  0  0  0  0  0  0
  140.6000   71.8880  224.7210 N   0  0  0  0  0  0  0  0  0  0  0  0
  140.5600   70.8580  220.9460 H   0  0  0  0  0  0  0  0  0  0  0  0
  139.4856   72.6414  219.3622 H   0  0  0  0  0  0  0  0  0  0  0  0
  140.4506   73.8168  220.3428 H   0  0  0  0  0  0  0  0  0  0  0  0
  144.0322   70.8344  220.1762 H   0  0  0  0  0  0  0  0  0  0  0  0
  143.9773   71.1669  218.4686 H   0  0  0  0  0  0  0  0  0  0  0  0
  145.4090   73.2178  218.7548 H   0  0  0  0  0  0  0  0  0  0  0  0
  146.2560   71.5030  220.8030 H   0  0  0  0  0  0  0  0  0  0  0  0
  145.0180   72.8935  221.7743 H   0  0  0  0  0  0  0  0  0  0  0  0
  145.1901   74.4025  220.8671 H   0  0  0  0  0  0  0  0  0  0  0  0
  142.7521   73.2466  221.6974 H   0  0  0  0  0  0  0  0  0  0  0  0
  144.1361   75.0729  218.7429 H   0  0  0  0  0  0  0  0  0  0  0  0
  143.3429   77.3887  218.2256 H   0  0  0  0  0  0  0  0  0  0  0  0
  141.5742   78.4472  219.6062 H   0  0  0  0  0  0  0  0  0  0  0  0
  141.3495   74.9058  222.0389 H   0  0  0  0  0  0  0  0  0  0  0  0
  139.1946   69.9527  222.3741 H   0  0  0  0  0  0  0  0  0  0  0  0
  139.1452   68.3710  224.2756 H   0  0  0  0  0  0  0  0  0  0  0  0
  139.6154   67.8857  226.5676 H   0  0  0  0  0  0  0  0  0  0  0  0
  141.4552   70.8683  229.0574 H   0  0  0  0  0  0  0  0  0  0  0  0
  141.4966   72.4327  227.1279 H   0  0  0  0  0  0  0  0  0  0  0  0
  1  2  2  0
  2  3  1  0
  3  4  1  0
  4  5  1  0
  5  6  2  0
  5  7  1  0
  7  8  1  0
  8  9  1  0
  9 10  1  0
  9 11  1  0
 11 12  1  0
 12 13  1  0
 13 14  2  0
 14 15  1  0
 15 16  2  0
 16 17  1  0
 17 18  1  0
 17 19  2  0
  2 20  1  0
 20 21  2  0
 21 22  1  0
 22 23  2  0
 23 24  1  0
 24 25  2  0
 25 26  1  0
 25 27  1  0
 27 28  2  0
 28 29  1  0
 29 30  2  0
 12  7  1  0
 19 13  1  0
 30 20  1  0
 29 23  1  0
  3 31  1  0
  4 32  1  0
  4 33  1  0
  8 34  1  0
  8 35  1  0
  9 36  1  6
 10 37  1  0
 11 38  1  0
 11 39  1  0
 12 40  1  1
 14 41  1  0
 15 42  1  0
 16 43  1  0
 19 44  1  0
 21 45  1  0
 22 46  1  0
 24 47  1  0
 27 48  1  0
 28 49  1  0
M  END
>  <smiles>  (30) 
O=C(NCC(=O)N1C[C@H](O)C[C@H]1c1cccc(Cl)c1)c1ccc2cc(F)ccc2n1

>  <score_type>  (30) 
oracle

>  <origin>  (30) 
autodockgpu

>  <m_score__min__energy>  (30) 
-8.7799999999999994

>  <m_primary>  (30) 
energy

>  <rmsd>  (30) 
3.595921038295251

>  <m_score__min__rmsd>  (30) 
3.595921038295251

>  <meeko>  (30) 
{"free_energy": -8.72, "intermolecular_energy": -10.51, "internal_energy": -1.66, "cluster_size": 11, "cluster_id": 1, "rank_in_cluster": 6}

>  <energy>  (30) 
-8.49

>  <cluster_rmsd>  (30) 
0.25

>  <cluster>  (30) 
2

$$$$

     RDKit          3D

 49 52  0  0  0  0  0  0  0  0999 V2000
  139.7280   73.2900  222.6830 O   0  0  0  0  0  0  0  0  0  0  0  0
  140.1630   72.1140  222.5960 C   0  0  0  0  0  0  0  0  0  0  0  0
  140.7220   71.5970  221.3800 N   0  0  0  0  0  0  0  0  0  0  0  0
  140.7630   72.4900  220.2540 C   0  0  0  0  0  0  0  0  0  0  0  0
  141.6260   73.6910  220.5420 C   0  0  0  0  0  0  0  0  0  0  0  0
  141.0810   74.7960  220.7980 O   0  0  0  0  0  0  0  0  0  0  0  0
  143.0350   73.4990  220.5080 N   0  0  0  0  0  0  0  0  0  0  0  0
  143.7800   72.2500  220.5680 C   0  0  0  0  0  0  0  0  0  0  0  0
  144.9400   72.5450  219.6330 C   0  0  2  0  0  0  0  0  0  0  0  0
  146.0160   71.6950  219.8760 O   0  0  0  0  0  0  0  0  0  0  0  0
  145.2710   73.9740  220.0100 C   0  0  0  0  0  0  0  0  0  0  0  0
  143.9710   74.6010  220.4000 C   0  0  1  0  0  0  0  0  0  0  0  0
  143.5170   75.6180  219.3950 C   0  0  0  0  0  0  0  0  0  0  0  0
  143.6770   75.3550  218.0510 C   0  0  0  0  0  0  0  0  0  0  0  0
  143.2460   76.3150  217.1400 C   0  0  0  0  0  0  0  0  0  0  0  0
  142.6710   77.5050  217.5810 C   0  0  0  0  0  0  0  0  0  0  0  0
  142.5140   77.7620  218.9350 C   0  0  0  0  0  0  0  0  0  0  0  0
  141.7850   79.2730  219.4750 Cl  0  0  0  0  0  0  0  0  0  0  0  0
  142.9440   76.8040  219.8480 C   0  0  0  0  0  0  0  0  0  0  0  0
  140.1120   71.2140  223.7600 C   0  0  0  0  0  0  0  0  0  0  0  0
  139.5410   69.9580  223.6090 C   0  0  0  0  0  0  0  0  0  0  0  0
  139.4770   69.0930  224.6740 C   0  0  0  0  0  0  0  0  0  0  0  0
  139.9830   69.4800  225.8920 C   0  0  0  0  0  0  0  0  0  0  0  0
  139.9230   68.6190  226.9690 C   0  0  0  0  0  0  0  0  0  0  0  0
  140.4300   69.0050  228.1950 C   0  0  0  0  0  0  0  0  0  0  0  0
  140.3630   68.1530  229.2300 F   0  0  0  0  0  0  0  0  0  0  0  0
  140.9980   70.2550  228.3410 C   0  0  0  0  0  0  0  0  0  0  0  0
  141.0530   71.1120  227.2540 C   0  0  0  0  0  0  0  0  0  0  0  0
  140.5470   70.7290  226.0310 C   0  0  0  0  0  0  0  0  0  0  0  0
  140.6000   71.5670  224.9630 N   0  0  0  0  0  0  0  0  0  0  0  0
  141.0800   70.6180  221.3190 H   0  0  0  0  0  0  0  0  0  0  0  0
  141.1729   71.9537  219.3855 H   0  0  0  0  0  0  0  0  0  0  0  0
  139.7400   72.8377  220.0478 H   0  0  0  0  0  0  0  0  0  0  0  0
  144.1304   72.0396  221.5893 H   0  0  0  0  0  0  0  0  0  0  0  0
  143.1925   71.3631  220.2883 H   0  0  0  0  0  0  0  0  0  0  0  0
  144.7067   72.4025  218.5675 H   0  0  0  0  0  0  0  0  0  0  0  0
  146.0360   71.5190  220.8510 H   0  0  0  0  0  0  0  0  0  0  0  0
  145.9754   73.9945  220.8547 H   0  0  0  0  0  0  0  0  0  0  0  0
  145.7484   74.5131  219.1785 H   0  0  0  0  0  0  0  0  0  0  0  0
  144.0579   75.1552  221.3462 H   0  0  0  0  0  0  0  0  0  0  0  0
  144.1320   74.4139  217.7087 H   0  0  0  0  0  0  0  0  0  0  0  0
  143.3605   76.1324  216.0613 H   0  0  0  0  0  0  0  0  0  0  0  0
  142.3369   78.2512  216.8451 H   0  0  0  0  0  0  0  0  0  0  0  0
  142.8314   76.9833  220.9274 H   0  0  0  0  0  0  0  0  0  0  0  0
  139.1378   69.6539  222.6318 H   0  0  0  0  0  0  0  0  0  0  0  0
  139.0241   68.0979  224.5531 H   0  0  0  0  0  0  0  0  0  0  0  0
  139.4706   67.6233  226.8511 H   0  0  0  0  0  0  0  0  0  0  0  0
  141.4042   70.5683  229.3141 H   0  0  0  0  0  0  0  0  0  0  0  0
  141.5051   72.1082  227.3684 H   0  0  0  0  0  0  0  0  0  0  0  0
  1  2  2  0
  2  3  1  0
  3  4  1  0
  4  5  1  0
  5  6  2  0
  5  7  1  0
  7  8  1  0
  8  9  1  0
  9 10  1  0
  9 11  1  0
 11 12  1  0
 12 13  1  0
 13 14  2  0
 14 15  1  0
 15 16  2  0
 16 17  1  0
 17 18  1  0
 17 19  2  0
  2 20  1  0
 20 21  2  0
 21 22  1  0
 22 23  2  0
 23 24  1  0
 24 25  2  0
 25 26  1  0
 25 27  1  0
 27 28  2  0
 28 29  1  0
 29 30  2  0
 12  7  1  0
 19 13  1  0
 30 20  1  0
 29 23  1  0
  3 31  1  0
  4 32  1  0
  4 33  1  0
  8 34  1  0
  8 35  1  0
  9 36  1  6
 10 37  1  0
 11 38  1  0
 11 39  1  0
 12 40  1  1
 14 41  1  0
 15 42  1  0
 16 43  1  0
 19 44  1  0
 21 45  1  0
 22 46  1  0
 24 47  1  0
 27 48  1  0
 28 49  1  0
M  END
>  <smiles>  (31) 
O=C(NCC(=O)N1C[C@H](O)C[C@H]1c1cccc(Cl)c1)c1ccc2cc(F)ccc2n1

>  <score_type>  (31) 
oracle

>  <origin>  (31) 
autodockgpu

>  <m_score__min__energy>  (31) 
-8.7799999999999994

>  <m_primary>  (31) 
energy

>  <rmsd>  (31) 
3.3989293590923806

>  <m_score__min__rmsd>  (31) 
3.3989293590923806

>  <meeko>  (31) 
{"free_energy": -8.73, "intermolecular_energy": -10.52, "internal_energy": -1.27, "cluster_size": 11, "cluster_id": 1, "rank_in_cluster": 4}

>  <energy>  (31) 
-8.48

>  <cluster_rmsd>  (31) 
0.9

>  <cluster>  (31) 
2

$$$$

     RDKit          3D

 49 52  0  0  0  0  0  0  0  0999 V2000
  139.6620   73.6030  222.4110 O   0  0  0  0  0  0  0  0  0  0  0  0
  140.0300   72.4060  222.3090 C   0  0  0  0  0  0  0  0  0  0  0  0
  140.4760   71.8500  221.0630 N   0  0  0  0  0  0  0  0  0  0  0  0
  140.4850   72.7300  219.9260 C   0  0  0  0  0  0  0  0  0  0  0  0
  141.6630   72.4500  219.0290 C   0  0  0  0  0  0  0  0  0  0  0  0
  141.4680   72.2420  217.8030 O   0  0  0  0  0  0  0  0  0  0  0  0
  142.9490   72.4370  219.6340 N   0  0  0  0  0  0  0  0  0  0  0  0
  144.0810   71.5700  219.3380 C   0  0  0  0  0  0  0  0  0  0  0  0
  145.2490   72.5210  219.5330 C   0  0  2  0  0  0  0  0  0  0  0  0
  146.4350   71.8270  219.7560 O   0  0  0  0  0  0  0  0  0  0  0  0
  144.8130   73.2780  220.7710 C   0  0  0  0  0  0  0  0  0  0  0  0
  143.3220   73.3520  220.6960 C   0  0  1  0  0  0  0  0  0  0  0  0
  142.8440   74.7460  220.4210 C   0  0  0  0  0  0  0  0  0  0  0  0
  143.4320   75.4720  219.4070 C   0  0  0  0  0  0  0  0  0  0  0  0
  142.9680   76.7630  219.1720 C   0  0  0  0  0  0  0  0  0  0  0  0
  141.9390   77.2990  219.9440 C   0  0  0  0  0  0  0  0  0  0  0  0
  141.3530   76.5630  220.9620 C   0  0  0  0  0  0  0  0  0  0  0  0
  140.0530   77.2570  221.9280 Cl  0  0  0  0  0  0  0  0  0  0  0  0
  141.8140   75.2720  221.1980 C   0  0  0  0  0  0  0  0  0  0  0  0
  140.0140   71.5190  223.4840 C   0  0  0  0  0  0  0  0  0  0  0  0
  139.4170   70.2720  223.3730 C   0  0  0  0  0  0  0  0  0  0  0  0
  139.3840   69.4190  224.4490 C   0  0  0  0  0  0  0  0  0  0  0  0
  139.9480   69.8110  225.6400 C   0  0  0  0  0  0  0  0  0  0  0  0
  139.9200   68.9630  226.7280 C   0  0  0  0  0  0  0  0  0  0  0  0
  140.4860   69.3550  227.9270 C   0  0  0  0  0  0  0  0  0  0  0  0
  140.4490   68.5150  228.9740 F   0  0  0  0  0  0  0  0  0  0  0  0
  141.0800   70.5960  228.0340 C   0  0  0  0  0  0  0  0  0  0  0  0
  141.1020   71.4400  226.9350 C   0  0  0  0  0  0  0  0  0  0  0  0
  140.5380   71.0530  225.7400 C   0  0  0  0  0  0  0  0  0  0  0  0
  140.5580   71.8770  224.6610 N   0  0  0  0  0  0  0  0  0  0  0  0
  140.7800   70.8540  220.9900 H   0  0  0  0  0  0  0  0  0  0  0  0
  139.5565   72.5865  219.3540 H   0  0  0  0  0  0  0  0  0  0  0  0
  140.5616   73.7659  220.2881 H   0  0  0  0  0  0  0  0  0  0  0  0
  144.1317   70.7224  220.0373 H   0  0  0  0  0  0  0  0  0  0  0  0
  144.0420   71.1055  218.3416 H   0  0  0  0  0  0  0  0  0  0  0  0
  145.4588   73.1613  218.6635 H   0  0  0  0  0  0  0  0  0  0  0  0
  146.4080   71.4900  220.6870 H   0  0  0  0  0  0  0  0  0  0  0  0
  145.1251   72.7408  221.6787 H   0  0  0  0  0  0  0  0  0  0  0  0
  145.2673   74.2788  220.8158 H   0  0  0  0  0  0  0  0  0  0  0  0
  142.8557   73.0759  221.6533 H   0  0  0  0  0  0  0  0  0  0  0  0
  144.2441   75.0434  218.8014 H   0  0  0  0  0  0  0  0  0  0  0  0
  143.4177   77.3659  218.3694 H   0  0  0  0  0  0  0  0  0  0  0  0
  141.5866   78.3214  219.7425 H   0  0  0  0  0  0  0  0  0  0  0  0
  141.3650   74.6659  221.9987 H   0  0  0  0  0  0  0  0  0  0  0  0
  138.9673   69.9643  222.4175 H   0  0  0  0  0  0  0  0  0  0  0  0
  138.9102   68.4304  224.3586 H   0  0  0  0  0  0  0  0  0  0  0  0
  139.4468   67.9738  226.6414 H   0  0  0  0  0  0  0  0  0  0  0  0
  141.5329   70.9131  228.9850 H   0  0  0  0  0  0  0  0  0  0  0  0
  141.5751   72.4296  227.0182 H   0  0  0  0  0  0  0  0  0  0  0  0
  1  2  2  0
  2  3  1  0
  3  4  1  0
  4  5  1  0
  5  6  2  0
  5  7  1  0
  7  8  1  0
  8  9  1  0
  9 10  1  0
  9 11  1  0
 11 12  1  0
 12 13  1  0
 13 14  2  0
 14 15  1  0
 15 16  2  0
 16 17  1  0
 17 18  1  0
 17 19  2  0
  2 20  1  0
 20 21  2  0
 21 22  1  0
 22 23  2  0
 23 24  1  0
 24 25  2  0
 25 26  1  0
 25 27  1  0
 27 28  2  0
 28 29  1  0
 29 30  2  0
 12  7  1  0
 19 13  1  0
 30 20  1  0
 29 23  1  0
  3 31  1  0
  4 32  1  0
  4 33  1  0
  8 34  1  0
  8 35  1  0
  9 36  1  6
 10 37  1  0
 11 38  1  0
 11 39  1  0
 12 40  1  1
 14 41  1  0
 15 42  1  0
 16 43  1  0
 19 44  1  0
 21 45  1  0
 22 46  1  0
 24 47  1  0
 27 48  1  0
 28 49  1  0
M  END
>  <smiles>  (32) 
O=C(NCC(=O)N1C[C@H](O)C[C@H]1c1cccc(Cl)c1)c1ccc2cc(F)ccc2n1

>  <score_type>  (32) 
oracle

>  <origin>  (32) 
autodockgpu

>  <m_score__min__energy>  (32) 
-8.7799999999999994

>  <m_primary>  (32) 
energy

>  <rmsd>  (32) 
3.6556659153167845

>  <m_score__min__rmsd>  (32) 
3.6556659153167845

>  <meeko>  (32) 
{"free_energy": -8.7, "intermolecular_energy": -10.49, "internal_energy": -1.62, "cluster_size": 11, "cluster_id": 1, "rank_in_cluster": 7}

>  <energy>  (32) 
-8.45

>  <cluster_rmsd>  (32) 
0.23

>  <cluster>  (32) 
2

$$$$

     RDKit          3D

 49 52  0  0  0  0  0  0  0  0999 V2000
  140.6400   71.7780  221.0070 O   0  0  0  0  0  0  0  0  0  0  0  0
  140.2570   72.2920  222.0870 C   0  0  0  0  0  0  0  0  0  0  0  0
  139.8910   73.6750  222.1840 N   0  0  0  0  0  0  0  0  0  0  0  0
  139.9800   74.4560  220.9800 C   0  0  0  0  0  0  0  0  0  0  0  0
  141.0410   75.5190  221.0970 C   0  0  0  0  0  0  0  0  0  0  0  0
  141.4300   75.8800  222.2380 O   0  0  0  0  0  0  0  0  0  0  0  0
  141.5510   76.0620  219.8860 N   0  0  0  0  0  0  0  0  0  0  0  0
  141.4530   77.4290  219.3940 C   0  0  0  0  0  0  0  0  0  0  0  0
  142.7970   77.6000  218.7070 C   0  0  2  0  0  0  0  0  0  0  0  0
  142.7640   78.6380  217.7800 O   0  0  0  0  0  0  0  0  0  0  0  0
  142.9560   76.2570  218.0250 C   0  0  0  0  0  0  0  0  0  0  0  0
  142.2840   75.2660  218.9200 C   0  0  1  0  0  0  0  0  0  0  0  0
  143.2720   74.3560  219.5880 C   0  0  0  0  0  0  0  0  0  0  0  0
  144.3570   74.9020  220.2400 C   0  0  0  0  0  0  0  0  0  0  0  0
  145.2570   74.0350  220.8530 C   0  0  0  0  0  0  0  0  0  0  0  0
  145.0610   72.6560  220.8030 C   0  0  0  0  0  0  0  0  0  0  0  0
  143.9670   72.1150  220.1450 C   0  0  0  0  0  0  0  0  0  0  0  0
  143.7340   70.3690  220.0920 Cl  0  0  0  0  0  0  0  0  0  0  0  0
  143.0650   72.9790  219.5330 C   0  0  0  0  0  0  0  0  0  0  0  0
  140.1720   71.4760  223.3100 C   0  0  0  0  0  0  0  0  0  0  0  0
  139.5720   70.2270  223.2400 C   0  0  0  0  0  0  0  0  0  0  0  0
  139.4760   69.4400  224.3620 C   0  0  0  0  0  0  0  0  0  0  0  0
  139.9780   69.8990  225.5560 C   0  0  0  0  0  0  0  0  0  0  0  0
  139.8860   69.1170  226.6890 C   0  0  0  0  0  0  0  0  0  0  0  0
  140.3900   69.5750  227.8910 C   0  0  0  0  0  0  0  0  0  0  0  0
  140.2900   68.7990  228.9830 F   0  0  0  0  0  0  0  0  0  0  0  0
  140.9860   70.8190  227.9580 C   0  0  0  0  0  0  0  0  0  0  0  0
  141.0730   71.5960  226.8140 C   0  0  0  0  0  0  0  0  0  0  0  0
  140.5710   71.1410  225.6150 C   0  0  0  0  0  0  0  0  0  0  0  0
  140.6550   71.9000  224.4910 N   0  0  0  0  0  0  0  0  0  0  0  0
  139.5740   74.0920  223.0870 H   0  0  0  0  0  0  0  0  0  0  0  0
  140.2288   73.7919  220.1391 H   0  0  0  0  0  0  0  0  0  0  0  0
  139.0108   74.9484  220.8119 H   0  0  0  0  0  0  0  0  0  0  0  0
  140.6211   77.5417  218.6832 H   0  0  0  0  0  0  0  0  0  0  0  0
  141.2514   78.1745  220.1773 H   0  0  0  0  0  0  0  0  0  0  0  0
  143.6209   77.8601  219.3878 H   0  0  0  0  0  0  0  0  0  0  0  0
  143.7000   78.8160  217.5060 H   0  0  0  0  0  0  0  0  0  0  0  0
  142.4738   76.2695  217.0364 H   0  0  0  0  0  0  0  0  0  0  0  0
  144.0150   76.0062  217.8647 H   0  0  0  0  0  0  0  0  0  0  0  0
  141.6183   74.5978  218.3540 H   0  0  0  0  0  0  0  0  0  0  0  0
  144.5071   75.9912  220.2748 H   0  0  0  0  0  0  0  0  0  0  0  0
  146.1313   74.4421  221.3820 H   0  0  0  0  0  0  0  0  0  0  0  0
  145.7845   71.9874  221.2925 H   0  0  0  0  0  0  0  0  0  0  0  0
  142.1882   72.5753  219.0055 H   0  0  0  0  0  0  0  0  0  0  0  0
  139.1713   69.8651  222.2816 H   0  0  0  0  0  0  0  0  0  0  0  0
  139.0007   68.4496  224.3050 H   0  0  0  0  0  0  0  0  0  0  0  0
  139.4103   68.1266  226.6351 H   0  0  0  0  0  0  0  0  0  0  0  0
  141.3885   71.1901  228.9121 H   0  0  0  0  0  0  0  0  0  0  0  0
  141.5481   72.5868  226.8640 H   0  0  0  0  0  0  0  0  0  0  0  0
  1  2  2  0
  2  3  1  0
  3  4  1  0
  4  5  1  0
  5  6  2  0
  5  7  1  0
  7  8  1  0
  8  9  1  0
  9 10  1  0
  9 11  1  0
 11 12  1  0
 12 13  1  0
 13 14  2  0
 14 15  1  0
 15 16  2  0
 16 17  1  0
 17 18  1  0
 17 19  2  0
  2 20  1  0
 20 21  2  0
 21 22  1  0
 22 23  2  0
 23 24  1  0
 24 25  2  0
 25 26  1  0
 25 27  1  0
 27 28  2  0
 28 29  1  0
 29 30  2  0
 12  7  1  0
 19 13  1  0
 30 20  1  0
 29 23  1  0
  3 31  1  0
  4 32  1  0
  4 33  1  0
  8 34  1  0
  8 35  1  0
  9 36  1  1
 10 37  1  0
 11 38  1  0
 11 39  1  0
 12 40  1  6
 14 41  1  0
 15 42  1  0
 16 43  1  0
 19 44  1  0
 21 45  1  0
 22 46  1  0
 24 47  1  0
 27 48  1  0
 28 49  1  0
M  END
>  <smiles>  (33) 
O=C(NCC(=O)N1C[C@H](O)C[C@H]1c1cccc(Cl)c1)c1ccc2cc(F)ccc2n1

>  <score_type>  (33) 
oracle

>  <origin>  (33) 
autodockgpu

>  <m_score__min__energy>  (33) 
-8.7799999999999994

>  <m_primary>  (33) 
energy

>  <rmsd>  (33) 
2.179766092611706

>  <m_score__min__rmsd>  (33) 
2.179766092611706

>  <meeko>  (33) 
{"free_energy": -8.55, "intermolecular_energy": -10.34, "internal_energy": -2.02, "cluster_size": 29, "cluster_id": 2, "rank_in_cluster": 11}

>  <energy>  (33) 
-8.44

>  <cluster_rmsd>  (33) 
0.9

>  <cluster>  (33) 
2

$$$$

     RDKit          3D

 49 52  0  0  0  0  0  0  0  0999 V2000
  141.1620   71.8070  221.1490 O   0  0  0  0  0  0  0  0  0  0  0  0
  140.4410   72.2550  222.0750 C   0  0  0  0  0  0  0  0  0  0  0  0
  139.7930   73.5320  221.9860 N   0  0  0  0  0  0  0  0  0  0  0  0
  140.0070   74.2850  220.7790 C   0  0  0  0  0  0  0  0  0  0  0  0
  141.0650   75.3400  220.9750 C   0  0  0  0  0  0  0  0  0  0  0  0
  141.4330   75.6340  222.1410 O   0  0  0  0  0  0  0  0  0  0  0  0
  141.5950   75.9510  219.8050 N   0  0  0  0  0  0  0  0  0  0  0  0
  141.4600   77.3320  219.3650 C   0  0  0  0  0  0  0  0  0  0  0  0
  142.8200   77.5820  218.7350 C   0  0  2  0  0  0  0  0  0  0  0  0
  142.7780   78.6560  217.8500 O   0  0  0  0  0  0  0  0  0  0  0  0
  143.0550   76.2750  218.0060 C   0  0  0  0  0  0  0  0  0  0  0  0
  142.3920   75.2230  218.8360 C   0  0  1  0  0  0  0  0  0  0  0  0
  143.3900   74.3250  219.5030 C   0  0  0  0  0  0  0  0  0  0  0  0
  144.4100   74.8830  220.2440 C   0  0  0  0  0  0  0  0  0  0  0  0
  145.3220   74.0260  220.8530 C   0  0  0  0  0  0  0  0  0  0  0  0
  145.2020   72.6450  220.7120 C   0  0  0  0  0  0  0  0  0  0  0  0
  144.1740   72.0910  219.9650 C   0  0  0  0  0  0  0  0  0  0  0  0
  144.0370   70.3420  219.7970 Cl  0  0  0  0  0  0  0  0  0  0  0  0
  143.2600   72.9450  219.3550 C   0  0  0  0  0  0  0  0  0  0  0  0
  140.2330   71.4700  223.3030 C   0  0  0  0  0  0  0  0  0  0  0  0
  139.5220   70.2810  223.2240 C   0  0  0  0  0  0  0  0  0  0  0  0
  139.3100   69.5230  224.3500 C   0  0  0  0  0  0  0  0  0  0  0  0
  139.8070   69.9510  225.5580 C   0  0  0  0  0  0  0  0  0  0  0  0
  139.5990   69.1990  226.6950 C   0  0  0  0  0  0  0  0  0  0  0  0
  140.0980   69.6270  227.9110 C   0  0  0  0  0  0  0  0  0  0  0  0
  139.8850   68.8800  229.0070 F   0  0  0  0  0  0  0  0  0  0  0  0
  140.8050   70.8100  227.9860 C   0  0  0  0  0  0  0  0  0  0  0  0
  141.0080   71.5590  226.8380 C   0  0  0  0  0  0  0  0  0  0  0  0
  140.5110   71.1340  225.6250 C   0  0  0  0  0  0  0  0  0  0  0  0
  140.7090   71.8650  224.4970 N   0  0  0  0  0  0  0  0  0  0  0  0
  139.1960   73.8950  222.7610 H   0  0  0  0  0  0  0  0  0  0  0  0
  140.3274   73.5996  219.9806 H   0  0  0  0  0  0  0  0  0  0  0  0
  139.0646   74.7832  220.5076 H   0  0  0  0  0  0  0  0  0  0  0  0
  140.6497   77.4422  218.6293 H   0  0  0  0  0  0  0  0  0  0  0  0
  141.2014   78.0363  220.1694 H   0  0  0  0  0  0  0  0  0  0  0  0
  143.6093   77.8443  219.4548 H   0  0  0  0  0  0  0  0  0  0  0  0
  143.6950   78.7780  217.4950 H   0  0  0  0  0  0  0  0  0  0  0  0
  142.6070   76.3101  217.0020 H   0  0  0  0  0  0  0  0  0  0  0  0
  144.1279   76.0713  217.8741 H   0  0  0  0  0  0  0  0  0  0  0  0
  141.7739   74.5533  218.2201 H   0  0  0  0  0  0  0  0  0  0  0  0
  144.5004   75.9741  220.3508 H   0  0  0  0  0  0  0  0  0  0  0  0
  146.1455   74.4429  221.4514 H   0  0  0  0  0  0  0  0  0  0  0  0
  145.9336   71.9847  221.2006 H   0  0  0  0  0  0  0  0  0  0  0  0
  142.4352   72.5312  218.7562 H   0  0  0  0  0  0  0  0  0  0  0  0
  139.1261   69.9436  222.2548 H   0  0  0  0  0  0  0  0  0  0  0  0
  138.7466   68.5804  224.2854 H   0  0  0  0  0  0  0  0  0  0  0  0
  139.0348   68.2566  226.6342 H   0  0  0  0  0  0  0  0  0  0  0  0
  141.2046   71.1560  228.9507 H   0  0  0  0  0  0  0  0  0  0  0  0
  141.5714   72.5020  226.8955 H   0  0  0  0  0  0  0  0  0  0  0  0
  1  2  2  0
  2  3  1  0
  3  4  1  0
  4  5  1  0
  5  6  2  0
  5  7  1  0
  7  8  1  0
  8  9  1  0
  9 10  1  0
  9 11  1  0
 11 12  1  0
 12 13  1  0
 13 14  2  0
 14 15  1  0
 15 16  2  0
 16 17  1  0
 17 18  1  0
 17 19  2  0
  2 20  1  0
 20 21  2  0
 21 22  1  0
 22 23  2  0
 23 24  1  0
 24 25  2  0
 25 26  1  0
 25 27  1  0
 27 28  2  0
 28 29  1  0
 29 30  2  0
 12  7  1  0
 19 13  1  0
 30 20  1  0
 29 23  1  0
  3 31  1  0
  4 32  1  0
  4 33  1  0
  8 34  1  0
  8 35  1  0
  9 36  1  1
 10 37  1  0
 11 38  1  0
 11 39  1  0
 12 40  1  6
 14 41  1  0
 15 42  1  0
 16 43  1  0
 19 44  1  0
 21 45  1  0
 22 46  1  0
 24 47  1  0
 27 48  1  0
 28 49  1  0
M  END
>  <smiles>  (34) 
O=C(NCC(=O)N1C[C@H](O)C[C@H]1c1cccc(Cl)c1)c1ccc2cc(F)ccc2n1

>  <score_type>  (34) 
oracle

>  <origin>  (34) 
autodockgpu

>  <m_score__min__energy>  (34) 
-8.7799999999999994

>  <m_primary>  (34) 
energy

>  <rmsd>  (34) 
2.2097683958345056

>  <m_score__min__rmsd>  (34) 
2.2097683958345056

>  <meeko>  (34) 
{"free_energy": -8.7, "intermolecular_energy": -10.49, "internal_energy": -1.86, "cluster_size": 29, "cluster_id": 2, "rank_in_cluster": 1}

>  <energy>  (34) 
-8.39

>  <cluster_rmsd>  (34) 
0.29

>  <cluster>  (34) 
2

$$$$

     RDKit          3D

 49 52  0  0  0  0  0  0  0  0999 V2000
  138.6350   71.8740  221.4550 O   0  0  0  0  0  0  0  0  0  0  0  0
  139.6540   72.0040  222.1780 C   0  0  0  0  0  0  0  0  0  0  0  0
  140.7110   72.9170  221.8480 N   0  0  0  0  0  0  0  0  0  0  0  0
  140.5520   73.6840  220.6420 C   0  0  0  0  0  0  0  0  0  0  0  0
  141.5930   73.3110  219.6180 C   0  0  0  0  0  0  0  0  0  0  0  0
  141.2280   72.9780  218.4610 O   0  0  0  0  0  0  0  0  0  0  0  0
  142.9530   73.3600  220.0300 N   0  0  0  0  0  0  0  0  0  0  0  0
  143.9180   72.2710  220.1020 C   0  0  0  0  0  0  0  0  0  0  0  0
  145.1990   72.9760  219.6920 C   0  0  2  0  0  0  0  0  0  0  0  0
  146.3230   72.2740  220.1210 O   0  0  0  0  0  0  0  0  0  0  0  0
  145.0610   74.2950  220.4240 C   0  0  0  0  0  0  0  0  0  0  0  0
  143.5960   74.5870  220.4590 C   0  0  1  0  0  0  0  0  0  0  0  0
  143.2340   75.7420  219.5720 C   0  0  0  0  0  0  0  0  0  0  0  0
  142.5460   76.8110  220.1050 C   0  0  0  0  0  0  0  0  0  0  0  0
  142.2240   77.8690  219.2600 C   0  0  0  0  0  0  0  0  0  0  0  0
  142.5890   77.8400  217.9150 C   0  0  0  0  0  0  0  0  0  0  0  0
  143.2810   76.7610  217.3870 C   0  0  0  0  0  0  0  0  0  0  0  0
  143.7360   76.7420  215.6850 Cl  0  0  0  0  0  0  0  0  0  0  0  0
  143.6050   75.7030  218.2290 C   0  0  0  0  0  0  0  0  0  0  0  0
  139.7990   71.2100  223.4100 C   0  0  0  0  0  0  0  0  0  0  0  0
  139.3830   69.8860  223.4030 C   0  0  0  0  0  0  0  0  0  0  0  0
  139.5040   69.1160  224.5340 C   0  0  0  0  0  0  0  0  0  0  0  0
  140.0390   69.6660  225.6740 C   0  0  0  0  0  0  0  0  0  0  0  0
  140.1640   68.9020  226.8160 C   0  0  0  0  0  0  0  0  0  0  0  0
  140.7020   69.4530  227.9640 C   0  0  0  0  0  0  0  0  0  0  0  0
  140.8150   68.6930  229.0650 F   0  0  0  0  0  0  0  0  0  0  0  0
  141.1140   70.7700  227.9670 C   0  0  0  0  0  0  0  0  0  0  0  0
  140.9840   71.5290  226.8140 C   0  0  0  0  0  0  0  0  0  0  0  0
  140.4470   70.9820  225.6700 C   0  0  0  0  0  0  0  0  0  0  0  0
  140.3190   71.7230  224.5380 N   0  0  0  0  0  0  0  0  0  0  0  0
  141.5540   73.0160  222.4560 H   0  0  0  0  0  0  0  0  0  0  0  0
  139.5527   73.4925  220.2240 H   0  0  0  0  0  0  0  0  0  0  0  0
  140.6716   74.7494  220.8883 H   0  0  0  0  0  0  0  0  0  0  0  0
  143.9911   71.8653  221.1218 H   0  0  0  0  0  0  0  0  0  0  0  0
  143.6631   71.4030  219.4762 H   0  0  0  0  0  0  0  0  0  0  0  0
  145.3299   73.0759  218.6044 H   0  0  0  0  0  0  0  0  0  0  0  0
  146.0500   71.7380  220.9090 H   0  0  0  0  0  0  0  0  0  0  0  0
  145.4596   74.2101  221.4457 H   0  0  0  0  0  0  0  0  0  0  0  0
  145.6230   75.0975  219.9238 H   0  0  0  0  0  0  0  0  0  0  0  0
  143.2690   74.8875  221.4654 H   0  0  0  0  0  0  0  0  0  0  0  0
  142.2599   76.8274  221.1670 H   0  0  0  0  0  0  0  0  0  0  0  0
  141.6763   78.7363  219.6573 H   0  0  0  0  0  0  0  0  0  0  0  0
  142.3241   78.6855  217.2631 H   0  0  0  0  0  0  0  0  0  0  0  0
  144.1542   74.8351  217.8352 H   0  0  0  0  0  0  0  0  0  0  0  0
  138.9545   69.4514  222.4878 H   0  0  0  0  0  0  0  0  0  0  0  0
  139.1749   68.0664  224.5272 H   0  0  0  0  0  0  0  0  0  0  0  0
  139.8349   67.8524  226.8130 H   0  0  0  0  0  0  0  0  0  0  0  0
  141.5424   71.2144  228.8775 H   0  0  0  0  0  0  0  0  0  0  0  0
  141.3131   72.5786  226.8131 H   0  0  0  0  0  0  0  0  0  0  0  0
  1  2  2  0
  2  3  1  0
  3  4  1  0
  4  5  1  0
  5  6  2  0
  5  7  1  0
  7  8  1  0
  8  9  1  0
  9 10  1  0
  9 11  1  0
 11 12  1  0
 12 13  1  0
 13 14  2  0
 14 15  1  0
 15 16  2  0
 16 17  1  0
 17 18  1  0
 17 19  2  0
  2 20  1  0
 20 21  2  0
 21 22  1  0
 22 23  2  0
 23 24  1  0
 24 25  2  0
 25 26  1  0
 25 27  1  0
 27 28  2  0
 28 29  1  0
 29 30  2  0
 12  7  1  0
 19 13  1  0
 30 20  1  0
 29 23  1  0
  3 31  1  0
  4 32  1  0
  4 33  1  0
  8 34  1  0
  8 35  1  0
  9 36  1  6
 10 37  1  0
 11 38  1  0
 11 39  1  0
 12 40  1  1
 14 41  1  0
 15 42  1  0
 16 43  1  0
 19 44  1  0
 21 45  1  0
 22 46  1  0
 24 47  1  0
 27 48  1  0
 28 49  1  0
M  END
>  <smiles>  (35) 
O=C(NCC(=O)N1C[C@H](O)C[C@H]1c1cccc(Cl)c1)c1ccc2cc(F)ccc2n1

>  <score_type>  (35) 
oracle

>  <origin>  (35) 
autodockgpu

>  <m_score__min__energy>  (35) 
-8.7799999999999994

>  <m_primary>  (35) 
energy

>  <rmsd>  (35) 
3.2893170261909916

>  <m_score__min__rmsd>  (35) 
3.2893170261909916

>  <meeko>  (35) 
{"free_energy": -8.0, "intermolecular_energy": -9.79, "internal_energy": -1.54, "cluster_size": 11, "cluster_id": 1, "rank_in_cluster": 11}

>  <energy>  (35) 
-8.39

>  <cluster_rmsd>  (35) 
0.94

>  <cluster>  (35) 
2

$$$$

     RDKit          3D

 49 52  0  0  0  0  0  0  0  0999 V2000
  139.8850   71.7620  221.0370 O   0  0  0  0  0  0  0  0  0  0  0  0
  139.7830   72.2870  222.1740 C   0  0  0  0  0  0  0  0  0  0  0  0
  139.6640   73.7060  222.3490 N   0  0  0  0  0  0  0  0  0  0  0  0
  139.6660   74.5090  221.1560 C   0  0  0  0  0  0  0  0  0  0  0  0
  140.7640   75.5410  221.1960 C   0  0  0  0  0  0  0  0  0  0  0  0
  141.1630   75.9740  222.3080 O   0  0  0  0  0  0  0  0  0  0  0  0
  141.2930   75.9730  219.9480 N   0  0  0  0  0  0  0  0  0  0  0  0
  141.4150   77.3310  219.4380 C   0  0  0  0  0  0  0  0  0  0  0  0
  142.7260   77.2490  218.6750 C   0  0  2  0  0  0  0  0  0  0  0  0
  142.8280   78.2690  217.7330 O   0  0  0  0  0  0  0  0  0  0  0  0
  142.6010   75.8940  218.0100 C   0  0  0  0  0  0  0  0  0  0  0  0
  141.8130   75.0490  218.9590 C   0  0  1  0  0  0  0  0  0  0  0  0
  142.6570   73.9810  219.5880 C   0  0  0  0  0  0  0  0  0  0  0  0
  142.1650   72.6950  219.6700 C   0  0  0  0  0  0  0  0  0  0  0  0
  142.9680   71.7230  220.2580 C   0  0  0  0  0  0  0  0  0  0  0  0
  144.2320   72.0470  220.7480 C   0  0  0  0  0  0  0  0  0  0  0  0
  144.7190   73.3420  220.6620 C   0  0  0  0  0  0  0  0  0  0  0  0
  146.3200   73.7350  221.2870 Cl  0  0  0  0  0  0  0  0  0  0  0  0
  143.9190   74.3160  220.0750 C   0  0  0  0  0  0  0  0  0  0  0  0
  139.7820   71.4480  223.3840 C   0  0  0  0  0  0  0  0  0  0  0  0
  139.2190   70.1820  223.3190 C   0  0  0  0  0  0  0  0  0  0  0  0
  139.2010   69.3730  224.4290 C   0  0  0  0  0  0  0  0  0  0  0  0
  139.7460   69.8270  225.6060 C   0  0  0  0  0  0  0  0  0  0  0  0
  139.7330   69.0230  226.7270 C   0  0  0  0  0  0  0  0  0  0  0  0
  140.2800   69.4770  227.9130 C   0  0  0  0  0  0  0  0  0  0  0  0
  140.2580   68.6790  228.9930 F   0  0  0  0  0  0  0  0  0  0  0  0
  140.8400   70.7370  227.9740 C   0  0  0  0  0  0  0  0  0  0  0  0
  140.8470   71.5360  226.8420 C   0  0  0  0  0  0  0  0  0  0  0  0
  140.3020   71.0860  225.6600 C   0  0  0  0  0  0  0  0  0  0  0  0
  140.3090   71.8670  224.5480 N   0  0  0  0  0  0  0  0  0  0  0  0
  139.5800   74.1320  223.2980 H   0  0  0  0  0  0  0  0  0  0  0  0
  139.8188   73.8560  220.2841 H   0  0  0  0  0  0  0  0  0  0  0  0
  138.7000   75.0304  221.0852 H   0  0  0  0  0  0  0  0  0  0  0  0
  140.5776   77.5874  218.7724 H   0  0  0  0  0  0  0  0  0  0  0  0
  141.3965   78.1070  220.2174 H   0  0  0  0  0  0  0  0  0  0  0  0
  143.6212   77.3598  219.3046 H   0  0  0  0  0  0  0  0  0  0  0  0
  143.7910   78.4850  217.6370 H   0  0  0  0  0  0  0  0  0  0  0  0
  142.0735   75.9855  217.0491 H   0  0  0  0  0  0  0  0  0  0  0  0
  143.5863   75.4540  217.7965 H   0  0  0  0  0  0  0  0  0  0  0  0
  141.0058   74.5079  218.4436 H   0  0  0  0  0  0  0  0  0  0  0  0
  141.1666   72.4452  219.2817 H   0  0  0  0  0  0  0  0  0  0  0  0
  142.6019   70.6887  220.3370 H   0  0  0  0  0  0  0  0  0  0  0  0
  144.8518   71.2641  221.2094 H   0  0  0  0  0  0  0  0  0  0  0  0
  144.2823   75.3512  219.9950 H   0  0  0  0  0  0  0  0  0  0  0  0
  138.7847   69.8241  222.3739 H   0  0  0  0  0  0  0  0  0  0  0  0
  138.7538   68.3694  224.3761 H   0  0  0  0  0  0  0  0  0  0  0  0
  139.2866   68.0189  226.6772 H   0  0  0  0  0  0  0  0  0  0  0  0
  141.2774   71.1041  228.9142 H   0  0  0  0  0  0  0  0  0  0  0  0
  141.2927   72.5406  226.8879 H   0  0  0  0  0  0  0  0  0  0  0  0
  1  2  2  0
  2  3  1  0
  3  4  1  0
  4  5  1  0
  5  6  2  0
  5  7  1  0
  7  8  1  0
  8  9  1  0
  9 10  1  0
  9 11  1  0
 11 12  1  0
 12 13  1  0
 13 14  2  0
 14 15  1  0
 15 16  2  0
 16 17  1  0
 17 18  1  0
 17 19  2  0
  2 20  1  0
 20 21  2  0
 21 22  1  0
 22 23  2  0
 23 24  1  0
 24 25  2  0
 25 26  1  0
 25 27  1  0
 27 28  2  0
 28 29  1  0
 29 30  2  0
 12  7  1  0
 19 13  1  0
 30 20  1  0
 29 23  1  0
  3 31  1  0
  4 32  1  0
  4 33  1  0
  8 34  1  0
  8 35  1  0
  9 36  1  1
 10 37  1  0
 11 38  1  0
 11 39  1  0
 12 40  1  6
 14 41  1  0
 15 42  1  0
 16 43  1  0
 19 44  1  0
 21 45  1  0
 22 46  1  0
 24 47  1  0
 27 48  1  0
 28 49  1  0
M  END
>  <smiles>  (36) 
O=C(NCC(=O)N1C[C@H](O)C[C@H]1c1cccc(Cl)c1)c1ccc2cc(F)ccc2n1

>  <score_type>  (36) 
oracle

>  <origin>  (36) 
autodockgpu

>  <m_score__min__energy>  (36) 
-8.7799999999999994

>  <m_primary>  (36) 
energy

>  <rmsd>  (36) 
2.0755419297499396

>  <m_score__min__rmsd>  (36) 
2.0755419297499396

>  <meeko>  (36) 
{"free_energy": -8.31, "intermolecular_energy": -10.1, "internal_energy": -2.03, "cluster_size": 29, "cluster_id": 2, "rank_in_cluster": 27}

>  <energy>  (36) 
-8.33

>  <cluster_rmsd>  (36) 
0.89

>  <cluster>  (36) 
2

$$$$

     RDKit          3D

 49 52  0  0  0  0  0  0  0  0999 V2000
  140.7050   71.6640  221.0450 O   0  0  0  0  0  0  0  0  0  0  0  0
  140.3060   72.2090  222.1050 C   0  0  0  0  0  0  0  0  0  0  0  0
  139.9490   73.5980  222.1600 N   0  0  0  0  0  0  0  0  0  0  0  0
  140.0680   74.3470  220.9370 C   0  0  0  0  0  0  0  0  0  0  0  0
  141.0090   75.5120  221.1010 C   0  0  0  0  0  0  0  0  0  0  0  0
  141.2910   75.9180  222.2580 O   0  0  0  0  0  0  0  0  0  0  0  0
  141.5340   76.0920  219.9140 N   0  0  0  0  0  0  0  0  0  0  0  0
  141.4330   77.4720  219.4600 C   0  0  0  0  0  0  0  0  0  0  0  0
  142.7860   77.6720  218.8000 C   0  0  2  0  0  0  0  0  0  0  0  0
  142.7600   78.7360  217.9020 O   0  0  0  0  0  0  0  0  0  0  0  0
  142.9660   76.3500  218.0820 C   0  0  0  0  0  0  0  0  0  0  0  0
  142.2870   75.3290  218.9380 C   0  0  1  0  0  0  0  0  0  0  0  0
  143.2710   74.4070  219.5950 C   0  0  0  0  0  0  0  0  0  0  0  0
  144.3660   74.9400  220.2410 C   0  0  0  0  0  0  0  0  0  0  0  0
  145.2630   74.0620  220.8430 C   0  0  0  0  0  0  0  0  0  0  0  0
  145.0530   72.6860  220.7890 C   0  0  0  0  0  0  0  0  0  0  0  0
  143.9490   72.1570  220.1380 C   0  0  0  0  0  0  0  0  0  0  0  0
  143.6990   70.4140  220.0800 Cl  0  0  0  0  0  0  0  0  0  0  0  0
  143.0510   73.0330  219.5350 C   0  0  0  0  0  0  0  0  0  0  0  0
  140.1920   71.4260  223.3470 C   0  0  0  0  0  0  0  0  0  0  0  0
  139.5620   70.1900  223.3020 C   0  0  0  0  0  0  0  0  0  0  0  0
  139.4380   69.4330  224.4410 C   0  0  0  0  0  0  0  0  0  0  0  0
  139.9410   69.9090  225.6280 C   0  0  0  0  0  0  0  0  0  0  0  0
  139.8210   69.1570  226.7790 C   0  0  0  0  0  0  0  0  0  0  0  0
  140.3260   69.6330  227.9740 C   0  0  0  0  0  0  0  0  0  0  0  0
  140.1990   68.8860  229.0830 F   0  0  0  0  0  0  0  0  0  0  0  0
  140.9520   70.8630  228.0150 C   0  0  0  0  0  0  0  0  0  0  0  0
  141.0670   71.6100  226.8540 C   0  0  0  0  0  0  0  0  0  0  0  0
  140.5630   71.1380  225.6620 C   0  0  0  0  0  0  0  0  0  0  0  0
  140.6750   71.8670  224.5210 N   0  0  0  0  0  0  0  0  0  0  0  0
  139.6200   74.0400  223.0460 H   0  0  0  0  0  0  0  0  0  0  0  0
  140.4511   73.6848  220.1466 H   0  0  0  0  0  0  0  0  0  0  0  0
  139.0748   74.7365  220.6691 H   0  0  0  0  0  0  0  0  0  0  0  0
  140.6115   77.5991  218.7396 H   0  0  0  0  0  0  0  0  0  0  0  0
  141.2131   78.1932  220.2610 H   0  0  0  0  0  0  0  0  0  0  0  0
  143.5968   77.9182  219.5014 H   0  0  0  0  0  0  0  0  0  0  0  0
  143.6720   78.8240  217.5250 H   0  0  0  0  0  0  0  0  0  0  0  0
  142.4994   76.3875  217.0866 H   0  0  0  0  0  0  0  0  0  0  0  0
  144.0292   76.1113  217.9312 H   0  0  0  0  0  0  0  0  0  0  0  0
  141.6348   74.6727  218.3431 H   0  0  0  0  0  0  0  0  0  0  0  0
  144.5263   76.0276  220.2796 H   0  0  0  0  0  0  0  0  0  0  0  0
  146.1457   74.4584  221.3661 H   0  0  0  0  0  0  0  0  0  0  0  0
  145.7740   72.0088  221.2702 H   0  0  0  0  0  0  0  0  0  0  0  0
  142.1673   72.6400  219.0109 H   0  0  0  0  0  0  0  0  0  0  0  0
  139.1600   69.8150  222.3492 H   0  0  0  0  0  0  0  0  0  0  0  0
  138.9398   68.4530  224.4035 H   0  0  0  0  0  0  0  0  0  0  0  0
  139.3225   68.1770  226.7451 H   0  0  0  0  0  0  0  0  0  0  0  0
  141.3566   71.2471  228.9630 H   0  0  0  0  0  0  0  0  0  0  0  0
  141.5658   72.5899  226.8843 H   0  0  0  0  0  0  0  0  0  0  0  0
  1  2  2  0
  2  3  1  0
  3  4  1  0
  4  5  1  0
  5  6  2  0
  5  7  1  0
  7  8  1  0
  8  9  1  0
  9 10  1  0
  9 11  1  0
 11 12  1  0
 12 13  1  0
 13 14  2  0
 14 15  1  0
 15 16  2  0
 16 17  1  0
 17 18  1  0
 17 19  2  0
  2 20  1  0
 20 21  2  0
 21 22  1  0
 22 23  2  0
 23 24  1  0
 24 25  2  0
 25 26  1  0
 25 27  1  0
 27 28  2  0
 28 29  1  0
 29 30  2  0
 12  7  1  0
 19 13  1  0
 30 20  1  0
 29 23  1  0
  3 31  1  0
  4 32  1  0
  4 33  1  0
  8 34  1  0
  8 35  1  0
  9 36  1  1
 10 37  1  0
 11 38  1  0
 11 39  1  0
 12 40  1  6
 14 41  1  0
 15 42  1  0
 16 43  1  0
 19 44  1  0
 21 45  1  0
 22 46  1  0
 24 47  1  0
 27 48  1  0
 28 49  1  0
M  END
>  <smiles>  (37) 
O=C(NCC(=O)N1C[C@H](O)C[C@H]1c1cccc(Cl)c1)c1ccc2cc(F)ccc2n1

>  <score_type>  (37) 
oracle

>  <origin>  (37) 
autodockgpu

>  <m_score__min__energy>  (37) 
-8.7799999999999994

>  <m_primary>  (37) 
energy

>  <rmsd>  (37) 
2.188931110072988

>  <m_score__min__rmsd>  (37) 
2.188931110072988

>  <meeko>  (37) 
{"free_energy": -8.55, "intermolecular_energy": -10.34, "internal_energy": -2.04, "cluster_size": 29, "cluster_id": 2, "rank_in_cluster": 9}

>  <energy>  (37) 
-8.32

>  <cluster_rmsd>  (37) 
0.98

>  <cluster>  (37) 
2

$$$$

     RDKit          3D

 49 52  0  0  0  0  0  0  0  0999 V2000
  141.0940   71.7630  221.0840 O   0  0  0  0  0  0  0  0  0  0  0  0
  140.4240   72.2370  222.0360 C   0  0  0  0  0  0  0  0  0  0  0  0
  139.8220   73.5370  221.9710 N   0  0  0  0  0  0  0  0  0  0  0  0
  140.0180   74.2830  220.7570 C   0  0  0  0  0  0  0  0  0  0  0  0
  141.0670   75.3500  220.9360 C   0  0  0  0  0  0  0  0  0  0  0  0
  141.4360   75.6630  222.0980 O   0  0  0  0  0  0  0  0  0  0  0  0
  141.5870   75.9520  219.7580 N   0  0  0  0  0  0  0  0  0  0  0  0
  141.4520   77.3310  219.3100 C   0  0  0  0  0  0  0  0  0  0  0  0
  142.8060   77.5720  218.6650 C   0  0  2  0  0  0  0  0  0  0  0  0
  142.7590   78.6400  217.7730 O   0  0  0  0  0  0  0  0  0  0  0  0
  143.0310   76.2600  217.9420 C   0  0  0  0  0  0  0  0  0  0  0  0
  142.3720   75.2160  218.7860 C   0  0  1  0  0  0  0  0  0  0  0  0
  143.3740   74.3180  219.4490 C   0  0  0  0  0  0  0  0  0  0  0  0
  144.3880   74.8780  220.1970 C   0  0  0  0  0  0  0  0  0  0  0  0
  145.3040   74.0220  220.8030 C   0  0  0  0  0  0  0  0  0  0  0  0
  145.1930   72.6410  220.6500 C   0  0  0  0  0  0  0  0  0  0  0  0
  144.1710   72.0860  219.8950 C   0  0  0  0  0  0  0  0  0  0  0  0
  144.0470   70.3380  219.7130 Cl  0  0  0  0  0  0  0  0  0  0  0  0
  143.2540   72.9390  219.2900 C   0  0  0  0  0  0  0  0  0  0  0  0
  140.2340   71.4580  223.2720 C   0  0  0  0  0  0  0  0  0  0  0  0
  139.5520   70.2520  223.2030 C   0  0  0  0  0  0  0  0  0  0  0  0
  139.3570   69.5000  224.3350 C   0  0  0  0  0  0  0  0  0  0  0  0
  139.8410   69.9520  225.5400 C   0  0  0  0  0  0  0  0  0  0  0  0
  139.6500   69.2050  226.6840 C   0  0  0  0  0  0  0  0  0  0  0  0
  140.1360   69.6570  227.8960 C   0  0  0  0  0  0  0  0  0  0  0  0
  139.9390   68.9150  228.9990 F   0  0  0  0  0  0  0  0  0  0  0  0
  140.8140   70.8580  227.9610 C   0  0  0  0  0  0  0  0  0  0  0  0
  141.0000   71.6000  226.8060 C   0  0  0  0  0  0  0  0  0  0  0  0
  140.5160   71.1520  225.5970 C   0  0  0  0  0  0  0  0  0  0  0  0
  140.6980   71.8770  224.4620 N   0  0  0  0  0  0  0  0  0  0  0  0
  139.2680   73.9210  222.7680 H   0  0  0  0  0  0  0  0  0  0  0  0
  140.3384   73.5949  219.9609 H   0  0  0  0  0  0  0  0  0  0  0  0
  139.0683   74.7697  220.4902 H   0  0  0  0  0  0  0  0  0  0  0  0
  140.6347   77.4390  218.5817 H   0  0  0  0  0  0  0  0  0  0  0  0
  141.2037   78.0416  220.1121 H   0  0  0  0  0  0  0  0  0  0  0  0
  143.6025   77.8363  219.3761 H   0  0  0  0  0  0  0  0  0  0  0  0
  143.6850   78.7970  217.4540 H   0  0  0  0  0  0  0  0  0  0  0  0
  142.5740   76.2897  216.9419 H   0  0  0  0  0  0  0  0  0  0  0  0
  144.1019   76.0521  217.8008 H   0  0  0  0  0  0  0  0  0  0  0  0
  141.7450   74.5451  218.1804 H   0  0  0  0  0  0  0  0  0  0  0  0
  144.4709   75.9689  220.3116 H   0  0  0  0  0  0  0  0  0  0  0  0
  146.1225   74.4394  221.4078 H   0  0  0  0  0  0  0  0  0  0  0  0
  145.9273   71.9815  221.1356 H   0  0  0  0  0  0  0  0  0  0  0  0
  142.4336   72.5247  218.6856 H   0  0  0  0  0  0  0  0  0  0  0  0
  139.1655   69.8964  222.2365 H   0  0  0  0  0  0  0  0  0  0  0  0
  138.8176   68.5430  224.2784 H   0  0  0  0  0  0  0  0  0  0  0  0
  139.1100   68.2481  226.6313 H   0  0  0  0  0  0  0  0  0  0  0  0
  141.2036   71.2230  228.9228 H   0  0  0  0  0  0  0  0  0  0  0  0
  141.5400   72.5571  226.8551 H   0  0  0  0  0  0  0  0  0  0  0  0
  1  2  2  0
  2  3  1  0
  3  4  1  0
  4  5  1  0
  5  6  2  0
  5  7  1  0
  7  8  1  0
  8  9  1  0
  9 10  1  0
  9 11  1  0
 11 12  1  0
 12 13  1  0
 13 14  2  0
 14 15  1  0
 15 16  2  0
 16 17  1  0
 17 18  1  0
 17 19  2  0
  2 20  1  0
 20 21  2  0
 21 22  1  0
 22 23  2  0
 23 24  1  0
 24 25  2  0
 25 26  1  0
 25 27  1  0
 27 28  2  0
 28 29  1  0
 29 30  2  0
 12  7  1  0
 19 13  1  0
 30 20  1  0
 29 23  1  0
  3 31  1  0
  4 32  1  0
  4 33  1  0
  8 34  1  0
  8 35  1  0
  9 36  1  1
 10 37  1  0
 11 38  1  0
 11 39  1  0
 12 40  1  6
 14 41  1  0
 15 42  1  0
 16 43  1  0
 19 44  1  0
 21 45  1  0
 22 46  1  0
 24 47  1  0
 27 48  1  0
 28 49  1  0
M  END
>  <smiles>  (38) 
O=C(NCC(=O)N1C[C@H](O)C[C@H]1c1cccc(Cl)c1)c1ccc2cc(F)ccc2n1

>  <score_type>  (38) 
oracle

>  <origin>  (38) 
autodockgpu

>  <m_score__min__energy>  (38) 
-8.7799999999999994

>  <m_primary>  (38) 
energy

>  <rmsd>  (38) 
2.2017739696520087

>  <m_score__min__rmsd>  (38) 
2.2017739696520087

>  <meeko>  (38) 
{"free_energy": -8.7, "intermolecular_energy": -10.49, "internal_energy": -1.87, "cluster_size": 29, "cluster_id": 2, "rank_in_cluster": 2}

>  <energy>  (38) 
-8.31

>  <cluster_rmsd>  (38) 
0.97

>  <cluster>  (38) 
2

$$$$

     RDKit          3D

 49 52  0  0  0  0  0  0  0  0999 V2000
  141.1340   72.1780  221.2660 O   0  0  0  0  0  0  0  0  0  0  0  0
  140.3030   72.5130  222.1460 C   0  0  0  0  0  0  0  0  0  0  0  0
  139.5030   73.6990  222.0270 N   0  0  0  0  0  0  0  0  0  0  0  0
  139.6960   74.4950  220.8450 C   0  0  0  0  0  0  0  0  0  0  0  0
  141.0140   75.2240  220.8880 C   0  0  0  0  0  0  0  0  0  0  0  0
  141.6430   75.2970  221.9760 O   0  0  0  0  0  0  0  0  0  0  0  0
  141.4770   75.7970  219.6720 N   0  0  0  0  0  0  0  0  0  0  0  0
  141.5120   77.2010  219.2880 C   0  0  0  0  0  0  0  0  0  0  0  0
  142.7990   77.2620  218.4840 C   0  0  2  0  0  0  0  0  0  0  0  0
  142.8170   78.3690  217.6390 O   0  0  0  0  0  0  0  0  0  0  0  0
  142.7210   75.9690  217.6980 C   0  0  0  0  0  0  0  0  0  0  0  0
  142.0110   74.9990  218.5860 C   0  0  1  0  0  0  0  0  0  0  0  0
  142.9290   73.9240  219.0870 C   0  0  0  0  0  0  0  0  0  0  0  0
  142.6460   72.6060  218.7960 C   0  0  0  0  0  0  0  0  0  0  0  0
  143.5150   71.6290  219.2720 C   0  0  0  0  0  0  0  0  0  0  0  0
  144.6360   71.9810  220.0220 C   0  0  0  0  0  0  0  0  0  0  0  0
  144.9140   73.3080  220.3110 C   0  0  0  0  0  0  0  0  0  0  0  0
  146.3360   73.7340  221.2610 Cl  0  0  0  0  0  0  0  0  0  0  0  0
  144.0470   74.2870  219.8360 C   0  0  0  0  0  0  0  0  0  0  0  0
  140.1190   71.6850  223.3500 C   0  0  0  0  0  0  0  0  0  0  0  0
  139.3250   70.5500  223.2660 C   0  0  0  0  0  0  0  0  0  0  0  0
  139.1330   69.7540  224.3690 C   0  0  0  0  0  0  0  0  0  0  0  0
  139.7320   70.0910  225.5590 C   0  0  0  0  0  0  0  0  0  0  0  0
  139.5450   69.3000  226.6740 C   0  0  0  0  0  0  0  0  0  0  0  0
  140.1460   69.6360  227.8720 C   0  0  0  0  0  0  0  0  0  0  0  0
  139.9510   68.8530  228.9450 F   0  0  0  0  0  0  0  0  0  0  0  0
  140.9350   70.7660  227.9520 C   0  0  0  0  0  0  0  0  0  0  0  0
  141.1160   71.5540  226.8270 C   0  0  0  0  0  0  0  0  0  0  0  0
  140.5170   71.2210  225.6320 C   0  0  0  0  0  0  0  0  0  0  0  0
  140.6940   71.9910  224.5270 N   0  0  0  0  0  0  0  0  0  0  0  0
  138.8160   73.9670  222.7650 H   0  0  0  0  0  0  0  0  0  0  0  0
  139.6781   73.8379  219.9630 H   0  0  0  0  0  0  0  0  0  0  0  0
  138.8879   75.2394  220.7907 H   0  0  0  0  0  0  0  0  0  0  0  0
  140.6408   77.4714  218.6733 H   0  0  0  0  0  0  0  0  0  0  0  0
  141.4797   77.8995  220.1371 H   0  0  0  0  0  0  0  0  0  0  0  0
  143.7078   77.3633  219.0954 H   0  0  0  0  0  0  0  0  0  0  0  0
  143.7670   78.5940  217.4700 H   0  0  0  0  0  0  0  0  0  0  0  0
  142.1566   76.1200  216.7660 H   0  0  0  0  0  0  0  0  0  0  0  0
  143.7196   75.6048  217.4148 H   0  0  0  0  0  0  0  0  0  0  0  0
  141.2159   74.4650  218.0450 H   0  0  0  0  0  0  0  0  0  0  0  0
  141.7589   72.3349  218.2047 H   0  0  0  0  0  0  0  0  0  0  0  0
  143.3155   70.5693  219.0545 H   0  0  0  0  0  0  0  0  0  0  0  0
  145.3103   71.1938  220.3902 H   0  0  0  0  0  0  0  0  0  0  0  0
  144.2439   75.3476  220.0516 H   0  0  0  0  0  0  0  0  0  0  0  0
  138.8468   70.2863  222.3111 H   0  0  0  0  0  0  0  0  0  0  0  0
  138.5046   68.8538  224.3002 H   0  0  0  0  0  0  0  0  0  0  0  0
  138.9161   68.3999  226.6090 H   0  0  0  0  0  0  0  0  0  0  0  0
  141.4167   71.0389  228.9025 H   0  0  0  0  0  0  0  0  0  0  0  0
  141.7444   72.4547  226.8886 H   0  0  0  0  0  0  0  0  0  0  0  0
  1  2  2  0
  2  3  1  0
  3  4  1  0
  4  5  1  0
  5  6  2  0
  5  7  1  0
  7  8  1  0
  8  9  1  0
  9 10  1  0
  9 11  1  0
 11 12  1  0
 12 13  1  0
 13 14  2  0
 14 15  1  0
 15 16  2  0
 16 17  1  0
 17 18  1  0
 17 19  2  0
  2 20  1  0
 20 21  2  0
 21 22  1  0
 22 23  2  0
 23 24  1  0
 24 25  2  0
 25 26  1  0
 25 27  1  0
 27 28  2  0
 28 29  1  0
 29 30  2  0
 12  7  1  0
 19 13  1  0
 30 20  1  0
 29 23  1  0
  3 31  1  0
  4 32  1  0
  4 33  1  0
  8 34  1  0
  8 35  1  0
  9 36  1  1
 10 37  1  0
 11 38  1  0
 11 39  1  0
 12 40  1  6
 14 41  1  0
 15 42  1  0
 16 43  1  0
 19 44  1  0
 21 45  1  0
 22 46  1  0
 24 47  1  0
 27 48  1  0
 28 49  1  0
M  END
>  <smiles>  (39) 
O=C(NCC(=O)N1C[C@H](O)C[C@H]1c1cccc(Cl)c1)c1ccc2cc(F)ccc2n1

>  <score_type>  (39) 
oracle

>  <origin>  (39) 
autodockgpu

>  <m_score__min__energy>  (39) 
-8.7799999999999994

>  <m_primary>  (39) 
energy

>  <rmsd>  (39) 
2.2049142139993863

>  <m_score__min__rmsd>  (39) 
2.2049142139993863

>  <meeko>  (39) 
{"free_energy": -8.33, "intermolecular_energy": -10.12, "internal_energy": -1.79, "cluster_size": 29, "cluster_id": 2, "rank_in_cluster": 25}

>  <energy>  (39) 
-8.12

>  <cluster_rmsd>  (39) 
0.45

>  <cluster>  (39) 
2

$$$$

     RDKit          3D

 49 52  0  0  0  0  0  0  0  0999 V2000
  140.3100   73.9080  222.3380 O   0  0  0  0  0  0  0  0  0  0  0  0
  140.3060   72.6790  222.0770 C   0  0  0  0  0  0  0  0  0  0  0  0
  140.4000   72.1860  220.7330 N   0  0  0  0  0  0  0  0  0  0  0  0
  140.5010   73.1680  219.6870 C   0  0  0  0  0  0  0  0  0  0  0  0
  141.7510   72.9680  218.8700 C   0  0  0  0  0  0  0  0  0  0  0  0
  141.6510   72.7310  217.6380 O   0  0  0  0  0  0  0  0  0  0  0  0
  142.9940   73.0600  219.5550 N   0  0  0  0  0  0  0  0  0  0  0  0
  144.0330   72.0490  219.6860 C   0  0  0  0  0  0  0  0  0  0  0  0
  145.2900   72.9000  219.6390 C   0  0  2  0  0  0  0  0  0  0  0  0
  146.3760   72.2310  220.1970 O   0  0  0  0  0  0  0  0  0  0  0  0
  144.8790   74.0860  220.4870 C   0  0  0  0  0  0  0  0  0  0  0  0
  143.4120   74.2580  220.2570 C   0  0  1  0  0  0  0  0  0  0  0  0
  143.1110   75.4970  219.4660 C   0  0  0  0  0  0  0  0  0  0  0  0
  142.4690   76.5500  220.0830 C   0  0  0  0  0  0  0  0  0  0  0  0
  142.2030   77.6880  219.3260 C   0  0  0  0  0  0  0  0  0  0  0  0
  142.5770   77.7520  217.9850 C   0  0  0  0  0  0  0  0  0  0  0  0
  143.2220   76.6890  217.3730 C   0  0  0  0  0  0  0  0  0  0  0  0
  143.6870   76.7880  215.6760 Cl  0  0  0  0  0  0  0  0  0  0  0  0
  143.4890   75.5510  218.1260 C   0  0  0  0  0  0  0  0  0  0  0  0
  140.2010   71.6880  223.1610 C   0  0  0  0  0  0  0  0  0  0  0  0
  139.5820   70.4750  222.9000 C   0  0  0  0  0  0  0  0  0  0  0  0
  139.4670   69.5270  223.8880 C   0  0  0  0  0  0  0  0  0  0  0  0
  139.9710   69.7900  225.1390 C   0  0  0  0  0  0  0  0  0  0  0  0
  139.8610   68.8460  226.1390 C   0  0  0  0  0  0  0  0  0  0  0  0
  140.3660   69.1080  227.3990 C   0  0  0  0  0  0  0  0  0  0  0  0
  140.2490   68.1760  228.3590 F   0  0  0  0  0  0  0  0  0  0  0  0
  140.9820   70.3160  227.6560 C   0  0  0  0  0  0  0  0  0  0  0  0
  141.0870   71.2570  226.6440 C   0  0  0  0  0  0  0  0  0  0  0  0
  140.5830   70.9990  225.3880 C   0  0  0  0  0  0  0  0  0  0  0  0
  140.6860   71.9190  224.3940 N   0  0  0  0  0  0  0  0  0  0  0  0
  140.3950   71.1630  220.5270 H   0  0  0  0  0  0  0  0  0  0  0  0
  139.6243   73.0818  219.0282 H   0  0  0  0  0  0  0  0  0  0  0  0
  140.5429   74.1655  220.1489 H   0  0  0  0  0  0  0  0  0  0  0  0
  143.9493   71.5079  220.6401 H   0  0  0  0  0  0  0  0  0  0  0  0
  143.9940   71.2632  218.9173 H   0  0  0  0  0  0  0  0  0  0  0  0
  145.6170   73.1644  218.6226 H   0  0  0  0  0  0  0  0  0  0  0  0
  146.0150   71.5860  220.8580 H   0  0  0  0  0  0  0  0  0  0  0  0
  145.0798   73.8857  221.5498 H   0  0  0  0  0  0  0  0  0  0  0  0
  145.4414   74.9922  220.2178 H   0  0  0  0  0  0  0  0  0  0  0  0
  142.8678   74.3856  221.2044 H   0  0  0  0  0  0  0  0  0  0  0  0
  142.1758   76.4927  221.1416 H   0  0  0  0  0  0  0  0  0  0  0  0
  141.6929   78.5446  219.7908 H   0  0  0  0  0  0  0  0  0  0  0  0
  142.3570   78.6596  217.4038 H   0  0  0  0  0  0  0  0  0  0  0  0
  143.9989   74.6930  217.6636 H   0  0  0  0  0  0  0  0  0  0  0  0
  139.1808   70.2705  221.8964 H   0  0  0  0  0  0  0  0  0  0  0  0
  138.9755   68.5653  223.6792 H   0  0  0  0  0  0  0  0  0  0  0  0
  139.3706   67.8831  225.9334 H   0  0  0  0  0  0  0  0  0  0  0  0
  141.3864   70.5302  228.6563 H   0  0  0  0  0  0  0  0  0  0  0  0
  141.5781   72.2204  226.8458 H   0  0  0  0  0  0  0  0  0  0  0  0
  1  2  2  0
  2  3  1  0
  3  4  1  0
  4  5  1  0
  5  6  2  0
  5  7  1  0
  7  8  1  0
  8  9  1  0
  9 10  1  0
  9 11  1  0
 11 12  1  0
 12 13  1  0
 13 14  2  0
 14 15  1  0
 15 16  2  0
 16 17  1  0
 17 18  1  0
 17 19  2  0
  2 20  1  0
 20 21  2  0
 21 22  1  0
 22 23  2  0
 23 24  1  0
 24 25  2  0
 25 26  1  0
 25 27  1  0
 27 28  2  0
 28 29  1  0
 29 30  2  0
 12  7  1  0
 19 13  1  0
 30 20  1  0
 29 23  1  0
  3 31  1  0
  4 32  1  0
  4 33  1  0
  8 34  1  0
  8 35  1  0
  9 36  1  6
 10 37  1  0
 11 38  1  0
 11 39  1  0
 12 40  1  1
 14 41  1  0
 15 42  1  0
 16 43  1  0
 19 44  1  0
 21 45  1  0
 22 46  1  0
 24 47  1  0
 27 48  1  0
 28 49  1  0
M  END
>  <smiles>  (40) 
O=C(NCC(=O)N1C[C@H](O)C[C@H]1c1cccc(Cl)c1)c1ccc2cc(F)ccc2n1

>  <score_type>  (40) 
oracle

>  <origin>  (40) 
autodockgpu

>  <m_score__min__energy>  (40) 
-8.7799999999999994

>  <m_primary>  (40) 
energy

>  <rmsd>  (40) 
3.504157123721437

>  <m_score__min__rmsd>  (40) 
3.504157123721437

>  <meeko>  (40) 
{"free_energy": -8.25, "intermolecular_energy": -10.04, "internal_energy": -1.55, "cluster_size": 11, "cluster_id": 1, "rank_in_cluster": 9}

>  <energy>  (40) 
-8.01

>  <cluster_rmsd>  (40) 
0.49

>  <cluster>  (40) 
2

$$$$

     RDKit          3D

 49 52  0  0  0  0  0  0  0  0999 V2000
  140.6970   71.7440  221.0590 O   0  0  0  0  0  0  0  0  0  0  0  0
  140.2890   72.2660  222.1260 C   0  0  0  0  0  0  0  0  0  0  0  0
  139.9110   73.6480  222.2020 N   0  0  0  0  0  0  0  0  0  0  0  0
  140.0190   74.4170  220.9910 C   0  0  0  0  0  0  0  0  0  0  0  0
  141.0640   75.4960  221.1230 C   0  0  0  0  0  0  0  0  0  0  0  0
  141.4400   75.8540  222.2690 O   0  0  0  0  0  0  0  0  0  0  0  0
  141.5730   76.0540  219.9180 N   0  0  0  0  0  0  0  0  0  0  0  0
  141.4750   77.4280  219.4450 C   0  0  0  0  0  0  0  0  0  0  0  0
  142.8190   77.6070  218.7600 C   0  0  2  0  0  0  0  0  0  0  0  0
  142.7850   78.6580  217.8470 O   0  0  0  0  0  0  0  0  0  0  0  0
  142.9770   76.2730  218.0590 C   0  0  0  0  0  0  0  0  0  0  0  0
  142.3050   75.2710  218.9420 C   0  0  1  0  0  0  0  0  0  0  0  0
  143.2920   74.3520  219.5970 C   0  0  0  0  0  0  0  0  0  0  0  0
  144.3850   74.8880  220.2450 C   0  0  0  0  0  0  0  0  0  0  0  0
  145.2850   74.0120  220.8450 C   0  0  0  0  0  0  0  0  0  0  0  0
  145.0810   72.6350  220.7870 C   0  0  0  0  0  0  0  0  0  0  0  0
  143.9800   72.1030  220.1330 C   0  0  0  0  0  0  0  0  0  0  0  0
  143.7390   70.3590  220.0700 Cl  0  0  0  0  0  0  0  0  0  0  0  0
  143.0790   72.9760  219.5330 C   0  0  0  0  0  0  0  0  0  0  0  0
  140.1850   71.4630  223.3560 C   0  0  0  0  0  0  0  0  0  0  0  0
  139.5620   70.2240  223.2940 C   0  0  0  0  0  0  0  0  0  0  0  0
  139.4470   69.4480  224.4210 C   0  0  0  0  0  0  0  0  0  0  0  0
  139.9540   69.9070  225.6130 C   0  0  0  0  0  0  0  0  0  0  0  0
  139.8440   69.1360  226.7520 C   0  0  0  0  0  0  0  0  0  0  0  0
  140.3520   69.5950  227.9520 C   0  0  0  0  0  0  0  0  0  0  0  0
  140.2350   68.8300  229.0500 F   0  0  0  0  0  0  0  0  0  0  0  0
  140.9720   70.8280  228.0110 C   0  0  0  0  0  0  0  0  0  0  0  0
  141.0770   71.5940  226.8610 C   0  0  0  0  0  0  0  0  0  0  0  0
  140.5700   71.1390  225.6640 C   0  0  0  0  0  0  0  0  0  0  0  0
  140.6730   71.8870  224.5350 N   0  0  0  0  0  0  0  0  0  0  0  0
  139.5740   74.0720  223.0940 H   0  0  0  0  0  0  0  0  0  0  0  0
  140.2971   73.7472  220.1639 H   0  0  0  0  0  0  0  0  0  0  0  0
  139.0479   74.8942  220.7931 H   0  0  0  0  0  0  0  0  0  0  0  0
  140.6428   77.5509  218.7362 H   0  0  0  0  0  0  0  0  0  0  0  0
  141.2737   78.1629  220.2383 H   0  0  0  0  0  0  0  0  0  0  0  0
  143.6437   77.8565  219.4438 H   0  0  0  0  0  0  0  0  0  0  0  0
  143.7060   78.7750  217.5000 H   0  0  0  0  0  0  0  0  0  0  0  0
  142.4938   76.2990  217.0711 H   0  0  0  0  0  0  0  0  0  0  0  0
  144.0355   76.0237  217.8936 H   0  0  0  0  0  0  0  0  0  0  0  0
  141.6386   74.6107  218.3677 H   0  0  0  0  0  0  0  0  0  0  0  0
  144.5410   75.9761  220.2865 H   0  0  0  0  0  0  0  0  0  0  0  0
  146.1656   74.4107  221.3699 H   0  0  0  0  0  0  0  0  0  0  0  0
  145.8043   71.9596  221.2673 H   0  0  0  0  0  0  0  0  0  0  0  0
  142.1974   72.5803  219.0074 H   0  0  0  0  0  0  0  0  0  0  0  0
  139.1583   69.8619  222.3370 H   0  0  0  0  0  0  0  0  0  0  0  0
  138.9529   68.4665  224.3701 H   0  0  0  0  0  0  0  0  0  0  0  0
  139.3508   68.1539  226.7045 H   0  0  0  0  0  0  0  0  0  0  0  0
  141.3791   71.1988  228.9632 H   0  0  0  0  0  0  0  0  0  0  0  0
  141.5706   72.5761  226.9046 H   0  0  0  0  0  0  0  0  0  0  0  0
  1  2  2  0
  2  3  1  0
  3  4  1  0
  4  5  1  0
  5  6  2  0
  5  7  1  0
  7  8  1  0
  8  9  1  0
  9 10  1  0
  9 11  1  0
 11 12  1  0
 12 13  1  0
 13 14  2  0
 14 15  1  0
 15 16  2  0
 16 17  1  0
 17 18  1  0
 17 19  2  0
  2 20  1  0
 20 21  2  0
 21 22  1  0
 22 23  2  0
 23 24  1  0
 24 25  2  0
 25 26  1  0
 25 27  1  0
 27 28  2  0
 28 29  1  0
 29 30  2  0
 12  7  1  0
 19 13  1  0
 30 20  1  0
 29 23  1  0
  3 31  1  0
  4 32  1  0
  4 33  1  0
  8 34  1  0
  8 35  1  0
  9 36  1  1
 10 37  1  0
 11 38  1  0
 11 39  1  0
 12 40  1  6
 14 41  1  0
 15 42  1  0
 16 43  1  0
 19 44  1  0
 21 45  1  0
 22 46  1  0
 24 47  1  0
 27 48  1  0
 28 49  1  0
M  END
>  <smiles>  (41) 
O=C(NCC(=O)N1C[C@H](O)C[C@H]1c1cccc(Cl)c1)c1ccc2cc(F)ccc2n1

>  <score_type>  (41) 
oracle

>  <origin>  (41) 
autodockgpu

>  <m_score__min__energy>  (41) 
-8.7799999999999994

>  <m_primary>  (41) 
energy

>  <rmsd>  (41) 
2.1941956872347883

>  <m_score__min__rmsd>  (41) 
2.1941956872347883

>  <meeko>  (41) 
{"free_energy": -8.59, "intermolecular_energy": -10.38, "internal_energy": -2.0, "cluster_size": 29, "cluster_id": 2, "rank_in_cluster": 6}

>  <energy>  (41) 
-8.51

>  <cluster_rmsd>  (41) 
0.0

>  <cluster>  (41) 
3

$$$$

     RDKit          3D

 49 52  0  0  0  0  0  0  0  0999 V2000
  140.2600   72.0190  220.7840 O   0  0  0  0  0  0  0  0  0  0  0  0
  140.0300   72.4770  221.9310 C   0  0  0  0  0  0  0  0  0  0  0  0
  139.7700   73.8700  222.1560 N   0  0  0  0  0  0  0  0  0  0  0  0
  139.7830   74.7280  221.0010 C   0  0  0  0  0  0  0  0  0  0  0  0
  140.8870   75.7490  221.0940 C   0  0  0  0  0  0  0  0  0  0  0  0
  141.3010   76.1090  222.2260 O   0  0  0  0  0  0  0  0  0  0  0  0
  141.4060   76.2540  219.8700 N   0  0  0  0  0  0  0  0  0  0  0  0
  141.3580   77.6170  219.3600 C   0  0  0  0  0  0  0  0  0  0  0  0
  142.7020   77.7240  218.6590 C   0  0  2  0  0  0  0  0  0  0  0  0
  142.7010   78.7500  217.7170 O   0  0  0  0  0  0  0  0  0  0  0  0
  142.8000   76.3660  217.9940 C   0  0  0  0  0  0  0  0  0  0  0  0
  142.0980   75.4160  218.9100 C   0  0  1  0  0  0  0  0  0  0  0  0
  143.0550   74.4770  219.5820 C   0  0  0  0  0  0  0  0  0  0  0  0
  144.1540   74.9890  220.2380 C   0  0  0  0  0  0  0  0  0  0  0  0
  145.0240   74.0950  220.8530 C   0  0  0  0  0  0  0  0  0  0  0  0
  144.7860   72.7230  220.8030 C   0  0  0  0  0  0  0  0  0  0  0  0
  143.6790   72.2150  220.1410 C   0  0  0  0  0  0  0  0  0  0  0  0
  143.3930   70.4770  220.0870 Cl  0  0  0  0  0  0  0  0  0  0  0  0
  142.8060   73.1060  219.5250 C   0  0  0  0  0  0  0  0  0  0  0  0
  140.0200   71.5840  223.1010 C   0  0  0  0  0  0  0  0  0  0  0  0
  139.5650   70.2830  222.9450 C   0  0  0  0  0  0  0  0  0  0  0  0
  139.5420   69.4220  224.0150 C   0  0  0  0  0  0  0  0  0  0  0  0
  139.9740   69.8600  225.2450 C   0  0  0  0  0  0  0  0  0  0  0  0
  139.9550   69.0040  226.3270 C   0  0  0  0  0  0  0  0  0  0  0  0
  140.3880   69.4410  227.5640 C   0  0  0  0  0  0  0  0  0  0  0  0
  140.3620   68.5930  228.6050 F   0  0  0  0  0  0  0  0  0  0  0  0
  140.8400   70.7370  227.7170 C   0  0  0  0  0  0  0  0  0  0  0  0
  140.8550   71.5880  226.6230 C   0  0  0  0  0  0  0  0  0  0  0  0
  140.4230   71.1540  225.3890 C   0  0  0  0  0  0  0  0  0  0  0  0
  140.4370   71.9860  224.3150 N   0  0  0  0  0  0  0  0  0  0  0  0
  139.5800   74.2410  223.1130 H   0  0  0  0  0  0  0  0  0  0  0  0
  139.9358   74.1152  220.1004 H   0  0  0  0  0  0  0  0  0  0  0  0
  138.8208   75.2586  220.9501 H   0  0  0  0  0  0  0  0  0  0  0  0
  140.5248   77.7534  218.6549 H   0  0  0  0  0  0  0  0  0  0  0  0
  141.1933   78.3807  220.1344 H   0  0  0  0  0  0  0  0  0  0  0  0
  143.5423   77.9596  219.3286 H   0  0  0  0  0  0  0  0  0  0  0  0
  143.6460   78.9260  217.4740 H   0  0  0  0  0  0  0  0  0  0  0  0
  142.3084   76.3843  217.0102 H   0  0  0  0  0  0  0  0  0  0  0  0
  143.8462   76.0704  217.8263 H   0  0  0  0  0  0  0  0  0  0  0  0
  141.4009   74.7666  218.3602 H   0  0  0  0  0  0  0  0  0  0  0  0
  144.3375   76.0730  220.2740 H   0  0  0  0  0  0  0  0  0  0  0  0
  145.9091   74.4749  221.3843 H   0  0  0  0  0  0  0  0  0  0  0  0
  145.4866   72.0330  221.2959 H   0  0  0  0  0  0  0  0  0  0  0  0
  141.9198   72.7293  218.9932 H   0  0  0  0  0  0  0  0  0  0  0  0
  139.2206   69.9388  221.9587 H   0  0  0  0  0  0  0  0  0  0  0  0
  139.1810   68.3906  223.8891 H   0  0  0  0  0  0  0  0  0  0  0  0
  139.5945   67.9720  226.2045 H   0  0  0  0  0  0  0  0  0  0  0  0
  141.1854   71.0912  228.6995 H   0  0  0  0  0  0  0  0  0  0  0  0
  141.2155   72.6205  226.7414 H   0  0  0  0  0  0  0  0  0  0  0  0
  1  2  2  0
  2  3  1  0
  3  4  1  0
  4  5  1  0
  5  6  2  0
  5  7  1  0
  7  8  1  0
  8  9  1  0
  9 10  1  0
  9 11  1  0
 11 12  1  0
 12 13  1  0
 13 14  2  0
 14 15  1  0
 15 16  2  0
 16 17  1  0
 17 18  1  0
 17 19  2  0
  2 20  1  0
 20 21  2  0
 21 22  1  0
 22 23  2  0
 23 24  1  0
 24 25  2  0
 25 26  1  0
 25 27  1  0
 27 28  2  0
 28 29  1  0
 29 30  2  0
 12  7  1  0
 19 13  1  0
 30 20  1  0
 29 23  1  0
  3 31  1  0
  4 32  1  0
  4 33  1  0
  8 34  1  0
  8 35  1  0
  9 36  1  1
 10 37  1  0
 11 38  1  0
 11 39  1  0
 12 40  1  6
 14 41  1  0
 15 42  1  0
 16 43  1  0
 19 44  1  0
 21 45  1  0
 22 46  1  0
 24 47  1  0
 27 48  1  0
 28 49  1  0
M  END
>  <smiles>  (42) 
O=C(NCC(=O)N1C[C@H](O)C[C@H]1c1cccc(Cl)c1)c1ccc2cc(F)ccc2n1

>  <score_type>  (42) 
oracle

>  <origin>  (42) 
autodockgpu

>  <m_score__min__energy>  (42) 
-8.7799999999999994

>  <m_primary>  (42) 
energy

>  <rmsd>  (42) 
2.147139145259697

>  <m_score__min__rmsd>  (42) 
2.147139145259697

>  <meeko>  (42) 
{"free_energy": -8.12, "intermolecular_energy": -9.91, "internal_energy": -2.17, "cluster_size": 29, "cluster_id": 2, "rank_in_cluster": 28}

>  <energy>  (42) 
-8.28

>  <cluster_rmsd>  (42) 
1.0

>  <cluster>  (42) 
3

$$$$

     RDKit          3D

 49 52  0  0  0  0  0  0  0  0999 V2000
  140.3130   71.6520  221.0960 O   0  0  0  0  0  0  0  0  0  0  0  0
  140.0580   72.1770  222.2080 C   0  0  0  0  0  0  0  0  0  0  0  0
  139.7840   73.5780  222.3450 N   0  0  0  0  0  0  0  0  0  0  0  0
  139.8140   74.3650  221.1410 C   0  0  0  0  0  0  0  0  0  0  0  0
  139.7310   75.8380  221.4510 C   0  0  0  0  0  0  0  0  0  0  0  0
  139.7280   76.2170  222.6500 O   0  0  0  0  0  0  0  0  0  0  0  0
  139.6600   76.7290  220.3450 N   0  0  0  0  0  0  0  0  0  0  0  0
  138.7260   76.7130  219.2270 C   0  0  0  0  0  0  0  0  0  0  0  0
  138.5240   78.1980  218.9820 C   0  0  2  0  0  0  0  0  0  0  0  0
  138.0460   78.4380  217.6960 O   0  0  0  0  0  0  0  0  0  0  0  0
  139.9350   78.7230  219.1520 C   0  0  0  0  0  0  0  0  0  0  0  0
  140.5720   77.8440  220.1790 C   0  0  1  0  0  0  0  0  0  0  0  0
  140.8010   78.5680  221.4720 C   0  0  0  0  0  0  0  0  0  0  0  0
  142.0820   78.6670  221.9720 C   0  0  0  0  0  0  0  0  0  0  0  0
  142.2660   79.3460  223.1720 C   0  0  0  0  0  0  0  0  0  0  0  0
  141.1820   79.9060  223.8450 C   0  0  0  0  0  0  0  0  0  0  0  0
  139.8960   79.8020  223.3370 C   0  0  0  0  0  0  0  0  0  0  0  0
  138.5360   80.5160  224.2010 Cl  0  0  0  0  0  0  0  0  0  0  0  0
  139.7090   79.1240  222.1360 C   0  0  0  0  0  0  0  0  0  0  0  0
  140.0320   71.3550  223.4300 C   0  0  0  0  0  0  0  0  0  0  0  0
  139.5470   70.0570  223.3520 C   0  0  0  0  0  0  0  0  0  0  0  0
  139.5080   69.2620  224.4720 C   0  0  0  0  0  0  0  0  0  0  0  0
  139.9540   69.7620  225.6720 C   0  0  0  0  0  0  0  0  0  0  0  0
  139.9190   68.9730  226.8030 C   0  0  0  0  0  0  0  0  0  0  0  0
  140.3650   69.4730  228.0120 C   0  0  0  0  0  0  0  0  0  0  0  0
  140.3230   68.6890  229.1020 F   0  0  0  0  0  0  0  0  0  0  0  0
  140.8470   70.7650  228.0860 C   0  0  0  0  0  0  0  0  0  0  0  0
  140.8770   71.5490  226.9440 C   0  0  0  0  0  0  0  0  0  0  0  0
  140.4320   71.0530  225.7390 C   0  0  0  0  0  0  0  0  0  0  0  0
  140.4610   71.8190  224.6170 N   0  0  0  0  0  0  0  0  0  0  0  0
  139.5730   74.0040  223.2750 H   0  0  0  0  0  0  0  0  0  0  0  0
  140.7526   74.1636  220.6039 H   0  0  0  0  0  0  0  0  0  0  0  0
  138.9469   74.0895  220.5228 H   0  0  0  0  0  0  0  0  0  0  0  0
  139.1604   76.2158  218.3472 H   0  0  0  0  0  0  0  0  0  0  0  0
  137.7962   76.1602  219.4265 H   0  0  0  0  0  0  0  0  0  0  0  0
  137.7853   78.6683  219.6476 H   0  0  0  0  0  0  0  0  0  0  0  0
  138.8300   78.6340  217.1240 H   0  0  0  0  0  0  0  0  0  0  0  0
  140.4842   78.6619  218.2009 H   0  0  0  0  0  0  0  0  0  0  0  0
  139.9411   79.7788  219.4608 H   0  0  0  0  0  0  0  0  0  0  0  0
  141.5700   77.5100  219.8589 H   0  0  0  0  0  0  0  0  0  0  0  0
  142.9340   78.2218  221.4374 H   0  0  0  0  0  0  0  0  0  0  0  0
  143.2774   79.4418  223.5939 H   0  0  0  0  0  0  0  0  0  0  0  0
  141.3489   80.4383  224.7931 H   0  0  0  0  0  0  0  0  0  0  0  0
  138.6992   79.0269  221.7108 H   0  0  0  0  0  0  0  0  0  0  0  0
  139.1919   69.6626  222.3885 H   0  0  0  0  0  0  0  0  0  0  0  0
  139.1229   68.2336  224.4087 H   0  0  0  0  0  0  0  0  0  0  0  0
  139.5354   67.9438  226.7426 H   0  0  0  0  0  0  0  0  0  0  0  0
  141.2045   71.1688  229.0447 H   0  0  0  0  0  0  0  0  0  0  0  0
  141.2603   72.5785  227.0006 H   0  0  0  0  0  0  0  0  0  0  0  0
  1  2  2  0
  2  3  1  0
  3  4  1  0
  4  5  1  0
  5  6  2  0
  5  7  1  0
  7  8  1  0
  8  9  1  0
  9 10  1  0
  9 11  1  0
 11 12  1  0
 12 13  1  0
 13 14  2  0
 14 15  1  0
 15 16  2  0
 16 17  1  0
 17 18  1  0
 17 19  2  0
  2 20  1  0
 20 21  2  0
 21 22  1  0
 22 23  2  0
 23 24  1  0
 24 25  2  0
 25 26  1  0
 25 27  1  0
 27 28  2  0
 28 29  1  0
 29 30  2  0
 12  7  1  0
 19 13  1  0
 30 20  1  0
 29 23  1  0
  3 31  1  0
  4 32  1  0
  4 33  1  0
  8 34  1  0
  8 35  1  0
  9 36  1  1
 10 37  1  0
 11 38  1  0
 11 39  1  0
 12 40  1  6
 14 41  1  0
 15 42  1  0
 16 43  1  0
 19 44  1  0
 21 45  1  0
 22 46  1  0
 24 47  1  0
 27 48  1  0
 28 49  1  0
M  END
>  <smiles>  (43) 
O=C(NCC(=O)N1C[C@H](O)C[C@H]1c1cccc(Cl)c1)c1ccc2cc(F)ccc2n1

>  <score_type>  (43) 
oracle

>  <origin>  (43) 
autodockgpu

>  <m_score__min__energy>  (43) 
-8.7799999999999994

>  <m_primary>  (43) 
energy

>  <rmsd>  (43) 
1.6197535718479532

>  <m_score__min__rmsd>  (43) 
1.6197535718479532

>  <meeko>  (43) 
{"free_energy": -7.79, "intermolecular_energy": -9.58, "internal_energy": -1.8, "cluster_size": 4, "cluster_id": 3, "rank_in_cluster": 4}

>  <energy>  (43) 
-8.18

>  <cluster_rmsd>  (43) 
1.83

>  <cluster>  (43) 
3

$$$$

     RDKit          3D

 49 52  0  0  0  0  0  0  0  0999 V2000
  141.1260   72.4830  221.3600 O   0  0  0  0  0  0  0  0  0  0  0  0
  140.3130   72.7170  222.2890 C   0  0  0  0  0  0  0  0  0  0  0  0
  139.4750   73.8810  222.2920 N   0  0  0  0  0  0  0  0  0  0  0  0
  139.6050   74.7780  221.1760 C   0  0  0  0  0  0  0  0  0  0  0  0
  140.6180   75.8570  221.4580 C   0  0  0  0  0  0  0  0  0  0  0  0
  141.0360   76.0170  222.6340 O   0  0  0  0  0  0  0  0  0  0  0  0
  141.0480   76.6460  220.3570 N   0  0  0  0  0  0  0  0  0  0  0  0
  140.7140   76.4920  218.9470 C   0  0  0  0  0  0  0  0  0  0  0  0
  140.6410   77.9400  218.4950 C   0  0  2  0  0  0  0  0  0  0  0  0
  140.7890   78.0470  217.1150 O   0  0  0  0  0  0  0  0  0  0  0  0
  141.8250   78.5410  219.2250 C   0  0  0  0  0  0  0  0  0  0  0  0
  141.9360   77.7820  220.5080 C   0  0  1  0  0  0  0  0  0  0  0  0
  141.5590   78.6250  221.6900 C   0  0  0  0  0  0  0  0  0  0  0  0
  142.5500   79.0900  222.5290 C   0  0  0  0  0  0  0  0  0  0  0  0
  142.1730   79.8710  223.6180 C   0  0  0  0  0  0  0  0  0  0  0  0
  140.8310   80.1680  223.8480 C   0  0  0  0  0  0  0  0  0  0  0  0
  139.8410   79.6960  223.0000 C   0  0  0  0  0  0  0  0  0  0  0  0
  138.1490   80.0820  223.3050 Cl  0  0  0  0  0  0  0  0  0  0  0  0
  140.2150   78.9160  221.9100 C   0  0  0  0  0  0  0  0  0  0  0  0
  140.1940   71.7870  223.4240 C   0  0  0  0  0  0  0  0  0  0  0  0
  139.5550   70.5710  223.2280 C   0  0  0  0  0  0  0  0  0  0  0  0
  139.4260   69.6790  224.2650 C   0  0  0  0  0  0  0  0  0  0  0  0
  139.9360   70.0010  225.5010 C   0  0  0  0  0  0  0  0  0  0  0  0
  139.8110   69.1130  226.5500 C   0  0  0  0  0  0  0  0  0  0  0  0
  140.3220   69.4330  227.7930 C   0  0  0  0  0  0  0  0  0  0  0  0
  140.1910   68.5560  228.8020 F   0  0  0  0  0  0  0  0  0  0  0  0
  140.9570   70.6440  227.9850 C   0  0  0  0  0  0  0  0  0  0  0  0
  141.0760   71.5280  226.9250 C   0  0  0  0  0  0  0  0  0  0  0  0
  140.5670   71.2110  225.6850 C   0  0  0  0  0  0  0  0  0  0  0  0
  140.6840   72.0750  224.6430 N   0  0  0  0  0  0  0  0  0  0  0  0
  138.8030   74.0650  223.0700 H   0  0  0  0  0  0  0  0  0  0  0  0
  139.9260   74.2069  220.2924 H   0  0  0  0  0  0  0  0  0  0  0  0
  138.6298   75.2545  220.9973 H   0  0  0  0  0  0  0  0  0  0  0  0
  141.4974   75.9409  218.4061 H   0  0  0  0  0  0  0  0  0  0  0  0
  139.7942   75.9173  218.7635 H   0  0  0  0  0  0  0  0  0  0  0  0
  139.6815   78.4321  218.7123 H   0  0  0  0  0  0  0  0  0  0  0  0
  141.6920   78.4200  216.9450 H   0  0  0  0  0  0  0  0  0  0  0  0
  142.7425   78.4242  218.6295 H   0  0  0  0  0  0  0  0  0  0  0  0
  141.6897   79.6184  219.4007 H   0  0  0  0  0  0  0  0  0  0  0  0
  142.9719   77.4660  220.7006 H   0  0  0  0  0  0  0  0  0  0  0  0
  143.6074   78.8507  222.3431 H   0  0  0  0  0  0  0  0  0  0  0  0
  142.9417   80.2574  224.3034 H   0  0  0  0  0  0  0  0  0  0  0  0
  140.5533   80.7857  224.7148 H   0  0  0  0  0  0  0  0  0  0  0  0
  139.4489   78.5292  221.2220 H   0  0  0  0  0  0  0  0  0  0  0  0
  139.1494   70.3198  222.2368 H   0  0  0  0  0  0  0  0  0  0  0  0
  138.9191   68.7155  224.1080 H   0  0  0  0  0  0  0  0  0  0  0  0
  139.3038   68.1491  226.3962 H   0  0  0  0  0  0  0  0  0  0  0  0
  141.3654   70.9049  228.9725 H   0  0  0  0  0  0  0  0  0  0  0  0
  141.5822   72.4930  227.0752 H   0  0  0  0  0  0  0  0  0  0  0  0
  1  2  2  0
  2  3  1  0
  3  4  1  0
  4  5  1  0
  5  6  2  0
  5  7  1  0
  7  8  1  0
  8  9  1  0
  9 10  1  0
  9 11  1  0
 11 12  1  0
 12 13  1  0
 13 14  2  0
 14 15  1  0
 15 16  2  0
 16 17  1  0
 17 18  1  0
 17 19  2  0
  2 20  1  0
 20 21  2  0
 21 22  1  0
 22 23  2  0
 23 24  1  0
 24 25  2  0
 25 26  1  0
 25 27  1  0
 27 28  2  0
 28 29  1  0
 29 30  2  0
 12  7  1  0
 19 13  1  0
 30 20  1  0
 29 23  1  0
  3 31  1  0
  4 32  1  0
  4 33  1  0
  8 34  1  0
  8 35  1  0
  9 36  1  1
 10 37  1  0
 11 38  1  0
 11 39  1  0
 12 40  1  1
 14 41  1  0
 15 42  1  0
 16 43  1  0
 19 44  1  0
 21 45  1  0
 22 46  1  0
 24 47  1  0
 27 48  1  0
 28 49  1  0
M  END
>  <smiles>  (44) 
O=C(NCC(=O)N1C[C@H](O)C[C@H]1c1cccc(Cl)c1)c1ccc2cc(F)ccc2n1

>  <score_type>  (44) 
oracle

>  <origin>  (44) 
autodockgpu

>  <m_score__min__energy>  (44) 
-8.7799999999999994

>  <m_primary>  (44) 
energy

>  <rmsd>  (44) 
1.6813930104165382

>  <m_score__min__rmsd>  (44) 
1.6813930104165382

>  <meeko>  (44) 
{"free_energy": -8.28, "intermolecular_energy": -10.07, "internal_energy": -1.29, "cluster_size": 4, "cluster_id": 3, "rank_in_cluster": 2}

>  <energy>  (44) 
-7.79

>  <cluster_rmsd>  (44) 
1.42

>  <cluster>  (44) 
3

$$$$

     RDKit          3D

 49 52  0  0  0  0  0  0  0  0999 V2000
  139.9300   73.6870  222.6800 O   0  0  0  0  0  0  0  0  0  0  0  0
  140.1410   72.4590  222.5160 C   0  0  0  0  0  0  0  0  0  0  0  0
  140.4080   71.8990  221.2220 N   0  0  0  0  0  0  0  0  0  0  0  0
  140.4230   72.8110  220.1110 C   0  0  0  0  0  0  0  0  0  0  0  0
  141.5780   72.5240  219.1860 C   0  0  0  0  0  0  0  0  0  0  0  0
  141.3520   72.3020  217.9680 O   0  0  0  0  0  0  0  0  0  0  0  0
  142.8800   72.5220  219.7580 N   0  0  0  0  0  0  0  0  0  0  0  0
  143.9940   71.6300  219.4690 C   0  0  0  0  0  0  0  0  0  0  0  0
  145.1770   72.5750  219.5940 C   0  0  2  0  0  0  0  0  0  0  0  0
  146.3620   71.8770  219.8140 O   0  0  0  0  0  0  0  0  0  0  0  0
  144.7820   73.3880  220.8090 C   0  0  0  0  0  0  0  0  0  0  0  0
  143.2900   73.4750  220.7710 C   0  0  1  0  0  0  0  0  0  0  0  0
  142.8190   74.8620  220.4500 C   0  0  0  0  0  0  0  0  0  0  0  0
  143.3970   75.5440  219.4000 C   0  0  0  0  0  0  0  0  0  0  0  0
  142.9400   76.8290  219.1230 C   0  0  0  0  0  0  0  0  0  0  0  0
  141.9280   77.4040  219.8900 C   0  0  0  0  0  0  0  0  0  0  0  0
  141.3520   76.7110  220.9440 C   0  0  0  0  0  0  0  0  0  0  0  0
  140.0730   77.4530  221.9040 Cl  0  0  0  0  0  0  0  0  0  0  0  0
  141.8060   75.4260  221.2230 C   0  0  0  0  0  0  0  0  0  0  0  0
  140.1220   71.5400  223.6660 C   0  0  0  0  0  0  0  0  0  0  0  0
  139.5920   70.2690  223.4970 C   0  0  0  0  0  0  0  0  0  0  0  0
  139.5580   69.3860  224.5490 C   0  0  0  0  0  0  0  0  0  0  0  0
  140.0520   69.7710  225.7720 C   0  0  0  0  0  0  0  0  0  0  0  0
  140.0220   68.8930  226.8360 C   0  0  0  0  0  0  0  0  0  0  0  0
  140.5180   69.2770  228.0670 C   0  0  0  0  0  0  0  0  0  0  0  0
  140.4800   68.4070  229.0890 F   0  0  0  0  0  0  0  0  0  0  0  0
  141.0440   70.5420  228.2320 C   0  0  0  0  0  0  0  0  0  0  0  0
  141.0690   71.4170  227.1570 C   0  0  0  0  0  0  0  0  0  0  0  0
  140.5750   71.0360  225.9290 C   0  0  0  0  0  0  0  0  0  0  0  0
  140.5990   71.8910  224.8740 N   0  0  0  0  0  0  0  0  0  0  0  0
  140.5820   70.8770  221.0970 H   0  0  0  0  0  0  0  0  0  0  0  0
  139.4814   72.7102  219.5513 H   0  0  0  0  0  0  0  0  0  0  0  0
  140.5347   73.8334  220.5010 H   0  0  0  0  0  0  0  0  0  0  0  0
  144.0541   70.8115  220.2014 H   0  0  0  0  0  0  0  0  0  0  0  0
  143.9237   71.1249  218.4943 H   0  0  0  0  0  0  0  0  0  0  0  0
  145.3705   73.1763  218.6935 H   0  0  0  0  0  0  0  0  0  0  0  0
  146.3400   71.5510  220.7490 H   0  0  0  0  0  0  0  0  0  0  0  0
  145.1134   72.8865  221.7302 H   0  0  0  0  0  0  0  0  0  0  0  0
  145.2469   74.3849  220.7987 H   0  0  0  0  0  0  0  0  0  0  0  0
  142.8470   73.2436  221.7509 H   0  0  0  0  0  0  0  0  0  0  0  0
  144.1961   75.0856  218.7988 H   0  0  0  0  0  0  0  0  0  0  0  0
  143.3817   77.3965  218.2906 H   0  0  0  0  0  0  0  0  0  0  0  0
  141.5815   78.4214  219.6560 H   0  0  0  0  0  0  0  0  0  0  0  0
  141.3654   74.8552  222.0537 H   0  0  0  0  0  0  0  0  0  0  0  0
  139.1970   69.9668  222.5158 H   0  0  0  0  0  0  0  0  0  0  0  0
  139.1384   68.3783  224.4132 H   0  0  0  0  0  0  0  0  0  0  0  0
  139.6022   67.8849  226.7038 H   0  0  0  0  0  0  0  0  0  0  0  0
  141.4406   70.8539  229.2095 H   0  0  0  0  0  0  0  0  0  0  0  0
  141.4877   72.4260  227.2861 H   0  0  0  0  0  0  0  0  0  0  0  0
  1  2  2  0
  2  3  1  0
  3  4  1  0
  4  5  1  0
  5  6  2  0
  5  7  1  0
  7  8  1  0
  8  9  1  0
  9 10  1  0
  9 11  1  0
 11 12  1  0
 12 13  1  0
 13 14  2  0
 14 15  1  0
 15 16  2  0
 16 17  1  0
 17 18  1  0
 17 19  2  0
  2 20  1  0
 20 21  2  0
 21 22  1  0
 22 23  2  0
 23 24  1  0
 24 25  2  0
 25 26  1  0
 25 27  1  0
 27 28  2  0
 28 29  1  0
 29 30  2  0
 12  7  1  0
 19 13  1  0
 30 20  1  0
 29 23  1  0
  3 31  1  0
  4 32  1  0
  4 33  1  0
  8 34  1  0
  8 35  1  0
  9 36  1  6
 10 37  1  0
 11 38  1  0
 11 39  1  0
 12 40  1  1
 14 41  1  0
 15 42  1  0
 16 43  1  0
 19 44  1  0
 21 45  1  0
 22 46  1  0
 24 47  1  0
 27 48  1  0
 28 49  1  0
M  END
>  <smiles>  (45) 
O=C(NCC(=O)N1C[C@H](O)C[C@H]1c1cccc(Cl)c1)c1ccc2cc(F)ccc2n1

>  <score_type>  (45) 
oracle

>  <origin>  (45) 
autodockgpu

>  <m_score__min__energy>  (45) 
-8.7799999999999994

>  <m_primary>  (45) 
energy

>  <rmsd>  (45) 
3.603542753108288

>  <m_score__min__rmsd>  (45) 
3.603542753108288

>  <meeko>  (45) 
{"free_energy": -8.78, "intermolecular_energy": -10.57, "internal_energy": -1.62, "cluster_size": 11, "cluster_id": 1, "rank_in_cluster": 1}

>  <energy>  (45) 
-7.79

>  <cluster_rmsd>  (45) 
0.0

>  <cluster>  (45) 
4

$$$$

     RDKit          3D

 49 52  0  0  0  0  0  0  0  0999 V2000
  141.2810   72.2370  221.5000 O   0  0  0  0  0  0  0  0  0  0  0  0
  140.3400   72.4250  222.3110 C   0  0  0  0  0  0  0  0  0  0  0  0
  139.3780   73.4750  222.1310 N   0  0  0  0  0  0  0  0  0  0  0  0
  139.5400   74.3110  220.9720 C   0  0  0  0  0  0  0  0  0  0  0  0
  140.6190   75.3400  221.1890 C   0  0  0  0  0  0  0  0  0  0  0  0
  141.1270   75.4700  222.3330 O   0  0  0  0  0  0  0  0  0  0  0  0
  141.0060   76.1190  220.0640 N   0  0  0  0  0  0  0  0  0  0  0  0
  140.7320   75.8730  218.6550 C   0  0  0  0  0  0  0  0  0  0  0  0
  140.5350   77.2870  218.1350 C   0  0  2  0  0  0  0  0  0  0  0  0
  140.7150   77.3490  216.7560 O   0  0  0  0  0  0  0  0  0  0  0  0
  141.6330   78.0300  218.8680 C   0  0  0  0  0  0  0  0  0  0  0  0
  141.7760   77.3420  220.1880 C   0  0  1  0  0  0  0  0  0  0  0  0
  141.2840   78.1940  221.3200 C   0  0  0  0  0  0  0  0  0  0  0  0
  139.9410   78.1920  221.6300 C   0  0  0  0  0  0  0  0  0  0  0  0
  139.5120   78.9910  222.6860 C   0  0  0  0  0  0  0  0  0  0  0  0
  140.4200   79.7690  223.4030 C   0  0  0  0  0  0  0  0  0  0  0  0
  141.7700   79.7650  223.0840 C   0  0  0  0  0  0  0  0  0  0  0  0
  142.9040   80.7540  224.0010 Cl  0  0  0  0  0  0  0  0  0  0  0  0
  142.2010   78.9670  222.0290 C   0  0  0  0  0  0  0  0  0  0  0  0
  140.1910   71.5580  223.4920 C   0  0  0  0  0  0  0  0  0  0  0  0
  139.5000   70.3620  223.3600 C   0  0  0  0  0  0  0  0  0  0  0  0
  139.3430   69.5290  224.4410 C   0  0  0  0  0  0  0  0  0  0  0  0
  139.8740   69.8900  225.6560 C   0  0  0  0  0  0  0  0  0  0  0  0
  139.7210   69.0610  226.7490 C   0  0  0  0  0  0  0  0  0  0  0  0
  140.2540   69.4210  227.9720 C   0  0  0  0  0  0  0  0  0  0  0  0
  140.0940   68.6010  229.0240 F   0  0  0  0  0  0  0  0  0  0  0  0
  140.9400   70.6120  228.1000 C   0  0  0  0  0  0  0  0  0  0  0  0
  141.0880   71.4370  226.9960 C   0  0  0  0  0  0  0  0  0  0  0  0
  140.5570   71.0800  225.7760 C   0  0  0  0  0  0  0  0  0  0  0  0
  140.7010   71.8860  224.6920 N   0  0  0  0  0  0  0  0  0  0  0  0
  138.6000   73.6220  222.8120 H   0  0  0  0  0  0  0  0  0  0  0  0
  139.8116   73.6823  220.1112 H   0  0  0  0  0  0  0  0  0  0  0  0
  138.5912   74.8353  220.7853 H   0  0  0  0  0  0  0  0  0  0  0  0
  141.5807   75.3775  218.1609 H   0  0  0  0  0  0  0  0  0  0  0  0
  139.8773   75.2047  218.4737 H   0  0  0  0  0  0  0  0  0  0  0  0
  139.5265   77.6926  218.3036 H   0  0  0  0  0  0  0  0  0  0  0  0
  141.5860   77.7910  216.5940 H   0  0  0  0  0  0  0  0  0  0  0  0
  142.5755   77.9761  218.3034 H   0  0  0  0  0  0  0  0  0  0  0  0
  141.3902   79.0959  218.9900 H   0  0  0  0  0  0  0  0  0  0  0  0
  142.8308   77.1376  220.4239 H   0  0  0  0  0  0  0  0  0  0  0  0
  139.2292   77.5771  221.0597 H   0  0  0  0  0  0  0  0  0  0  0  0
  138.4462   79.0088  222.9575 H   0  0  0  0  0  0  0  0  0  0  0  0
  140.0608   80.3948  224.2333 H   0  0  0  0  0  0  0  0  0  0  0  0
  143.2660   78.9464  221.7546 H   0  0  0  0  0  0  0  0  0  0  0  0
  139.0759   70.0795  222.3851 H   0  0  0  0  0  0  0  0  0  0  0  0
  138.7965   68.5803  224.3349 H   0  0  0  0  0  0  0  0  0  0  0  0
  139.1739   68.1122  226.6463 H   0  0  0  0  0  0  0  0  0  0  0  0
  141.3661   70.9043  229.0711 H   0  0  0  0  0  0  0  0  0  0  0  0
  141.6349   72.3863  227.0950 H   0  0  0  0  0  0  0  0  0  0  0  0
  1  2  2  0
  2  3  1  0
  3  4  1  0
  4  5  1  0
  5  6  2  0
  5  7  1  0
  7  8  1  0
  8  9  1  0
  9 10  1  0
  9 11  1  0
 11 12  1  0
 12 13  1  0
 13 14  2  0
 14 15  1  0
 15 16  2  0
 16 17  1  0
 17 18  1  0
 17 19  2  0
  2 20  1  0
 20 21  2  0
 21 22  1  0
 22 23  2  0
 23 24  1  0
 24 25  2  0
 25 26  1  0
 25 27  1  0
 27 28  2  0
 28 29  1  0
 29 30  2  0
 12  7  1  0
 19 13  1  0
 30 20  1  0
 29 23  1  0
  3 31  1  0
  4 32  1  0
  4 33  1  0
  8 34  1  0
  8 35  1  0
  9 36  1  6
 10 37  1  0
 11 38  1  0
 11 39  1  0
 12 40  1  1
 14 41  1  0
 15 42  1  0
 16 43  1  0
 19 44  1  0
 21 45  1  0
 22 46  1  0
 24 47  1  0
 27 48  1  0
 28 49  1  0
M  END
>  <smiles>  (46) 
O=C(NCC(=O)N1C[C@H](O)C[C@H]1c1cccc(Cl)c1)c1ccc2cc(F)ccc2n1

>  <score_type>  (46) 
oracle

>  <origin>  (46) 
autodockgpu

>  <m_score__min__energy>  (46) 
-8.7799999999999994

>  <m_primary>  (46) 
energy

>  <rmsd>  (46) 
1.3930150512224235

>  <m_score__min__rmsd>  (46) 
1.3930150512224235

>  <meeko>  (46) 
{"free_energy": -8.51, "intermolecular_energy": -10.3, "internal_energy": -1.15, "cluster_size": 4, "cluster_id": 3, "rank_in_cluster": 1}

>  <energy>  (46) 
-7.68

>  <cluster_rmsd>  (46) 
0.0

>  <cluster>  (46) 
5

$$$$

     RDKit          3D

 49 52  0  0  0  0  0  0  0  0999 V2000
  140.3330   71.6340  221.0160 O   0  0  0  0  0  0  0  0  0  0  0  0
  140.0440   72.1970  222.1000 C   0  0  0  0  0  0  0  0  0  0  0  0
  139.8070   73.6100  222.1850 N   0  0  0  0  0  0  0  0  0  0  0  0
  139.9160   74.3600  220.9630 C   0  0  0  0  0  0  0  0  0  0  0  0
  140.8010   75.5670  221.1410 C   0  0  0  0  0  0  0  0  0  0  0  0
  141.0270   76.0000  222.3000 O   0  0  0  0  0  0  0  0  0  0  0  0
  141.3400   76.1540  219.9640 N   0  0  0  0  0  0  0  0  0  0  0  0
  141.4660   77.5670  219.6320 C   0  0  0  0  0  0  0  0  0  0  0  0
  142.7830   77.5830  218.8760 C   0  0  2  0  0  0  0  0  0  0  0  0
  142.8930   78.7150  218.0730 O   0  0  0  0  0  0  0  0  0  0  0  0
  142.6630   76.3240  218.0420 C   0  0  0  0  0  0  0  0  0  0  0  0
  141.8680   75.3650  218.8680 C   0  0  1  0  0  0  0  0  0  0  0  0
  142.7070   74.2240  219.3610 C   0  0  0  0  0  0  0  0  0  0  0  0
  142.2560   72.9320  219.1880 C   0  0  0  0  0  0  0  0  0  0  0  0
  143.0550   71.8920  219.6550 C   0  0  0  0  0  0  0  0  0  0  0  0
  144.2720   72.1560  220.2790 C   0  0  0  0  0  0  0  0  0  0  0  0
  144.7180   73.4580  220.4500 C   0  0  0  0  0  0  0  0  0  0  0  0
  146.2600   73.7740  221.2420 Cl  0  0  0  0  0  0  0  0  0  0  0  0
  143.9230   74.5000  219.9840 C   0  0  0  0  0  0  0  0  0  0  0  0
  139.9360   71.4120  223.3420 C   0  0  0  0  0  0  0  0  0  0  0  0
  139.3200   70.1700  223.2950 C   0  0  0  0  0  0  0  0  0  0  0  0
  139.2030   69.4110  224.4340 C   0  0  0  0  0  0  0  0  0  0  0  0
  139.7010   69.8910  225.6220 C   0  0  0  0  0  0  0  0  0  0  0  0
  139.5880   69.1380  226.7720 C   0  0  0  0  0  0  0  0  0  0  0  0
  140.0870   69.6180  227.9680 C   0  0  0  0  0  0  0  0  0  0  0  0
  139.9680   68.8690  229.0760 F   0  0  0  0  0  0  0  0  0  0  0  0
  140.7000   70.8550  228.0100 C   0  0  0  0  0  0  0  0  0  0  0  0
  140.8080   71.6030  226.8490 C   0  0  0  0  0  0  0  0  0  0  0  0
  140.3100   71.1270  225.6570 C   0  0  0  0  0  0  0  0  0  0  0  0
  140.4150   71.8580  224.5160 N   0  0  0  0  0  0  0  0  0  0  0  0
  139.5670   74.0680  223.0920 H   0  0  0  0  0  0  0  0  0  0  0  0
  140.3435   73.7137  220.1823 H   0  0  0  0  0  0  0  0  0  0  0  0
  138.9117   74.7041  220.6749 H   0  0  0  0  0  0  0  0  0  0  0  0
  140.6341   77.9066  218.9975 H   0  0  0  0  0  0  0  0  0  0  0  0
  141.4408   78.2370  220.5040 H   0  0  0  0  0  0  0  0  0  0  0  0
  143.6730   77.6123  219.5218 H   0  0  0  0  0  0  0  0  0  0  0  0
  143.7060   78.6030  217.5190 H   0  0  0  0  0  0  0  0  0  0  0  0
  142.1430   76.5384  217.0967 H   0  0  0  0  0  0  0  0  0  0  0  0
  143.6501   75.9140  217.7820 H   0  0  0  0  0  0  0  0  0  0  0  0
  141.0650   74.8958  218.2806 H   0  0  0  0  0  0  0  0  0  0  0  0
  141.2935   72.7294  218.6956 H   0  0  0  0  0  0  0  0  0  0  0  0
  142.7218   70.8512  219.5299 H   0  0  0  0  0  0  0  0  0  0  0  0
  144.8881   71.3199  220.6413 H   0  0  0  0  0  0  0  0  0  0  0  0
  144.2539   75.5418  220.1071 H   0  0  0  0  0  0  0  0  0  0  0  0
  138.9235   69.7912  222.3414 H   0  0  0  0  0  0  0  0  0  0  0  0
  138.7143   68.4262  224.3957 H   0  0  0  0  0  0  0  0  0  0  0  0
  139.0995   68.1530  226.7371 H   0  0  0  0  0  0  0  0  0  0  0  0
  141.0995   71.2434  228.9584 H   0  0  0  0  0  0  0  0  0  0  0  0
  141.2969   72.5879  226.8798 H   0  0  0  0  0  0  0  0  0  0  0  0
  1  2  2  0
  2  3  1  0
  3  4  1  0
  4  5  1  0
  5  6  2  0
  5  7  1  0
  7  8  1  0
  8  9  1  0
  9 10  1  0
  9 11  1  0
 11 12  1  0
 12 13  1  0
 13 14  2  0
 14 15  1  0
 15 16  2  0
 16 17  1  0
 17 18  1  0
 17 19  2  0
  2 20  1  0
 20 21  2  0
 21 22  1  0
 22 23  2  0
 23 24  1  0
 24 25  2  0
 25 26  1  0
 25 27  1  0
 27 28  2  0
 28 29  1  0
 29 30  2  0
 12  7  1  0
 19 13  1  0
 30 20  1  0
 29 23  1  0
  3 31  1  0
  4 32  1  0
  4 33  1  0
  8 34  1  0
  8 35  1  0
  9 36  1  1
 10 37  1  0
 11 38  1  0
 11 39  1  0
 12 40  1  6
 14 41  1  0
 15 42  1  0
 16 43  1  0
 19 44  1  0
 21 45  1  0
 22 46  1  0
 24 47  1  0
 27 48  1  0
 28 49  1  0
M  END
>  <smiles>  (47) 
O=C(NCC(=O)N1C[C@H](O)C[C@H]1c1cccc(Cl)c1)c1ccc2cc(F)ccc2n1

>  <score_type>  (47) 
oracle

>  <origin>  (47) 
autodockgpu

>  <m_score__min__energy>  (47) 
-8.7799999999999994

>  <m_primary>  (47) 
energy

>  <rmsd>  (47) 
2.1469395693354287

>  <m_score__min__rmsd>  (47) 
2.1469395693354287

>  <meeko>  (47) 
{"free_energy": -8.54, "intermolecular_energy": -10.33, "internal_energy": -1.97, "cluster_size": 29, "cluster_id": 2, "rank_in_cluster": 13}

>  <energy>  (47) 
-7.5

>  <cluster_rmsd>  (47) 
0.0

>  <cluster>  (47) 
6

$$$$

     RDKit          3D

 49 52  0  0  0  0  0  0  0  0999 V2000
  139.2390   71.5810  221.2100 O   0  0  0  0  0  0  0  0  0  0  0  0
  139.9200   71.9230  222.2090 C   0  0  0  0  0  0  0  0  0  0  0  0
  140.7400   73.1000  222.2040 N   0  0  0  0  0  0  0  0  0  0  0  0
  140.7480   73.8810  220.9960 C   0  0  0  0  0  0  0  0  0  0  0  0
  141.6290   73.2530  219.9470 C   0  0  0  0  0  0  0  0  0  0  0  0
  141.1040   72.7620  218.9150 O   0  0  0  0  0  0  0  0  0  0  0  0
  143.0290   73.2530  220.1930 N   0  0  0  0  0  0  0  0  0  0  0  0
  143.9440   72.1210  220.2210 C   0  0  0  0  0  0  0  0  0  0  0  0
  145.1990   72.7310  219.6200 C   0  0  2  0  0  0  0  0  0  0  0  0
  146.3320   71.9960  219.9580 O   0  0  0  0  0  0  0  0  0  0  0  0
  145.2100   74.0960  220.2760 C   0  0  0  0  0  0  0  0  0  0  0  0
  143.7750   74.4670  220.4640 C   0  0  1  0  0  0  0  0  0  0  0  0
  143.3620   75.5850  219.5530 C   0  0  0  0  0  0  0  0  0  0  0  0
  143.7020   75.5270  218.2180 C   0  0  0  0  0  0  0  0  0  0  0  0
  143.3060   76.5770  217.3960 C   0  0  0  0  0  0  0  0  0  0  0  0
  142.5890   77.6540  217.9140 C   0  0  0  0  0  0  0  0  0  0  0  0
  142.2510   77.7050  219.2580 C   0  0  0  0  0  0  0  0  0  0  0  0
  141.3430   79.0740  219.8960 Cl  0  0  0  0  0  0  0  0  0  0  0  0
  142.6450   76.6570  220.0820 C   0  0  0  0  0  0  0  0  0  0  0  0
  139.8990   71.1110  223.4370 C   0  0  0  0  0  0  0  0  0  0  0  0
  139.2660   69.8770  223.4120 C   0  0  0  0  0  0  0  0  0  0  0  0
  139.2270   69.0930  224.5390 C   0  0  0  0  0  0  0  0  0  0  0  0
  139.8220   69.5410  225.6950 C   0  0  0  0  0  0  0  0  0  0  0  0
  139.7890   68.7630  226.8340 C   0  0  0  0  0  0  0  0  0  0  0  0
  140.3850   69.2100  227.9970 C   0  0  0  0  0  0  0  0  0  0  0  0
  140.3420   68.4380  229.0950 F   0  0  0  0  0  0  0  0  0  0  0  0
  141.0150   70.4390  228.0190 C   0  0  0  0  0  0  0  0  0  0  0  0
  141.0420   71.2120  226.8700 C   0  0  0  0  0  0  0  0  0  0  0  0
  140.4470   70.7690  225.7090 C   0  0  0  0  0  0  0  0  0  0  0  0
  140.4730   71.5250  224.5810 N   0  0  0  0  0  0  0  0  0  0  0  0
  141.3030   73.3750  223.0400 H   0  0  0  0  0  0  0  0  0  0  0  0
  139.7214   73.9511  220.6073 H   0  0  0  0  0  0  0  0  0  0  0  0
  141.1432   74.8805  221.2300 H   0  0  0  0  0  0  0  0  0  0  0  0
  144.1197   71.7717  221.2491 H   0  0  0  0  0  0  0  0  0  0  0  0
  143.5760   71.2335  219.6854 H   0  0  0  0  0  0  0  0  0  0  0  0
  145.2041   72.7599  218.5204 H   0  0  0  0  0  0  0  0  0  0  0  0
  146.2640   71.7790  220.9230 H   0  0  0  0  0  0  0  0  0  0  0  0
  145.7246   74.0504  221.2472 H   0  0  0  0  0  0  0  0  0  0  0  0
  145.7433   74.8367  219.6621 H   0  0  0  0  0  0  0  0  0  0  0  0
  143.5862   74.8427  221.4805 H   0  0  0  0  0  0  0  0  0  0  0  0
  144.2697   74.6754  217.8148 H   0  0  0  0  0  0  0  0  0  0  0  0
  143.5614   76.5571  216.3262 H   0  0  0  0  0  0  0  0  0  0  0  0
  142.2869   78.4752  217.2474 H   0  0  0  0  0  0  0  0  0  0  0  0
  142.3908   76.6737  221.1521 H   0  0  0  0  0  0  0  0  0  0  0  0
  138.7924   69.5242  222.4840 H   0  0  0  0  0  0  0  0  0  0  0  0
  138.7241   68.1150  224.5171 H   0  0  0  0  0  0  0  0  0  0  0  0
  139.2869   67.7845  226.8158 H   0  0  0  0  0  0  0  0  0  0  0  0
  141.4916   70.8011  228.9419 H   0  0  0  0  0  0  0  0  0  0  0  0
  141.5442   72.1906  226.8846 H   0  0  0  0  0  0  0  0  0  0  0  0
  1  2  2  0
  2  3  1  0
  3  4  1  0
  4  5  1  0
  5  6  2  0
  5  7  1  0
  7  8  1  0
  8  9  1  0
  9 10  1  0
  9 11  1  0
 11 12  1  0
 12 13  1  0
 13 14  2  0
 14 15  1  0
 15 16  2  0
 16 17  1  0
 17 18  1  0
 17 19  2  0
  2 20  1  0
 20 21  2  0
 21 22  1  0
 22 23  2  0
 23 24  1  0
 24 25  2  0
 25 26  1  0
 25 27  1  0
 27 28  2  0
 28 29  1  0
 29 30  2  0
 12  7  1  0
 19 13  1  0
 30 20  1  0
 29 23  1  0
  3 31  1  0
  4 32  1  0
  4 33  1  0
  8 34  1  0
  8 35  1  0
  9 36  1  6
 10 37  1  0
 11 38  1  0
 11 39  1  0
 12 40  1  1
 14 41  1  0
 15 42  1  0
 16 43  1  0
 19 44  1  0
 21 45  1  0
 22 46  1  0
 24 47  1  0
 27 48  1  0
 28 49  1  0
M  END
>  <smiles>  (48) 
O=C(NCC(=O)N1C[C@H](O)C[C@H]1c1cccc(Cl)c1)c1ccc2cc(F)ccc2n1

>  <score_type>  (48) 
oracle

>  <origin>  (48) 
autodockgpu

>  <m_score__min__energy>  (48) 
-8.7799999999999994

>  <m_primary>  (48) 
energy

>  <rmsd>  (48) 
3.358771376703976

>  <m_score__min__rmsd>  (48) 
3.358771376703976

>  <meeko>  (48) 
{"free_energy": -8.14, "intermolecular_energy": -9.93, "internal_energy": -1.66, "cluster_size": 11, "cluster_id": 1, "rank_in_cluster": 10}

>  <energy>  (48) 
-7.41

>  <cluster_rmsd>  (48) 
0.45

>  <cluster>  (48) 
6

$$$$

     RDKit          3D

 49 52  0  0  0  0  0  0  0  0999 V2000
  140.6720   71.5360  221.0990 O   0  0  0  0  0  0  0  0  0  0  0  0
  140.2680   72.0810  222.1560 C   0  0  0  0  0  0  0  0  0  0  0  0
  139.9100   73.4700  222.2070 N   0  0  0  0  0  0  0  0  0  0  0  0
  140.0320   74.2170  220.9840 C   0  0  0  0  0  0  0  0  0  0  0  0
  140.8820   75.4460  221.1790 C   0  0  0  0  0  0  0  0  0  0  0  0
  141.1150   75.8560  222.3460 O   0  0  0  0  0  0  0  0  0  0  0  0
  141.3790   76.0830  220.0090 N   0  0  0  0  0  0  0  0  0  0  0  0
  141.2320   77.4730  219.6030 C   0  0  0  0  0  0  0  0  0  0  0  0
  142.5740   77.7370  218.9410 C   0  0  2  0  0  0  0  0  0  0  0  0
  142.5080   78.8300  218.0800 O   0  0  0  0  0  0  0  0  0  0  0  0
  142.7890   76.4470  218.1780 C   0  0  0  0  0  0  0  0  0  0  0  0
  142.1490   75.3770  219.0030 C   0  0  1  0  0  0  0  0  0  0  0  0
  143.1650   74.4650  219.6230 C   0  0  0  0  0  0  0  0  0  0  0  0
  144.2720   75.0090  220.2400 C   0  0  0  0  0  0  0  0  0  0  0  0
  145.1990   74.1400  220.8080 C   0  0  0  0  0  0  0  0  0  0  0  0
  145.0080   72.7610  220.7490 C   0  0  0  0  0  0  0  0  0  0  0  0
  143.8930   72.2210  220.1260 C   0  0  0  0  0  0  0  0  0  0  0  0
  143.6670   70.4750  220.0610 Cl  0  0  0  0  0  0  0  0  0  0  0  0
  142.9640   73.0870  219.5580 C   0  0  0  0  0  0  0  0  0  0  0  0
  140.1490   71.3000  223.3980 C   0  0  0  0  0  0  0  0  0  0  0  0
  139.5590   70.0450  223.3440 C   0  0  0  0  0  0  0  0  0  0  0  0
  139.4320   69.2890  224.4840 C   0  0  0  0  0  0  0  0  0  0  0  0
  139.8930   69.7850  225.6800 C   0  0  0  0  0  0  0  0  0  0  0  0
  139.7690   69.0350  226.8310 C   0  0  0  0  0  0  0  0  0  0  0  0
  140.2310   69.5310  228.0350 C   0  0  0  0  0  0  0  0  0  0  0  0
  140.1010   68.7850  229.1450 F   0  0  0  0  0  0  0  0  0  0  0  0
  140.8170   70.7800  228.0860 C   0  0  0  0  0  0  0  0  0  0  0  0
  140.9360   71.5250  226.9240 C   0  0  0  0  0  0  0  0  0  0  0  0
  140.4750   71.0330  225.7230 C   0  0  0  0  0  0  0  0  0  0  0  0
  140.5910   71.7610  224.5810 N   0  0  0  0  0  0  0  0  0  0  0  0
  139.5760   73.9130  223.0910 H   0  0  0  0  0  0  0  0  0  0  0  0
  140.4954   73.5780  220.2179 H   0  0  0  0  0  0  0  0  0  0  0  0
  139.0274   74.5347  220.6680 H   0  0  0  0  0  0  0  0  0  0  0  0
  140.4016   77.5988  218.8927 H   0  0  0  0  0  0  0  0  0  0  0  0
  140.9960   78.1597  220.4293 H   0  0  0  0  0  0  0  0  0  0  0  0
  143.3825   77.9842  219.6447 H   0  0  0  0  0  0  0  0  0  0  0  0
  141.5590   78.9370  217.8150 H   0  0  0  0  0  0  0  0  0  0  0  0
  142.3136   76.5035  217.1876 H   0  0  0  0  0  0  0  0  0  0  0  0
  143.8579   76.2469  218.0122 H   0  0  0  0  0  0  0  0  0  0  0  0
  141.5142   74.7206  218.3897 H   0  0  0  0  0  0  0  0  0  0  0  0
  144.4181   76.0984  220.2820 H   0  0  0  0  0  0  0  0  0  0  0  0
  146.0908   74.5456  221.3082 H   0  0  0  0  0  0  0  0  0  0  0  0
  145.7527   72.0909  221.2033 H   0  0  0  0  0  0  0  0  0  0  0  0
  142.0709   72.6844  219.0576 H   0  0  0  0  0  0  0  0  0  0  0  0
  139.1913   69.6538  222.3839 H   0  0  0  0  0  0  0  0  0  0  0  0
  138.9648   68.2941  224.4399 H   0  0  0  0  0  0  0  0  0  0  0  0
  139.3014   68.0402  226.7903 H   0  0  0  0  0  0  0  0  0  0  0  0
  141.1865   71.1804  229.0416 H   0  0  0  0  0  0  0  0  0  0  0  0
  141.4036   72.5200  226.9610 H   0  0  0  0  0  0  0  0  0  0  0  0
  1  2  2  0
  2  3  1  0
  3  4  1  0
  4  5  1  0
  5  6  2  0
  5  7  1  0
  7  8  1  0
  8  9  1  0
  9 10  1  0
  9 11  1  0
 11 12  1  0
 12 13  1  0
 13 14  2  0
 14 15  1  0
 15 16  2  0
 16 17  1  0
 17 18  1  0
 17 19  2  0
  2 20  1  0
 20 21  2  0
 21 22  1  0
 22 23  2  0
 23 24  1  0
 24 25  2  0
 25 26  1  0
 25 27  1  0
 27 28  2  0
 28 29  1  0
 29 30  2  0
 12  7  1  0
 19 13  1  0
 30 20  1  0
 29 23  1  0
  3 31  1  0
  4 32  1  0
  4 33  1  0
  8 34  1  0
  8 35  1  0
  9 36  1  1
 10 37  1  0
 11 38  1  0
 11 39  1  0
 12 40  1  6
 14 41  1  0
 15 42  1  0
 16 43  1  0
 19 44  1  0
 21 45  1  0
 22 46  1  0
 24 47  1  0
 27 48  1  0
 28 49  1  0
M  END
>  <smiles>  (49) 
O=C(NCC(=O)N1C[C@H](O)C[C@H]1c1cccc(Cl)c1)c1ccc2cc(F)ccc2n1

>  <score_type>  (49) 
oracle

>  <origin>  (49) 
autodockgpu

>  <m_score__min__energy>  (49) 
-8.7799999999999994

>  <m_primary>  (49) 
energy

>  <rmsd>  (49) 
2.105930711079751

>  <m_score__min__rmsd>  (49) 
2.105930711079751

>  <meeko>  (49) 
{"free_energy": -8.01, "intermolecular_energy": -9.8, "internal_energy": -2.06, "cluster_size": 29, "cluster_id": 2, "rank_in_cluster": 29}

>  <energy>  (49) 
-7.08

>  <cluster_rmsd>  (49) 
1.41

>  <cluster>  (49) 
6

$$$$

     RDKit          3D

 49 52  0  0  0  0  0  0  0  0999 V2000
  136.2450   76.8520  221.7230 O   0  0  0  0  0  0  0  0  0  0  0  0
  137.3440   76.6340  222.2910 C   0  0  0  0  0  0  0  0  0  0  0  0
  137.7900   75.3060  222.6000 N   0  0  0  0  0  0  0  0  0  0  0  0
  136.9180   74.2250  222.2270 C   0  0  0  0  0  0  0  0  0  0  0  0
  137.6810   72.9330  222.0870 C   0  0  0  0  0  0  0  0  0  0  0  0
  137.1110   71.8470  222.3680 O   0  0  0  0  0  0  0  0  0  0  0  0
  139.0260   73.0210  221.6350 N   0  0  0  0  0  0  0  0  0  0  0  0
  139.7030   74.1550  221.0220 C   0  0  0  0  0  0  0  0  0  0  0  0
  141.1020   74.0200  221.5980 C   0  0  2  0  0  0  0  0  0  0  0  0
  142.0380   74.6980  220.8220 O   0  0  0  0  0  0  0  0  0  0  0  0
  141.3100   72.5210  221.5280 C   0  0  0  0  0  0  0  0  0  0  0  0
  139.9590   71.9150  221.7360 C   0  0  1  0  0  0  0  0  0  0  0  0
  139.8550   71.2230  223.0620 C   0  0  0  0  0  0  0  0  0  0  0  0
  139.1710   70.0280  223.1470 C   0  0  0  0  0  0  0  0  0  0  0  0
  139.0910   69.4060  224.3890 C   0  0  0  0  0  0  0  0  0  0  0  0
  139.6860   69.9810  225.5110 C   0  0  0  0  0  0  0  0  0  0  0  0
  140.3710   71.1830  225.4180 C   0  0  0  0  0  0  0  0  0  0  0  0
  141.1180   71.8950  226.8460 Cl  0  0  0  0  0  0  0  0  0  0  0  0
  140.4540   71.8060  224.1770 C   0  0  0  0  0  0  0  0  0  0  0  0
  138.2230   77.7540  222.6660 C   0  0  0  0  0  0  0  0  0  0  0  0
  137.6500   78.9750  222.9890 C   0  0  0  0  0  0  0  0  0  0  0  0
  138.4400   80.0410  223.3430 C   0  0  0  0  0  0  0  0  0  0  0  0
  139.8060   79.8890  223.3750 C   0  0  0  0  0  0  0  0  0  0  0  0
  140.6100   80.9540  223.7280 C   0  0  0  0  0  0  0  0  0  0  0  0
  141.9830   80.8040  223.7610 C   0  0  0  0  0  0  0  0  0  0  0  0
  142.7480   81.8520  224.1080 F   0  0  0  0  0  0  0  0  0  0  0  0
  142.5510   79.5880  223.4400 C   0  0  0  0  0  0  0  0  0  0  0  0
  141.7340   78.5260  223.0860 C   0  0  0  0  0  0  0  0  0  0  0  0
  140.3650   78.6730  223.0510 C   0  0  0  0  0  0  0  0  0  0  0  0
  139.5620   77.6330  222.7060 N   0  0  0  0  0  0  0  0  0  0  0  0
  138.7050   75.1360  223.0740 H   0  0  0  0  0  0  0  0  0  0  0  0
  136.1457   74.1036  223.0008 H   0  0  0  0  0  0  0  0  0  0  0  0
  136.4599   74.4660  221.2564 H   0  0  0  0  0  0  0  0  0  0  0  0
  139.7105   74.0735  219.9251 H   0  0  0  0  0  0  0  0  0  0  0  0
  139.2261   75.1253  221.2250 H   0  0  0  0  0  0  0  0  0  0  0  0
  141.2163   74.4443  222.6064 H   0  0  0  0  0  0  0  0  0  0  0  0
  142.5520   75.2880  221.4300 H   0  0  0  0  0  0  0  0  0  0  0  0
  141.7114   72.2350  220.5446 H   0  0  0  0  0  0  0  0  0  0  0  0
  142.0308   72.1754  222.2837 H   0  0  0  0  0  0  0  0  0  0  0  0
  139.7481   71.1349  220.9897 H   0  0  0  0  0  0  0  0  0  0  0  0
  138.7024   69.5798  222.2585 H   0  0  0  0  0  0  0  0  0  0  0  0
  138.5531   68.4514  224.4866 H   0  0  0  0  0  0  0  0  0  0  0  0
  139.6110   69.4738  226.4842 H   0  0  0  0  0  0  0  0  0  0  0  0
  140.9929   72.7596  224.0757 H   0  0  0  0  0  0  0  0  0  0  0  0
  136.5564   79.0902  222.9615 H   0  0  0  0  0  0  0  0  0  0  0  0
  137.9836   81.0086  223.5989 H   0  0  0  0  0  0  0  0  0  0  0  0
  140.1570   81.9233  223.9833 H   0  0  0  0  0  0  0  0  0  0  0  0
  143.6435   79.4626  223.4649 H   0  0  0  0  0  0  0  0  0  0  0  0
  142.1837   77.5553  222.8302 H   0  0  0  0  0  0  0  0  0  0  0  0
  1  2  2  0
  2  3  1  0
  3  4  1  0
  4  5  1  0
  5  6  2  0
  5  7  1  0
  7  8  1  0
  8  9  1  0
  9 10  1  0
  9 11  1  0
 11 12  1  0
 12 13  1  0
 13 14  2  0
 14 15  1  0
 15 16  2  0
 16 17  1  0
 17 18  1  0
 17 19  2  0
  2 20  1  0
 20 21  2  0
 21 22  1  0
 22 23  2  0
 23 24  1  0
 24 25  2  0
 25 26  1  0
 25 27  1  0
 27 28  2  0
 28 29  1  0
 29 30  2  0
 12  7  1  0
 19 13  1  0
 30 20  1  0
 29 23  1  0
  3 31  1  0
  4 32  1  0
  4 33  1  0
  8 34  1  0
  8 35  1  0
  9 36  1  1
 10 37  1  0
 11 38  1  0
 11 39  1  0
 12 40  1  6
 14 41  1  0
 15 42  1  0
 16 43  1  0
 19 44  1  0
 21 45  1  0
 22 46  1  0
 24 47  1  0
 27 48  1  0
 28 49  1  0
M  END
>  <smiles>  (50) 
O=C(NCC(=O)N1C[C@H](O)C[C@H]1c1cccc(Cl)c1)c1ccc2cc(F)ccc2n1

>  <score_type>  (50) 
oracle

>  <origin>  (50) 
autodockgpu

>  <m_score__min__energy>  (50) 
-8.7799999999999994

>  <m_primary>  (50) 
energy

>  <rmsd>  (50) 
7.898659248187687

>  <m_score__min__rmsd>  (50) 
7.898659248187687

>  <meeko>  (50) 
{"free_energy": -7.79, "intermolecular_energy": -9.58, "internal_energy": -1.5, "cluster_size": 1, "cluster_id": 4, "rank_in_cluster": 1}

>  <energy>  (50) 
-7.0

>  <cluster_rmsd>  (50) 
1.39

>  <cluster>  (50) 
6

$$$$
