
     RDKit          3D

 53 56  0  0  0  0  0  0  0  0999 V2000
  141.3720   72.2910  221.5860 O   0  0  0  0  0  0  0  0  0  0  0  0
  140.4720   72.5570  222.4230 C   0  0  0  0  0  0  0  0  0  0  0  0
  139.6480   73.7200  222.3410 N   0  0  0  0  0  0  0  0  0  0  0  0
  139.8030   74.6910  221.2560 C   0  0  0  0  0  0  0  0  0  0  0  0
  139.6150   76.0170  221.8470 C   0  0  0  0  0  0  0  0  0  0  0  0
  138.5100   76.2830  222.4140 O   0  0  0  0  0  0  0  0  0  0  0  0
  140.5790   77.0600  221.8450 N   0  0  0  0  0  0  0  0  0  0  0  0
  141.1540   77.5900  223.0870 C   0  0  0  0  0  0  0  0  0  0  0  0
  141.0830   79.0910  222.7420 C   0  0  2  0  0  0  0  0  0  0  0  0
  139.7390   79.3800  222.5570 O   0  0  0  0  0  0  0  0  0  0  0  0
  141.7970   79.0330  221.3830 C   0  0  0  0  0  0  0  0  0  0  0  0
  141.1560   77.7960  220.7640 C   0  0  1  0  0  0  0  0  0  0  0  0
  142.1480   77.0430  219.9140 C   0  0  0  0  0  0  0  0  0  0  0  0
  142.3570   75.7440  220.1190 O   0  0  0  0  0  0  0  0  0  0  0  0
  143.1650   74.7070  219.9810 C   0  0  0  0  0  0  0  0  0  0  0  0
  144.4360   74.5270  220.4820 C   0  0  0  0  0  0  0  0  0  0  0  0
  145.2000   73.4030  220.2790 C   0  0  0  0  0  0  0  0  0  0  0  0
  144.6760   72.3800  219.5290 C   0  0  0  0  0  0  0  0  0  0  0  0
  145.6350   70.9570  219.2710 Cl  0  0  0  0  0  0  0  0  0  0  0  0
  143.4160   72.4890  219.0000 C   0  0  0  0  0  0  0  0  0  0  0  0
  142.6790   73.6170  219.2180 C   0  0  0  0  0  0  0  0  0  0  0  0
  140.2670   71.6270  223.5320 C   0  0  0  0  0  0  0  0  0  0  0  0
  139.6020   70.4410  223.3690 C   0  0  0  0  0  0  0  0  0  0  0  0
  139.3820   69.5310  224.3810 C   0  0  0  0  0  0  0  0  0  0  0  0
  139.8690   69.8500  225.6260 C   0  0  0  0  0  0  0  0  0  0  0  0
  139.6580   68.9490  226.6480 C   0  0  0  0  0  0  0  0  0  0  0  0
  140.1380   69.2480  227.9020 C   0  0  0  0  0  0  0  0  0  0  0  0
  139.9270   68.3660  228.8860 F   0  0  0  0  0  0  0  0  0  0  0  0
  140.8070   70.4340  228.0780 C   0  0  0  0  0  0  0  0  0  0  0  0
  141.0200   71.3440  227.0470 C   0  0  0  0  0  0  0  0  0  0  0  0
  140.5400   71.0430  225.7930 C   0  0  0  0  0  0  0  0  0  0  0  0
  140.7340   71.9060  224.7780 N   0  0  0  0  0  0  0  0  0  0  0  0
  138.9250   73.8520  223.0900 H   0  0  0  0  0  0  0  0  0  0  0  0
  140.8082   74.6110  220.8166 H   0  0  0  0  0  0  0  0  0  0  0  0
  139.0721   74.5082  220.4545 H   0  0  0  0  0  0  0  0  0  0  0  0
  140.5455   77.3369  223.9677 H   0  0  0  0  0  0  0  0  0  0  0  0
  142.1488   77.2062  223.3574 H   0  0  0  0  0  0  0  0  0  0  0  0
  141.4964   79.8157  223.4588 H   0  0  0  0  0  0  0  0  0  0  0  0
  139.2020   78.5620  222.5120 H   0  0  0  0  0  0  0  0  0  0  0  0
  141.5967   79.9334  220.7837 H   0  0  0  0  0  0  0  0  0  0  0  0
  142.8939   78.9868  221.4510 H   0  0  0  0  0  0  0  0  0  0  0  0
  140.3532   78.0374  220.0518 H   0  0  0  0  0  0  0  0  0  0  0  0
  141.8156   77.1492  218.8708 H   0  0  0  0  0  0  0  0  0  0  0  0
  143.1106   77.4980  220.1905 H   0  0  0  0  0  0  0  0  0  0  0  0
  144.8686   75.3385  221.0856 H   0  0  0  0  0  0  0  0  0  0  0  0
  146.2097   73.3249  220.7084 H   0  0  0  0  0  0  0  0  0  0  0  0
  142.9988   71.6671  218.3996 H   0  0  0  0  0  0  0  0  0  0  0  0
  141.6699   73.6820  218.7850 H   0  0  0  0  0  0  0  0  0  0  0  0
  139.2189   70.1990  222.3667 H   0  0  0  0  0  0  0  0  0  0  0  0
  138.8404   68.5908  224.2000 H   0  0  0  0  0  0  0  0  0  0  0  0
  139.1164   68.0094  226.4642 H   0  0  0  0  0  0  0  0  0  0  0  0
  141.1921   70.6758  229.0796 H   0  0  0  0  0  0  0  0  0  0  0  0
  141.5607   72.2842  227.2306 H   0  0  0  0  0  0  0  0  0  0  0  0
  1  2  2  0
  2  3  1  0
  3  4  1  0
  4  5  1  0
  5  6  2  0
  5  7  1  0
  7  8  1  0
  8  9  1  0
  9 10  1  0
  9 11  1  0
 11 12  1  0
 12 13  1  0
 13 14  1  0
 14 15  1  0
 15 16  2  0
 16 17  1  0
 17 18  2  0
 18 19  1  0
 18 20  1  0
 20 21  2  0
  2 22  1  0
 22 23  2  0
 23 24  1  0
 24 25  2  0
 25 26  1  0
 26 27  2  0
 27 28  1  0
 27 29  1  0
 29 30  2  0
 30 31  1  0
 31 32  2  0
 12  7  1  0
 21 15  1  0
 32 22  1  0
 31 25  1  0
  3 33  1  0
  4 34  1  0
  4 35  1  0
  8 36  1  0
  8 37  1  0
  9 38  1  1
 10 39  1  0
 11 40  1  0
 11 41  1  0
 12 42  1  6
 13 43  1  0
 13 44  1  0
 16 45  1  0
 17 46  1  0
 20 47  1  0
 21 48  1  0
 23 49  1  0
 24 50  1  0
 26 51  1  0
 29 52  1  0
 30 53  1  0
M  END
>  <smiles>  (1) 
O=C(NCC(=O)N1C[C@H](O)C[C@H]1COc1ccc(Cl)cc1)c1ccc2cc(F)ccc2n1

>  <score_type>  (1) 
oracle

>  <origin>  (1) 
autodockgpu

>  <m_score__min__energy>  (1) 
-8.4900000000000002

>  <m_primary>  (1) 
energy

>  <rmsd>  (1) 
2.9848568671154494

>  <m_score__min__rmsd>  (1) 
2.9848568671154494

>  <meeko>  (1) 
{"free_energy": -7.99, "intermolecular_energy": -10.38, "internal_energy": -2.46, "cluster_size": 15, "cluster_id": 3, "rank_in_cluster": 1}

>  <energy>  (1) 
-8.49

>  <cluster_rmsd>  (1) 
0.0

>  <cluster>  (1) 
1

$$$$

     RDKit          3D

 53 56  0  0  0  0  0  0  0  0999 V2000
  139.8670   74.7220  222.1330 O   0  0  0  0  0  0  0  0  0  0  0  0
  140.6100   75.7160  221.9310 C   0  0  0  0  0  0  0  0  0  0  0  0
  141.8300   75.6440  221.1930 N   0  0  0  0  0  0  0  0  0  0  0  0
  142.2990   74.3810  220.6150 C   0  0  0  0  0  0  0  0  0  0  0  0
  143.4530   74.7060  219.7750 C   0  0  0  0  0  0  0  0  0  0  0  0
  144.1900   75.6880  220.1010 O   0  0  0  0  0  0  0  0  0  0  0  0
  143.8340   74.0060  218.6000 N   0  0  0  0  0  0  0  0  0  0  0  0
  144.1060   72.5630  218.6090 C   0  0  0  0  0  0  0  0  0  0  0  0
  145.3810   72.5730  217.7420 C   0  0  2  0  0  0  0  0  0  0  0  0
  146.3090   73.3410  218.4300 O   0  0  0  0  0  0  0  0  0  0  0  0
  144.8250   73.3670  216.5510 C   0  0  0  0  0  0  0  0  0  0  0  0
  144.0490   74.4680  217.2650 C   0  0  1  0  0  0  0  0  0  0  0  0
  142.8100   74.8430  216.4920 C   0  0  0  0  0  0  0  0  0  0  0  0
  141.9220   75.6870  217.0160 O   0  0  0  0  0  0  0  0  0  0  0  0
  141.6970   76.7260  217.8000 C   0  0  0  0  0  0  0  0  0  0  0  0
  140.6130   76.9790  218.6120 C   0  0  0  0  0  0  0  0  0  0  0  0
  140.4720   78.1010  219.3950 C   0  0  0  0  0  0  0  0  0  0  0  0
  141.4710   79.0420  219.3770 C   0  0  0  0  0  0  0  0  0  0  0  0
  141.2990   80.4600  220.3640 Cl  0  0  0  0  0  0  0  0  0  0  0  0
  142.5800   78.8570  218.5930 C   0  0  0  0  0  0  0  0  0  0  0  0
  142.6930   77.7330  217.8260 C   0  0  0  0  0  0  0  0  0  0  0  0
  140.1990   77.0050  222.4830 C   0  0  0  0  0  0  0  0  0  0  0  0
  141.1050   77.8950  222.9970 C   0  0  0  0  0  0  0  0  0  0  0  0
  140.7700   79.1230  223.5290 C   0  0  0  0  0  0  0  0  0  0  0  0
  139.4370   79.4580  223.5350 C   0  0  0  0  0  0  0  0  0  0  0  0
  139.0860   80.6830  224.0630 C   0  0  0  0  0  0  0  0  0  0  0  0
  137.7580   81.0390  224.0780 C   0  0  0  0  0  0  0  0  0  0  0  0
  137.4290   82.2300  224.5930 F   0  0  0  0  0  0  0  0  0  0  0  0
  136.8400   80.1560  223.5660 C   0  0  0  0  0  0  0  0  0  0  0  0
  137.1930   78.9200  223.0340 C   0  0  0  0  0  0  0  0  0  0  0  0
  138.5230   78.5650  223.0190 C   0  0  0  0  0  0  0  0  0  0  0  0
  138.8910   77.3750  222.5080 N   0  0  0  0  0  0  0  0  0  0  0  0
  142.3780   76.5310  221.0800 H   0  0  0  0  0  0  0  0  0  0  0  0
  142.5955   73.6854  221.4139 H   0  0  0  0  0  0  0  0  0  0  0  0
  141.5057   73.8960  220.0273 H   0  0  0  0  0  0  0  0  0  0  0  0
  144.2961   72.1822  219.6233 H   0  0  0  0  0  0  0  0  0  0  0  0
  143.2888   71.9179  218.2541 H   0  0  0  0  0  0  0  0  0  0  0  0
  145.8507   71.6117  217.4867 H   0  0  0  0  0  0  0  0  0  0  0  0
  145.8940   74.1430  218.8110 H   0  0  0  0  0  0  0  0  0  0  0  0
  145.6331   73.7811  215.9301 H   0  0  0  0  0  0  0  0  0  0  0  0
  144.2209   72.7692  215.8526 H   0  0  0  0  0  0  0  0  0  0  0  0
  144.6011   75.4178  217.3208 H   0  0  0  0  0  0  0  0  0  0  0  0
  143.1503   75.2890  215.5458 H   0  0  0  0  0  0  0  0  0  0  0  0
  142.2531   73.8960  216.4372 H   0  0  0  0  0  0  0  0  0  0  0  0
  139.8052   76.2327  218.6357 H   0  0  0  0  0  0  0  0  0  0  0  0
  139.5787   78.2410  220.0215 H   0  0  0  0  0  0  0  0  0  0  0  0
  143.3785   79.6135  218.5817 H   0  0  0  0  0  0  0  0  0  0  0  0
  143.5916   77.6046  217.2047 H   0  0  0  0  0  0  0  0  0  0  0  0
  142.1680   77.6122  222.9847 H   0  0  0  0  0  0  0  0  0  0  0  0
  141.5354   79.8035  223.9304 H   0  0  0  0  0  0  0  0  0  0  0  0
  139.8532   81.3616  224.4641 H   0  0  0  0  0  0  0  0  0  0  0  0
  135.7770   80.4386  223.5769 H   0  0  0  0  0  0  0  0  0  0  0  0
  136.4258   78.2408  222.6339 H   0  0  0  0  0  0  0  0  0  0  0  0
  1  2  2  0
  2  3  1  0
  3  4  1  0
  4  5  1  0
  5  6  2  0
  5  7  1  0
  7  8  1  0
  8  9  1  0
  9 10  1  0
  9 11  1  0
 11 12  1  0
 12 13  1  0
 13 14  1  0
 14 15  1  0
 15 16  2  0
 16 17  1  0
 17 18  2  0
 18 19  1  0
 18 20  1  0
 20 21  2  0
  2 22  1  0
 22 23  2  0
 23 24  1  0
 24 25  2  0
 25 26  1  0
 26 27  2  0
 27 28  1  0
 27 29  1  0
 29 30  2  0
 30 31  1  0
 31 32  2  0
 12  7  1  0
 21 15  1  0
 32 22  1  0
 31 25  1  0
  3 33  1  0
  4 34  1  0
  4 35  1  0
  8 36  1  0
  8 37  1  0
  9 38  1  6
 10 39  1  0
 11 40  1  0
 11 41  1  0
 12 42  1  1
 13 43  1  0
 13 44  1  0
 16 45  1  0
 17 46  1  0
 20 47  1  0
 21 48  1  0
 23 49  1  0
 24 50  1  0
 26 51  1  0
 29 52  1  0
 30 53  1  0
M  END
>  <smiles>  (2) 
O=C(NCC(=O)N1C[C@H](O)C[C@H]1COc1ccc(Cl)cc1)c1ccc2cc(F)ccc2n1

>  <score_type>  (2) 
oracle

>  <origin>  (2) 
autodockgpu

>  <m_score__min__energy>  (2) 
-8.4900000000000002

>  <m_primary>  (2) 
energy

>  <rmsd>  (2) 
8.135645489512797

>  <m_score__min__rmsd>  (2) 
8.135645489512797

>  <meeko>  (2) 
{"free_energy": -6.55, "intermolecular_energy": -8.94, "internal_energy": -3.5, "cluster_size": 6, "cluster_id": 8, "rank_in_cluster": 4}

>  <energy>  (2) 
-8.43

>  <cluster_rmsd>  (2) 
1.77

>  <cluster>  (2) 
1

$$$$

     RDKit          3D

 53 56  0  0  0  0  0  0  0  0999 V2000
  140.5320   71.2380  221.6650 O   0  0  0  0  0  0  0  0  0  0  0  0
  139.7640   71.5380  222.6140 C   0  0  0  0  0  0  0  0  0  0  0  0
  138.8560   72.6390  222.5670 N   0  0  0  0  0  0  0  0  0  0  0  0
  138.7640   73.5030  221.3870 C   0  0  0  0  0  0  0  0  0  0  0  0
  139.9800   74.3180  221.3660 C   0  0  0  0  0  0  0  0  0  0  0  0
  140.1370   75.2060  222.2590 O   0  0  0  0  0  0  0  0  0  0  0  0
  141.0260   74.2030  220.4120 N   0  0  0  0  0  0  0  0  0  0  0  0
  141.0670   73.1100  219.4310 C   0  0  0  0  0  0  0  0  0  0  0  0
  142.5650   72.7660  219.5460 C   0  0  2  0  0  0  0  0  0  0  0  0
  142.7700   72.3710  220.8600 O   0  0  0  0  0  0  0  0  0  0  0  0
  143.1280   74.1790  219.3290 C   0  0  0  0  0  0  0  0  0  0  0  0
  142.1860   75.0080  220.1960 C   0  0  1  0  0  0  0  0  0  0  0  0
  141.9400   76.3620  219.5790 C   0  0  0  0  0  0  0  0  0  0  0  0
  141.4070   77.3430  220.3070 O   0  0  0  0  0  0  0  0  0  0  0  0
  141.5750   78.2490  221.2530 C   0  0  0  0  0  0  0  0  0  0  0  0
  141.4240   78.1150  222.6160 C   0  0  0  0  0  0  0  0  0  0  0  0
  141.6230   79.1280  223.5250 C   0  0  0  0  0  0  0  0  0  0  0  0
  141.9980   80.3630  223.0580 C   0  0  0  0  0  0  0  0  0  0  0  0
  142.2510   81.6450  224.2000 Cl  0  0  0  0  0  0  0  0  0  0  0  0
  142.1680   80.5700  221.7130 C   0  0  0  0  0  0  0  0  0  0  0  0
  141.9630   79.5450  220.8340 C   0  0  0  0  0  0  0  0  0  0  0  0
  139.8090   70.7160  223.8220 C   0  0  0  0  0  0  0  0  0  0  0  0
  139.2610   69.4610  223.8640 C   0  0  0  0  0  0  0  0  0  0  0  0
  139.2760   68.6460  224.9760 C   0  0  0  0  0  0  0  0  0  0  0  0
  139.8850   69.1410  226.1050 C   0  0  0  0  0  0  0  0  0  0  0  0
  139.9090   68.3370  227.2260 C   0  0  0  0  0  0  0  0  0  0  0  0
  140.5130   68.8130  228.3660 C   0  0  0  0  0  0  0  0  0  0  0  0
  140.5300   68.0240  229.4470 F   0  0  0  0  0  0  0  0  0  0  0  0
  141.0650   70.0690  228.3370 C   0  0  0  0  0  0  0  0  0  0  0  0
  141.0410   70.8800  227.2060 C   0  0  0  0  0  0  0  0  0  0  0  0
  140.4370   70.4030  226.0660 C   0  0  0  0  0  0  0  0  0  0  0  0
  140.4010   71.1690  224.9590 N   0  0  0  0  0  0  0  0  0  0  0  0
  138.2570   72.8060  223.4120 H   0  0  0  0  0  0  0  0  0  0  0  0
  138.7011   72.8924  220.4742 H   0  0  0  0  0  0  0  0  0  0  0  0
  137.8648   74.1352  221.4289 H   0  0  0  0  0  0  0  0  0  0  0  0
  140.4234   72.2665  219.7213 H   0  0  0  0  0  0  0  0  0  0  0  0
  140.7069   73.3569  218.4214 H   0  0  0  0  0  0  0  0  0  0  0  0
  142.9788   71.9903  218.8849 H   0  0  0  0  0  0  0  0  0  0  0  0
  141.9350   72.0720  221.2760 H   0  0  0  0  0  0  0  0  0  0  0  0
  144.1688   74.2562  219.6764 H   0  0  0  0  0  0  0  0  0  0  0  0
  143.1669   74.4932  218.2756 H   0  0  0  0  0  0  0  0  0  0  0  0
  142.6115   75.2571  221.1793 H   0  0  0  0  0  0  0  0  0  0  0  0
  142.9130   76.7275  219.2190 H   0  0  0  0  0  0  0  0  0  0  0  0
  141.1640   76.1577  218.8266 H   0  0  0  0  0  0  0  0  0  0  0  0
  141.1237   77.1304  223.0038 H   0  0  0  0  0  0  0  0  0  0  0  0
  141.4847   78.9523  224.6020 H   0  0  0  0  0  0  0  0  0  0  0  0
  142.4693   81.5609  221.3424 H   0  0  0  0  0  0  0  0  0  0  0  0
  142.1047   79.7333  219.7595 H   0  0  0  0  0  0  0  0  0  0  0  0
  138.7782   69.0792  222.9523 H   0  0  0  0  0  0  0  0  0  0  0  0
  138.8211   67.6446  224.9606 H   0  0  0  0  0  0  0  0  0  0  0  0
  139.4542   67.3356  227.2082 H   0  0  0  0  0  0  0  0  0  0  0  0
  141.5479   70.4519  229.2481 H   0  0  0  0  0  0  0  0  0  0  0  0
  141.4956   71.8815  227.2235 H   0  0  0  0  0  0  0  0  0  0  0  0
  1  2  2  0
  2  3  1  0
  3  4  1  0
  4  5  1  0
  5  6  2  0
  5  7  1  0
  7  8  1  0
  8  9  1  0
  9 10  1  0
  9 11  1  0
 11 12  1  0
 12 13  1  0
 13 14  1  0
 14 15  1  0
 15 16  2  0
 16 17  1  0
 17 18  2  0
 18 19  1  0
 18 20  1  0
 20 21  2  0
  2 22  1  0
 22 23  2  0
 23 24  1  0
 24 25  2  0
 25 26  1  0
 26 27  2  0
 27 28  1  0
 27 29  1  0
 29 30  2  0
 30 31  1  0
 31 32  2  0
 12  7  1  0
 21 15  1  0
 32 22  1  0
 31 25  1  0
  3 33  1  0
  4 34  1  0
  4 35  1  0
  8 36  1  0
  8 37  1  0
  9 38  1  6
 10 39  1  0
 11 40  1  0
 11 41  1  0
 12 42  1  1
 13 43  1  0
 13 44  1  0
 16 45  1  0
 17 46  1  0
 20 47  1  0
 21 48  1  0
 23 49  1  0
 24 50  1  0
 26 51  1  0
 29 52  1  0
 30 53  1  0
M  END
>  <smiles>  (3) 
O=C(NCC(=O)N1C[C@H](O)C[C@H]1COc1ccc(Cl)cc1)c1ccc2cc(F)ccc2n1

>  <score_type>  (3) 
oracle

>  <origin>  (3) 
autodockgpu

>  <m_score__min__energy>  (3) 
-8.4900000000000002

>  <m_primary>  (3) 
energy

>  <rmsd>  (3) 
2.073077828095488

>  <m_score__min__rmsd>  (3) 
2.073077828095488

>  <meeko>  (3) 
{"free_energy": -8.29, "intermolecular_energy": -10.68, "internal_energy": -2.28, "cluster_size": 18, "cluster_id": 1, "rank_in_cluster": 5}

>  <energy>  (3) 
-8.38

>  <cluster_rmsd>  (3) 
0.56

>  <cluster>  (3) 
1

$$$$

     RDKit          3D

 53 56  0  0  0  0  0  0  0  0999 V2000
  139.5310   71.1890  221.1590 O   0  0  0  0  0  0  0  0  0  0  0  0
  139.4950   71.7740  222.2710 C   0  0  0  0  0  0  0  0  0  0  0  0
  139.2860   73.1790  222.4100 N   0  0  0  0  0  0  0  0  0  0  0  0
  139.0970   74.0420  221.2400 C   0  0  0  0  0  0  0  0  0  0  0  0
  138.9750   75.4120  221.7430 C   0  0  0  0  0  0  0  0  0  0  0  0
  137.9910   75.7040  222.4910 O   0  0  0  0  0  0  0  0  0  0  0  0
  139.8790   76.4700  221.4620 N   0  0  0  0  0  0  0  0  0  0  0  0
  141.0640   76.7210  222.2930 C   0  0  0  0  0  0  0  0  0  0  0  0
  140.9510   78.2550  222.3830 C   0  0  2  0  0  0  0  0  0  0  0  0
  139.7400   78.5160  223.0090 O   0  0  0  0  0  0  0  0  0  0  0  0
  140.8370   78.5520  220.8800 C   0  0  0  0  0  0  0  0  0  0  0  0
  139.8630   77.4650  220.4370 C   0  0  1  0  0  0  0  0  0  0  0  0
  140.1920   76.9810  219.0470 C   0  0  0  0  0  0  0  0  0  0  0  0
  141.1350   76.0580  218.8650 O   0  0  0  0  0  0  0  0  0  0  0  0
  142.0970   75.3240  219.3950 C   0  0  0  0  0  0  0  0  0  0  0  0
  142.0510   74.0140  219.8210 C   0  0  0  0  0  0  0  0  0  0  0  0
  143.1160   73.3350  220.3650 C   0  0  0  0  0  0  0  0  0  0  0  0
  144.3130   73.9920  220.4990 C   0  0  0  0  0  0  0  0  0  0  0  0
  145.6610   73.1390  221.1850 Cl  0  0  0  0  0  0  0  0  0  0  0  0
  144.4330   75.2970  220.0960 C   0  0  0  0  0  0  0  0  0  0  0  0
  143.3580   75.9460  219.5600 C   0  0  0  0  0  0  0  0  0  0  0  0
  139.6790   70.9700  223.4780 C   0  0  0  0  0  0  0  0  0  0  0  0
  139.3510   69.6400  223.5190 C   0  0  0  0  0  0  0  0  0  0  0  0
  139.5040   68.8380  224.6300 C   0  0  0  0  0  0  0  0  0  0  0  0
  140.0210   69.4270  225.7590 C   0  0  0  0  0  0  0  0  0  0  0  0
  140.1810   68.6370  226.8790 C   0  0  0  0  0  0  0  0  0  0  0  0
  140.6980   69.2060  228.0190 C   0  0  0  0  0  0  0  0  0  0  0  0
  140.8490   68.4300  229.0990 F   0  0  0  0  0  0  0  0  0  0  0  0
  141.0310   70.5380  227.9910 C   0  0  0  0  0  0  0  0  0  0  0  0
  140.8700   71.3350  226.8620 C   0  0  0  0  0  0  0  0  0  0  0  0
  140.3530   70.7640  225.7220 C   0  0  0  0  0  0  0  0  0  0  0  0
  140.1880   71.5140  224.6150 N   0  0  0  0  0  0  0  0  0  0  0  0
  139.2730   73.5720  223.3830 H   0  0  0  0  0  0  0  0  0  0  0  0
  139.9623   73.9614  220.5657 H   0  0  0  0  0  0  0  0  0  0  0  0
  138.2022   73.7479  220.6718 H   0  0  0  0  0  0  0  0  0  0  0  0
  140.9890   76.2403  223.2796 H   0  0  0  0  0  0  0  0  0  0  0  0
  142.0157   76.3319  221.9020 H   0  0  0  0  0  0  0  0  0  0  0  0
  141.7399   78.8098  222.9120 H   0  0  0  0  0  0  0  0  0  0  0  0
  139.1300   77.7530  222.9340 H   0  0  0  0  0  0  0  0  0  0  0  0
  140.4296   79.5573  220.6974 H   0  0  0  0  0  0  0  0  0  0  0  0
  141.7974   78.5438  220.3438 H   0  0  0  0  0  0  0  0  0  0  0  0
  138.8297   77.8278  220.3343 H   0  0  0  0  0  0  0  0  0  0  0  0
  139.2621   76.5710  218.6261 H   0  0  0  0  0  0  0  0  0  0  0  0
  140.6180   77.8733  218.5649 H   0  0  0  0  0  0  0  0  0  0  0  0
  141.0976   73.4750  219.7189 H   0  0  0  0  0  0  0  0  0  0  0  0
  143.0105   72.2881  220.6857 H   0  0  0  0  0  0  0  0  0  0  0  0
  145.3943   75.8205  220.2044 H   0  0  0  0  0  0  0  0  0  0  0  0
  143.4763   76.9930  219.2440 H   0  0  0  0  0  0  0  0  0  0  0  0
  138.9393   69.1830  222.6070 H   0  0  0  0  0  0  0  0  0  0  0  0
  139.2247   67.7742  224.6135 H   0  0  0  0  0  0  0  0  0  0  0  0
  139.9006   67.5735  226.8602 H   0  0  0  0  0  0  0  0  0  0  0  0
  141.4437   70.9955  228.9023 H   0  0  0  0  0  0  0  0  0  0  0  0
  141.1500   72.3986  226.8804 H   0  0  0  0  0  0  0  0  0  0  0  0
  1  2  2  0
  2  3  1  0
  3  4  1  0
  4  5  1  0
  5  6  2  0
  5  7  1  0
  7  8  1  0
  8  9  1  0
  9 10  1  0
  9 11  1  0
 11 12  1  0
 12 13  1  0
 13 14  1  0
 14 15  1  0
 15 16  2  0
 16 17  1  0
 17 18  2  0
 18 19  1  0
 18 20  1  0
 20 21  2  0
  2 22  1  0
 22 23  2  0
 23 24  1  0
 24 25  2  0
 25 26  1  0
 26 27  2  0
 27 28  1  0
 27 29  1  0
 29 30  2  0
 30 31  1  0
 31 32  2  0
 12  7  1  0
 21 15  1  0
 32 22  1  0
 31 25  1  0
  3 33  1  0
  4 34  1  0
  4 35  1  0
  8 36  1  0
  8 37  1  0
  9 38  1  1
 10 39  1  0
 11 40  1  0
 11 41  1  0
 12 42  1  6
 13 43  1  0
 13 44  1  0
 16 45  1  0
 17 46  1  0
 20 47  1  0
 21 48  1  0
 23 49  1  0
 24 50  1  0
 26 51  1  0
 29 52  1  0
 30 53  1  0
M  END
>  <smiles>  (4) 
O=C(NCC(=O)N1C[C@H](O)C[C@H]1COc1ccc(Cl)cc1)c1ccc2cc(F)ccc2n1

>  <score_type>  (4) 
oracle

>  <origin>  (4) 
autodockgpu

>  <m_score__min__energy>  (4) 
-8.4900000000000002

>  <m_primary>  (4) 
energy

>  <rmsd>  (4) 
2.4326546649892995

>  <m_score__min__rmsd>  (4) 
2.4326546649892995

>  <meeko>  (4) 
{"free_energy": -7.47, "intermolecular_energy": -9.86, "internal_energy": -2.72, "cluster_size": 15, "cluster_id": 3, "rank_in_cluster": 10}

>  <energy>  (4) 
-8.38

>  <cluster_rmsd>  (4) 
1.78

>  <cluster>  (4) 
1

$$$$

     RDKit          3D

 53 56  0  0  0  0  0  0  0  0999 V2000
  140.8180   71.2340  221.8710 O   0  0  0  0  0  0  0  0  0  0  0  0
  140.0750   71.6430  222.7990 C   0  0  0  0  0  0  0  0  0  0  0  0
  139.0510   72.6200  222.6090 N   0  0  0  0  0  0  0  0  0  0  0  0
  138.8000   73.2170  221.2940 C   0  0  0  0  0  0  0  0  0  0  0  0
  139.8130   74.2570  221.1040 C   0  0  0  0  0  0  0  0  0  0  0  0
  139.8400   75.2400  221.9080 O   0  0  0  0  0  0  0  0  0  0  0  0
  140.7930   74.2670  220.0770 N   0  0  0  0  0  0  0  0  0  0  0  0
  140.7450   73.3300  218.9470 C   0  0  0  0  0  0  0  0  0  0  0  0
  142.2380   72.9490  218.9100 C   0  0  2  0  0  0  0  0  0  0  0  0
  142.5160   72.3620  220.1370 O   0  0  0  0  0  0  0  0  0  0  0  0
  142.8220   74.3690  218.8660 C   0  0  0  0  0  0  0  0  0  0  0  0
  141.9580   75.0770  219.9040 C   0  0  1  0  0  0  0  0  0  0  0  0
  141.7080   76.5110  219.5100 C   0  0  0  0  0  0  0  0  0  0  0  0
  141.2640   77.3860  220.4100 O   0  0  0  0  0  0  0  0  0  0  0  0
  141.5390   78.4000  221.2120 C   0  0  0  0  0  0  0  0  0  0  0  0
  141.8900   79.6910  220.8860 C   0  0  0  0  0  0  0  0  0  0  0  0
  142.1590   80.6800  221.8020 C   0  0  0  0  0  0  0  0  0  0  0  0
  142.0760   80.3760  223.1390 C   0  0  0  0  0  0  0  0  0  0  0  0
  142.4140   81.6200  224.3010 Cl  0  0  0  0  0  0  0  0  0  0  0  0
  141.7310   79.1100  223.5370 C   0  0  0  0  0  0  0  0  0  0  0  0
  141.4690   78.1490  222.6040 C   0  0  0  0  0  0  0  0  0  0  0  0
  140.2750   71.0870  224.1360 C   0  0  0  0  0  0  0  0  0  0  0  0
  140.7320   71.8510  225.1770 C   0  0  0  0  0  0  0  0  0  0  0  0
  140.9370   71.3760  226.4550 C   0  0  0  0  0  0  0  0  0  0  0  0
  140.6600   70.0490  226.6800 C   0  0  0  0  0  0  0  0  0  0  0  0
  140.8600   69.5590  227.9540 C   0  0  0  0  0  0  0  0  0  0  0  0
  140.5890   68.2340  228.2010 C   0  0  0  0  0  0  0  0  0  0  0  0
  140.7870   67.7700  229.4410 F   0  0  0  0  0  0  0  0  0  0  0  0
  140.1310   67.4570  227.1660 C   0  0  0  0  0  0  0  0  0  0  0  0
  139.9290   67.9510  225.8810 C   0  0  0  0  0  0  0  0  0  0  0  0
  140.2000   69.2770  225.6350 C   0  0  0  0  0  0  0  0  0  0  0  0
  140.0130   69.7790  224.4000 N   0  0  0  0  0  0  0  0  0  0  0  0
  138.4840   72.8940  223.4480 H   0  0  0  0  0  0  0  0  0  0  0  0
  138.8888   72.4530  220.5076 H   0  0  0  0  0  0  0  0  0  0  0  0
  137.7853   73.6379  221.2377 H   0  0  0  0  0  0  0  0  0  0  0  0
  140.1001   72.4631  219.1534 H   0  0  0  0  0  0  0  0  0  0  0  0
  140.3283   73.7289  218.0104 H   0  0  0  0  0  0  0  0  0  0  0  0
  142.5885   72.2729  218.1162 H   0  0  0  0  0  0  0  0  0  0  0  0
  141.6920   72.1480  220.6230 H   0  0  0  0  0  0  0  0  0  0  0  0
  143.8841   74.3771  219.1523 H   0  0  0  0  0  0  0  0  0  0  0  0
  142.8028   74.8343  217.8695 H   0  0  0  0  0  0  0  0  0  0  0  0
  142.4516   75.1724  220.8824 H   0  0  0  0  0  0  0  0  0  0  0  0
  142.6616   76.9053  219.1290 H   0  0  0  0  0  0  0  0  0  0  0  0
  140.8699   76.4334  218.8018 H   0  0  0  0  0  0  0  0  0  0  0  0
  141.9600   79.9487  219.8189 H   0  0  0  0  0  0  0  0  0  0  0  0
  142.4346   81.6924  221.4717 H   0  0  0  0  0  0  0  0  0  0  0  0
  141.6654   78.8689  224.6083 H   0  0  0  0  0  0  0  0  0  0  0  0
  141.1928   77.1408  222.9464 H   0  0  0  0  0  0  0  0  0  0  0  0
  140.9493   72.9113  224.9808 H   0  0  0  0  0  0  0  0  0  0  0  0
  141.3059   72.0302  227.2587 H   0  0  0  0  0  0  0  0  0  0  0  0
  141.2289   70.2152  228.7560 H   0  0  0  0  0  0  0  0  0  0  0  0
  139.9140   66.3965  227.3613 H   0  0  0  0  0  0  0  0  0  0  0  0
  139.5603   67.2949  225.0787 H   0  0  0  0  0  0  0  0  0  0  0  0
  1  2  2  0
  2  3  1  0
  3  4  1  0
  4  5  1  0
  5  6  2  0
  5  7  1  0
  7  8  1  0
  8  9  1  0
  9 10  1  0
  9 11  1  0
 11 12  1  0
 12 13  1  0
 13 14  1  0
 14 15  1  0
 15 16  2  0
 16 17  1  0
 17 18  2  0
 18 19  1  0
 18 20  1  0
 20 21  2  0
  2 22  1  0
 22 23  2  0
 23 24  1  0
 24 25  2  0
 25 26  1  0
 26 27  2  0
 27 28  1  0
 27 29  1  0
 29 30  2  0
 30 31  1  0
 31 32  2  0
 12  7  1  0
 21 15  1  0
 32 22  1  0
 31 25  1  0
  3 33  1  0
  4 34  1  0
  4 35  1  0
  8 36  1  0
  8 37  1  0
  9 38  1  6
 10 39  1  0
 11 40  1  0
 11 41  1  0
 12 42  1  1
 13 43  1  0
 13 44  1  0
 16 45  1  0
 17 46  1  0
 20 47  1  0
 21 48  1  0
 23 49  1  0
 24 50  1  0
 26 51  1  0
 29 52  1  0
 30 53  1  0
M  END
>  <smiles>  (5) 
O=C(NCC(=O)N1C[C@H](O)C[C@H]1COc1ccc(Cl)cc1)c1ccc2cc(F)ccc2n1

>  <score_type>  (5) 
oracle

>  <origin>  (5) 
autodockgpu

>  <m_score__min__energy>  (5) 
-8.4900000000000002

>  <m_primary>  (5) 
energy

>  <rmsd>  (5) 
2.9278796971302894

>  <m_score__min__rmsd>  (5) 
2.9278796971302894

>  <meeko>  (5) 
{"free_energy": -7.92, "intermolecular_energy": -10.31, "internal_energy": -2.19, "cluster_size": 18, "cluster_id": 1, "rank_in_cluster": 9}

>  <energy>  (5) 
-8.29

>  <cluster_rmsd>  (5) 
0.83

>  <cluster>  (5) 
1

$$$$

     RDKit          3D

 53 56  0  0  0  0  0  0  0  0999 V2000
  143.3050   75.8500  218.1800 O   0  0  0  0  0  0  0  0  0  0  0  0
  142.9740   76.1400  219.3580 C   0  0  0  0  0  0  0  0  0  0  0  0
  142.9680   75.1910  220.4240 N   0  0  0  0  0  0  0  0  0  0  0  0
  143.3550   73.7950  220.2060 C   0  0  0  0  0  0  0  0  0  0  0  0
  142.3130   72.9680  220.8190 C   0  0  0  0  0  0  0  0  0  0  0  0
  142.6120   71.7990  221.2130 O   0  0  0  0  0  0  0  0  0  0  0  0
  140.9630   73.3650  221.0150 N   0  0  0  0  0  0  0  0  0  0  0  0
  140.3020   74.3340  220.1330 C   0  0  0  0  0  0  0  0  0  0  0  0
  139.5980   75.1760  221.2150 C   0  0  2  0  0  0  0  0  0  0  0  0
  140.6070   75.7090  222.0050 O   0  0  0  0  0  0  0  0  0  0  0  0
  138.9000   74.0290  221.9610 C   0  0  0  0  0  0  0  0  0  0  0  0
  140.0160   72.9910  222.0180 C   0  0  1  0  0  0  0  0  0  0  0  0
  139.4590   71.5940  221.9050 C   0  0  0  0  0  0  0  0  0  0  0  0
  139.3170   70.8390  222.9930 O   0  0  0  0  0  0  0  0  0  0  0  0
  139.7530   70.5280  224.2010 C   0  0  0  0  0  0  0  0  0  0  0  0
  140.5670   71.2550  225.0420 C   0  0  0  0  0  0  0  0  0  0  0  0
  140.9670   70.8400  226.2900 C   0  0  0  0  0  0  0  0  0  0  0  0
  140.5340   69.6190  226.7440 C   0  0  0  0  0  0  0  0  0  0  0  0
  141.0350   69.0890  228.3190 Cl  0  0  0  0  0  0  0  0  0  0  0  0
  139.7200   68.8410  225.9620 C   0  0  0  0  0  0  0  0  0  0  0  0
  139.3390   69.2800  224.7270 C   0  0  0  0  0  0  0  0  0  0  0  0
  142.5760   77.5170  219.6410 C   0  0  0  0  0  0  0  0  0  0  0  0
  142.5560   78.4810  218.6680 C   0  0  0  0  0  0  0  0  0  0  0  0
  142.1890   79.7920  218.8820 C   0  0  0  0  0  0  0  0  0  0  0  0
  141.8210   80.1370  220.1610 C   0  0  0  0  0  0  0  0  0  0  0  0
  141.4510   81.4450  220.3920 C   0  0  0  0  0  0  0  0  0  0  0  0
  141.0790   81.8110  221.6640 C   0  0  0  0  0  0  0  0  0  0  0  0
  140.7210   83.0840  221.8760 F   0  0  0  0  0  0  0  0  0  0  0  0
  141.0950   80.8550  222.6490 C   0  0  0  0  0  0  0  0  0  0  0  0
  141.4690   79.5350  222.4170 C   0  0  0  0  0  0  0  0  0  0  0  0
  141.8400   79.1700  221.1440 C   0  0  0  0  0  0  0  0  0  0  0  0
  142.2060   77.8980  220.8930 N   0  0  0  0  0  0  0  0  0  0  0  0
  142.6750   75.5330  221.3720 H   0  0  0  0  0  0  0  0  0  0  0  0
  143.4213   73.5840  219.1285 H   0  0  0  0  0  0  0  0  0  0  0  0
  144.3393   73.5837  220.6493 H   0  0  0  0  0  0  0  0  0  0  0  0
  141.0239   74.9255  219.5507 H   0  0  0  0  0  0  0  0  0  0  0  0
  139.6496   73.9085  219.3562 H   0  0  0  0  0  0  0  0  0  0  0  0
  138.9392   75.9972  220.8963 H   0  0  0  0  0  0  0  0  0  0  0  0
  141.1610   76.3390  221.4980 H   0  0  0  0  0  0  0  0  0  0  0  0
  138.5838   74.3368  222.9686 H   0  0  0  0  0  0  0  0  0  0  0  0
  137.9766   73.6735  221.4804 H   0  0  0  0  0  0  0  0  0  0  0  0
  140.5375   72.9720  222.9863 H   0  0  0  0  0  0  0  0  0  0  0  0
  138.4610   71.6869  221.4517 H   0  0  0  0  0  0  0  0  0  0  0  0
  140.2314   71.0621  221.3301 H   0  0  0  0  0  0  0  0  0  0  0  0
  140.9213   72.2353  224.6905 H   0  0  0  0  0  0  0  0  0  0  0  0
  141.6192   71.4719  226.9107 H   0  0  0  0  0  0  0  0  0  0  0  0
  139.3741   67.8636  226.3296 H   0  0  0  0  0  0  0  0  0  0  0  0
  138.6851   68.6397  224.1167 H   0  0  0  0  0  0  0  0  0  0  0  0
  142.8522   78.1897  217.6495 H   0  0  0  0  0  0  0  0  0  0  0  0
  142.1904   80.5295  218.0659 H   0  0  0  0  0  0  0  0  0  0  0  0
  141.4534   82.1812  219.5747 H   0  0  0  0  0  0  0  0  0  0  0  0
  140.7988   81.1456  223.6677 H   0  0  0  0  0  0  0  0  0  0  0  0
  141.4679   78.7990  223.2345 H   0  0  0  0  0  0  0  0  0  0  0  0
  1  2  2  0
  2  3  1  0
  3  4  1  0
  4  5  1  0
  5  6  2  0
  5  7  1  0
  7  8  1  0
  8  9  1  0
  9 10  1  0
  9 11  1  0
 11 12  1  0
 12 13  1  0
 13 14  1  0
 14 15  1  0
 15 16  2  0
 16 17  1  0
 17 18  2  0
 18 19  1  0
 18 20  1  0
 20 21  2  0
  2 22  1  0
 22 23  2  0
 23 24  1  0
 24 25  2  0
 25 26  1  0
 26 27  2  0
 27 28  1  0
 27 29  1  0
 29 30  2  0
 30 31  1  0
 31 32  2  0
 12  7  1  0
 21 15  1  0
 32 22  1  0
 31 25  1  0
  3 33  1  0
  4 34  1  0
  4 35  1  0
  8 36  1  0
  8 37  1  0
  9 38  1  6
 10 39  1  0
 11 40  1  0
 11 41  1  0
 12 42  1  1
 13 43  1  0
 13 44  1  0
 16 45  1  0
 17 46  1  0
 20 47  1  0
 21 48  1  0
 23 49  1  0
 24 50  1  0
 26 51  1  0
 29 52  1  0
 30 53  1  0
M  END
>  <smiles>  (6) 
O=C(NCC(=O)N1C[C@H](O)C[C@H]1COc1ccc(Cl)cc1)c1ccc2cc(F)ccc2n1

>  <score_type>  (6) 
oracle

>  <origin>  (6) 
autodockgpu

>  <m_score__min__energy>  (6) 
-8.4900000000000002

>  <m_primary>  (6) 
energy

>  <rmsd>  (6) 
8.801476821113607

>  <m_score__min__rmsd>  (6) 
8.801476821113607

>  <meeko>  (6) 
{"free_energy": -7.37, "intermolecular_energy": -9.76, "internal_energy": -3.17, "cluster_size": 1, "cluster_id": 6, "rank_in_cluster": 1}

>  <energy>  (6) 
-8.18

>  <cluster_rmsd>  (6) 
0.63

>  <cluster>  (6) 
1

$$$$

     RDKit          3D

 53 56  0  0  0  0  0  0  0  0999 V2000
  141.4490   72.2050  221.4260 O   0  0  0  0  0  0  0  0  0  0  0  0
  140.6370   72.5450  222.3240 C   0  0  0  0  0  0  0  0  0  0  0  0
  139.9660   73.8060  222.3350 N   0  0  0  0  0  0  0  0  0  0  0  0
  140.1890   74.7980  221.2810 C   0  0  0  0  0  0  0  0  0  0  0  0
  139.9450   76.1120  221.8810 C   0  0  0  0  0  0  0  0  0  0  0  0
  138.9460   76.2570  222.6510 O   0  0  0  0  0  0  0  0  0  0  0  0
  140.7450   77.2670  221.6740 N   0  0  0  0  0  0  0  0  0  0  0  0
  141.2800   78.0530  222.7930 C   0  0  0  0  0  0  0  0  0  0  0  0
  140.9760   79.4590  222.2420 C   0  0  2  0  0  0  0  0  0  0  0  0
  139.5970   79.5260  222.0960 O   0  0  0  0  0  0  0  0  0  0  0  0
  141.6410   79.3010  220.8670 C   0  0  0  0  0  0  0  0  0  0  0  0
  141.1670   77.9070  220.4680 C   0  0  1  0  0  0  0  0  0  0  0  0
  142.2280   77.1830  219.6780 C   0  0  0  0  0  0  0  0  0  0  0  0
  142.6710   75.9940  220.0830 O   0  0  0  0  0  0  0  0  0  0  0  0
  143.3040   74.8750  219.7780 C   0  0  0  0  0  0  0  0  0  0  0  0
  143.4550   74.2730  218.5480 C   0  0  0  0  0  0  0  0  0  0  0  0
  144.1370   73.0990  218.3340 C   0  0  0  0  0  0  0  0  0  0  0  0
  144.7140   72.4710  219.4100 C   0  0  0  0  0  0  0  0  0  0  0  0
  145.5770   70.9880  219.1470 Cl  0  0  0  0  0  0  0  0  0  0  0  0
  144.6060   73.0130  220.6650 C   0  0  0  0  0  0  0  0  0  0  0  0
  143.9220   74.1810  220.8470 C   0  0  0  0  0  0  0  0  0  0  0  0
  140.3720   71.6000  223.4060 C   0  0  0  0  0  0  0  0  0  0  0  0
  139.7370   70.4060  223.1860 C   0  0  0  0  0  0  0  0  0  0  0  0
  139.4630   69.4810  224.1710 C   0  0  0  0  0  0  0  0  0  0  0  0
  139.8620   69.7920  225.4490 C   0  0  0  0  0  0  0  0  0  0  0  0
  139.5960   68.8750  226.4450 C   0  0  0  0  0  0  0  0  0  0  0  0
  139.9870   69.1670  227.7310 C   0  0  0  0  0  0  0  0  0  0  0  0
  139.7240   68.2700  228.6900 F   0  0  0  0  0  0  0  0  0  0  0  0
  140.6250   70.3600  227.9650 C   0  0  0  0  0  0  0  0  0  0  0  0
  140.8930   71.2840  226.9600 C   0  0  0  0  0  0  0  0  0  0  0  0
  140.5020   70.9920  225.6750 C   0  0  0  0  0  0  0  0  0  0  0  0
  140.7510   71.8700  224.6840 N   0  0  0  0  0  0  0  0  0  0  0  0
  139.3070   73.9940  223.1290 H   0  0  0  0  0  0  0  0  0  0  0  0
  141.2241   74.7351  220.9141 H   0  0  0  0  0  0  0  0  0  0  0  0
  139.5200   74.6234  220.4254 H   0  0  0  0  0  0  0  0  0  0  0  0
  140.7476   77.8516  223.7342 H   0  0  0  0  0  0  0  0  0  0  0  0
  142.3296   77.8579  223.0581 H   0  0  0  0  0  0  0  0  0  0  0  0
  141.3040   80.3334  222.8232 H   0  0  0  0  0  0  0  0  0  0  0  0
  139.1810   78.6530  222.2490 H   0  0  0  0  0  0  0  0  0  0  0  0
  141.2885   80.0650  220.1584 H   0  0  0  0  0  0  0  0  0  0  0  0
  142.7344   79.4206  220.8776 H   0  0  0  0  0  0  0  0  0  0  0  0
  140.3119   77.9238  219.7763 H   0  0  0  0  0  0  0  0  0  0  0  0
  141.8265   77.0424  218.6636 H   0  0  0  0  0  0  0  0  0  0  0  0
  143.1099   77.8306  219.7909 H   0  0  0  0  0  0  0  0  0  0  0  0
  142.9983   74.7659  217.6771 H   0  0  0  0  0  0  0  0  0  0  0  0
  144.2187   72.6722  217.3235 H   0  0  0  0  0  0  0  0  0  0  0  0
  145.0700   72.5073  221.5246 H   0  0  0  0  0  0  0  0  0  0  0  0
  143.8482   74.5985  221.8620 H   0  0  0  0  0  0  0  0  0  0  0  0
  139.4259   70.1703  222.1576 H   0  0  0  0  0  0  0  0  0  0  0  0
  138.9479   68.5359  223.9441 H   0  0  0  0  0  0  0  0  0  0  0  0
  139.0819   67.9300  226.2154 H   0  0  0  0  0  0  0  0  0  0  0  0
  140.9382   70.5957  228.9928 H   0  0  0  0  0  0  0  0  0  0  0  0
  141.4073   72.2290  227.1891 H   0  0  0  0  0  0  0  0  0  0  0  0
  1  2  2  0
  2  3  1  0
  3  4  1  0
  4  5  1  0
  5  6  2  0
  5  7  1  0
  7  8  1  0
  8  9  1  0
  9 10  1  0
  9 11  1  0
 11 12  1  0
 12 13  1  0
 13 14  1  0
 14 15  1  0
 15 16  2  0
 16 17  1  0
 17 18  2  0
 18 19  1  0
 18 20  1  0
 20 21  2  0
  2 22  1  0
 22 23  2  0
 23 24  1  0
 24 25  2  0
 25 26  1  0
 26 27  2  0
 27 28  1  0
 27 29  1  0
 29 30  2  0
 30 31  1  0
 31 32  2  0
 12  7  1  0
 21 15  1  0
 32 22  1  0
 31 25  1  0
  3 33  1  0
  4 34  1  0
  4 35  1  0
  8 36  1  0
  8 37  1  0
  9 38  1  1
 10 39  1  0
 11 40  1  0
 11 41  1  0
 12 42  1  6
 13 43  1  0
 13 44  1  0
 16 45  1  0
 17 46  1  0
 20 47  1  0
 21 48  1  0
 23 49  1  0
 24 50  1  0
 26 51  1  0
 29 52  1  0
 30 53  1  0
M  END
>  <smiles>  (7) 
O=C(NCC(=O)N1C[C@H](O)C[C@H]1COc1ccc(Cl)cc1)c1ccc2cc(F)ccc2n1

>  <score_type>  (7) 
oracle

>  <origin>  (7) 
autodockgpu

>  <m_score__min__energy>  (7) 
-8.4900000000000002

>  <m_primary>  (7) 
energy

>  <rmsd>  (7) 
2.9747603607922577

>  <m_score__min__rmsd>  (7) 
2.9747603607922577

>  <meeko>  (7) 
{"free_energy": -7.63, "intermolecular_energy": -10.01, "internal_energy": -2.64, "cluster_size": 15, "cluster_id": 3, "rank_in_cluster": 7}

>  <energy>  (7) 
-8.05

>  <cluster_rmsd>  (7) 
0.41

>  <cluster>  (7) 
1

$$$$

     RDKit          3D

 53 56  0  0  0  0  0  0  0  0999 V2000
  139.5740   70.6070  221.3440 O   0  0  0  0  0  0  0  0  0  0  0  0
  139.5520   71.2360  222.4320 C   0  0  0  0  0  0  0  0  0  0  0  0
  139.4350   72.6570  222.5120 N   0  0  0  0  0  0  0  0  0  0  0  0
  139.3320   73.4840  221.3070 C   0  0  0  0  0  0  0  0  0  0  0  0
  140.1610   74.6680  221.5370 C   0  0  0  0  0  0  0  0  0  0  0  0
  141.4230   74.5350  221.5720 O   0  0  0  0  0  0  0  0  0  0  0  0
  139.6690   75.9870  221.7300 N   0  0  0  0  0  0  0  0  0  0  0  0
  140.0490   77.0960  220.8460 C   0  0  0  0  0  0  0  0  0  0  0  0
  140.2990   78.1660  221.9260 C   0  0  2  0  0  0  0  0  0  0  0  0
  141.3290   77.6790  222.7190 O   0  0  0  0  0  0  0  0  0  0  0  0
  138.9610   78.0370  222.6700 C   0  0  0  0  0  0  0  0  0  0  0  0
  138.7990   76.5220  222.7300 C   0  0  1  0  0  0  0  0  0  0  0  0
  137.3480   76.1300  222.6150 C   0  0  0  0  0  0  0  0  0  0  0  0
  136.6300   75.8900  223.7110 O   0  0  0  0  0  0  0  0  0  0  0  0
  135.7980   75.0850  224.3470 C   0  0  0  0  0  0  0  0  0  0  0  0
  135.5820   73.7370  224.1560 C   0  0  0  0  0  0  0  0  0  0  0  0
  134.6850   72.9830  224.8750 C   0  0  0  0  0  0  0  0  0  0  0  0
  133.9460   73.6000  225.8540 C   0  0  0  0  0  0  0  0  0  0  0  0
  132.8130   72.6530  226.7650 Cl  0  0  0  0  0  0  0  0  0  0  0  0
  134.1080   74.9390  226.0990 C   0  0  0  0  0  0  0  0  0  0  0  0
  135.0070   75.6630  225.3690 C   0  0  0  0  0  0  0  0  0  0  0  0
  139.6520   70.4690  223.6720 C   0  0  0  0  0  0  0  0  0  0  0  0
  139.1980   69.1800  223.7660 C   0  0  0  0  0  0  0  0  0  0  0  0
  139.2690   68.4140  224.9100 C   0  0  0  0  0  0  0  0  0  0  0  0
  139.8350   68.9980  226.0180 C   0  0  0  0  0  0  0  0  0  0  0  0
  139.9140   68.2440  227.1710 C   0  0  0  0  0  0  0  0  0  0  0  0
  140.4770   68.8090  228.2910 C   0  0  0  0  0  0  0  0  0  0  0  0
  140.5480   68.0680  229.4040 F   0  0  0  0  0  0  0  0  0  0  0  0
  140.9360   70.1000  228.2110 C   0  0  0  0  0  0  0  0  0  0  0  0
  140.8570   70.8610  227.0480 C   0  0  0  0  0  0  0  0  0  0  0  0
  140.2930   70.2950  225.9280 C   0  0  0  0  0  0  0  0  0  0  0  0
  140.2050   71.0100  224.7910 N   0  0  0  0  0  0  0  0  0  0  0  0
  139.4260   73.0870  223.4690 H   0  0  0  0  0  0  0  0  0  0  0  0
  139.7004   72.9274  220.4326 H   0  0  0  0  0  0  0  0  0  0  0  0
  138.2873   73.7652  221.1084 H   0  0  0  0  0  0  0  0  0  0  0  0
  140.9560   76.8722  220.2652 H   0  0  0  0  0  0  0  0  0  0  0  0
  139.3182   77.3613  220.0679 H   0  0  0  0  0  0  0  0  0  0  0  0
  140.5617   79.1851  221.6060 H   0  0  0  0  0  0  0  0  0  0  0  0
  141.6740   76.8310  222.3720 H   0  0  0  0  0  0  0  0  0  0  0  0
  139.0159   78.4765  223.6769 H   0  0  0  0  0  0  0  0  0  0  0  0
  138.1236   78.5613  222.1864 H   0  0  0  0  0  0  0  0  0  0  0  0
  139.0936   76.0947  223.6998 H   0  0  0  0  0  0  0  0  0  0  0  0
  136.8416   76.9448  222.0769 H   0  0  0  0  0  0  0  0  0  0  0  0
  137.3921   75.1467  222.1239 H   0  0  0  0  0  0  0  0  0  0  0  0
  136.1674   73.2299  223.3749 H   0  0  0  0  0  0  0  0  0  0  0  0
  134.5621   71.9092  224.6705 H   0  0  0  0  0  0  0  0  0  0  0  0
  133.5139   75.4304  226.8836 H   0  0  0  0  0  0  0  0  0  0  0  0
  135.1208   76.7359  225.5833 H   0  0  0  0  0  0  0  0  0  0  0  0
  138.7476   68.7267  222.8706 H   0  0  0  0  0  0  0  0  0  0  0  0
  138.8897   67.3818  224.9349 H   0  0  0  0  0  0  0  0  0  0  0  0
  139.5343   67.2119  227.1937 H   0  0  0  0  0  0  0  0  0  0  0  0
  141.3865   70.5537  229.1061 H   0  0  0  0  0  0  0  0  0  0  0  0
  141.2374   71.8929  227.0250 H   0  0  0  0  0  0  0  0  0  0  0  0
  1  2  2  0
  2  3  1  0
  3  4  1  0
  4  5  1  0
  5  6  2  0
  5  7  1  0
  7  8  1  0
  8  9  1  0
  9 10  1  0
  9 11  1  0
 11 12  1  0
 12 13  1  0
 13 14  1  0
 14 15  1  0
 15 16  2  0
 16 17  1  0
 17 18  2  0
 18 19  1  0
 18 20  1  0
 20 21  2  0
  2 22  1  0
 22 23  2  0
 23 24  1  0
 24 25  2  0
 25 26  1  0
 26 27  2  0
 27 28  1  0
 27 29  1  0
 29 30  2  0
 30 31  1  0
 31 32  2  0
 12  7  1  0
 21 15  1  0
 32 22  1  0
 31 25  1  0
  3 33  1  0
  4 34  1  0
  4 35  1  0
  8 36  1  0
  8 37  1  0
  9 38  1  6
 10 39  1  0
 11 40  1  0
 11 41  1  0
 12 42  1  1
 13 43  1  0
 13 44  1  0
 16 45  1  0
 17 46  1  0
 20 47  1  0
 21 48  1  0
 23 49  1  0
 24 50  1  0
 26 51  1  0
 29 52  1  0
 30 53  1  0
M  END
>  <smiles>  (8) 
O=C(NCC(=O)N1C[C@H](O)C[C@H]1COc1ccc(Cl)cc1)c1ccc2cc(F)ccc2n1

>  <score_type>  (8) 
oracle

>  <origin>  (8) 
autodockgpu

>  <m_score__min__energy>  (8) 
-8.4900000000000002

>  <m_primary>  (8) 
energy

>  <rmsd>  (8) 
2.5491938973357233

>  <m_score__min__rmsd>  (8) 
2.5491938973357233

>  <meeko>  (8) 
{"free_energy": -8.06, "intermolecular_energy": -10.45, "internal_energy": -1.9, "cluster_size": 4, "cluster_id": 2, "rank_in_cluster": 2}

>  <energy>  (8) 
-7.97

>  <cluster_rmsd>  (8) 
1.06

>  <cluster>  (8) 
1

$$$$

     RDKit          3D

 53 56  0  0  0  0  0  0  0  0999 V2000
  138.0170   72.0480  222.3190 O   0  0  0  0  0  0  0  0  0  0  0  0
  139.1960   71.8980  222.7280 C   0  0  0  0  0  0  0  0  0  0  0  0
  140.3200   72.5440  222.1290 N   0  0  0  0  0  0  0  0  0  0  0  0
  140.1630   73.4380  220.9790 C   0  0  0  0  0  0  0  0  0  0  0  0
  140.0780   74.7990  221.5120 C   0  0  0  0  0  0  0  0  0  0  0  0
  141.1250   75.3360  221.9890 O   0  0  0  0  0  0  0  0  0  0  0  0
  138.9000   75.5930  221.5470 N   0  0  0  0  0  0  0  0  0  0  0  0
  138.4350   76.2400  222.7800 C   0  0  0  0  0  0  0  0  0  0  0  0
  136.9360   75.9070  222.6530 C   0  0  2  0  0  0  0  0  0  0  0  0
  136.8470   74.5220  222.6580 O   0  0  0  0  0  0  0  0  0  0  0  0
  136.7160   76.4410  221.2300 C   0  0  0  0  0  0  0  0  0  0  0  0
  137.9580   75.9120  220.5210 C   0  0  1  0  0  0  0  0  0  0  0  0
  138.4350   76.8850  219.4720 C   0  0  0  0  0  0  0  0  0  0  0  0
  139.2010   77.9190  219.8160 O   0  0  0  0  0  0  0  0  0  0  0  0
  139.8820   78.5380  220.7630 C   0  0  0  0  0  0  0  0  0  0  0  0
  139.4100   79.2920  221.8160 C   0  0  0  0  0  0  0  0  0  0  0  0
  140.2070   79.9010  222.7560 C   0  0  0  0  0  0  0  0  0  0  0  0
  141.5690   79.7580  222.6530 C   0  0  0  0  0  0  0  0  0  0  0  0
  142.5810   80.5250  223.8370 Cl  0  0  0  0  0  0  0  0  0  0  0  0
  142.1090   79.0220  221.6310 C   0  0  0  0  0  0  0  0  0  0  0  0
  141.2930   78.4280  220.7120 C   0  0  0  0  0  0  0  0  0  0  0  0
  139.4200   71.0170  223.8720 C   0  0  0  0  0  0  0  0  0  0  0  0
  139.0070   69.7110  223.8730 C   0  0  0  0  0  0  0  0  0  0  0  0
  139.1940   68.8390  224.9250 C   0  0  0  0  0  0  0  0  0  0  0  0
  139.8380   69.3300  226.0350 C   0  0  0  0  0  0  0  0  0  0  0  0
  140.0330   68.4690  227.0960 C   0  0  0  0  0  0  0  0  0  0  0  0
  140.6770   68.9390  228.2170 C   0  0  0  0  0  0  0  0  0  0  0  0
  140.8600   68.0960  229.2400 F   0  0  0  0  0  0  0  0  0  0  0  0
  141.0960   70.2460  228.2290 C   0  0  0  0  0  0  0  0  0  0  0  0
  140.8990   71.1150  227.1590 C   0  0  0  0  0  0  0  0  0  0  0  0
  140.2560   70.6430  226.0380 C   0  0  0  0  0  0  0  0  0  0  0  0
  140.0540   71.4630  224.9890 N   0  0  0  0  0  0  0  0  0  0  0  0
  141.2640   72.3530  222.5450 H   0  0  0  0  0  0  0  0  0  0  0  0
  141.0295   73.3474  220.3074 H   0  0  0  0  0  0  0  0  0  0  0  0
  139.2631   73.1832  220.4000 H   0  0  0  0  0  0  0  0  0  0  0  0
  138.8852   75.7935  223.6789 H   0  0  0  0  0  0  0  0  0  0  0  0
  138.6827   77.3065  222.8856 H   0  0  0  0  0  0  0  0  0  0  0  0
  136.2441   76.2994  223.4128 H   0  0  0  0  0  0  0  0  0  0  0  0
  137.7100   74.1110  222.8730 H   0  0  0  0  0  0  0  0  0  0  0  0
  135.7948   76.0365  220.7854 H   0  0  0  0  0  0  0  0  0  0  0  0
  136.5924   77.5324  221.1710 H   0  0  0  0  0  0  0  0  0  0  0  0
  137.7664   74.9972  219.9410 H   0  0  0  0  0  0  0  0  0  0  0  0
  139.0044   76.3009  218.7340 H   0  0  0  0  0  0  0  0  0  0  0  0
  137.5047   77.3641  219.1331 H   0  0  0  0  0  0  0  0  0  0  0  0
  138.3210   79.4148  221.9106 H   0  0  0  0  0  0  0  0  0  0  0  0
  139.7637   80.4898  223.5726 H   0  0  0  0  0  0  0  0  0  0  0  0
  143.2003   78.9098  221.5512 H   0  0  0  0  0  0  0  0  0  0  0  0
  141.7488   77.8414  219.9008 H   0  0  0  0  0  0  0  0  0  0  0  0
  138.4930   69.3333  222.9768 H   0  0  0  0  0  0  0  0  0  0  0  0
  138.8434   67.7974  224.8776 H   0  0  0  0  0  0  0  0  0  0  0  0
  139.6806   67.4282  227.0462 H   0  0  0  0  0  0  0  0  0  0  0  0
  141.6108   70.6241  229.1246 H   0  0  0  0  0  0  0  0  0  0  0  0
  141.2499   72.1563  227.2089 H   0  0  0  0  0  0  0  0  0  0  0  0
  1  2  2  0
  2  3  1  0
  3  4  1  0
  4  5  1  0
  5  6  2  0
  5  7  1  0
  7  8  1  0
  8  9  1  0
  9 10  1  0
  9 11  1  0
 11 12  1  0
 12 13  1  0
 13 14  1  0
 14 15  1  0
 15 16  2  0
 16 17  1  0
 17 18  2  0
 18 19  1  0
 18 20  1  0
 20 21  2  0
  2 22  1  0
 22 23  2  0
 23 24  1  0
 24 25  2  0
 25 26  1  0
 26 27  2  0
 27 28  1  0
 27 29  1  0
 29 30  2  0
 30 31  1  0
 31 32  2  0
 12  7  1  0
 21 15  1  0
 32 22  1  0
 31 25  1  0
  3 33  1  0
  4 34  1  0
  4 35  1  0
  8 36  1  0
  8 37  1  0
  9 38  1  1
 10 39  1  0
 11 40  1  0
 11 41  1  0
 12 42  1  6
 13 43  1  0
 13 44  1  0
 16 45  1  0
 17 46  1  0
 20 47  1  0
 21 48  1  0
 23 49  1  0
 24 50  1  0
 26 51  1  0
 29 52  1  0
 30 53  1  0
M  END
>  <smiles>  (9) 
O=C(NCC(=O)N1C[C@H](O)C[C@H]1COc1ccc(Cl)cc1)c1ccc2cc(F)ccc2n1

>  <score_type>  (9) 
oracle

>  <origin>  (9) 
autodockgpu

>  <m_score__min__energy>  (9) 
-8.4900000000000002

>  <m_primary>  (9) 
energy

>  <rmsd>  (9) 
3.0040753207954

>  <m_score__min__rmsd>  (9) 
3.0040753207954

>  <meeko>  (9) 
{"free_energy": -7.51, "intermolecular_energy": -9.89, "internal_energy": -2.74, "cluster_size": 18, "cluster_id": 1, "rank_in_cluster": 15}

>  <energy>  (9) 
-7.92

>  <cluster_rmsd>  (9) 
1.04

>  <cluster>  (9) 
1

$$$$

     RDKit          3D

 53 56  0  0  0  0  0  0  0  0999 V2000
  140.5940   71.7500  221.1740 O   0  0  0  0  0  0  0  0  0  0  0  0
  139.9140   72.1250  222.1630 C   0  0  0  0  0  0  0  0  0  0  0  0
  139.0990   73.2970  222.1520 N   0  0  0  0  0  0  0  0  0  0  0  0
  139.0050   74.1510  220.9640 C   0  0  0  0  0  0  0  0  0  0  0  0
  140.1880   75.0140  220.9710 C   0  0  0  0  0  0  0  0  0  0  0  0
  140.2440   75.9670  221.8080 O   0  0  0  0  0  0  0  0  0  0  0  0
  141.3050   74.8790  220.1050 N   0  0  0  0  0  0  0  0  0  0  0  0
  141.5270   73.6670  219.3050 C   0  0  0  0  0  0  0  0  0  0  0  0
  143.0400   73.5120  219.5530 C   0  0  2  0  0  0  0  0  0  0  0  0
  143.1900   73.3380  220.9220 O   0  0  0  0  0  0  0  0  0  0  0  0
  143.4700   74.9330  219.1560 C   0  0  0  0  0  0  0  0  0  0  0  0
  142.3890   75.7690  219.8330 C   0  0  1  0  0  0  0  0  0  0  0  0
  142.0500   76.9830  219.0060 C   0  0  0  0  0  0  0  0  0  0  0  0
  141.6150   78.0960  219.5950 O   0  0  0  0  0  0  0  0  0  0  0  0
  141.7560   78.9670  220.5780 C   0  0  0  0  0  0  0  0  0  0  0  0
  141.8400   80.3410  220.5120 C   0  0  0  0  0  0  0  0  0  0  0  0
  141.9880   81.1650  221.6020 C   0  0  0  0  0  0  0  0  0  0  0  0
  142.0570   80.5970  222.8490 C   0  0  0  0  0  0  0  0  0  0  0  0
  142.2430   81.6320  224.2300 Cl  0  0  0  0  0  0  0  0  0  0  0  0
  141.9790   79.2360  222.9920 C   0  0  0  0  0  0  0  0  0  0  0  0
  141.8320   78.4420  221.8910 C   0  0  0  0  0  0  0  0  0  0  0  0
  139.9660   71.3180  223.3800 C   0  0  0  0  0  0  0  0  0  0  0  0
  139.5230   70.0220  223.4090 C   0  0  0  0  0  0  0  0  0  0  0  0
  139.5490   69.2180  224.5290 C   0  0  0  0  0  0  0  0  0  0  0  0
  140.0570   69.7700  225.6810 C   0  0  0  0  0  0  0  0  0  0  0  0
  140.0910   68.9780  226.8110 C   0  0  0  0  0  0  0  0  0  0  0  0
  140.5960   69.5100  227.9740 C   0  0  0  0  0  0  0  0  0  0  0  0
  140.6240   68.7330  229.0640 F   0  0  0  0  0  0  0  0  0  0  0  0
  141.0430   70.8080  227.9580 C   0  0  0  0  0  0  0  0  0  0  0  0
  141.0080   71.6070  226.8200 C   0  0  0  0  0  0  0  0  0  0  0  0
  140.5040   71.0730  225.6560 C   0  0  0  0  0  0  0  0  0  0  0  0
  140.4600   71.8260  224.5400 N   0  0  0  0  0  0  0  0  0  0  0  0
  138.5700   73.5250  223.0290 H   0  0  0  0  0  0  0  0  0  0  0  0
  138.9915   73.5338  220.0536 H   0  0  0  0  0  0  0  0  0  0  0  0
  138.0806   74.7470  220.9775 H   0  0  0  0  0  0  0  0  0  0  0  0
  140.9536   72.8081  219.6840 H   0  0  0  0  0  0  0  0  0  0  0  0
  141.2164   73.7236  218.2513 H   0  0  0  0  0  0  0  0  0  0  0  0
  143.5763   72.6994  219.0411 H   0  0  0  0  0  0  0  0  0  0  0  0
  142.3810   72.9580  221.3230 H   0  0  0  0  0  0  0  0  0  0  0  0
  144.4699   75.1752  219.5452 H   0  0  0  0  0  0  0  0  0  0  0  0
  143.5518   75.0936  218.0709 H   0  0  0  0  0  0  0  0  0  0  0  0
  142.7163   76.2048  220.7885 H   0  0  0  0  0  0  0  0  0  0  0  0
  142.9614   77.2534  218.4526 H   0  0  0  0  0  0  0  0  0  0  0  0
  141.1787   76.6523  218.4216 H   0  0  0  0  0  0  0  0  0  0  0  0
  141.7848   80.8104  219.5187 H   0  0  0  0  0  0  0  0  0  0  0  0
  142.0498   82.2562  221.4773 H   0  0  0  0  0  0  0  0  0  0  0  0
  142.0348   78.7837  223.9932 H   0  0  0  0  0  0  0  0  0  0  0  0
  141.7702   77.3525  222.0292 H   0  0  0  0  0  0  0  0  0  0  0  0
  139.1205   69.5951  222.4786 H   0  0  0  0  0  0  0  0  0  0  0  0
  139.1800   68.1821  224.5019 H   0  0  0  0  0  0  0  0  0  0  0  0
  139.7216   67.9423  226.7817 H   0  0  0  0  0  0  0  0  0  0  0  0
  141.4472   71.2355  228.8874 H   0  0  0  0  0  0  0  0  0  0  0  0
  141.3753   72.6435  226.8497 H   0  0  0  0  0  0  0  0  0  0  0  0
  1  2  2  0
  2  3  1  0
  3  4  1  0
  4  5  1  0
  5  6  2  0
  5  7  1  0
  7  8  1  0
  8  9  1  0
  9 10  1  0
  9 11  1  0
 11 12  1  0
 12 13  1  0
 13 14  1  0
 14 15  1  0
 15 16  2  0
 16 17  1  0
 17 18  2  0
 18 19  1  0
 18 20  1  0
 20 21  2  0
  2 22  1  0
 22 23  2  0
 23 24  1  0
 24 25  2  0
 25 26  1  0
 26 27  2  0
 27 28  1  0
 27 29  1  0
 29 30  2  0
 30 31  1  0
 31 32  2  0
 12  7  1  0
 21 15  1  0
 32 22  1  0
 31 25  1  0
  3 33  1  0
  4 34  1  0
  4 35  1  0
  8 36  1  0
  8 37  1  0
  9 38  1  6
 10 39  1  0
 11 40  1  0
 11 41  1  0
 12 42  1  1
 13 43  1  0
 13 44  1  0
 16 45  1  0
 17 46  1  0
 20 47  1  0
 21 48  1  0
 23 49  1  0
 24 50  1  0
 26 51  1  0
 29 52  1  0
 30 53  1  0
M  END
>  <smiles>  (10) 
O=C(NCC(=O)N1C[C@H](O)C[C@H]1COc1ccc(Cl)cc1)c1ccc2cc(F)ccc2n1

>  <score_type>  (10) 
oracle

>  <origin>  (10) 
autodockgpu

>  <m_score__min__energy>  (10) 
-8.4900000000000002

>  <m_primary>  (10) 
energy

>  <rmsd>  (10) 
2.0159261589649993

>  <m_score__min__rmsd>  (10) 
2.0159261589649993

>  <meeko>  (10) 
{"free_energy": -8.05, "intermolecular_energy": -10.44, "internal_energy": -2.31, "cluster_size": 18, "cluster_id": 1, "rank_in_cluster": 7}

>  <energy>  (10) 
-7.87

>  <cluster_rmsd>  (10) 
1.69

>  <cluster>  (10) 
1

$$$$

     RDKit          3D

 53 56  0  0  0  0  0  0  0  0999 V2000
  133.5940   69.6990  226.4710 O   0  0  0  0  0  0  0  0  0  0  0  0
  134.0920   70.7700  226.0400 C   0  0  0  0  0  0  0  0  0  0  0  0
  135.2250   70.8120  225.1720 N   0  0  0  0  0  0  0  0  0  0  0  0
  135.8890   69.5850  224.7240 C   0  0  0  0  0  0  0  0  0  0  0  0
  136.8660   69.9820  223.7080 C   0  0  0  0  0  0  0  0  0  0  0  0
  137.4160   71.1230  223.8010 O   0  0  0  0  0  0  0  0  0  0  0  0
  137.2640   69.1880  222.6000 N   0  0  0  0  0  0  0  0  0  0  0  0
  137.4330   69.7570  221.2570 C   0  0  0  0  0  0  0  0  0  0  0  0
  136.7340   68.6420  220.4540 C   0  0  2  0  0  0  0  0  0  0  0  0
  135.4230   68.6060  220.9060 O   0  0  0  0  0  0  0  0  0  0  0  0
  137.5160   67.4470  221.0210 C   0  0  0  0  0  0  0  0  0  0  0  0
  137.5470   67.7910  222.5060 C   0  0  1  0  0  0  0  0  0  0  0  0
  138.8400   67.3390  223.1360 C   0  0  0  0  0  0  0  0  0  0  0  0
  139.0990   67.6220  224.4120 O   0  0  0  0  0  0  0  0  0  0  0  0
  139.5180   68.5090  225.2970 C   0  0  0  0  0  0  0  0  0  0  0  0
  139.5890   68.3970  226.6680 C   0  0  0  0  0  0  0  0  0  0  0  0
  140.0430   69.3860  227.5080 C   0  0  0  0  0  0  0  0  0  0  0  0
  140.4590   70.5730  226.9580 C   0  0  0  0  0  0  0  0  0  0  0  0
  141.0350   71.8260  228.0120 Cl  0  0  0  0  0  0  0  0  0  0  0  0
  140.4180   70.7550  225.5990 C   0  0  0  0  0  0  0  0  0  0  0  0
  139.9620   69.7540  224.7900 C   0  0  0  0  0  0  0  0  0  0  0  0
  133.4760   72.0300  226.4520 C   0  0  0  0  0  0  0  0  0  0  0  0
  132.3080   72.0660  227.1660 C   0  0  0  0  0  0  0  0  0  0  0  0
  131.6870   73.2260  227.5780 C   0  0  0  0  0  0  0  0  0  0  0  0
  132.2940   74.4130  227.2430 C   0  0  0  0  0  0  0  0  0  0  0  0
  131.6850   75.5820  227.6490 C   0  0  0  0  0  0  0  0  0  0  0  0
  132.2760   76.7810  227.3240 C   0  0  0  0  0  0  0  0  0  0  0  0
  131.6760   77.9090  227.7240 F   0  0  0  0  0  0  0  0  0  0  0  0
  133.4470   76.7580  226.6090 C   0  0  0  0  0  0  0  0  0  0  0  0
  134.0620   75.5790  226.1990 C   0  0  0  0  0  0  0  0  0  0  0  0
  133.4700   74.3810  226.5240 C   0  0  0  0  0  0  0  0  0  0  0  0
  134.0450   73.2250  226.1400 N   0  0  0  0  0  0  0  0  0  0  0  0
  135.5640   71.7570  224.8680 H   0  0  0  0  0  0  0  0  0  0  0  0
  136.3977   69.0988  225.5695 H   0  0  0  0  0  0  0  0  0  0  0  0
  135.1617   68.8684  224.3148 H   0  0  0  0  0  0  0  0  0  0  0  0
  136.9253   70.7269  221.1498 H   0  0  0  0  0  0  0  0  0  0  0  0
  138.4668   69.9869  220.9596 H   0  0  0  0  0  0  0  0  0  0  0  0
  136.7184   68.7146  219.3565 H   0  0  0  0  0  0  0  0  0  0  0  0
  135.3250   67.9920  221.6640 H   0  0  0  0  0  0  0  0  0  0  0  0
  136.9907   66.4980  220.8379 H   0  0  0  0  0  0  0  0  0  0  0  0
  138.5090   67.3025  220.5703 H   0  0  0  0  0  0  0  0  0  0  0  0
  136.7861   67.2523  223.0897 H   0  0  0  0  0  0  0  0  0  0  0  0
  138.8719   66.2435  223.0420 H   0  0  0  0  0  0  0  0  0  0  0  0
  139.6000   67.9187  222.5916 H   0  0  0  0  0  0  0  0  0  0  0  0
  139.2597   67.4508  227.1221 H   0  0  0  0  0  0  0  0  0  0  0  0
  140.0723   69.2297  228.5964 H   0  0  0  0  0  0  0  0  0  0  0  0
  140.7524   71.7071  225.1611 H   0  0  0  0  0  0  0  0  0  0  0  0
  139.9388   69.9213  223.7030 H   0  0  0  0  0  0  0  0  0  0  0  0
  131.8349   71.1080  227.4276 H   0  0  0  0  0  0  0  0  0  0  0  0
  130.7474   73.2027  228.1495 H   0  0  0  0  0  0  0  0  0  0  0  0
  130.7458   75.5561  228.2211 H   0  0  0  0  0  0  0  0  0  0  0  0
  133.9213   77.7155  226.3479 H   0  0  0  0  0  0  0  0  0  0  0  0
  135.0014   75.6047  225.6273 H   0  0  0  0  0  0  0  0  0  0  0  0
  1  2  2  0
  2  3  1  0
  3  4  1  0
  4  5  1  0
  5  6  2  0
  5  7  1  0
  7  8  1  0
  8  9  1  0
  9 10  1  0
  9 11  1  0
 11 12  1  0
 12 13  1  0
 13 14  1  0
 14 15  1  0
 15 16  2  0
 16 17  1  0
 17 18  2  0
 18 19  1  0
 18 20  1  0
 20 21  2  0
  2 22  1  0
 22 23  2  0
 23 24  1  0
 24 25  2  0
 25 26  1  0
 26 27  2  0
 27 28  1  0
 27 29  1  0
 29 30  2  0
 30 31  1  0
 31 32  2  0
 12  7  1  0
 21 15  1  0
 32 22  1  0
 31 25  1  0
  3 33  1  0
  4 34  1  0
  4 35  1  0
  8 36  1  0
  8 37  1  0
  9 38  1  6
 10 39  1  0
 11 40  1  0
 11 41  1  0
 12 42  1  1
 13 43  1  0
 13 44  1  0
 16 45  1  0
 17 46  1  0
 20 47  1  0
 21 48  1  0
 23 49  1  0
 24 50  1  0
 26 51  1  0
 29 52  1  0
 30 53  1  0
M  END
>  <smiles>  (11) 
O=C(NCC(=O)N1C[C@H](O)C[C@H]1COc1ccc(Cl)cc1)c1ccc2cc(F)ccc2n1

>  <score_type>  (11) 
oracle

>  <origin>  (11) 
autodockgpu

>  <m_score__min__energy>  (11) 
-8.4900000000000002

>  <m_primary>  (11) 
energy

>  <rmsd>  (11) 
8.657751575706856

>  <m_score__min__rmsd>  (11) 
8.657751575706856

>  <meeko>  (11) 
{"free_energy": -7.64, "intermolecular_energy": -10.03, "internal_energy": -2.49, "cluster_size": 1, "cluster_id": 5, "rank_in_cluster": 1}

>  <energy>  (11) 
-7.86

>  <cluster_rmsd>  (11) 
1.73

>  <cluster>  (11) 
1

$$$$

     RDKit          3D

 53 56  0  0  0  0  0  0  0  0999 V2000
  138.0610   71.9330  222.4130 O   0  0  0  0  0  0  0  0  0  0  0  0
  139.2410   71.7230  222.7940 C   0  0  0  0  0  0  0  0  0  0  0  0
  140.3820   72.2960  222.1550 N   0  0  0  0  0  0  0  0  0  0  0  0
  140.2440   73.1790  220.9940 C   0  0  0  0  0  0  0  0  0  0  0  0
  140.3290   74.5520  221.4970 C   0  0  0  0  0  0  0  0  0  0  0  0
  141.4340   74.9640  221.9690 O   0  0  0  0  0  0  0  0  0  0  0  0
  139.2610   75.4880  221.5080 N   0  0  0  0  0  0  0  0  0  0  0  0
  138.7010   76.0150  222.7590 C   0  0  0  0  0  0  0  0  0  0  0  0
  137.2080   75.9130  222.3940 C   0  0  2  0  0  0  0  0  0  0  0  0
  136.9570   74.5670  222.1710 O   0  0  0  0  0  0  0  0  0  0  0  0
  137.2610   76.6640  221.0560 C   0  0  0  0  0  0  0  0  0  0  0  0
  138.5210   76.0730  220.4340 C   0  0  1  0  0  0  0  0  0  0  0  0
  139.2560   77.1070  219.6190 C   0  0  0  0  0  0  0  0  0  0  0  0
  140.3260   77.7220  220.1220 O   0  0  0  0  0  0  0  0  0  0  0  0
  140.8430   78.4390  221.1030 C   0  0  0  0  0  0  0  0  0  0  0  0
  141.1200   78.0610  222.3990 C   0  0  0  0  0  0  0  0  0  0  0  0
  141.6620   78.8890  223.3530 C   0  0  0  0  0  0  0  0  0  0  0  0
  141.9540   80.1850  223.0070 C   0  0  0  0  0  0  0  0  0  0  0  0
  142.6390   81.2360  224.2060 Cl  0  0  0  0  0  0  0  0  0  0  0  0
  141.7060   80.6310  221.7340 C   0  0  0  0  0  0  0  0  0  0  0  0
  141.1670   79.7850  220.8070 C   0  0  0  0  0  0  0  0  0  0  0  0
  139.4470   70.8490  223.9460 C   0  0  0  0  0  0  0  0  0  0  0  0
  139.0170   69.5480  223.9550 C   0  0  0  0  0  0  0  0  0  0  0  0
  139.1850   68.6830  225.0150 C   0  0  0  0  0  0  0  0  0  0  0  0
  139.8290   69.1740  226.1260 C   0  0  0  0  0  0  0  0  0  0  0  0
  140.0070   68.3200  227.1950 C   0  0  0  0  0  0  0  0  0  0  0  0
  140.6490   68.7910  228.3160 C   0  0  0  0  0  0  0  0  0  0  0  0
  140.8150   67.9530  229.3470 F   0  0  0  0  0  0  0  0  0  0  0  0
  141.0850   70.0930  228.3200 C   0  0  0  0  0  0  0  0  0  0  0  0
  140.9060   70.9540  227.2420 C   0  0  0  0  0  0  0  0  0  0  0  0
  140.2640   70.4820  226.1210 C   0  0  0  0  0  0  0  0  0  0  0  0
  140.0790   71.2960  225.0640 N   0  0  0  0  0  0  0  0  0  0  0  0
  141.3250   72.0590  222.5500 H   0  0  0  0  0  0  0  0  0  0  0  0
  141.0536   72.9882  220.2742 H   0  0  0  0  0  0  0  0  0  0  0  0
  139.2890   73.0057  220.4764 H   0  0  0  0  0  0  0  0  0  0  0  0
  138.9604   75.3899  223.6262 H   0  0  0  0  0  0  0  0  0  0  0  0
  139.0544   77.0120  223.0607 H   0  0  0  0  0  0  0  0  0  0  0  0
  136.4644   76.2879  223.1127 H   0  0  0  0  0  0  0  0  0  0  0  0
  137.5430   74.0000  222.7150 H   0  0  0  0  0  0  0  0  0  0  0  0
  136.3726   76.4561  220.4416 H   0  0  0  0  0  0  0  0  0  0  0  0
  137.2771   77.7595  221.1537 H   0  0  0  0  0  0  0  0  0  0  0  0
  138.3087   75.2833  219.6982 H   0  0  0  0  0  0  0  0  0  0  0  0
  139.5833   76.6075  218.6952 H   0  0  0  0  0  0  0  0  0  0  0  0
  138.5212   77.9202  219.5253 H   0  0  0  0  0  0  0  0  0  0  0  0
  140.8916   77.0251  222.6901 H   0  0  0  0  0  0  0  0  0  0  0  0
  141.8574   78.5213  224.3711 H   0  0  0  0  0  0  0  0  0  0  0  0
  141.9411   81.6699  221.4596 H   0  0  0  0  0  0  0  0  0  0  0  0
  140.9775   80.1639  219.7919 H   0  0  0  0  0  0  0  0  0  0  0  0
  138.5046   69.1694  223.0583 H   0  0  0  0  0  0  0  0  0  0  0  0
  138.8201   67.6461  224.9738 H   0  0  0  0  0  0  0  0  0  0  0  0
  139.6426   67.2830  227.1513 H   0  0  0  0  0  0  0  0  0  0  0  0
  141.5988   70.4723  229.2156 H   0  0  0  0  0  0  0  0  0  0  0  0
  141.2705   71.9910  227.2853 H   0  0  0  0  0  0  0  0  0  0  0  0
  1  2  2  0
  2  3  1  0
  3  4  1  0
  4  5  1  0
  5  6  2  0
  5  7  1  0
  7  8  1  0
  8  9  1  0
  9 10  1  0
  9 11  1  0
 11 12  1  0
 12 13  1  0
 13 14  1  0
 14 15  1  0
 15 16  2  0
 16 17  1  0
 17 18  2  0
 18 19  1  0
 18 20  1  0
 20 21  2  0
  2 22  1  0
 22 23  2  0
 23 24  1  0
 24 25  2  0
 25 26  1  0
 26 27  2  0
 27 28  1  0
 27 29  1  0
 29 30  2  0
 30 31  1  0
 31 32  2  0
 12  7  1  0
 21 15  1  0
 32 22  1  0
 31 25  1  0
  3 33  1  0
  4 34  1  0
  4 35  1  0
  8 36  1  0
  8 37  1  0
  9 38  1  1
 10 39  1  0
 11 40  1  0
 11 41  1  0
 12 42  1  6
 13 43  1  0
 13 44  1  0
 16 45  1  0
 17 46  1  0
 20 47  1  0
 21 48  1  0
 23 49  1  0
 24 50  1  0
 26 51  1  0
 29 52  1  0
 30 53  1  0
M  END
>  <smiles>  (12) 
O=C(NCC(=O)N1C[C@H](O)C[C@H]1COc1ccc(Cl)cc1)c1ccc2cc(F)ccc2n1

>  <score_type>  (12) 
oracle

>  <origin>  (12) 
autodockgpu

>  <m_score__min__energy>  (12) 
-8.4900000000000002

>  <m_primary>  (12) 
energy

>  <rmsd>  (12) 
2.8245629137405195

>  <m_score__min__rmsd>  (12) 
2.8245629137405195

>  <meeko>  (12) 
{"free_energy": -7.85, "intermolecular_energy": -10.23, "internal_energy": -2.54, "cluster_size": 18, "cluster_id": 1, "rank_in_cluster": 12}

>  <energy>  (12) 
-7.85

>  <cluster_rmsd>  (12) 
1.68

>  <cluster>  (12) 
1

$$$$

     RDKit          3D

 53 56  0  0  0  0  0  0  0  0999 V2000
  141.3790   72.2730  221.6330 O   0  0  0  0  0  0  0  0  0  0  0  0
  140.4510   72.4990  222.4490 C   0  0  0  0  0  0  0  0  0  0  0  0
  139.5640   73.6120  222.3360 N   0  0  0  0  0  0  0  0  0  0  0  0
  139.6850   74.5760  221.2390 C   0  0  0  0  0  0  0  0  0  0  0  0
  139.2670   75.8750  221.7720 C   0  0  0  0  0  0  0  0  0  0  0  0
  138.2630   75.9230  222.5490 O   0  0  0  0  0  0  0  0  0  0  0  0
  139.8980   77.1160  221.4920 N   0  0  0  0  0  0  0  0  0  0  0  0
  141.0910   77.5640  222.2210 C   0  0  0  0  0  0  0  0  0  0  0  0
  140.6770   79.0310  222.4460 C   0  0  2  0  0  0  0  0  0  0  0  0
  139.5160   78.9910  223.2050 O   0  0  0  0  0  0  0  0  0  0  0  0
  140.3370   79.3840  220.9900 C   0  0  0  0  0  0  0  0  0  0  0  0
  139.5630   78.1440  220.5570 C   0  0  1  0  0  0  0  0  0  0  0  0
  139.8270   77.8230  219.1070 C   0  0  0  0  0  0  0  0  0  0  0  0
  140.9140   77.1350  218.7600 O   0  0  0  0  0  0  0  0  0  0  0  0
  141.9040   76.3460  219.1360 C   0  0  0  0  0  0  0  0  0  0  0  0
  143.1070   76.6840  219.7180 C   0  0  0  0  0  0  0  0  0  0  0  0
  144.0800   75.7810  220.0750 C   0  0  0  0  0  0  0  0  0  0  0  0
  143.8530   74.4470  219.8430 C   0  0  0  0  0  0  0  0  0  0  0  0
  145.0780   73.3020  220.2910 Cl  0  0  0  0  0  0  0  0  0  0  0  0
  142.6780   74.0370  219.2680 C   0  0  0  0  0  0  0  0  0  0  0  0
  141.7290   74.9570  218.9240 C   0  0  0  0  0  0  0  0  0  0  0  0
  140.2770   71.5750  223.5680 C   0  0  0  0  0  0  0  0  0  0  0  0
  139.6630   70.3600  223.4150 C   0  0  0  0  0  0  0  0  0  0  0  0
  139.4750   69.4530  224.4360 C   0  0  0  0  0  0  0  0  0  0  0  0
  139.9400   69.8070  225.6800 C   0  0  0  0  0  0  0  0  0  0  0  0
  139.7600   68.9090  226.7120 C   0  0  0  0  0  0  0  0  0  0  0  0
  140.2190   69.2430  227.9650 C   0  0  0  0  0  0  0  0  0  0  0  0
  140.0380   68.3640  228.9580 F   0  0  0  0  0  0  0  0  0  0  0  0
  140.8360   70.4580  228.1310 C   0  0  0  0  0  0  0  0  0  0  0  0
  141.0180   71.3630  227.0910 C   0  0  0  0  0  0  0  0  0  0  0  0
  140.5590   71.0280  225.8380 C   0  0  0  0  0  0  0  0  0  0  0  0
  140.7240   71.8870  224.8140 N   0  0  0  0  0  0  0  0  0  0  0  0
  138.8200   73.7130  223.0700 H   0  0  0  0  0  0  0  0  0  0  0  0
  140.7276   74.6264  220.8919 H   0  0  0  0  0  0  0  0  0  0  0  0
  139.0615   74.2807  220.3822 H   0  0  0  0  0  0  0  0  0  0  0  0
  141.2274   77.0210  223.1679 H   0  0  0  0  0  0  0  0  0  0  0  0
  142.0521   77.4100  221.7087 H   0  0  0  0  0  0  0  0  0  0  0  0
  141.3892   79.7088  222.9394 H   0  0  0  0  0  0  0  0  0  0  0  0
  139.0500   78.1360  223.0980 H   0  0  0  0  0  0  0  0  0  0  0  0
  139.7147   80.2890  220.9295 H   0  0  0  0  0  0  0  0  0  0  0  0
  141.2129   79.6105  220.3643 H   0  0  0  0  0  0  0  0  0  0  0  0
  138.4724   78.2851  220.5845 H   0  0  0  0  0  0  0  0  0  0  0  0
  138.9606   77.2488  218.7470 H   0  0  0  0  0  0  0  0  0  0  0  0
  140.0030   78.8122  218.6593 H   0  0  0  0  0  0  0  0  0  0  0  0
  143.3017   77.7495  219.9099 H   0  0  0  0  0  0  0  0  0  0  0  0
  145.0195   76.1196  220.5362 H   0  0  0  0  0  0  0  0  0  0  0  0
  142.4995   72.9673  219.0837 H   0  0  0  0  0  0  0  0  0  0  0  0
  140.7932   74.6056  218.4648 H   0  0  0  0  0  0  0  0  0  0  0  0
  139.2965   70.0909  222.4134 H   0  0  0  0  0  0  0  0  0  0  0  0
  138.9750   68.4887  224.2628 H   0  0  0  0  0  0  0  0  0  0  0  0
  139.2595   67.9453  226.5363 H   0  0  0  0  0  0  0  0  0  0  0  0
  141.2031   70.7280  229.1322 H   0  0  0  0  0  0  0  0  0  0  0  0
  141.5185   72.3267  227.2665 H   0  0  0  0  0  0  0  0  0  0  0  0
  1  2  2  0
  2  3  1  0
  3  4  1  0
  4  5  1  0
  5  6  2  0
  5  7  1  0
  7  8  1  0
  8  9  1  0
  9 10  1  0
  9 11  1  0
 11 12  1  0
 12 13  1  0
 13 14  1  0
 14 15  1  0
 15 16  2  0
 16 17  1  0
 17 18  2  0
 18 19  1  0
 18 20  1  0
 20 21  2  0
  2 22  1  0
 22 23  2  0
 23 24  1  0
 24 25  2  0
 25 26  1  0
 26 27  2  0
 27 28  1  0
 27 29  1  0
 29 30  2  0
 30 31  1  0
 31 32  2  0
 12  7  1  0
 21 15  1  0
 32 22  1  0
 31 25  1  0
  3 33  1  0
  4 34  1  0
  4 35  1  0
  8 36  1  0
  8 37  1  0
  9 38  1  1
 10 39  1  0
 11 40  1  0
 11 41  1  0
 12 42  1  6
 13 43  1  0
 13 44  1  0
 16 45  1  0
 17 46  1  0
 20 47  1  0
 21 48  1  0
 23 49  1  0
 24 50  1  0
 26 51  1  0
 29 52  1  0
 30 53  1  0
M  END
>  <smiles>  (13) 
O=C(NCC(=O)N1C[C@H](O)C[C@H]1COc1ccc(Cl)cc1)c1ccc2cc(F)ccc2n1

>  <score_type>  (13) 
oracle

>  <origin>  (13) 
autodockgpu

>  <m_score__min__energy>  (13) 
-8.4900000000000002

>  <m_primary>  (13) 
energy

>  <rmsd>  (13) 
2.798267735072634

>  <m_score__min__rmsd>  (13) 
2.798267735072634

>  <meeko>  (13) 
{"free_energy": -7.39, "intermolecular_energy": -9.78, "internal_energy": -2.8, "cluster_size": 15, "cluster_id": 3, "rank_in_cluster": 12}

>  <energy>  (13) 
-7.72

>  <cluster_rmsd>  (13) 
1.08

>  <cluster>  (13) 
1

$$$$

     RDKit          3D

 53 56  0  0  0  0  0  0  0  0999 V2000
  141.3180   72.3920  221.7120 O   0  0  0  0  0  0  0  0  0  0  0  0
  140.3420   72.5180  222.4930 C   0  0  0  0  0  0  0  0  0  0  0  0
  139.3440   73.5280  222.3420 N   0  0  0  0  0  0  0  0  0  0  0  0
  139.4000   74.4970  221.2440 C   0  0  0  0  0  0  0  0  0  0  0  0
  139.1890   75.8180  221.8390 C   0  0  0  0  0  0  0  0  0  0  0  0
  138.1580   76.0100  222.5560 O   0  0  0  0  0  0  0  0  0  0  0  0
  140.0540   76.9340  221.6830 N   0  0  0  0  0  0  0  0  0  0  0  0
  141.0780   77.2690  222.6810 C   0  0  0  0  0  0  0  0  0  0  0  0
  140.8520   78.7930  222.7270 C   0  0  2  0  0  0  0  0  0  0  0  0
  139.5450   78.9760  223.1550 O   0  0  0  0  0  0  0  0  0  0  0  0
  140.9520   79.0710  221.2200 C   0  0  0  0  0  0  0  0  0  0  0  0
  140.1320   77.9190  220.6510 C   0  0  1  0  0  0  0  0  0  0  0  0
  140.7020   77.4490  219.3370 C   0  0  0  0  0  0  0  0  0  0  0  0
  141.1580   76.2030  219.2100 O   0  0  0  0  0  0  0  0  0  0  0  0
  142.1400   75.3470  219.4250 C   0  0  0  0  0  0  0  0  0  0  0  0
  142.1520   73.9800  219.2470 C   0  0  0  0  0  0  0  0  0  0  0  0
  143.2330   73.1710  219.5020 C   0  0  0  0  0  0  0  0  0  0  0  0
  144.3890   73.7480  219.9670 C   0  0  0  0  0  0  0  0  0  0  0  0
  145.7580   72.7320  220.2910 Cl  0  0  0  0  0  0  0  0  0  0  0  0
  144.4500   75.1030  220.1680 C   0  0  0  0  0  0  0  0  0  0  0  0
  143.3600   75.8820  219.9050 C   0  0  0  0  0  0  0  0  0  0  0  0
  140.2290   71.5820  223.6110 C   0  0  0  0  0  0  0  0  0  0  0  0
  139.6480   70.3500  223.4680 C   0  0  0  0  0  0  0  0  0  0  0  0
  139.5170   69.4310  224.4880 C   0  0  0  0  0  0  0  0  0  0  0  0
  140.0070   69.7930  225.7200 C   0  0  0  0  0  0  0  0  0  0  0  0
  139.8850   68.8840  226.7510 C   0  0  0  0  0  0  0  0  0  0  0  0
  140.3690   69.2250  227.9920 C   0  0  0  0  0  0  0  0  0  0  0  0
  140.2440   68.3360  228.9840 F   0  0  0  0  0  0  0  0  0  0  0  0
  140.9540   70.4570  228.1490 C   0  0  0  0  0  0  0  0  0  0  0  0
  141.0780   71.3740  227.1090 C   0  0  0  0  0  0  0  0  0  0  0  0
  140.5930   71.0310  225.8680 C   0  0  0  0  0  0  0  0  0  0  0  0
  140.7020   71.9010  224.8450 N   0  0  0  0  0  0  0  0  0  0  0  0
  138.5680   73.5490  223.0480 H   0  0  0  0  0  0  0  0  0  0  0  0
  140.3826   74.4555  220.7512 H   0  0  0  0  0  0  0  0  0  0  0  0
  138.6359   74.2785  220.4835 H   0  0  0  0  0  0  0  0  0  0  0  0
  140.8839   76.7906  223.6523 H   0  0  0  0  0  0  0  0  0  0  0  0
  142.1019   76.9422  222.4469 H   0  0  0  0  0  0  0  0  0  0  0  0
  141.5115   79.4033  223.3615 H   0  0  0  0  0  0  0  0  0  0  0  0
  139.0190   78.1550  223.0520 H   0  0  0  0  0  0  0  0  0  0  0  0
  140.5128   80.0454  220.9599 H   0  0  0  0  0  0  0  0  0  0  0  0
  141.9822   79.1234  220.8381 H   0  0  0  0  0  0  0  0  0  0  0  0
  139.1057   78.2114  220.3842 H   0  0  0  0  0  0  0  0  0  0  0  0
  139.9086   77.5736  218.5854 H   0  0  0  0  0  0  0  0  0  0  0  0
  141.6098   78.0601  219.2254 H   0  0  0  0  0  0  0  0  0  0  0  0
  141.2327   73.5040  218.8751 H   0  0  0  0  0  0  0  0  0  0  0  0
  143.1736   72.0850  219.3373 H   0  0  0  0  0  0  0  0  0  0  0  0
  145.3772   75.5624  220.5412 H   0  0  0  0  0  0  0  0  0  0  0  0
  143.4323   76.9668  220.0724 H   0  0  0  0  0  0  0  0  0  0  0  0
  139.2609   70.0758  222.4756 H   0  0  0  0  0  0  0  0  0  0  0  0
  139.0419   68.4527  224.3230 H   0  0  0  0  0  0  0  0  0  0  0  0
  139.4100   67.9061  226.5834 H   0  0  0  0  0  0  0  0  0  0  0  0
  141.3421   70.7318  229.1409 H   0  0  0  0  0  0  0  0  0  0  0  0
  141.5535   72.3518  227.2758 H   0  0  0  0  0  0  0  0  0  0  0  0
  1  2  2  0
  2  3  1  0
  3  4  1  0
  4  5  1  0
  5  6  2  0
  5  7  1  0
  7  8  1  0
  8  9  1  0
  9 10  1  0
  9 11  1  0
 11 12  1  0
 12 13  1  0
 13 14  1  0
 14 15  1  0
 15 16  2  0
 16 17  1  0
 17 18  2  0
 18 19  1  0
 18 20  1  0
 20 21  2  0
  2 22  1  0
 22 23  2  0
 23 24  1  0
 24 25  2  0
 25 26  1  0
 26 27  2  0
 27 28  1  0
 27 29  1  0
 29 30  2  0
 30 31  1  0
 31 32  2  0
 12  7  1  0
 21 15  1  0
 32 22  1  0
 31 25  1  0
  3 33  1  0
  4 34  1  0
  4 35  1  0
  8 36  1  0
  8 37  1  0
  9 38  1  1
 10 39  1  0
 11 40  1  0
 11 41  1  0
 12 42  1  6
 13 43  1  0
 13 44  1  0
 16 45  1  0
 17 46  1  0
 20 47  1  0
 21 48  1  0
 23 49  1  0
 24 50  1  0
 26 51  1  0
 29 52  1  0
 30 53  1  0
M  END
>  <smiles>  (14) 
O=C(NCC(=O)N1C[C@H](O)C[C@H]1COc1ccc(Cl)cc1)c1ccc2cc(F)ccc2n1

>  <score_type>  (14) 
oracle

>  <origin>  (14) 
autodockgpu

>  <m_score__min__energy>  (14) 
-8.4900000000000002

>  <m_primary>  (14) 
energy

>  <rmsd>  (14) 
2.8024633576948457

>  <m_score__min__rmsd>  (14) 
2.8024633576948457

>  <meeko>  (14) 
{"free_energy": -7.77, "intermolecular_energy": -10.16, "internal_energy": -2.68, "cluster_size": 15, "cluster_id": 3, "rank_in_cluster": 6}

>  <energy>  (14) 
-7.63

>  <cluster_rmsd>  (14) 
1.77

>  <cluster>  (14) 
1

$$$$

     RDKit          3D

 53 56  0  0  0  0  0  0  0  0999 V2000
  141.0920   71.7090  221.2830 O   0  0  0  0  0  0  0  0  0  0  0  0
  140.4630   72.2150  222.2460 C   0  0  0  0  0  0  0  0  0  0  0  0
  139.9340   73.5400  222.2260 N   0  0  0  0  0  0  0  0  0  0  0  0
  140.0970   74.4090  221.0560 C   0  0  0  0  0  0  0  0  0  0  0  0
  140.0340   75.7880  221.5440 C   0  0  0  0  0  0  0  0  0  0  0  0
  139.6060   76.0020  222.7210 O   0  0  0  0  0  0  0  0  0  0  0  0
  140.4160   76.9370  220.8030 N   0  0  0  0  0  0  0  0  0  0  0  0
  141.4690   77.8480  221.2690 C   0  0  0  0  0  0  0  0  0  0  0  0
  140.7640   79.1820  220.9540 C   0  0  2  0  0  0  0  0  0  0  0  0
  139.6060   79.1960  221.7190 O   0  0  0  0  0  0  0  0  0  0  0  0
  140.4160   78.9000  219.4850 C   0  0  0  0  0  0  0  0  0  0  0  0
  139.9200   77.4600  219.5690 C   0  0  1  0  0  0  0  0  0  0  0  0
  140.2970   76.6870  218.3300 C   0  0  0  0  0  0  0  0  0  0  0  0
  141.4840   76.0870  218.2490 O   0  0  0  0  0  0  0  0  0  0  0  0
  142.3900   75.3220  218.8300 C   0  0  0  0  0  0  0  0  0  0  0  0
  142.4550   73.9460  218.8850 C   0  0  0  0  0  0  0  0  0  0  0  0
  143.4470   73.2390  219.5220 C   0  0  0  0  0  0  0  0  0  0  0  0
  144.4490   73.9350  220.1500 C   0  0  0  0  0  0  0  0  0  0  0  0
  145.7050   73.0470  220.9540 Cl  0  0  0  0  0  0  0  0  0  0  0  0
  144.4500   75.3060  220.1350 C   0  0  0  0  0  0  0  0  0  0  0  0
  143.4520   75.9820  219.4950 C   0  0  0  0  0  0  0  0  0  0  0  0
  140.2680   71.4000  223.4440 C   0  0  0  0  0  0  0  0  0  0  0  0
  139.6440   70.1810  223.3980 C   0  0  0  0  0  0  0  0  0  0  0  0
  139.4350   69.3750  224.4970 C   0  0  0  0  0  0  0  0  0  0  0  0
  139.8900   69.8400  225.7080 C   0  0  0  0  0  0  0  0  0  0  0  0
  139.6890   69.0440  226.8170 C   0  0  0  0  0  0  0  0  0  0  0  0
  140.1370   69.4890  228.0380 C   0  0  0  0  0  0  0  0  0  0  0  0
  139.9370   68.7090  229.1070 F   0  0  0  0  0  0  0  0  0  0  0  0
  140.7640   70.7090  228.0980 C   0  0  0  0  0  0  0  0  0  0  0  0
  140.9660   71.5120  226.9800 C   0  0  0  0  0  0  0  0  0  0  0  0
  140.5190   71.0650  225.7590 C   0  0  0  0  0  0  0  0  0  0  0  0
  140.7030   71.8240  224.6610 N   0  0  0  0  0  0  0  0  0  0  0  0
  139.4240   73.8700  223.0810 H   0  0  0  0  0  0  0  0  0  0  0  0
  141.0688   74.2206  220.5763 H   0  0  0  0  0  0  0  0  0  0  0  0
  139.3129   74.2176  220.3087 H   0  0  0  0  0  0  0  0  0  0  0  0
  141.6747   77.7303  222.3432 H   0  0  0  0  0  0  0  0  0  0  0  0
  142.4602   77.7094  220.8125 H   0  0  0  0  0  0  0  0  0  0  0  0
  141.3090   80.1201  221.1355 H   0  0  0  0  0  0  0  0  0  0  0  0
  139.4420   78.3220  222.1320 H   0  0  0  0  0  0  0  0  0  0  0  0
  139.6293   79.5767  219.1201 H   0  0  0  0  0  0  0  0  0  0  0  0
  141.2524   79.0493  218.7863 H   0  0  0  0  0  0  0  0  0  0  0  0
  138.8229   77.3820  219.5846 H   0  0  0  0  0  0  0  0  0  0  0  0
  139.5365   75.9025  218.2028 H   0  0  0  0  0  0  0  0  0  0  0  0
  140.3575   77.4672  217.5569 H   0  0  0  0  0  0  0  0  0  0  0  0
  141.6588   73.3749  218.3851 H   0  0  0  0  0  0  0  0  0  0  0  0
  143.4377   72.1391  219.5282 H   0  0  0  0  0  0  0  0  0  0  0  0
  145.2551   75.8610  220.6387 H   0  0  0  0  0  0  0  0  0  0  0  0
  143.4733   77.0818  219.4957 H   0  0  0  0  0  0  0  0  0  0  0  0
  139.2868   69.8223  222.4214 H   0  0  0  0  0  0  0  0  0  0  0  0
  138.9269   68.4034  224.4087 H   0  0  0  0  0  0  0  0  0  0  0  0
  139.1805   68.0729  226.7259 H   0  0  0  0  0  0  0  0  0  0  0  0
  141.1228   71.0677  229.0740 H   0  0  0  0  0  0  0  0  0  0  0  0
  141.4727   72.4841  227.0710 H   0  0  0  0  0  0  0  0  0  0  0  0
  1  2  2  0
  2  3  1  0
  3  4  1  0
  4  5  1  0
  5  6  2  0
  5  7  1  0
  7  8  1  0
  8  9  1  0
  9 10  1  0
  9 11  1  0
 11 12  1  0
 12 13  1  0
 13 14  1  0
 14 15  1  0
 15 16  2  0
 16 17  1  0
 17 18  2  0
 18 19  1  0
 18 20  1  0
 20 21  2  0
  2 22  1  0
 22 23  2  0
 23 24  1  0
 24 25  2  0
 25 26  1  0
 26 27  2  0
 27 28  1  0
 27 29  1  0
 29 30  2  0
 30 31  1  0
 31 32  2  0
 12  7  1  0
 21 15  1  0
 32 22  1  0
 31 25  1  0
  3 33  1  0
  4 34  1  0
  4 35  1  0
  8 36  1  0
  8 37  1  0
  9 38  1  6
 10 39  1  0
 11 40  1  0
 11 41  1  0
 12 42  1  1
 13 43  1  0
 13 44  1  0
 16 45  1  0
 17 46  1  0
 20 47  1  0
 21 48  1  0
 23 49  1  0
 24 50  1  0
 26 51  1  0
 29 52  1  0
 30 53  1  0
M  END
>  <smiles>  (15) 
O=C(NCC(=O)N1C[C@H](O)C[C@H]1COc1ccc(Cl)cc1)c1ccc2cc(F)ccc2n1

>  <score_type>  (15) 
oracle

>  <origin>  (15) 
autodockgpu

>  <m_score__min__energy>  (15) 
-8.4900000000000002

>  <m_primary>  (15) 
energy

>  <rmsd>  (15) 
2.455561387188017

>  <m_score__min__rmsd>  (15) 
2.455561387188017

>  <meeko>  (15) 
{"free_energy": -7.27, "intermolecular_energy": -9.65, "internal_energy": -3.04, "cluster_size": 15, "cluster_id": 3, "rank_in_cluster": 14}

>  <energy>  (15) 
-7.51

>  <cluster_rmsd>  (15) 
1.87

>  <cluster>  (15) 
1

$$$$

     RDKit          3D

 53 56  0  0  0  0  0  0  0  0999 V2000
  137.8320   70.9440  222.0310 O   0  0  0  0  0  0  0  0  0  0  0  0
  138.6600   71.3940  222.8630 C   0  0  0  0  0  0  0  0  0  0  0  0
  139.2620   72.6830  222.7480 N   0  0  0  0  0  0  0  0  0  0  0  0
  138.9450   73.5770  221.6310 C   0  0  0  0  0  0  0  0  0  0  0  0
  139.9030   74.6830  221.6910 C   0  0  0  0  0  0  0  0  0  0  0  0
  141.0660   74.4600  222.1510 O   0  0  0  0  0  0  0  0  0  0  0  0
  139.6440   76.0150  221.2720 N   0  0  0  0  0  0  0  0  0  0  0  0
  140.2300   76.5720  220.0460 C   0  0  0  0  0  0  0  0  0  0  0  0
  140.6390   77.9500  220.6020 C   0  0  2  0  0  0  0  0  0  0  0  0
  141.5510   77.7010  221.6180 O   0  0  0  0  0  0  0  0  0  0  0  0
  139.2830   78.3500  221.2040 C   0  0  0  0  0  0  0  0  0  0  0  0
  138.8600   77.0470  221.8730 C   0  0  1  0  0  0  0  0  0  0  0  0
  137.3650   76.8640  221.7970 C   0  0  0  0  0  0  0  0  0  0  0  0
  136.6870   76.4350  222.8600 O   0  0  0  0  0  0  0  0  0  0  0  0
  136.0820   75.4300  223.4680 C   0  0  0  0  0  0  0  0  0  0  0  0
  136.0360   74.1010  223.1070 C   0  0  0  0  0  0  0  0  0  0  0  0
  135.3730   73.1250  223.8130 C   0  0  0  0  0  0  0  0  0  0  0  0
  134.7060   73.4820  224.9580 C   0  0  0  0  0  0  0  0  0  0  0  0
  133.8680   72.2550  225.8540 Cl  0  0  0  0  0  0  0  0  0  0  0  0
  134.7100   74.7870  225.3790 C   0  0  0  0  0  0  0  0  0  0  0  0
  135.3770   75.7350  224.6580 C   0  0  0  0  0  0  0  0  0  0  0  0
  139.0200   70.5500  224.0000 C   0  0  0  0  0  0  0  0  0  0  0  0
  138.7170   69.2150  224.0370 C   0  0  0  0  0  0  0  0  0  0  0  0
  139.0340   68.3760  225.0840 C   0  0  0  0  0  0  0  0  0  0  0  0
  139.6970   68.9330  226.1510 C   0  0  0  0  0  0  0  0  0  0  0  0
  140.0220   68.1060  227.2070 C   0  0  0  0  0  0  0  0  0  0  0  0
  140.6870   68.6420  228.2840 C   0  0  0  0  0  0  0  0  0  0  0  0
  140.9970   67.8310  229.3030 F   0  0  0  0  0  0  0  0  0  0  0  0
  140.9970   69.9790  228.2610 C   0  0  0  0  0  0  0  0  0  0  0  0
  140.6690   70.8140  227.1960 C   0  0  0  0  0  0  0  0  0  0  0  0
  140.0050   70.2760  226.1190 C   0  0  0  0  0  0  0  0  0  0  0  0
  139.6770   71.0620  225.0750 N   0  0  0  0  0  0  0  0  0  0  0  0
  139.9420   72.9670  223.4950 H   0  0  0  0  0  0  0  0  0  0  0  0
  139.0451   73.0404  220.6760 H   0  0  0  0  0  0  0  0  0  0  0  0
  137.9109   73.9455  221.7009 H   0  0  0  0  0  0  0  0  0  0  0  0
  141.0965   75.9904  219.6982 H   0  0  0  0  0  0  0  0  0  0  0  0
  139.5736   76.5859  219.1634 H   0  0  0  0  0  0  0  0  0  0  0  0
  141.0820   78.6842  219.9130 H   0  0  0  0  0  0  0  0  0  0  0  0
  141.7650   76.7460  221.6770 H   0  0  0  0  0  0  0  0  0  0  0  0
  139.3915   79.1629  221.9371 H   0  0  0  0  0  0  0  0  0  0  0  0
  138.5599   78.7364  220.4707 H   0  0  0  0  0  0  0  0  0  0  0  0
  139.0564   77.0340  222.9553 H   0  0  0  0  0  0  0  0  0  0  0  0
  136.9401   77.8412  221.5239 H   0  0  0  0  0  0  0  0  0  0  0  0
  137.2500   76.0399  221.0775 H   0  0  0  0  0  0  0  0  0  0  0  0
  136.5660   73.8002  222.1912 H   0  0  0  0  0  0  0  0  0  0  0  0
  135.3771   72.0807  223.4675 H   0  0  0  0  0  0  0  0  0  0  0  0
  134.1756   75.0700  226.2979 H   0  0  0  0  0  0  0  0  0  0  0  0
  135.3666   76.7755  225.0148 H   0  0  0  0  0  0  0  0  0  0  0  0
  138.1862   68.7841  223.1753 H   0  0  0  0  0  0  0  0  0  0  0  0
  138.7682   67.3088  225.0661 H   0  0  0  0  0  0  0  0  0  0  0  0
  139.7542   67.0393  227.1872 H   0  0  0  0  0  0  0  0  0  0  0  0
  141.5282   70.4101  229.1224 H   0  0  0  0  0  0  0  0  0  0  0  0
  140.9354   71.8811  227.2160 H   0  0  0  0  0  0  0  0  0  0  0  0
  1  2  2  0
  2  3  1  0
  3  4  1  0
  4  5  1  0
  5  6  2  0
  5  7  1  0
  7  8  1  0
  8  9  1  0
  9 10  1  0
  9 11  1  0
 11 12  1  0
 12 13  1  0
 13 14  1  0
 14 15  1  0
 15 16  2  0
 16 17  1  0
 17 18  2  0
 18 19  1  0
 18 20  1  0
 20 21  2  0
  2 22  1  0
 22 23  2  0
 23 24  1  0
 24 25  2  0
 25 26  1  0
 26 27  2  0
 27 28  1  0
 27 29  1  0
 29 30  2  0
 30 31  1  0
 31 32  2  0
 12  7  1  0
 21 15  1  0
 32 22  1  0
 31 25  1  0
  3 33  1  0
  4 34  1  0
  4 35  1  0
  8 36  1  0
  8 37  1  0
  9 38  1  6
 10 39  1  0
 11 40  1  0
 11 41  1  0
 12 42  1  1
 13 43  1  0
 13 44  1  0
 16 45  1  0
 17 46  1  0
 20 47  1  0
 21 48  1  0
 23 49  1  0
 24 50  1  0
 26 51  1  0
 29 52  1  0
 30 53  1  0
M  END
>  <smiles>  (16) 
O=C(NCC(=O)N1C[C@H](O)C[C@H]1COc1ccc(Cl)cc1)c1ccc2cc(F)ccc2n1

>  <score_type>  (16) 
oracle

>  <origin>  (16) 
autodockgpu

>  <m_score__min__energy>  (16) 
-8.4900000000000002

>  <m_primary>  (16) 
energy

>  <rmsd>  (16) 
2.024069261927095

>  <m_score__min__rmsd>  (16) 
2.024069261927095

>  <meeko>  (16) 
{"free_energy": -7.28, "intermolecular_energy": -9.66, "internal_energy": -2.84, "cluster_size": 4, "cluster_id": 2, "rank_in_cluster": 4}

>  <energy>  (16) 
-7.41

>  <cluster_rmsd>  (16) 
1.65

>  <cluster>  (16) 
1

$$$$

     RDKit          3D

 53 56  0  0  0  0  0  0  0  0999 V2000
  140.0170   74.1010  221.9370 O   0  0  0  0  0  0  0  0  0  0  0  0
  140.5650   75.2240  221.7980 C   0  0  0  0  0  0  0  0  0  0  0  0
  141.8600   75.3960  221.2210 N   0  0  0  0  0  0  0  0  0  0  0  0
  142.6430   74.2510  220.7480 C   0  0  0  0  0  0  0  0  0  0  0  0
  143.5630   74.7630  219.7310 C   0  0  0  0  0  0  0  0  0  0  0  0
  144.0630   75.9200  219.8840 O   0  0  0  0  0  0  0  0  0  0  0  0
  143.9570   74.0650  218.5580 N   0  0  0  0  0  0  0  0  0  0  0  0
  144.0020   72.5990  218.5040 C   0  0  0  0  0  0  0  0  0  0  0  0
  145.3490   72.4450  217.7710 C   0  0  2  0  0  0  0  0  0  0  0  0
  146.3040   73.0230  218.5950 O   0  0  0  0  0  0  0  0  0  0  0  0
  145.0540   73.3720  216.5820 C   0  0  0  0  0  0  0  0  0  0  0  0
  144.3840   74.5480  217.2830 C   0  0  1  0  0  0  0  0  0  0  0  0
  143.3080   75.1500  216.4150 C   0  0  0  0  0  0  0  0  0  0  0  0
  142.4620   76.0460  216.9200 O   0  0  0  0  0  0  0  0  0  0  0  0
  142.2960   77.1640  217.6050 C   0  0  0  0  0  0  0  0  0  0  0  0
  142.8920   78.3920  217.4150 C   0  0  0  0  0  0  0  0  0  0  0  0
  142.6510   79.5020  218.1890 C   0  0  0  0  0  0  0  0  0  0  0  0
  141.7590   79.3970  219.2270 C   0  0  0  0  0  0  0  0  0  0  0  0
  141.4500   80.7950  220.2080 Cl  0  0  0  0  0  0  0  0  0  0  0  0
  141.1280   78.2050  219.4750 C   0  0  0  0  0  0  0  0  0  0  0  0
  141.3860   77.1190  218.6890 C   0  0  0  0  0  0  0  0  0  0  0  0
  139.8360   76.4070  222.2520 C   0  0  0  0  0  0  0  0  0  0  0  0
  138.4720   76.4140  222.3730 C   0  0  0  0  0  0  0  0  0  0  0  0
  137.7370   77.5020  222.7960 C   0  0  0  0  0  0  0  0  0  0  0  0
  138.4360   78.6420  223.1120 C   0  0  0  0  0  0  0  0  0  0  0  0
  137.7150   79.7390  223.5370 C   0  0  0  0  0  0  0  0  0  0  0  0
  138.3940   80.8910  223.8590 C   0  0  0  0  0  0  0  0  0  0  0  0
  137.6840   81.9480  224.2710 F   0  0  0  0  0  0  0  0  0  0  0  0
  139.7620   80.8960  223.7420 C   0  0  0  0  0  0  0  0  0  0  0  0
  140.4890   79.7900  223.3130 C   0  0  0  0  0  0  0  0  0  0  0  0
  139.8080   78.6390  222.9910 C   0  0  0  0  0  0  0  0  0  0  0  0
  140.4900   77.5540  222.5740 N   0  0  0  0  0  0  0  0  0  0  0  0
  142.2290   76.3750  221.1490 H   0  0  0  0  0  0  0  0  0  0  0  0
  143.2076   73.8074  221.5813 H   0  0  0  0  0  0  0  0  0  0  0  0
  141.9901   73.4688  220.3336 H   0  0  0  0  0  0  0  0  0  0  0  0
  144.0205   72.1467  219.5065 H   0  0  0  0  0  0  0  0  0  0  0  0
  143.1387   72.1094  218.0296 H   0  0  0  0  0  0  0  0  0  0  0  0
  145.6900   71.4338  217.5042 H   0  0  0  0  0  0  0  0  0  0  0  0
  146.1670   73.9910  218.6750 H   0  0  0  0  0  0  0  0  0  0  0  0
  145.9786   73.6802  216.0720 H   0  0  0  0  0  0  0  0  0  0  0  0
  144.4446   72.9113  215.7905 H   0  0  0  0  0  0  0  0  0  0  0  0
  145.0662   75.3939  217.4535 H   0  0  0  0  0  0  0  0  0  0  0  0
  143.8181   75.6371  215.5709 H   0  0  0  0  0  0  0  0  0  0  0  0
  142.6583   74.2913  216.1903 H   0  0  0  0  0  0  0  0  0  0  0  0
  143.6097   78.4906  216.5872 H   0  0  0  0  0  0  0  0  0  0  0  0
  143.1618   80.4537  217.9811 H   0  0  0  0  0  0  0  0  0  0  0  0
  140.4137   78.1238  220.3076 H   0  0  0  0  0  0  0  0  0  0  0  0
  140.8675   76.1734  218.9059 H   0  0  0  0  0  0  0  0  0  0  0  0
  137.9276   75.4932  222.1165 H   0  0  0  0  0  0  0  0  0  0  0  0
  136.6408   77.4589  222.8767 H   0  0  0  0  0  0  0  0  0  0  0  0
  136.6188   79.6931  223.6167 H   0  0  0  0  0  0  0  0  0  0  0  0
  140.3078   81.8158  223.9990 H   0  0  0  0  0  0  0  0  0  0  0  0
  141.5852   79.8350  223.2330 H   0  0  0  0  0  0  0  0  0  0  0  0
  1  2  2  0
  2  3  1  0
  3  4  1  0
  4  5  1  0
  5  6  2  0
  5  7  1  0
  7  8  1  0
  8  9  1  0
  9 10  1  0
  9 11  1  0
 11 12  1  0
 12 13  1  0
 13 14  1  0
 14 15  1  0
 15 16  2  0
 16 17  1  0
 17 18  2  0
 18 19  1  0
 18 20  1  0
 20 21  2  0
  2 22  1  0
 22 23  2  0
 23 24  1  0
 24 25  2  0
 25 26  1  0
 26 27  2  0
 27 28  1  0
 27 29  1  0
 29 30  2  0
 30 31  1  0
 31 32  2  0
 12  7  1  0
 21 15  1  0
 32 22  1  0
 31 25  1  0
  3 33  1  0
  4 34  1  0
  4 35  1  0
  8 36  1  0
  8 37  1  0
  9 38  1  6
 10 39  1  0
 11 40  1  0
 11 41  1  0
 12 42  1  1
 13 43  1  0
 13 44  1  0
 16 45  1  0
 17 46  1  0
 20 47  1  0
 21 48  1  0
 23 49  1  0
 24 50  1  0
 26 51  1  0
 29 52  1  0
 30 53  1  0
M  END
>  <smiles>  (17) 
O=C(NCC(=O)N1C[C@H](O)C[C@H]1COc1ccc(Cl)cc1)c1ccc2cc(F)ccc2n1

>  <score_type>  (17) 
oracle

>  <origin>  (17) 
autodockgpu

>  <m_score__min__energy>  (17) 
-8.4900000000000002

>  <m_primary>  (17) 
energy

>  <rmsd>  (17) 
7.740742263629841

>  <m_score__min__rmsd>  (17) 
7.740742263629841

>  <meeko>  (17) 
{"free_energy": -6.83, "intermolecular_energy": -9.22, "internal_energy": -3.31, "cluster_size": 6, "cluster_id": 8, "rank_in_cluster": 1}

>  <energy>  (17) 
-7.38

>  <cluster_rmsd>  (17) 
1.79

>  <cluster>  (17) 
1

$$$$

     RDKit          3D

 53 56  0  0  0  0  0  0  0  0999 V2000
  138.0100   71.0630  221.8010 O   0  0  0  0  0  0  0  0  0  0  0  0
  138.7600   71.5270  222.6980 C   0  0  0  0  0  0  0  0  0  0  0  0
  139.2850   72.8540  222.6700 N   0  0  0  0  0  0  0  0  0  0  0  0
  138.9750   73.7740  221.5720 C   0  0  0  0  0  0  0  0  0  0  0  0
  140.0160   74.8040  221.5800 C   0  0  0  0  0  0  0  0  0  0  0  0
  141.1010   74.5730  222.1990 O   0  0  0  0  0  0  0  0  0  0  0  0
  139.9210   76.0690  220.9420 N   0  0  0  0  0  0  0  0  0  0  0  0
  140.4600   76.3040  219.5970 C   0  0  0  0  0  0  0  0  0  0  0  0
  141.1260   77.6690  219.8590 C   0  0  2  0  0  0  0  0  0  0  0  0
  142.0860   77.4480  220.8360 O   0  0  0  0  0  0  0  0  0  0  0  0
  139.9130   78.3860  220.4710 C   0  0  0  0  0  0  0  0  0  0  0  0
  139.3660   77.3050  221.3970 C   0  0  1  0  0  0  0  0  0  0  0  0
  137.8600   77.3630  221.4620 C   0  0  0  0  0  0  0  0  0  0  0  0
  137.2540   78.3870  222.0590 O   0  0  0  0  0  0  0  0  0  0  0  0
  137.2680   79.2790  223.0340 C   0  0  0  0  0  0  0  0  0  0  0  0
  138.3420   79.9420  223.5860 C   0  0  0  0  0  0  0  0  0  0  0  0
  138.2500   80.8590  224.6060 C   0  0  0  0  0  0  0  0  0  0  0  0
  137.0110   81.1450  225.1210 C   0  0  0  0  0  0  0  0  0  0  0  0
  136.8880   82.3010  226.4100 Cl  0  0  0  0  0  0  0  0  0  0  0  0
  135.8960   80.5240  224.6210 C   0  0  0  0  0  0  0  0  0  0  0  0
  136.0170   79.6170  223.6070 C   0  0  0  0  0  0  0  0  0  0  0  0
  139.1080   70.6580  223.8210 C   0  0  0  0  0  0  0  0  0  0  0  0
  138.8030   69.3220  223.8250 C   0  0  0  0  0  0  0  0  0  0  0  0
  139.1090   68.4610  224.8570 C   0  0  0  0  0  0  0  0  0  0  0  0
  139.7610   68.9940  225.9430 C   0  0  0  0  0  0  0  0  0  0  0  0
  140.0750   68.1440  226.9840 C   0  0  0  0  0  0  0  0  0  0  0  0
  140.7290   68.6560  228.0790 C   0  0  0  0  0  0  0  0  0  0  0  0
  141.0280   67.8220  229.0830 F   0  0  0  0  0  0  0  0  0  0  0  0
  141.0400   69.9930  228.0880 C   0  0  0  0  0  0  0  0  0  0  0  0
  140.7240   70.8510  227.0380 C   0  0  0  0  0  0  0  0  0  0  0  0
  140.0700   70.3370  225.9420 C   0  0  0  0  0  0  0  0  0  0  0  0
  139.7540   71.1460  224.9130 N   0  0  0  0  0  0  0  0  0  0  0  0
  139.9020   73.1460  223.4670 H   0  0  0  0  0  0  0  0  0  0  0  0
  138.9817   73.2356  220.6128 H   0  0  0  0  0  0  0  0  0  0  0  0
  137.9769   74.2189  221.6982 H   0  0  0  0  0  0  0  0  0  0  0  0
  141.1898   75.5356  219.3019 H   0  0  0  0  0  0  0  0  0  0  0  0
  139.7287   76.2768  218.7757 H   0  0  0  0  0  0  0  0  0  0  0  0
  141.6043   78.1910  219.0171 H   0  0  0  0  0  0  0  0  0  0  0  0
  141.9390   76.5930  221.2920 H   0  0  0  0  0  0  0  0  0  0  0  0
  140.2155   79.2824  221.0323 H   0  0  0  0  0  0  0  0  0  0  0  0
  139.1875   78.7568  219.7319 H   0  0  0  0  0  0  0  0  0  0  0  0
  139.6648   77.4446  222.4464 H   0  0  0  0  0  0  0  0  0  0  0  0
  137.4974   77.3423  220.4237 H   0  0  0  0  0  0  0  0  0  0  0  0
  137.6042   76.5098  222.1074 H   0  0  0  0  0  0  0  0  0  0  0  0
  139.3417   79.7226  223.1830 H   0  0  0  0  0  0  0  0  0  0  0  0
  139.1503   81.3527  225.0007 H   0  0  0  0  0  0  0  0  0  0  0  0
  134.9042   80.7560  225.0362 H   0  0  0  0  0  0  0  0  0  0  0  0
  135.1091   79.1307  223.2207 H   0  0  0  0  0  0  0  0  0  0  0  0
  138.2807   68.9105  222.9488 H   0  0  0  0  0  0  0  0  0  0  0  0
  138.8431   67.3945  224.8132 H   0  0  0  0  0  0  0  0  0  0  0  0
  139.8072   67.0781  226.9382 H   0  0  0  0  0  0  0  0  0  0  0  0
  141.5623   70.4050  228.9641 H   0  0  0  0  0  0  0  0  0  0  0  0
  140.9915   71.9170  227.0837 H   0  0  0  0  0  0  0  0  0  0  0  0
  1  2  2  0
  2  3  1  0
  3  4  1  0
  4  5  1  0
  5  6  2  0
  5  7  1  0
  7  8  1  0
  8  9  1  0
  9 10  1  0
  9 11  1  0
 11 12  1  0
 12 13  1  0
 13 14  1  0
 14 15  1  0
 15 16  2  0
 16 17  1  0
 17 18  2  0
 18 19  1  0
 18 20  1  0
 20 21  2  0
  2 22  1  0
 22 23  2  0
 23 24  1  0
 24 25  2  0
 25 26  1  0
 26 27  2  0
 27 28  1  0
 27 29  1  0
 29 30  2  0
 30 31  1  0
 31 32  2  0
 12  7  1  0
 21 15  1  0
 32 22  1  0
 31 25  1  0
  3 33  1  0
  4 34  1  0
  4 35  1  0
  8 36  1  0
  8 37  1  0
  9 38  1  6
 10 39  1  0
 11 40  1  0
 11 41  1  0
 12 42  1  1
 13 43  1  0
 13 44  1  0
 16 45  1  0
 17 46  1  0
 20 47  1  0
 21 48  1  0
 23 49  1  0
 24 50  1  0
 26 51  1  0
 29 52  1  0
 30 53  1  0
M  END
>  <smiles>  (18) 
O=C(NCC(=O)N1C[C@H](O)C[C@H]1COc1ccc(Cl)cc1)c1ccc2cc(F)ccc2n1

>  <score_type>  (18) 
oracle

>  <origin>  (18) 
autodockgpu

>  <m_score__min__energy>  (18) 
-8.4900000000000002

>  <m_primary>  (18) 
energy

>  <rmsd>  (18) 
1.6631672917695017

>  <m_score__min__rmsd>  (18) 
1.6631672917695017

>  <meeko>  (18) 
{"free_energy": -7.17, "intermolecular_energy": -9.56, "internal_energy": -2.41, "cluster_size": 1, "cluster_id": 7, "rank_in_cluster": 1}

>  <energy>  (18) 
-7.33

>  <cluster_rmsd>  (18) 
1.8

>  <cluster>  (18) 
1

$$$$

     RDKit          3D

 53 56  0  0  0  0  0  0  0  0999 V2000
  139.4920   73.4130  222.6530 O   0  0  0  0  0  0  0  0  0  0  0  0
  140.3450   72.4930  222.7220 C   0  0  0  0  0  0  0  0  0  0  0  0
  141.4040   72.3370  221.7770 N   0  0  0  0  0  0  0  0  0  0  0  0
  141.5630   73.2570  220.6480 C   0  0  0  0  0  0  0  0  0  0  0  0
  142.9260   73.0770  220.1460 C   0  0  0  0  0  0  0  0  0  0  0  0
  143.7890   72.5310  220.9010 O   0  0  0  0  0  0  0  0  0  0  0  0
  143.3830   73.4680  218.8600 N   0  0  0  0  0  0  0  0  0  0  0  0
  143.6440   72.4890  217.7960 C   0  0  0  0  0  0  0  0  0  0  0  0
  144.9760   73.0690  217.2830 C   0  0  2  0  0  0  0  0  0  0  0  0
  145.8590   73.0110  218.3520 O   0  0  0  0  0  0  0  0  0  0  0  0
  144.5120   74.5170  217.0660 C   0  0  0  0  0  0  0  0  0  0  0  0
  143.6960   74.7590  218.3320 C   0  0  1  0  0  0  0  0  0  0  0  0
  142.5170   75.6550  218.0490 C   0  0  0  0  0  0  0  0  0  0  0  0
  141.7060   76.0270  219.0380 O   0  0  0  0  0  0  0  0  0  0  0  0
  141.5530   76.7040  220.1630 C   0  0  0  0  0  0  0  0  0  0  0  0
  141.1080   76.2570  221.3880 C   0  0  0  0  0  0  0  0  0  0  0  0
  140.9820   77.0480  222.5060 C   0  0  0  0  0  0  0  0  0  0  0  0
  141.3200   78.3750  222.4120 C   0  0  0  0  0  0  0  0  0  0  0  0
  141.1640   79.3780  223.8200 Cl  0  0  0  0  0  0  0  0  0  0  0  0
  141.7710   78.8890  221.2240 C   0  0  0  0  0  0  0  0  0  0  0  0
  141.8860   78.0800  220.1300 C   0  0  0  0  0  0  0  0  0  0  0  0
  140.2420   71.5400  223.8250 C   0  0  0  0  0  0  0  0  0  0  0  0
  139.6730   70.3040  223.6640 C   0  0  0  0  0  0  0  0  0  0  0  0
  139.5510   69.3700  224.6700 C   0  0  0  0  0  0  0  0  0  0  0  0
  140.0380   69.7170  225.9070 C   0  0  0  0  0  0  0  0  0  0  0  0
  139.9240   68.7920  226.9250 C   0  0  0  0  0  0  0  0  0  0  0  0
  140.4060   69.1190  228.1700 C   0  0  0  0  0  0  0  0  0  0  0  0
  140.2900   68.2140  229.1500 F   0  0  0  0  0  0  0  0  0  0  0  0
  140.9780   70.3550  228.3460 C   0  0  0  0  0  0  0  0  0  0  0  0
  141.0930   71.2880  227.3200 C   0  0  0  0  0  0  0  0  0  0  0  0
  140.6120   70.9590  226.0740 C   0  0  0  0  0  0  0  0  0  0  0  0
  140.7120   71.8450  225.0640 N   0  0  0  0  0  0  0  0  0  0  0  0
  142.0660   71.5360  221.9230 H   0  0  0  0  0  0  0  0  0  0  0  0
  140.8342   73.0185  219.8594 H   0  0  0  0  0  0  0  0  0  0  0  0
  141.3907   74.2979  220.9592 H   0  0  0  0  0  0  0  0  0  0  0  0
  143.7594   71.4684  218.1897 H   0  0  0  0  0  0  0  0  0  0  0  0
  142.8493   72.3737  217.0442 H   0  0  0  0  0  0  0  0  0  0  0  0
  145.4552   72.5950  216.4137 H   0  0  0  0  0  0  0  0  0  0  0  0
  145.3830   72.8970  219.2010 H   0  0  0  0  0  0  0  0  0  0  0  0
  145.3652   75.2079  216.9980 H   0  0  0  0  0  0  0  0  0  0  0  0
  143.9542   74.6773  216.1316 H   0  0  0  0  0  0  0  0  0  0  0  0
  144.2502   75.3148  219.1027 H   0  0  0  0  0  0  0  0  0  0  0  0
  142.9197   76.5777  217.6056 H   0  0  0  0  0  0  0  0  0  0  0  0
  141.8710   75.0275  217.4174 H   0  0  0  0  0  0  0  0  0  0  0  0
  140.8349   75.1952  221.4779 H   0  0  0  0  0  0  0  0  0  0  0  0
  140.6183   76.6264  223.4547 H   0  0  0  0  0  0  0  0  0  0  0  0
  142.0402   79.9531  221.1520 H   0  0  0  0  0  0  0  0  0  0  0  0
  142.2512   78.5136  219.1873 H   0  0  0  0  0  0  0  0  0  0  0  0
  139.2888   70.0402  222.6676 H   0  0  0  0  0  0  0  0  0  0  0  0
  139.0844   68.3902  224.4906 H   0  0  0  0  0  0  0  0  0  0  0  0
  139.4568   67.8128  226.7436 H   0  0  0  0  0  0  0  0  0  0  0  0
  141.3623   70.6193  229.3422 H   0  0  0  0  0  0  0  0  0  0  0  0
  141.5587   72.2679  227.5015 H   0  0  0  0  0  0  0  0  0  0  0  0
  1  2  2  0
  2  3  1  0
  3  4  1  0
  4  5  1  0
  5  6  2  0
  5  7  1  0
  7  8  1  0
  8  9  1  0
  9 10  1  0
  9 11  1  0
 11 12  1  0
 12 13  1  0
 13 14  1  0
 14 15  1  0
 15 16  2  0
 16 17  1  0
 17 18  2  0
 18 19  1  0
 18 20  1  0
 20 21  2  0
  2 22  1  0
 22 23  2  0
 23 24  1  0
 24 25  2  0
 25 26  1  0
 26 27  2  0
 27 28  1  0
 27 29  1  0
 29 30  2  0
 30 31  1  0
 31 32  2  0
 12  7  1  0
 21 15  1  0
 32 22  1  0
 31 25  1  0
  3 33  1  0
  4 34  1  0
  4 35  1  0
  8 36  1  0
  8 37  1  0
  9 38  1  6
 10 39  1  0
 11 40  1  0
 11 41  1  0
 12 42  1  1
 13 43  1  0
 13 44  1  0
 16 45  1  0
 17 46  1  0
 20 47  1  0
 21 48  1  0
 23 49  1  0
 24 50  1  0
 26 51  1  0
 29 52  1  0
 30 53  1  0
M  END
>  <smiles>  (19) 
O=C(NCC(=O)N1C[C@H](O)C[C@H]1COc1ccc(Cl)cc1)c1ccc2cc(F)ccc2n1

>  <score_type>  (19) 
oracle

>  <origin>  (19) 
autodockgpu

>  <m_score__min__energy>  (19) 
-8.4900000000000002

>  <m_primary>  (19) 
energy

>  <rmsd>  (19) 
3.2973838074987105

>  <m_score__min__rmsd>  (19) 
3.2973838074987105

>  <meeko>  (19) 
{"free_energy": -7.87, "intermolecular_energy": -10.26, "internal_energy": -2.51, "cluster_size": 18, "cluster_id": 1, "rank_in_cluster": 10}

>  <energy>  (19) 
-8.37

>  <cluster_rmsd>  (19) 
0.0

>  <cluster>  (19) 
2

$$$$

     RDKit          3D

 53 56  0  0  0  0  0  0  0  0999 V2000
  141.4150   72.2400  221.4480 O   0  0  0  0  0  0  0  0  0  0  0  0
  140.5950   72.5680  222.3420 C   0  0  0  0  0  0  0  0  0  0  0  0
  139.8840   73.8060  222.3350 N   0  0  0  0  0  0  0  0  0  0  0  0
  140.0720   74.7890  221.2640 C   0  0  0  0  0  0  0  0  0  0  0  0
  139.8000   76.1040  221.8470 C   0  0  0  0  0  0  0  0  0  0  0  0
  138.6820   76.3010  222.4190 O   0  0  0  0  0  0  0  0  0  0  0  0
  140.6930   77.2080  221.8310 N   0  0  0  0  0  0  0  0  0  0  0  0
  141.3740   77.6740  223.0450 C   0  0  0  0  0  0  0  0  0  0  0  0
  141.1740   79.1890  222.8440 C   0  0  2  0  0  0  0  0  0  0  0  0
  139.8020   79.3990  222.8340 O   0  0  0  0  0  0  0  0  0  0  0  0
  141.7290   79.2920  221.4160 C   0  0  0  0  0  0  0  0  0  0  0  0
  141.0970   78.0670  220.7630 C   0  0  1  0  0  0  0  0  0  0  0  0
  142.0280   77.4570  219.7460 C   0  0  0  0  0  0  0  0  0  0  0  0
  142.8540   76.4730  220.0990 O   0  0  0  0  0  0  0  0  0  0  0  0
  143.2970   75.2500  219.8680 C   0  0  0  0  0  0  0  0  0  0  0  0
  142.7250   74.2510  219.1120 C   0  0  0  0  0  0  0  0  0  0  0  0
  143.2690   73.0010  218.9330 C   0  0  0  0  0  0  0  0  0  0  0  0
  144.4650   72.7140  219.5430 C   0  0  0  0  0  0  0  0  0  0  0  0
  145.1580   71.1380  219.3210 Cl  0  0  0  0  0  0  0  0  0  0  0  0
  145.0930   73.6610  220.3110 C   0  0  0  0  0  0  0  0  0  0  0  0
  144.5280   74.8940  220.4700 C   0  0  0  0  0  0  0  0  0  0  0  0
  140.3620   71.6310  223.4390 C   0  0  0  0  0  0  0  0  0  0  0  0
  139.7150   70.4390  223.2500 C   0  0  0  0  0  0  0  0  0  0  0  0
  139.4710   69.5220  224.2500 C   0  0  0  0  0  0  0  0  0  0  0  0
  139.9130   69.8410  225.5110 C   0  0  0  0  0  0  0  0  0  0  0  0
  139.6770   68.9330  226.5230 C   0  0  0  0  0  0  0  0  0  0  0  0
  140.1120   69.2320  227.7930 C   0  0  0  0  0  0  0  0  0  0  0  0
  139.8780   68.3440  228.7660 F   0  0  0  0  0  0  0  0  0  0  0  0
  140.7630   70.4240  227.9960 C   0  0  0  0  0  0  0  0  0  0  0  0
  141.0010   71.3400  226.9760 C   0  0  0  0  0  0  0  0  0  0  0  0
  140.5660   71.0400  225.7060 C   0  0  0  0  0  0  0  0  0  0  0  0
  140.7840   71.9100  224.7020 N   0  0  0  0  0  0  0  0  0  0  0  0
  139.2200   73.9860  223.1280 H   0  0  0  0  0  0  0  0  0  0  0  0
  141.1050   74.7473  220.8883 H   0  0  0  0  0  0  0  0  0  0  0  0
  139.3999   74.5850  220.4174 H   0  0  0  0  0  0  0  0  0  0  0  0
  140.8868   77.3085  223.9610 H   0  0  0  0  0  0  0  0  0  0  0  0
  142.4144   77.3396  223.1702 H   0  0  0  0  0  0  0  0  0  0  0  0
  141.6232   79.8797  223.5728 H   0  0  0  0  0  0  0  0  0  0  0  0
  139.3150   78.5560  222.7170 H   0  0  0  0  0  0  0  0  0  0  0  0
  141.4070   80.2219  220.9245 H   0  0  0  0  0  0  0  0  0  0  0  0
  142.8273   79.3175  221.3594 H   0  0  0  0  0  0  0  0  0  0  0  0
  140.2049   78.3083  220.1664 H   0  0  0  0  0  0  0  0  0  0  0  0
  141.3974   77.0652  218.9344 H   0  0  0  0  0  0  0  0  0  0  0  0
  142.7120   78.2839  219.5044 H   0  0  0  0  0  0  0  0  0  0  0  0
  141.7668   74.4681  218.6172 H   0  0  0  0  0  0  0  0  0  0  0  0
  142.7576   72.2481  218.3152 H   0  0  0  0  0  0  0  0  0  0  0  0
  146.0510   73.4275  220.7985 H   0  0  0  0  0  0  0  0  0  0  0  0
  145.0491   75.6389  221.0893 H   0  0  0  0  0  0  0  0  0  0  0  0
  139.3675   70.1976  222.2346 H   0  0  0  0  0  0  0  0  0  0  0  0
  138.9458   68.5770  224.0473 H   0  0  0  0  0  0  0  0  0  0  0  0
  139.1514   67.9887  226.3180 H   0  0  0  0  0  0  0  0  0  0  0  0
  141.1121   70.6656  229.0108 H   0  0  0  0  0  0  0  0  0  0  0  0
  141.5262   72.2845  227.1810 H   0  0  0  0  0  0  0  0  0  0  0  0
  1  2  2  0
  2  3  1  0
  3  4  1  0
  4  5  1  0
  5  6  2  0
  5  7  1  0
  7  8  1  0
  8  9  1  0
  9 10  1  0
  9 11  1  0
 11 12  1  0
 12 13  1  0
 13 14  1  0
 14 15  1  0
 15 16  2  0
 16 17  1  0
 17 18  2  0
 18 19  1  0
 18 20  1  0
 20 21  2  0
  2 22  1  0
 22 23  2  0
 23 24  1  0
 24 25  2  0
 25 26  1  0
 26 27  2  0
 27 28  1  0
 27 29  1  0
 29 30  2  0
 30 31  1  0
 31 32  2  0
 12  7  1  0
 21 15  1  0
 32 22  1  0
 31 25  1  0
  3 33  1  0
  4 34  1  0
  4 35  1  0
  8 36  1  0
  8 37  1  0
  9 38  1  1
 10 39  1  0
 11 40  1  0
 11 41  1  0
 12 42  1  6
 13 43  1  0
 13 44  1  0
 16 45  1  0
 17 46  1  0
 20 47  1  0
 21 48  1  0
 23 49  1  0
 24 50  1  0
 26 51  1  0
 29 52  1  0
 30 53  1  0
M  END
>  <smiles>  (20) 
O=C(NCC(=O)N1C[C@H](O)C[C@H]1COc1ccc(Cl)cc1)c1ccc2cc(F)ccc2n1

>  <score_type>  (20) 
oracle

>  <origin>  (20) 
autodockgpu

>  <m_score__min__energy>  (20) 
-8.4900000000000002

>  <m_primary>  (20) 
energy

>  <rmsd>  (20) 
3.0663680872579273

>  <m_score__min__rmsd>  (20) 
3.0663680872579273

>  <meeko>  (20) 
{"free_energy": -7.82, "intermolecular_energy": -10.21, "internal_energy": -2.63, "cluster_size": 15, "cluster_id": 3, "rank_in_cluster": 4}

>  <energy>  (20) 
-8.06

>  <cluster_rmsd>  (20) 
0.69

>  <cluster>  (20) 
2

$$$$

     RDKit          3D

 53 56  0  0  0  0  0  0  0  0999 V2000
  141.3920   72.1540  221.4240 O   0  0  0  0  0  0  0  0  0  0  0  0
  140.5910   72.5200  222.3220 C   0  0  0  0  0  0  0  0  0  0  0  0
  139.9330   73.7870  222.3140 N   0  0  0  0  0  0  0  0  0  0  0  0
  140.1550   74.7560  221.2380 C   0  0  0  0  0  0  0  0  0  0  0  0
  139.9240   76.0830  221.8120 C   0  0  0  0  0  0  0  0  0  0  0  0
  139.1170   76.1960  222.7870 O   0  0  0  0  0  0  0  0  0  0  0  0
  140.5330   77.2860  221.3660 N   0  0  0  0  0  0  0  0  0  0  0  0
  141.4510   78.0540  222.2170 C   0  0  0  0  0  0  0  0  0  0  0  0
  140.9050   79.4630  221.9170 C   0  0  2  0  0  0  0  0  0  0  0  0
  139.5850   79.4640  222.3430 O   0  0  0  0  0  0  0  0  0  0  0  0
  140.9600   79.3930  220.3830 C   0  0  0  0  0  0  0  0  0  0  0  0
  140.4100   77.9940  220.1310 C   0  0  1  0  0  0  0  0  0  0  0  0
  141.0820   77.3570  218.9410 C   0  0  0  0  0  0  0  0  0  0  0  0
  142.2750   76.7790  219.0730 O   0  0  0  0  0  0  0  0  0  0  0  0
  142.9620   75.6700  219.2800 C   0  0  0  0  0  0  0  0  0  0  0  0
  144.0580   75.4680  220.0900 C   0  0  0  0  0  0  0  0  0  0  0  0
  144.7070   74.2650  220.2360 C   0  0  0  0  0  0  0  0  0  0  0  0
  144.2430   73.1800  219.5340 C   0  0  0  0  0  0  0  0  0  0  0  0
  145.0570   71.6580  219.7150 Cl  0  0  0  0  0  0  0  0  0  0  0  0
  143.1550   73.3060  218.7090 C   0  0  0  0  0  0  0  0  0  0  0  0
  142.5310   74.5140  218.5840 C   0  0  0  0  0  0  0  0  0  0  0  0
  140.3270   71.5990  223.4250 C   0  0  0  0  0  0  0  0  0  0  0  0
  139.6750   70.4090  223.2360 C   0  0  0  0  0  0  0  0  0  0  0  0
  139.4010   69.5060  224.2410 C   0  0  0  0  0  0  0  0  0  0  0  0
  139.8180   69.8370  225.5080 C   0  0  0  0  0  0  0  0  0  0  0  0
  139.5520   68.9430  226.5250 C   0  0  0  0  0  0  0  0  0  0  0  0
  139.9610   69.2540  227.8000 C   0  0  0  0  0  0  0  0  0  0  0  0
  139.6980   68.3800  228.7790 F   0  0  0  0  0  0  0  0  0  0  0  0
  140.6160   70.4430  228.0040 C   0  0  0  0  0  0  0  0  0  0  0  0
  140.8840   71.3450  226.9790 C   0  0  0  0  0  0  0  0  0  0  0  0
  140.4750   71.0330  225.7030 C   0  0  0  0  0  0  0  0  0  0  0  0
  140.7230   71.8890  224.6930 N   0  0  0  0  0  0  0  0  0  0  0  0
  139.2830   73.9970  223.1100 H   0  0  0  0  0  0  0  0  0  0  0  0
  141.1870   74.6787  220.8653 H   0  0  0  0  0  0  0  0  0  0  0  0
  139.4787   74.5683  220.3910 H   0  0  0  0  0  0  0  0  0  0  0  0
  141.3530   77.7880  223.2798 H   0  0  0  0  0  0  0  0  0  0  0  0
  142.5235   77.9036  222.0243 H   0  0  0  0  0  0  0  0  0  0  0  0
  141.4123   80.3299  222.3656 H   0  0  0  0  0  0  0  0  0  0  0  0
  139.2770   78.5570  222.5500 H   0  0  0  0  0  0  0  0  0  0  0  0
  140.3264   80.1645  219.9212 H   0  0  0  0  0  0  0  0  0  0  0  0
  141.9595   79.5686  219.9584 H   0  0  0  0  0  0  0  0  0  0  0  0
  139.3479   77.9941  219.8449 H   0  0  0  0  0  0  0  0  0  0  0  0
  140.3954   76.5833  218.5668 H   0  0  0  0  0  0  0  0  0  0  0  0
  141.2910   78.2140  218.2838 H   0  0  0  0  0  0  0  0  0  0  0  0
  144.4400   76.3284  220.6590 H   0  0  0  0  0  0  0  0  0  0  0  0
  145.5788   74.1736  220.9005 H   0  0  0  0  0  0  0  0  0  0  0  0
  142.7853   72.4347  218.1484 H   0  0  0  0  0  0  0  0  0  0  0  0
  141.6599   74.5926  217.9170 H   0  0  0  0  0  0  0  0  0  0  0  0
  139.3489   70.1577  222.2159 H   0  0  0  0  0  0  0  0  0  0  0  0
  138.8724   68.5630  224.0379 H   0  0  0  0  0  0  0  0  0  0  0  0
  139.0233   68.0005  226.3195 H   0  0  0  0  0  0  0  0  0  0  0  0
  140.9437   70.6940  229.0236 H   0  0  0  0  0  0  0  0  0  0  0  0
  141.4119   72.2879  227.1846 H   0  0  0  0  0  0  0  0  0  0  0  0
  1  2  2  0
  2  3  1  0
  3  4  1  0
  4  5  1  0
  5  6  2  0
  5  7  1  0
  7  8  1  0
  8  9  1  0
  9 10  1  0
  9 11  1  0
 11 12  1  0
 12 13  1  0
 13 14  1  0
 14 15  1  0
 15 16  2  0
 16 17  1  0
 17 18  2  0
 18 19  1  0
 18 20  1  0
 20 21  2  0
  2 22  1  0
 22 23  2  0
 23 24  1  0
 24 25  2  0
 25 26  1  0
 26 27  2  0
 27 28  1  0
 27 29  1  0
 29 30  2  0
 30 31  1  0
 31 32  2  0
 12  7  1  0
 21 15  1  0
 32 22  1  0
 31 25  1  0
  3 33  1  0
  4 34  1  0
  4 35  1  0
  8 36  1  0
  8 37  1  0
  9 38  1  1
 10 39  1  0
 11 40  1  0
 11 41  1  0
 12 42  1  6
 13 43  1  0
 13 44  1  0
 16 45  1  0
 17 46  1  0
 20 47  1  0
 21 48  1  0
 23 49  1  0
 24 50  1  0
 26 51  1  0
 29 52  1  0
 30 53  1  0
M  END
>  <smiles>  (21) 
O=C(NCC(=O)N1C[C@H](O)C[C@H]1COc1ccc(Cl)cc1)c1ccc2cc(F)ccc2n1

>  <score_type>  (21) 
oracle

>  <origin>  (21) 
autodockgpu

>  <m_score__min__energy>  (21) 
-8.4900000000000002

>  <m_primary>  (21) 
energy

>  <rmsd>  (21) 
2.8302444241037

>  <m_score__min__rmsd>  (21) 
2.8302444241037

>  <meeko>  (21) 
{"free_energy": -7.18, "intermolecular_energy": -9.56, "internal_energy": -2.95, "cluster_size": 15, "cluster_id": 3, "rank_in_cluster": 15}

>  <energy>  (21) 
-7.65

>  <cluster_rmsd>  (21) 
0.86

>  <cluster>  (21) 
2

$$$$

     RDKit          3D

 53 56  0  0  0  0  0  0  0  0999 V2000
  141.3280   72.1840  221.5840 O   0  0  0  0  0  0  0  0  0  0  0  0
  140.4430   72.4810  222.4270 C   0  0  0  0  0  0  0  0  0  0  0  0
  139.6150   73.6380  222.3170 N   0  0  0  0  0  0  0  0  0  0  0  0
  139.7500   74.5700  221.1940 C   0  0  0  0  0  0  0  0  0  0  0  0
  139.3610   75.8900  221.6930 C   0  0  0  0  0  0  0  0  0  0  0  0
  138.2130   76.0330  222.2160 O   0  0  0  0  0  0  0  0  0  0  0  0
  140.1720   77.0550  221.6430 N   0  0  0  0  0  0  0  0  0  0  0  0
  141.0710   77.4250  222.7440 C   0  0  0  0  0  0  0  0  0  0  0  0
  140.7540   78.9320  222.7930 C   0  0  2  0  0  0  0  0  0  0  0  0
  139.4020   79.0320  223.0910 O   0  0  0  0  0  0  0  0  0  0  0  0
  140.9860   79.2500  221.3080 C   0  0  0  0  0  0  0  0  0  0  0  0
  140.2940   78.0660  220.6400 C   0  0  1  0  0  0  0  0  0  0  0  0
  141.0180   77.6590  219.3820 C   0  0  0  0  0  0  0  0  0  0  0  0
  141.4760   76.4150  219.2450 O   0  0  0  0  0  0  0  0  0  0  0  0
  142.4530   75.5540  219.4670 C   0  0  0  0  0  0  0  0  0  0  0  0
  143.6630   75.7610  220.0930 C   0  0  0  0  0  0  0  0  0  0  0  0
  144.6210   74.7910  220.2750 C   0  0  0  0  0  0  0  0  0  0  0  0
  144.3700   73.5260  219.8070 C   0  0  0  0  0  0  0  0  0  0  0  0
  145.5740   72.2970  220.0340 Cl  0  0  0  0  0  0  0  0  0  0  0  0
  143.1860   73.2470  219.1740 C   0  0  0  0  0  0  0  0  0  0  0  0
  142.2530   74.2300  219.0080 C   0  0  0  0  0  0  0  0  0  0  0  0
  140.2590   71.5920  223.5730 C   0  0  0  0  0  0  0  0  0  0  0  0
  139.6350   70.3780  223.4560 C   0  0  0  0  0  0  0  0  0  0  0  0
  139.4360   69.5050  224.5030 C   0  0  0  0  0  0  0  0  0  0  0  0
  139.9010   69.8930  225.7370 C   0  0  0  0  0  0  0  0  0  0  0  0
  139.7110   69.0290  226.7960 C   0  0  0  0  0  0  0  0  0  0  0  0
  140.1690   69.3970  228.0390 C   0  0  0  0  0  0  0  0  0  0  0  0
  139.9790   68.5510  229.0580 F   0  0  0  0  0  0  0  0  0  0  0  0
  140.7960   70.6120  228.1700 C   0  0  0  0  0  0  0  0  0  0  0  0
  140.9880   71.4830  227.1020 C   0  0  0  0  0  0  0  0  0  0  0  0
  140.5300   71.1130  225.8590 C   0  0  0  0  0  0  0  0  0  0  0  0
  140.7040   71.9390  224.8100 N   0  0  0  0  0  0  0  0  0  0  0  0
  138.9050   73.7970  223.0730 H   0  0  0  0  0  0  0  0  0  0  0  0
  140.7917   74.5901  220.8413 H   0  0  0  0  0  0  0  0  0  0  0  0
  139.1164   74.2645  220.3483 H   0  0  0  0  0  0  0  0  0  0  0  0
  140.8098   76.9148  223.6829 H   0  0  0  0  0  0  0  0  0  0  0  0
  142.1303   77.1616  222.6078 H   0  0  0  0  0  0  0  0  0  0  0  0
  141.3114   79.5632  223.5007 H   0  0  0  0  0  0  0  0  0  0  0  0
  138.9300   78.1980  222.8870 H   0  0  0  0  0  0  0  0  0  0  0  0
  140.5186   80.2038  221.0222 H   0  0  0  0  0  0  0  0  0  0  0  0
  142.0440   79.3692  221.0317 H   0  0  0  0  0  0  0  0  0  0  0  0
  139.2837   78.3055  220.2767 H   0  0  0  0  0  0  0  0  0  0  0  0
  140.3244   77.8349  218.5465 H   0  0  0  0  0  0  0  0  0  0  0  0
  141.9372   78.2624  219.4153 H   0  0  0  0  0  0  0  0  0  0  0  0
  143.8773   76.7708  220.4731 H   0  0  0  0  0  0  0  0  0  0  0  0
  145.5675   75.0243  220.7845 H   0  0  0  0  0  0  0  0  0  0  0  0
  142.9880   72.2316  218.8001 H   0  0  0  0  0  0  0  0  0  0  0  0
  141.3100   73.9836  218.4981 H   0  0  0  0  0  0  0  0  0  0  0  0
  139.2693   70.0812  222.4620 H   0  0  0  0  0  0  0  0  0  0  0  0
  138.9276   68.5404  224.3580 H   0  0  0  0  0  0  0  0  0  0  0  0
  139.2030   68.0646  226.6486 H   0  0  0  0  0  0  0  0  0  0  0  0
  141.1627   70.9097  229.1634 H   0  0  0  0  0  0  0  0  0  0  0  0
  141.4957   72.4477  227.2488 H   0  0  0  0  0  0  0  0  0  0  0  0
  1  2  2  0
  2  3  1  0
  3  4  1  0
  4  5  1  0
  5  6  2  0
  5  7  1  0
  7  8  1  0
  8  9  1  0
  9 10  1  0
  9 11  1  0
 11 12  1  0
 12 13  1  0
 13 14  1  0
 14 15  1  0
 15 16  2  0
 16 17  1  0
 17 18  2  0
 18 19  1  0
 18 20  1  0
 20 21  2  0
  2 22  1  0
 22 23  2  0
 23 24  1  0
 24 25  2  0
 25 26  1  0
 26 27  2  0
 27 28  1  0
 27 29  1  0
 29 30  2  0
 30 31  1  0
 31 32  2  0
 12  7  1  0
 21 15  1  0
 32 22  1  0
 31 25  1  0
  3 33  1  0
  4 34  1  0
  4 35  1  0
  8 36  1  0
  8 37  1  0
  9 38  1  1
 10 39  1  0
 11 40  1  0
 11 41  1  0
 12 42  1  6
 13 43  1  0
 13 44  1  0
 16 45  1  0
 17 46  1  0
 20 47  1  0
 21 48  1  0
 23 49  1  0
 24 50  1  0
 26 51  1  0
 29 52  1  0
 30 53  1  0
M  END
>  <smiles>  (22) 
O=C(NCC(=O)N1C[C@H](O)C[C@H]1COc1ccc(Cl)cc1)c1ccc2cc(F)ccc2n1

>  <score_type>  (22) 
oracle

>  <origin>  (22) 
autodockgpu

>  <m_score__min__energy>  (22) 
-8.4900000000000002

>  <m_primary>  (22) 
energy

>  <rmsd>  (22) 
2.891446048007779

>  <m_score__min__rmsd>  (22) 
2.891446048007779

>  <meeko>  (22) 
{"free_energy": -7.63, "intermolecular_energy": -10.01, "internal_energy": -2.65, "cluster_size": 15, "cluster_id": 3, "rank_in_cluster": 8}

>  <energy>  (22) 
-7.28

>  <cluster_rmsd>  (22) 
1.01

>  <cluster>  (22) 
2

$$$$

     RDKit          3D

 53 56  0  0  0  0  0  0  0  0999 V2000
  139.5230   73.3940  222.6480 O   0  0  0  0  0  0  0  0  0  0  0  0
  140.3700   72.4680  222.7230 C   0  0  0  0  0  0  0  0  0  0  0  0
  141.4370   72.3050  221.7880 N   0  0  0  0  0  0  0  0  0  0  0  0
  141.6130   73.2270  220.6630 C   0  0  0  0  0  0  0  0  0  0  0  0
  142.9470   72.9730  220.1150 C   0  0  0  0  0  0  0  0  0  0  0  0
  143.7820   72.3210  220.8160 O   0  0  0  0  0  0  0  0  0  0  0  0
  143.4040   73.4010  218.8400 N   0  0  0  0  0  0  0  0  0  0  0  0
  143.7110   72.4490  217.7650 C   0  0  0  0  0  0  0  0  0  0  0  0
  145.0270   73.0850  217.2760 C   0  0  2  0  0  0  0  0  0  0  0  0
  145.9000   73.0410  218.3540 O   0  0  0  0  0  0  0  0  0  0  0  0
  144.5130   74.5190  217.0770 C   0  0  0  0  0  0  0  0  0  0  0  0
  143.6750   74.7100  218.3360 C   0  0  1  0  0  0  0  0  0  0  0  0
  142.4680   75.5690  218.0550 C   0  0  0  0  0  0  0  0  0  0  0  0
  141.7110   76.0110  219.0580 O   0  0  0  0  0  0  0  0  0  0  0  0
  141.5850   76.8370  220.0810 C   0  0  0  0  0  0  0  0  0  0  0  0
  141.8970   78.1770  220.1560 C   0  0  0  0  0  0  0  0  0  0  0  0
  141.7270   78.9540  221.2770 C   0  0  0  0  0  0  0  0  0  0  0  0
  141.2130   78.3700  222.4080 C   0  0  0  0  0  0  0  0  0  0  0  0
  140.9960   79.3460  223.8270 Cl  0  0  0  0  0  0  0  0  0  0  0  0
  140.8780   77.0410  222.4070 C   0  0  0  0  0  0  0  0  0  0  0  0
  141.0580   76.2930  221.2780 C   0  0  0  0  0  0  0  0  0  0  0  0
  140.2490   71.5120  223.8220 C   0  0  0  0  0  0  0  0  0  0  0  0
  139.6650   70.2850  223.6550 C   0  0  0  0  0  0  0  0  0  0  0  0
  139.5260   69.3490  224.6580 C   0  0  0  0  0  0  0  0  0  0  0  0
  140.0110   69.6870  225.8980 C   0  0  0  0  0  0  0  0  0  0  0  0
  139.8800   68.7600  226.9120 C   0  0  0  0  0  0  0  0  0  0  0  0
  140.3590   69.0770  228.1620 C   0  0  0  0  0  0  0  0  0  0  0  0
  140.2270   68.1710  229.1380 F   0  0  0  0  0  0  0  0  0  0  0  0
  140.9460   70.3050  228.3430 C   0  0  0  0  0  0  0  0  0  0  0  0
  141.0790   71.2400  227.3210 C   0  0  0  0  0  0  0  0  0  0  0  0
  140.5990   70.9210  226.0710 C   0  0  0  0  0  0  0  0  0  0  0  0
  140.7160   71.8080  225.0650 N   0  0  0  0  0  0  0  0  0  0  0  0
  142.0910   71.4990  221.9390 H   0  0  0  0  0  0  0  0  0  0  0  0
  140.8465   73.0403  219.8964 H   0  0  0  0  0  0  0  0  0  0  0  0
  141.5119   74.2727  220.9891 H   0  0  0  0  0  0  0  0  0  0  0  0
  143.8590   71.4272  218.1444 H   0  0  0  0  0  0  0  0  0  0  0  0
  142.9291   72.3165  217.0027 H   0  0  0  0  0  0  0  0  0  0  0  0
  145.5324   72.6431  216.4046 H   0  0  0  0  0  0  0  0  0  0  0  0
  146.1640   73.9420  218.6340 H   0  0  0  0  0  0  0  0  0  0  0  0
  145.3413   75.2414  217.0305 H   0  0  0  0  0  0  0  0  0  0  0  0
  143.9604   74.6746  216.1387 H   0  0  0  0  0  0  0  0  0  0  0  0
  144.2000   75.2725  219.1221 H   0  0  0  0  0  0  0  0  0  0  0  0
  142.8302   76.4573  217.5167 H   0  0  0  0  0  0  0  0  0  0  0  0
  141.7950   74.8862  217.5156 H   0  0  0  0  0  0  0  0  0  0  0  0
  142.3104   78.6579  219.2572 H   0  0  0  0  0  0  0  0  0  0  0  0
  141.9969   80.0203  221.2680 H   0  0  0  0  0  0  0  0  0  0  0  0
  140.4645   76.5769  223.3146 H   0  0  0  0  0  0  0  0  0  0  0  0
  140.7833   75.2281  221.2993 H   0  0  0  0  0  0  0  0  0  0  0  0
  139.2819   70.0293  222.6561 H   0  0  0  0  0  0  0  0  0  0  0  0
  139.0483   68.3755  224.4735 H   0  0  0  0  0  0  0  0  0  0  0  0
  139.4021   67.7871  226.7244 H   0  0  0  0  0  0  0  0  0  0  0  0
  141.3288   70.5615  229.3419 H   0  0  0  0  0  0  0  0  0  0  0  0
  141.5573   72.2128  227.5080 H   0  0  0  0  0  0  0  0  0  0  0  0
  1  2  2  0
  2  3  1  0
  3  4  1  0
  4  5  1  0
  5  6  2  0
  5  7  1  0
  7  8  1  0
  8  9  1  0
  9 10  1  0
  9 11  1  0
 11 12  1  0
 12 13  1  0
 13 14  1  0
 14 15  1  0
 15 16  2  0
 16 17  1  0
 17 18  2  0
 18 19  1  0
 18 20  1  0
 20 21  2  0
  2 22  1  0
 22 23  2  0
 23 24  1  0
 24 25  2  0
 25 26  1  0
 26 27  2  0
 27 28  1  0
 27 29  1  0
 29 30  2  0
 30 31  1  0
 31 32  2  0
 12  7  1  0
 21 15  1  0
 32 22  1  0
 31 25  1  0
  3 33  1  0
  4 34  1  0
  4 35  1  0
  8 36  1  0
  8 37  1  0
  9 38  1  6
 10 39  1  0
 11 40  1  0
 11 41  1  0
 12 42  1  1
 13 43  1  0
 13 44  1  0
 16 45  1  0
 17 46  1  0
 20 47  1  0
 21 48  1  0
 23 49  1  0
 24 50  1  0
 26 51  1  0
 29 52  1  0
 30 53  1  0
M  END
>  <smiles>  (23) 
O=C(NCC(=O)N1C[C@H](O)C[C@H]1COc1ccc(Cl)cc1)c1ccc2cc(F)ccc2n1

>  <score_type>  (23) 
oracle

>  <origin>  (23) 
autodockgpu

>  <m_score__min__energy>  (23) 
-8.4900000000000002

>  <m_primary>  (23) 
energy

>  <rmsd>  (23) 
3.3261669495189845

>  <m_score__min__rmsd>  (23) 
3.3261669495189845

>  <meeko>  (23) 
{"free_energy": -8.43, "intermolecular_energy": -10.81, "internal_energy": -2.05, "cluster_size": 18, "cluster_id": 1, "rank_in_cluster": 2}

>  <energy>  (23) 
-7.99

>  <cluster_rmsd>  (23) 
0.0

>  <cluster>  (23) 
3

$$$$

     RDKit          3D

 53 56  0  0  0  0  0  0  0  0999 V2000
  137.7300   70.2400  221.9680 O   0  0  0  0  0  0  0  0  0  0  0  0
  138.3760   70.8920  222.8270 C   0  0  0  0  0  0  0  0  0  0  0  0
  138.6300   72.2930  222.7170 N   0  0  0  0  0  0  0  0  0  0  0  0
  138.1440   73.0690  221.5730 C   0  0  0  0  0  0  0  0  0  0  0  0
  139.0500   74.2100  221.4230 C   0  0  0  0  0  0  0  0  0  0  0  0
  139.8910   74.4480  222.3440 O   0  0  0  0  0  0  0  0  0  0  0  0
  139.0730   75.0970  220.3150 N   0  0  0  0  0  0  0  0  0  0  0  0
  137.9220   75.9440  219.9730 C   0  0  0  0  0  0  0  0  0  0  0  0
  137.9310   75.7240  218.4470 C   0  0  2  0  0  0  0  0  0  0  0  0
  137.7270   74.3660  218.2520 O   0  0  0  0  0  0  0  0  0  0  0  0
  139.4040   76.0750  218.1880 C   0  0  0  0  0  0  0  0  0  0  0  0
  140.0880   75.3510  219.3420 C   0  0  1  0  0  0  0  0  0  0  0  0
  141.2850   76.1280  219.8310 C   0  0  0  0  0  0  0  0  0  0  0  0
  141.2220   76.8050  220.9770 O   0  0  0  0  0  0  0  0  0  0  0  0
  141.4680   77.9310  221.6240 C   0  0  0  0  0  0  0  0  0  0  0  0
  141.8250   79.1610  221.1160 C   0  0  0  0  0  0  0  0  0  0  0  0
  142.0630   80.2790  221.8800 C   0  0  0  0  0  0  0  0  0  0  0  0
  141.9390   80.1800  223.2440 C   0  0  0  0  0  0  0  0  0  0  0  0
  142.2370   81.5880  224.2140 Cl  0  0  0  0  0  0  0  0  0  0  0  0
  141.5860   78.9870  223.8190 C   0  0  0  0  0  0  0  0  0  0  0  0
  141.3560   77.8930  223.0350 C   0  0  0  0  0  0  0  0  0  0  0  0
  138.8900   70.1750  223.9920 C   0  0  0  0  0  0  0  0  0  0  0  0
  138.7600   68.8180  224.1220 C   0  0  0  0  0  0  0  0  0  0  0  0
  139.2260   68.0940  225.2000 C   0  0  0  0  0  0  0  0  0  0  0  0
  139.8600   68.7970  226.1970 C   0  0  0  0  0  0  0  0  0  0  0  0
  140.3330   68.0870  227.2810 C   0  0  0  0  0  0  0  0  0  0  0  0
  140.9700   68.7710  228.2900 C   0  0  0  0  0  0  0  0  0  0  0  0
  141.4250   68.0720  229.3370 F   0  0  0  0  0  0  0  0  0  0  0  0
  141.1070   70.1320  228.1710 C   0  0  0  0  0  0  0  0  0  0  0  0
  140.6300   70.8480  227.0780 C   0  0  0  0  0  0  0  0  0  0  0  0
  139.9930   70.1630  226.0690 C   0  0  0  0  0  0  0  0  0  0  0  0
  139.5220   70.8330  225.0000 N   0  0  0  0  0  0  0  0  0  0  0  0
  139.1790   72.7450  223.4870 H   0  0  0  0  0  0  0  0  0  0  0  0
  138.1579   72.4516  220.6627 H   0  0  0  0  0  0  0  0  0  0  0  0
  137.1087   73.4043  221.7334 H   0  0  0  0  0  0  0  0  0  0  0  0
  136.9912   75.5881  220.4387 H   0  0  0  0  0  0  0  0  0  0  0  0
  137.9793   76.9903  220.3078 H   0  0  0  0  0  0  0  0  0  0  0  0
  137.2028   76.2733  217.8321 H   0  0  0  0  0  0  0  0  0  0  0  0
  137.9970   74.0910  217.3510 H   0  0  0  0  0  0  0  0  0  0  0  0
  139.7442   75.6930  217.2142 H   0  0  0  0  0  0  0  0  0  0  0  0
  139.6104   77.1547  218.1466 H   0  0  0  0  0  0  0  0  0  0  0  0
  140.5229   74.3847  219.0468 H   0  0  0  0  0  0  0  0  0  0  0  0
  142.1097   75.4074  219.9339 H   0  0  0  0  0  0  0  0  0  0  0  0
  141.3941   76.9213  219.0768 H   0  0  0  0  0  0  0  0  0  0  0  0
  141.9265   79.2549  220.0247 H   0  0  0  0  0  0  0  0  0  0  0  0
  142.3465   81.2318  221.4090 H   0  0  0  0  0  0  0  0  0  0  0  0
  141.4880   78.9109  224.9120 H   0  0  0  0  0  0  0  0  0  0  0  0
  141.0729   76.9461  223.5179 H   0  0  0  0  0  0  0  0  0  0  0  0
  138.2514   68.2700  223.3151 H   0  0  0  0  0  0  0  0  0  0  0  0
  139.0961   67.0033  225.2591 H   0  0  0  0  0  0  0  0  0  0  0  0
  140.2034   66.9961  227.3373 H   0  0  0  0  0  0  0  0  0  0  0  0
  141.6170   70.6809  228.9764 H   0  0  0  0  0  0  0  0  0  0  0  0
  140.7594   71.9389  227.0215 H   0  0  0  0  0  0  0  0  0  0  0  0
  1  2  2  0
  2  3  1  0
  3  4  1  0
  4  5  1  0
  5  6  2  0
  5  7  1  0
  7  8  1  0
  8  9  1  0
  9 10  1  0
  9 11  1  0
 11 12  1  0
 12 13  1  0
 13 14  1  0
 14 15  1  0
 15 16  2  0
 16 17  1  0
 17 18  2  0
 18 19  1  0
 18 20  1  0
 20 21  2  0
  2 22  1  0
 22 23  2  0
 23 24  1  0
 24 25  2  0
 25 26  1  0
 26 27  2  0
 27 28  1  0
 27 29  1  0
 29 30  2  0
 30 31  1  0
 31 32  2  0
 12  7  1  0
 21 15  1  0
 32 22  1  0
 31 25  1  0
  3 33  1  0
  4 34  1  0
  4 35  1  0
  8 36  1  0
  8 37  1  0
  9 38  1  6
 10 39  1  0
 11 40  1  0
 11 41  1  0
 12 42  1  6
 13 43  1  0
 13 44  1  0
 16 45  1  0
 17 46  1  0
 20 47  1  0
 21 48  1  0
 23 49  1  0
 24 50  1  0
 26 51  1  0
 29 52  1  0
 30 53  1  0
M  END
>  <smiles>  (24) 
O=C(NCC(=O)N1C[C@H](O)C[C@H]1COc1ccc(Cl)cc1)c1ccc2cc(F)ccc2n1

>  <score_type>  (24) 
oracle

>  <origin>  (24) 
autodockgpu

>  <m_score__min__energy>  (24) 
-8.4900000000000002

>  <m_primary>  (24) 
energy

>  <rmsd>  (24) 
1.5284264293876948

>  <m_score__min__rmsd>  (24) 
1.5284264293876948

>  <meeko>  (24) 
{"free_energy": -7.69, "intermolecular_energy": -10.08, "internal_energy": -2.24, "cluster_size": 2, "cluster_id": 4, "rank_in_cluster": 2}

>  <energy>  (24) 
-7.93

>  <cluster_rmsd>  (24) 
0.35

>  <cluster>  (24) 
3

$$$$

     RDKit          3D

 53 56  0  0  0  0  0  0  0  0999 V2000
  137.7820   70.2470  221.9780 O   0  0  0  0  0  0  0  0  0  0  0  0
  138.4390   70.8950  222.8320 C   0  0  0  0  0  0  0  0  0  0  0  0
  138.7210   72.2890  222.7100 N   0  0  0  0  0  0  0  0  0  0  0  0
  138.2530   73.0640  221.5580 C   0  0  0  0  0  0  0  0  0  0  0  0
  139.0420   74.2970  221.5310 C   0  0  0  0  0  0  0  0  0  0  0  0
  140.0440   74.3990  222.3050 O   0  0  0  0  0  0  0  0  0  0  0  0
  138.7830   75.4170  220.6980 N   0  0  0  0  0  0  0  0  0  0  0  0
  137.6750   76.3430  220.9630 C   0  0  0  0  0  0  0  0  0  0  0  0
  137.1540   76.4850  219.5190 C   0  0  2  0  0  0  0  0  0  0  0  0
  136.7630   75.2130  219.1240 O   0  0  0  0  0  0  0  0  0  0  0  0
  138.4840   76.8560  218.8460 C   0  0  0  0  0  0  0  0  0  0  0  0
  139.4380   75.8700  219.5110 C   0  0  1  0  0  0  0  0  0  0  0  0
  140.7990   76.4880  219.7080 C   0  0  0  0  0  0  0  0  0  0  0  0
  141.1840   76.8910  220.9180 O   0  0  0  0  0  0  0  0  0  0  0  0
  141.4090   77.9010  221.7390 C   0  0  0  0  0  0  0  0  0  0  0  0
  141.3120   77.9390  223.1130 C   0  0  0  0  0  0  0  0  0  0  0  0
  141.5690   79.0490  223.8820 C   0  0  0  0  0  0  0  0  0  0  0  0
  141.9500   80.2080  223.2530 C   0  0  0  0  0  0  0  0  0  0  0  0
  142.2770   81.6130  224.2180 Cl  0  0  0  0  0  0  0  0  0  0  0  0
  142.0700   80.2440  221.8870 C   0  0  0  0  0  0  0  0  0  0  0  0
  141.8080   79.1260  221.1500 C   0  0  0  0  0  0  0  0  0  0  0  0
  138.9370   70.1780  224.0050 C   0  0  0  0  0  0  0  0  0  0  0  0
  138.8130   68.8200  224.1300 C   0  0  0  0  0  0  0  0  0  0  0  0
  139.2650   68.0970  225.2140 C   0  0  0  0  0  0  0  0  0  0  0  0
  139.8750   68.8020  226.2240 C   0  0  0  0  0  0  0  0  0  0  0  0
  140.3330   68.0930  227.3150 C   0  0  0  0  0  0  0  0  0  0  0  0
  140.9480   68.7780  228.3370 C   0  0  0  0  0  0  0  0  0  0  0  0
  141.3890   68.0800  229.3900 F   0  0  0  0  0  0  0  0  0  0  0  0
  141.0780   70.1400  228.2230 C   0  0  0  0  0  0  0  0  0  0  0  0
  140.6170   70.8550  227.1230 C   0  0  0  0  0  0  0  0  0  0  0  0
  140.0020   70.1690  226.1020 C   0  0  0  0  0  0  0  0  0  0  0  0
  139.5470   70.8380  225.0250 N   0  0  0  0  0  0  0  0  0  0  0  0
  139.2780   72.7370  223.4770 H   0  0  0  0  0  0  0  0  0  0  0  0
  138.4081   72.4944  220.6298 H   0  0  0  0  0  0  0  0  0  0  0  0
  137.1783   73.2840  221.6397 H   0  0  0  0  0  0  0  0  0  0  0  0
  136.9214   75.9075  221.6356 H   0  0  0  0  0  0  0  0  0  0  0  0
  137.9443   77.2810  221.4705 H   0  0  0  0  0  0  0  0  0  0  0  0
  136.3214   77.1775  219.3258 H   0  0  0  0  0  0  0  0  0  0  0  0
  135.9260   75.2410  218.6160 H   0  0  0  0  0  0  0  0  0  0  0  0
  138.4412   76.7036  217.7574 H   0  0  0  0  0  0  0  0  0  0  0  0
  138.7708   77.9113  218.9645 H   0  0  0  0  0  0  0  0  0  0  0  0
  139.6535   74.9903  218.8868 H   0  0  0  0  0  0  0  0  0  0  0  0
  141.5361   75.7433  219.3731 H   0  0  0  0  0  0  0  0  0  0  0  0
  140.7314   77.4281  219.1409 H   0  0  0  0  0  0  0  0  0  0  0  0
  141.0078   77.0171  223.6304 H   0  0  0  0  0  0  0  0  0  0  0  0
  141.4715   79.0093  224.9770 H   0  0  0  0  0  0  0  0  0  0  0  0
  142.3773   81.1738  221.3860 H   0  0  0  0  0  0  0  0  0  0  0  0
  141.9106   79.1779  220.0560 H   0  0  0  0  0  0  0  0  0  0  0  0
  138.3214   68.2706  223.3136 H   0  0  0  0  0  0  0  0  0  0  0  0
  139.1428   67.0051  225.2679 H   0  0  0  0  0  0  0  0  0  0  0  0
  140.2088   67.0013  227.3667 H   0  0  0  0  0  0  0  0  0  0  0  0
  141.5691   70.6907  229.0388 H   0  0  0  0  0  0  0  0  0  0  0  0
  140.7417   71.9467  227.0706 H   0  0  0  0  0  0  0  0  0  0  0  0
  1  2  2  0
  2  3  1  0
  3  4  1  0
  4  5  1  0
  5  6  2  0
  5  7  1  0
  7  8  1  0
  8  9  1  0
  9 10  1  0
  9 11  1  0
 11 12  1  0
 12 13  1  0
 13 14  1  0
 14 15  1  0
 15 16  2  0
 16 17  1  0
 17 18  2  0
 18 19  1  0
 18 20  1  0
 20 21  2  0
  2 22  1  0
 22 23  2  0
 23 24  1  0
 24 25  2  0
 25 26  1  0
 26 27  2  0
 27 28  1  0
 27 29  1  0
 29 30  2  0
 30 31  1  0
 31 32  2  0
 12  7  1  0
 21 15  1  0
 32 22  1  0
 31 25  1  0
  3 33  1  0
  4 34  1  0
  4 35  1  0
  8 36  1  0
  8 37  1  0
  9 38  1  1
 10 39  1  0
 11 40  1  0
 11 41  1  0
 12 42  1  6
 13 43  1  0
 13 44  1  0
 16 45  1  0
 17 46  1  0
 20 47  1  0
 21 48  1  0
 23 49  1  0
 24 50  1  0
 26 51  1  0
 29 52  1  0
 30 53  1  0
M  END
>  <smiles>  (25) 
O=C(NCC(=O)N1C[C@H](O)C[C@H]1COc1ccc(Cl)cc1)c1ccc2cc(F)ccc2n1

>  <score_type>  (25) 
oracle

>  <origin>  (25) 
autodockgpu

>  <m_score__min__energy>  (25) 
-8.4900000000000002

>  <m_primary>  (25) 
energy

>  <rmsd>  (25) 
1.9004708566098432

>  <m_score__min__rmsd>  (25) 
1.9004708566098432

>  <meeko>  (25) 
{"free_energy": -7.75, "intermolecular_energy": -10.13, "internal_energy": -2.3, "cluster_size": 2, "cluster_id": 4, "rank_in_cluster": 1}

>  <energy>  (25) 
-7.88

>  <cluster_rmsd>  (25) 
0.34

>  <cluster>  (25) 
3

$$$$

     RDKit          3D

 53 56  0  0  0  0  0  0  0  0999 V2000
  136.8930   70.3250  221.9640 O   0  0  0  0  0  0  0  0  0  0  0  0
  137.5290   71.0330  222.7850 C   0  0  0  0  0  0  0  0  0  0  0  0
  137.5670   72.4590  222.7240 N   0  0  0  0  0  0  0  0  0  0  0  0
  136.8530   73.1970  221.6790 C   0  0  0  0  0  0  0  0  0  0  0  0
  137.8170   73.4410  220.6030 C   0  0  0  0  0  0  0  0  0  0  0  0
  137.4050   73.4420  219.4020 O   0  0  0  0  0  0  0  0  0  0  0  0
  139.2040   73.6820  220.7860 N   0  0  0  0  0  0  0  0  0  0  0  0
  140.2050   72.6190  220.6290 C   0  0  0  0  0  0  0  0  0  0  0  0
  141.0650   72.9390  221.8670 C   0  0  2  0  0  0  0  0  0  0  0  0
  140.2300   72.7890  222.9650 O   0  0  0  0  0  0  0  0  0  0  0  0
  141.2990   74.4310  221.5870 C   0  0  0  0  0  0  0  0  0  0  0  0
  139.9060   74.8720  221.1510 C   0  0  1  0  0  0  0  0  0  0  0  0
  139.9870   75.9380  220.0870 C   0  0  0  0  0  0  0  0  0  0  0  0
  140.8080   76.9760  220.2390 O   0  0  0  0  0  0  0  0  0  0  0  0
  141.2310   77.9620  221.0100 C   0  0  0  0  0  0  0  0  0  0  0  0
  141.7920   79.1670  220.6460 C   0  0  0  0  0  0  0  0  0  0  0  0
  142.2030   80.1340  221.5320 C   0  0  0  0  0  0  0  0  0  0  0  0
  142.0520   79.8990  222.8760 C   0  0  0  0  0  0  0  0  0  0  0  0
  142.5690   81.1160  224.0000 Cl  0  0  0  0  0  0  0  0  0  0  0  0
  141.5000   78.7220  223.3120 C   0  0  0  0  0  0  0  0  0  0  0  0
  141.1000   77.7790  222.4090 C   0  0  0  0  0  0  0  0  0  0  0  0
  138.2640   70.3570  223.8520 C   0  0  0  0  0  0  0  0  0  0  0  0
  138.2790   68.9920  223.9690 C   0  0  0  0  0  0  0  0  0  0  0  0
  138.9550   68.3060  224.9560 C   0  0  0  0  0  0  0  0  0  0  0  0
  139.6550   69.0550  225.8710 C   0  0  0  0  0  0  0  0  0  0  0  0
  140.3380   68.3830  226.8630 C   0  0  0  0  0  0  0  0  0  0  0  0
  141.0450   69.1140  227.7890 C   0  0  0  0  0  0  0  0  0  0  0  0
  141.7030   68.4510  228.7470 F   0  0  0  0  0  0  0  0  0  0  0  0
  141.0380   70.4830  227.6830 C   0  0  0  0  0  0  0  0  0  0  0  0
  140.3500   71.1610  226.6820 C   0  0  0  0  0  0  0  0  0  0  0  0
  139.6430   70.4290  225.7560 C   0  0  0  0  0  0  0  0  0  0  0  0
  138.9690   71.0620  224.7770 N   0  0  0  0  0  0  0  0  0  0  0  0
  138.1270   72.9580  223.4570 H   0  0  0  0  0  0  0  0  0  0  0  0
  136.0084   72.6007  221.3034 H   0  0  0  0  0  0  0  0  0  0  0  0
  136.4472   74.1422  222.0688 H   0  0  0  0  0  0  0  0  0  0  0  0
  139.7573   71.6156  220.6822 H   0  0  0  0  0  0  0  0  0  0  0  0
  140.7375   72.5996  219.6667 H   0  0  0  0  0  0  0  0  0  0  0  0
  141.9752   72.3467  222.0426 H   0  0  0  0  0  0  0  0  0  0  0  0
  139.8670   71.8800  223.0140 H   0  0  0  0  0  0  0  0  0  0  0  0
  141.6261   74.9645  222.4916 H   0  0  0  0  0  0  0  0  0  0  0  0
  142.0887   74.6335  220.8485 H   0  0  0  0  0  0  0  0  0  0  0  0
  139.3396   75.3661  221.9541 H   0  0  0  0  0  0  0  0  0  0  0  0
  140.2836   75.4336  219.1556 H   0  0  0  0  0  0  0  0  0  0  0  0
  138.9896   76.4007  220.1197 H   0  0  0  0  0  0  0  0  0  0  0  0
  141.9197   79.3688  219.5722 H   0  0  0  0  0  0  0  0  0  0  0  0
  142.6433   81.0756  221.1720 H   0  0  0  0  0  0  0  0  0  0  0  0
  141.3793   78.5373  224.3896 H   0  0  0  0  0  0  0  0  0  0  0  0
  140.6597   76.8423  222.7815 H   0  0  0  0  0  0  0  0  0  0  0  0
  137.7157   68.4057  223.2281 H   0  0  0  0  0  0  0  0  0  0  0  0
  138.9348   67.2074  225.0085 H   0  0  0  0  0  0  0  0  0  0  0  0
  140.3177   67.2843  226.9126 H   0  0  0  0  0  0  0  0  0  0  0  0
  141.6018   71.0700  228.4230 H   0  0  0  0  0  0  0  0  0  0  0  0
  140.3708   72.2597  226.6318 H   0  0  0  0  0  0  0  0  0  0  0  0
  1  2  2  0
  2  3  1  0
  3  4  1  0
  4  5  1  0
  5  6  2  0
  5  7  1  0
  7  8  1  0
  8  9  1  0
  9 10  1  0
  9 11  1  0
 11 12  1  0
 12 13  1  0
 13 14  1  0
 14 15  1  0
 15 16  2  0
 16 17  1  0
 17 18  2  0
 18 19  1  0
 18 20  1  0
 20 21  2  0
  2 22  1  0
 22 23  2  0
 23 24  1  0
 24 25  2  0
 25 26  1  0
 26 27  2  0
 27 28  1  0
 27 29  1  0
 29 30  2  0
 30 31  1  0
 31 32  2  0
 12  7  1  0
 21 15  1  0
 32 22  1  0
 31 25  1  0
  3 33  1  0
  4 34  1  0
  4 35  1  0
  8 36  1  0
  8 37  1  0
  9 38  1  1
 10 39  1  0
 11 40  1  0
 11 41  1  0
 12 42  1  1
 13 43  1  0
 13 44  1  0
 16 45  1  0
 17 46  1  0
 20 47  1  0
 21 48  1  0
 23 49  1  0
 24 50  1  0
 26 51  1  0
 29 52  1  0
 30 53  1  0
M  END
>  <smiles>  (26) 
O=C(NCC(=O)N1C[C@H](O)C[C@H]1COc1ccc(Cl)cc1)c1ccc2cc(F)ccc2n1

>  <score_type>  (26) 
oracle

>  <origin>  (26) 
autodockgpu

>  <m_score__min__energy>  (26) 
-8.4900000000000002

>  <m_primary>  (26) 
energy

>  <rmsd>  (26) 
2.5867810344069624

>  <m_score__min__rmsd>  (26) 
2.5867810344069624

>  <meeko>  (26) 
{"free_energy": -7.38, "intermolecular_energy": -9.77, "internal_energy": -3.22, "cluster_size": 18, "cluster_id": 1, "rank_in_cluster": 17}

>  <energy>  (26) 
-7.82

>  <cluster_rmsd>  (26) 
0.33

>  <cluster>  (26) 
3

$$$$

     RDKit          3D

 53 56  0  0  0  0  0  0  0  0999 V2000
  139.5670   73.4540  222.6190 O   0  0  0  0  0  0  0  0  0  0  0  0
  140.3480   72.4700  222.6600 C   0  0  0  0  0  0  0  0  0  0  0  0
  141.3390   72.2160  221.6640 N   0  0  0  0  0  0  0  0  0  0  0  0
  141.5090   73.1050  220.5120 C   0  0  0  0  0  0  0  0  0  0  0  0
  142.8760   72.9070  220.0250 C   0  0  0  0  0  0  0  0  0  0  0  0
  143.7000   72.2740  220.7560 O   0  0  0  0  0  0  0  0  0  0  0  0
  143.3770   73.3710  218.7800 N   0  0  0  0  0  0  0  0  0  0  0  0
  143.6380   72.4590  217.6590 C   0  0  0  0  0  0  0  0  0  0  0  0
  144.9990   73.0330  217.2190 C   0  0  2  0  0  0  0  0  0  0  0  0
  145.8520   72.8780  218.3020 O   0  0  0  0  0  0  0  0  0  0  0  0
  144.5800   74.5060  217.0900 C   0  0  0  0  0  0  0  0  0  0  0  0
  143.7380   74.6850  218.3490 C   0  0  1  0  0  0  0  0  0  0  0  0
  142.5920   75.6320  218.1000 C   0  0  0  0  0  0  0  0  0  0  0  0
  141.7720   75.9690  219.0950 O   0  0  0  0  0  0  0  0  0  0  0  0
  141.5900   76.6590  220.2070 C   0  0  0  0  0  0  0  0  0  0  0  0
  141.0970   76.2320  221.4200 C   0  0  0  0  0  0  0  0  0  0  0  0
  140.9440   77.0350  222.5250 C   0  0  0  0  0  0  0  0  0  0  0  0
  141.3020   78.3570  222.4290 C   0  0  0  0  0  0  0  0  0  0  0  0
  141.1120   79.3770  223.8210 Cl  0  0  0  0  0  0  0  0  0  0  0  0
  141.8010   78.8520  221.2520 C   0  0  0  0  0  0  0  0  0  0  0  0
  141.9420   78.0300  220.1710 C   0  0  0  0  0  0  0  0  0  0  0  0
  140.2290   71.5430  223.7840 C   0  0  0  0  0  0  0  0  0  0  0  0
  139.6370   70.3150  223.6510 C   0  0  0  0  0  0  0  0  0  0  0  0
  139.5000   69.4060  224.6780 C   0  0  0  0  0  0  0  0  0  0  0  0
  139.9950   69.7720  225.9070 C   0  0  0  0  0  0  0  0  0  0  0  0
  139.8660   68.8720  226.9450 C   0  0  0  0  0  0  0  0  0  0  0  0
  140.3560   69.2170  228.1820 C   0  0  0  0  0  0  0  0  0  0  0  0
  140.2250   68.3370  229.1820 F   0  0  0  0  0  0  0  0  0  0  0  0
  140.9520   70.4460  228.3290 C   0  0  0  0  0  0  0  0  0  0  0  0
  141.0820   71.3530  227.2820 C   0  0  0  0  0  0  0  0  0  0  0  0
  140.5920   71.0060  226.0450 C   0  0  0  0  0  0  0  0  0  0  0  0
  140.7070   71.8670  225.0150 N   0  0  0  0  0  0  0  0  0  0  0  0
  141.9430   71.3670  221.7900 H   0  0  0  0  0  0  0  0  0  0  0  0
  140.7852   72.8477  219.7247 H   0  0  0  0  0  0  0  0  0  0  0  0
  141.3377   74.1544  220.7937 H   0  0  0  0  0  0  0  0  0  0  0  0
  143.7147   71.4112  217.9849 H   0  0  0  0  0  0  0  0  0  0  0  0
  142.8603   72.4179  216.8822 H   0  0  0  0  0  0  0  0  0  0  0  0
  145.4876   72.6045  216.3315 H   0  0  0  0  0  0  0  0  0  0  0  0
  145.3510   72.7080  219.1270 H   0  0  0  0  0  0  0  0  0  0  0  0
  145.4531   75.1751  217.0903 H   0  0  0  0  0  0  0  0  0  0  0  0
  144.0516   74.7452  216.1553 H   0  0  0  0  0  0  0  0  0  0  0  0
  144.2865   75.1712  219.1692 H   0  0  0  0  0  0  0  0  0  0  0  0
  143.0306   76.5669  217.7210 H   0  0  0  0  0  0  0  0  0  0  0  0
  141.9404   75.0634  217.4202 H   0  0  0  0  0  0  0  0  0  0  0  0
  140.8055   75.1752  221.5108 H   0  0  0  0  0  0  0  0  0  0  0  0
  140.5437   76.6276  223.4651 H   0  0  0  0  0  0  0  0  0  0  0  0
  142.0878   79.9114  221.1785 H   0  0  0  0  0  0  0  0  0  0  0  0
  142.3443   78.4487  219.2367 H   0  0  0  0  0  0  0  0  0  0  0  0
  139.2459   70.0365  222.6613 H   0  0  0  0  0  0  0  0  0  0  0  0
  139.0160   68.4308  224.5210 H   0  0  0  0  0  0  0  0  0  0  0  0
  139.3807   67.8978  226.7857 H   0  0  0  0  0  0  0  0  0  0  0  0
  141.3437   70.7253  229.3182 H   0  0  0  0  0  0  0  0  0  0  0  0
  141.5668   72.3276  227.4405 H   0  0  0  0  0  0  0  0  0  0  0  0
  1  2  2  0
  2  3  1  0
  3  4  1  0
  4  5  1  0
  5  6  2  0
  5  7  1  0
  7  8  1  0
  8  9  1  0
  9 10  1  0
  9 11  1  0
 11 12  1  0
 12 13  1  0
 13 14  1  0
 14 15  1  0
 15 16  2  0
 16 17  1  0
 17 18  2  0
 18 19  1  0
 18 20  1  0
 20 21  2  0
  2 22  1  0
 22 23  2  0
 23 24  1  0
 24 25  2  0
 25 26  1  0
 26 27  2  0
 27 28  1  0
 27 29  1  0
 29 30  2  0
 30 31  1  0
 31 32  2  0
 12  7  1  0
 21 15  1  0
 32 22  1  0
 31 25  1  0
  3 33  1  0
  4 34  1  0
  4 35  1  0
  8 36  1  0
  8 37  1  0
  9 38  1  6
 10 39  1  0
 11 40  1  0
 11 41  1  0
 12 42  1  1
 13 43  1  0
 13 44  1  0
 16 45  1  0
 17 46  1  0
 20 47  1  0
 21 48  1  0
 23 49  1  0
 24 50  1  0
 26 51  1  0
 29 52  1  0
 30 53  1  0
M  END
>  <smiles>  (27) 
O=C(NCC(=O)N1C[C@H](O)C[C@H]1COc1ccc(Cl)cc1)c1ccc2cc(F)ccc2n1

>  <score_type>  (27) 
oracle

>  <origin>  (27) 
autodockgpu

>  <m_score__min__energy>  (27) 
-8.4900000000000002

>  <m_primary>  (27) 
energy

>  <rmsd>  (27) 
3.3180000156518874

>  <m_score__min__rmsd>  (27) 
3.3180000156518874

>  <meeko>  (27) 
{"free_energy": -7.86, "intermolecular_energy": -10.24, "internal_energy": -2.56, "cluster_size": 18, "cluster_id": 1, "rank_in_cluster": 11}

>  <energy>  (27) 
-7.78

>  <cluster_rmsd>  (27) 
0.87

>  <cluster>  (27) 
3

$$$$

     RDKit          3D

 53 56  0  0  0  0  0  0  0  0999 V2000
  136.9080   70.2800  222.0240 O   0  0  0  0  0  0  0  0  0  0  0  0
  137.5720   71.0060  222.8060 C   0  0  0  0  0  0  0  0  0  0  0  0
  137.6470   72.4260  222.6810 N   0  0  0  0  0  0  0  0  0  0  0  0
  136.9390   73.1370  221.6130 C   0  0  0  0  0  0  0  0  0  0  0  0
  137.9180   73.3870  220.5530 C   0  0  0  0  0  0  0  0  0  0  0  0
  137.5250   73.3930  219.3460 O   0  0  0  0  0  0  0  0  0  0  0  0
  139.3030   73.6270  220.7580 N   0  0  0  0  0  0  0  0  0  0  0  0
  140.3070   72.5680  220.6020 C   0  0  0  0  0  0  0  0  0  0  0  0
  141.1490   72.8740  221.8560 C   0  0  2  0  0  0  0  0  0  0  0  0
  140.3000   72.7100  222.9400 O   0  0  0  0  0  0  0  0  0  0  0  0
  141.3850   74.3700  221.5970 C   0  0  0  0  0  0  0  0  0  0  0  0
  139.9970   74.8140  221.1470 C   0  0  1  0  0  0  0  0  0  0  0  0
  140.0910   75.8930  220.0970 C   0  0  0  0  0  0  0  0  0  0  0  0
  140.2210   77.1690  220.4570 O   0  0  0  0  0  0  0  0  0  0  0  0
  140.8460   78.0590  221.2070 C   0  0  0  0  0  0  0  0  0  0  0  0
  141.4700   79.2270  220.8260 C   0  0  0  0  0  0  0  0  0  0  0  0
  142.0970   80.0930  221.6910 C   0  0  0  0  0  0  0  0  0  0  0  0
  142.1110   79.7870  223.0290 C   0  0  0  0  0  0  0  0  0  0  0  0
  142.9010   80.8760  224.1260 Cl  0  0  0  0  0  0  0  0  0  0  0  0
  141.5090   78.6410  223.4810 C   0  0  0  0  0  0  0  0  0  0  0  0
  140.8940   77.8000  222.5990 C   0  0  0  0  0  0  0  0  0  0  0  0
  138.3030   70.3570  223.8930 C   0  0  0  0  0  0  0  0  0  0  0  0
  138.3220   68.9950  224.0420 C   0  0  0  0  0  0  0  0  0  0  0  0
  138.9950   68.3350  225.0480 C   0  0  0  0  0  0  0  0  0  0  0  0
  139.6860   69.1090  225.9500 C   0  0  0  0  0  0  0  0  0  0  0  0
  140.3650   68.4620  226.9620 C   0  0  0  0  0  0  0  0  0  0  0  0
  141.0630   69.2170  227.8750 C   0  0  0  0  0  0  0  0  0  0  0  0
  141.7180   68.5800  228.8520 F   0  0  0  0  0  0  0  0  0  0  0  0
  141.0520   70.5830  227.7370 C   0  0  0  0  0  0  0  0  0  0  0  0
  140.3670   71.2350  226.7160 C   0  0  0  0  0  0  0  0  0  0  0  0
  139.6690   70.4790  225.8030 C   0  0  0  0  0  0  0  0  0  0  0  0
  138.9990   71.0860  224.8050 N   0  0  0  0  0  0  0  0  0  0  0  0
  138.2290   72.9420  223.3850 H   0  0  0  0  0  0  0  0  0  0  0  0
  136.1137   72.5195  221.2289 H   0  0  0  0  0  0  0  0  0  0  0  0
  136.5074   74.0787  221.9831 H   0  0  0  0  0  0  0  0  0  0  0  0
  139.8601   71.5635  220.6366 H   0  0  0  0  0  0  0  0  0  0  0  0
  140.8530   72.5611  219.6471 H   0  0  0  0  0  0  0  0  0  0  0  0
  142.0572   72.2804  222.0372 H   0  0  0  0  0  0  0  0  0  0  0  0
  140.0700   71.7670  223.0730 H   0  0  0  0  0  0  0  0  0  0  0  0
  141.6988   74.8932  222.5123 H   0  0  0  0  0  0  0  0  0  0  0  0
  142.1846   74.5825  220.8721 H   0  0  0  0  0  0  0  0  0  0  0  0
  139.4181   75.2975  221.9477 H   0  0  0  0  0  0  0  0  0  0  0  0
  140.9623   75.6504  219.4709 H   0  0  0  0  0  0  0  0  0  0  0  0
  139.0996   75.8666  219.6211 H   0  0  0  0  0  0  0  0  0  0  0  0
  141.4664   79.4844  219.7565 H   0  0  0  0  0  0  0  0  0  0  0  0
  142.5766   81.0104  221.3189 H   0  0  0  0  0  0  0  0  0  0  0  0
  141.5216   78.3994  224.5541 H   0  0  0  0  0  0  0  0  0  0  0  0
  140.4175   76.8863  222.9838 H   0  0  0  0  0  0  0  0  0  0  0  0
  137.7646   68.3895  223.3122 H   0  0  0  0  0  0  0  0  0  0  0  0
  138.9798   67.2378  225.1256 H   0  0  0  0  0  0  0  0  0  0  0  0
  140.3483   67.3647  227.0369 H   0  0  0  0  0  0  0  0  0  0  0  0
  141.6096   71.1892  228.4661 H   0  0  0  0  0  0  0  0  0  0  0  0
  140.3834   72.3323  226.6406 H   0  0  0  0  0  0  0  0  0  0  0  0
  1  2  2  0
  2  3  1  0
  3  4  1  0
  4  5  1  0
  5  6  2  0
  5  7  1  0
  7  8  1  0
  8  9  1  0
  9 10  1  0
  9 11  1  0
 11 12  1  0
 12 13  1  0
 13 14  1  0
 14 15  1  0
 15 16  2  0
 16 17  1  0
 17 18  2  0
 18 19  1  0
 18 20  1  0
 20 21  2  0
  2 22  1  0
 22 23  2  0
 23 24  1  0
 24 25  2  0
 25 26  1  0
 26 27  2  0
 27 28  1  0
 27 29  1  0
 29 30  2  0
 30 31  1  0
 31 32  2  0
 12  7  1  0
 21 15  1  0
 32 22  1  0
 31 25  1  0
  3 33  1  0
  4 34  1  0
  4 35  1  0
  8 36  1  0
  8 37  1  0
  9 38  1  1
 10 39  1  0
 11 40  1  0
 11 41  1  0
 12 42  1  1
 13 43  1  0
 13 44  1  0
 16 45  1  0
 17 46  1  0
 20 47  1  0
 21 48  1  0
 23 49  1  0
 24 50  1  0
 26 51  1  0
 29 52  1  0
 30 53  1  0
M  END
>  <smiles>  (28) 
O=C(NCC(=O)N1C[C@H](O)C[C@H]1COc1ccc(Cl)cc1)c1ccc2cc(F)ccc2n1

>  <score_type>  (28) 
oracle

>  <origin>  (28) 
autodockgpu

>  <m_score__min__energy>  (28) 
-8.4900000000000002

>  <m_primary>  (28) 
energy

>  <rmsd>  (28) 
2.6014179102241552

>  <m_score__min__rmsd>  (28) 
2.6014179102241552

>  <meeko>  (28) 
{"free_energy": -7.33, "intermolecular_energy": -9.72, "internal_energy": -3.23, "cluster_size": 18, "cluster_id": 1, "rank_in_cluster": 18}

>  <energy>  (28) 
-7.77

>  <cluster_rmsd>  (28) 
0.76

>  <cluster>  (28) 
3

$$$$

     RDKit          3D

 53 56  0  0  0  0  0  0  0  0999 V2000
  141.2350   72.2060  221.7340 O   0  0  0  0  0  0  0  0  0  0  0  0
  140.2740   72.3780  222.5250 C   0  0  0  0  0  0  0  0  0  0  0  0
  139.2850   73.3920  222.3460 N   0  0  0  0  0  0  0  0  0  0  0  0
  139.3310   74.3100  221.2050 C   0  0  0  0  0  0  0  0  0  0  0  0
  140.6100   75.0200  221.2880 C   0  0  0  0  0  0  0  0  0  0  0  0
  140.8270   75.7750  222.2860 O   0  0  0  0  0  0  0  0  0  0  0  0
  141.6550   74.9390  220.3300 N   0  0  0  0  0  0  0  0  0  0  0  0
  141.7400   73.8350  219.3650 C   0  0  0  0  0  0  0  0  0  0  0  0
  143.2530   73.5610  219.4750 C   0  0  2  0  0  0  0  0  0  0  0  0
  143.4830   73.1950  220.7940 O   0  0  0  0  0  0  0  0  0  0  0  0
  143.7500   74.9950  219.2360 C   0  0  0  0  0  0  0  0  0  0  0  0
  142.7760   75.7930  220.0960 C   0  0  1  0  0  0  0  0  0  0  0  0
  142.4650   77.1250  219.4620 C   0  0  0  0  0  0  0  0  0  0  0  0
  142.1900   78.1830  220.2240 O   0  0  0  0  0  0  0  0  0  0  0  0
  141.4450   78.7060  221.1820 C   0  0  0  0  0  0  0  0  0  0  0  0
  141.8010   79.0440  222.4690 C   0  0  0  0  0  0  0  0  0  0  0  0
  140.9440   79.5860  223.3970 C   0  0  0  0  0  0  0  0  0  0  0  0
  139.6410   79.8140  223.0320 C   0  0  0  0  0  0  0  0  0  0  0  0
  138.5540   80.4990  224.1990 Cl  0  0  0  0  0  0  0  0  0  0  0  0
  139.2150   79.5030  221.7660 C   0  0  0  0  0  0  0  0  0  0  0  0
  140.0890   78.9650  220.8650 C   0  0  0  0  0  0  0  0  0  0  0  0
  140.1710   71.4950  223.6850 C   0  0  0  0  0  0  0  0  0  0  0  0
  139.5830   70.2600  223.6050 C   0  0  0  0  0  0  0  0  0  0  0  0
  139.4610   69.3900  224.6680 C   0  0  0  0  0  0  0  0  0  0  0  0
  139.9680   69.8040  225.8760 C   0  0  0  0  0  0  0  0  0  0  0  0
  139.8540   68.9440  226.9490 C   0  0  0  0  0  0  0  0  0  0  0  0
  140.3550   69.3380  228.1670 C   0  0  0  0  0  0  0  0  0  0  0  0
  140.2390   68.4950  229.2000 F   0  0  0  0  0  0  0  0  0  0  0  0
  140.9470   70.5730  228.2600 C   0  0  0  0  0  0  0  0  0  0  0  0
  141.0620   71.4410  227.1790 C   0  0  0  0  0  0  0  0  0  0  0  0
  140.5610   71.0450  225.9610 C   0  0  0  0  0  0  0  0  0  0  0  0
  140.6600   71.8670  224.8980 N   0  0  0  0  0  0  0  0  0  0  0  0
  138.5220   73.4530  223.0630 H   0  0  0  0  0  0  0  0  0  0  0  0
  139.2705   73.7465  220.2622 H   0  0  0  0  0  0  0  0  0  0  0  0
  138.4855   75.0133  221.2283 H   0  0  0  0  0  0  0  0  0  0  0  0
  141.1372   72.9675  219.6718 H   0  0  0  0  0  0  0  0  0  0  0  0
  141.3631   74.0504  218.3543 H   0  0  0  0  0  0  0  0  0  0  0  0
  143.6976   72.7957  218.8218 H   0  0  0  0  0  0  0  0  0  0  0  0
  142.6430   73.0120  221.2640 H   0  0  0  0  0  0  0  0  0  0  0  0
  144.7879   75.1241  219.5769 H   0  0  0  0  0  0  0  0  0  0  0  0
  143.7693   75.2958  218.1781 H   0  0  0  0  0  0  0  0  0  0  0  0
  143.1953   76.0758  221.0728 H   0  0  0  0  0  0  0  0  0  0  0  0
  143.3374   77.3949  218.8488 H   0  0  0  0  0  0  0  0  0  0  0  0
  141.5145   76.9382  218.9408 H   0  0  0  0  0  0  0  0  0  0  0  0
  142.8428   78.8681  222.7752 H   0  0  0  0  0  0  0  0  0  0  0  0
  141.2950   79.8316  224.4101 H   0  0  0  0  0  0  0  0  0  0  0  0
  138.1698   79.6868  221.4765 H   0  0  0  0  0  0  0  0  0  0  0  0
  139.7262   78.7237  219.8550 H   0  0  0  0  0  0  0  0  0  0  0  0
  139.1828   69.9423  222.6309 H   0  0  0  0  0  0  0  0  0  0  0  0
  138.9790   68.4078  224.5538 H   0  0  0  0  0  0  0  0  0  0  0  0
  139.3717   67.9623  226.8321 H   0  0  0  0  0  0  0  0  0  0  0  0
  141.3487   70.8907  229.2335 H   0  0  0  0  0  0  0  0  0  0  0  0
  141.5434   72.4231  227.2959 H   0  0  0  0  0  0  0  0  0  0  0  0
  1  2  2  0
  2  3  1  0
  3  4  1  0
  4  5  1  0
  5  6  2  0
  5  7  1  0
  7  8  1  0
  8  9  1  0
  9 10  1  0
  9 11  1  0
 11 12  1  0
 12 13  1  0
 13 14  1  0
 14 15  1  0
 15 16  2  0
 16 17  1  0
 17 18  2  0
 18 19  1  0
 18 20  1  0
 20 21  2  0
  2 22  1  0
 22 23  2  0
 23 24  1  0
 24 25  2  0
 25 26  1  0
 26 27  2  0
 27 28  1  0
 27 29  1  0
 29 30  2  0
 30 31  1  0
 31 32  2  0
 12  7  1  0
 21 15  1  0
 32 22  1  0
 31 25  1  0
  3 33  1  0
  4 34  1  0
  4 35  1  0
  8 36  1  0
  8 37  1  0
  9 38  1  6
 10 39  1  0
 11 40  1  0
 11 41  1  0
 12 42  1  1
 13 43  1  0
 13 44  1  0
 16 45  1  0
 17 46  1  0
 20 47  1  0
 21 48  1  0
 23 49  1  0
 24 50  1  0
 26 51  1  0
 29 52  1  0
 30 53  1  0
M  END
>  <smiles>  (29) 
O=C(NCC(=O)N1C[C@H](O)C[C@H]1COc1ccc(Cl)cc1)c1ccc2cc(F)ccc2n1

>  <score_type>  (29) 
oracle

>  <origin>  (29) 
autodockgpu

>  <m_score__min__energy>  (29) 
-8.4900000000000002

>  <m_primary>  (29) 
energy

>  <rmsd>  (29) 
2.1706346880612024

>  <m_score__min__rmsd>  (29) 
2.1706346880612024

>  <meeko>  (29) 
{"free_energy": -7.97, "intermolecular_energy": -10.35, "internal_energy": -2.45, "cluster_size": 18, "cluster_id": 1, "rank_in_cluster": 8}

>  <energy>  (29) 
-7.63

>  <cluster_rmsd>  (29) 
0.46

>  <cluster>  (29) 
3

$$$$

     RDKit          3D

 53 56  0  0  0  0  0  0  0  0999 V2000
  141.2350   71.8400  221.6130 O   0  0  0  0  0  0  0  0  0  0  0  0
  140.3540   72.1490  222.4540 C   0  0  0  0  0  0  0  0  0  0  0  0
  139.4920   73.2770  222.3040 N   0  0  0  0  0  0  0  0  0  0  0  0
  139.5850   74.1600  221.1380 C   0  0  0  0  0  0  0  0  0  0  0  0
  140.8870   74.8250  221.2170 C   0  0  0  0  0  0  0  0  0  0  0  0
  141.1030   75.6350  222.1710 O   0  0  0  0  0  0  0  0  0  0  0  0
  141.9560   74.6440  220.3000 N   0  0  0  0  0  0  0  0  0  0  0  0
  141.9850   73.5230  219.3510 C   0  0  0  0  0  0  0  0  0  0  0  0
  143.4640   73.1270  219.5220 C   0  0  2  0  0  0  0  0  0  0  0  0
  143.6150   72.7630  220.8530 O   0  0  0  0  0  0  0  0  0  0  0  0
  144.0870   74.5110  219.2850 C   0  0  0  0  0  0  0  0  0  0  0  0
  143.1520   75.4000  220.0980 C   0  0  1  0  0  0  0  0  0  0  0  0
  142.9760   76.7430  219.4370 C   0  0  0  0  0  0  0  0  0  0  0  0
  141.9010   77.4840  219.7000 O   0  0  0  0  0  0  0  0  0  0  0  0
  141.1540   78.0870  220.6090 C   0  0  0  0  0  0  0  0  0  0  0  0
  139.7810   78.1830  220.6760 C   0  0  0  0  0  0  0  0  0  0  0  0
  139.0950   78.8390  221.6700 C   0  0  0  0  0  0  0  0  0  0  0  0
  139.8120   79.4440  222.6730 C   0  0  0  0  0  0  0  0  0  0  0  0
  138.9510   80.2730  223.9310 Cl  0  0  0  0  0  0  0  0  0  0  0  0
  141.1820   79.3880  222.6710 C   0  0  0  0  0  0  0  0  0  0  0  0
  141.8360   78.7290  221.6710 C   0  0  0  0  0  0  0  0  0  0  0  0
  140.2110   71.3090  223.6410 C   0  0  0  0  0  0  0  0  0  0  0  0
  139.5950   70.0870  223.5940 C   0  0  0  0  0  0  0  0  0  0  0  0
  139.4350   69.2570  224.6840 C   0  0  0  0  0  0  0  0  0  0  0  0
  139.9310   69.7010  225.8860 C   0  0  0  0  0  0  0  0  0  0  0  0
  139.7790   68.8820  226.9850 C   0  0  0  0  0  0  0  0  0  0  0  0
  140.2700   69.3060  228.1970 C   0  0  0  0  0  0  0  0  0  0  0  0
  140.1160   68.5030  229.2570 F   0  0  0  0  0  0  0  0  0  0  0  0
  140.8890   70.5300  228.2580 C   0  0  0  0  0  0  0  0  0  0  0  0
  141.0430   71.3570  227.1500 C   0  0  0  0  0  0  0  0  0  0  0  0
  140.5520   70.9310  225.9370 C   0  0  0  0  0  0  0  0  0  0  0  0
  140.6890   71.7120  224.8490 N   0  0  0  0  0  0  0  0  0  0  0  0
  138.7880   73.4500  223.0630 H   0  0  0  0  0  0  0  0  0  0  0  0
  139.5151   73.5723  220.2108 H   0  0  0  0  0  0  0  0  0  0  0  0
  138.7656   74.8938  221.1309 H   0  0  0  0  0  0  0  0  0  0  0  0
  141.3012   72.7127  219.6439 H   0  0  0  0  0  0  0  0  0  0  0  0
  141.6653   73.7544  218.3242 H   0  0  0  0  0  0  0  0  0  0  0  0
  143.8667   72.3176  218.8953 H   0  0  0  0  0  0  0  0  0  0  0  0
  142.7700   72.4380  221.2300 H   0  0  0  0  0  0  0  0  0  0  0  0
  145.1188   74.5587  219.6633 H   0  0  0  0  0  0  0  0  0  0  0  0
  144.1699   74.7932  218.2251 H   0  0  0  0  0  0  0  0  0  0  0  0
  143.5572   75.6628  221.0863 H   0  0  0  0  0  0  0  0  0  0  0  0
  143.8525   77.3482  219.7117 H   0  0  0  0  0  0  0  0  0  0  0  0
  142.8484   76.4847  218.3754 H   0  0  0  0  0  0  0  0  0  0  0  0
  139.1941   77.7019  219.8797 H   0  0  0  0  0  0  0  0  0  0  0  0
  137.9957   78.8786  221.6624 H   0  0  0  0  0  0  0  0  0  0  0  0
  141.7537   79.8742  223.4753 H   0  0  0  0  0  0  0  0  0  0  0  0
  142.9353   78.6952  221.6906 H   0  0  0  0  0  0  0  0  0  0  0  0
  139.2026   69.7453  222.6248 H   0  0  0  0  0  0  0  0  0  0  0  0
  138.9325   68.2826  224.5949 H   0  0  0  0  0  0  0  0  0  0  0  0
  139.2748   67.9086  226.8936 H   0  0  0  0  0  0  0  0  0  0  0  0
  141.2810   70.8723  229.2271 H   0  0  0  0  0  0  0  0  0  0  0  0
  141.5465   72.3307  227.2415 H   0  0  0  0  0  0  0  0  0  0  0  0
  1  2  2  0
  2  3  1  0
  3  4  1  0
  4  5  1  0
  5  6  2  0
  5  7  1  0
  7  8  1  0
  8  9  1  0
  9 10  1  0
  9 11  1  0
 11 12  1  0
 12 13  1  0
 13 14  1  0
 14 15  1  0
 15 16  2  0
 16 17  1  0
 17 18  2  0
 18 19  1  0
 18 20  1  0
 20 21  2  0
  2 22  1  0
 22 23  2  0
 23 24  1  0
 24 25  2  0
 25 26  1  0
 26 27  2  0
 27 28  1  0
 27 29  1  0
 29 30  2  0
 30 31  1  0
 31 32  2  0
 12  7  1  0
 21 15  1  0
 32 22  1  0
 31 25  1  0
  3 33  1  0
  4 34  1  0
  4 35  1  0
  8 36  1  0
  8 37  1  0
  9 38  1  6
 10 39  1  0
 11 40  1  0
 11 41  1  0
 12 42  1  1
 13 43  1  0
 13 44  1  0
 16 45  1  0
 17 46  1  0
 20 47  1  0
 21 48  1  0
 23 49  1  0
 24 50  1  0
 26 51  1  0
 29 52  1  0
 30 53  1  0
M  END
>  <smiles>  (30) 
O=C(NCC(=O)N1C[C@H](O)C[C@H]1COc1ccc(Cl)cc1)c1ccc2cc(F)ccc2n1

>  <score_type>  (30) 
oracle

>  <origin>  (30) 
autodockgpu

>  <m_score__min__energy>  (30) 
-8.4900000000000002

>  <m_primary>  (30) 
energy

>  <rmsd>  (30) 
2.389221314808127

>  <m_score__min__rmsd>  (30) 
2.389221314808127

>  <meeko>  (30) 
{"free_energy": -7.72, "intermolecular_energy": -10.1, "internal_energy": -2.55, "cluster_size": 18, "cluster_id": 1, "rank_in_cluster": 13}

>  <energy>  (30) 
-7.63

>  <cluster_rmsd>  (30) 
0.66

>  <cluster>  (30) 
3

$$$$

     RDKit          3D

 53 56  0  0  0  0  0  0  0  0999 V2000
  139.9360   74.5420  222.0440 O   0  0  0  0  0  0  0  0  0  0  0  0
  140.7160   75.5090  221.8520 C   0  0  0  0  0  0  0  0  0  0  0  0
  141.9570   75.3860  221.1570 N   0  0  0  0  0  0  0  0  0  0  0  0
  142.4050   74.1000  220.6160 C   0  0  0  0  0  0  0  0  0  0  0  0
  143.6370   74.3640  219.8700 C   0  0  0  0  0  0  0  0  0  0  0  0
  144.5690   75.0150  220.4370 O   0  0  0  0  0  0  0  0  0  0  0  0
  143.8910   73.9470  218.5360 N   0  0  0  0  0  0  0  0  0  0  0  0
  144.1550   72.5430  218.1970 C   0  0  0  0  0  0  0  0  0  0  0  0
  145.3340   72.7660  217.2300 C   0  0  2  0  0  0  0  0  0  0  0  0
  146.3320   73.3780  217.9740 O   0  0  0  0  0  0  0  0  0  0  0  0
  144.6640   73.7950  216.3070 C   0  0  0  0  0  0  0  0  0  0  0  0
  143.9720   74.6980  217.3230 C   0  0  1  0  0  0  0  0  0  0  0  0
  142.6630   75.2130  216.7810 C   0  0  0  0  0  0  0  0  0  0  0  0
  141.8200   75.8700  217.5770 O   0  0  0  0  0  0  0  0  0  0  0  0
  141.5360   76.9850  218.2250 C   0  0  0  0  0  0  0  0  0  0  0  0
  140.3730   77.3350  218.8780 C   0  0  0  0  0  0  0  0  0  0  0  0
  140.1750   78.5300  219.5270 C   0  0  0  0  0  0  0  0  0  0  0  0
  141.1940   79.4500  219.5350 C   0  0  0  0  0  0  0  0  0  0  0  0
  140.9500   80.9610  220.3530 Cl  0  0  0  0  0  0  0  0  0  0  0  0
  142.3800   79.1690  218.9060 C   0  0  0  0  0  0  0  0  0  0  0  0
  142.5490   77.9730  218.2700 C   0  0  0  0  0  0  0  0  0  0  0  0
  140.3280   76.8200  222.3680 C   0  0  0  0  0  0  0  0  0  0  0  0
  141.2510   77.7150  222.8390 C   0  0  0  0  0  0  0  0  0  0  0  0
  140.9380   78.9630  223.3360 C   0  0  0  0  0  0  0  0  0  0  0  0
  139.6090   79.3130  223.3520 C   0  0  0  0  0  0  0  0  0  0  0  0
  139.2790   80.5580  223.8460 C   0  0  0  0  0  0  0  0  0  0  0  0
  137.9550   80.9290  223.8700 C   0  0  0  0  0  0  0  0  0  0  0  0
  137.6470   82.1390  224.3520 F   0  0  0  0  0  0  0  0  0  0  0  0
  137.0200   80.0400  223.4020 C   0  0  0  0  0  0  0  0  0  0  0  0
  137.3520   78.7840  222.9030 C   0  0  0  0  0  0  0  0  0  0  0  0
  138.6760   78.4150  222.8790 C   0  0  0  0  0  0  0  0  0  0  0  0
  139.0240   77.2040  222.4010 N   0  0  0  0  0  0  0  0  0  0  0  0
  142.5370   76.2530  221.0490 H   0  0  0  0  0  0  0  0  0  0  0  0
  142.6018   73.3921  221.4346 H   0  0  0  0  0  0  0  0  0  0  0  0
  141.6369   73.6545  219.9667 H   0  0  0  0  0  0  0  0  0  0  0  0
  144.4458   71.9507  219.0771 H   0  0  0  0  0  0  0  0  0  0  0  0
  143.3022   71.9784  217.7920 H   0  0  0  0  0  0  0  0  0  0  0  0
  145.7692   71.8931  216.7214 H   0  0  0  0  0  0  0  0  0  0  0  0
  145.9570   74.0260  218.6070 H   0  0  0  0  0  0  0  0  0  0  0  0
  145.4070   74.3495  215.7150 H   0  0  0  0  0  0  0  0  0  0  0  0
  143.9879   73.3569  215.5581 H   0  0  0  0  0  0  0  0  0  0  0  0
  144.5326   75.6208  217.5332 H   0  0  0  0  0  0  0  0  0  0  0  0
  142.9091   75.8919  215.9512 H   0  0  0  0  0  0  0  0  0  0  0  0
  142.1125   74.2921  216.5384 H   0  0  0  0  0  0  0  0  0  0  0  0
  139.5474   76.6081  218.8795 H   0  0  0  0  0  0  0  0  0  0  0  0
  139.2203   78.7449  220.0294 H   0  0  0  0  0  0  0  0  0  0  0  0
  143.1952   79.9075  218.9140 H   0  0  0  0  0  0  0  0  0  0  0  0
  143.5091   77.7691  217.7734 H   0  0  0  0  0  0  0  0  0  0  0  0
  142.3105   77.4197  222.8198 H   0  0  0  0  0  0  0  0  0  0  0  0
  141.7170   79.6474  223.7030 H   0  0  0  0  0  0  0  0  0  0  0  0
  140.0595   81.2405  224.2134 H   0  0  0  0  0  0  0  0  0  0  0  0
  135.9601   80.3336  223.4222 H   0  0  0  0  0  0  0  0  0  0  0  0
  136.5717   78.1012  222.5357 H   0  0  0  0  0  0  0  0  0  0  0  0
  1  2  2  0
  2  3  1  0
  3  4  1  0
  4  5  1  0
  5  6  2  0
  5  7  1  0
  7  8  1  0
  8  9  1  0
  9 10  1  0
  9 11  1  0
 11 12  1  0
 12 13  1  0
 13 14  1  0
 14 15  1  0
 15 16  2  0
 16 17  1  0
 17 18  2  0
 18 19  1  0
 18 20  1  0
 20 21  2  0
  2 22  1  0
 22 23  2  0
 23 24  1  0
 24 25  2  0
 25 26  1  0
 26 27  2  0
 27 28  1  0
 27 29  1  0
 29 30  2  0
 30 31  1  0
 31 32  2  0
 12  7  1  0
 21 15  1  0
 32 22  1  0
 31 25  1  0
  3 33  1  0
  4 34  1  0
  4 35  1  0
  8 36  1  0
  8 37  1  0
  9 38  1  6
 10 39  1  0
 11 40  1  0
 11 41  1  0
 12 42  1  1
 13 43  1  0
 13 44  1  0
 16 45  1  0
 17 46  1  0
 20 47  1  0
 21 48  1  0
 23 49  1  0
 24 50  1  0
 26 51  1  0
 29 52  1  0
 30 53  1  0
M  END
>  <smiles>  (31) 
O=C(NCC(=O)N1C[C@H](O)C[C@H]1COc1ccc(Cl)cc1)c1ccc2cc(F)ccc2n1

>  <score_type>  (31) 
oracle

>  <origin>  (31) 
autodockgpu

>  <m_score__min__energy>  (31) 
-8.4900000000000002

>  <m_primary>  (31) 
energy

>  <rmsd>  (31) 
8.036113809208471

>  <m_score__min__rmsd>  (31) 
8.036113809208471

>  <meeko>  (31) 
{"free_energy": -6.41, "intermolecular_energy": -8.8, "internal_energy": -3.42, "cluster_size": 6, "cluster_id": 8, "rank_in_cluster": 6}

>  <energy>  (31) 
-7.6

>  <cluster_rmsd>  (31) 
0.38

>  <cluster>  (31) 
3

$$$$

     RDKit          3D

 53 56  0  0  0  0  0  0  0  0999 V2000
  141.3020   71.8760  221.4420 O   0  0  0  0  0  0  0  0  0  0  0  0
  140.5520   72.3130  222.3520 C   0  0  0  0  0  0  0  0  0  0  0  0
  139.9040   73.5830  222.2890 N   0  0  0  0  0  0  0  0  0  0  0  0
  140.0780   74.4730  221.1380 C   0  0  0  0  0  0  0  0  0  0  0  0
  139.7130   75.8180  221.5870 C   0  0  0  0  0  0  0  0  0  0  0  0
  138.5580   76.0060  222.0820 O   0  0  0  0  0  0  0  0  0  0  0  0
  140.5530   76.9610  221.5160 N   0  0  0  0  0  0  0  0  0  0  0  0
  141.0720   77.6190  222.7220 C   0  0  0  0  0  0  0  0  0  0  0  0
  140.8290   79.0810  222.2980 C   0  0  2  0  0  0  0  0  0  0  0  0
  139.4600   79.2070  222.1150 O   0  0  0  0  0  0  0  0  0  0  0  0
  141.5370   79.0310  220.9350 C   0  0  0  0  0  0  0  0  0  0  0  0
  141.0360   77.6970  220.3910 C   0  0  1  0  0  0  0  0  0  0  0  0
  142.1010   77.0160  219.5690 C   0  0  0  0  0  0  0  0  0  0  0  0
  142.8890   76.0970  220.1230 O   0  0  0  0  0  0  0  0  0  0  0  0
  143.5320   74.9500  219.9900 C   0  0  0  0  0  0  0  0  0  0  0  0
  144.7710   74.5910  220.4740 C   0  0  0  0  0  0  0  0  0  0  0  0
  145.3580   73.3640  220.2790 C   0  0  0  0  0  0  0  0  0  0  0  0
  144.6750   72.4190  219.5530 C   0  0  0  0  0  0  0  0  0  0  0  0
  145.4100   70.8670  219.3030 Cl  0  0  0  0  0  0  0  0  0  0  0  0
  143.4360   72.7060  219.0410 C   0  0  0  0  0  0  0  0  0  0  0  0
  142.8780   73.9340  219.2520 C   0  0  0  0  0  0  0  0  0  0  0  0
  140.3390   71.4730  223.5290 C   0  0  0  0  0  0  0  0  0  0  0  0
  139.7010   70.2630  223.4500 C   0  0  0  0  0  0  0  0  0  0  0  0
  139.4750   69.4340  224.5290 C   0  0  0  0  0  0  0  0  0  0  0  0
  139.9250   69.8660  225.7530 C   0  0  0  0  0  0  0  0  0  0  0  0
  139.7070   69.0470  226.8420 C   0  0  0  0  0  0  0  0  0  0  0  0
  140.1500   69.4590  228.0770 C   0  0  0  0  0  0  0  0  0  0  0  0
  139.9330   68.6570  229.1260 F   0  0  0  0  0  0  0  0  0  0  0  0
  140.7910   70.6700  228.1700 C   0  0  0  0  0  0  0  0  0  0  0  0
  141.0110   71.4960  227.0720 C   0  0  0  0  0  0  0  0  0  0  0  0
  140.5680   71.0820  225.8370 C   0  0  0  0  0  0  0  0  0  0  0  0
  140.7690   71.8640  224.7590 N   0  0  0  0  0  0  0  0  0  0  0  0
  139.2980   73.8560  223.1010 H   0  0  0  0  0  0  0  0  0  0  0  0
  141.1251   74.4569  220.8012 H   0  0  0  0  0  0  0  0  0  0  0  0
  139.4502   74.1541  220.2929 H   0  0  0  0  0  0  0  0  0  0  0  0
  140.5013   77.3470  223.6222 H   0  0  0  0  0  0  0  0  0  0  0  0
  142.1053   77.3651  223.0008 H   0  0  0  0  0  0  0  0  0  0  0  0
  141.1622   79.8854  222.9702 H   0  0  0  0  0  0  0  0  0  0  0  0
  139.0230   78.3300  222.0840 H   0  0  0  0  0  0  0  0  0  0  0  0
  141.2321   79.8692  220.2912 H   0  0  0  0  0  0  0  0  0  0  0  0
  142.6325   79.1133  220.9915 H   0  0  0  0  0  0  0  0  0  0  0  0
  140.2061   77.8069  219.6774 H   0  0  0  0  0  0  0  0  0  0  0  0
  141.5875   76.5273  218.7278 H   0  0  0  0  0  0  0  0  0  0  0  0
  142.7974   77.8343  219.3335 H   0  0  0  0  0  0  0  0  0  0  0  0
  145.3290   75.3385  221.0570 H   0  0  0  0  0  0  0  0  0  0  0  0
  146.3522   73.1436  220.6949 H   0  0  0  0  0  0  0  0  0  0  0  0
  142.8915   71.9469  218.4602 H   0  0  0  0  0  0  0  0  0  0  0  0
  141.8825   74.1420  218.8327 H   0  0  0  0  0  0  0  0  0  0  0  0
  139.3463   69.9315  222.4629 H   0  0  0  0  0  0  0  0  0  0  0  0
  138.9576   68.4701  224.4146 H   0  0  0  0  0  0  0  0  0  0  0  0
  139.1891   68.0837  226.7246 H   0  0  0  0  0  0  0  0  0  0  0  0
  141.1464   71.0019  229.1567 H   0  0  0  0  0  0  0  0  0  0  0  0
  141.5282   72.4597  227.1890 H   0  0  0  0  0  0  0  0  0  0  0  0
  1  2  2  0
  2  3  1  0
  3  4  1  0
  4  5  1  0
  5  6  2  0
  5  7  1  0
  7  8  1  0
  8  9  1  0
  9 10  1  0
  9 11  1  0
 11 12  1  0
 12 13  1  0
 13 14  1  0
 14 15  1  0
 15 16  2  0
 16 17  1  0
 17 18  2  0
 18 19  1  0
 18 20  1  0
 20 21  2  0
  2 22  1  0
 22 23  2  0
 23 24  1  0
 24 25  2  0
 25 26  1  0
 26 27  2  0
 27 28  1  0
 27 29  1  0
 29 30  2  0
 30 31  1  0
 31 32  2  0
 12  7  1  0
 21 15  1  0
 32 22  1  0
 31 25  1  0
  3 33  1  0
  4 34  1  0
  4 35  1  0
  8 36  1  0
  8 37  1  0
  9 38  1  1
 10 39  1  0
 11 40  1  0
 11 41  1  0
 12 42  1  6
 13 43  1  0
 13 44  1  0
 16 45  1  0
 17 46  1  0
 20 47  1  0
 21 48  1  0
 23 49  1  0
 24 50  1  0
 26 51  1  0
 29 52  1  0
 30 53  1  0
M  END
>  <smiles>  (32) 
O=C(NCC(=O)N1C[C@H](O)C[C@H]1COc1ccc(Cl)cc1)c1ccc2cc(F)ccc2n1

>  <score_type>  (32) 
oracle

>  <origin>  (32) 
autodockgpu

>  <m_score__min__energy>  (32) 
-8.4900000000000002

>  <m_primary>  (32) 
energy

>  <rmsd>  (32) 
2.828975364267534

>  <m_score__min__rmsd>  (32) 
2.828975364267534

>  <meeko>  (32) 
{"free_energy": -7.93, "intermolecular_energy": -10.32, "internal_energy": -2.53, "cluster_size": 15, "cluster_id": 3, "rank_in_cluster": 2}

>  <energy>  (32) 
-7.47

>  <cluster_rmsd>  (32) 
1.14

>  <cluster>  (32) 
3

$$$$

     RDKit          3D

 53 56  0  0  0  0  0  0  0  0999 V2000
  139.9520   74.3470  222.1530 O   0  0  0  0  0  0  0  0  0  0  0  0
  140.1520   75.5190  221.7450 C   0  0  0  0  0  0  0  0  0  0  0  0
  141.2400   75.8750  220.8940 N   0  0  0  0  0  0  0  0  0  0  0  0
  142.2100   74.8770  220.4350 C   0  0  0  0  0  0  0  0  0  0  0  0
  143.1750   75.5840  219.5910 C   0  0  0  0  0  0  0  0  0  0  0  0
  144.3350   75.8200  220.0540 O   0  0  0  0  0  0  0  0  0  0  0  0
  142.9270   76.0420  218.2700 N   0  0  0  0  0  0  0  0  0  0  0  0
  142.6160   75.1170  217.1720 C   0  0  0  0  0  0  0  0  0  0  0  0
  143.5130   75.7480  216.0900 C   0  0  2  0  0  0  0  0  0  0  0  0
  144.8130   75.6610  216.5680 O   0  0  0  0  0  0  0  0  0  0  0  0
  143.0080   77.1940  216.2070 C   0  0  0  0  0  0  0  0  0  0  0  0
  142.9380   77.3610  217.7210 C   0  0  1  0  0  0  0  0  0  0  0  0
  141.7800   78.2440  218.1130 C   0  0  0  0  0  0  0  0  0  0  0  0
  141.5330   78.4960  219.3970 O   0  0  0  0  0  0  0  0  0  0  0  0
  141.7270   79.2870  220.4380 C   0  0  0  0  0  0  0  0  0  0  0  0
  141.5400   80.6480  220.5370 C   0  0  0  0  0  0  0  0  0  0  0  0
  141.7740   81.3850  221.6740 C   0  0  0  0  0  0  0  0  0  0  0  0
  142.2240   80.7350  222.7960 C   0  0  0  0  0  0  0  0  0  0  0  0
  142.5200   81.6600  224.2340 Cl  0  0  0  0  0  0  0  0  0  0  0  0
  142.4320   79.3800  222.7710 C   0  0  0  0  0  0  0  0  0  0  0  0
  142.1910   78.6740  221.6270 C   0  0  0  0  0  0  0  0  0  0  0  0
  139.2210   76.5630  222.1690 C   0  0  0  0  0  0  0  0  0  0  0  0
  137.8720   76.4610  221.9540 C   0  0  0  0  0  0  0  0  0  0  0  0
  136.9520   77.4160  222.3330 C   0  0  0  0  0  0  0  0  0  0  0  0
  137.4380   78.5350  222.9660 C   0  0  0  0  0  0  0  0  0  0  0  0
  136.5300   79.4990  223.3520 C   0  0  0  0  0  0  0  0  0  0  0  0
  136.9960   80.6270  223.9870 C   0  0  0  0  0  0  0  0  0  0  0  0
  136.1060   81.5550  224.3570 F   0  0  0  0  0  0  0  0  0  0  0  0
  138.3460   80.7410  224.2080 C   0  0  0  0  0  0  0  0  0  0  0  0
  139.2620   79.7690  223.8190 C   0  0  0  0  0  0  0  0  0  0  0  0
  138.7950   78.6410  223.1840 C   0  0  0  0  0  0  0  0  0  0  0  0
  139.6610   77.6850  222.7980 N   0  0  0  0  0  0  0  0  0  0  0  0
  141.3200   76.8820  220.6080 H   0  0  0  0  0  0  0  0  0  0  0  0
  142.7215   74.4218  221.2959 H   0  0  0  0  0  0  0  0  0  0  0  0
  141.7128   74.0703  219.8764 H   0  0  0  0  0  0  0  0  0  0  0  0
  142.9099   74.0827  217.4041 H   0  0  0  0  0  0  0  0  0  0  0  0
  141.5511   75.0176  216.9149 H   0  0  0  0  0  0  0  0  0  0  0  0
  143.4897   75.3241  215.0752 H   0  0  0  0  0  0  0  0  0  0  0  0
  144.8320   75.6640  217.5480 H   0  0  0  0  0  0  0  0  0  0  0  0
  143.7146   77.9057  215.7551 H   0  0  0  0  0  0  0  0  0  0  0  0
  142.0574   77.3839  215.6872 H   0  0  0  0  0  0  0  0  0  0  0  0
  143.8065   77.8933  218.1361 H   0  0  0  0  0  0  0  0  0  0  0  0
  141.9446   79.2164  217.6258 H   0  0  0  0  0  0  0  0  0  0  0  0
  140.9025   77.6593  217.7997 H   0  0  0  0  0  0  0  0  0  0  0  0
  141.1788   81.1818  219.6456 H   0  0  0  0  0  0  0  0  0  0  0  0
  141.6043   82.4718  221.6841 H   0  0  0  0  0  0  0  0  0  0  0  0
  142.7928   78.8619  223.6718 H   0  0  0  0  0  0  0  0  0  0  0  0
  142.3639   77.5877  221.6294 H   0  0  0  0  0  0  0  0  0  0  0  0
  137.4985   75.5594  221.4464 H   0  0  0  0  0  0  0  0  0  0  0  0
  135.8771   77.2878  222.1374 H   0  0  0  0  0  0  0  0  0  0  0  0
  135.4555   79.3685  223.1561 H   0  0  0  0  0  0  0  0  0  0  0  0
  138.7205   81.6420  224.7158 H   0  0  0  0  0  0  0  0  0  0  0  0
  140.3366   79.8993  224.0148 H   0  0  0  0  0  0  0  0  0  0  0  0
  1  2  2  0
  2  3  1  0
  3  4  1  0
  4  5  1  0
  5  6  2  0
  5  7  1  0
  7  8  1  0
  8  9  1  0
  9 10  1  0
  9 11  1  0
 11 12  1  0
 12 13  1  0
 13 14  1  0
 14 15  1  0
 15 16  2  0
 16 17  1  0
 17 18  2  0
 18 19  1  0
 18 20  1  0
 20 21  2  0
  2 22  1  0
 22 23  2  0
 23 24  1  0
 24 25  2  0
 25 26  1  0
 26 27  2  0
 27 28  1  0
 27 29  1  0
 29 30  2  0
 30 31  1  0
 31 32  2  0
 12  7  1  0
 21 15  1  0
 32 22  1  0
 31 25  1  0
  3 33  1  0
  4 34  1  0
  4 35  1  0
  8 36  1  0
  8 37  1  0
  9 38  1  6
 10 39  1  0
 11 40  1  0
 11 41  1  0
 12 42  1  1
 13 43  1  0
 13 44  1  0
 16 45  1  0
 17 46  1  0
 20 47  1  0
 21 48  1  0
 23 49  1  0
 24 50  1  0
 26 51  1  0
 29 52  1  0
 30 53  1  0
M  END
>  <smiles>  (33) 
O=C(NCC(=O)N1C[C@H](O)C[C@H]1COc1ccc(Cl)cc1)c1ccc2cc(F)ccc2n1

>  <score_type>  (33) 
oracle

>  <origin>  (33) 
autodockgpu

>  <m_score__min__energy>  (33) 
-8.4900000000000002

>  <m_primary>  (33) 
energy

>  <rmsd>  (33) 
7.300447993636864

>  <m_score__min__rmsd>  (33) 
7.300447993636864

>  <meeko>  (33) 
{"free_energy": -6.56, "intermolecular_energy": -8.95, "internal_energy": -3.57, "cluster_size": 6, "cluster_id": 8, "rank_in_cluster": 3}

>  <energy>  (33) 
-7.47

>  <cluster_rmsd>  (33) 
1.2

>  <cluster>  (33) 
3

$$$$

     RDKit          3D

 53 56  0  0  0  0  0  0  0  0999 V2000
  140.3940   71.5650  221.0540 O   0  0  0  0  0  0  0  0  0  0  0  0
  140.1050   72.1470  222.1300 C   0  0  0  0  0  0  0  0  0  0  0  0
  139.8110   73.5420  222.2100 N   0  0  0  0  0  0  0  0  0  0  0  0
  139.8300   74.3960  221.0190 C   0  0  0  0  0  0  0  0  0  0  0  0
  140.2740   75.7200  221.4580 C   0  0  0  0  0  0  0  0  0  0  0  0
  140.3330   75.9650  222.7030 O   0  0  0  0  0  0  0  0  0  0  0  0
  140.6540   76.7830  220.5970 N   0  0  0  0  0  0  0  0  0  0  0  0
  141.4640   77.9140  221.0680 C   0  0  0  0  0  0  0  0  0  0  0  0
  140.6770   79.0500  220.3850 C   0  0  2  0  0  0  0  0  0  0  0  0
  139.3940   78.9990  220.9100 O   0  0  0  0  0  0  0  0  0  0  0  0
  140.6800   78.4860  218.9560 C   0  0  0  0  0  0  0  0  0  0  0  0
  140.3630   77.0180  219.2170 C   0  0  1  0  0  0  0  0  0  0  0  0
  141.0830   76.1290  218.2350 C   0  0  0  0  0  0  0  0  0  0  0  0
  141.6910   75.0200  218.6540 O   0  0  0  0  0  0  0  0  0  0  0  0
  142.7020   74.4820  219.3140 C   0  0  0  0  0  0  0  0  0  0  0  0
  142.9220   73.1590  219.6310 C   0  0  0  0  0  0  0  0  0  0  0  0
  144.0130   72.6970  220.3280 C   0  0  0  0  0  0  0  0  0  0  0  0
  144.9580   73.6030  220.7430 C   0  0  0  0  0  0  0  0  0  0  0  0
  146.3380   73.0260  221.6220 Cl  0  0  0  0  0  0  0  0  0  0  0  0
  144.8050   74.9360  220.4620 C   0  0  0  0  0  0  0  0  0  0  0  0
  143.7110   75.3660  219.7680 C   0  0  0  0  0  0  0  0  0  0  0  0
  140.0700   71.3510  223.3550 C   0  0  0  0  0  0  0  0  0  0  0  0
  139.5490   70.0850  223.3820 C   0  0  0  0  0  0  0  0  0  0  0  0
  139.4930   69.2930  224.5090 C   0  0  0  0  0  0  0  0  0  0  0  0
  139.9970   69.8260  225.6720 C   0  0  0  0  0  0  0  0  0  0  0  0
  139.9490   69.0450  226.8090 C   0  0  0  0  0  0  0  0  0  0  0  0
  140.4480   69.5580  227.9830 C   0  0  0  0  0  0  0  0  0  0  0  0
  140.3960   68.7920  229.0790 F   0  0  0  0  0  0  0  0  0  0  0  0
  140.9730   70.8270  227.9700 C   0  0  0  0  0  0  0  0  0  0  0  0
  141.0220   71.6140  226.8230 C   0  0  0  0  0  0  0  0  0  0  0  0
  140.5220   71.1000  225.6490 C   0  0  0  0  0  0  0  0  0  0  0  0
  140.5590   71.8410  224.5260 N   0  0  0  0  0  0  0  0  0  0  0  0
  139.5810   73.9330  223.1560 H   0  0  0  0  0  0  0  0  0  0  0  0
  140.5286   73.9901  220.2725 H   0  0  0  0  0  0  0  0  0  0  0  0
  138.8351   74.4468  220.5525 H   0  0  0  0  0  0  0  0  0  0  0  0
  141.4553   78.0033  222.1643 H   0  0  0  0  0  0  0  0  0  0  0  0
  142.5378   77.8658  220.8342 H   0  0  0  0  0  0  0  0  0  0  0  0
  141.0495   80.0804  220.4831 H   0  0  0  0  0  0  0  0  0  0  0  0
  138.9660   79.8810  220.8900 H   0  0  0  0  0  0  0  0  0  0  0  0
  139.9073   78.9608  218.3335 H   0  0  0  0  0  0  0  0  0  0  0  0
  141.6174   78.6548  218.4058 H   0  0  0  0  0  0  0  0  0  0  0  0
  139.3050   76.7693  219.0473 H   0  0  0  0  0  0  0  0  0  0  0  0
  140.3400   75.8185  217.4857 H   0  0  0  0  0  0  0  0  0  0  0  0
  141.9182   76.7583  217.8938 H   0  0  0  0  0  0  0  0  0  0  0  0
  142.1734   72.4224  219.3039 H   0  0  0  0  0  0  0  0  0  0  0  0
  144.1266   71.6253  220.5485 H   0  0  0  0  0  0  0  0  0  0  0  0
  145.5638   75.6591  220.7958 H   0  0  0  0  0  0  0  0  0  0  0  0
  143.6093   76.4400  219.5532 H   0  0  0  0  0  0  0  0  0  0  0  0
  139.1492   69.6732  222.4436 H   0  0  0  0  0  0  0  0  0  0  0  0
  139.0645   68.2803  224.4792 H   0  0  0  0  0  0  0  0  0  0  0  0
  139.5202   68.0325  226.7766 H   0  0  0  0  0  0  0  0  0  0  0  0
  141.3727   71.2399  228.9080 H   0  0  0  0  0  0  0  0  0  0  0  0
  141.4517   72.6261  226.8546 H   0  0  0  0  0  0  0  0  0  0  0  0
  1  2  2  0
  2  3  1  0
  3  4  1  0
  4  5  1  0
  5  6  2  0
  5  7  1  0
  7  8  1  0
  8  9  1  0
  9 10  1  0
  9 11  1  0
 11 12  1  0
 12 13  1  0
 13 14  1  0
 14 15  1  0
 15 16  2  0
 16 17  1  0
 17 18  2  0
 18 19  1  0
 18 20  1  0
 20 21  2  0
  2 22  1  0
 22 23  2  0
 23 24  1  0
 24 25  2  0
 25 26  1  0
 26 27  2  0
 27 28  1  0
 27 29  1  0
 29 30  2  0
 30 31  1  0
 31 32  2  0
 12  7  1  0
 21 15  1  0
 32 22  1  0
 31 25  1  0
  3 33  1  0
  4 34  1  0
  4 35  1  0
  8 36  1  0
  8 37  1  0
  9 38  1  6
 10 39  1  0
 11 40  1  0
 11 41  1  0
 12 42  1  1
 13 43  1  0
 13 44  1  0
 16 45  1  0
 17 46  1  0
 20 47  1  0
 21 48  1  0
 23 49  1  0
 24 50  1  0
 26 51  1  0
 29 52  1  0
 30 53  1  0
M  END
>  <smiles>  (34) 
O=C(NCC(=O)N1C[C@H](O)C[C@H]1COc1ccc(Cl)cc1)c1ccc2cc(F)ccc2n1

>  <score_type>  (34) 
oracle

>  <origin>  (34) 
autodockgpu

>  <m_score__min__energy>  (34) 
-8.4900000000000002

>  <m_primary>  (34) 
energy

>  <rmsd>  (34) 
2.272056196316408

>  <m_score__min__rmsd>  (34) 
2.272056196316408

>  <meeko>  (34) 
{"free_energy": -7.47, "intermolecular_energy": -9.85, "internal_energy": -2.7, "cluster_size": 15, "cluster_id": 3, "rank_in_cluster": 11}

>  <energy>  (34) 
-7.39

>  <cluster_rmsd>  (34) 
1.08

>  <cluster>  (34) 
3

$$$$

     RDKit          3D

 53 56  0  0  0  0  0  0  0  0999 V2000
  136.7850   70.5870  222.1220 O   0  0  0  0  0  0  0  0  0  0  0  0
  137.5970   71.2060  222.8550 C   0  0  0  0  0  0  0  0  0  0  0  0
  137.8590   72.6040  222.7280 N   0  0  0  0  0  0  0  0  0  0  0  0
  137.1830   73.4170  221.7140 C   0  0  0  0  0  0  0  0  0  0  0  0
  138.2080   74.2630  221.1000 C   0  0  0  0  0  0  0  0  0  0  0  0
  137.8770   75.4110  220.6700 O   0  0  0  0  0  0  0  0  0  0  0  0
  139.5730   73.9070  220.9380 N   0  0  0  0  0  0  0  0  0  0  0  0
  139.9880   72.5290  220.6480 C   0  0  0  0  0  0  0  0  0  0  0  0
  141.1790   72.4450  221.6230 C   0  0  2  0  0  0  0  0  0  0  0  0
  140.6510   72.6360  222.8920 O   0  0  0  0  0  0  0  0  0  0  0  0
  141.9180   73.7130  221.1680 C   0  0  0  0  0  0  0  0  0  0  0  0
  140.7620   74.6960  221.0270 C   0  0  1  0  0  0  0  0  0  0  0  0
  141.0030   75.6510  219.8850 C   0  0  0  0  0  0  0  0  0  0  0  0
  140.9580   76.9660  220.0900 O   0  0  0  0  0  0  0  0  0  0  0  0
  141.2780   77.9870  220.8650 C   0  0  0  0  0  0  0  0  0  0  0  0
  141.7900   79.2160  220.5110 C   0  0  0  0  0  0  0  0  0  0  0  0
  142.0930   80.2190  221.4010 C   0  0  0  0  0  0  0  0  0  0  0  0
  141.8760   79.9970  222.7380 C   0  0  0  0  0  0  0  0  0  0  0  0
  142.2550   81.2600  223.8670 Cl  0  0  0  0  0  0  0  0  0  0  0  0
  141.3670   78.7970  223.1640 C   0  0  0  0  0  0  0  0  0  0  0  0
  141.0750   77.8190  222.2570 C   0  0  0  0  0  0  0  0  0  0  0  0
  138.3070   70.4500  223.8860 C   0  0  0  0  0  0  0  0  0  0  0  0
  138.2830   69.0810  223.9270 C   0  0  0  0  0  0  0  0  0  0  0  0
  138.9330   68.3220  224.8770 C   0  0  0  0  0  0  0  0  0  0  0  0
  139.6470   69.0000  225.8360 C   0  0  0  0  0  0  0  0  0  0  0  0
  140.3040   68.2550  226.7930 C   0  0  0  0  0  0  0  0  0  0  0  0
  141.0250   68.9130  227.7620 C   0  0  0  0  0  0  0  0  0  0  0  0
  141.6580   68.1790  228.6850 F   0  0  0  0  0  0  0  0  0  0  0  0
  141.0570   70.2850  227.7330 C   0  0  0  0  0  0  0  0  0  0  0  0
  140.3940   71.0370  226.7680 C   0  0  0  0  0  0  0  0  0  0  0  0
  139.6740   70.3780  225.7990 C   0  0  0  0  0  0  0  0  0  0  0  0
  139.0240   71.0830  224.8530 N   0  0  0  0  0  0  0  0  0  0  0  0
  138.5550   73.0260  223.3890 H   0  0  0  0  0  0  0  0  0  0  0  0
  136.7217   72.7688  220.9544 H   0  0  0  0  0  0  0  0  0  0  0  0
  136.3848   74.0261  222.1633 H   0  0  0  0  0  0  0  0  0  0  0  0
  139.2014   71.7989  220.8893 H   0  0  0  0  0  0  0  0  0  0  0  0
  140.2140   72.3077  219.5944 H   0  0  0  0  0  0  0  0  0  0  0  0
  141.7853   71.5273  221.6358 H   0  0  0  0  0  0  0  0  0  0  0  0
  140.1750   71.8380  223.2030 H   0  0  0  0  0  0  0  0  0  0  0  0
  142.6433   74.0496  221.9234 H   0  0  0  0  0  0  0  0  0  0  0  0
  142.5143   73.5837  220.2528 H   0  0  0  0  0  0  0  0  0  0  0  0
  140.6587   75.3670  221.8925 H   0  0  0  0  0  0  0  0  0  0  0  0
  142.0050   75.4263  219.4906 H   0  0  0  0  0  0  0  0  0  0  0  0
  140.1434   75.4713  219.2226 H   0  0  0  0  0  0  0  0  0  0  0  0
  141.9686   79.4080  219.4427 H   0  0  0  0  0  0  0  0  0  0  0  0
  142.5004   81.1784  221.0494 H   0  0  0  0  0  0  0  0  0  0  0  0
  141.1940   78.6223  224.2362 H   0  0  0  0  0  0  0  0  0  0  0  0
  140.6667   76.8646  222.6209 H   0  0  0  0  0  0  0  0  0  0  0  0
  137.7080   68.5531  223.1520 H   0  0  0  0  0  0  0  0  0  0  0  0
  138.8824   67.2232  224.8678 H   0  0  0  0  0  0  0  0  0  0  0  0
  140.2523   67.1563  226.7815 H   0  0  0  0  0  0  0  0  0  0  0  0
  141.6325   70.8136  228.5072 H   0  0  0  0  0  0  0  0  0  0  0  0
  140.4447   72.1358  226.7799 H   0  0  0  0  0  0  0  0  0  0  0  0
  1  2  2  0
  2  3  1  0
  3  4  1  0
  4  5  1  0
  5  6  2  0
  5  7  1  0
  7  8  1  0
  8  9  1  0
  9 10  1  0
  9 11  1  0
 11 12  1  0
 12 13  1  0
 13 14  1  0
 14 15  1  0
 15 16  2  0
 16 17  1  0
 17 18  2  0
 18 19  1  0
 18 20  1  0
 20 21  2  0
  2 22  1  0
 22 23  2  0
 23 24  1  0
 24 25  2  0
 25 26  1  0
 26 27  2  0
 27 28  1  0
 27 29  1  0
 29 30  2  0
 30 31  1  0
 31 32  2  0
 12  7  1  0
 21 15  1  0
 32 22  1  0
 31 25  1  0
  3 33  1  0
  4 34  1  0
  4 35  1  0
  8 36  1  0
  8 37  1  0
  9 38  1  1
 10 39  1  0
 11 40  1  0
 11 41  1  0
 12 42  1  1
 13 43  1  0
 13 44  1  0
 16 45  1  0
 17 46  1  0
 20 47  1  0
 21 48  1  0
 23 49  1  0
 24 50  1  0
 26 51  1  0
 29 52  1  0
 30 53  1  0
M  END
>  <smiles>  (35) 
O=C(NCC(=O)N1C[C@H](O)C[C@H]1COc1ccc(Cl)cc1)c1ccc2cc(F)ccc2n1

>  <score_type>  (35) 
oracle

>  <origin>  (35) 
autodockgpu

>  <m_score__min__energy>  (35) 
-8.4900000000000002

>  <m_primary>  (35) 
energy

>  <rmsd>  (35) 
2.5543801598713682

>  <m_score__min__rmsd>  (35) 
2.5543801598713682

>  <meeko>  (35) 
{"free_energy": -7.41, "intermolecular_energy": -9.8, "internal_energy": -3.2, "cluster_size": 18, "cluster_id": 1, "rank_in_cluster": 16}

>  <energy>  (35) 
-7.29

>  <cluster_rmsd>  (35) 
0.97

>  <cluster>  (35) 
3

$$$$

     RDKit          3D

 53 56  0  0  0  0  0  0  0  0999 V2000
  140.3640   72.9070  222.4210 O   0  0  0  0  0  0  0  0  0  0  0  0
  139.8150   71.8070  222.6870 C   0  0  0  0  0  0  0  0  0  0  0  0
  138.9600   71.1190  221.7740 N   0  0  0  0  0  0  0  0  0  0  0  0
  138.6640   71.6650  220.4460 C   0  0  0  0  0  0  0  0  0  0  0  0
  138.8760   70.5780  219.4880 C   0  0  0  0  0  0  0  0  0  0  0  0
  138.8140   70.8360  218.2460 O   0  0  0  0  0  0  0  0  0  0  0  0
  139.1510   69.2270  219.8300 N   0  0  0  0  0  0  0  0  0  0  0  0
  138.0980   68.2040  219.8600 C   0  0  0  0  0  0  0  0  0  0  0  0
  138.5010   67.5110  221.1760 C   0  0  2  0  0  0  0  0  0  0  0  0
  138.3980   68.4760  222.1680 O   0  0  0  0  0  0  0  0  0  0  0  0
  139.9800   67.2590  220.8440 C   0  0  0  0  0  0  0  0  0  0  0  0
  140.3710   68.5900  220.2110 C   0  0  1  0  0  0  0  0  0  0  0  0
  141.3780   68.3860  219.1080 C   0  0  0  0  0  0  0  0  0  0  0  0
  142.4830   69.1290  219.0620 O   0  0  0  0  0  0  0  0  0  0  0  0
  143.1420   70.1800  219.5180 C   0  0  0  0  0  0  0  0  0  0  0  0
  142.7010   71.1820  220.3550 C   0  0  0  0  0  0  0  0  0  0  0  0
  143.4710   72.2410  220.7730 C   0  0  0  0  0  0  0  0  0  0  0  0
  144.7700   72.3210  220.3370 C   0  0  0  0  0  0  0  0  0  0  0  0
  145.7470   73.6550  220.8620 Cl  0  0  0  0  0  0  0  0  0  0  0  0
  145.2770   71.3580  219.5030 C   0  0  0  0  0  0  0  0  0  0  0  0
  144.4890   70.3170  219.1030 C   0  0  0  0  0  0  0  0  0  0  0  0
  140.0690   71.2100  223.9960 C   0  0  0  0  0  0  0  0  0  0  0  0
  140.6910   71.9040  225.0000 C   0  0  0  0  0  0  0  0  0  0  0  0
  140.9540   71.3880  226.2520 C   0  0  0  0  0  0  0  0  0  0  0  0
  140.5590   70.0940  226.4890 C   0  0  0  0  0  0  0  0  0  0  0  0
  140.8140   69.5630  227.7370 C   0  0  0  0  0  0  0  0  0  0  0  0
  140.4260   68.2700  227.9960 C   0  0  0  0  0  0  0  0  0  0  0  0
  140.6790   67.7660  229.2100 F   0  0  0  0  0  0  0  0  0  0  0  0
  139.8020   67.5630  226.9980 C   0  0  0  0  0  0  0  0  0  0  0  0
  139.5440   68.0980  225.7390 C   0  0  0  0  0  0  0  0  0  0  0  0
  139.9320   69.3920  225.4820 C   0  0  0  0  0  0  0  0  0  0  0  0
  139.6940   69.9330  224.2710 N   0  0  0  0  0  0  0  0  0  0  0  0
  138.5510   70.2070  222.0910 H   0  0  0  0  0  0  0  0  0  0  0  0
  137.6208   72.0110  220.4022 H   0  0  0  0  0  0  0  0  0  0  0  0
  139.3108   72.5251  220.2184 H   0  0  0  0  0  0  0  0  0  0  0  0
  137.0916   68.6448  219.9136 H   0  0  0  0  0  0  0  0  0  0  0  0
  138.0341   67.5542  218.9748 H   0  0  0  0  0  0  0  0  0  0  0  0
  137.9346   66.6244  221.4971 H   0  0  0  0  0  0  0  0  0  0  0  0
  139.2350   68.5600  222.6710 H   0  0  0  0  0  0  0  0  0  0  0  0
  140.5680   67.0556  221.7511 H   0  0  0  0  0  0  0  0  0  0  0  0
  140.1562   66.3838  220.2013 H   0  0  0  0  0  0  0  0  0  0  0  0
  140.8985   69.2598  220.9061 H   0  0  0  0  0  0  0  0  0  0  0  0
  141.7043   67.3372  219.1676 H   0  0  0  0  0  0  0  0  0  0  0  0
  140.8291   68.6982  218.2074 H   0  0  0  0  0  0  0  0  0  0  0  0
  141.6621   71.1308  220.7129 H   0  0  0  0  0  0  0  0  0  0  0  0
  143.0550   73.0081  221.4427 H   0  0  0  0  0  0  0  0  0  0  0  0
  146.3188   71.4240  219.1561 H   0  0  0  0  0  0  0  0  0  0  0  0
  144.9166   69.5563  218.4333 H   0  0  0  0  0  0  0  0  0  0  0  0
  141.0007   72.9393  224.7946 H   0  0  0  0  0  0  0  0  0  0  0  0
  141.4575   71.9860  227.0259 H   0  0  0  0  0  0  0  0  0  0  0  0
  141.3178   70.1627  228.5093 H   0  0  0  0  0  0  0  0  0  0  0  0
  139.4921   66.5276  227.2024 H   0  0  0  0  0  0  0  0  0  0  0  0
  139.0405   67.4985  224.9663 H   0  0  0  0  0  0  0  0  0  0  0  0
  1  2  2  0
  2  3  1  0
  3  4  1  0
  4  5  1  0
  5  6  2  0
  5  7  1  0
  7  8  1  0
  8  9  1  0
  9 10  1  0
  9 11  1  0
 11 12  1  0
 12 13  1  0
 13 14  1  0
 14 15  1  0
 15 16  2  0
 16 17  1  0
 17 18  2  0
 18 19  1  0
 18 20  1  0
 20 21  2  0
  2 22  1  0
 22 23  2  0
 23 24  1  0
 24 25  2  0
 25 26  1  0
 26 27  2  0
 27 28  1  0
 27 29  1  0
 29 30  2  0
 30 31  1  0
 31 32  2  0
 12  7  1  0
 21 15  1  0
 32 22  1  0
 31 25  1  0
  3 33  1  0
  4 34  1  0
  4 35  1  0
  8 36  1  0
  8 37  1  0
  9 38  1  1
 10 39  1  0
 11 40  1  0
 11 41  1  0
 12 42  1  1
 13 43  1  0
 13 44  1  0
 16 45  1  0
 17 46  1  0
 20 47  1  0
 21 48  1  0
 23 49  1  0
 24 50  1  0
 26 51  1  0
 29 52  1  0
 30 53  1  0
M  END
>  <smiles>  (36) 
O=C(NCC(=O)N1C[C@H](O)C[C@H]1COc1ccc(Cl)cc1)c1ccc2cc(F)ccc2n1

>  <score_type>  (36) 
oracle

>  <origin>  (36) 
autodockgpu

>  <m_score__min__energy>  (36) 
-8.4900000000000002

>  <m_primary>  (36) 
energy

>  <rmsd>  (36) 
5.748143310204173

>  <m_score__min__rmsd>  (36) 
5.748143310204173

>  <meeko>  (36) 
{"free_energy": -6.2, "intermolecular_energy": -8.58, "internal_energy": -3.81, "cluster_size": 1, "cluster_id": 10, "rank_in_cluster": 1}

>  <energy>  (36) 
-7.27

>  <cluster_rmsd>  (36) 
1.06

>  <cluster>  (36) 
3

$$$$

     RDKit          3D

 53 56  0  0  0  0  0  0  0  0999 V2000
  143.0310   78.4820  217.8810 O   0  0  0  0  0  0  0  0  0  0  0  0
  142.5270   77.5940  218.6150 C   0  0  0  0  0  0  0  0  0  0  0  0
  141.3750   77.8130  219.4280 N   0  0  0  0  0  0  0  0  0  0  0  0
  140.6970   79.1110  219.4580 C   0  0  0  0  0  0  0  0  0  0  0  0
  141.4720   79.9700  220.3550 C   0  0  0  0  0  0  0  0  0  0  0  0
  142.1950   80.8860  219.8520 O   0  0  0  0  0  0  0  0  0  0  0  0
  141.4910   79.8700  221.7710 N   0  0  0  0  0  0  0  0  0  0  0  0
  141.5180   81.0580  222.6350 C   0  0  0  0  0  0  0  0  0  0  0  0
  142.5790   80.5750  223.6420 C   0  0  2  0  0  0  0  0  0  0  0  0
  143.7390   80.3660  222.9100 O   0  0  0  0  0  0  0  0  0  0  0  0
  141.9380   79.2270  224.0020 C   0  0  0  0  0  0  0  0  0  0  0  0
  141.5120   78.7260  222.6270 C   0  0  1  0  0  0  0  0  0  0  0  0
  140.2230   77.9470  222.7120 C   0  0  0  0  0  0  0  0  0  0  0  0
  140.0360   76.8730  221.9470 O   0  0  0  0  0  0  0  0  0  0  0  0
  140.2810   75.5910  221.7420 C   0  0  0  0  0  0  0  0  0  0  0  0
  141.4540   74.9860  221.3460 C   0  0  0  0  0  0  0  0  0  0  0  0
  141.6070   73.6330  221.1590 C   0  0  0  0  0  0  0  0  0  0  0  0
  140.5270   72.8140  221.3770 C   0  0  0  0  0  0  0  0  0  0  0  0
  140.7150   71.1050  221.1430 Cl  0  0  0  0  0  0  0  0  0  0  0  0
  139.3280   73.3470  221.7740 C   0  0  0  0  0  0  0  0  0  0  0  0
  139.2050   74.6950  221.9530 C   0  0  0  0  0  0  0  0  0  0  0  0
  143.1580   76.2760  218.6320 C   0  0  0  0  0  0  0  0  0  0  0  0
  143.0810   75.4220  217.5630 C   0  0  0  0  0  0  0  0  0  0  0  0
  143.6570   74.1700  217.5280 C   0  0  0  0  0  0  0  0  0  0  0  0
  144.3500   73.7700  218.6450 C   0  0  0  0  0  0  0  0  0  0  0  0
  144.9330   72.5190  218.6250 C   0  0  0  0  0  0  0  0  0  0  0  0
  145.6320   72.1000  219.7330 C   0  0  0  0  0  0  0  0  0  0  0  0
  146.1940   70.8850  219.7020 F   0  0  0  0  0  0  0  0  0  0  0  0
  145.7170   72.9460  220.8100 C   0  0  0  0  0  0  0  0  0  0  0  0
  145.1300   74.2070  220.8310 C   0  0  0  0  0  0  0  0  0  0  0  0
  144.4310   74.6260  219.7220 C   0  0  0  0  0  0  0  0  0  0  0  0
  143.8530   75.8420  219.7170 N   0  0  0  0  0  0  0  0  0  0  0  0
  141.0320   77.0060  220.0050 H   0  0  0  0  0  0  0  0  0  0  0  0
  140.6670   79.5464  218.4483 H   0  0  0  0  0  0  0  0  0  0  0  0
  139.6594   79.0073  219.8082 H   0  0  0  0  0  0  0  0  0  0  0  0
  141.8398   81.9592  222.0925 H   0  0  0  0  0  0  0  0  0  0  0  0
  140.5518   81.3619  223.0640 H   0  0  0  0  0  0  0  0  0  0  0  0
  142.8232   81.2214  224.4979 H   0  0  0  0  0  0  0  0  0  0  0  0
  143.5380   80.1990  221.9660 H   0  0  0  0  0  0  0  0  0  0  0  0
  142.6646   78.5475  224.4714 H   0  0  0  0  0  0  0  0  0  0  0  0
  141.1176   79.2973  224.7313 H   0  0  0  0  0  0  0  0  0  0  0  0
  142.2145   77.9959  222.1988 H   0  0  0  0  0  0  0  0  0  0  0  0
  140.1234   77.6133  223.7554 H   0  0  0  0  0  0  0  0  0  0  0  0
  139.4755   78.6584  222.3310 H   0  0  0  0  0  0  0  0  0  0  0  0
  142.3277   75.6300  221.1673 H   0  0  0  0  0  0  0  0  0  0  0  0
  142.5739   73.2154  220.8415 H   0  0  0  0  0  0  0  0  0  0  0  0
  138.4645   72.6883  221.9485 H   0  0  0  0  0  0  0  0  0  0  0  0
  138.2337   75.1001  222.2731 H   0  0  0  0  0  0  0  0  0  0  0  0
  142.5237   75.7571  216.6758 H   0  0  0  0  0  0  0  0  0  0  0  0
  143.5659   73.5202  216.6452 H   0  0  0  0  0  0  0  0  0  0  0  0
  144.8405   71.8706  217.7413 H   0  0  0  0  0  0  0  0  0  0  0  0
  146.2747   72.6118  221.6973 H   0  0  0  0  0  0  0  0  0  0  0  0
  145.2225   74.8552  221.7149 H   0  0  0  0  0  0  0  0  0  0  0  0
  1  2  2  0
  2  3  1  0
  3  4  1  0
  4  5  1  0
  5  6  2  0
  5  7  1  0
  7  8  1  0
  8  9  1  0
  9 10  1  0
  9 11  1  0
 11 12  1  0
 12 13  1  0
 13 14  1  0
 14 15  1  0
 15 16  2  0
 16 17  1  0
 17 18  2  0
 18 19  1  0
 18 20  1  0
 20 21  2  0
  2 22  1  0
 22 23  2  0
 23 24  1  0
 24 25  2  0
 25 26  1  0
 26 27  2  0
 27 28  1  0
 27 29  1  0
 29 30  2  0
 30 31  1  0
 31 32  2  0
 12  7  1  0
 21 15  1  0
 32 22  1  0
 31 25  1  0
  3 33  1  0
  4 34  1  0
  4 35  1  0
  8 36  1  0
  8 37  1  0
  9 38  1  1
 10 39  1  0
 11 40  1  0
 11 41  1  0
 12 42  1  6
 13 43  1  0
 13 44  1  0
 16 45  1  0
 17 46  1  0
 20 47  1  0
 21 48  1  0
 23 49  1  0
 24 50  1  0
 26 51  1  0
 29 52  1  0
 30 53  1  0
M  END
>  <smiles>  (37) 
O=C(NCC(=O)N1C[C@H](O)C[C@H]1COc1ccc(Cl)cc1)c1ccc2cc(F)ccc2n1

>  <score_type>  (37) 
oracle

>  <origin>  (37) 
autodockgpu

>  <m_score__min__energy>  (37) 
-8.4900000000000002

>  <m_primary>  (37) 
energy

>  <rmsd>  (37) 
7.982564415847783

>  <m_score__min__rmsd>  (37) 
7.982564415847783

>  <meeko>  (37) 
{"free_energy": -6.5, "intermolecular_energy": -8.88, "internal_energy": -3.32, "cluster_size": 1, "cluster_id": 9, "rank_in_cluster": 1}

>  <energy>  (37) 
-7.18

>  <cluster_rmsd>  (37) 
0.71

>  <cluster>  (37) 
3

$$$$

     RDKit          3D

 53 56  0  0  0  0  0  0  0  0999 V2000
  139.9610   74.2350  222.0980 O   0  0  0  0  0  0  0  0  0  0  0  0
  140.1640   75.4280  221.7580 C   0  0  0  0  0  0  0  0  0  0  0  0
  141.2790   75.8380  220.9670 N   0  0  0  0  0  0  0  0  0  0  0  0
  142.2760   74.8720  220.4950 C   0  0  0  0  0  0  0  0  0  0  0  0
  143.2120   75.6140  219.6490 C   0  0  0  0  0  0  0  0  0  0  0  0
  144.3810   75.8480  220.0880 O   0  0  0  0  0  0  0  0  0  0  0  0
  142.9260   76.1090  218.3490 N   0  0  0  0  0  0  0  0  0  0  0  0
  142.5800   75.2150  217.2360 C   0  0  0  0  0  0  0  0  0  0  0  0
  143.4460   75.8750  216.1450 C   0  0  2  0  0  0  0  0  0  0  0  0
  144.7590   75.7730  216.5810 O   0  0  0  0  0  0  0  0  0  0  0  0
  142.9470   77.3180  216.3170 C   0  0  0  0  0  0  0  0  0  0  0  0
  142.9230   77.4430  217.8370 C   0  0  1  0  0  0  0  0  0  0  0  0
  141.7790   78.3160  218.2870 C   0  0  0  0  0  0  0  0  0  0  0  0
  141.5190   78.4650  219.5850 O   0  0  0  0  0  0  0  0  0  0  0  0
  141.7760   79.1110  220.7080 C   0  0  0  0  0  0  0  0  0  0  0  0
  142.2040   78.6080  221.9180 C   0  0  0  0  0  0  0  0  0  0  0  0
  142.4440   79.3700  223.0370 C   0  0  0  0  0  0  0  0  0  0  0  0
  142.2490   80.7270  222.9600 C   0  0  0  0  0  0  0  0  0  0  0  0
  142.5510   81.6950  224.3690 Cl  0  0  0  0  0  0  0  0  0  0  0  0
  141.8250   81.2970  221.7880 C   0  0  0  0  0  0  0  0  0  0  0  0
  141.5950   80.5150  220.6920 C   0  0  0  0  0  0  0  0  0  0  0  0
  139.2060   76.4410  222.1990 C   0  0  0  0  0  0  0  0  0  0  0  0
  137.8530   76.2370  222.1300 C   0  0  0  0  0  0  0  0  0  0  0  0
  136.9090   77.1590  222.5320 C   0  0  0  0  0  0  0  0  0  0  0  0
  137.3740   78.3520  223.0310 C   0  0  0  0  0  0  0  0  0  0  0  0
  136.4420   79.2840  223.4380 C   0  0  0  0  0  0  0  0  0  0  0  0
  136.8850   80.4840  223.9410 C   0  0  0  0  0  0  0  0  0  0  0  0
  135.9720   81.3810  224.3330 F   0  0  0  0  0  0  0  0  0  0  0  0
  138.2390   80.7010  224.0150 C   0  0  0  0  0  0  0  0  0  0  0  0
  139.1800   79.7610  223.6050 C   0  0  0  0  0  0  0  0  0  0  0  0
  138.7350   78.5610  223.1020 C   0  0  0  0  0  0  0  0  0  0  0  0
  139.6250   77.6340  222.6990 N   0  0  0  0  0  0  0  0  0  0  0  0
  141.3590   76.8580  220.7370 H   0  0  0  0  0  0  0  0  0  0  0  0
  142.8075   74.4275  221.3493 H   0  0  0  0  0  0  0  0  0  0  0  0
  141.8001   74.0533  219.9354 H   0  0  0  0  0  0  0  0  0  0  0  0
  142.8785   74.1743  217.4306 H   0  0  0  0  0  0  0  0  0  0  0  0
  141.5077   75.1240  217.0084 H   0  0  0  0  0  0  0  0  0  0  0  0
  143.3919   75.4796  215.1200 H   0  0  0  0  0  0  0  0  0  0  0  0
  144.8050   75.7160  217.5590 H   0  0  0  0  0  0  0  0  0  0  0  0
  143.6408   78.0413  215.8638 H   0  0  0  0  0  0  0  0  0  0  0  0
  141.9815   77.5231  215.8315 H   0  0  0  0  0  0  0  0  0  0  0  0
  143.8044   77.9623  218.2412 H   0  0  0  0  0  0  0  0  0  0  0  0
  141.9716   79.3218  217.8854 H   0  0  0  0  0  0  0  0  0  0  0  0
  140.8937   77.7800  217.9144 H   0  0  0  0  0  0  0  0  0  0  0  0
  142.3645   77.5224  221.9935 H   0  0  0  0  0  0  0  0  0  0  0  0
  142.7846   78.9030  223.9729 H   0  0  0  0  0  0  0  0  0  0  0  0
  141.6699   82.3845  221.7300 H   0  0  0  0  0  0  0  0  0  0  0  0
  141.2563   80.9943  219.7617 H   0  0  0  0  0  0  0  0  0  0  0  0
  137.4968   75.2769  221.7285 H   0  0  0  0  0  0  0  0  0  0  0  0
  135.8319   76.9486  222.4565 H   0  0  0  0  0  0  0  0  0  0  0  0
  135.3655   79.0710  223.3615 H   0  0  0  0  0  0  0  0  0  0  0  0
  138.5959   81.6609  224.4164 H   0  0  0  0  0  0  0  0  0  0  0  0
  140.2566   79.9734  223.6817 H   0  0  0  0  0  0  0  0  0  0  0  0
  1  2  2  0
  2  3  1  0
  3  4  1  0
  4  5  1  0
  5  6  2  0
  5  7  1  0
  7  8  1  0
  8  9  1  0
  9 10  1  0
  9 11  1  0
 11 12  1  0
 12 13  1  0
 13 14  1  0
 14 15  1  0
 15 16  2  0
 16 17  1  0
 17 18  2  0
 18 19  1  0
 18 20  1  0
 20 21  2  0
  2 22  1  0
 22 23  2  0
 23 24  1  0
 24 25  2  0
 25 26  1  0
 26 27  2  0
 27 28  1  0
 27 29  1  0
 29 30  2  0
 30 31  1  0
 31 32  2  0
 12  7  1  0
 21 15  1  0
 32 22  1  0
 31 25  1  0
  3 33  1  0
  4 34  1  0
  4 35  1  0
  8 36  1  0
  8 37  1  0
  9 38  1  6
 10 39  1  0
 11 40  1  0
 11 41  1  0
 12 42  1  1
 13 43  1  0
 13 44  1  0
 16 45  1  0
 17 46  1  0
 20 47  1  0
 21 48  1  0
 23 49  1  0
 24 50  1  0
 26 51  1  0
 29 52  1  0
 30 53  1  0
M  END
>  <smiles>  (38) 
O=C(NCC(=O)N1C[C@H](O)C[C@H]1COc1ccc(Cl)cc1)c1ccc2cc(F)ccc2n1

>  <score_type>  (38) 
oracle

>  <origin>  (38) 
autodockgpu

>  <m_score__min__energy>  (38) 
-8.4900000000000002

>  <m_primary>  (38) 
energy

>  <rmsd>  (38) 
7.222105999885307

>  <m_score__min__rmsd>  (38) 
7.222105999885307

>  <meeko>  (38) 
{"free_energy": -6.48, "intermolecular_energy": -8.87, "internal_energy": -3.55, "cluster_size": 6, "cluster_id": 8, "rank_in_cluster": 5}

>  <energy>  (38) 
-7.75

>  <cluster_rmsd>  (38) 
0.0

>  <cluster>  (38) 
4

$$$$

     RDKit          3D

 53 56  0  0  0  0  0  0  0  0999 V2000
  141.2660   71.9190  221.3190 O   0  0  0  0  0  0  0  0  0  0  0  0
  140.5080   72.3810  222.2090 C   0  0  0  0  0  0  0  0  0  0  0  0
  139.8520   73.6450  222.1000 N   0  0  0  0  0  0  0  0  0  0  0  0
  140.0280   74.4960  220.9200 C   0  0  0  0  0  0  0  0  0  0  0  0
  139.6940   75.8610  221.3320 C   0  0  0  0  0  0  0  0  0  0  0  0
  138.4700   76.1830  221.4480 O   0  0  0  0  0  0  0  0  0  0  0  0
  140.6360   76.8830  221.6200 N   0  0  0  0  0  0  0  0  0  0  0  0
  141.0740   77.1720  222.9920 C   0  0  0  0  0  0  0  0  0  0  0  0
  141.0140   78.7100  222.9240 C   0  0  2  0  0  0  0  0  0  0  0  0
  139.6910   79.0330  222.6590 O   0  0  0  0  0  0  0  0  0  0  0  0
  141.8630   78.9030  221.6580 C   0  0  0  0  0  0  0  0  0  0  0  0
  141.3080   77.8040  220.7590 C   0  0  1  0  0  0  0  0  0  0  0  0
  142.3930   77.2190  219.8910 C   0  0  0  0  0  0  0  0  0  0  0  0
  142.4810   75.9000  219.7250 O   0  0  0  0  0  0  0  0  0  0  0  0
  143.2500   74.8260  219.7020 C   0  0  0  0  0  0  0  0  0  0  0  0
  144.3710   74.5480  220.4530 C   0  0  0  0  0  0  0  0  0  0  0  0
  145.1080   73.3920  220.3530 C   0  0  0  0  0  0  0  0  0  0  0  0
  144.7130   72.4390  219.4480 C   0  0  0  0  0  0  0  0  0  0  0  0
  145.6380   70.9760  219.3170 Cl  0  0  0  0  0  0  0  0  0  0  0  0
  143.6050   72.6470  218.6670 C   0  0  0  0  0  0  0  0  0  0  0  0
  142.8920   73.8050  218.7880 C   0  0  0  0  0  0  0  0  0  0  0  0
  140.2930   71.5810  223.4130 C   0  0  0  0  0  0  0  0  0  0  0  0
  139.6020   70.3980  223.3830 C   0  0  0  0  0  0  0  0  0  0  0  0
  139.3720   69.6070  224.4890 C   0  0  0  0  0  0  0  0  0  0  0  0
  139.8750   70.0490  225.6890 C   0  0  0  0  0  0  0  0  0  0  0  0
  139.6530   69.2670  226.8040 C   0  0  0  0  0  0  0  0  0  0  0  0
  140.1490   69.6900  228.0150 C   0  0  0  0  0  0  0  0  0  0  0  0
  139.9280   68.9240  229.0900 F   0  0  0  0  0  0  0  0  0  0  0  0
  140.8420   70.8740  228.0590 C   0  0  0  0  0  0  0  0  0  0  0  0
  141.0660   71.6620  226.9340 C   0  0  0  0  0  0  0  0  0  0  0  0
  140.5710   71.2380  225.7230 C   0  0  0  0  0  0  0  0  0  0  0  0
  140.7740   71.9830  224.6200 N   0  0  0  0  0  0  0  0  0  0  0  0
  139.2400   73.9410  222.8980 H   0  0  0  0  0  0  0  0  0  0  0  0
  141.0702   74.4496  220.5712 H   0  0  0  0  0  0  0  0  0  0  0  0
  139.3837   74.1635  220.0928 H   0  0  0  0  0  0  0  0  0  0  0  0
  140.3835   76.7620  223.7438 H   0  0  0  0  0  0  0  0  0  0  0  0
  142.0422   76.7417  223.2878 H   0  0  0  0  0  0  0  0  0  0  0  0
  141.3411   79.2880  223.8009 H   0  0  0  0  0  0  0  0  0  0  0  0
  139.2030   78.2650  222.2950 H   0  0  0  0  0  0  0  0  0  0  0  0
  141.7099   79.8995  221.2180 H   0  0  0  0  0  0  0  0  0  0  0  0
  142.9480   78.8420  221.8284 H   0  0  0  0  0  0  0  0  0  0  0  0
  140.5777   78.1752  220.0249 H   0  0  0  0  0  0  0  0  0  0  0  0
  142.2673   77.6563  218.8895 H   0  0  0  0  0  0  0  0  0  0  0  0
  143.3133   77.4640  220.4415 H   0  0  0  0  0  0  0  0  0  0  0  0
  144.6988   75.3029  221.1828 H   0  0  0  0  0  0  0  0  0  0  0  0
  145.9948   73.2343  220.9844 H   0  0  0  0  0  0  0  0  0  0  0  0
  143.2907   71.8808  217.9431 H   0  0  0  0  0  0  0  0  0  0  0  0
  142.0065   73.9505  218.1519 H   0  0  0  0  0  0  0  0  0  0  0  0
  139.2055   70.0576  222.4150 H   0  0  0  0  0  0  0  0  0  0  0  0
  138.8107   68.6640  224.4139 H   0  0  0  0  0  0  0  0  0  0  0  0
  139.0909   68.3247  226.7259 H   0  0  0  0  0  0  0  0  0  0  0  0
  141.2380   71.2153  229.0268 H   0  0  0  0  0  0  0  0  0  0  0  0
  141.6275   72.6047  227.0118 H   0  0  0  0  0  0  0  0  0  0  0  0
  1  2  2  0
  2  3  1  0
  3  4  1  0
  4  5  1  0
  5  6  2  0
  5  7  1  0
  7  8  1  0
  8  9  1  0
  9 10  1  0
  9 11  1  0
 11 12  1  0
 12 13  1  0
 13 14  1  0
 14 15  1  0
 15 16  2  0
 16 17  1  0
 17 18  2  0
 18 19  1  0
 18 20  1  0
 20 21  2  0
  2 22  1  0
 22 23  2  0
 23 24  1  0
 24 25  2  0
 25 26  1  0
 26 27  2  0
 27 28  1  0
 27 29  1  0
 29 30  2  0
 30 31  1  0
 31 32  2  0
 12  7  1  0
 21 15  1  0
 32 22  1  0
 31 25  1  0
  3 33  1  0
  4 34  1  0
  4 35  1  0
  8 36  1  0
  8 37  1  0
  9 38  1  1
 10 39  1  0
 11 40  1  0
 11 41  1  0
 12 42  1  6
 13 43  1  0
 13 44  1  0
 16 45  1  0
 17 46  1  0
 20 47  1  0
 21 48  1  0
 23 49  1  0
 24 50  1  0
 26 51  1  0
 29 52  1  0
 30 53  1  0
M  END
>  <smiles>  (39) 
O=C(NCC(=O)N1C[C@H](O)C[C@H]1COc1ccc(Cl)cc1)c1ccc2cc(F)ccc2n1

>  <score_type>  (39) 
oracle

>  <origin>  (39) 
autodockgpu

>  <m_score__min__energy>  (39) 
-8.4900000000000002

>  <m_primary>  (39) 
energy

>  <rmsd>  (39) 
2.964270586013594

>  <m_score__min__rmsd>  (39) 
2.964270586013594

>  <meeko>  (39) 
{"free_energy": -7.6, "intermolecular_energy": -9.99, "internal_energy": -2.42, "cluster_size": 15, "cluster_id": 3, "rank_in_cluster": 9}

>  <energy>  (39) 
-7.69

>  <cluster_rmsd>  (39) 
0.68

>  <cluster>  (39) 
4

$$$$

     RDKit          3D

 53 56  0  0  0  0  0  0  0  0999 V2000
  141.3910   72.4730  221.8800 O   0  0  0  0  0  0  0  0  0  0  0  0
  140.3440   72.5280  222.5740 C   0  0  0  0  0  0  0  0  0  0  0  0
  139.2900   73.4590  222.3280 N   0  0  0  0  0  0  0  0  0  0  0  0
  139.3670   74.4270  221.2300 C   0  0  0  0  0  0  0  0  0  0  0  0
  139.2030   75.7540  221.8270 C   0  0  0  0  0  0  0  0  0  0  0  0
  138.2880   75.9270  222.6910 O   0  0  0  0  0  0  0  0  0  0  0  0
  139.9920   76.8930  221.5180 N   0  0  0  0  0  0  0  0  0  0  0  0
  141.0570   77.3660  222.4120 C   0  0  0  0  0  0  0  0  0  0  0  0
  140.7490   78.8740  222.3460 C   0  0  2  0  0  0  0  0  0  0  0  0
  139.4650   79.0280  222.8470 O   0  0  0  0  0  0  0  0  0  0  0  0
  140.7360   79.0250  220.8170 C   0  0  0  0  0  0  0  0  0  0  0  0
  139.9470   77.7870  220.4050 C   0  0  1  0  0  0  0  0  0  0  0  0
  140.4560   77.2340  219.0980 C   0  0  0  0  0  0  0  0  0  0  0  0
  141.0470   76.0400  219.0600 O   0  0  0  0  0  0  0  0  0  0  0  0
  142.0950   75.3020  219.3780 C   0  0  0  0  0  0  0  0  0  0  0  0
  142.2110   73.9300  219.4080 C   0  0  0  0  0  0  0  0  0  0  0  0
  143.3550   73.2520  219.7570 C   0  0  0  0  0  0  0  0  0  0  0  0
  144.4680   73.9790  220.1020 C   0  0  0  0  0  0  0  0  0  0  0  0
  145.9160   73.1290  220.5430 Cl  0  0  0  0  0  0  0  0  0  0  0  0
  144.4260   75.3490  220.0940 C   0  0  0  0  0  0  0  0  0  0  0  0
  143.2760   75.9950  219.7430 C   0  0  0  0  0  0  0  0  0  0  0  0
  140.2070   71.5900  223.6860 C   0  0  0  0  0  0  0  0  0  0  0  0
  139.5870   70.3770  223.5390 C   0  0  0  0  0  0  0  0  0  0  0  0
  139.4310   69.4570  224.5540 C   0  0  0  0  0  0  0  0  0  0  0  0
  139.9370   69.7960  225.7870 C   0  0  0  0  0  0  0  0  0  0  0  0
  139.7900   68.8860  226.8130 C   0  0  0  0  0  0  0  0  0  0  0  0
  140.2900   69.2050  228.0540 C   0  0  0  0  0  0  0  0  0  0  0  0
  140.1410   68.3140  229.0420 F   0  0  0  0  0  0  0  0  0  0  0  0
  140.9130   70.4170  228.2150 C   0  0  0  0  0  0  0  0  0  0  0  0
  141.0610   71.3350  227.1800 C   0  0  0  0  0  0  0  0  0  0  0  0
  140.5620   71.0150  225.9390 C   0  0  0  0  0  0  0  0  0  0  0  0
  140.6930   71.8870  224.9210 N   0  0  0  0  0  0  0  0  0  0  0  0
  138.4570   73.4240  222.9650 H   0  0  0  0  0  0  0  0  0  0  0  0
  140.3435   74.3548  220.7287 H   0  0  0  0  0  0  0  0  0  0  0  0
  138.5896   74.2333  220.4763 H   0  0  0  0  0  0  0  0  0  0  0  0
  140.9527   76.9649  223.4309 H   0  0  0  0  0  0  0  0  0  0  0  0
  142.0807   77.0727  222.1362 H   0  0  0  0  0  0  0  0  0  0  0  0
  141.4128   79.5696  222.8802 H   0  0  0  0  0  0  0  0  0  0  0  0
  138.9930   78.1690  222.8850 H   0  0  0  0  0  0  0  0  0  0  0  0
  140.2265   79.9494  220.5074 H   0  0  0  0  0  0  0  0  0  0  0  0
  141.7347   79.0967  220.3615 H   0  0  0  0  0  0  0  0  0  0  0  0
  138.8905   78.0024  220.1874 H   0  0  0  0  0  0  0  0  0  0  0  0
  139.5924   77.1816  218.4187 H   0  0  0  0  0  0  0  0  0  0  0  0
  141.2699   77.9251  218.8334 H   0  0  0  0  0  0  0  0  0  0  0  0
  141.3271   73.3354  219.1337 H   0  0  0  0  0  0  0  0  0  0  0  0
  143.3783   72.1523  219.7599 H   0  0  0  0  0  0  0  0  0  0  0  0
  145.3194   75.9281  220.3705 H   0  0  0  0  0  0  0  0  0  0  0  0
  143.2655   77.0950  219.7435 H   0  0  0  0  0  0  0  0  0  0  0  0
  139.1878   70.1205  222.5466 H   0  0  0  0  0  0  0  0  0  0  0  0
  138.9246   68.4952  224.3852 H   0  0  0  0  0  0  0  0  0  0  0  0
  139.2832   67.9247  226.6423 H   0  0  0  0  0  0  0  0  0  0  0  0
  141.3133   70.6743  229.2067 H   0  0  0  0  0  0  0  0  0  0  0  0
  141.5667   72.2968  227.3508 H   0  0  0  0  0  0  0  0  0  0  0  0
  1  2  2  0
  2  3  1  0
  3  4  1  0
  4  5  1  0
  5  6  2  0
  5  7  1  0
  7  8  1  0
  8  9  1  0
  9 10  1  0
  9 11  1  0
 11 12  1  0
 12 13  1  0
 13 14  1  0
 14 15  1  0
 15 16  2  0
 16 17  1  0
 17 18  2  0
 18 19  1  0
 18 20  1  0
 20 21  2  0
  2 22  1  0
 22 23  2  0
 23 24  1  0
 24 25  2  0
 25 26  1  0
 26 27  2  0
 27 28  1  0
 27 29  1  0
 29 30  2  0
 30 31  1  0
 31 32  2  0
 12  7  1  0
 21 15  1  0
 32 22  1  0
 31 25  1  0
  3 33  1  0
  4 34  1  0
  4 35  1  0
  8 36  1  0
  8 37  1  0
  9 38  1  1
 10 39  1  0
 11 40  1  0
 11 41  1  0
 12 42  1  6
 13 43  1  0
 13 44  1  0
 16 45  1  0
 17 46  1  0
 20 47  1  0
 21 48  1  0
 23 49  1  0
 24 50  1  0
 26 51  1  0
 29 52  1  0
 30 53  1  0
M  END
>  <smiles>  (40) 
O=C(NCC(=O)N1C[C@H](O)C[C@H]1COc1ccc(Cl)cc1)c1ccc2cc(F)ccc2n1

>  <score_type>  (40) 
oracle

>  <origin>  (40) 
autodockgpu

>  <m_score__min__energy>  (40) 
-8.4900000000000002

>  <m_primary>  (40) 
energy

>  <rmsd>  (40) 
2.6993077934355565

>  <m_score__min__rmsd>  (40) 
2.6993077934355565

>  <meeko>  (40) 
{"free_energy": -7.78, "intermolecular_energy": -10.17, "internal_energy": -2.69, "cluster_size": 15, "cluster_id": 3, "rank_in_cluster": 5}

>  <energy>  (40) 
-7.64

>  <cluster_rmsd>  (40) 
0.0

>  <cluster>  (40) 
5

$$$$

     RDKit          3D

 53 56  0  0  0  0  0  0  0  0999 V2000
  139.9570   71.6110  221.1470 O   0  0  0  0  0  0  0  0  0  0  0  0
  139.8280   72.1600  222.2700 C   0  0  0  0  0  0  0  0  0  0  0  0
  139.6100   73.5620  222.4350 N   0  0  0  0  0  0  0  0  0  0  0  0
  139.5230   74.4610  221.2810 C   0  0  0  0  0  0  0  0  0  0  0  0
  140.7770   75.2170  221.2420 C   0  0  0  0  0  0  0  0  0  0  0  0
  141.0460   76.0070  222.1990 O   0  0  0  0  0  0  0  0  0  0  0  0
  141.7430   75.1450  220.2040 N   0  0  0  0  0  0  0  0  0  0  0  0
  142.0050   73.9010  219.4690 C   0  0  0  0  0  0  0  0  0  0  0  0
  143.5440   73.9700  219.4560 C   0  0  2  0  0  0  0  0  0  0  0  0
  143.9420   73.9510  220.7860 O   0  0  0  0  0  0  0  0  0  0  0  0
  143.6910   75.3890  218.8860 C   0  0  0  0  0  0  0  0  0  0  0  0
  142.6270   76.1380  219.6800 C   0  0  1  0  0  0  0  0  0  0  0  0
  141.9830   77.2110  218.8380 C   0  0  0  0  0  0  0  0  0  0  0  0
  141.6800   78.3920  219.3740 O   0  0  0  0  0  0  0  0  0  0  0  0
  141.7620   79.2000  220.4170 C   0  0  0  0  0  0  0  0  0  0  0  0
  141.5070   80.5520  220.4860 C   0  0  0  0  0  0  0  0  0  0  0  0
  141.6240   81.3080  221.6280 C   0  0  0  0  0  0  0  0  0  0  0  0
  142.0200   80.6890  222.7870 C   0  0  0  0  0  0  0  0  0  0  0  0
  142.1690   81.6380  224.2330 Cl  0  0  0  0  0  0  0  0  0  0  0  0
  142.2900   79.3450  222.7930 C   0  0  0  0  0  0  0  0  0  0  0  0
  142.1650   78.6190  221.6440 C   0  0  0  0  0  0  0  0  0  0  0  0
  139.9060   71.3170  223.4620 C   0  0  0  0  0  0  0  0  0  0  0  0
  139.5180   70.0040  223.4470 C   0  0  0  0  0  0  0  0  0  0  0  0
  139.5710   69.1670  224.5410 C   0  0  0  0  0  0  0  0  0  0  0  0
  140.0480   69.7020  225.7140 C   0  0  0  0  0  0  0  0  0  0  0  0
  140.1080   68.8770  226.8180 C   0  0  0  0  0  0  0  0  0  0  0  0
  140.5830   69.3930  228.0010 C   0  0  0  0  0  0  0  0  0  0  0  0
  140.6370   68.5830  229.0660 F   0  0  0  0  0  0  0  0  0  0  0  0
  140.9750   70.7080  228.0300 C   0  0  0  0  0  0  0  0  0  0  0  0
  140.9150   71.5400  226.9160 C   0  0  0  0  0  0  0  0  0  0  0  0
  140.4400   71.0240  225.7330 C   0  0  0  0  0  0  0  0  0  0  0  0
  140.3720   71.8090  224.6410 N   0  0  0  0  0  0  0  0  0  0  0  0
  139.5150   73.9230  223.4150 H   0  0  0  0  0  0  0  0  0  0  0  0
  139.4019   73.8792  220.3553 H   0  0  0  0  0  0  0  0  0  0  0  0
  138.6573   75.1341  221.3677 H   0  0  0  0  0  0  0  0  0  0  0  0
  141.6334   73.0155  220.0055 H   0  0  0  0  0  0  0  0  0  0  0  0
  141.5204   73.8138  218.4854 H   0  0  0  0  0  0  0  0  0  0  0  0
  144.1009   73.1885  218.9183 H   0  0  0  0  0  0  0  0  0  0  0  0
  143.6420   74.7560  221.2580 H   0  0  0  0  0  0  0  0  0  0  0  0
  144.6954   75.7967  219.0732 H   0  0  0  0  0  0  0  0  0  0  0  0
  143.5684   75.4524  217.7947 H   0  0  0  0  0  0  0  0  0  0  0  0
  143.0407   76.7033  220.5281 H   0  0  0  0  0  0  0  0  0  0  0  0
  142.6680   77.4099  218.0006 H   0  0  0  0  0  0  0  0  0  0  0  0
  140.9977   76.7842  218.5991 H   0  0  0  0  0  0  0  0  0  0  0  0
  141.1881   81.0612  219.5646 H   0  0  0  0  0  0  0  0  0  0  0  0
  141.4049   82.3859  221.6132 H   0  0  0  0  0  0  0  0  0  0  0  0
  142.6073   78.8518  223.7236 H   0  0  0  0  0  0  0  0  0  0  0  0
  142.3857   77.5417  221.6721 H   0  0  0  0  0  0  0  0  0  0  0  0
  139.1395   69.5903  222.5007 H   0  0  0  0  0  0  0  0  0  0  0  0
  139.2461   68.1179  224.4782 H   0  0  0  0  0  0  0  0  0  0  0  0
  139.7827   67.8282  226.7534 H   0  0  0  0  0  0  0  0  0  0  0  0
  141.3535   71.1228  228.9759 H   0  0  0  0  0  0  0  0  0  0  0  0
  141.2408   72.5887  226.9804 H   0  0  0  0  0  0  0  0  0  0  0  0
  1  2  2  0
  2  3  1  0
  3  4  1  0
  4  5  1  0
  5  6  2  0
  5  7  1  0
  7  8  1  0
  8  9  1  0
  9 10  1  0
  9 11  1  0
 11 12  1  0
 12 13  1  0
 13 14  1  0
 14 15  1  0
 15 16  2  0
 16 17  1  0
 17 18  2  0
 18 19  1  0
 18 20  1  0
 20 21  2  0
  2 22  1  0
 22 23  2  0
 23 24  1  0
 24 25  2  0
 25 26  1  0
 26 27  2  0
 27 28  1  0
 27 29  1  0
 29 30  2  0
 30 31  1  0
 31 32  2  0
 12  7  1  0
 21 15  1  0
 32 22  1  0
 31 25  1  0
  3 33  1  0
  4 34  1  0
  4 35  1  0
  8 36  1  0
  8 37  1  0
  9 38  1  6
 10 39  1  0
 11 40  1  0
 11 41  1  0
 12 42  1  1
 13 43  1  0
 13 44  1  0
 16 45  1  0
 17 46  1  0
 20 47  1  0
 21 48  1  0
 23 49  1  0
 24 50  1  0
 26 51  1  0
 29 52  1  0
 30 53  1  0
M  END
>  <smiles>  (41) 
O=C(NCC(=O)N1C[C@H](O)C[C@H]1COc1ccc(Cl)cc1)c1ccc2cc(F)ccc2n1

>  <score_type>  (41) 
oracle

>  <origin>  (41) 
autodockgpu

>  <m_score__min__energy>  (41) 
-8.4900000000000002

>  <m_primary>  (41) 
energy

>  <rmsd>  (41) 
2.0980938413007846

>  <m_score__min__rmsd>  (41) 
2.0980938413007846

>  <meeko>  (41) 
{"free_energy": -8.38, "intermolecular_energy": -10.77, "internal_energy": -1.82, "cluster_size": 18, "cluster_id": 1, "rank_in_cluster": 3}

>  <energy>  (41) 
-7.37

>  <cluster_rmsd>  (41) 
0.0

>  <cluster>  (41) 
6

$$$$

     RDKit          3D

 53 56  0  0  0  0  0  0  0  0999 V2000
  140.6890   71.4090  221.6940 O   0  0  0  0  0  0  0  0  0  0  0  0
  139.8280   71.6290  222.5830 C   0  0  0  0  0  0  0  0  0  0  0  0
  138.8250   72.6390  222.4670 N   0  0  0  0  0  0  0  0  0  0  0  0
  138.7370   73.4950  221.2820 C   0  0  0  0  0  0  0  0  0  0  0  0
  139.8830   74.4050  221.3340 C   0  0  0  0  0  0  0  0  0  0  0  0
  139.9600   75.2370  222.2910 O   0  0  0  0  0  0  0  0  0  0  0  0
  140.9420   74.4440  220.3890 N   0  0  0  0  0  0  0  0  0  0  0  0
  141.2700   73.2910  219.5410 C   0  0  0  0  0  0  0  0  0  0  0  0
  142.8040   73.3420  219.6790 C   0  0  2  0  0  0  0  0  0  0  0  0
  143.0760   73.1640  221.0280 O   0  0  0  0  0  0  0  0  0  0  0  0
  143.0050   74.8160  219.2950 C   0  0  0  0  0  0  0  0  0  0  0  0
  141.8720   75.4810  220.0700 C   0  0  1  0  0  0  0  0  0  0  0  0
  141.3110   76.6520  219.3040 C   0  0  0  0  0  0  0  0  0  0  0  0
  141.4140   77.8860  219.7950 O   0  0  0  0  0  0  0  0  0  0  0  0
  141.5810   78.6550  220.8560 C   0  0  0  0  0  0  0  0  0  0  0  0
  141.4910   78.3220  222.1900 C   0  0  0  0  0  0  0  0  0  0  0  0
  141.6830   79.2030  223.2280 C   0  0  0  0  0  0  0  0  0  0  0  0
  141.9870   80.5080  222.9310 C   0  0  0  0  0  0  0  0  0  0  0  0
  142.2320   81.6260  224.2370 Cl  0  0  0  0  0  0  0  0  0  0  0  0
  142.0950   80.9120  221.6260 C   0  0  0  0  0  0  0  0  0  0  0  0
  141.8980   80.0140  220.6160 C   0  0  0  0  0  0  0  0  0  0  0  0
  139.8620   70.8090  223.7920 C   0  0  0  0  0  0  0  0  0  0  0  0
  139.3490   69.5390  223.8210 C   0  0  0  0  0  0  0  0  0  0  0  0
  139.3560   68.7250  224.9340 C   0  0  0  0  0  0  0  0  0  0  0  0
  139.9180   69.2370  226.0780 C   0  0  0  0  0  0  0  0  0  0  0  0
  139.9340   68.4350  227.2000 C   0  0  0  0  0  0  0  0  0  0  0  0
  140.4920   68.9270  228.3560 C   0  0  0  0  0  0  0  0  0  0  0  0
  140.5010   68.1400  229.4390 F   0  0  0  0  0  0  0  0  0  0  0  0
  141.0100   70.1990  228.3410 C   0  0  0  0  0  0  0  0  0  0  0  0
  140.9940   71.0090  227.2100 C   0  0  0  0  0  0  0  0  0  0  0  0
  140.4360   70.5150  226.0540 C   0  0  0  0  0  0  0  0  0  0  0  0
  140.4090   71.2790  224.9450 N   0  0  0  0  0  0  0  0  0  0  0  0
  138.1520   72.7430  223.2650 H   0  0  0  0  0  0  0  0  0  0  0  0
  138.7797   72.8835  220.3686 H   0  0  0  0  0  0  0  0  0  0  0  0
  137.7892   74.0530  221.2666 H   0  0  0  0  0  0  0  0  0  0  0  0
  140.8486   72.3537  219.9333 H   0  0  0  0  0  0  0  0  0  0  0  0
  140.8795   73.3249  218.5132 H   0  0  0  0  0  0  0  0  0  0  0  0
  143.4077   72.6214  219.1077 H   0  0  0  0  0  0  0  0  0  0  0  0
  142.2940   72.8150  221.5050 H   0  0  0  0  0  0  0  0  0  0  0  0
  143.9881   75.1869  219.6205 H   0  0  0  0  0  0  0  0  0  0  0  0
  142.9844   75.0073  218.2120 H   0  0  0  0  0  0  0  0  0  0  0  0
  142.2051   75.9388  221.0131 H   0  0  0  0  0  0  0  0  0  0  0  0
  141.8115   76.6584  218.3245 H   0  0  0  0  0  0  0  0  0  0  0  0
  140.2270   76.4657  219.3205 H   0  0  0  0  0  0  0  0  0  0  0  0
  141.2487   77.2790  222.4420 H   0  0  0  0  0  0  0  0  0  0  0  0
  141.5950   78.8695  224.2725 H   0  0  0  0  0  0  0  0  0  0  0  0
  142.3401   81.9585  221.3922 H   0  0  0  0  0  0  0  0  0  0  0  0
  141.9891   80.3599  219.5758 H   0  0  0  0  0  0  0  0  0  0  0  0
  138.9027   69.1431  222.8968 H   0  0  0  0  0  0  0  0  0  0  0  0
  138.9306   67.7110  224.9069 H   0  0  0  0  0  0  0  0  0  0  0  0
  139.5084   67.4211  227.1704 H   0  0  0  0  0  0  0  0  0  0  0  0
  141.4575   70.5950  229.2646 H   0  0  0  0  0  0  0  0  0  0  0  0
  141.4187   72.0233  227.2397 H   0  0  0  0  0  0  0  0  0  0  0  0
  1  2  2  0
  2  3  1  0
  3  4  1  0
  4  5  1  0
  5  6  2  0
  5  7  1  0
  7  8  1  0
  8  9  1  0
  9 10  1  0
  9 11  1  0
 11 12  1  0
 12 13  1  0
 13 14  1  0
 14 15  1  0
 15 16  2  0
 16 17  1  0
 17 18  2  0
 18 19  1  0
 18 20  1  0
 20 21  2  0
  2 22  1  0
 22 23  2  0
 23 24  1  0
 24 25  2  0
 25 26  1  0
 26 27  2  0
 27 28  1  0
 27 29  1  0
 29 30  2  0
 30 31  1  0
 31 32  2  0
 12  7  1  0
 21 15  1  0
 32 22  1  0
 31 25  1  0
  3 33  1  0
  4 34  1  0
  4 35  1  0
  8 36  1  0
  8 37  1  0
  9 38  1  6
 10 39  1  0
 11 40  1  0
 11 41  1  0
 12 42  1  1
 13 43  1  0
 13 44  1  0
 16 45  1  0
 17 46  1  0
 20 47  1  0
 21 48  1  0
 23 49  1  0
 24 50  1  0
 26 51  1  0
 29 52  1  0
 30 53  1  0
M  END
>  <smiles>  (42) 
O=C(NCC(=O)N1C[C@H](O)C[C@H]1COc1ccc(Cl)cc1)c1ccc2cc(F)ccc2n1

>  <score_type>  (42) 
oracle

>  <origin>  (42) 
autodockgpu

>  <m_score__min__energy>  (42) 
-8.4900000000000002

>  <m_primary>  (42) 
energy

>  <rmsd>  (42) 
1.936573718759664

>  <m_score__min__rmsd>  (42) 
1.936573718759664

>  <meeko>  (42) 
{"free_energy": -8.18, "intermolecular_energy": -10.57, "internal_energy": -2.24, "cluster_size": 18, "cluster_id": 1, "rank_in_cluster": 6}

>  <energy>  (42) 
-7.17

>  <cluster_rmsd>  (42) 
0.0

>  <cluster>  (42) 
7

$$$$

     RDKit          3D

 53 56  0  0  0  0  0  0  0  0999 V2000
  141.0290   71.8620  221.2880 O   0  0  0  0  0  0  0  0  0  0  0  0
  140.4460   72.3440  222.2920 C   0  0  0  0  0  0  0  0  0  0  0  0
  139.9360   73.6770  222.3350 N   0  0  0  0  0  0  0  0  0  0  0  0
  140.0650   74.5810  221.1890 C   0  0  0  0  0  0  0  0  0  0  0  0
  139.7720   75.9290  221.6810 C   0  0  0  0  0  0  0  0  0  0  0  0
  138.6600   76.1410  222.2560 O   0  0  0  0  0  0  0  0  0  0  0  0
  140.6390   77.0480  221.5700 N   0  0  0  0  0  0  0  0  0  0  0  0
  141.2140   77.7060  222.7500 C   0  0  0  0  0  0  0  0  0  0  0  0
  140.9970   79.1690  222.3160 C   0  0  2  0  0  0  0  0  0  0  0  0
  139.6260   79.3290  222.1750 O   0  0  0  0  0  0  0  0  0  0  0  0
  141.6580   79.0830  220.9320 C   0  0  0  0  0  0  0  0  0  0  0  0
  141.1050   77.7580  220.4210 C   0  0  1  0  0  0  0  0  0  0  0  0
  142.1260   77.0390  219.5740 C   0  0  0  0  0  0  0  0  0  0  0  0
  142.9260   76.1260  220.1210 O   0  0  0  0  0  0  0  0  0  0  0  0
  143.5660   74.9770  219.9860 C   0  0  0  0  0  0  0  0  0  0  0  0
  144.8030   74.6140  220.4720 C   0  0  0  0  0  0  0  0  0  0  0  0
  145.3860   73.3840  220.2750 C   0  0  0  0  0  0  0  0  0  0  0  0
  144.7020   72.4430  219.5460 C   0  0  0  0  0  0  0  0  0  0  0  0
  145.4320   70.8890  219.2940 Cl  0  0  0  0  0  0  0  0  0  0  0  0
  143.4640   72.7350  219.0330 C   0  0  0  0  0  0  0  0  0  0  0  0
  142.9100   73.9650  219.2450 C   0  0  0  0  0  0  0  0  0  0  0  0
  140.2860   71.4930  223.4700 C   0  0  0  0  0  0  0  0  0  0  0  0
  139.7160   70.2500  223.3930 C   0  0  0  0  0  0  0  0  0  0  0  0
  139.5430   69.4090  224.4720 C   0  0  0  0  0  0  0  0  0  0  0  0
  139.9760   69.8640  225.6940 C   0  0  0  0  0  0  0  0  0  0  0  0
  139.8100   69.0340  226.7840 C   0  0  0  0  0  0  0  0  0  0  0  0
  140.2370   69.4690  228.0160 C   0  0  0  0  0  0  0  0  0  0  0  0
  140.0700   68.6550  229.0660 F   0  0  0  0  0  0  0  0  0  0  0  0
  140.8090   70.7130  228.1070 C   0  0  0  0  0  0  0  0  0  0  0  0
  140.9770   71.5510  227.0080 C   0  0  0  0  0  0  0  0  0  0  0  0
  140.5500   71.1140  225.7760 C   0  0  0  0  0  0  0  0  0  0  0  0
  140.7020   71.9060  224.6970 N   0  0  0  0  0  0  0  0  0  0  0  0
  139.4650   73.9850  223.2210 H   0  0  0  0  0  0  0  0  0  0  0  0
  141.0876   74.5385  220.7859 H   0  0  0  0  0  0  0  0  0  0  0  0
  139.3752   74.2962  220.3809 H   0  0  0  0  0  0  0  0  0  0  0  0
  140.6656   77.4602  223.6713 H   0  0  0  0  0  0  0  0  0  0  0  0
  142.2487   77.4274  222.9985 H   0  0  0  0  0  0  0  0  0  0  0  0
  141.3734   79.9721  222.9667 H   0  0  0  0  0  0  0  0  0  0  0  0
  139.1640   78.4640  222.1810 H   0  0  0  0  0  0  0  0  0  0  0  0
  141.3549   79.9215  220.2878 H   0  0  0  0  0  0  0  0  0  0  0  0
  142.7566   79.1356  220.9526 H   0  0  0  0  0  0  0  0  0  0  0  0
  140.2558   77.8818  219.7328 H   0  0  0  0  0  0  0  0  0  0  0  0
  141.5710   76.5330  218.7703 H   0  0  0  0  0  0  0  0  0  0  0  0
  142.8213   77.8408  219.2846 H   0  0  0  0  0  0  0  0  0  0  0  0
  145.3624   75.3586  221.0574 H   0  0  0  0  0  0  0  0  0  0  0  0
  146.3786   73.1592  220.6924 H   0  0  0  0  0  0  0  0  0  0  0  0
  142.9174   71.9785  218.4509 H   0  0  0  0  0  0  0  0  0  0  0  0
  141.9162   74.1774  218.8239 H   0  0  0  0  0  0  0  0  0  0  0  0
  139.3744   69.9003  222.4076 H   0  0  0  0  0  0  0  0  0  0  0  0
  139.0790   68.4180  224.3594 H   0  0  0  0  0  0  0  0  0  0  0  0
  139.3451   68.0437  226.6691 H   0  0  0  0  0  0  0  0  0  0  0  0
  141.1500   71.0637  229.0922 H   0  0  0  0  0  0  0  0  0  0  0  0
  141.4414   72.5416  227.1227 H   0  0  0  0  0  0  0  0  0  0  0  0
  1  2  2  0
  2  3  1  0
  3  4  1  0
  4  5  1  0
  5  6  2  0
  5  7  1  0
  7  8  1  0
  8  9  1  0
  9 10  1  0
  9 11  1  0
 11 12  1  0
 12 13  1  0
 13 14  1  0
 14 15  1  0
 15 16  2  0
 16 17  1  0
 17 18  2  0
 18 19  1  0
 18 20  1  0
 20 21  2  0
  2 22  1  0
 22 23  2  0
 23 24  1  0
 24 25  2  0
 25 26  1  0
 26 27  2  0
 27 28  1  0
 27 29  1  0
 29 30  2  0
 30 31  1  0
 31 32  2  0
 12  7  1  0
 21 15  1  0
 32 22  1  0
 31 25  1  0
  3 33  1  0
  4 34  1  0
  4 35  1  0
  8 36  1  0
  8 37  1  0
  9 38  1  1
 10 39  1  0
 11 40  1  0
 11 41  1  0
 12 42  1  6
 13 43  1  0
 13 44  1  0
 16 45  1  0
 17 46  1  0
 20 47  1  0
 21 48  1  0
 23 49  1  0
 24 50  1  0
 26 51  1  0
 29 52  1  0
 30 53  1  0
M  END
>  <smiles>  (43) 
O=C(NCC(=O)N1C[C@H](O)C[C@H]1COc1ccc(Cl)cc1)c1ccc2cc(F)ccc2n1

>  <score_type>  (43) 
oracle

>  <origin>  (43) 
autodockgpu

>  <m_score__min__energy>  (43) 
-8.4900000000000002

>  <m_primary>  (43) 
energy

>  <rmsd>  (43) 
2.8587488190471277

>  <m_score__min__rmsd>  (43) 
2.8587488190471277

>  <meeko>  (43) 
{"free_energy": -7.88, "intermolecular_energy": -10.27, "internal_energy": -2.53, "cluster_size": 15, "cluster_id": 3, "rank_in_cluster": 3}

>  <energy>  (43) 
-6.83

>  <cluster_rmsd>  (43) 
0.0

>  <cluster>  (43) 
8

$$$$

     RDKit          3D

 53 56  0  0  0  0  0  0  0  0999 V2000
  139.4990   73.3710  222.5970 O   0  0  0  0  0  0  0  0  0  0  0  0
  140.3930   72.4970  222.7250 C   0  0  0  0  0  0  0  0  0  0  0  0
  141.5190   72.3960  221.8530 N   0  0  0  0  0  0  0  0  0  0  0  0
  141.7040   73.3240  220.7340 C   0  0  0  0  0  0  0  0  0  0  0  0
  142.9930   72.9940  220.1230 C   0  0  0  0  0  0  0  0  0  0  0  0
  143.8030   72.2550  220.7630 O   0  0  0  0  0  0  0  0  0  0  0  0
  143.4310   73.4380  218.8470 N   0  0  0  0  0  0  0  0  0  0  0  0
  143.7050   72.5010  217.7500 C   0  0  0  0  0  0  0  0  0  0  0  0
  145.0200   73.1270  217.2460 C   0  0  2  0  0  0  0  0  0  0  0  0
  145.9120   73.0540  218.3060 O   0  0  0  0  0  0  0  0  0  0  0  0
  144.5210   74.5710  217.0810 C   0  0  0  0  0  0  0  0  0  0  0  0
  143.7100   74.7520  218.3600 C   0  0  1  0  0  0  0  0  0  0  0  0
  142.5100   75.6310  218.1160 C   0  0  0  0  0  0  0  0  0  0  0  0
  141.6970   75.9500  219.1220 O   0  0  0  0  0  0  0  0  0  0  0  0
  141.5060   76.6580  220.2210 C   0  0  0  0  0  0  0  0  0  0  0  0
  140.9050   76.2780  221.4020 C   0  0  0  0  0  0  0  0  0  0  0  0
  140.7520   77.0960  222.4960 C   0  0  0  0  0  0  0  0  0  0  0  0
  141.2250   78.3830  222.4240 C   0  0  0  0  0  0  0  0  0  0  0  0
  141.0360   79.4210  223.8020 Cl  0  0  0  0  0  0  0  0  0  0  0  0
  141.8350   78.8300  221.2800 C   0  0  0  0  0  0  0  0  0  0  0  0
  141.9730   77.9950  220.2090 C   0  0  0  0  0  0  0  0  0  0  0  0
  140.2660   71.5390  223.8220 C   0  0  0  0  0  0  0  0  0  0  0  0
  139.6770   70.3140  223.6500 C   0  0  0  0  0  0  0  0  0  0  0  0
  139.5330   69.3760  224.6500 C   0  0  0  0  0  0  0  0  0  0  0  0
  140.0180   69.7080  225.8920 C   0  0  0  0  0  0  0  0  0  0  0  0
  139.8820   68.7790  226.9030 C   0  0  0  0  0  0  0  0  0  0  0  0
  140.3610   69.0900  228.1540 C   0  0  0  0  0  0  0  0  0  0  0  0
  140.2230   68.1810  229.1270 F   0  0  0  0  0  0  0  0  0  0  0  0
  140.9540   70.3140  228.3400 C   0  0  0  0  0  0  0  0  0  0  0  0
  141.0910   71.2510  227.3200 C   0  0  0  0  0  0  0  0  0  0  0  0
  140.6120   70.9390  226.0690 C   0  0  0  0  0  0  0  0  0  0  0  0
  140.7330   71.8280  225.0650 N   0  0  0  0  0  0  0  0  0  0  0  0
  142.2100   71.6300  222.0450 H   0  0  0  0  0  0  0  0  0  0  0  0
  140.8938   73.1998  220.0004 H   0  0  0  0  0  0  0  0  0  0  0  0
  141.6851   74.3684  221.0786 H   0  0  0  0  0  0  0  0  0  0  0  0
  143.8462   71.4709  218.1091 H   0  0  0  0  0  0  0  0  0  0  0  0
  142.9070   72.3928  217.0007 H   0  0  0  0  0  0  0  0  0  0  0  0
  145.5029   72.6930  216.3581 H   0  0  0  0  0  0  0  0  0  0  0  0
  146.1480   73.9470  218.6350 H   0  0  0  0  0  0  0  0  0  0  0  0
  145.3577   75.2833  217.0300 H   0  0  0  0  0  0  0  0  0  0  0  0
  143.9521   74.7493  216.1566 H   0  0  0  0  0  0  0  0  0  0  0  0
  144.2573   75.2939  219.1454 H   0  0  0  0  0  0  0  0  0  0  0  0
  142.8895   76.5774  217.7035 H   0  0  0  0  0  0  0  0  0  0  0  0
  141.8738   75.0118  217.4665 H   0  0  0  0  0  0  0  0  0  0  0  0
  140.5215   75.2495  221.4738 H   0  0  0  0  0  0  0  0  0  0  0  0
  140.2614   76.7277  223.4091 H   0  0  0  0  0  0  0  0  0  0  0  0
  142.2131   79.8615  221.2254 H   0  0  0  0  0  0  0  0  0  0  0  0
  142.4658   78.3751  219.3020 H   0  0  0  0  0  0  0  0  0  0  0  0
  139.2944   70.0628  222.6497 H   0  0  0  0  0  0  0  0  0  0  0  0
  139.0513   68.4051  224.4620 H   0  0  0  0  0  0  0  0  0  0  0  0
  139.4000   67.8088  226.7121 H   0  0  0  0  0  0  0  0  0  0  0  0
  141.3380   70.5655  229.3397 H   0  0  0  0  0  0  0  0  0  0  0  0
  141.5726   72.2214  227.5105 H   0  0  0  0  0  0  0  0  0  0  0  0
  1  2  2  0
  2  3  1  0
  3  4  1  0
  4  5  1  0
  5  6  2  0
  5  7  1  0
  7  8  1  0
  8  9  1  0
  9 10  1  0
  9 11  1  0
 11 12  1  0
 12 13  1  0
 13 14  1  0
 14 15  1  0
 15 16  2  0
 16 17  1  0
 17 18  2  0
 18 19  1  0
 18 20  1  0
 20 21  2  0
  2 22  1  0
 22 23  2  0
 23 24  1  0
 24 25  2  0
 25 26  1  0
 26 27  2  0
 27 28  1  0
 27 29  1  0
 29 30  2  0
 30 31  1  0
 31 32  2  0
 12  7  1  0
 21 15  1  0
 32 22  1  0
 31 25  1  0
  3 33  1  0
  4 34  1  0
  4 35  1  0
  8 36  1  0
  8 37  1  0
  9 38  1  6
 10 39  1  0
 11 40  1  0
 11 41  1  0
 12 42  1  1
 13 43  1  0
 13 44  1  0
 16 45  1  0
 17 46  1  0
 20 47  1  0
 21 48  1  0
 23 49  1  0
 24 50  1  0
 26 51  1  0
 29 52  1  0
 30 53  1  0
M  END
>  <smiles>  (44) 
O=C(NCC(=O)N1C[C@H](O)C[C@H]1COc1ccc(Cl)cc1)c1ccc2cc(F)ccc2n1

>  <score_type>  (44) 
oracle

>  <origin>  (44) 
autodockgpu

>  <m_score__min__energy>  (44) 
-8.4900000000000002

>  <m_primary>  (44) 
energy

>  <rmsd>  (44) 
3.3291153449380264

>  <m_score__min__rmsd>  (44) 
3.3291153449380264

>  <meeko>  (44) 
{"free_energy": -8.38, "intermolecular_energy": -10.76, "internal_energy": -2.07, "cluster_size": 18, "cluster_id": 1, "rank_in_cluster": 4}

>  <energy>  (44) 
-6.76

>  <cluster_rmsd>  (44) 
0.61

>  <cluster>  (44) 
8

$$$$

     RDKit          3D

 53 56  0  0  0  0  0  0  0  0999 V2000
  141.2750   71.7850  221.3440 O   0  0  0  0  0  0  0  0  0  0  0  0
  140.6130   72.3060  222.2770 C   0  0  0  0  0  0  0  0  0  0  0  0
  140.1370   73.6520  222.2410 N   0  0  0  0  0  0  0  0  0  0  0  0
  140.3960   74.5220  221.0910 C   0  0  0  0  0  0  0  0  0  0  0  0
  140.4130   75.8960  221.5990 C   0  0  0  0  0  0  0  0  0  0  0  0
  139.8870   76.1370  222.7290 O   0  0  0  0  0  0  0  0  0  0  0  0
  140.9770   77.0110  220.9250 N   0  0  0  0  0  0  0  0  0  0  0  0
  141.0050   78.3500  221.5260 C   0  0  0  0  0  0  0  0  0  0  0  0
  140.5770   79.1590  220.2860 C   0  0  2  0  0  0  0  0  0  0  0  0
  139.3110   78.7040  219.9470 O   0  0  0  0  0  0  0  0  0  0  0  0
  141.6140   78.6040  219.2980 C   0  0  0  0  0  0  0  0  0  0  0  0
  141.5720   77.1170  219.6300 C   0  0  1  0  0  0  0  0  0  0  0  0
  142.9380   76.4940  219.4830 C   0  0  0  0  0  0  0  0  0  0  0  0
  143.1870   75.2940  220.0050 O   0  0  0  0  0  0  0  0  0  0  0  0
  143.5140   74.0310  219.7960 C   0  0  0  0  0  0  0  0  0  0  0  0
  142.8760   73.0880  219.0200 C   0  0  0  0  0  0  0  0  0  0  0  0
  143.3000   71.7890  218.8670 C   0  0  0  0  0  0  0  0  0  0  0  0
  144.4350   71.3880  219.5260 C   0  0  0  0  0  0  0  0  0  0  0  0
  144.9760   69.7500  219.3370 Cl  0  0  0  0  0  0  0  0  0  0  0  0
  145.1230   72.2730  220.3150 C   0  0  0  0  0  0  0  0  0  0  0  0
  144.6790   73.5570  220.4480 C   0  0  0  0  0  0  0  0  0  0  0  0
  140.3220   71.4900  223.4540 C   0  0  0  0  0  0  0  0  0  0  0  0
  139.6220   70.3160  223.3660 C   0  0  0  0  0  0  0  0  0  0  0  0
  139.3210   69.5100  224.4440 C   0  0  0  0  0  0  0  0  0  0  0  0
  139.7610   69.9280  225.6780 C   0  0  0  0  0  0  0  0  0  0  0  0
  139.4680   69.1320  226.7660 C   0  0  0  0  0  0  0  0  0  0  0  0
  139.8990   69.5300  228.0100 C   0  0  0  0  0  0  0  0  0  0  0  0
  139.6100   68.7500  229.0580 F   0  0  0  0  0  0  0  0  0  0  0  0
  140.6020   70.7050  228.1110 C   0  0  0  0  0  0  0  0  0  0  0  0
  140.8970   71.5080  227.0140 C   0  0  0  0  0  0  0  0  0  0  0  0
  140.4660   71.1080  225.7700 C   0  0  0  0  0  0  0  0  0  0  0  0
  140.7390   71.8680  224.6920 N   0  0  0  0  0  0  0  0  0  0  0  0
  139.5930   73.9930  223.0710 H   0  0  0  0  0  0  0  0  0  0  0  0
  141.3671   74.2730  220.6382 H   0  0  0  0  0  0  0  0  0  0  0  0
  139.6247   74.3955  220.3170 H   0  0  0  0  0  0  0  0  0  0  0  0
  140.2879   78.4487  222.3543 H   0  0  0  0  0  0  0  0  0  0  0  0
  141.9572   78.6486  221.9887 H   0  0  0  0  0  0  0  0  0  0  0  0
  140.5406   80.2558  220.3609 H   0  0  0  0  0  0  0  0  0  0  0  0
  139.0010   78.0160  220.5730 H   0  0  0  0  0  0  0  0  0  0  0  0
  141.3189   78.7928  218.2553 H   0  0  0  0  0  0  0  0  0  0  0  0
  142.6116   79.0588  219.3873 H   0  0  0  0  0  0  0  0  0  0  0  0
  140.9572   76.5358  218.9269 H   0  0  0  0  0  0  0  0  0  0  0  0
  143.1364   76.4171  218.4038 H   0  0  0  0  0  0  0  0  0  0  0  0
  143.5830   77.1624  220.0723 H   0  0  0  0  0  0  0  0  0  0  0  0
  141.9647   73.3955  218.4861 H   0  0  0  0  0  0  0  0  0  0  0  0
  142.7418   71.0867  218.2304 H   0  0  0  0  0  0  0  0  0  0  0  0
  146.0329   71.9485  220.8410 H   0  0  0  0  0  0  0  0  0  0  0  0
  145.2474   74.2500  221.0857 H   0  0  0  0  0  0  0  0  0  0  0  0
  139.2777   69.9954  222.3717 H   0  0  0  0  0  0  0  0  0  0  0  0
  138.7545   68.5750  224.3222 H   0  0  0  0  0  0  0  0  0  0  0  0
  138.9010   68.1977  226.6411 H   0  0  0  0  0  0  0  0  0  0  0  0
  140.9477   71.0261  229.1047 H   0  0  0  0  0  0  0  0  0  0  0  0
  141.4629   72.4430  227.1385 H   0  0  0  0  0  0  0  0  0  0  0  0
  1  2  2  0
  2  3  1  0
  3  4  1  0
  4  5  1  0
  5  6  2  0
  5  7  1  0
  7  8  1  0
  8  9  1  0
  9 10  1  0
  9 11  1  0
 11 12  1  0
 12 13  1  0
 13 14  1  0
 14 15  1  0
 15 16  2  0
 16 17  1  0
 17 18  2  0
 18 19  1  0
 18 20  1  0
 20 21  2  0
  2 22  1  0
 22 23  2  0
 23 24  1  0
 24 25  2  0
 25 26  1  0
 26 27  2  0
 27 28  1  0
 27 29  1  0
 29 30  2  0
 30 31  1  0
 31 32  2  0
 12  7  1  0
 21 15  1  0
 32 22  1  0
 31 25  1  0
  3 33  1  0
  4 34  1  0
  4 35  1  0
  8 36  1  0
  8 37  1  0
  9 38  1  1
 10 39  1  0
 11 40  1  0
 11 41  1  0
 12 42  1  6
 13 43  1  0
 13 44  1  0
 16 45  1  0
 17 46  1  0
 20 47  1  0
 21 48  1  0
 23 49  1  0
 24 50  1  0
 26 51  1  0
 29 52  1  0
 30 53  1  0
M  END
>  <smiles>  (45) 
O=C(NCC(=O)N1C[C@H](O)C[C@H]1COc1ccc(Cl)cc1)c1ccc2cc(F)ccc2n1

>  <score_type>  (45) 
oracle

>  <origin>  (45) 
autodockgpu

>  <m_score__min__energy>  (45) 
-8.4900000000000002

>  <m_primary>  (45) 
energy

>  <rmsd>  (45) 
2.500627127547724

>  <m_score__min__rmsd>  (45) 
2.500627127547724

>  <meeko>  (45) 
{"free_energy": -7.29, "intermolecular_energy": -9.68, "internal_energy": -2.55, "cluster_size": 15, "cluster_id": 3, "rank_in_cluster": 13}

>  <energy>  (45) 
-6.56

>  <cluster_rmsd>  (45) 
1.85

>  <cluster>  (45) 
8

$$$$

     RDKit          3D

 53 56  0  0  0  0  0  0  0  0999 V2000
  141.3000   72.1450  221.7920 O   0  0  0  0  0  0  0  0  0  0  0  0
  140.3040   72.2680  222.5480 C   0  0  0  0  0  0  0  0  0  0  0  0
  139.2600   73.2160  222.3190 N   0  0  0  0  0  0  0  0  0  0  0  0
  139.2900   74.1200  221.1660 C   0  0  0  0  0  0  0  0  0  0  0  0
  140.5560   74.8510  221.2360 C   0  0  0  0  0  0  0  0  0  0  0  0
  140.7990   75.5570  222.2640 O   0  0  0  0  0  0  0  0  0  0  0  0
  141.5630   74.8440  220.2350 N   0  0  0  0  0  0  0  0  0  0  0  0
  141.8580   73.6450  219.4380 C   0  0  0  0  0  0  0  0  0  0  0  0
  143.3970   73.7190  219.4900 C   0  0  2  0  0  0  0  0  0  0  0  0
  143.7420   73.6220  220.8300 O   0  0  0  0  0  0  0  0  0  0  0  0
  143.5590   75.1690  219.0110 C   0  0  0  0  0  0  0  0  0  0  0  0
  142.4620   75.8680  219.8060 C   0  0  1  0  0  0  0  0  0  0  0  0
  141.8460   76.9880  219.0050 C   0  0  0  0  0  0  0  0  0  0  0  0
  141.4900   78.1230  219.6030 O   0  0  0  0  0  0  0  0  0  0  0  0
  141.7050   78.9860  220.5800 C   0  0  0  0  0  0  0  0  0  0  0  0
  141.8450   80.3550  220.5110 C   0  0  0  0  0  0  0  0  0  0  0  0
  142.0690   81.1700  221.5950 C   0  0  0  0  0  0  0  0  0  0  0  0
  142.1640   80.5970  222.8380 C   0  0  0  0  0  0  0  0  0  0  0  0
  142.4470   81.6200  224.2110 Cl  0  0  0  0  0  0  0  0  0  0  0  0
  142.0340   79.2390  222.9830 C   0  0  0  0  0  0  0  0  0  0  0  0
  141.8110   78.4550  221.8890 C   0  0  0  0  0  0  0  0  0  0  0  0
  140.2160   71.3970  223.7180 C   0  0  0  0  0  0  0  0  0  0  0  0
  139.6620   70.1460  223.6490 C   0  0  0  0  0  0  0  0  0  0  0  0
  139.5550   69.2850  224.7210 C   0  0  0  0  0  0  0  0  0  0  0  0
  140.0410   69.7280  225.9280 C   0  0  0  0  0  0  0  0  0  0  0  0
  139.9420   68.8780  227.0110 C   0  0  0  0  0  0  0  0  0  0  0  0
  140.4220   69.3020  228.2280 C   0  0  0  0  0  0  0  0  0  0  0  0
  140.3200   68.4690  229.2710 F   0  0  0  0  0  0  0  0  0  0  0  0
  140.9790   70.5540  228.3100 C   0  0  0  0  0  0  0  0  0  0  0  0
  141.0790   71.4110  227.2190 C   0  0  0  0  0  0  0  0  0  0  0  0
  140.5980   70.9870  226.0020 C   0  0  0  0  0  0  0  0  0  0  0  0
  140.6840   71.7980  224.9300 N   0  0  0  0  0  0  0  0  0  0  0  0
  138.4710   73.2400  223.0100 H   0  0  0  0  0  0  0  0  0  0  0  0
  139.2367   73.5432  220.2309 H   0  0  0  0  0  0  0  0  0  0  0  0
  138.4337   74.8103  221.1827 H   0  0  0  0  0  0  0  0  0  0  0  0
  141.4698   72.7285  219.9064 H   0  0  0  0  0  0  0  0  0  0  0  0
  141.4120   73.6142  218.4330 H   0  0  0  0  0  0  0  0  0  0  0  0
  143.9789   72.9725  218.9295 H   0  0  0  0  0  0  0  0  0  0  0  0
  142.9550   73.4530  221.3890 H   0  0  0  0  0  0  0  0  0  0  0  0
  144.5536   75.5672  219.2604 H   0  0  0  0  0  0  0  0  0  0  0  0
  143.4777   75.2962  217.9214 H   0  0  0  0  0  0  0  0  0  0  0  0
  142.8406   76.3831  220.7012 H   0  0  0  0  0  0  0  0  0  0  0  0
  142.5735   77.2562  218.2247 H   0  0  0  0  0  0  0  0  0  0  0  0
  140.8843   76.5639  218.6804 H   0  0  0  0  0  0  0  0  0  0  0  0
  141.7725   80.8281  219.5206 H   0  0  0  0  0  0  0  0  0  0  0  0
  142.1699   82.2580  221.4686 H   0  0  0  0  0  0  0  0  0  0  0  0
  142.1095   78.7825  223.9809 H   0  0  0  0  0  0  0  0  0  0  0  0
  141.7096   77.3686  222.0288 H   0  0  0  0  0  0  0  0  0  0  0  0
  139.2778   69.8064  222.6759 H   0  0  0  0  0  0  0  0  0  0  0  0
  139.1011   68.2886  224.6149 H   0  0  0  0  0  0  0  0  0  0  0  0
  139.4884   67.8817  226.9029 H   0  0  0  0  0  0  0  0  0  0  0  0
  141.3637   70.8949  229.2825 H   0  0  0  0  0  0  0  0  0  0  0  0
  141.5332   72.4070  227.3271 H   0  0  0  0  0  0  0  0  0  0  0  0
  1  2  2  0
  2  3  1  0
  3  4  1  0
  4  5  1  0
  5  6  2  0
  5  7  1  0
  7  8  1  0
  8  9  1  0
  9 10  1  0
  9 11  1  0
 11 12  1  0
 12 13  1  0
 13 14  1  0
 14 15  1  0
 15 16  2  0
 16 17  1  0
 17 18  2  0
 18 19  1  0
 18 20  1  0
 20 21  2  0
  2 22  1  0
 22 23  2  0
 23 24  1  0
 24 25  2  0
 25 26  1  0
 26 27  2  0
 27 28  1  0
 27 29  1  0
 29 30  2  0
 30 31  1  0
 31 32  2  0
 12  7  1  0
 21 15  1  0
 32 22  1  0
 31 25  1  0
  3 33  1  0
  4 34  1  0
  4 35  1  0
  8 36  1  0
  8 37  1  0
  9 38  1  6
 10 39  1  0
 11 40  1  0
 11 41  1  0
 12 42  1  1
 13 43  1  0
 13 44  1  0
 16 45  1  0
 17 46  1  0
 20 47  1  0
 21 48  1  0
 23 49  1  0
 24 50  1  0
 26 51  1  0
 29 52  1  0
 30 53  1  0
M  END
>  <smiles>  (46) 
O=C(NCC(=O)N1C[C@H](O)C[C@H]1COc1ccc(Cl)cc1)c1ccc2cc(F)ccc2n1

>  <score_type>  (46) 
oracle

>  <origin>  (46) 
autodockgpu

>  <m_score__min__energy>  (46) 
-8.4900000000000002

>  <m_primary>  (46) 
energy

>  <rmsd>  (46) 
2.1256233333658465

>  <m_score__min__rmsd>  (46) 
2.1256233333658465

>  <meeko>  (46) 
{"free_energy": -8.49, "intermolecular_energy": -10.88, "internal_energy": -2.25, "cluster_size": 18, "cluster_id": 1, "rank_in_cluster": 1}

>  <energy>  (46) 
-6.55

>  <cluster_rmsd>  (46) 
0.69

>  <cluster>  (46) 
8

$$$$

     RDKit          3D

 53 56  0  0  0  0  0  0  0  0999 V2000
  136.7890   70.0240  222.2220 O   0  0  0  0  0  0  0  0  0  0  0  0
  137.4310   70.8110  222.9620 C   0  0  0  0  0  0  0  0  0  0  0  0
  137.4610   72.2240  222.7600 N   0  0  0  0  0  0  0  0  0  0  0  0
  136.7310   72.8540  221.6560 C   0  0  0  0  0  0  0  0  0  0  0  0
  137.5490   73.9780  221.1970 C   0  0  0  0  0  0  0  0  0  0  0  0
  136.9690   75.0420  220.8160 O   0  0  0  0  0  0  0  0  0  0  0  0
  138.9680   73.9870  221.1370 N   0  0  0  0  0  0  0  0  0  0  0  0
  139.7350   72.8120  220.7040 C   0  0  0  0  0  0  0  0  0  0  0  0
  140.8350   72.8560  221.7830 C   0  0  2  0  0  0  0  0  0  0  0  0
  140.1870   72.7070  223.0000 O   0  0  0  0  0  0  0  0  0  0  0  0
  141.2640   74.3190  221.5940 C   0  0  0  0  0  0  0  0  0  0  0  0
  139.9100   75.0100  221.4660 C   0  0  1  0  0  0  0  0  0  0  0  0
  139.9850   76.1670  220.5030 C   0  0  0  0  0  0  0  0  0  0  0  0
  140.8760   77.1400  220.6910 O   0  0  0  0  0  0  0  0  0  0  0  0
  141.2560   78.1840  221.4060 C   0  0  0  0  0  0  0  0  0  0  0  0
  141.5620   79.4580  220.9810 C   0  0  0  0  0  0  0  0  0  0  0  0
  141.9510   80.4830  221.8110 C   0  0  0  0  0  0  0  0  0  0  0  0
  142.0460   80.2350  223.1580 C   0  0  0  0  0  0  0  0  0  0  0  0
  142.5360   81.5250  224.2110 Cl  0  0  0  0  0  0  0  0  0  0  0  0
  141.7550   78.9900  223.6520 C   0  0  0  0  0  0  0  0  0  0  0  0
  141.3710   77.9920  222.8040 C   0  0  0  0  0  0  0  0  0  0  0  0
  138.1820   70.2460  224.0810 C   0  0  0  0  0  0  0  0  0  0  0  0
  138.1740   68.9040  224.3540 C   0  0  0  0  0  0  0  0  0  0  0  0
  138.8640   68.3210  225.3960 C   0  0  0  0  0  0  0  0  0  0  0  0
  139.6020   69.1550  226.2000 C   0  0  0  0  0  0  0  0  0  0  0  0
  140.2990   68.5860  227.2470 C   0  0  0  0  0  0  0  0  0  0  0  0
  141.0450   69.4030  228.0640 C   0  0  0  0  0  0  0  0  0  0  0  0
  141.7160   68.8400  229.0760 F   0  0  0  0  0  0  0  0  0  0  0  0
  141.0610   70.7500  227.8010 C   0  0  0  0  0  0  0  0  0  0  0  0
  140.3580   71.3240  226.7460 C   0  0  0  0  0  0  0  0  0  0  0  0
  139.6130   70.5060  225.9290 C   0  0  0  0  0  0  0  0  0  0  0  0
  138.9240   71.0370  224.9000 N   0  0  0  0  0  0  0  0  0  0  0  0
  138.0270   72.7960  223.4340 H   0  0  0  0  0  0  0  0  0  0  0  0
  136.5846   72.1330  220.8382 H   0  0  0  0  0  0  0  0  0  0  0  0
  135.7377   73.1954  221.9827 H   0  0  0  0  0  0  0  0  0  0  0  0
  139.1415   71.8871  220.7530 H   0  0  0  0  0  0  0  0  0  0  0  0
  140.0844   72.8241  219.6610 H   0  0  0  0  0  0  0  0  0  0  0  0
  141.6496   72.1185  221.7337 H   0  0  0  0  0  0  0  0  0  0  0  0
  139.7670   71.8240  223.0740 H   0  0  0  0  0  0  0  0  0  0  0  0
  141.8255   74.6902  222.4640 H   0  0  0  0  0  0  0  0  0  0  0  0
  141.9385   74.4854  220.7411 H   0  0  0  0  0  0  0  0  0  0  0  0
  139.5791   75.4873  222.4002 H   0  0  0  0  0  0  0  0  0  0  0  0
  140.1881   75.7395  219.5100 H   0  0  0  0  0  0  0  0  0  0  0  0
  139.0219   76.6778  220.6501 H   0  0  0  0  0  0  0  0  0  0  0  0
  141.4903   79.6699  219.9040 H   0  0  0  0  0  0  0  0  0  0  0  0
  142.1809   81.4791  221.4049 H   0  0  0  0  0  0  0  0  0  0  0  0
  141.8310   78.7952  224.7319 H   0  0  0  0  0  0  0  0  0  0  0  0
  141.1422   77.0008  223.2226 H   0  0  0  0  0  0  0  0  0  0  0  0
  137.5791   68.2492  223.7003 H   0  0  0  0  0  0  0  0  0  0  0  0
  138.8251   67.2364  225.5753 H   0  0  0  0  0  0  0  0  0  0  0  0
  140.2585   67.5011  227.4242 H   0  0  0  0  0  0  0  0  0  0  0  0
  141.6564   71.4054  228.4536 H   0  0  0  0  0  0  0  0  0  0  0  0
  140.3973   72.4090  226.5693 H   0  0  0  0  0  0  0  0  0  0  0  0
  1  2  2  0
  2  3  1  0
  3  4  1  0
  4  5  1  0
  5  6  2  0
  5  7  1  0
  7  8  1  0
  8  9  1  0
  9 10  1  0
  9 11  1  0
 11 12  1  0
 12 13  1  0
 13 14  1  0
 14 15  1  0
 15 16  2  0
 16 17  1  0
 17 18  2  0
 18 19  1  0
 18 20  1  0
 20 21  2  0
  2 22  1  0
 22 23  2  0
 23 24  1  0
 24 25  2  0
 25 26  1  0
 26 27  2  0
 27 28  1  0
 27 29  1  0
 29 30  2  0
 30 31  1  0
 31 32  2  0
 12  7  1  0
 21 15  1  0
 32 22  1  0
 31 25  1  0
  3 33  1  0
  4 34  1  0
  4 35  1  0
  8 36  1  0
  8 37  1  0
  9 38  1  6
 10 39  1  0
 11 40  1  0
 11 41  1  0
 12 42  1  1
 13 43  1  0
 13 44  1  0
 16 45  1  0
 17 46  1  0
 20 47  1  0
 21 48  1  0
 23 49  1  0
 24 50  1  0
 26 51  1  0
 29 52  1  0
 30 53  1  0
M  END
>  <smiles>  (47) 
O=C(NCC(=O)N1C[C@H](O)C[C@H]1COc1ccc(Cl)cc1)c1ccc2cc(F)ccc2n1

>  <score_type>  (47) 
oracle

>  <origin>  (47) 
autodockgpu

>  <m_score__min__energy>  (47) 
-8.4900000000000002

>  <m_primary>  (47) 
energy

>  <rmsd>  (47) 
2.5839685594394353

>  <m_score__min__rmsd>  (47) 
2.5839685594394353

>  <meeko>  (47) 
{"free_energy": -7.63, "intermolecular_energy": -10.01, "internal_energy": -3.12, "cluster_size": 18, "cluster_id": 1, "rank_in_cluster": 14}

>  <energy>  (47) 
-6.48

>  <cluster_rmsd>  (47) 
1.89

>  <cluster>  (47) 
8

$$$$

     RDKit          3D

 53 56  0  0  0  0  0  0  0  0999 V2000
  141.1300   72.0260  221.8710 O   0  0  0  0  0  0  0  0  0  0  0  0
  140.1430   72.1050  222.6460 C   0  0  0  0  0  0  0  0  0  0  0  0
  139.0730   73.0320  222.4580 N   0  0  0  0  0  0  0  0  0  0  0  0
  139.0610   73.9660  221.3290 C   0  0  0  0  0  0  0  0  0  0  0  0
  139.9810   75.0520  221.6720 C   0  0  0  0  0  0  0  0  0  0  0  0
  141.2010   74.7760  221.8930 O   0  0  0  0  0  0  0  0  0  0  0  0
  139.6230   76.4220  221.7850 N   0  0  0  0  0  0  0  0  0  0  0  0
  140.1890   77.4490  220.9000 C   0  0  0  0  0  0  0  0  0  0  0  0
  140.4720   78.5270  221.9630 C   0  0  2  0  0  0  0  0  0  0  0  0
  141.3790   77.9650  222.8510 O   0  0  0  0  0  0  0  0  0  0  0  0
  139.0750   78.5720  222.6010 C   0  0  0  0  0  0  0  0  0  0  0  0
  138.7450   77.0870  222.6950 C   0  0  1  0  0  0  0  0  0  0  0  0
  137.2720   76.8480  222.4770 C   0  0  0  0  0  0  0  0  0  0  0  0
  136.5100   76.4020  223.4740 O   0  0  0  0  0  0  0  0  0  0  0  0
  135.8630   75.3870  224.0180 C   0  0  0  0  0  0  0  0  0  0  0  0
  135.8220   74.0700  223.6130 C   0  0  0  0  0  0  0  0  0  0  0  0
  135.1120   73.0810  224.2520 C   0  0  0  0  0  0  0  0  0  0  0  0
  134.3900   73.4110  225.3720 C   0  0  0  0  0  0  0  0  0  0  0  0
  133.4930   72.1670  226.1830 Cl  0  0  0  0  0  0  0  0  0  0  0  0
  134.3860   74.7020  225.8330 C   0  0  0  0  0  0  0  0  0  0  0  0
  135.1000   75.6640  225.1780 C   0  0  0  0  0  0  0  0  0  0  0  0
  140.0950   71.2010  223.7930 C   0  0  0  0  0  0  0  0  0  0  0  0
  139.5390   69.9520  223.7090 C   0  0  0  0  0  0  0  0  0  0  0  0
  139.4690   69.0620  224.7600 C   0  0  0  0  0  0  0  0  0  0  0  0
  139.9960   69.4720  225.9610 C   0  0  0  0  0  0  0  0  0  0  0  0
  139.9340   68.5920  227.0220 C   0  0  0  0  0  0  0  0  0  0  0  0
  140.4550   68.9820  228.2340 C   0  0  0  0  0  0  0  0  0  0  0  0
  140.3900   68.1200  229.2560 F   0  0  0  0  0  0  0  0  0  0  0  0
  141.0150   70.2320  228.3320 C   0  0  0  0  0  0  0  0  0  0  0  0
  141.0780   71.1190  227.2620 C   0  0  0  0  0  0  0  0  0  0  0  0
  140.5560   70.7280  226.0500 C   0  0  0  0  0  0  0  0  0  0  0  0
  140.6050   71.5690  224.9990 N   0  0  0  0  0  0  0  0  0  0  0  0
  138.2940   73.0180  223.1610 H   0  0  0  0  0  0  0  0  0  0  0  0
  139.3983   73.4583  220.4133 H   0  0  0  0  0  0  0  0  0  0  0  0
  138.0470   74.3500  221.1437 H   0  0  0  0  0  0  0  0  0  0  0  0
  141.1074   77.1068  220.4006 H   0  0  0  0  0  0  0  0  0  0  0  0
  139.5531   77.7604  220.0582 H   0  0  0  0  0  0  0  0  0  0  0  0
  140.8691   79.4985  221.6335 H   0  0  0  0  0  0  0  0  0  0  0  0
  141.7080   77.1020  222.5230 H   0  0  0  0  0  0  0  0  0  0  0  0
  139.1006   79.0430  223.5947 H   0  0  0  0  0  0  0  0  0  0  0  0
  138.3393   79.1633  222.0360 H   0  0  0  0  0  0  0  0  0  0  0  0
  138.9183   76.6701  223.6981 H   0  0  0  0  0  0  0  0  0  0  0  0
  136.8404   77.8067  222.1534 H   0  0  0  0  0  0  0  0  0  0  0  0
  137.2574   76.0148  221.7590 H   0  0  0  0  0  0  0  0  0  0  0  0
  136.3966   73.7912  222.7174 H   0  0  0  0  0  0  0  0  0  0  0  0
  135.1223   72.0480  223.8741 H   0  0  0  0  0  0  0  0  0  0  0  0
  133.8072   74.9631  226.7312 H   0  0  0  0  0  0  0  0  0  0  0  0
  135.0817   76.6931  225.5662 H   0  0  0  0  0  0  0  0  0  0  0  0
  139.1214   69.6387  222.7408 H   0  0  0  0  0  0  0  0  0  0  0  0
  139.0118   68.0685  224.6422 H   0  0  0  0  0  0  0  0  0  0  0  0
  139.4772   67.5987  226.9011 H   0  0  0  0  0  0  0  0  0  0  0  0
  141.4325   70.5461  229.3000 H   0  0  0  0  0  0  0  0  0  0  0  0
  141.5355   72.1121  227.3822 H   0  0  0  0  0  0  0  0  0  0  0  0
  1  2  2  0
  2  3  1  0
  3  4  1  0
  4  5  1  0
  5  6  2  0
  5  7  1  0
  7  8  1  0
  8  9  1  0
  9 10  1  0
  9 11  1  0
 11 12  1  0
 12 13  1  0
 13 14  1  0
 14 15  1  0
 15 16  2  0
 16 17  1  0
 17 18  2  0
 18 19  1  0
 18 20  1  0
 20 21  2  0
  2 22  1  0
 22 23  2  0
 23 24  1  0
 24 25  2  0
 25 26  1  0
 26 27  2  0
 27 28  1  0
 27 29  1  0
 29 30  2  0
 30 31  1  0
 31 32  2  0
 12  7  1  0
 21 15  1  0
 32 22  1  0
 31 25  1  0
  3 33  1  0
  4 34  1  0
  4 35  1  0
  8 36  1  0
  8 37  1  0
  9 38  1  6
 10 39  1  0
 11 40  1  0
 11 41  1  0
 12 42  1  1
 13 43  1  0
 13 44  1  0
 16 45  1  0
 17 46  1  0
 20 47  1  0
 21 48  1  0
 23 49  1  0
 24 50  1  0
 26 51  1  0
 29 52  1  0
 30 53  1  0
M  END
>  <smiles>  (48) 
O=C(NCC(=O)N1C[C@H](O)C[C@H]1COc1ccc(Cl)cc1)c1ccc2cc(F)ccc2n1

>  <score_type>  (48) 
oracle

>  <origin>  (48) 
autodockgpu

>  <m_score__min__energy>  (48) 
-8.4900000000000002

>  <m_primary>  (48) 
energy

>  <rmsd>  (48) 
2.661326463869358

>  <m_score__min__rmsd>  (48) 
2.661326463869358

>  <meeko>  (48) 
{"free_energy": -8.37, "intermolecular_energy": -10.76, "internal_energy": -1.81, "cluster_size": 4, "cluster_id": 2, "rank_in_cluster": 1}

>  <energy>  (48) 
-6.41

>  <cluster_rmsd>  (48) 
0.76

>  <cluster>  (48) 
8

$$$$

     RDKit          3D

 53 56  0  0  0  0  0  0  0  0999 V2000
  137.9630   71.0390  221.8920 O   0  0  0  0  0  0  0  0  0  0  0  0
  138.7340   71.4990  222.7730 C   0  0  0  0  0  0  0  0  0  0  0  0
  139.3030   72.8070  222.7080 N   0  0  0  0  0  0  0  0  0  0  0  0
  139.0180   73.7090  221.5890 C   0  0  0  0  0  0  0  0  0  0  0  0
  139.9620   74.8230  221.6970 C   0  0  0  0  0  0  0  0  0  0  0  0
  141.1800   74.5710  221.9520 O   0  0  0  0  0  0  0  0  0  0  0  0
  139.6300   76.1950  221.5380 N   0  0  0  0  0  0  0  0  0  0  0  0
  140.1780   77.0060  220.4440 C   0  0  0  0  0  0  0  0  0  0  0  0
  140.5160   78.2730  221.2550 C   0  0  2  0  0  0  0  0  0  0  0  0
  141.4460   77.8830  222.2080 O   0  0  0  0  0  0  0  0  0  0  0  0
  139.1450   78.4780  221.9150 C   0  0  0  0  0  0  0  0  0  0  0  0
  138.7950   77.0510  222.3210 C   0  0  1  0  0  0  0  0  0  0  0  0
  137.3120   76.8060  222.2050 C   0  0  0  0  0  0  0  0  0  0  0  0
  136.6240   76.3440  223.2480 O   0  0  0  0  0  0  0  0  0  0  0  0
  136.0080   75.3220  223.8160 C   0  0  0  0  0  0  0  0  0  0  0  0
  135.9410   74.0110  223.3990 C   0  0  0  0  0  0  0  0  0  0  0  0
  135.2680   73.0150  224.0660 C   0  0  0  0  0  0  0  0  0  0  0  0
  134.6130   73.3320  225.2290 C   0  0  0  0  0  0  0  0  0  0  0  0
  133.7610   72.0790  226.0760 Cl  0  0  0  0  0  0  0  0  0  0  0  0
  134.6370   74.6180  225.7060 C   0  0  0  0  0  0  0  0  0  0  0  0
  135.3140   75.5860  225.0220 C   0  0  0  0  0  0  0  0  0  0  0  0
  139.0590   70.6470  223.9150 C   0  0  0  0  0  0  0  0  0  0  0  0
  138.6390   69.3460  223.9920 C   0  0  0  0  0  0  0  0  0  0  0  0
  138.9180   68.5020  225.0450 C   0  0  0  0  0  0  0  0  0  0  0  0
  139.6670   69.0160  226.0760 C   0  0  0  0  0  0  0  0  0  0  0  0
  139.9560   68.1840  227.1380 C   0  0  0  0  0  0  0  0  0  0  0  0
  140.7050   68.6780  228.1800 C   0  0  0  0  0  0  0  0  0  0  0  0
  140.9790   67.8610  229.2040 F   0  0  0  0  0  0  0  0  0  0  0  0
  141.1320   69.9810  228.1160 C   0  0  0  0  0  0  0  0  0  0  0  0
  140.8410   70.8210  227.0450 C   0  0  0  0  0  0  0  0  0  0  0  0
  140.0920   70.3250  226.0030 C   0  0  0  0  0  0  0  0  0  0  0  0
  139.7980   71.1180  224.9550 N   0  0  0  0  0  0  0  0  0  0  0  0
  139.9340   73.0970  223.4940 H   0  0  0  0  0  0  0  0  0  0  0  0
  139.1591   73.1836  220.6329 H   0  0  0  0  0  0  0  0  0  0  0  0
  137.9782   74.0662  221.6231 H   0  0  0  0  0  0  0  0  0  0  0  0
  141.0723   76.5488  219.9955 H   0  0  0  0  0  0  0  0  0  0  0  0
  139.5167   77.1529  219.5774 H   0  0  0  0  0  0  0  0  0  0  0  0
  140.9151   79.1483  220.7216 H   0  0  0  0  0  0  0  0  0  0  0  0
  141.7670   76.9730  222.0400 H   0  0  0  0  0  0  0  0  0  0  0  0
  139.2141   79.1406  222.7903 H   0  0  0  0  0  0  0  0  0  0  0  0
  138.3986   78.9583  221.2652 H   0  0  0  0  0  0  0  0  0  0  0  0
  138.9973   76.8429  223.3820 H   0  0  0  0  0  0  0  0  0  0  0  0
  136.8539   77.7658  221.9241 H   0  0  0  0  0  0  0  0  0  0  0  0
  137.2511   75.9808  221.4802 H   0  0  0  0  0  0  0  0  0  0  0  0
  136.4619   73.7425  222.4681 H   0  0  0  0  0  0  0  0  0  0  0  0
  135.2550   71.9866  223.6758 H   0  0  0  0  0  0  0  0  0  0  0  0
  134.1111   74.8689  226.6390 H   0  0  0  0  0  0  0  0  0  0  0  0
  135.3208   76.6103  225.4228 H   0  0  0  0  0  0  0  0  0  0  0  0
  138.0400   68.9488  223.1593 H   0  0  0  0  0  0  0  0  0  0  0  0
  138.5571   67.4630  225.0596 H   0  0  0  0  0  0  0  0  0  0  0  0
  139.5941   67.1453  227.1509 H   0  0  0  0  0  0  0  0  0  0  0  0
  141.7309   70.3791  228.9483 H   0  0  0  0  0  0  0  0  0  0  0  0
  141.2024   71.8599  227.0320 H   0  0  0  0  0  0  0  0  0  0  0  0
  1  2  2  0
  2  3  1  0
  3  4  1  0
  4  5  1  0
  5  6  2  0
  5  7  1  0
  7  8  1  0
  8  9  1  0
  9 10  1  0
  9 11  1  0
 11 12  1  0
 12 13  1  0
 13 14  1  0
 14 15  1  0
 15 16  2  0
 16 17  1  0
 17 18  2  0
 18 19  1  0
 18 20  1  0
 20 21  2  0
  2 22  1  0
 22 23  2  0
 23 24  1  0
 24 25  2  0
 25 26  1  0
 26 27  2  0
 27 28  1  0
 27 29  1  0
 29 30  2  0
 30 31  1  0
 31 32  2  0
 12  7  1  0
 21 15  1  0
 32 22  1  0
 31 25  1  0
  3 33  1  0
  4 34  1  0
  4 35  1  0
  8 36  1  0
  8 37  1  0
  9 38  1  6
 10 39  1  0
 11 40  1  0
 11 41  1  0
 12 42  1  1
 13 43  1  0
 13 44  1  0
 16 45  1  0
 17 46  1  0
 20 47  1  0
 21 48  1  0
 23 49  1  0
 24 50  1  0
 26 51  1  0
 29 52  1  0
 30 53  1  0
M  END
>  <smiles>  (49) 
O=C(NCC(=O)N1C[C@H](O)C[C@H]1COc1ccc(Cl)cc1)c1ccc2cc(F)ccc2n1

>  <score_type>  (49) 
oracle

>  <origin>  (49) 
autodockgpu

>  <m_score__min__energy>  (49) 
-8.4900000000000002

>  <m_primary>  (49) 
energy

>  <rmsd>  (49) 
2.313136978781062

>  <m_score__min__rmsd>  (49) 
2.313136978781062

>  <meeko>  (49) 
{"free_energy": -7.65, "intermolecular_energy": -10.04, "internal_energy": -2.63, "cluster_size": 4, "cluster_id": 2, "rank_in_cluster": 3}

>  <energy>  (49) 
-6.5

>  <cluster_rmsd>  (49) 
0.0

>  <cluster>  (49) 
9

$$$$

     RDKit          3D

 53 56  0  0  0  0  0  0  0  0999 V2000
  139.8530   74.7820  222.0940 O   0  0  0  0  0  0  0  0  0  0  0  0
  140.5960   75.7810  221.9200 C   0  0  0  0  0  0  0  0  0  0  0  0
  141.8270   75.7250  221.1990 N   0  0  0  0  0  0  0  0  0  0  0  0
  142.3080   74.4740  220.6070 C   0  0  0  0  0  0  0  0  0  0  0  0
  143.4110   74.8290  219.7120 C   0  0  0  0  0  0  0  0  0  0  0  0
  144.0780   75.8830  219.9510 O   0  0  0  0  0  0  0  0  0  0  0  0
  143.8130   74.0830  218.5720 N   0  0  0  0  0  0  0  0  0  0  0  0
  143.9520   72.6220  218.6080 C   0  0  0  0  0  0  0  0  0  0  0  0
  145.2830   72.5070  217.8400 C   0  0  2  0  0  0  0  0  0  0  0  0
  146.2230   73.1960  218.5920 O   0  0  0  0  0  0  0  0  0  0  0  0
  144.8910   73.3340  216.6060 C   0  0  0  0  0  0  0  0  0  0  0  0
  144.1680   74.5090  217.2550 C   0  0  1  0  0  0  0  0  0  0  0  0
  143.0290   74.9850  216.3890 C   0  0  0  0  0  0  0  0  0  0  0  0
  142.2500   75.9860  216.7970 O   0  0  0  0  0  0  0  0  0  0  0  0
  142.1240   77.0740  217.5350 C   0  0  0  0  0  0  0  0  0  0  0  0
  142.8540   78.2420  217.4870 C   0  0  0  0  0  0  0  0  0  0  0  0
  142.6440   79.3250  218.3070 C   0  0  0  0  0  0  0  0  0  0  0  0
  141.6430   79.2540  219.2430 C   0  0  0  0  0  0  0  0  0  0  0  0
  141.3720   80.6190  220.2820 Cl  0  0  0  0  0  0  0  0  0  0  0  0
  140.8750   78.1230  219.3480 C   0  0  0  0  0  0  0  0  0  0  0  0
  141.1070   77.0620  218.5200 C   0  0  0  0  0  0  0  0  0  0  0  0
  140.1720   77.0600  222.4880 C   0  0  0  0  0  0  0  0  0  0  0  0
  141.0700   77.9540  223.0080 C   0  0  0  0  0  0  0  0  0  0  0  0
  140.7240   79.1710  223.5540 C   0  0  0  0  0  0  0  0  0  0  0  0
  139.3870   79.4920  223.5680 C   0  0  0  0  0  0  0  0  0  0  0  0
  139.0240   80.7070  224.1110 C   0  0  0  0  0  0  0  0  0  0  0  0
  137.6920   81.0480  224.1350 C   0  0  0  0  0  0  0  0  0  0  0  0
  137.3520   82.2300  224.6640 F   0  0  0  0  0  0  0  0  0  0  0  0
  136.7820   80.1600  223.6170 C   0  0  0  0  0  0  0  0  0  0  0  0
  137.1480   78.9340  223.0690 C   0  0  0  0  0  0  0  0  0  0  0  0
  138.4800   78.5950  223.0460 C   0  0  0  0  0  0  0  0  0  0  0  0
  138.8600   77.4140  222.5210 N   0  0  0  0  0  0  0  0  0  0  0  0
  142.3740   76.6150  221.1100 H   0  0  0  0  0  0  0  0  0  0  0  0
  142.6631   73.7936  221.3950 H   0  0  0  0  0  0  0  0  0  0  0  0
  141.5039   73.9604  220.0596 H   0  0  0  0  0  0  0  0  0  0  0  0
  144.0306   72.2373  219.6355 H   0  0  0  0  0  0  0  0  0  0  0  0
  143.1085   72.0491  218.1953 H   0  0  0  0  0  0  0  0  0  0  0  0
  145.6816   71.5044  217.6256 H   0  0  0  0  0  0  0  0  0  0  0  0
  145.9340   74.1160  218.7660 H   0  0  0  0  0  0  0  0  0  0  0  0
  145.7771   73.6659  216.0450 H   0  0  0  0  0  0  0  0  0  0  0  0
  144.2884   72.7852  215.8673 H   0  0  0  0  0  0  0  0  0  0  0  0
  144.7984   75.4056  217.3483 H   0  0  0  0  0  0  0  0  0  0  0  0
  143.4691   75.2968  215.4303 H   0  0  0  0  0  0  0  0  0  0  0  0
  142.3452   74.1235  216.3783 H   0  0  0  0  0  0  0  0  0  0  0  0
  143.6598   78.3124  216.7415 H   0  0  0  0  0  0  0  0  0  0  0  0
  143.2646   80.2286  218.2150 H   0  0  0  0  0  0  0  0  0  0  0  0
  140.0726   78.0703  220.0986 H   0  0  0  0  0  0  0  0  0  0  0  0
  140.4799   76.1640  218.6222 H   0  0  0  0  0  0  0  0  0  0  0  0
  142.1359   77.6831  222.9885 H   0  0  0  0  0  0  0  0  0  0  0  0
  141.4834   79.8551  223.9605 H   0  0  0  0  0  0  0  0  0  0  0  0
  139.7851   81.3897  224.5168 H   0  0  0  0  0  0  0  0  0  0  0  0
  135.7157   80.4296  223.6359 H   0  0  0  0  0  0  0  0  0  0  0  0
  136.3875   78.2508  222.6629 H   0  0  0  0  0  0  0  0  0  0  0  0
  1  2  2  0
  2  3  1  0
  3  4  1  0
  4  5  1  0
  5  6  2  0
  5  7  1  0
  7  8  1  0
  8  9  1  0
  9 10  1  0
  9 11  1  0
 11 12  1  0
 12 13  1  0
 13 14  1  0
 14 15  1  0
 15 16  2  0
 16 17  1  0
 17 18  2  0
 18 19  1  0
 18 20  1  0
 20 21  2  0
  2 22  1  0
 22 23  2  0
 23 24  1  0
 24 25  2  0
 25 26  1  0
 26 27  2  0
 27 28  1  0
 27 29  1  0
 29 30  2  0
 30 31  1  0
 31 32  2  0
 12  7  1  0
 21 15  1  0
 32 22  1  0
 31 25  1  0
  3 33  1  0
  4 34  1  0
  4 35  1  0
  8 36  1  0
  8 37  1  0
  9 38  1  6
 10 39  1  0
 11 40  1  0
 11 41  1  0
 12 42  1  1
 13 43  1  0
 13 44  1  0
 16 45  1  0
 17 46  1  0
 20 47  1  0
 21 48  1  0
 23 49  1  0
 24 50  1  0
 26 51  1  0
 29 52  1  0
 30 53  1  0
M  END
>  <smiles>  (50) 
O=C(NCC(=O)N1C[C@H](O)C[C@H]1COc1ccc(Cl)cc1)c1ccc2cc(F)ccc2n1

>  <score_type>  (50) 
oracle

>  <origin>  (50) 
autodockgpu

>  <m_score__min__energy>  (50) 
-8.4900000000000002

>  <m_primary>  (50) 
energy

>  <rmsd>  (50) 
8.147644277782979

>  <m_score__min__rmsd>  (50) 
8.147644277782979

>  <meeko>  (50) 
{"free_energy": -6.76, "intermolecular_energy": -9.15, "internal_energy": -3.25, "cluster_size": 6, "cluster_id": 8, "rank_in_cluster": 2}

>  <energy>  (50) 
-6.2

>  <cluster_rmsd>  (50) 
0.0

>  <cluster>  (50) 
10

$$$$
