
     RDKit          3D

 52 56  0  0  0  0  0  0  0  0999 V2000
  142.3880   74.5050  218.7790 O   0  0  0  0  0  0  0  0  0  0  0  0
  141.7150   74.5360  219.8450 C   0  0  0  0  0  0  0  0  0  0  0  0
  141.6350   75.7560  220.4730 C   0  0  0  0  0  0  0  0  0  0  0  0
  142.2510   76.8680  219.9750 C   0  0  0  0  0  0  0  0  0  0  0  0
  142.1150   78.0460  220.6710 C   0  0  0  0  0  0  0  0  0  0  0  0
  141.3790   78.0910  221.8340 C   0  0  0  0  0  0  0  0  0  0  0  0
  140.7420   76.9640  222.3580 C   0  0  0  0  0  0  0  0  0  0  0  0
  140.9040   75.8060  221.6290 C   0  0  0  0  0  0  0  0  0  0  0  0
  140.3290   74.7020  222.0670 N   0  0  0  0  0  0  0  0  0  0  0  0
  140.3890   73.4690  221.4670 C   0  0  0  0  0  0  0  0  0  0  0  0
  139.6640   72.4330  222.1340 C   0  0  0  0  0  0  0  0  0  0  0  0
  139.9670   71.2240  222.4390 C   0  0  0  0  0  0  0  0  0  0  0  0
  140.1450   70.8150  223.8590 C   0  0  0  0  0  0  0  0  0  0  0  0
  139.9140   69.6080  224.3930 N   0  0  0  0  0  0  0  0  0  0  0  0
  140.1840   69.6000  225.7090 C   0  0  0  0  0  0  0  0  0  0  0  0
  140.1320   68.6720  226.7300 C   0  0  0  0  0  0  0  0  0  0  0  0
  140.4930   69.0110  228.0180 C   0  0  0  0  0  0  0  0  0  0  0  0
  140.9240   70.3000  228.3450 C   0  0  0  0  0  0  0  0  0  0  0  0
  140.9690   71.2170  227.3070 C   0  0  0  0  0  0  0  0  0  0  0  0
  140.6070   70.8750  226.0180 C   0  0  0  0  0  0  0  0  0  0  0  0
  140.5700   71.5820  224.8760 N   0  0  0  0  0  0  0  0  0  0  0  0
  141.0990   73.4120  220.3420 N   0  0  0  0  0  0  0  0  0  0  0  0
  141.2540   72.2190  219.5840 C   0  0  0  0  0  0  0  0  0  0  0  0
  142.3940   71.3600  220.0350 C   0  0  0  0  0  0  0  0  0  0  0  0
  143.3750   71.1580  218.8860 C   0  0  0  0  0  0  0  0  0  0  0  0
  144.7660   71.0050  219.4150 C   0  0  0  0  0  0  0  0  0  0  0  0
  145.2910   72.1450  220.1030 N   0  0  0  0  0  0  0  0  0  0  0  0
  144.2350   72.8890  220.7590 C   0  0  0  0  0  0  0  0  0  0  0  0
  143.1940   71.8570  221.1870 C   0  0  0  0  0  0  0  0  0  0  0  0
  142.8379   76.8229  219.0458 H   0  0  0  0  0  0  0  0  0  0  0  0
  142.5982   78.9601  220.2957 H   0  0  0  0  0  0  0  0  0  0  0  0
  141.2897   79.0480  222.3689 H   0  0  0  0  0  0  0  0  0  0  0  0
  140.1530   76.9983  223.2864 H   0  0  0  0  0  0  0  0  0  0  0  0
  138.6516   72.7293  222.4458 H   0  0  0  0  0  0  0  0  0  0  0  0
  140.0970   70.4794  221.6398 H   0  0  0  0  0  0  0  0  0  0  0  0
  139.7977   67.6467  226.5134 H   0  0  0  0  0  0  0  0  0  0  0  0
  140.4403   68.2472  228.8078 H   0  0  0  0  0  0  0  0  0  0  0  0
  141.2120   70.5718  229.3712 H   0  0  0  0  0  0  0  0  0  0  0  0
  141.3018   72.2447  227.5147 H   0  0  0  0  0  0  0  0  0  0  0  0
  140.8320   72.5990  224.7540 H   0  0  0  0  0  0  0  0  0  0  0  0
  140.3260   71.6340  219.6646 H   0  0  0  0  0  0  0  0  0  0  0  0
  141.4718   72.5230  218.5495 H   0  0  0  0  0  0  0  0  0  0  0  0
  141.8951   70.4383  220.3689 H   0  0  0  0  0  0  0  0  0  0  0  0
  143.0975   70.2526  218.3263 H   0  0  0  0  0  0  0  0  0  0  0  0
  143.3374   72.0354  218.2236 H   0  0  0  0  0  0  0  0  0  0  0  0
  144.7718   70.1551  220.1133 H   0  0  0  0  0  0  0  0  0  0  0  0
  145.4101   70.8594  218.5352 H   0  0  0  0  0  0  0  0  0  0  0  0
  145.9670   71.8810  220.8570 H   0  0  0  0  0  0  0  0  0  0  0  0
  144.6306   73.4195  221.6377 H   0  0  0  0  0  0  0  0  0  0  0  0
  143.7999   73.6453  220.0892 H   0  0  0  0  0  0  0  0  0  0  0  0
  143.7098   71.0054  221.6547 H   0  0  0  0  0  0  0  0  0  0  0  0
  142.5054   72.3427  221.8940 H   0  0  0  0  0  0  0  0  0  0  0  0
  1  2  2  0
  2  3  1  0
  3  4  2  0
  4  5  1  0
  5  6  2  0
  6  7  1  0
  7  8  2  0
  8  9  1  0
  9 10  2  0
 10 11  1  0
 11 12  2  0
 12 13  1  0
 13 14  2  0
 14 15  1  0
 15 16  2  0
 16 17  1  0
 17 18  2  0
 18 19  1  0
 19 20  2  0
 20 21  1  0
 10 22  1  0
 22 23  1  0
 23 24  1  0
 24 25  1  0
 25 26  1  0
 26 27  1  0
 27 28  1  0
 28 29  1  0
 22  2  1  0
 29 24  1  0
  8  3  1  0
 21 13  1  0
 20 15  1  0
  4 30  1  0
  5 31  1  0
  6 32  1  0
  7 33  1  0
 11 34  1  0
 12 35  1  0
 16 36  1  0
 17 37  1  0
 18 38  1  0
 19 39  1  0
 21 40  1  0
 23 41  1  0
 23 42  1  0
 24 43  1  0
 25 44  1  0
 25 45  1  0
 26 46  1  0
 26 47  1  0
 27 48  1  0
 28 49  1  0
 28 50  1  0
 29 51  1  0
 29 52  1  0
M  END
>  <smiles>  (1) 
O=c1c2ccccc2nc(/C=C/c2nc3ccccc3[nH]2)n1CC1CCNCC1

>  <score_type>  (1) 
oracle

>  <origin>  (1) 
autodockgpu

>  <m_score__min__energy>  (1) 
-9.1300000000000008

>  <m_primary>  (1) 
energy

>  <rmsd>  (1) 
8.182330816466866

>  <m_score__min__rmsd>  (1) 
8.182330816466866

>  <meeko>  (1) 
{"free_energy": -8.06, "intermolecular_energy": -9.55, "internal_energy": -1.27, "cluster_size": 17, "cluster_id": 2, "rank_in_cluster": 17}

>  <energy>  (1) 
-9.13

>  <cluster_rmsd>  (1) 
0.0

>  <cluster>  (1) 
1

$$$$

     RDKit          3D

 52 56  0  0  0  0  0  0  0  0999 V2000
  139.0930   67.8260  225.2330 O   0  0  0  0  0  0  0  0  0  0  0  0
  139.4490   69.0170  225.0210 C   0  0  0  0  0  0  0  0  0  0  0  0
  140.0040   69.6790  226.0890 C   0  0  0  0  0  0  0  0  0  0  0  0
  140.1570   69.0870  227.3090 C   0  0  0  0  0  0  0  0  0  0  0  0
  140.7220   69.8280  228.3200 C   0  0  0  0  0  0  0  0  0  0  0  0
  141.1190   71.1280  228.0970 C   0  0  0  0  0  0  0  0  0  0  0  0
  140.9710   71.7500  226.8550 C   0  0  0  0  0  0  0  0  0  0  0  0
  140.4000   70.9720  225.8720 C   0  0  0  0  0  0  0  0  0  0  0  0
  140.2300   71.4980  224.6740 N   0  0  0  0  0  0  0  0  0  0  0  0
  139.6790   70.8650  223.5880 C   0  0  0  0  0  0  0  0  0  0  0  0
  139.6220   71.6500  222.3930 C   0  0  0  0  0  0  0  0  0  0  0  0
  140.4630   72.4450  221.8400 C   0  0  0  0  0  0  0  0  0  0  0  0
  140.2920   73.9210  221.9250 C   0  0  0  0  0  0  0  0  0  0  0  0
  141.1850   74.8640  221.5960 N   0  0  0  0  0  0  0  0  0  0  0  0
  140.6870   76.0960  221.8020 C   0  0  0  0  0  0  0  0  0  0  0  0
  141.1410   77.3900  221.6460 C   0  0  0  0  0  0  0  0  0  0  0  0
  140.3400   78.4670  221.9670 C   0  0  0  0  0  0  0  0  0  0  0  0
  139.0430   78.2970  222.4600 C   0  0  0  0  0  0  0  0  0  0  0  0
  138.6070   76.9900  222.6100 C   0  0  0  0  0  0  0  0  0  0  0  0
  139.4110   75.9130  222.2880 C   0  0  0  0  0  0  0  0  0  0  0  0
  139.2050   74.5870  222.3490 N   0  0  0  0  0  0  0  0  0  0  0  0
  139.2910   69.6080  223.7910 N   0  0  0  0  0  0  0  0  0  0  0  0
  138.7140   68.8020  222.7710 C   0  0  0  0  0  0  0  0  0  0  0  0
  137.2910   69.1480  222.4590 C   0  0  0  0  0  0  0  0  0  0  0  0
  136.4610   67.8740  222.3500 C   0  0  0  0  0  0  0  0  0  0  0  0
  135.0550   68.1340  222.7870 C   0  0  0  0  0  0  0  0  0  0  0  0
  134.8970   68.5170  224.1560 N   0  0  0  0  0  0  0  0  0  0  0  0
  136.0570   69.2430  224.6310 C   0  0  0  0  0  0  0  0  0  0  0  0
  136.5860   70.0260  223.4310 C   0  0  0  0  0  0  0  0  0  0  0  0
  139.8378   68.0480  227.4785 H   0  0  0  0  0  0  0  0  0  0  0  0
  140.8581   69.3791  229.3150 H   0  0  0  0  0  0  0  0  0  0  0  0
  141.5680   71.6958  228.9253 H   0  0  0  0  0  0  0  0  0  0  0  0
  141.2880   72.7878  226.6747 H   0  0  0  0  0  0  0  0  0  0  0  0
  138.6745   71.5530  221.8427 H   0  0  0  0  0  0  0  0  0  0  0  0
  141.3234   72.0297  221.2948 H   0  0  0  0  0  0  0  0  0  0  0  0
  142.1561   77.5654  221.2602 H   0  0  0  0  0  0  0  0  0  0  0  0
  140.7323   79.4857  221.8314 H   0  0  0  0  0  0  0  0  0  0  0  0
  138.4029   79.1544  222.7152 H   0  0  0  0  0  0  0  0  0  0  0  0
  137.5936   76.8049  222.9958 H   0  0  0  0  0  0  0  0  0  0  0  0
  138.3280   74.0980  222.6780 H   0  0  0  0  0  0  0  0  0  0  0  0
  139.3095   68.9241  221.8542 H   0  0  0  0  0  0  0  0  0  0  0  0
  138.7178   67.7661  223.1411 H   0  0  0  0  0  0  0  0  0  0  0  0
  137.3719   69.7145  221.5196 H   0  0  0  0  0  0  0  0  0  0  0  0
  136.4589   67.5301  221.3051 H   0  0  0  0  0  0  0  0  0  0  0  0
  136.9013   67.1025  222.9988 H   0  0  0  0  0  0  0  0  0  0  0  0
  134.6490   68.9415  222.1601 H   0  0  0  0  0  0  0  0  0  0  0  0
  134.5227   67.1776  222.6774 H   0  0  0  0  0  0  0  0  0  0  0  0
  134.0800   69.1550  224.3030 H   0  0  0  0  0  0  0  0  0  0  0  0
  135.7718   69.9311  225.4404 H   0  0  0  0  0  0  0  0  0  0  0  0
  136.8203   68.5617  225.0350 H   0  0  0  0  0  0  0  0  0  0  0  0
  135.7397   70.5110  222.9225 H   0  0  0  0  0  0  0  0  0  0  0  0
  137.3068   70.7696  223.8018 H   0  0  0  0  0  0  0  0  0  0  0  0
  1  2  2  0
  2  3  1  0
  3  4  2  0
  4  5  1  0
  5  6  2  0
  6  7  1  0
  7  8  2  0
  8  9  1  0
  9 10  2  0
 10 11  1  0
 11 12  2  0
 12 13  1  0
 13 14  2  0
 14 15  1  0
 15 16  2  0
 16 17  1  0
 17 18  2  0
 18 19  1  0
 19 20  2  0
 20 21  1  0
 10 22  1  0
 22 23  1  0
 23 24  1  0
 24 25  1  0
 25 26  1  0
 26 27  1  0
 27 28  1  0
 28 29  1  0
 22  2  1  0
 29 24  1  0
  8  3  1  0
 21 13  1  0
 20 15  1  0
  4 30  1  0
  5 31  1  0
  6 32  1  0
  7 33  1  0
 11 34  1  0
 12 35  1  0
 16 36  1  0
 17 37  1  0
 18 38  1  0
 19 39  1  0
 21 40  1  0
 23 41  1  0
 23 42  1  0
 24 43  1  0
 25 44  1  0
 25 45  1  0
 26 46  1  0
 26 47  1  0
 27 48  1  0
 28 49  1  0
 28 50  1  0
 29 51  1  0
 29 52  1  0
M  END
>  <smiles>  (2) 
O=c1c2ccccc2nc(/C=C/c2nc3ccccc3[nH]2)n1CC1CCNCC1

>  <score_type>  (2) 
oracle

>  <origin>  (2) 
autodockgpu

>  <m_score__min__energy>  (2) 
-9.1300000000000008

>  <m_primary>  (2) 
energy

>  <rmsd>  (2) 
12.22465371615984

>  <m_score__min__rmsd>  (2) 
12.22465371615984

>  <meeko>  (2) 
{"free_energy": -9.1, "intermolecular_energy": -10.59, "internal_energy": -1.17, "cluster_size": 30, "cluster_id": 1, "rank_in_cluster": 2}

>  <energy>  (2) 
-9.1

>  <cluster_rmsd>  (2) 
0.2

>  <cluster>  (2) 
1

$$$$

     RDKit          3D

 52 56  0  0  0  0  0  0  0  0999 V2000
  142.6760   75.0670  218.6320 O   0  0  0  0  0  0  0  0  0  0  0  0
  142.0560   74.8480  219.7080 C   0  0  0  0  0  0  0  0  0  0  0  0
  141.7530   75.9550  220.4640 C   0  0  0  0  0  0  0  0  0  0  0  0
  142.1070   77.2160  220.0770 C   0  0  0  0  0  0  0  0  0  0  0  0
  141.7610   78.2630  220.8980 C   0  0  0  0  0  0  0  0  0  0  0  0
  141.0800   78.0360  222.0740 C   0  0  0  0  0  0  0  0  0  0  0  0
  140.7100   76.7530  222.4850 C   0  0  0  0  0  0  0  0  0  0  0  0
  141.0760   75.7340  221.6340 C   0  0  0  0  0  0  0  0  0  0  0  0
  140.7580   74.4960  221.9610 N   0  0  0  0  0  0  0  0  0  0  0  0
  141.0450   73.3700  221.2310 C   0  0  0  0  0  0  0  0  0  0  0  0
  140.5760   72.1440  221.7960 C   0  0  0  0  0  0  0  0  0  0  0  0
  139.6160   71.8760  222.6040 C   0  0  0  0  0  0  0  0  0  0  0  0
  139.8680   71.1590  223.8840 C   0  0  0  0  0  0  0  0  0  0  0  0
  139.5330   69.8990  224.1900 N   0  0  0  0  0  0  0  0  0  0  0  0
  139.9200   69.5840  225.4390 C   0  0  0  0  0  0  0  0  0  0  0  0
  139.8420   68.4720  226.2540 C   0  0  0  0  0  0  0  0  0  0  0  0
  140.3610   68.4910  227.5310 C   0  0  0  0  0  0  0  0  0  0  0  0
  140.9850   69.6270  228.0550 C   0  0  0  0  0  0  0  0  0  0  0  0
  141.0520   70.7320  227.2220 C   0  0  0  0  0  0  0  0  0  0  0  0
  140.5320   70.7120  225.9420 C   0  0  0  0  0  0  0  0  0  0  0  0
  140.4820   71.6440  224.9750 N   0  0  0  0  0  0  0  0  0  0  0  0
  141.7040   73.5770  220.0920 N   0  0  0  0  0  0  0  0  0  0  0  0
  142.0700   72.5250  219.2080 C   0  0  0  0  0  0  0  0  0  0  0  0
  143.0950   71.5900  219.7700 C   0  0  0  0  0  0  0  0  0  0  0  0
  144.0150   71.1020  218.6580 C   0  0  0  0  0  0  0  0  0  0  0  0
  145.3840   70.8380  219.1990 C   0  0  0  0  0  0  0  0  0  0  0  0
  146.0700   71.9790  219.7210 N   0  0  0  0  0  0  0  0  0  0  0  0
  145.1380   72.9410  220.2700 C   0  0  0  0  0  0  0  0  0  0  0  0
  143.9770   72.1280  220.8400 C   0  0  0  0  0  0  0  0  0  0  0  0
  142.6522   77.3886  219.1373 H   0  0  0  0  0  0  0  0  0  0  0  0
  142.0302   79.2909  220.6135 H   0  0  0  0  0  0  0  0  0  0  0  0
  140.8188   78.8940  222.7109 H   0  0  0  0  0  0  0  0  0  0  0  0
  140.1646   76.5696  223.4225 H   0  0  0  0  0  0  0  0  0  0  0  0
  141.1479   71.2602  221.4769 H   0  0  0  0  0  0  0  0  0  0  0  0
  138.5908   72.1808  222.3469 H   0  0  0  0  0  0  0  0  0  0  0  0
  139.3588   67.5578  225.8788 H   0  0  0  0  0  0  0  0  0  0  0  0
  140.2820   67.5881  228.1544 H   0  0  0  0  0  0  0  0  0  0  0  0
  141.4003   69.6426  229.0735 H   0  0  0  0  0  0  0  0  0  0  0  0
  141.5324   71.6506  227.5898 H   0  0  0  0  0  0  0  0  0  0  0  0
  140.8620   72.6290  225.0280 H   0  0  0  0  0  0  0  0  0  0  0  0
  141.1670   71.9449  218.9672 H   0  0  0  0  0  0  0  0  0  0  0  0
  142.5189   72.9951  218.3205 H   0  0  0  0  0  0  0  0  0  0  0  0
  142.4857   70.7976  220.2292 H   0  0  0  0  0  0  0  0  0  0  0  0
  143.6079   70.1737  218.2307 H   0  0  0  0  0  0  0  0  0  0  0  0
  144.0798   71.8767  217.8798 H   0  0  0  0  0  0  0  0  0  0  0  0
  145.2919   70.0984  220.0081 H   0  0  0  0  0  0  0  0  0  0  0  0
  145.9840   70.4890  218.3456 H   0  0  0  0  0  0  0  0  0  0  0  0
  146.7220   71.7330  220.5030 H   0  0  0  0  0  0  0  0  0  0  0  0
  145.6198   73.5282  221.0656 H   0  0  0  0  0  0  0  0  0  0  0  0
  144.7937   73.6501  219.5028 H   0  0  0  0  0  0  0  0  0  0  0  0
  144.3838   71.2872  221.4210 H   0  0  0  0  0  0  0  0  0  0  0  0
  143.3741   72.7950  221.4738 H   0  0  0  0  0  0  0  0  0  0  0  0
  1  2  2  0
  2  3  1  0
  3  4  2  0
  4  5  1  0
  5  6  2  0
  6  7  1  0
  7  8  2  0
  8  9  1  0
  9 10  2  0
 10 11  1  0
 11 12  2  0
 12 13  1  0
 13 14  2  0
 14 15  1  0
 15 16  2  0
 16 17  1  0
 17 18  2  0
 18 19  1  0
 19 20  2  0
 20 21  1  0
 10 22  1  0
 22 23  1  0
 23 24  1  0
 24 25  1  0
 25 26  1  0
 26 27  1  0
 27 28  1  0
 28 29  1  0
 22  2  1  0
 29 24  1  0
  8  3  1  0
 21 13  1  0
 20 15  1  0
  4 30  1  0
  5 31  1  0
  6 32  1  0
  7 33  1  0
 11 34  1  0
 12 35  1  0
 16 36  1  0
 17 37  1  0
 18 38  1  0
 19 39  1  0
 21 40  1  0
 23 41  1  0
 23 42  1  0
 24 43  1  0
 25 44  1  0
 25 45  1  0
 26 46  1  0
 26 47  1  0
 27 48  1  0
 28 49  1  0
 28 50  1  0
 29 51  1  0
 29 52  1  0
M  END
>  <smiles>  (3) 
O=c1c2ccccc2nc(/C=C/c2nc3ccccc3[nH]2)n1CC1CCNCC1

>  <score_type>  (3) 
oracle

>  <origin>  (3) 
autodockgpu

>  <m_score__min__energy>  (3) 
-9.1300000000000008

>  <m_primary>  (3) 
energy

>  <rmsd>  (3) 
8.292687240321166

>  <m_score__min__rmsd>  (3) 
8.292687240321166

>  <meeko>  (3) 
{"free_energy": -8.76, "intermolecular_energy": -10.25, "internal_energy": -1.1, "cluster_size": 17, "cluster_id": 2, "rank_in_cluster": 5}

>  <energy>  (3) 
-9.1

>  <cluster_rmsd>  (3) 
0.4

>  <cluster>  (3) 
1

$$$$

     RDKit          3D

 52 56  0  0  0  0  0  0  0  0999 V2000
  139.1070   67.8740  225.3360 O   0  0  0  0  0  0  0  0  0  0  0  0
  139.4820   69.0450  225.0560 C   0  0  0  0  0  0  0  0  0  0  0  0
  140.0160   69.7700  226.0940 C   0  0  0  0  0  0  0  0  0  0  0  0
  140.1310   69.2570  227.3530 C   0  0  0  0  0  0  0  0  0  0  0  0
  140.6780   70.0560  228.3290 C   0  0  0  0  0  0  0  0  0  0  0  0
  141.0950   71.3360  228.0320 C   0  0  0  0  0  0  0  0  0  0  0  0
  140.9870   71.8770  226.7500 C   0  0  0  0  0  0  0  0  0  0  0  0
  140.4330   71.0420  225.8040 C   0  0  0  0  0  0  0  0  0  0  0  0
  140.3000   71.4910  224.5700 N   0  0  0  0  0  0  0  0  0  0  0  0
  139.7700   70.7940  223.5130 C   0  0  0  0  0  0  0  0  0  0  0  0
  139.7530   71.5000  222.2690 C   0  0  0  0  0  0  0  0  0  0  0  0
  140.6110   72.2630  221.6960 C   0  0  0  0  0  0  0  0  0  0  0  0
  140.4930   73.7450  221.7780 C   0  0  0  0  0  0  0  0  0  0  0  0
  141.3490   74.6560  221.2980 N   0  0  0  0  0  0  0  0  0  0  0  0
  140.9220   75.9040  221.5540 C   0  0  0  0  0  0  0  0  0  0  0  0
  141.3800   77.1830  221.3050 C   0  0  0  0  0  0  0  0  0  0  0  0
  140.6660   78.2870  221.7240 C   0  0  0  0  0  0  0  0  0  0  0  0
  139.4570   78.1620  222.4150 C   0  0  0  0  0  0  0  0  0  0  0  0
  139.0150   76.8710  222.6550 C   0  0  0  0  0  0  0  0  0  0  0  0
  139.7310   75.7670  222.2340 C   0  0  0  0  0  0  0  0  0  0  0  0
  139.5030   74.4470  222.3520 N   0  0  0  0  0  0  0  0  0  0  0  0
  139.3630   69.5560  223.7860 N   0  0  0  0  0  0  0  0  0  0  0  0
  138.8030   68.6920  222.8060 C   0  0  0  0  0  0  0  0  0  0  0  0
  137.4000   69.0420  222.4200 C   0  0  0  0  0  0  0  0  0  0  0  0
  136.5550   67.7770  222.3370 C   0  0  0  0  0  0  0  0  0  0  0  0
  135.1360   68.0780  222.7030 C   0  0  0  0  0  0  0  0  0  0  0  0
  134.9290   68.5280  224.0450 N   0  0  0  0  0  0  0  0  0  0  0  0
  136.0810   69.2600  224.5330 C   0  0  0  0  0  0  0  0  0  0  0  0
  136.6710   69.9760  223.3200 C   0  0  0  0  0  0  0  0  0  0  0  0
  139.7959   68.2343  227.5805 H   0  0  0  0  0  0  0  0  0  0  0  0
  140.7836   69.6712  229.3541 H   0  0  0  0  0  0  0  0  0  0  0  0
  141.5280   71.9525  228.8335 H   0  0  0  0  0  0  0  0  0  0  0  0
  141.3205   72.8977  226.5116 H   0  0  0  0  0  0  0  0  0  0  0  0
  138.8262   71.3624  221.6927 H   0  0  0  0  0  0  0  0  0  0  0  0
  141.4456   71.8158  221.1362 H   0  0  0  0  0  0  0  0  0  0  0  0
  142.3278   77.3236  220.7648 H   0  0  0  0  0  0  0  0  0  0  0  0
  141.0584   79.2918  221.5087 H   0  0  0  0  0  0  0  0  0  0  0  0
  138.8874   79.0413  222.7501 H   0  0  0  0  0  0  0  0  0  0  0  0
  138.0686   76.7210  223.1952 H   0  0  0  0  0  0  0  0  0  0  0  0
  138.6740   73.9900  222.8210 H   0  0  0  0  0  0  0  0  0  0  0  0
  139.4318   68.7370  221.9045 H   0  0  0  0  0  0  0  0  0  0  0  0
  138.7709   67.6854  223.2485 H   0  0  0  0  0  0  0  0  0  0  0  0
  137.5274   69.5611  221.4586 H   0  0  0  0  0  0  0  0  0  0  0  0
  136.5897   67.3837  221.3103 H   0  0  0  0  0  0  0  0  0  0  0  0
  136.9560   67.0311  223.0390 H   0  0  0  0  0  0  0  0  0  0  0  0
  134.7691   68.8606  222.0226 H   0  0  0  0  0  0  0  0  0  0  0  0
  134.5929   67.1254  222.6164 H   0  0  0  0  0  0  0  0  0  0  0  0
  134.1170   69.1840  224.1280 H   0  0  0  0  0  0  0  0  0  0  0  0
  135.7742   69.9906  225.2960 H   0  0  0  0  0  0  0  0  0  0  0  0
  136.8160   68.5884  225.0007 H   0  0  0  0  0  0  0  0  0  0  0  0
  135.8541   70.4485  222.7548 H   0  0  0  0  0  0  0  0  0  0  0  0
  137.3889   70.7255  223.6845 H   0  0  0  0  0  0  0  0  0  0  0  0
  1  2  2  0
  2  3  1  0
  3  4  2  0
  4  5  1  0
  5  6  2  0
  6  7  1  0
  7  8  2  0
  8  9  1  0
  9 10  2  0
 10 11  1  0
 11 12  2  0
 12 13  1  0
 13 14  2  0
 14 15  1  0
 15 16  2  0
 16 17  1  0
 17 18  2  0
 18 19  1  0
 19 20  2  0
 20 21  1  0
 10 22  1  0
 22 23  1  0
 23 24  1  0
 24 25  1  0
 25 26  1  0
 26 27  1  0
 27 28  1  0
 28 29  1  0
 22  2  1  0
 29 24  1  0
  8  3  1  0
 21 13  1  0
 20 15  1  0
  4 30  1  0
  5 31  1  0
  6 32  1  0
  7 33  1  0
 11 34  1  0
 12 35  1  0
 16 36  1  0
 17 37  1  0
 18 38  1  0
 19 39  1  0
 21 40  1  0
 23 41  1  0
 23 42  1  0
 24 43  1  0
 25 44  1  0
 25 45  1  0
 26 46  1  0
 26 47  1  0
 27 48  1  0
 28 49  1  0
 28 50  1  0
 29 51  1  0
 29 52  1  0
M  END
>  <smiles>  (4) 
O=c1c2ccccc2nc(/C=C/c2nc3ccccc3[nH]2)n1CC1CCNCC1

>  <score_type>  (4) 
oracle

>  <origin>  (4) 
autodockgpu

>  <m_score__min__energy>  (4) 
-9.1300000000000008

>  <m_primary>  (4) 
energy

>  <rmsd>  (4) 
12.202821862223113

>  <m_score__min__rmsd>  (4) 
12.202821862223113

>  <meeko>  (4) 
{"free_energy": -8.94, "intermolecular_energy": -10.43, "internal_energy": -1.2, "cluster_size": 30, "cluster_id": 1, "rank_in_cluster": 16}

>  <energy>  (4) 
-9.08

>  <cluster_rmsd>  (4) 
0.19

>  <cluster>  (4) 
1

$$$$

     RDKit          3D

 52 56  0  0  0  0  0  0  0  0999 V2000
  143.0190   76.6000  219.8220 O   0  0  0  0  0  0  0  0  0  0  0  0
  142.0940   75.9920  220.4260 C   0  0  0  0  0  0  0  0  0  0  0  0
  141.2890   76.7660  221.2280 C   0  0  0  0  0  0  0  0  0  0  0  0
  141.4800   78.1100  221.3650 C   0  0  0  0  0  0  0  0  0  0  0  0
  140.6240   78.8020  222.1880 C   0  0  0  0  0  0  0  0  0  0  0  0
  139.6070   78.1490  222.8500 C   0  0  0  0  0  0  0  0  0  0  0  0
  139.3970   76.7740  222.7210 C   0  0  0  0  0  0  0  0  0  0  0  0
  140.2770   76.1200  221.8870 C   0  0  0  0  0  0  0  0  0  0  0  0
  140.1350   74.8190  221.7190 N   0  0  0  0  0  0  0  0  0  0  0  0
  140.9210   74.0180  220.9290 C   0  0  0  0  0  0  0  0  0  0  0  0
  140.5490   72.6380  220.9040 C   0  0  0  0  0  0  0  0  0  0  0  0
  139.6810   71.9640  221.5660 C   0  0  0  0  0  0  0  0  0  0  0  0
  139.9210   71.5930  222.9880 C   0  0  0  0  0  0  0  0  0  0  0  0
  140.6970   72.2300  223.8740 N   0  0  0  0  0  0  0  0  0  0  0  0
  140.6770   71.6110  225.0680 C   0  0  0  0  0  0  0  0  0  0  0  0
  141.2630   71.8120  226.3020 C   0  0  0  0  0  0  0  0  0  0  0  0
  141.0180   70.9510  227.3520 C   0  0  0  0  0  0  0  0  0  0  0  0
  140.1730   69.8460  227.2150 C   0  0  0  0  0  0  0  0  0  0  0  0
  139.5950   69.6620  225.9690 C   0  0  0  0  0  0  0  0  0  0  0  0
  139.8420   70.5250  224.9190 C   0  0  0  0  0  0  0  0  0  0  0  0
  139.4030   70.5460  223.6490 N   0  0  0  0  0  0  0  0  0  0  0  0
  141.9080   74.6380  220.2850 N   0  0  0  0  0  0  0  0  0  0  0  0
  142.8080   73.9640  219.4150 C   0  0  0  0  0  0  0  0  0  0  0  0
  143.4470   72.7540  220.0230 C   0  0  0  0  0  0  0  0  0  0  0  0
  143.9830   71.8440  218.9240 C   0  0  0  0  0  0  0  0  0  0  0  0
  145.1930   71.1100  219.4070 C   0  0  0  0  0  0  0  0  0  0  0  0
  146.3180   71.9290  219.7380 N   0  0  0  0  0  0  0  0  0  0  0  0
  145.8940   73.2270  220.2200 C   0  0  0  0  0  0  0  0  0  0  0  0
  144.5780   72.9940  220.9600 C   0  0  0  0  0  0  0  0  0  0  0  0
  142.2942   78.6240  220.8331 H   0  0  0  0  0  0  0  0  0  0  0  0
  140.7518   79.8866  222.3194 H   0  0  0  0  0  0  0  0  0  0  0  0
  138.9381   78.7300  223.5019 H   0  0  0  0  0  0  0  0  0  0  0  0
  138.5860   76.2503  223.2483 H   0  0  0  0  0  0  0  0  0  0  0  0
  141.1164   72.0384  220.1770 H   0  0  0  0  0  0  0  0  0  0  0  0
  138.7457   71.6556  221.0759 H   0  0  0  0  0  0  0  0  0  0  0  0
  141.9345   72.6705  226.4501 H   0  0  0  0  0  0  0  0  0  0  0  0
  141.5004   71.1391  228.3225 H   0  0  0  0  0  0  0  0  0  0  0  0
  139.9773   69.1591  228.0516 H   0  0  0  0  0  0  0  0  0  0  0  0
  138.9219   68.8063  225.8119 H   0  0  0  0  0  0  0  0  0  0  0  0
  138.7430   69.8540  223.1980 H   0  0  0  0  0  0  0  0  0  0  0  0
  142.2533   73.6494  218.5187 H   0  0  0  0  0  0  0  0  0  0  0  0
  143.6183   74.6709  219.1833 H   0  0  0  0  0  0  0  0  0  0  0  0
  142.6323   72.3111  220.6147 H   0  0  0  0  0  0  0  0  0  0  0  0
  143.2061   71.1182  218.6419 H   0  0  0  0  0  0  0  0  0  0  0  0
  144.2582   72.4565  218.0527 H   0  0  0  0  0  0  0  0  0  0  0  0
  144.9095   70.5438  220.3065 H   0  0  0  0  0  0  0  0  0  0  0  0
  145.5169   70.4762  218.5683 H   0  0  0  0  0  0  0  0  0  0  0  0
  146.9040   71.5170  220.5020 H   0  0  0  0  0  0  0  0  0  0  0  0
  146.6476   73.6454  220.9034 H   0  0  0  0  0  0  0  0  0  0  0  0
  145.7695   73.9420  219.3934 H   0  0  0  0  0  0  0  0  0  0  0  0
  144.6891   72.1171  221.6147 H   0  0  0  0  0  0  0  0  0  0  0  0
  144.3507   73.8990  221.5426 H   0  0  0  0  0  0  0  0  0  0  0  0
  1  2  2  0
  2  3  1  0
  3  4  2  0
  4  5  1  0
  5  6  2  0
  6  7  1  0
  7  8  2  0
  8  9  1  0
  9 10  2  0
 10 11  1  0
 11 12  2  0
 12 13  1  0
 13 14  2  0
 14 15  1  0
 15 16  2  0
 16 17  1  0
 17 18  2  0
 18 19  1  0
 19 20  2  0
 20 21  1  0
 10 22  1  0
 22 23  1  0
 23 24  1  0
 24 25  1  0
 25 26  1  0
 26 27  1  0
 27 28  1  0
 28 29  1  0
 22  2  1  0
 29 24  1  0
  8  3  1  0
 21 13  1  0
 20 15  1  0
  4 30  1  0
  5 31  1  0
  6 32  1  0
  7 33  1  0
 11 34  1  0
 12 35  1  0
 16 36  1  0
 17 37  1  0
 18 38  1  0
 19 39  1  0
 21 40  1  0
 23 41  1  0
 23 42  1  0
 24 43  1  0
 25 44  1  0
 25 45  1  0
 26 46  1  0
 26 47  1  0
 27 48  1  0
 28 49  1  0
 28 50  1  0
 29 51  1  0
 29 52  1  0
M  END
>  <smiles>  (5) 
O=c1c2ccccc2nc(/C=C/c2nc3ccccc3[nH]2)n1CC1CCNCC1

>  <score_type>  (5) 
oracle

>  <origin>  (5) 
autodockgpu

>  <m_score__min__energy>  (5) 
-9.1300000000000008

>  <m_primary>  (5) 
energy

>  <rmsd>  (5) 
8.03526781042294

>  <m_score__min__rmsd>  (5) 
8.03526781042294

>  <meeko>  (5) 
{"free_energy": -8.55, "intermolecular_energy": -10.04, "internal_energy": -1.11, "cluster_size": 17, "cluster_id": 2, "rank_in_cluster": 12}

>  <energy>  (5) 
-9.07

>  <cluster_rmsd>  (5) 
0.21

>  <cluster>  (5) 
1

$$$$

     RDKit          3D

 52 56  0  0  0  0  0  0  0  0999 V2000
  138.9380   68.1200  225.1800 O   0  0  0  0  0  0  0  0  0  0  0  0
  139.4280   69.2540  224.9230 C   0  0  0  0  0  0  0  0  0  0  0  0
  139.9720   69.9310  225.9870 C   0  0  0  0  0  0  0  0  0  0  0  0
  139.9790   69.4110  227.2500 C   0  0  0  0  0  0  0  0  0  0  0  0
  140.5460   70.1610  228.2530 C   0  0  0  0  0  0  0  0  0  0  0  0
  141.0870   71.3990  227.9810 C   0  0  0  0  0  0  0  0  0  0  0  0
  141.0890   71.9460  226.6960 C   0  0  0  0  0  0  0  0  0  0  0  0
  140.5120   71.1610  225.7220 C   0  0  0  0  0  0  0  0  0  0  0  0
  140.4790   71.6180  224.4840 N   0  0  0  0  0  0  0  0  0  0  0  0
  139.9430   70.9680  223.4000 C   0  0  0  0  0  0  0  0  0  0  0  0
  140.0480   71.6710  222.1590 C   0  0  0  0  0  0  0  0  0  0  0  0
  140.8290   72.6070  221.7590 C   0  0  0  0  0  0  0  0  0  0  0  0
  140.4790   74.0390  221.9690 C   0  0  0  0  0  0  0  0  0  0  0  0
  139.2770   74.5460  222.2740 N   0  0  0  0  0  0  0  0  0  0  0  0
  139.3310   75.8840  222.3880 C   0  0  0  0  0  0  0  0  0  0  0  0
  138.4350   76.8950  222.6750 C   0  0  0  0  0  0  0  0  0  0  0  0
  138.8390   78.2130  222.7110 C   0  0  0  0  0  0  0  0  0  0  0  0
  140.1640   78.5830  222.4600 C   0  0  0  0  0  0  0  0  0  0  0  0
  141.0470   77.5550  222.1740 C   0  0  0  0  0  0  0  0  0  0  0  0
  140.6400   76.2350  222.1390 C   0  0  0  0  0  0  0  0  0  0  0  0
  141.3050   75.0940  221.8890 N   0  0  0  0  0  0  0  0  0  0  0  0
  139.4160   69.7710  223.6500 N   0  0  0  0  0  0  0  0  0  0  0  0
  138.8320   68.9580  222.6410 C   0  0  0  0  0  0  0  0  0  0  0  0
  137.3920   69.2670  222.3720 C   0  0  0  0  0  0  0  0  0  0  0  0
  136.5990   67.9720  222.2480 C   0  0  0  0  0  0  0  0  0  0  0  0
  135.1960   68.1770  222.7250 C   0  0  0  0  0  0  0  0  0  0  0  0
  135.0600   68.5190  224.1080 N   0  0  0  0  0  0  0  0  0  0  0  0
  136.2080   69.2680  224.5740 C   0  0  0  0  0  0  0  0  0  0  0  0
  136.6850   70.0980  223.3840 C   0  0  0  0  0  0  0  0  0  0  0  0
  139.5442   68.4223  227.4583 H   0  0  0  0  0  0  0  0  0  0  0  0
  140.5680   69.7698  229.2809 H   0  0  0  0  0  0  0  0  0  0  0  0
  141.5327   71.9763  228.8045 H   0  0  0  0  0  0  0  0  0  0  0  0
  141.5208   72.9338  226.4771 H   0  0  0  0  0  0  0  0  0  0  0  0
  139.3189   71.3469  221.4018 H   0  0  0  0  0  0  0  0  0  0  0  0
  141.7710   72.3478  221.2535 H   0  0  0  0  0  0  0  0  0  0  0  0
  137.3832   76.6451  222.8780 H   0  0  0  0  0  0  0  0  0  0  0  0
  138.0997   78.9937  222.9432 H   0  0  0  0  0  0  0  0  0  0  0  0
  140.4876   79.6340  222.4882 H   0  0  0  0  0  0  0  0  0  0  0  0
  142.1006   77.7958  221.9692 H   0  0  0  0  0  0  0  0  0  0  0  0
  142.3330   75.0000  221.6590 H   0  0  0  0  0  0  0  0  0  0  0  0
  139.3975   69.1031  221.7087 H   0  0  0  0  0  0  0  0  0  0  0  0
  138.8740   67.9201  223.0028 H   0  0  0  0  0  0  0  0  0  0  0  0
  137.4321   69.8594  221.4460 H   0  0  0  0  0  0  0  0  0  0  0  0
  136.5820   67.6559  221.1945 H   0  0  0  0  0  0  0  0  0  0  0  0
  137.0781   67.1976  222.8650 H   0  0  0  0  0  0  0  0  0  0  0  0
  134.7506   68.9878  222.1299 H   0  0  0  0  0  0  0  0  0  0  0  0
  134.6902   67.2079  222.6020 H   0  0  0  0  0  0  0  0  0  0  0  0
  134.2280   69.1270  224.2910 H   0  0  0  0  0  0  0  0  0  0  0  0
  135.9215   69.9259  225.4078 H   0  0  0  0  0  0  0  0  0  0  0  0
  137.0010   68.6000  224.9412 H   0  0  0  0  0  0  0  0  0  0  0  0
  135.8130   70.5709  222.9086 H   0  0  0  0  0  0  0  0  0  0  0  0
  137.3925   70.8527  223.7581 H   0  0  0  0  0  0  0  0  0  0  0  0
  1  2  2  0
  2  3  1  0
  3  4  2  0
  4  5  1  0
  5  6  2  0
  6  7  1  0
  7  8  2  0
  8  9  1  0
  9 10  2  0
 10 11  1  0
 11 12  2  0
 12 13  1  0
 13 14  2  0
 14 15  1  0
 15 16  2  0
 16 17  1  0
 17 18  2  0
 18 19  1  0
 19 20  2  0
 20 21  1  0
 10 22  1  0
 22 23  1  0
 23 24  1  0
 24 25  1  0
 25 26  1  0
 26 27  1  0
 27 28  1  0
 28 29  1  0
 22  2  1  0
 29 24  1  0
  8  3  1  0
 21 13  1  0
 20 15  1  0
  4 30  1  0
  5 31  1  0
  6 32  1  0
  7 33  1  0
 11 34  1  0
 12 35  1  0
 16 36  1  0
 17 37  1  0
 18 38  1  0
 19 39  1  0
 21 40  1  0
 23 41  1  0
 23 42  1  0
 24 43  1  0
 25 44  1  0
 25 45  1  0
 26 46  1  0
 26 47  1  0
 27 48  1  0
 28 49  1  0
 28 50  1  0
 29 51  1  0
 29 52  1  0
M  END
>  <smiles>  (6) 
O=c1c2ccccc2nc(/C=C/c2nc3ccccc3[nH]2)n1CC1CCNCC1

>  <score_type>  (6) 
oracle

>  <origin>  (6) 
autodockgpu

>  <m_score__min__energy>  (6) 
-9.1300000000000008

>  <m_primary>  (6) 
energy

>  <rmsd>  (6) 
12.05948706828797

>  <m_score__min__rmsd>  (6) 
12.05948706828797

>  <meeko>  (6) 
{"free_energy": -8.98, "intermolecular_energy": -10.47, "internal_energy": -1.22, "cluster_size": 30, "cluster_id": 1, "rank_in_cluster": 7}

>  <energy>  (6) 
-9.06

>  <cluster_rmsd>  (6) 
0.21

>  <cluster>  (6) 
1

$$$$

     RDKit          3D

 52 56  0  0  0  0  0  0  0  0999 V2000
  139.0780   67.6340  224.7780 O   0  0  0  0  0  0  0  0  0  0  0  0
  139.4380   68.8410  224.8450 C   0  0  0  0  0  0  0  0  0  0  0  0
  139.9840   69.2420  226.0410 C   0  0  0  0  0  0  0  0  0  0  0  0
  140.1240   68.3870  227.0960 C   0  0  0  0  0  0  0  0  0  0  0  0
  140.6810   68.8770  228.2540 C   0  0  0  0  0  0  0  0  0  0  0  0
  141.0810   70.1930  228.3350 C   0  0  0  0  0  0  0  0  0  0  0  0
  140.9460   71.0810  227.2660 C   0  0  0  0  0  0  0  0  0  0  0  0
  140.3840   70.5490  226.1270 C   0  0  0  0  0  0  0  0  0  0  0  0
  140.2260   71.3330  225.0770 N   0  0  0  0  0  0  0  0  0  0  0  0
  139.6850   70.9660  223.8710 C   0  0  0  0  0  0  0  0  0  0  0  0
  139.6400   72.0010  222.8860 C   0  0  0  0  0  0  0  0  0  0  0  0
  140.4710   72.3690  221.9800 C   0  0  0  0  0  0  0  0  0  0  0  0
  140.6640   73.8100  221.6570 C   0  0  0  0  0  0  0  0  0  0  0  0
  141.5000   74.3350  220.7520 N   0  0  0  0  0  0  0  0  0  0  0  0
  141.4090   75.6760  220.7300 C   0  0  0  0  0  0  0  0  0  0  0  0
  142.0080   76.7020  220.0250 C   0  0  0  0  0  0  0  0  0  0  0  0
  141.6690   78.0180  220.2620 C   0  0  0  0  0  0  0  0  0  0  0  0
  140.7110   78.3700  221.2190 C   0  0  0  0  0  0  0  0  0  0  0  0
  140.1230   77.3260  221.9140 C   0  0  0  0  0  0  0  0  0  0  0  0
  140.4640   76.0090  221.6750 C   0  0  0  0  0  0  0  0  0  0  0  0
  140.0350   74.8560  222.2160 N   0  0  0  0  0  0  0  0  0  0  0  0
  139.2930   69.6970  223.7800 N   0  0  0  0  0  0  0  0  0  0  0  0
  138.7240   69.1450  222.5990 C   0  0  0  0  0  0  0  0  0  0  0  0
  137.2660   69.4410  222.4340 C   0  0  0  0  0  0  0  0  0  0  0  0
  136.4910   68.1400  222.2630 C   0  0  0  0  0  0  0  0  0  0  0  0
  135.1140   68.2810  222.8310 C   0  0  0  0  0  0  0  0  0  0  0  0
  135.0520   68.5220  224.2400 N   0  0  0  0  0  0  0  0  0  0  0  0
  136.2120   69.2610  224.6930 C   0  0  0  0  0  0  0  0  0  0  0  0
  136.6040   70.1830  223.5400 C   0  0  0  0  0  0  0  0  0  0  0  0
  139.8011   67.3381  227.0221 H   0  0  0  0  0  0  0  0  0  0  0  0
  140.8081   68.2134  229.1220 H   0  0  0  0  0  0  0  0  0  0  0  0
  141.5221   70.5568  229.2747 H   0  0  0  0  0  0  0  0  0  0  0  0
  141.2660   72.1315  227.3292 H   0  0  0  0  0  0  0  0  0  0  0  0
  138.7154   72.5964  222.9091 H   0  0  0  0  0  0  0  0  0  0  0  0
  141.0492   71.6090  221.4340 H   0  0  0  0  0  0  0  0  0  0  0  0
  142.7662   76.4662  219.2637 H   0  0  0  0  0  0  0  0  0  0  0  0
  142.1648   78.8114  219.6835 H   0  0  0  0  0  0  0  0  0  0  0  0
  140.4395   79.4189  221.4092 H   0  0  0  0  0  0  0  0  0  0  0  0
  139.3637   77.5519  222.6772 H   0  0  0  0  0  0  0  0  0  0  0  0
  139.3080   74.7460  222.9750 H   0  0  0  0  0  0  0  0  0  0  0  0
  139.2613   69.5550  221.7311 H   0  0  0  0  0  0  0  0  0  0  0  0
  138.8216   68.0522  222.6776 H   0  0  0  0  0  0  0  0  0  0  0  0
  137.2418   70.0980  221.5521 H   0  0  0  0  0  0  0  0  0  0  0  0
  136.4195   67.8976  221.1924 H   0  0  0  0  0  0  0  0  0  0  0  0
  137.0185   67.3350  222.7957 H   0  0  0  0  0  0  0  0  0  0  0  0
  134.6212   69.1219  222.3211 H   0  0  0  0  0  0  0  0  0  0  0  0
  134.6186   67.3126  222.6675 H   0  0  0  0  0  0  0  0  0  0  0  0
  134.2210   69.0970  224.5120 H   0  0  0  0  0  0  0  0  0  0  0  0
  135.9630   69.8521  225.5867 H   0  0  0  0  0  0  0  0  0  0  0  0
  137.0367   68.5863  224.9661 H   0  0  0  0  0  0  0  0  0  0  0  0
  135.6975   70.6684  223.1494 H   0  0  0  0  0  0  0  0  0  0  0  0
  137.3178   70.9255  223.9262 H   0  0  0  0  0  0  0  0  0  0  0  0
  1  2  2  0
  2  3  1  0
  3  4  2  0
  4  5  1  0
  5  6  2  0
  6  7  1  0
  7  8  2  0
  8  9  1  0
  9 10  2  0
 10 11  1  0
 11 12  2  0
 12 13  1  0
 13 14  2  0
 14 15  1  0
 15 16  2  0
 16 17  1  0
 17 18  2  0
 18 19  1  0
 19 20  2  0
 20 21  1  0
 10 22  1  0
 22 23  1  0
 23 24  1  0
 24 25  1  0
 25 26  1  0
 26 27  1  0
 27 28  1  0
 28 29  1  0
 22  2  1  0
 29 24  1  0
  8  3  1  0
 21 13  1  0
 20 15  1  0
  4 30  1  0
  5 31  1  0
  6 32  1  0
  7 33  1  0
 11 34  1  0
 12 35  1  0
 16 36  1  0
 17 37  1  0
 18 38  1  0
 19 39  1  0
 21 40  1  0
 23 41  1  0
 23 42  1  0
 24 43  1  0
 25 44  1  0
 25 45  1  0
 26 46  1  0
 26 47  1  0
 27 48  1  0
 28 49  1  0
 28 50  1  0
 29 51  1  0
 29 52  1  0
M  END
>  <smiles>  (7) 
O=c1c2ccccc2nc(/C=C/c2nc3ccccc3[nH]2)n1CC1CCNCC1

>  <score_type>  (7) 
oracle

>  <origin>  (7) 
autodockgpu

>  <m_score__min__energy>  (7) 
-9.1300000000000008

>  <m_primary>  (7) 
energy

>  <rmsd>  (7) 
12.273279564593688

>  <m_score__min__rmsd>  (7) 
12.273279564593688

>  <meeko>  (7) 
{"free_energy": -8.61, "intermolecular_energy": -10.1, "internal_energy": -1.09, "cluster_size": 30, "cluster_id": 1, "rank_in_cluster": 27}

>  <energy>  (7) 
-8.98

>  <cluster_rmsd>  (7) 
1.03

>  <cluster>  (7) 
1

$$$$

     RDKit          3D

 52 56  0  0  0  0  0  0  0  0999 V2000
  138.9210   68.1350  225.2990 O   0  0  0  0  0  0  0  0  0  0  0  0
  139.4320   69.2500  225.0090 C   0  0  0  0  0  0  0  0  0  0  0  0
  139.9730   69.9560  226.0580 C   0  0  0  0  0  0  0  0  0  0  0  0
  139.9540   69.4800  227.3370 C   0  0  0  0  0  0  0  0  0  0  0  0
  140.5190   70.2560  228.3220 C   0  0  0  0  0  0  0  0  0  0  0  0
  141.0850   71.4740  228.0150 C   0  0  0  0  0  0  0  0  0  0  0  0
  141.1140   71.9760  226.7120 C   0  0  0  0  0  0  0  0  0  0  0  0
  140.5370   71.1670  225.7570 C   0  0  0  0  0  0  0  0  0  0  0  0
  140.5290   71.5800  224.5040 N   0  0  0  0  0  0  0  0  0  0  0  0
  139.9970   70.9030  223.4360 C   0  0  0  0  0  0  0  0  0  0  0  0
  140.1320   71.5600  222.1730 C   0  0  0  0  0  0  0  0  0  0  0  0
  140.9050   72.4990  221.7650 C   0  0  0  0  0  0  0  0  0  0  0  0
  140.5450   73.9290  221.9660 C   0  0  0  0  0  0  0  0  0  0  0  0
  139.3460   74.4280  222.2930 N   0  0  0  0  0  0  0  0  0  0  0  0
  139.3880   75.7680  222.3900 C   0  0  0  0  0  0  0  0  0  0  0  0
  138.4890   76.7730  222.6860 C   0  0  0  0  0  0  0  0  0  0  0  0
  138.8800   78.0960  222.6970 C   0  0  0  0  0  0  0  0  0  0  0  0
  140.1950   78.4760  222.4120 C   0  0  0  0  0  0  0  0  0  0  0  0
  141.0820   77.4530  222.1170 C   0  0  0  0  0  0  0  0  0  0  0  0
  140.6880   76.1280  222.1070 C   0  0  0  0  0  0  0  0  0  0  0  0
  141.3590   74.9920  221.8540 N   0  0  0  0  0  0  0  0  0  0  0  0
  139.4470   69.7240  223.7190 N   0  0  0  0  0  0  0  0  0  0  0  0
  138.8630   68.8850  222.7310 C   0  0  0  0  0  0  0  0  0  0  0  0
  137.4380   69.2180  222.4190 C   0  0  0  0  0  0  0  0  0  0  0  0
  136.6250   67.9360  222.2800 C   0  0  0  0  0  0  0  0  0  0  0  0
  135.2130   68.1700  222.7160 C   0  0  0  0  0  0  0  0  0  0  0  0
  135.0440   68.5230  224.0910 N   0  0  0  0  0  0  0  0  0  0  0  0
  136.1920   69.2550  224.5860 C   0  0  0  0  0  0  0  0  0  0  0  0
  136.7170   70.0680  223.4050 C   0  0  0  0  0  0  0  0  0  0  0  0
  139.5008   68.5058  227.5728 H   0  0  0  0  0  0  0  0  0  0  0  0
  140.5190   69.9013  229.3633 H   0  0  0  0  0  0  0  0  0  0  0  0
  141.5295   72.0719  228.8243 H   0  0  0  0  0  0  0  0  0  0  0  0
  141.5654   72.9483  226.4654 H   0  0  0  0  0  0  0  0  0  0  0  0
  139.4397   71.1887  221.4030 H   0  0  0  0  0  0  0  0  0  0  0  0
  141.8478   72.2435  221.2591 H   0  0  0  0  0  0  0  0  0  0  0  0
  137.4449   76.5150  222.9166 H   0  0  0  0  0  0  0  0  0  0  0  0
  138.1380   78.8720  222.9362 H   0  0  0  0  0  0  0  0  0  0  0  0
  140.5086   79.5303  222.4214 H   0  0  0  0  0  0  0  0  0  0  0  0
  142.1279   77.7020  221.8845 H   0  0  0  0  0  0  0  0  0  0  0  0
  142.3810   74.9050  221.6020 H   0  0  0  0  0  0  0  0  0  0  0  0
  139.4510   68.9779  221.8060 H   0  0  0  0  0  0  0  0  0  0  0  0
  138.8710   67.8620  223.1352 H   0  0  0  0  0  0  0  0  0  0  0  0
  137.5159   69.8037  221.4912 H   0  0  0  0  0  0  0  0  0  0  0  0
  136.6319   67.6136  221.2283 H   0  0  0  0  0  0  0  0  0  0  0  0
  137.0722   67.1567  222.9146 H   0  0  0  0  0  0  0  0  0  0  0  0
  134.7999   68.9850  222.1036 H   0  0  0  0  0  0  0  0  0  0  0  0
  134.6932   67.2095  222.5847 H   0  0  0  0  0  0  0  0  0  0  0  0
  134.2180   69.1480  224.2470 H   0  0  0  0  0  0  0  0  0  0  0  0
  135.8936   69.9234  225.4071 H   0  0  0  0  0  0  0  0  0  0  0  0
  136.9622   68.5758  224.9805 H   0  0  0  0  0  0  0  0  0  0  0  0
  135.8673   70.5525  222.9018 H   0  0  0  0  0  0  0  0  0  0  0  0
  137.4267   70.8129  223.7943 H   0  0  0  0  0  0  0  0  0  0  0  0
  1  2  2  0
  2  3  1  0
  3  4  2  0
  4  5  1  0
  5  6  2  0
  6  7  1  0
  7  8  2  0
  8  9  1  0
  9 10  2  0
 10 11  1  0
 11 12  2  0
 12 13  1  0
 13 14  2  0
 14 15  1  0
 15 16  2  0
 16 17  1  0
 17 18  2  0
 18 19  1  0
 19 20  2  0
 20 21  1  0
 10 22  1  0
 22 23  1  0
 23 24  1  0
 24 25  1  0
 25 26  1  0
 26 27  1  0
 27 28  1  0
 28 29  1  0
 22  2  1  0
 29 24  1  0
  8  3  1  0
 21 13  1  0
 20 15  1  0
  4 30  1  0
  5 31  1  0
  6 32  1  0
  7 33  1  0
 11 34  1  0
 12 35  1  0
 16 36  1  0
 17 37  1  0
 18 38  1  0
 19 39  1  0
 21 40  1  0
 23 41  1  0
 23 42  1  0
 24 43  1  0
 25 44  1  0
 25 45  1  0
 26 46  1  0
 26 47  1  0
 27 48  1  0
 28 49  1  0
 28 50  1  0
 29 51  1  0
 29 52  1  0
M  END
>  <smiles>  (8) 
O=c1c2ccccc2nc(/C=C/c2nc3ccccc3[nH]2)n1CC1CCNCC1

>  <score_type>  (8) 
oracle

>  <origin>  (8) 
autodockgpu

>  <m_score__min__energy>  (8) 
-9.1300000000000008

>  <m_primary>  (8) 
energy

>  <rmsd>  (8) 
12.082869520556507

>  <m_score__min__rmsd>  (8) 
12.082869520556507

>  <meeko>  (8) 
{"free_energy": -8.94, "intermolecular_energy": -10.44, "internal_energy": -1.24, "cluster_size": 30, "cluster_id": 1, "rank_in_cluster": 14}

>  <energy>  (8) 
-8.97

>  <cluster_rmsd>  (8) 
1.03

>  <cluster>  (8) 
1

$$$$

     RDKit          3D

 52 56  0  0  0  0  0  0  0  0999 V2000
  139.1720   67.7280  225.0200 O   0  0  0  0  0  0  0  0  0  0  0  0
  139.4720   68.9520  224.9670 C   0  0  0  0  0  0  0  0  0  0  0  0
  140.0060   69.4920  226.1120 C   0  0  0  0  0  0  0  0  0  0  0  0
  140.1960   68.7500  227.2420 C   0  0  0  0  0  0  0  0  0  0  0  0
  140.7360   69.3760  228.3410 C   0  0  0  0  0  0  0  0  0  0  0  0
  141.0720   70.7120  228.2910 C   0  0  0  0  0  0  0  0  0  0  0  0
  140.8840   71.4850  227.1440 C   0  0  0  0  0  0  0  0  0  0  0  0
  140.3410   70.8190  226.0680 C   0  0  0  0  0  0  0  0  0  0  0  0
  140.1370   71.4900  224.9500 N   0  0  0  0  0  0  0  0  0  0  0  0
  139.6060   70.9820  223.7910 C   0  0  0  0  0  0  0  0  0  0  0  0
  139.5020   71.9150  222.7120 C   0  0  0  0  0  0  0  0  0  0  0  0
  140.3810   72.4610  221.9540 C   0  0  0  0  0  0  0  0  0  0  0  0
  140.4540   73.9410  221.8100 C   0  0  0  0  0  0  0  0  0  0  0  0
  141.3640   74.6480  221.1260 N   0  0  0  0  0  0  0  0  0  0  0  0
  141.1200   75.9670  221.2140 C   0  0  0  0  0  0  0  0  0  0  0  0
  141.7040   77.1210  220.7310 C   0  0  0  0  0  0  0  0  0  0  0  0
  141.1750   78.3610  221.0250 C   0  0  0  0  0  0  0  0  0  0  0  0
  140.0340   78.5040  221.8200 C   0  0  0  0  0  0  0  0  0  0  0  0
  139.4630   77.3340  222.2950 C   0  0  0  0  0  0  0  0  0  0  0  0
  139.9940   76.0930  221.9990 C   0  0  0  0  0  0  0  0  0  0  0  0
  139.6190   74.8490  222.3410 N   0  0  0  0  0  0  0  0  0  0  0  0
  139.2770   69.6920  223.8260 N   0  0  0  0  0  0  0  0  0  0  0  0
  138.7280   69.0030  222.7110 C   0  0  0  0  0  0  0  0  0  0  0  0
  137.2890   69.3240  222.4490 C   0  0  0  0  0  0  0  0  0  0  0  0
  136.4910   68.0340  222.3000 C   0  0  0  0  0  0  0  0  0  0  0  0
  135.0890   68.2360  222.7820 C   0  0  0  0  0  0  0  0  0  0  0  0
  134.9550   68.5520  224.1710 N   0  0  0  0  0  0  0  0  0  0  0  0
  136.1070   69.2870  224.6510 C   0  0  0  0  0  0  0  0  0  0  0  0
  136.5860   70.1380  223.4770 C   0  0  0  0  0  0  0  0  0  0  0  0
  139.9255   67.6842  227.2726 H   0  0  0  0  0  0  0  0  0  0  0  0
  140.9011   68.8061  229.2673 H   0  0  0  0  0  0  0  0  0  0  0  0
  141.5031   71.1851  229.1856 H   0  0  0  0  0  0  0  0  0  0  0  0
  141.1509   72.5513  227.1026 H   0  0  0  0  0  0  0  0  0  0  0  0
  138.4699   72.2237  222.4894 H   0  0  0  0  0  0  0  0  0  0  0  0
  141.0908   71.8268  221.4026 H   0  0  0  0  0  0  0  0  0  0  0  0
  142.6041   77.0509  220.1026 H   0  0  0  0  0  0  0  0  0  0  0  0
  141.6640   79.2607  220.6232 H   0  0  0  0  0  0  0  0  0  0  0  0
  139.6121   79.4921  222.0559 H   0  0  0  0  0  0  0  0  0  0  0  0
  138.5630   77.3948  222.9245 H   0  0  0  0  0  0  0  0  0  0  0  0
  138.7910   74.5810  222.9410 H   0  0  0  0  0  0  0  0  0  0  0  0
  139.3109   69.2702  221.8172 H   0  0  0  0  0  0  0  0  0  0  0  0
  138.7790   67.9288  222.9423 H   0  0  0  0  0  0  0  0  0  0  0  0
  137.3308   69.9350  221.5352 H   0  0  0  0  0  0  0  0  0  0  0  0
  136.4721   67.7386  221.2406 H   0  0  0  0  0  0  0  0  0  0  0  0
  136.9674   67.2454  222.9010 H   0  0  0  0  0  0  0  0  0  0  0  0
  134.6468   69.0600  222.2027 H   0  0  0  0  0  0  0  0  0  0  0  0
  134.5791   67.2716  222.6410 H   0  0  0  0  0  0  0  0  0  0  0  0
  134.1260   69.1600  224.3670 H   0  0  0  0  0  0  0  0  0  0  0  0
  135.8241   69.9295  225.4978 H   0  0  0  0  0  0  0  0  0  0  0  0
  136.8976   68.6087  225.0045 H   0  0  0  0  0  0  0  0  0  0  0  0
  135.7154   70.6232  223.0115 H   0  0  0  0  0  0  0  0  0  0  0  0
  137.2964   70.8829  223.8648 H   0  0  0  0  0  0  0  0  0  0  0  0
  1  2  2  0
  2  3  1  0
  3  4  2  0
  4  5  1  0
  5  6  2  0
  6  7  1  0
  7  8  2  0
  8  9  1  0
  9 10  2  0
 10 11  1  0
 11 12  2  0
 12 13  1  0
 13 14  2  0
 14 15  1  0
 15 16  2  0
 16 17  1  0
 17 18  2  0
 18 19  1  0
 19 20  2  0
 20 21  1  0
 10 22  1  0
 22 23  1  0
 23 24  1  0
 24 25  1  0
 25 26  1  0
 26 27  1  0
 27 28  1  0
 28 29  1  0
 22  2  1  0
 29 24  1  0
  8  3  1  0
 21 13  1  0
 20 15  1  0
  4 30  1  0
  5 31  1  0
  6 32  1  0
  7 33  1  0
 11 34  1  0
 12 35  1  0
 16 36  1  0
 17 37  1  0
 18 38  1  0
 19 39  1  0
 21 40  1  0
 23 41  1  0
 23 42  1  0
 24 43  1  0
 25 44  1  0
 25 45  1  0
 26 46  1  0
 26 47  1  0
 27 48  1  0
 28 49  1  0
 28 50  1  0
 29 51  1  0
 29 52  1  0
M  END
>  <smiles>  (9) 
O=c1c2ccccc2nc(/C=C/c2nc3ccccc3[nH]2)n1CC1CCNCC1

>  <score_type>  (9) 
oracle

>  <origin>  (9) 
autodockgpu

>  <m_score__min__energy>  (9) 
-9.1300000000000008

>  <m_primary>  (9) 
energy

>  <rmsd>  (9) 
12.239754546584287

>  <m_score__min__rmsd>  (9) 
12.239754546584287

>  <meeko>  (9) 
{"free_energy": -8.97, "intermolecular_energy": -10.46, "internal_energy": -1.1, "cluster_size": 30, "cluster_id": 1, "rank_in_cluster": 9}

>  <energy>  (9) 
-8.97

>  <cluster_rmsd>  (9) 
0.61

>  <cluster>  (9) 
1

$$$$

     RDKit          3D

 52 56  0  0  0  0  0  0  0  0999 V2000
  139.0880   67.4620  224.8030 O   0  0  0  0  0  0  0  0  0  0  0  0
  139.4750   68.6610  224.8390 C   0  0  0  0  0  0  0  0  0  0  0  0
  140.0160   69.0840  226.0300 C   0  0  0  0  0  0  0  0  0  0  0  0
  140.1250   68.2570  227.1110 C   0  0  0  0  0  0  0  0  0  0  0  0
  140.6800   68.7680  228.2600 C   0  0  0  0  0  0  0  0  0  0  0  0
  141.1090   70.0760  228.3090 C   0  0  0  0  0  0  0  0  0  0  0  0
  141.0060   70.9360  227.2130 C   0  0  0  0  0  0  0  0  0  0  0  0
  140.4450   70.3840  226.0830 C   0  0  0  0  0  0  0  0  0  0  0  0
  140.3170   71.1410  225.0100 N   0  0  0  0  0  0  0  0  0  0  0  0
  139.7810   70.7510  223.8080 C   0  0  0  0  0  0  0  0  0  0  0  0
  139.7710   71.7580  222.7930 C   0  0  0  0  0  0  0  0  0  0  0  0
  140.6330   72.1010  221.9070 C   0  0  0  0  0  0  0  0  0  0  0  0
  140.8820   73.5360  221.5950 C   0  0  0  0  0  0  0  0  0  0  0  0
  140.3620   74.6040  222.2120 N   0  0  0  0  0  0  0  0  0  0  0  0
  140.8090   75.7470  221.6630 C   0  0  0  0  0  0  0  0  0  0  0  0
  140.6190   77.0970  221.8820 C   0  0  0  0  0  0  0  0  0  0  0  0
  141.2580   78.0390  221.1030 C   0  0  0  0  0  0  0  0  0  0  0  0
  142.1200   77.6730  220.0650 C   0  0  0  0  0  0  0  0  0  0  0  0
  142.2980   76.3140  219.8620 C   0  0  0  0  0  0  0  0  0  0  0  0
  141.6570   75.3710  220.6440 C   0  0  0  0  0  0  0  0  0  0  0  0
  141.6770   74.0280  220.6310 N   0  0  0  0  0  0  0  0  0  0  0  0
  139.3610   69.4890  223.7490 N   0  0  0  0  0  0  0  0  0  0  0  0
  138.7930   68.9170  222.5770 C   0  0  0  0  0  0  0  0  0  0  0  0
  137.3470   69.2500  222.3810 C   0  0  0  0  0  0  0  0  0  0  0  0
  136.5310   67.9670  222.2720 C   0  0  0  0  0  0  0  0  0  0  0  0
  135.1550   68.1820  222.8170 C   0  0  0  0  0  0  0  0  0  0  0  0
  135.0880   68.5010  224.2100 N   0  0  0  0  0  0  0  0  0  0  0  0
  136.2670   69.2260  224.6350 C   0  0  0  0  0  0  0  0  0  0  0  0
  136.6990   70.0710  223.4390 C   0  0  0  0  0  0  0  0  0  0  0  0
  139.7793   67.2138  227.0638 H   0  0  0  0  0  0  0  0  0  0  0  0
  140.7824   68.1269  229.1480 H   0  0  0  0  0  0  0  0  0  0  0  0
  141.5477   70.4564  229.2432 H   0  0  0  0  0  0  0  0  0  0  0  0
  141.3489   71.9805  227.2500 H   0  0  0  0  0  0  0  0  0  0  0  0
  138.8462   72.3531  222.7668 H   0  0  0  0  0  0  0  0  0  0  0  0
  141.1965   71.3239  221.3698 H   0  0  0  0  0  0  0  0  0  0  0  0
  139.9483   77.4260  222.6894 H   0  0  0  0  0  0  0  0  0  0  0  0
  141.0847   79.1066  221.3038 H   0  0  0  0  0  0  0  0  0  0  0  0
  142.6295   78.4236  219.4429 H   0  0  0  0  0  0  0  0  0  0  0  0
  142.9673   75.9762  219.0570 H   0  0  0  0  0  0  0  0  0  0  0  0
  142.2270   73.4110  219.9730 H   0  0  0  0  0  0  0  0  0  0  0  0
  139.3545   69.2839  221.7051 H   0  0  0  0  0  0  0  0  0  0  0  0
  138.8573   67.8248  222.6906 H   0  0  0  0  0  0  0  0  0  0  0  0
  137.3526   69.8590  221.4649 H   0  0  0  0  0  0  0  0  0  0  0  0
  136.4609   67.6697  221.2153 H   0  0  0  0  0  0  0  0  0  0  0  0
  137.0274   67.1756  222.8527 H   0  0  0  0  0  0  0  0  0  0  0  0
  134.6940   69.0091  222.2572 H   0  0  0  0  0  0  0  0  0  0  0  0
  134.6305   67.2221  222.7011 H   0  0  0  0  0  0  0  0  0  0  0  0
  134.2730   69.1160  224.4420 H   0  0  0  0  0  0  0  0  0  0  0  0
  136.0292   69.8721  225.4929 H   0  0  0  0  0  0  0  0  0  0  0  0
  137.0669   68.5411  224.9528 H   0  0  0  0  0  0  0  0  0  0  0  0
  135.8122   70.5632  223.0132 H   0  0  0  0  0  0  0  0  0  0  0  0
  137.4331   70.8099  223.7927 H   0  0  0  0  0  0  0  0  0  0  0  0
  1  2  2  0
  2  3  1  0
  3  4  2  0
  4  5  1  0
  5  6  2  0
  6  7  1  0
  7  8  2  0
  8  9  1  0
  9 10  2  0
 10 11  1  0
 11 12  2  0
 12 13  1  0
 13 14  2  0
 14 15  1  0
 15 16  2  0
 16 17  1  0
 17 18  2  0
 18 19  1  0
 19 20  2  0
 20 21  1  0
 10 22  1  0
 22 23  1  0
 23 24  1  0
 24 25  1  0
 25 26  1  0
 26 27  1  0
 27 28  1  0
 28 29  1  0
 22  2  1  0
 29 24  1  0
  8  3  1  0
 21 13  1  0
 20 15  1  0
  4 30  1  0
  5 31  1  0
  6 32  1  0
  7 33  1  0
 11 34  1  0
 12 35  1  0
 16 36  1  0
 17 37  1  0
 18 38  1  0
 19 39  1  0
 21 40  1  0
 23 41  1  0
 23 42  1  0
 24 43  1  0
 25 44  1  0
 25 45  1  0
 26 46  1  0
 26 47  1  0
 27 48  1  0
 28 49  1  0
 28 50  1  0
 29 51  1  0
 29 52  1  0
M  END
>  <smiles>  (10) 
O=c1c2ccccc2nc(/C=C/c2nc3ccccc3[nH]2)n1CC1CCNCC1

>  <score_type>  (10) 
oracle

>  <origin>  (10) 
autodockgpu

>  <m_score__min__energy>  (10) 
-9.1300000000000008

>  <m_primary>  (10) 
energy

>  <rmsd>  (10) 
12.362009600754325

>  <m_score__min__rmsd>  (10) 
12.362009600754325

>  <meeko>  (10) 
{"free_energy": -8.75, "intermolecular_energy": -10.24, "internal_energy": -1.11, "cluster_size": 30, "cluster_id": 1, "rank_in_cluster": 24}

>  <energy>  (10) 
-8.97

>  <cluster_rmsd>  (10) 
0.42

>  <cluster>  (10) 
1

$$$$

     RDKit          3D

 52 56  0  0  0  0  0  0  0  0999 V2000
  142.6660   75.0930  219.1210 O   0  0  0  0  0  0  0  0  0  0  0  0
  141.8660   74.6690  219.9980 C   0  0  0  0  0  0  0  0  0  0  0  0
  141.3390   75.6180  220.8420 C   0  0  0  0  0  0  0  0  0  0  0  0
  141.6660   76.9400  220.7400 C   0  0  0  0  0  0  0  0  0  0  0  0
  141.0890   77.8170  221.6270 C   0  0  0  0  0  0  0  0  0  0  0  0
  140.2100   77.3650  222.5870 C   0  0  0  0  0  0  0  0  0  0  0  0
  139.8650   76.0170  222.7060 C   0  0  0  0  0  0  0  0  0  0  0  0
  140.4650   75.1740  221.7970 C   0  0  0  0  0  0  0  0  0  0  0  0
  140.1820   73.8860  221.8530 N   0  0  0  0  0  0  0  0  0  0  0  0
  140.6900   72.9140  221.0290 C   0  0  0  0  0  0  0  0  0  0  0  0
  140.2130   71.5900  221.2850 C   0  0  0  0  0  0  0  0  0  0  0  0
  139.3880   71.1210  222.1490 C   0  0  0  0  0  0  0  0  0  0  0  0
  139.7510   71.0410  223.5900 C   0  0  0  0  0  0  0  0  0  0  0  0
  139.5870   69.9980  224.4130 N   0  0  0  0  0  0  0  0  0  0  0  0
  140.0310   70.2820  225.6500 C   0  0  0  0  0  0  0  0  0  0  0  0
  140.1110   69.6140  226.8560 C   0  0  0  0  0  0  0  0  0  0  0  0
  140.6420   70.2250  227.9730 C   0  0  0  0  0  0  0  0  0  0  0  0
  141.1200   71.5390  227.9340 C   0  0  0  0  0  0  0  0  0  0  0  0
  141.0300   72.1910  226.7150 C   0  0  0  0  0  0  0  0  0  0  0  0
  140.4980   71.5770  225.5980 C   0  0  0  0  0  0  0  0  0  0  0  0
  140.3130   72.0050  224.3380 N   0  0  0  0  0  0  0  0  0  0  0  0
  141.5420   73.3370  220.0970 N   0  0  0  0  0  0  0  0  0  0  0  0
  142.1510   72.4670  219.1520 C   0  0  0  0  0  0  0  0  0  0  0  0
  143.1840   71.5590  219.7420 C   0  0  0  0  0  0  0  0  0  0  0  0
  144.2430   71.2300  218.6960 C   0  0  0  0  0  0  0  0  0  0  0  0
  145.5690   71.0130  219.3540 C   0  0  0  0  0  0  0  0  0  0  0  0
  146.1130   72.1500  220.0300 N   0  0  0  0  0  0  0  0  0  0  0  0
  145.0610   72.9980  220.5530 C   0  0  0  0  0  0  0  0  0  0  0  0
  143.9150   72.0630  220.9360 C   0  0  0  0  0  0  0  0  0  0  0  0
  142.3697   77.2922  219.9714 H   0  0  0  0  0  0  0  0  0  0  0  0
  141.3309   78.8886  221.5701 H   0  0  0  0  0  0  0  0  0  0  0  0
  139.7648   78.0907  223.2835 H   0  0  0  0  0  0  0  0  0  0  0  0
  139.1636   75.6541  223.4717 H   0  0  0  0  0  0  0  0  0  0  0  0
  140.6339   70.8279  220.6126 H   0  0  0  0  0  0  0  0  0  0  0  0
  138.3979   70.7730  221.8195 H   0  0  0  0  0  0  0  0  0  0  0  0
  139.7457   68.5789  226.9270 H   0  0  0  0  0  0  0  0  0  0  0  0
  140.6908   69.6647  228.9183 H   0  0  0  0  0  0  0  0  0  0  0  0
  141.5444   72.0282  228.8232 H   0  0  0  0  0  0  0  0  0  0  0  0
  141.3923   73.2265  226.6344 H   0  0  0  0  0  0  0  0  0  0  0  0
  140.5610   72.9570  223.9510 H   0  0  0  0  0  0  0  0  0  0  0  0
  141.3654   71.8473  218.6951 H   0  0  0  0  0  0  0  0  0  0  0  0
  142.6669   73.1034  218.4180 H   0  0  0  0  0  0  0  0  0  0  0  0
  142.5944   70.6912  220.0726 H   0  0  0  0  0  0  0  0  0  0  0  0
  143.9506   70.3163  218.1577 H   0  0  0  0  0  0  0  0  0  0  0  0
  144.3251   72.0708  217.9915 H   0  0  0  0  0  0  0  0  0  0  0  0
  145.4539   70.2038  220.0901 H   0  0  0  0  0  0  0  0  0  0  0  0
  146.2741   70.7770  218.5433 H   0  0  0  0  0  0  0  0  0  0  0  0
  146.7020   71.8830  220.8540 H   0  0  0  0  0  0  0  0  0  0  0  0
  145.4173   73.5473  221.4369 H   0  0  0  0  0  0  0  0  0  0  0  0
  144.7402   73.7445  219.8114 H   0  0  0  0  0  0  0  0  0  0  0  0
  144.3260   71.2055  221.4889 H   0  0  0  0  0  0  0  0  0  0  0  0
  143.2047   72.6316  221.5542 H   0  0  0  0  0  0  0  0  0  0  0  0
  1  2  2  0
  2  3  1  0
  3  4  2  0
  4  5  1  0
  5  6  2  0
  6  7  1  0
  7  8  2  0
  8  9  1  0
  9 10  2  0
 10 11  1  0
 11 12  2  0
 12 13  1  0
 13 14  2  0
 14 15  1  0
 15 16  2  0
 16 17  1  0
 17 18  2  0
 18 19  1  0
 19 20  2  0
 20 21  1  0
 10 22  1  0
 22 23  1  0
 23 24  1  0
 24 25  1  0
 25 26  1  0
 26 27  1  0
 27 28  1  0
 28 29  1  0
 22  2  1  0
 29 24  1  0
  8  3  1  0
 21 13  1  0
 20 15  1  0
  4 30  1  0
  5 31  1  0
  6 32  1  0
  7 33  1  0
 11 34  1  0
 12 35  1  0
 16 36  1  0
 17 37  1  0
 18 38  1  0
 19 39  1  0
 21 40  1  0
 23 41  1  0
 23 42  1  0
 24 43  1  0
 25 44  1  0
 25 45  1  0
 26 46  1  0
 26 47  1  0
 27 48  1  0
 28 49  1  0
 28 50  1  0
 29 51  1  0
 29 52  1  0
M  END
>  <smiles>  (11) 
O=c1c2ccccc2nc(/C=C/c2nc3ccccc3[nH]2)n1CC1CCNCC1

>  <score_type>  (11) 
oracle

>  <origin>  (11) 
autodockgpu

>  <m_score__min__energy>  (11) 
-9.1300000000000008

>  <m_primary>  (11) 
energy

>  <rmsd>  (11) 
8.309305019191846

>  <m_score__min__rmsd>  (11) 
8.309305019191846

>  <meeko>  (11) 
{"free_energy": -8.28, "intermolecular_energy": -9.77, "internal_energy": -1.82, "cluster_size": 17, "cluster_id": 2, "rank_in_cluster": 16}

>  <energy>  (11) 
-8.95

>  <cluster_rmsd>  (11) 
0.49

>  <cluster>  (11) 
1

$$$$

     RDKit          3D

 52 56  0  0  0  0  0  0  0  0999 V2000
  139.1690   67.3950  224.7940 O   0  0  0  0  0  0  0  0  0  0  0  0
  139.5660   68.5710  225.0160 C   0  0  0  0  0  0  0  0  0  0  0  0
  140.0910   68.8040  226.2640 C   0  0  0  0  0  0  0  0  0  0  0  0
  140.1730   67.8230  227.2110 C   0  0  0  0  0  0  0  0  0  0  0  0
  140.7130   68.1490  228.4320 C   0  0  0  0  0  0  0  0  0  0  0  0
  141.1550   69.4300  228.6830 C   0  0  0  0  0  0  0  0  0  0  0  0
  141.0790   70.4460  227.7270 C   0  0  0  0  0  0  0  0  0  0  0  0
  140.5320   70.0750  226.5180 C   0  0  0  0  0  0  0  0  0  0  0  0
  140.4300   70.9860  225.5680 N   0  0  0  0  0  0  0  0  0  0  0  0
  139.9110   70.7870  224.3140 C   0  0  0  0  0  0  0  0  0  0  0  0
  139.9280   71.9350  223.4610 C   0  0  0  0  0  0  0  0  0  0  0  0
  140.1760   72.0790  222.2110 C   0  0  0  0  0  0  0  0  0  0  0  0
  140.7430   73.3500  221.6840 C   0  0  0  0  0  0  0  0  0  0  0  0
  140.3440   74.5980  221.9660 N   0  0  0  0  0  0  0  0  0  0  0  0
  141.0860   75.5050  221.3080 C   0  0  0  0  0  0  0  0  0  0  0  0
  141.1260   76.8820  221.2180 C   0  0  0  0  0  0  0  0  0  0  0  0
  142.0520   77.5150  220.4160 C   0  0  0  0  0  0  0  0  0  0  0  0
  142.9870   76.7970  219.6630 C   0  0  0  0  0  0  0  0  0  0  0  0
  142.9310   75.4160  219.7670 C   0  0  0  0  0  0  0  0  0  0  0  0
  142.0020   74.7840  220.5710 C   0  0  0  0  0  0  0  0  0  0  0  0
  141.7650   73.4850  220.8230 N   0  0  0  0  0  0  0  0  0  0  0  0
  139.4800   69.5530  224.0590 N   0  0  0  0  0  0  0  0  0  0  0  0
  138.9270   69.1700  222.8070 C   0  0  0  0  0  0  0  0  0  0  0  0
  137.4870   69.5450  222.6400 C   0  0  0  0  0  0  0  0  0  0  0  0
  136.6560   68.2970  222.3670 C   0  0  0  0  0  0  0  0  0  0  0  0
  135.2770   68.4630  222.9220 C   0  0  0  0  0  0  0  0  0  0  0  0
  135.1990   68.6080  224.3430 N   0  0  0  0  0  0  0  0  0  0  0  0
  136.3830   69.2590  224.8650 C   0  0  0  0  0  0  0  0  0  0  0  0
  136.8390   70.2390  223.7860 C   0  0  0  0  0  0  0  0  0  0  0  0
  139.8176   66.8031  227.0026 H   0  0  0  0  0  0  0  0  0  0  0  0
  140.7931   67.3811  229.2155 H   0  0  0  0  0  0  0  0  0  0  0  0
  141.5824   69.6605  229.6700 H   0  0  0  0  0  0  0  0  0  0  0  0
  141.4308   71.4692  227.9254 H   0  0  0  0  0  0  0  0  0  0  0  0
  139.6809   72.8750  223.9761 H   0  0  0  0  0  0  0  0  0  0  0  0
  139.9665   71.2507  221.5181 H   0  0  0  0  0  0  0  0  0  0  0  0
  140.4081   77.4835  221.7950 H   0  0  0  0  0  0  0  0  0  0  0  0
  142.0556   78.6139  220.3670 H   0  0  0  0  0  0  0  0  0  0  0  0
  143.7264   77.3009  219.0232 H   0  0  0  0  0  0  0  0  0  0  0  0
  143.6455   74.8068  219.1940 H   0  0  0  0  0  0  0  0  0  0  0  0
  142.2860   72.6590  220.4200 H   0  0  0  0  0  0  0  0  0  0  0  0
  139.5066   69.6568  222.0088 H   0  0  0  0  0  0  0  0  0  0  0  0
  138.9791   68.0724  222.7571 H   0  0  0  0  0  0  0  0  0  0  0  0
  137.5096   70.2613  221.8055 H   0  0  0  0  0  0  0  0  0  0  0  0
  136.5933   68.1326  221.2812 H   0  0  0  0  0  0  0  0  0  0  0  0
  137.1359   67.4334  222.8505 H   0  0  0  0  0  0  0  0  0  0  0  0
  134.8332   69.3597  222.4649 H   0  0  0  0  0  0  0  0  0  0  0  0
  134.7410   67.5325  222.6832 H   0  0  0  0  0  0  0  0  0  0  0  0
  134.3910   69.2020  224.6420 H   0  0  0  0  0  0  0  0  0  0  0  0
  136.1441   69.7979  225.7937 H   0  0  0  0  0  0  0  0  0  0  0  0
  137.1706   68.5290  225.1032 H   0  0  0  0  0  0  0  0  0  0  0  0
  135.9635   70.7930  223.4165 H   0  0  0  0  0  0  0  0  0  0  0  0
  137.5793   70.9178  224.2346 H   0  0  0  0  0  0  0  0  0  0  0  0
  1  2  2  0
  2  3  1  0
  3  4  2  0
  4  5  1  0
  5  6  2  0
  6  7  1  0
  7  8  2  0
  8  9  1  0
  9 10  2  0
 10 11  1  0
 11 12  2  0
 12 13  1  0
 13 14  2  0
 14 15  1  0
 15 16  2  0
 16 17  1  0
 17 18  2  0
 18 19  1  0
 19 20  2  0
 20 21  1  0
 10 22  1  0
 22 23  1  0
 23 24  1  0
 24 25  1  0
 25 26  1  0
 26 27  1  0
 27 28  1  0
 28 29  1  0
 22  2  1  0
 29 24  1  0
  8  3  1  0
 21 13  1  0
 20 15  1  0
  4 30  1  0
  5 31  1  0
  6 32  1  0
  7 33  1  0
 11 34  1  0
 12 35  1  0
 16 36  1  0
 17 37  1  0
 18 38  1  0
 19 39  1  0
 21 40  1  0
 23 41  1  0
 23 42  1  0
 24 43  1  0
 25 44  1  0
 25 45  1  0
 26 46  1  0
 26 47  1  0
 27 48  1  0
 28 49  1  0
 28 50  1  0
 29 51  1  0
 29 52  1  0
M  END
>  <smiles>  (12) 
O=c1c2ccccc2nc(/C=C/c2nc3ccccc3[nH]2)n1CC1CCNCC1

>  <score_type>  (12) 
oracle

>  <origin>  (12) 
autodockgpu

>  <m_score__min__energy>  (12) 
-9.1300000000000008

>  <m_primary>  (12) 
energy

>  <rmsd>  (12) 
12.433573509021413

>  <m_score__min__rmsd>  (12) 
12.433573509021413

>  <meeko>  (12) 
{"free_energy": -8.79, "intermolecular_energy": -10.28, "internal_energy": -1.07, "cluster_size": 30, "cluster_id": 1, "rank_in_cluster": 23}

>  <energy>  (12) 
-8.95

>  <cluster_rmsd>  (12) 
1.21

>  <cluster>  (12) 
1

$$$$

     RDKit          3D

 52 56  0  0  0  0  0  0  0  0999 V2000
  139.0680   67.8360  225.3100 O   0  0  0  0  0  0  0  0  0  0  0  0
  139.4380   69.0160  225.0630 C   0  0  0  0  0  0  0  0  0  0  0  0
  139.9830   69.7090  226.1170 C   0  0  0  0  0  0  0  0  0  0  0  0
  140.1110   69.1570  227.3590 C   0  0  0  0  0  0  0  0  0  0  0  0
  140.6680   69.9270  228.3530 C   0  0  0  0  0  0  0  0  0  0  0  0
  141.0790   71.2150  228.0920 C   0  0  0  0  0  0  0  0  0  0  0  0
  140.9560   71.7960  226.8280 C   0  0  0  0  0  0  0  0  0  0  0  0
  140.3940   70.9910  225.8630 C   0  0  0  0  0  0  0  0  0  0  0  0
  140.2470   71.4770  224.6450 N   0  0  0  0  0  0  0  0  0  0  0  0
  139.7080   70.8130  223.5720 C   0  0  0  0  0  0  0  0  0  0  0  0
  139.6760   71.5570  222.3510 C   0  0  0  0  0  0  0  0  0  0  0  0
  140.6030   72.0610  221.6220 C   0  0  0  0  0  0  0  0  0  0  0  0
  140.7940   73.5350  221.5370 C   0  0  0  0  0  0  0  0  0  0  0  0
  140.2500   74.4720  222.3240 N   0  0  0  0  0  0  0  0  0  0  0  0
  140.6450   75.7030  221.9550 C   0  0  0  0  0  0  0  0  0  0  0  0
  140.4120   76.9940  222.3870 C   0  0  0  0  0  0  0  0  0  0  0  0
  141.0000   78.0710  221.7570 C   0  0  0  0  0  0  0  0  0  0  0  0
  141.8520   77.9060  220.6600 C   0  0  0  0  0  0  0  0  0  0  0  0
  142.0730   76.6030  220.2430 C   0  0  0  0  0  0  0  0  0  0  0  0
  141.4830   75.5260  220.8750 C   0  0  0  0  0  0  0  0  0  0  0  0
  141.5500   74.2030  220.6500 N   0  0  0  0  0  0  0  0  0  0  0  0
  139.3050   69.5660  223.8110 N   0  0  0  0  0  0  0  0  0  0  0  0
  138.7360   68.7310  222.8100 C   0  0  0  0  0  0  0  0  0  0  0  0
  137.3270   69.0870  222.4540 C   0  0  0  0  0  0  0  0  0  0  0  0
  136.4860   67.8200  222.3450 C   0  0  0  0  0  0  0  0  0  0  0  0
  135.0710   68.1040  222.7400 C   0  0  0  0  0  0  0  0  0  0  0  0
  134.8810   68.5130  224.0980 N   0  0  0  0  0  0  0  0  0  0  0  0
  136.0360   69.2350  224.5910 C   0  0  0  0  0  0  0  0  0  0  0  0
  136.6060   69.9900  223.3920 C   0  0  0  0  0  0  0  0  0  0  0  0
  139.7787   68.1276  227.5586 H   0  0  0  0  0  0  0  0  0  0  0  0
  140.7861   69.5108  229.3643 H   0  0  0  0  0  0  0  0  0  0  0  0
  141.5196   71.8071  228.9077 H   0  0  0  0  0  0  0  0  0  0  0  0
  141.2850   72.8245  226.6183 H   0  0  0  0  0  0  0  0  0  0  0  0
  138.6615   71.7302  221.9626 H   0  0  0  0  0  0  0  0  0  0  0  0
  141.2665   71.3946  221.0513 H   0  0  0  0  0  0  0  0  0  0  0  0
  139.7474   77.1659  223.2465 H   0  0  0  0  0  0  0  0  0  0  0  0
  140.7935   79.0861  222.1269 H   0  0  0  0  0  0  0  0  0  0  0  0
  142.3211   78.7638  220.1558 H   0  0  0  0  0  0  0  0  0  0  0  0
  142.7367   76.4215  219.3848 H   0  0  0  0  0  0  0  0  0  0  0  0
  142.1060   73.7190  219.8930 H   0  0  0  0  0  0  0  0  0  0  0  0
  139.3528   68.8083  221.9025 H   0  0  0  0  0  0  0  0  0  0  0  0
  138.7142   67.7103  223.2195 H   0  0  0  0  0  0  0  0  0  0  0  0
  137.4391   69.6361  221.5075 H   0  0  0  0  0  0  0  0  0  0  0  0
  136.5077   67.4576  221.3066 H   0  0  0  0  0  0  0  0  0  0  0  0
  136.9002   67.0550  223.0183 H   0  0  0  0  0  0  0  0  0  0  0  0
  134.6915   68.9050  222.0885 H   0  0  0  0  0  0  0  0  0  0  0  0
  134.5305   67.1519  222.6328 H   0  0  0  0  0  0  0  0  0  0  0  0
  134.0680   69.1620  224.2120 H   0  0  0  0  0  0  0  0  0  0  0  0
  135.7370   69.9409  225.3798 H   0  0  0  0  0  0  0  0  0  0  0  0
  136.7804   68.5529  225.0277 H   0  0  0  0  0  0  0  0  0  0  0  0
  135.7792   70.4752  222.8525 H   0  0  0  0  0  0  0  0  0  0  0  0
  137.3256   70.7316  223.7692 H   0  0  0  0  0  0  0  0  0  0  0  0
  1  2  2  0
  2  3  1  0
  3  4  2  0
  4  5  1  0
  5  6  2  0
  6  7  1  0
  7  8  2  0
  8  9  1  0
  9 10  2  0
 10 11  1  0
 11 12  2  0
 12 13  1  0
 13 14  2  0
 14 15  1  0
 15 16  2  0
 16 17  1  0
 17 18  2  0
 18 19  1  0
 19 20  2  0
 20 21  1  0
 10 22  1  0
 22 23  1  0
 23 24  1  0
 24 25  1  0
 25 26  1  0
 26 27  1  0
 27 28  1  0
 28 29  1  0
 22  2  1  0
 29 24  1  0
  8  3  1  0
 21 13  1  0
 20 15  1  0
  4 30  1  0
  5 31  1  0
  6 32  1  0
  7 33  1  0
 11 34  1  0
 12 35  1  0
 16 36  1  0
 17 37  1  0
 18 38  1  0
 19 39  1  0
 21 40  1  0
 23 41  1  0
 23 42  1  0
 24 43  1  0
 25 44  1  0
 25 45  1  0
 26 46  1  0
 26 47  1  0
 27 48  1  0
 28 49  1  0
 28 50  1  0
 29 51  1  0
 29 52  1  0
M  END
>  <smiles>  (13) 
O=c1c2ccccc2nc(/C=C/c2nc3ccccc3[nH]2)n1CC1CCNCC1

>  <score_type>  (13) 
oracle

>  <origin>  (13) 
autodockgpu

>  <m_score__min__energy>  (13) 
-9.1300000000000008

>  <m_primary>  (13) 
energy

>  <rmsd>  (13) 
12.235527133561128

>  <m_score__min__rmsd>  (13) 
12.235527133561128

>  <meeko>  (13) 
{"free_energy": -8.95, "intermolecular_energy": -10.44, "internal_energy": -1.16, "cluster_size": 30, "cluster_id": 1, "rank_in_cluster": 13}

>  <energy>  (13) 
-8.95

>  <cluster_rmsd>  (13) 
1.21

>  <cluster>  (13) 
1

$$$$

     RDKit          3D

 52 56  0  0  0  0  0  0  0  0999 V2000
  142.7060   74.9470  218.9460 O   0  0  0  0  0  0  0  0  0  0  0  0
  141.9260   74.7720  219.9210 C   0  0  0  0  0  0  0  0  0  0  0  0
  141.6460   75.8860  220.6760 C   0  0  0  0  0  0  0  0  0  0  0  0
  142.1850   77.1080  220.3920 C   0  0  0  0  0  0  0  0  0  0  0  0
  141.8480   78.1650  221.2030 C   0  0  0  0  0  0  0  0  0  0  0  0
  140.9930   77.9860  222.2680 C   0  0  0  0  0  0  0  0  0  0  0  0
  140.4320   76.7440  222.5730 C   0  0  0  0  0  0  0  0  0  0  0  0
  140.7960   75.7130  221.7350 C   0  0  0  0  0  0  0  0  0  0  0  0
  140.3030   74.5110  221.9660 N   0  0  0  0  0  0  0  0  0  0  0  0
  140.5620   73.3790  221.2330 C   0  0  0  0  0  0  0  0  0  0  0  0
  139.8880   72.2000  221.6800 C   0  0  0  0  0  0  0  0  0  0  0  0
  140.3070   71.1270  222.2460 C   0  0  0  0  0  0  0  0  0  0  0  0
  140.3450   71.0090  223.7300 C   0  0  0  0  0  0  0  0  0  0  0  0
  140.7530   71.9330  224.6090 N   0  0  0  0  0  0  0  0  0  0  0  0
  140.6500   71.4810  225.8710 C   0  0  0  0  0  0  0  0  0  0  0  0
  140.9140   71.9790  227.1310 C   0  0  0  0  0  0  0  0  0  0  0  0
  140.6850   71.2180  228.2580 C   0  0  0  0  0  0  0  0  0  0  0  0
  140.1770   69.9180  228.1760 C   0  0  0  0  0  0  0  0  0  0  0  0
  139.9190   69.4360  226.9030 C   0  0  0  0  0  0  0  0  0  0  0  0
  140.1490   70.2000  225.7750 C   0  0  0  0  0  0  0  0  0  0  0  0
  139.9780   69.9480  224.4670 N   0  0  0  0  0  0  0  0  0  0  0  0
  141.3880   73.5400  220.2020 N   0  0  0  0  0  0  0  0  0  0  0  0
  141.7530   72.4770  219.3300 C   0  0  0  0  0  0  0  0  0  0  0  0
  142.8130   71.5770  219.8840 C   0  0  0  0  0  0  0  0  0  0  0  0
  143.7760   71.1700  218.7750 C   0  0  0  0  0  0  0  0  0  0  0  0
  145.1470   70.9570  219.3340 C   0  0  0  0  0  0  0  0  0  0  0  0
  145.7660   72.1140  219.9030 N   0  0  0  0  0  0  0  0  0  0  0  0
  144.7770   73.0110  220.4630 C   0  0  0  0  0  0  0  0  0  0  0  0
  143.6490   72.1250  220.9860 C   0  0  0  0  0  0  0  0  0  0  0  0
  142.8680   77.2422  219.5402 H   0  0  0  0  0  0  0  0  0  0  0  0
  142.2646   79.1626  220.9999 H   0  0  0  0  0  0  0  0  0  0  0  0
  140.7435   78.8511  222.9000 H   0  0  0  0  0  0  0  0  0  0  0  0
  139.7480   76.5992  223.4222 H   0  0  0  0  0  0  0  0  0  0  0  0
  138.8021   72.2155  221.5053 H   0  0  0  0  0  0  0  0  0  0  0  0
  140.6428   70.2826  221.6262 H   0  0  0  0  0  0  0  0  0  0  0  0
  141.3132   72.9984  227.2378 H   0  0  0  0  0  0  0  0  0  0  0  0
  140.9078   71.6448  229.2470 H   0  0  0  0  0  0  0  0  0  0  0  0
  139.9921   69.3104  229.0741 H   0  0  0  0  0  0  0  0  0  0  0  0
  139.5202   68.4174  226.7872 H   0  0  0  0  0  0  0  0  0  0  0  0
  139.6080   69.0550  224.0390 H   0  0  0  0  0  0  0  0  0  0  0  0
  140.8568   71.8726  219.1262 H   0  0  0  0  0  0  0  0  0  0  0  0
  142.1670   72.9369  218.4205 H   0  0  0  0  0  0  0  0  0  0  0  0
  142.2360   70.7421  220.3083 H   0  0  0  0  0  0  0  0  0  0  0  0
  143.4233   70.2366  218.3119 H   0  0  0  0  0  0  0  0  0  0  0  0
  143.8157   71.9710  218.0221 H   0  0  0  0  0  0  0  0  0  0  0  0
  145.0777   70.1892  220.1186 H   0  0  0  0  0  0  0  0  0  0  0  0
  145.7786   70.6644  218.4822 H   0  0  0  0  0  0  0  0  0  0  0  0
  146.4150   71.8760  220.6900 H   0  0  0  0  0  0  0  0  0  0  0  0
  145.2147   73.5966  221.2849 H   0  0  0  0  0  0  0  0  0  0  0  0
  144.4109   73.7253  219.7108 H   0  0  0  0  0  0  0  0  0  0  0  0
  144.0872   71.2878  221.5491 H   0  0  0  0  0  0  0  0  0  0  0  0
  143.0027   72.7418  221.6278 H   0  0  0  0  0  0  0  0  0  0  0  0
  1  2  2  0
  2  3  1  0
  3  4  2  0
  4  5  1  0
  5  6  2  0
  6  7  1  0
  7  8  2  0
  8  9  1  0
  9 10  2  0
 10 11  1  0
 11 12  2  0
 12 13  1  0
 13 14  2  0
 14 15  1  0
 15 16  2  0
 16 17  1  0
 17 18  2  0
 18 19  1  0
 19 20  2  0
 20 21  1  0
 10 22  1  0
 22 23  1  0
 23 24  1  0
 24 25  1  0
 25 26  1  0
 26 27  1  0
 27 28  1  0
 28 29  1  0
 22  2  1  0
 29 24  1  0
  8  3  1  0
 21 13  1  0
 20 15  1  0
  4 30  1  0
  5 31  1  0
  6 32  1  0
  7 33  1  0
 11 34  1  0
 12 35  1  0
 16 36  1  0
 17 37  1  0
 18 38  1  0
 19 39  1  0
 21 40  1  0
 23 41  1  0
 23 42  1  0
 24 43  1  0
 25 44  1  0
 25 45  1  0
 26 46  1  0
 26 47  1  0
 27 48  1  0
 28 49  1  0
 28 50  1  0
 29 51  1  0
 29 52  1  0
M  END
>  <smiles>  (14) 
O=c1c2ccccc2nc(/C=C/c2nc3ccccc3[nH]2)n1CC1CCNCC1

>  <score_type>  (14) 
oracle

>  <origin>  (14) 
autodockgpu

>  <m_score__min__energy>  (14) 
-9.1300000000000008

>  <m_primary>  (14) 
energy

>  <rmsd>  (14) 
8.227601714623837

>  <m_score__min__rmsd>  (14) 
8.227601714623837

>  <meeko>  (14) 
{"free_energy": -8.55, "intermolecular_energy": -10.04, "internal_energy": -1.33, "cluster_size": 17, "cluster_id": 2, "rank_in_cluster": 11}

>  <energy>  (14) 
-8.94

>  <cluster_rmsd>  (14) 
1.03

>  <cluster>  (14) 
1

$$$$

     RDKit          3D

 52 56  0  0  0  0  0  0  0  0999 V2000
  139.1970   67.7380  224.8110 O   0  0  0  0  0  0  0  0  0  0  0  0
  139.4380   68.9750  224.8510 C   0  0  0  0  0  0  0  0  0  0  0  0
  139.9920   69.4430  226.0190 C   0  0  0  0  0  0  0  0  0  0  0  0
  140.2600   68.6200  227.0740 C   0  0  0  0  0  0  0  0  0  0  0  0
  140.8140   69.1770  228.2030 C   0  0  0  0  0  0  0  0  0  0  0  0
  141.0860   70.5260  228.2550 C   0  0  0  0  0  0  0  0  0  0  0  0
  140.8180   71.3830  227.1860 C   0  0  0  0  0  0  0  0  0  0  0  0
  140.2640   70.7840  226.0760 C   0  0  0  0  0  0  0  0  0  0  0  0
  139.9850   71.5350  225.0280 N   0  0  0  0  0  0  0  0  0  0  0  0
  139.4330   71.1010  223.8490 C   0  0  0  0  0  0  0  0  0  0  0  0
  139.2440   72.1140  222.8580 C   0  0  0  0  0  0  0  0  0  0  0  0
  139.6260   72.2100  221.6370 C   0  0  0  0  0  0  0  0  0  0  0  0
  141.0450   72.5040  221.2980 C   0  0  0  0  0  0  0  0  0  0  0  0
  142.0370   71.6220  221.1160 N   0  0  0  0  0  0  0  0  0  0  0  0
  143.1910   72.2440  220.8210 C   0  0  0  0  0  0  0  0  0  0  0  0
  144.4870   71.8580  220.5440 C   0  0  0  0  0  0  0  0  0  0  0  0
  145.4650   72.7930  220.2750 C   0  0  0  0  0  0  0  0  0  0  0  0
  145.1900   74.1640  220.2710 C   0  0  0  0  0  0  0  0  0  0  0  0
  143.8840   74.5310  220.5500 C   0  0  0  0  0  0  0  0  0  0  0  0
  142.9060   73.5930  220.8200 C   0  0  0  0  0  0  0  0  0  0  0  0
  141.6000   73.7130  221.1120 N   0  0  0  0  0  0  0  0  0  0  0  0
  139.1640   69.7980  223.7860 N   0  0  0  0  0  0  0  0  0  0  0  0
  138.6040   69.1790  222.6360 C   0  0  0  0  0  0  0  0  0  0  0  0
  137.1350   69.4200  222.4730 C   0  0  0  0  0  0  0  0  0  0  0  0
  136.4010   68.0880  222.3760 C   0  0  0  0  0  0  0  0  0  0  0  0
  135.0260   68.2130  222.9530 C   0  0  0  0  0  0  0  0  0  0  0  0
  134.9700   68.5220  224.3490 N   0  0  0  0  0  0  0  0  0  0  0  0
  136.1100   69.3190  224.7510 C   0  0  0  0  0  0  0  0  0  0  0  0
  136.4600   70.1940  223.5500 C   0  0  0  0  0  0  0  0  0  0  0  0
  140.0396   67.5435  227.0230 H   0  0  0  0  0  0  0  0  0  0  0  0
  141.0414   68.5403  229.0707 H   0  0  0  0  0  0  0  0  0  0  0  0
  141.5300   70.9429  229.1710 H   0  0  0  0  0  0  0  0  0  0  0  0
  141.0340   72.4608  227.2271 H   0  0  0  0  0  0  0  0  0  0  0  0
  138.6589   72.9765  223.2099 H   0  0  0  0  0  0  0  0  0  0  0  0
  138.8933   72.0729  220.8281 H   0  0  0  0  0  0  0  0  0  0  0  0
  144.7439   70.7884  220.5377 H   0  0  0  0  0  0  0  0  0  0  0  0
  146.4878   72.4511  220.0580 H   0  0  0  0  0  0  0  0  0  0  0  0
  145.9690   74.9108  220.0577 H   0  0  0  0  0  0  0  0  0  0  0  0
  143.6181   75.5983  220.5568 H   0  0  0  0  0  0  0  0  0  0  0  0
  141.0510   74.6120  221.1930 H   0  0  0  0  0  0  0  0  0  0  0  0
  139.1200   69.5694  221.7464 H   0  0  0  0  0  0  0  0  0  0  0  0
  138.7383   68.0942  222.7594 H   0  0  0  0  0  0  0  0  0  0  0  0
  137.0807   70.0313  221.5601 H   0  0  0  0  0  0  0  0  0  0  0  0
  136.3262   67.7903  221.3197 H   0  0  0  0  0  0  0  0  0  0  0  0
  136.9600   67.3279  222.9415 H   0  0  0  0  0  0  0  0  0  0  0  0
  134.5009   69.0111  222.4078 H   0  0  0  0  0  0  0  0  0  0  0  0
  134.5613   67.2220  222.8440 H   0  0  0  0  0  0  0  0  0  0  0  0
  134.1240   69.0830  224.6020 H   0  0  0  0  0  0  0  0  0  0  0  0
  135.8512   69.9456  225.6173 H   0  0  0  0  0  0  0  0  0  0  0  0
  136.9588   68.6852  225.0472 H   0  0  0  0  0  0  0  0  0  0  0  0
  135.5342   70.6302  223.1468 H   0  0  0  0  0  0  0  0  0  0  0  0
  137.1536   70.9767  223.8910 H   0  0  0  0  0  0  0  0  0  0  0  0
  1  2  2  0
  2  3  1  0
  3  4  2  0
  4  5  1  0
  5  6  2  0
  6  7  1  0
  7  8  2  0
  8  9  1  0
  9 10  2  0
 10 11  1  0
 11 12  2  0
 12 13  1  0
 13 14  2  0
 14 15  1  0
 15 16  2  0
 16 17  1  0
 17 18  2  0
 18 19  1  0
 19 20  2  0
 20 21  1  0
 10 22  1  0
 22 23  1  0
 23 24  1  0
 24 25  1  0
 25 26  1  0
 26 27  1  0
 27 28  1  0
 28 29  1  0
 22  2  1  0
 29 24  1  0
  8  3  1  0
 21 13  1  0
 20 15  1  0
  4 30  1  0
  5 31  1  0
  6 32  1  0
  7 33  1  0
 11 34  1  0
 12 35  1  0
 16 36  1  0
 17 37  1  0
 18 38  1  0
 19 39  1  0
 21 40  1  0
 23 41  1  0
 23 42  1  0
 24 43  1  0
 25 44  1  0
 25 45  1  0
 26 46  1  0
 26 47  1  0
 27 48  1  0
 28 49  1  0
 28 50  1  0
 29 51  1  0
 29 52  1  0
M  END
>  <smiles>  (15) 
O=c1c2ccccc2nc(/C=C/c2nc3ccccc3[nH]2)n1CC1CCNCC1

>  <score_type>  (15) 
oracle

>  <origin>  (15) 
autodockgpu

>  <m_score__min__energy>  (15) 
-9.1300000000000008

>  <m_primary>  (15) 
energy

>  <rmsd>  (15) 
12.222509563928792

>  <m_score__min__rmsd>  (15) 
12.222509563928792

>  <meeko>  (15) 
{"free_energy": -8.23, "intermolecular_energy": -9.72, "internal_energy": -1.26, "cluster_size": 1, "cluster_id": 3, "rank_in_cluster": 1}

>  <energy>  (15) 
-8.94

>  <cluster_rmsd>  (15) 
0.28

>  <cluster>  (15) 
1

$$$$

     RDKit          3D

 52 56  0  0  0  0  0  0  0  0999 V2000
  138.8560   68.0460  225.2930 O   0  0  0  0  0  0  0  0  0  0  0  0
  139.3860   69.1590  225.0260 C   0  0  0  0  0  0  0  0  0  0  0  0
  139.9260   69.8390  226.0920 C   0  0  0  0  0  0  0  0  0  0  0  0
  139.8870   69.3430  227.3630 C   0  0  0  0  0  0  0  0  0  0  0  0
  140.4520   70.0940  228.3660 C   0  0  0  0  0  0  0  0  0  0  0  0
  141.0380   71.3100  228.0850 C   0  0  0  0  0  0  0  0  0  0  0  0
  141.0870   71.8320  226.7910 C   0  0  0  0  0  0  0  0  0  0  0  0
  140.5090   71.0470  225.8170 C   0  0  0  0  0  0  0  0  0  0  0  0
  140.5200   71.4810  224.5710 N   0  0  0  0  0  0  0  0  0  0  0  0
  139.9900   70.8280  223.4860 C   0  0  0  0  0  0  0  0  0  0  0  0
  140.1470   71.5040  222.2360 C   0  0  0  0  0  0  0  0  0  0  0  0
  139.4710   72.4330  221.6650 C   0  0  0  0  0  0  0  0  0  0  0  0
  140.0160   73.8130  221.5430 C   0  0  0  0  0  0  0  0  0  0  0  0
  139.8010   74.8480  222.3660 N   0  0  0  0  0  0  0  0  0  0  0  0
  140.4550   75.9450  221.9470 C   0  0  0  0  0  0  0  0  0  0  0  0
  140.5940   77.2480  222.3820 C   0  0  0  0  0  0  0  0  0  0  0  0
  141.3710   78.1500  221.6860 C   0  0  0  0  0  0  0  0  0  0  0  0
  142.0470   77.7890  220.5160 C   0  0  0  0  0  0  0  0  0  0  0  0
  141.8950   76.4780  220.0960 C   0  0  0  0  0  0  0  0  0  0  0  0
  141.1160   75.5760  220.7950 C   0  0  0  0  0  0  0  0  0  0  0  0
  140.8280   74.2800  220.5810 N   0  0  0  0  0  0  0  0  0  0  0  0
  139.4210   69.6530  223.7450 N   0  0  0  0  0  0  0  0  0  0  0  0
  138.8350   68.8390  222.7370 C   0  0  0  0  0  0  0  0  0  0  0  0
  137.4140   69.1900  222.4240 C   0  0  0  0  0  0  0  0  0  0  0  0
  136.5860   67.9180  222.2840 C   0  0  0  0  0  0  0  0  0  0  0  0
  135.1770   68.1680  222.7190 C   0  0  0  0  0  0  0  0  0  0  0  0
  135.0110   68.5220  224.0950 N   0  0  0  0  0  0  0  0  0  0  0  0
  136.1680   69.2390  224.5910 C   0  0  0  0  0  0  0  0  0  0  0  0
  136.7030   70.0470  223.4110 C   0  0  0  0  0  0  0  0  0  0  0  0
  139.4176   68.3717  227.5781 H   0  0  0  0  0  0  0  0  0  0  0  0
  140.4365   69.7219  229.4010 H   0  0  0  0  0  0  0  0  0  0  0  0
  141.4821   71.8886  228.9084 H   0  0  0  0  0  0  0  0  0  0  0  0
  141.5542   72.8018  226.5649 H   0  0  0  0  0  0  0  0  0  0  0  0
  141.0139   71.1619  221.6516 H   0  0  0  0  0  0  0  0  0  0  0  0
  138.4739   72.2065  221.2595 H   0  0  0  0  0  0  0  0  0  0  0  0
  140.0771   77.5715  223.2975 H   0  0  0  0  0  0  0  0  0  0  0  0
  141.4615   79.1802  222.0608 H   0  0  0  0  0  0  0  0  0  0  0  0
  142.6662   78.5078  219.9593 H   0  0  0  0  0  0  0  0  0  0  0  0
  142.4082   76.1460  219.1814 H   0  0  0  0  0  0  0  0  0  0  0  0
  141.1720   73.6810  219.7820 H   0  0  0  0  0  0  0  0  0  0  0  0
  139.4288   68.9456  221.8172 H   0  0  0  0  0  0  0  0  0  0  0  0
  138.8321   67.8081  223.1208 H   0  0  0  0  0  0  0  0  0  0  0  0
  137.4992   69.7757  221.4968 H   0  0  0  0  0  0  0  0  0  0  0  0
  136.5898   67.5960  221.2322 H   0  0  0  0  0  0  0  0  0  0  0  0
  137.0236   67.1334  222.9187 H   0  0  0  0  0  0  0  0  0  0  0  0
  134.7739   68.9883  222.1070 H   0  0  0  0  0  0  0  0  0  0  0  0
  134.6462   67.2137  222.5865 H   0  0  0  0  0  0  0  0  0  0  0  0
  134.1930   69.1560  224.2500 H   0  0  0  0  0  0  0  0  0  0  0  0
  135.8779   69.9100  225.4130 H   0  0  0  0  0  0  0  0  0  0  0  0
  136.9297   68.5498  224.9846 H   0  0  0  0  0  0  0  0  0  0  0  0
  135.8592   70.5423  222.9083 H   0  0  0  0  0  0  0  0  0  0  0  0
  137.4216   70.7827  223.8014 H   0  0  0  0  0  0  0  0  0  0  0  0
  1  2  2  0
  2  3  1  0
  3  4  2  0
  4  5  1  0
  5  6  2  0
  6  7  1  0
  7  8  2  0
  8  9  1  0
  9 10  2  0
 10 11  1  0
 11 12  2  0
 12 13  1  0
 13 14  2  0
 14 15  1  0
 15 16  2  0
 16 17  1  0
 17 18  2  0
 18 19  1  0
 19 20  2  0
 20 21  1  0
 10 22  1  0
 22 23  1  0
 23 24  1  0
 24 25  1  0
 25 26  1  0
 26 27  1  0
 27 28  1  0
 28 29  1  0
 22  2  1  0
 29 24  1  0
  8  3  1  0
 21 13  1  0
 20 15  1  0
  4 30  1  0
  5 31  1  0
  6 32  1  0
  7 33  1  0
 11 34  1  0
 12 35  1  0
 16 36  1  0
 17 37  1  0
 18 38  1  0
 19 39  1  0
 21 40  1  0
 23 41  1  0
 23 42  1  0
 24 43  1  0
 25 44  1  0
 25 45  1  0
 26 46  1  0
 26 47  1  0
 27 48  1  0
 28 49  1  0
 28 50  1  0
 29 51  1  0
 29 52  1  0
M  END
>  <smiles>  (16) 
O=c1c2ccccc2nc(/C=C/c2nc3ccccc3[nH]2)n1CC1CCNCC1

>  <score_type>  (16) 
oracle

>  <origin>  (16) 
autodockgpu

>  <m_score__min__energy>  (16) 
-9.1300000000000008

>  <m_primary>  (16) 
energy

>  <rmsd>  (16) 
12.141973586077327

>  <m_score__min__rmsd>  (16) 
12.141973586077327

>  <meeko>  (16) 
{"free_energy": -8.7, "intermolecular_energy": -10.19, "internal_energy": -1.17, "cluster_size": 30, "cluster_id": 1, "rank_in_cluster": 26}

>  <energy>  (16) 
-8.94

>  <cluster_rmsd>  (16) 
0.36

>  <cluster>  (16) 
1

$$$$

     RDKit          3D

 52 56  0  0  0  0  0  0  0  0999 V2000
  142.8190   74.9950  218.7340 O   0  0  0  0  0  0  0  0  0  0  0  0
  142.1390   74.7460  219.7670 C   0  0  0  0  0  0  0  0  0  0  0  0
  141.8060   75.8290  220.5450 C   0  0  0  0  0  0  0  0  0  0  0  0
  142.1900   77.0980  220.2220 C   0  0  0  0  0  0  0  0  0  0  0  0
  141.8090   78.1190  221.0600 C   0  0  0  0  0  0  0  0  0  0  0  0
  141.0630   77.8580  222.1880 C   0  0  0  0  0  0  0  0  0  0  0  0
  140.6610   76.5660  222.5330 C   0  0  0  0  0  0  0  0  0  0  0  0
  141.0630   75.5740  221.6670 C   0  0  0  0  0  0  0  0  0  0  0  0
  140.7180   74.3280  221.9330 N   0  0  0  0  0  0  0  0  0  0  0  0
  141.0350   73.2260  221.1790 C   0  0  0  0  0  0  0  0  0  0  0  0
  140.5250   71.9850  221.6750 C   0  0  0  0  0  0  0  0  0  0  0  0
  139.5970   71.7060  222.5150 C   0  0  0  0  0  0  0  0  0  0  0  0
  139.9240   71.2140  223.8820 C   0  0  0  0  0  0  0  0  0  0  0  0
  140.4260   71.9210  224.9020 N   0  0  0  0  0  0  0  0  0  0  0  0
  140.5950   71.1500  225.9900 C   0  0  0  0  0  0  0  0  0  0  0  0
  141.0580   71.3340  227.2780 C   0  0  0  0  0  0  0  0  0  0  0  0
  141.0990   70.2860  228.1740 C   0  0  0  0  0  0  0  0  0  0  0  0
  140.6760   69.0000  227.8220 C   0  0  0  0  0  0  0  0  0  0  0  0
  140.2150   68.8370  226.5260 C   0  0  0  0  0  0  0  0  0  0  0  0
  140.1750   69.8880  225.6300 C   0  0  0  0  0  0  0  0  0  0  0  0
  139.7760   69.9630  224.3490 N   0  0  0  0  0  0  0  0  0  0  0  0
  141.7570   73.4650  220.0860 N   0  0  0  0  0  0  0  0  0  0  0  0
  142.1610   72.4410  219.1860 C   0  0  0  0  0  0  0  0  0  0  0  0
  143.1830   71.5060  219.7530 C   0  0  0  0  0  0  0  0  0  0  0  0
  144.1200   71.0330  218.6480 C   0  0  0  0  0  0  0  0  0  0  0  0
  145.4840   70.7710  219.2040 C   0  0  0  0  0  0  0  0  0  0  0  0
  146.1580   71.9100  219.7450 N   0  0  0  0  0  0  0  0  0  0  0  0
  145.2130   72.8630  220.2910 C   0  0  0  0  0  0  0  0  0  0  0  0
  144.0500   72.0390  220.8390 C   0  0  0  0  0  0  0  0  0  0  0  0
  142.7859   77.2977  219.3192 H   0  0  0  0  0  0  0  0  0  0  0  0
  142.1025   79.1534  220.8276 H   0  0  0  0  0  0  0  0  0  0  0  0
  140.7740   78.6960  222.8394 H   0  0  0  0  0  0  0  0  0  0  0  0
  140.0651   76.3556  223.4333 H   0  0  0  0  0  0  0  0  0  0  0  0
  141.0250   71.0997  221.2551 H   0  0  0  0  0  0  0  0  0  0  0  0
  138.5444   71.8319  222.2216 H   0  0  0  0  0  0  0  0  0  0  0  0
  141.3991   72.3309  227.5940 H   0  0  0  0  0  0  0  0  0  0  0  0
  141.4742   70.4663  229.1922 H   0  0  0  0  0  0  0  0  0  0  0  0
  140.7077   68.1635  228.5357 H   0  0  0  0  0  0  0  0  0  0  0  0
  139.8714   67.8438  226.2013 H   0  0  0  0  0  0  0  0  0  0  0  0
  139.3950   69.1740  223.7580 H   0  0  0  0  0  0  0  0  0  0  0  0
  141.2729   71.8554  218.9060 H   0  0  0  0  0  0  0  0  0  0  0  0
  142.6268   72.9390  218.3229 H   0  0  0  0  0  0  0  0  0  0  0  0
  142.5716   70.7069  220.1977 H   0  0  0  0  0  0  0  0  0  0  0  0
  143.7233   70.1066  218.2070 H   0  0  0  0  0  0  0  0  0  0  0  0
  144.1905   71.8153  217.8780 H   0  0  0  0  0  0  0  0  0  0  0  0
  145.3855   70.0236  220.0050 H   0  0  0  0  0  0  0  0  0  0  0  0
  146.0962   70.4333  218.3548 H   0  0  0  0  0  0  0  0  0  0  0  0
  146.8000   71.6600  220.5330 H   0  0  0  0  0  0  0  0  0  0  0  0
  145.6815   73.4459  221.0977 H   0  0  0  0  0  0  0  0  0  0  0  0
  144.8744   73.5770  219.5257 H   0  0  0  0  0  0  0  0  0  0  0  0
  144.4543   71.1949  221.4171 H   0  0  0  0  0  0  0  0  0  0  0  0
  143.4360   72.6971  221.4715 H   0  0  0  0  0  0  0  0  0  0  0  0
  1  2  2  0
  2  3  1  0
  3  4  2  0
  4  5  1  0
  5  6  2  0
  6  7  1  0
  7  8  2  0
  8  9  1  0
  9 10  2  0
 10 11  1  0
 11 12  2  0
 12 13  1  0
 13 14  2  0
 14 15  1  0
 15 16  2  0
 16 17  1  0
 17 18  2  0
 18 19  1  0
 19 20  2  0
 20 21  1  0
 10 22  1  0
 22 23  1  0
 23 24  1  0
 24 25  1  0
 25 26  1  0
 26 27  1  0
 27 28  1  0
 28 29  1  0
 22  2  1  0
 29 24  1  0
  8  3  1  0
 21 13  1  0
 20 15  1  0
  4 30  1  0
  5 31  1  0
  6 32  1  0
  7 33  1  0
 11 34  1  0
 12 35  1  0
 16 36  1  0
 17 37  1  0
 18 38  1  0
 19 39  1  0
 21 40  1  0
 23 41  1  0
 23 42  1  0
 24 43  1  0
 25 44  1  0
 25 45  1  0
 26 46  1  0
 26 47  1  0
 27 48  1  0
 28 49  1  0
 28 50  1  0
 29 51  1  0
 29 52  1  0
M  END
>  <smiles>  (17) 
O=c1c2ccccc2nc(/C=C/c2nc3ccccc3[nH]2)n1CC1CCNCC1

>  <score_type>  (17) 
oracle

>  <origin>  (17) 
autodockgpu

>  <m_score__min__energy>  (17) 
-9.1300000000000008

>  <m_primary>  (17) 
energy

>  <rmsd>  (17) 
8.378165068424549

>  <m_score__min__rmsd>  (17) 
8.378165068424549

>  <meeko>  (17) 
{"free_energy": -8.78, "intermolecular_energy": -10.27, "internal_energy": -1.17, "cluster_size": 17, "cluster_id": 2, "rank_in_cluster": 4}

>  <energy>  (17) 
-8.93

>  <cluster_rmsd>  (17) 
0.47

>  <cluster>  (17) 
1

$$$$

     RDKit          3D

 52 56  0  0  0  0  0  0  0  0999 V2000
  139.0480   67.8060  225.1970 O   0  0  0  0  0  0  0  0  0  0  0  0
  139.4330   68.9910  225.0040 C   0  0  0  0  0  0  0  0  0  0  0  0
  139.9800   69.6310  226.0910 C   0  0  0  0  0  0  0  0  0  0  0  0
  140.0950   69.0230  227.3070 C   0  0  0  0  0  0  0  0  0  0  0  0
  140.6550   69.7420  228.3370 C   0  0  0  0  0  0  0  0  0  0  0  0
  141.0840   71.0360  228.1360 C   0  0  0  0  0  0  0  0  0  0  0  0
  140.9740   71.6730  226.8980 C   0  0  0  0  0  0  0  0  0  0  0  0
  140.4080   70.9180  225.8950 C   0  0  0  0  0  0  0  0  0  0  0  0
  140.2730   71.4590  224.6990 N   0  0  0  0  0  0  0  0  0  0  0  0
  139.7320   70.8490  223.5950 C   0  0  0  0  0  0  0  0  0  0  0  0
  139.7160   71.6460  222.4090 C   0  0  0  0  0  0  0  0  0  0  0  0
  140.6130   72.3620  221.8350 C   0  0  0  0  0  0  0  0  0  0  0  0
  140.5120   73.8470  221.8160 C   0  0  0  0  0  0  0  0  0  0  0  0
  141.3860   74.7140  221.2880 N   0  0  0  0  0  0  0  0  0  0  0  0
  140.9700   75.9820  221.4540 C   0  0  0  0  0  0  0  0  0  0  0  0
  141.4470   77.2360  221.1270 C   0  0  0  0  0  0  0  0  0  0  0  0
  140.7410   78.3730  221.4610 C   0  0  0  0  0  0  0  0  0  0  0  0
  139.5210   78.3080  222.1410 C   0  0  0  0  0  0  0  0  0  0  0  0
  139.0610   77.0410  222.4600 C   0  0  0  0  0  0  0  0  0  0  0  0
  139.7690   75.9030  222.1250 C   0  0  0  0  0  0  0  0  0  0  0  0
  139.5230   74.5980  222.3270 N   0  0  0  0  0  0  0  0  0  0  0  0
  139.3130   69.5980  223.7770 N   0  0  0  0  0  0  0  0  0  0  0  0
  138.7400   68.8150  222.7380 C   0  0  0  0  0  0  0  0  0  0  0  0
  137.3150   69.1590  222.4360 C   0  0  0  0  0  0  0  0  0  0  0  0
  136.4910   67.8830  222.3060 C   0  0  0  0  0  0  0  0  0  0  0  0
  135.0850   68.1290  222.7510 C   0  0  0  0  0  0  0  0  0  0  0  0
  134.9290   68.4860  224.1280 N   0  0  0  0  0  0  0  0  0  0  0  0
  136.0860   69.2090  224.6130 C   0  0  0  0  0  0  0  0  0  0  0  0
  136.6090   70.0160  223.4260 C   0  0  0  0  0  0  0  0  0  0  0  0
  139.7504   67.9895  227.4589 H   0  0  0  0  0  0  0  0  0  0  0  0
  140.7613   69.2802  229.3297 H   0  0  0  0  0  0  0  0  0  0  0  0
  141.5280   71.5857  228.9790 H   0  0  0  0  0  0  0  0  0  0  0  0
  141.3157   72.7059  226.7354 H   0  0  0  0  0  0  0  0  0  0  0  0
  138.7476   71.6457  221.8872 H   0  0  0  0  0  0  0  0  0  0  0  0
  141.4694   71.8710  221.3497 H   0  0  0  0  0  0  0  0  0  0  0  0
  142.4038   77.3296  220.5924 H   0  0  0  0  0  0  0  0  0  0  0  0
  141.1485   79.3568  221.1851 H   0  0  0  0  0  0  0  0  0  0  0  0
  138.9571   79.2139  222.4082 H   0  0  0  0  0  0  0  0  0  0  0  0
  138.1054   76.9381  222.9950 H   0  0  0  0  0  0  0  0  0  0  0  0
  138.6830   74.1810  222.8150 H   0  0  0  0  0  0  0  0  0  0  0  0
  139.3337   68.9642  221.8241 H   0  0  0  0  0  0  0  0  0  0  0  0
  138.7506   67.7703  223.0821 H   0  0  0  0  0  0  0  0  0  0  0  0
  137.3899   69.7423  221.5064 H   0  0  0  0  0  0  0  0  0  0  0  0
  136.4879   67.5579  221.2551 H   0  0  0  0  0  0  0  0  0  0  0  0
  136.9366   67.1018  222.9394 H   0  0  0  0  0  0  0  0  0  0  0  0
  134.6741   68.9464  222.1402 H   0  0  0  0  0  0  0  0  0  0  0  0
  134.5562   67.1727  222.6248 H   0  0  0  0  0  0  0  0  0  0  0  0
  134.1090   69.1170  224.2880 H   0  0  0  0  0  0  0  0  0  0  0  0
  135.7992   69.8813  225.4351 H   0  0  0  0  0  0  0  0  0  0  0  0
  136.8535   68.5243  225.0031 H   0  0  0  0  0  0  0  0  0  0  0  0
  135.7595   70.5069  222.9286 H   0  0  0  0  0  0  0  0  0  0  0  0
  137.3280   70.7553  223.8087 H   0  0  0  0  0  0  0  0  0  0  0  0
  1  2  2  0
  2  3  1  0
  3  4  2  0
  4  5  1  0
  5  6  2  0
  6  7  1  0
  7  8  2  0
  8  9  1  0
  9 10  2  0
 10 11  1  0
 11 12  2  0
 12 13  1  0
 13 14  2  0
 14 15  1  0
 15 16  2  0
 16 17  1  0
 17 18  2  0
 18 19  1  0
 19 20  2  0
 20 21  1  0
 10 22  1  0
 22 23  1  0
 23 24  1  0
 24 25  1  0
 25 26  1  0
 26 27  1  0
 27 28  1  0
 28 29  1  0
 22  2  1  0
 29 24  1  0
  8  3  1  0
 21 13  1  0
 20 15  1  0
  4 30  1  0
  5 31  1  0
  6 32  1  0
  7 33  1  0
 11 34  1  0
 12 35  1  0
 16 36  1  0
 17 37  1  0
 18 38  1  0
 19 39  1  0
 21 40  1  0
 23 41  1  0
 23 42  1  0
 24 43  1  0
 25 44  1  0
 25 45  1  0
 26 46  1  0
 26 47  1  0
 27 48  1  0
 28 49  1  0
 28 50  1  0
 29 51  1  0
 29 52  1  0
M  END
>  <smiles>  (18) 
O=c1c2ccccc2nc(/C=C/c2nc3ccccc3[nH]2)n1CC1CCNCC1

>  <score_type>  (18) 
oracle

>  <origin>  (18) 
autodockgpu

>  <m_score__min__energy>  (18) 
-9.1300000000000008

>  <m_primary>  (18) 
energy

>  <rmsd>  (18) 
12.24016273067295

>  <m_score__min__rmsd>  (18) 
12.24016273067295

>  <meeko>  (18) 
{"free_energy": -8.97, "intermolecular_energy": -10.46, "internal_energy": -1.15, "cluster_size": 30, "cluster_id": 1, "rank_in_cluster": 10}

>  <energy>  (18) 
-8.91

>  <cluster_rmsd>  (18) 
0.71

>  <cluster>  (18) 
1

$$$$

     RDKit          3D

 52 56  0  0  0  0  0  0  0  0999 V2000
  139.0850   67.7620  225.1800 O   0  0  0  0  0  0  0  0  0  0  0  0
  139.5130   68.9300  224.9740 C   0  0  0  0  0  0  0  0  0  0  0  0
  140.0370   69.5800  226.0660 C   0  0  0  0  0  0  0  0  0  0  0  0
  140.0870   69.0000  227.3000 C   0  0  0  0  0  0  0  0  0  0  0  0
  140.6290   69.7260  228.3340 C   0  0  0  0  0  0  0  0  0  0  0  0
  141.1040   71.0020  228.1180 C   0  0  0  0  0  0  0  0  0  0  0  0
  141.0620   71.6110  226.8630 C   0  0  0  0  0  0  0  0  0  0  0  0
  140.5120   70.8480  225.8570 C   0  0  0  0  0  0  0  0  0  0  0  0
  140.4400   71.3620  224.6440 N   0  0  0  0  0  0  0  0  0  0  0  0
  139.9230   70.7420  223.5340 C   0  0  0  0  0  0  0  0  0  0  0  0
  139.9770   71.5090  222.3290 C   0  0  0  0  0  0  0  0  0  0  0  0
  139.2740   72.4920  221.8980 C   0  0  0  0  0  0  0  0  0  0  0  0
  139.8870   73.8300  221.6680 C   0  0  0  0  0  0  0  0  0  0  0  0
  139.6540   74.9580  222.3510 N   0  0  0  0  0  0  0  0  0  0  0  0
  140.3850   75.9770  221.8670 C   0  0  0  0  0  0  0  0  0  0  0  0
  140.5470   77.3150  222.1650 C   0  0  0  0  0  0  0  0  0  0  0  0
  141.4130   78.1050  221.4380 C   0  0  0  0  0  0  0  0  0  0  0  0
  142.1610   77.5900  220.3740 C   0  0  0  0  0  0  0  0  0  0  0  0
  141.9840   76.2460  220.0910 C   0  0  0  0  0  0  0  0  0  0  0  0
  141.1160   75.4560  220.8210 C   0  0  0  0  0  0  0  0  0  0  0  0
  140.7890   74.1560  220.7290 N   0  0  0  0  0  0  0  0  0  0  0  0
  139.4600   69.5090  223.7290 N   0  0  0  0  0  0  0  0  0  0  0  0
  138.9030   68.7170  222.6870 C   0  0  0  0  0  0  0  0  0  0  0  0
  137.4950   69.0840  222.3350 C   0  0  0  0  0  0  0  0  0  0  0  0
  136.6500   67.8220  222.2030 C   0  0  0  0  0  0  0  0  0  0  0  0
  135.2360   68.1040  222.6000 C   0  0  0  0  0  0  0  0  0  0  0  0
  135.0450   68.4920  223.9640 N   0  0  0  0  0  0  0  0  0  0  0  0
  136.2020   69.2010  224.4700 C   0  0  0  0  0  0  0  0  0  0  0  0
  136.7770   69.9740  223.2850 C   0  0  0  0  0  0  0  0  0  0  0  0
  139.7049   67.9814  227.4627 H   0  0  0  0  0  0  0  0  0  0  0  0
  140.6840   69.2857  229.3406 H   0  0  0  0  0  0  0  0  0  0  0  0
  141.5311   71.5597  228.9645 H   0  0  0  0  0  0  0  0  0  0  0  0
  141.4415   72.6288  226.6895 H   0  0  0  0  0  0  0  0  0  0  0  0
  140.7744   71.1965  221.6387 H   0  0  0  0  0  0  0  0  0  0  0  0
  138.2029   72.3445  221.6954 H   0  0  0  0  0  0  0  0  0  0  0  0
  139.9768   77.7580  222.9948 H   0  0  0  0  0  0  0  0  0  0  0  0
  141.5182   79.1677  221.7018 H   0  0  0  0  0  0  0  0  0  0  0  0
  142.8523   78.2186  219.7935 H   0  0  0  0  0  0  0  0  0  0  0  0
  142.5497   75.7948  219.2625 H   0  0  0  0  0  0  0  0  0  0  0  0
  141.1670   73.4580  220.0320 H   0  0  0  0  0  0  0  0  0  0  0  0
  139.5272   68.8366  221.7892 H   0  0  0  0  0  0  0  0  0  0  0  0
  138.8819   67.6790  223.0503 H   0  0  0  0  0  0  0  0  0  0  0  0
  137.6101   69.6484  221.3979 H   0  0  0  0  0  0  0  0  0  0  0  0
  136.6724   67.4772  221.1587 H   0  0  0  0  0  0  0  0  0  0  0  0
  137.0603   67.0443  222.8639 H   0  0  0  0  0  0  0  0  0  0  0  0
  134.8601   68.9164  221.9607 H   0  0  0  0  0  0  0  0  0  0  0  0
  134.6928   67.1555  222.4769 H   0  0  0  0  0  0  0  0  0  0  0  0
  134.2340   69.1420  224.0870 H   0  0  0  0  0  0  0  0  0  0  0  0
  135.9047   69.8947  225.2702 H   0  0  0  0  0  0  0  0  0  0  0  0
  136.9431   68.5085  224.8957 H   0  0  0  0  0  0  0  0  0  0  0  0
  135.9532   70.4714  222.7521 H   0  0  0  0  0  0  0  0  0  0  0  0
  137.4985   70.7069  223.6753 H   0  0  0  0  0  0  0  0  0  0  0  0
  1  2  2  0
  2  3  1  0
  3  4  2  0
  4  5  1  0
  5  6  2  0
  6  7  1  0
  7  8  2  0
  8  9  1  0
  9 10  2  0
 10 11  1  0
 11 12  2  0
 12 13  1  0
 13 14  2  0
 14 15  1  0
 15 16  2  0
 16 17  1  0
 17 18  2  0
 18 19  1  0
 19 20  2  0
 20 21  1  0
 10 22  1  0
 22 23  1  0
 23 24  1  0
 24 25  1  0
 25 26  1  0
 26 27  1  0
 27 28  1  0
 28 29  1  0
 22  2  1  0
 29 24  1  0
  8  3  1  0
 21 13  1  0
 20 15  1  0
  4 30  1  0
  5 31  1  0
  6 32  1  0
  7 33  1  0
 11 34  1  0
 12 35  1  0
 16 36  1  0
 17 37  1  0
 18 38  1  0
 19 39  1  0
 21 40  1  0
 23 41  1  0
 23 42  1  0
 24 43  1  0
 25 44  1  0
 25 45  1  0
 26 46  1  0
 26 47  1  0
 27 48  1  0
 28 49  1  0
 28 50  1  0
 29 51  1  0
 29 52  1  0
M  END
>  <smiles>  (19) 
O=c1c2ccccc2nc(/C=C/c2nc3ccccc3[nH]2)n1CC1CCNCC1

>  <score_type>  (19) 
oracle

>  <origin>  (19) 
autodockgpu

>  <m_score__min__energy>  (19) 
-9.1300000000000008

>  <m_primary>  (19) 
energy

>  <rmsd>  (19) 
12.23563307004204

>  <m_score__min__rmsd>  (19) 
12.23563307004204

>  <meeko>  (19) 
{"free_energy": -8.7, "intermolecular_energy": -10.19, "internal_energy": -1.18, "cluster_size": 30, "cluster_id": 1, "rank_in_cluster": 25}

>  <energy>  (19) 
-8.88

>  <cluster_rmsd>  (19) 
0.34

>  <cluster>  (19) 
1

$$$$

     RDKit          3D

 52 56  0  0  0  0  0  0  0  0999 V2000
  138.7950   68.0710  225.4810 O   0  0  0  0  0  0  0  0  0  0  0  0
  139.3090   69.1650  225.1210 C   0  0  0  0  0  0  0  0  0  0  0  0
  139.8920   69.9130  226.1160 C   0  0  0  0  0  0  0  0  0  0  0  0
  139.9110   69.5000  227.4170 C   0  0  0  0  0  0  0  0  0  0  0  0
  140.5180   70.3140  228.3430 C   0  0  0  0  0  0  0  0  0  0  0  0
  141.0860   71.5090  227.9600 C   0  0  0  0  0  0  0  0  0  0  0  0
  141.0760   71.9480  226.6340 C   0  0  0  0  0  0  0  0  0  0  0  0
  140.4590   71.1020  225.7390 C   0  0  0  0  0  0  0  0  0  0  0  0
  140.4130   71.4550  224.4690 N   0  0  0  0  0  0  0  0  0  0  0  0
  139.8390   70.7340  223.4520 C   0  0  0  0  0  0  0  0  0  0  0  0
  139.9370   71.3280  222.1560 C   0  0  0  0  0  0  0  0  0  0  0  0
  140.7000   72.2430  221.6800 C   0  0  0  0  0  0  0  0  0  0  0  0
  140.3820   73.6840  221.8760 C   0  0  0  0  0  0  0  0  0  0  0  0
  141.1810   74.7330  221.6370 N   0  0  0  0  0  0  0  0  0  0  0  0
  140.5620   75.8900  221.9290 C   0  0  0  0  0  0  0  0  0  0  0  0
  140.8860   77.2310  221.8810 C   0  0  0  0  0  0  0  0  0  0  0  0
  139.9790   78.1950  222.2700 C   0  0  0  0  0  0  0  0  0  0  0  0
  138.7000   77.8600  222.7270 C   0  0  0  0  0  0  0  0  0  0  0  0
  138.3950   76.5090  222.7660 C   0  0  0  0  0  0  0  0  0  0  0  0
  139.3050   75.5450  222.3760 C   0  0  0  0  0  0  0  0  0  0  0  0
  139.2310   74.2040  222.3310 N   0  0  0  0  0  0  0  0  0  0  0  0
  139.2850   69.5760  223.8100 N   0  0  0  0  0  0  0  0  0  0  0  0
  138.6590   68.6990  222.8830 C   0  0  0  0  0  0  0  0  0  0  0  0
  137.2640   69.0990  222.5170 C   0  0  0  0  0  0  0  0  0  0  0  0
  136.3990   67.8570  222.3430 C   0  0  0  0  0  0  0  0  0  0  0  0
  134.9830   68.1560  222.7230 C   0  0  0  0  0  0  0  0  0  0  0  0
  134.7770   68.5140  224.0930 N   0  0  0  0  0  0  0  0  0  0  0  0
  135.9380   69.1900  224.6350 C   0  0  0  0  0  0  0  0  0  0  0  0
  136.5460   69.9800  223.4780 C   0  0  0  0  0  0  0  0  0  0  0  0
  139.4543   68.5447  227.7151 H   0  0  0  0  0  0  0  0  0  0  0  0
  140.5506   70.0086  229.3993 H   0  0  0  0  0  0  0  0  0  0  0  0
  141.5638   72.1392  228.7246 H   0  0  0  0  0  0  0  0  0  0  0  0
  141.5289   72.9020  226.3262 H   0  0  0  0  0  0  0  0  0  0  0  0
  139.2205   70.9229  221.4263 H   0  0  0  0  0  0  0  0  0  0  0  0
  141.6023   71.9586  221.1188 H   0  0  0  0  0  0  0  0  0  0  0  0
  141.8821   77.5355  221.5273 H   0  0  0  0  0  0  0  0  0  0  0  0
  140.2691   79.2548  222.2195 H   0  0  0  0  0  0  0  0  0  0  0  0
  137.9759   78.6273  223.0384 H   0  0  0  0  0  0  0  0  0  0  0  0
  137.4009   76.1951  223.1172 H   0  0  0  0  0  0  0  0  0  0  0  0
  138.4030   73.6080  222.6060 H   0  0  0  0  0  0  0  0  0  0  0  0
  139.2647   68.6755  221.9651 H   0  0  0  0  0  0  0  0  0  0  0  0
  138.5917   67.7149  223.3698 H   0  0  0  0  0  0  0  0  0  0  0  0
  137.4044   69.6820  221.5948 H   0  0  0  0  0  0  0  0  0  0  0  0
  136.4328   67.5350  221.2917 H   0  0  0  0  0  0  0  0  0  0  0  0
  136.7839   67.0576  222.9932 H   0  0  0  0  0  0  0  0  0  0  0  0
  134.6331   68.9908  222.0979 H   0  0  0  0  0  0  0  0  0  0  0  0
  134.4239   67.2216  222.5669 H   0  0  0  0  0  0  0  0  0  0  0  0
  133.9760   69.1760  224.2180 H   0  0  0  0  0  0  0  0  0  0  0  0
  135.6397   69.8700  225.4466 H   0  0  0  0  0  0  0  0  0  0  0  0
  136.6595   68.4746  225.0564 H   0  0  0  0  0  0  0  0  0  0  0  0
  135.7401   70.5050  222.9443 H   0  0  0  0  0  0  0  0  0  0  0  0
  137.2743   70.6898  223.8972 H   0  0  0  0  0  0  0  0  0  0  0  0
  1  2  2  0
  2  3  1  0
  3  4  2  0
  4  5  1  0
  5  6  2  0
  6  7  1  0
  7  8  2  0
  8  9  1  0
  9 10  2  0
 10 11  1  0
 11 12  2  0
 12 13  1  0
 13 14  2  0
 14 15  1  0
 15 16  2  0
 16 17  1  0
 17 18  2  0
 18 19  1  0
 19 20  2  0
 20 21  1  0
 10 22  1  0
 22 23  1  0
 23 24  1  0
 24 25  1  0
 25 26  1  0
 26 27  1  0
 27 28  1  0
 28 29  1  0
 22  2  1  0
 29 24  1  0
  8  3  1  0
 21 13  1  0
 20 15  1  0
  4 30  1  0
  5 31  1  0
  6 32  1  0
  7 33  1  0
 11 34  1  0
 12 35  1  0
 16 36  1  0
 17 37  1  0
 18 38  1  0
 19 39  1  0
 21 40  1  0
 23 41  1  0
 23 42  1  0
 24 43  1  0
 25 44  1  0
 25 45  1  0
 26 46  1  0
 26 47  1  0
 27 48  1  0
 28 49  1  0
 28 50  1  0
 29 51  1  0
 29 52  1  0
M  END
>  <smiles>  (20) 
O=c1c2ccccc2nc(/C=C/c2nc3ccccc3[nH]2)n1CC1CCNCC1

>  <score_type>  (20) 
oracle

>  <origin>  (20) 
autodockgpu

>  <m_score__min__energy>  (20) 
-9.1300000000000008

>  <m_primary>  (20) 
energy

>  <rmsd>  (20) 
12.17825570190984

>  <m_score__min__rmsd>  (20) 
12.17825570190984

>  <meeko>  (20) 
{"free_energy": -8.94, "intermolecular_energy": -10.44, "internal_energy": -1.27, "cluster_size": 30, "cluster_id": 1, "rank_in_cluster": 15}

>  <energy>  (20) 
-8.86

>  <cluster_rmsd>  (20) 
1.24

>  <cluster>  (20) 
1

$$$$

     RDKit          3D

 52 56  0  0  0  0  0  0  0  0999 V2000
  138.9050   67.9670  225.3350 O   0  0  0  0  0  0  0  0  0  0  0  0
  139.3380   69.1200  225.0650 C   0  0  0  0  0  0  0  0  0  0  0  0
  139.9230   69.8030  226.1040 C   0  0  0  0  0  0  0  0  0  0  0  0
  140.0270   69.2670  227.3560 C   0  0  0  0  0  0  0  0  0  0  0  0
  140.6290   70.0240  228.3330 C   0  0  0  0  0  0  0  0  0  0  0  0
  141.1080   71.2830  228.0470 C   0  0  0  0  0  0  0  0  0  0  0  0
  141.0110   71.8470  226.7730 C   0  0  0  0  0  0  0  0  0  0  0  0
  140.4020   71.0550  225.8250 C   0  0  0  0  0  0  0  0  0  0  0  0
  140.2770   71.5260  224.5980 N   0  0  0  0  0  0  0  0  0  0  0  0
  139.6970   70.8720  223.5400 C   0  0  0  0  0  0  0  0  0  0  0  0
  139.7000   71.5940  222.3060 C   0  0  0  0  0  0  0  0  0  0  0  0
  140.5350   72.4220  221.7900 C   0  0  0  0  0  0  0  0  0  0  0  0
  140.3290   73.8910  221.9100 C   0  0  0  0  0  0  0  0  0  0  0  0
  141.1940   74.8620  221.5900 N   0  0  0  0  0  0  0  0  0  0  0  0
  140.6700   76.0770  221.8290 C   0  0  0  0  0  0  0  0  0  0  0  0
  141.0900   77.3850  221.6950 C   0  0  0  0  0  0  0  0  0  0  0  0
  140.2670   78.4350  222.0490 C   0  0  0  0  0  0  0  0  0  0  0  0
  138.9810   78.2220  222.5560 C   0  0  0  0  0  0  0  0  0  0  0  0
  138.5790   76.9020  222.6830 C   0  0  0  0  0  0  0  0  0  0  0  0
  139.4050   75.8530  222.3270 C   0  0  0  0  0  0  0  0  0  0  0  0
  139.2320   74.5210  222.3620 N   0  0  0  0  0  0  0  0  0  0  0  0
  139.2290   69.6540  223.8040 N   0  0  0  0  0  0  0  0  0  0  0  0
  138.6120   68.8330  222.8210 C   0  0  0  0  0  0  0  0  0  0  0  0
  137.1930   69.2050  222.5250 C   0  0  0  0  0  0  0  0  0  0  0  0
  136.3500   67.9450  222.3650 C   0  0  0  0  0  0  0  0  0  0  0  0
  134.9460   68.2030  222.8140 C   0  0  0  0  0  0  0  0  0  0  0  0
  134.7930   68.5310  224.1980 N   0  0  0  0  0  0  0  0  0  0  0  0
  135.9610   69.2260  224.7000 C   0  0  0  0  0  0  0  0  0  0  0  0
  136.4980   70.0510  223.5320 C   0  0  0  0  0  0  0  0  0  0  0  0
  139.6410   68.2607  227.5758 H   0  0  0  0  0  0  0  0  0  0  0  0
  140.7289   69.6207  229.3515 H   0  0  0  0  0  0  0  0  0  0  0  0
  141.5837   71.8649  228.8502 H   0  0  0  0  0  0  0  0  0  0  0  0
  141.3938   72.8523  226.5431 H   0  0  0  0  0  0  0  0  0  0  0  0
  138.8173   71.4037  221.6778 H   0  0  0  0  0  0  0  0  0  0  0  0
  141.4150   72.0401  221.2517 H   0  0  0  0  0  0  0  0  0  0  0  0
  142.0953   77.5937  221.3003 H   0  0  0  0  0  0  0  0  0  0  0  0
  140.6319   79.4658  221.9293 H   0  0  0  0  0  0  0  0  0  0  0  0
  138.3239   79.0576  222.8388 H   0  0  0  0  0  0  0  0  0  0  0  0
  137.5758   76.6834  223.0777 H   0  0  0  0  0  0  0  0  0  0  0  0
  138.3710   74.0040  222.6920 H   0  0  0  0  0  0  0  0  0  0  0  0
  139.1923   68.9118  221.8899 H   0  0  0  0  0  0  0  0  0  0  0  0
  138.5968   67.8093  223.2233 H   0  0  0  0  0  0  0  0  0  0  0  0
  137.2787   69.8077  221.6088 H   0  0  0  0  0  0  0  0  0  0  0  0
  136.3438   67.6437  221.3071 H   0  0  0  0  0  0  0  0  0  0  0  0
  136.7825   67.1428  222.9810 H   0  0  0  0  0  0  0  0  0  0  0  0
  134.5490   69.0403  222.2213 H   0  0  0  0  0  0  0  0  0  0  0  0
  134.4027   67.2581  222.6655 H   0  0  0  0  0  0  0  0  0  0  0  0
  133.9830   69.1710  224.3720 H   0  0  0  0  0  0  0  0  0  0  0  0
  135.6833   69.8842  225.5364 H   0  0  0  0  0  0  0  0  0  0  0  0
  136.7175   68.5211  225.0753 H   0  0  0  0  0  0  0  0  0  0  0  0
  135.6569   70.5652  223.0441 H   0  0  0  0  0  0  0  0  0  0  0  0
  137.2269   70.7713  223.9317 H   0  0  0  0  0  0  0  0  0  0  0  0
  1  2  2  0
  2  3  1  0
  3  4  2  0
  4  5  1  0
  5  6  2  0
  6  7  1  0
  7  8  2  0
  8  9  1  0
  9 10  2  0
 10 11  1  0
 11 12  2  0
 12 13  1  0
 13 14  2  0
 14 15  1  0
 15 16  2  0
 16 17  1  0
 17 18  2  0
 18 19  1  0
 19 20  2  0
 20 21  1  0
 10 22  1  0
 22 23  1  0
 23 24  1  0
 24 25  1  0
 25 26  1  0
 26 27  1  0
 27 28  1  0
 28 29  1  0
 22  2  1  0
 29 24  1  0
  8  3  1  0
 21 13  1  0
 20 15  1  0
  4 30  1  0
  5 31  1  0
  6 32  1  0
  7 33  1  0
 11 34  1  0
 12 35  1  0
 16 36  1  0
 17 37  1  0
 18 38  1  0
 19 39  1  0
 21 40  1  0
 23 41  1  0
 23 42  1  0
 24 43  1  0
 25 44  1  0
 25 45  1  0
 26 46  1  0
 26 47  1  0
 27 48  1  0
 28 49  1  0
 28 50  1  0
 29 51  1  0
 29 52  1  0
M  END
>  <smiles>  (21) 
O=c1c2ccccc2nc(/C=C/c2nc3ccccc3[nH]2)n1CC1CCNCC1

>  <score_type>  (21) 
oracle

>  <origin>  (21) 
autodockgpu

>  <m_score__min__energy>  (21) 
-9.1300000000000008

>  <m_primary>  (21) 
energy

>  <rmsd>  (21) 
12.191707564801648

>  <m_score__min__rmsd>  (21) 
12.191707564801648

>  <meeko>  (21) 
{"free_energy": -9.07, "intermolecular_energy": -10.56, "internal_energy": -1.2, "cluster_size": 30, "cluster_id": 1, "rank_in_cluster": 5}

>  <energy>  (21) 
-8.86

>  <cluster_rmsd>  (21) 
0.41

>  <cluster>  (21) 
1

$$$$

     RDKit          3D

 52 56  0  0  0  0  0  0  0  0999 V2000
  143.0490   76.2330  219.6050 O   0  0  0  0  0  0  0  0  0  0  0  0
  142.1170   75.7350  220.2940 C   0  0  0  0  0  0  0  0  0  0  0  0
  141.4340   76.6100  221.1040 C   0  0  0  0  0  0  0  0  0  0  0  0
  141.7470   77.9380  221.1640 C   0  0  0  0  0  0  0  0  0  0  0  0
  141.0080   78.7370  222.0030 C   0  0  0  0  0  0  0  0  0  0  0  0
  139.9850   78.2050  222.7570 C   0  0  0  0  0  0  0  0  0  0  0  0
  139.6500   76.8500  222.7080 C   0  0  0  0  0  0  0  0  0  0  0  0
  140.4160   76.0850  221.8550 C   0  0  0  0  0  0  0  0  0  0  0  0
  140.1540   74.7950  221.7600 N   0  0  0  0  0  0  0  0  0  0  0  0
  140.8160   73.8960  220.9630 C   0  0  0  0  0  0  0  0  0  0  0  0
  140.3280   72.5530  221.0280 C   0  0  0  0  0  0  0  0  0  0  0  0
  139.4500   71.9880  221.7730 C   0  0  0  0  0  0  0  0  0  0  0  0
  139.7810   71.5630  223.1610 C   0  0  0  0  0  0  0  0  0  0  0  0
  140.4950   72.2390  224.0700 N   0  0  0  0  0  0  0  0  0  0  0  0
  140.5940   71.5490  225.2190 C   0  0  0  0  0  0  0  0  0  0  0  0
  141.1870   71.7470  226.4510 C   0  0  0  0  0  0  0  0  0  0  0  0
  141.0920   70.7970  227.4460 C   0  0  0  0  0  0  0  0  0  0  0  0
  140.3950   69.6000  227.2550 C   0  0  0  0  0  0  0  0  0  0  0  0
  139.8080   69.4210  226.0130 C   0  0  0  0  0  0  0  0  0  0  0  0
  139.9050   70.3730  225.0170 C   0  0  0  0  0  0  0  0  0  0  0  0
  139.4270   70.4150  223.7620 N   0  0  0  0  0  0  0  0  0  0  0  0
  141.8080   74.3980  220.2300 N   0  0  0  0  0  0  0  0  0  0  0  0
  142.5890   73.6100  219.3410 C   0  0  0  0  0  0  0  0  0  0  0  0
  143.3270   72.4930  220.0100 C   0  0  0  0  0  0  0  0  0  0  0  0
  143.9150   71.5590  218.9590 C   0  0  0  0  0  0  0  0  0  0  0  0
  145.1850   70.9490  219.4620 C   0  0  0  0  0  0  0  0  0  0  0  0
  146.2490   71.8700  219.7200 N   0  0  0  0  0  0  0  0  0  0  0  0
  145.7330   73.1600  220.1300 C   0  0  0  0  0  0  0  0  0  0  0  0
  144.4500   72.8750  220.9080 C   0  0  0  0  0  0  0  0  0  0  0  0
  142.5656   78.3553  220.5592 H   0  0  0  0  0  0  0  0  0  0  0  0
  141.2353   79.8110  222.0732 H   0  0  0  0  0  0  0  0  0  0  0  0
  139.4125   78.8701  223.4202 H   0  0  0  0  0  0  0  0  0  0  0  0
  138.8325   76.4235  223.3078 H   0  0  0  0  0  0  0  0  0  0  0  0
  140.7954   71.8745  220.2992 H   0  0  0  0  0  0  0  0  0  0  0  0
  138.4371   71.8148  221.3805 H   0  0  0  0  0  0  0  0  0  0  0  0
  141.7434   72.6767  226.6411 H   0  0  0  0  0  0  0  0  0  0  0  0
  141.5771   70.9857  228.4150 H   0  0  0  0  0  0  0  0  0  0  0  0
  140.3170   68.8416  228.0479 H   0  0  0  0  0  0  0  0  0  0  0  0
  139.2490   68.4947  225.8145 H   0  0  0  0  0  0  0  0  0  0  0  0
  138.8500   69.6720  223.2810 H   0  0  0  0  0  0  0  0  0  0  0  0
  141.9199   73.1777  218.5824 H   0  0  0  0  0  0  0  0  0  0  0  0
  143.3468   74.2772  218.9046 H   0  0  0  0  0  0  0  0  0  0  0  0
  142.5570   72.0289  220.6438 H   0  0  0  0  0  0  0  0  0  0  0  0
  143.1916   70.7607  218.7369 H   0  0  0  0  0  0  0  0  0  0  0  0
  144.1303   72.1352  218.0471 H   0  0  0  0  0  0  0  0  0  0  0  0
  144.9592   70.4203  220.3998 H   0  0  0  0  0  0  0  0  0  0  0  0
  145.5436   70.2899  218.6576 H   0  0  0  0  0  0  0  0  0  0  0  0
  146.8750   71.5520  220.4960 H   0  0  0  0  0  0  0  0  0  0  0  0
  146.4620   73.6763  220.7719 H   0  0  0  0  0  0  0  0  0  0  0  0
  145.5416   73.8102  219.2636 H   0  0  0  0  0  0  0  0  0  0  0  0
  144.6374   72.0512  221.6125 H   0  0  0  0  0  0  0  0  0  0  0  0
  144.1630   73.7948  221.4387 H   0  0  0  0  0  0  0  0  0  0  0  0
  1  2  2  0
  2  3  1  0
  3  4  2  0
  4  5  1  0
  5  6  2  0
  6  7  1  0
  7  8  2  0
  8  9  1  0
  9 10  2  0
 10 11  1  0
 11 12  2  0
 12 13  1  0
 13 14  2  0
 14 15  1  0
 15 16  2  0
 16 17  1  0
 17 18  2  0
 18 19  1  0
 19 20  2  0
 20 21  1  0
 10 22  1  0
 22 23  1  0
 23 24  1  0
 24 25  1  0
 25 26  1  0
 26 27  1  0
 27 28  1  0
 28 29  1  0
 22  2  1  0
 29 24  1  0
  8  3  1  0
 21 13  1  0
 20 15  1  0
  4 30  1  0
  5 31  1  0
  6 32  1  0
  7 33  1  0
 11 34  1  0
 12 35  1  0
 16 36  1  0
 17 37  1  0
 18 38  1  0
 19 39  1  0
 21 40  1  0
 23 41  1  0
 23 42  1  0
 24 43  1  0
 25 44  1  0
 25 45  1  0
 26 46  1  0
 26 47  1  0
 27 48  1  0
 28 49  1  0
 28 50  1  0
 29 51  1  0
 29 52  1  0
M  END
>  <smiles>  (22) 
O=c1c2ccccc2nc(/C=C/c2nc3ccccc3[nH]2)n1CC1CCNCC1

>  <score_type>  (22) 
oracle

>  <origin>  (22) 
autodockgpu

>  <m_score__min__energy>  (22) 
-9.1300000000000008

>  <m_primary>  (22) 
energy

>  <rmsd>  (22) 
8.09636147978676

>  <m_score__min__rmsd>  (22) 
8.09636147978676

>  <meeko>  (22) 
{"free_energy": -8.5, "intermolecular_energy": -9.99, "internal_energy": -1.17, "cluster_size": 17, "cluster_id": 2, "rank_in_cluster": 13}

>  <energy>  (22) 
-8.79

>  <cluster_rmsd>  (22) 
1.52

>  <cluster>  (22) 
1

$$$$

     RDKit          3D

 52 56  0  0  0  0  0  0  0  0999 V2000
  142.7600   74.8850  219.0500 O   0  0  0  0  0  0  0  0  0  0  0  0
  141.9270   74.7310  219.9840 C   0  0  0  0  0  0  0  0  0  0  0  0
  141.6220   75.8580  220.7110 C   0  0  0  0  0  0  0  0  0  0  0  0
  142.1900   77.0690  220.4410 C   0  0  0  0  0  0  0  0  0  0  0  0
  141.8240   78.1410  221.2210 C   0  0  0  0  0  0  0  0  0  0  0  0
  140.9110   77.9840  222.2420 C   0  0  0  0  0  0  0  0  0  0  0  0
  140.3200   76.7530  222.5310 C   0  0  0  0  0  0  0  0  0  0  0  0
  140.7150   75.7070  221.7250 C   0  0  0  0  0  0  0  0  0  0  0  0
  140.1950   74.5140  221.9440 N   0  0  0  0  0  0  0  0  0  0  0  0
  140.4780   73.3710  221.2390 C   0  0  0  0  0  0  0  0  0  0  0  0
  139.7680   72.2050  221.6640 C   0  0  0  0  0  0  0  0  0  0  0  0
  140.1510   71.1110  222.2130 C   0  0  0  0  0  0  0  0  0  0  0  0
  140.3040   71.0080  223.6910 C   0  0  0  0  0  0  0  0  0  0  0  0
  140.7350   71.9580  224.5320 N   0  0  0  0  0  0  0  0  0  0  0  0
  140.7440   71.5140  225.8000 C   0  0  0  0  0  0  0  0  0  0  0  0
  141.0790   72.0350  227.0340 C   0  0  0  0  0  0  0  0  0  0  0  0
  140.9660   71.2750  228.1800 C   0  0  0  0  0  0  0  0  0  0  0  0
  140.5110   69.9530  228.1440 C   0  0  0  0  0  0  0  0  0  0  0  0
  140.1810   69.4490  226.8970 C   0  0  0  0  0  0  0  0  0  0  0  0
  140.2940   70.2120  225.7500 C   0  0  0  0  0  0  0  0  0  0  0  0
  140.0380   69.9400  224.4590 N   0  0  0  0  0  0  0  0  0  0  0  0
  141.3600   73.5090  220.2510 N   0  0  0  0  0  0  0  0  0  0  0  0
  141.7570   72.4310  219.4120 C   0  0  0  0  0  0  0  0  0  0  0  0
  142.8240   71.5650  220.0040 C   0  0  0  0  0  0  0  0  0  0  0  0
  143.6480   70.9260  218.8920 C   0  0  0  0  0  0  0  0  0  0  0  0
  145.0580   70.7180  219.3480 C   0  0  0  0  0  0  0  0  0  0  0  0
  145.7860   71.9090  219.6600 N   0  0  0  0  0  0  0  0  0  0  0  0
  144.9030   72.9450  220.1550 C   0  0  0  0  0  0  0  0  0  0  0  0
  143.7940   72.2260  220.9190 C   0  0  0  0  0  0  0  0  0  0  0  0
  142.9182   77.1843  219.6246 H   0  0  0  0  0  0  0  0  0  0  0  0
  142.2630   79.1311  221.0288 H   0  0  0  0  0  0  0  0  0  0  0  0
  140.6388   78.8593  222.8500 H   0  0  0  0  0  0  0  0  0  0  0  0
  139.5905   76.6266  223.3446 H   0  0  0  0  0  0  0  0  0  0  0  0
  138.6838   72.2561  221.4857 H   0  0  0  0  0  0  0  0  0  0  0  0
  140.3697   70.2361  221.5832 H   0  0  0  0  0  0  0  0  0  0  0  0
  141.4413   73.0712  227.1045 H   0  0  0  0  0  0  0  0  0  0  0  0
  141.2410   71.7206  229.1474 H   0  0  0  0  0  0  0  0  0  0  0  0
  140.4201   69.3462  229.0570 H   0  0  0  0  0  0  0  0  0  0  0  0
  139.8191   68.4133  226.8172 H   0  0  0  0  0  0  0  0  0  0  0  0
  139.6770   69.0280  224.0660 H   0  0  0  0  0  0  0  0  0  0  0  0
  140.8749   71.8054  219.2107 H   0  0  0  0  0  0  0  0  0  0  0  0
  142.1764   72.8752  218.4973 H   0  0  0  0  0  0  0  0  0  0  0  0
  142.2538   70.8466  220.6112 H   0  0  0  0  0  0  0  0  0  0  0  0
  143.2058   69.9551  218.6241 H   0  0  0  0  0  0  0  0  0  0  0  0
  143.6483   71.5927  218.0171 H   0  0  0  0  0  0  0  0  0  0  0  0
  145.0331   70.0897  220.2506 H   0  0  0  0  0  0  0  0  0  0  0  0
  145.5846   70.2554  218.5002 H   0  0  0  0  0  0  0  0  0  0  0  0
  146.5000   71.7580  220.4110 H   0  0  0  0  0  0  0  0  0  0  0  0
  145.4497   73.6246  220.8252 H   0  0  0  0  0  0  0  0  0  0  0  0
  144.4963   73.5530  219.3335 H   0  0  0  0  0  0  0  0  0  0  0  0
  144.2474   71.4620  221.5677 H   0  0  0  0  0  0  0  0  0  0  0  0
  143.2471   72.9759  221.5093 H   0  0  0  0  0  0  0  0  0  0  0  0
  1  2  2  0
  2  3  1  0
  3  4  2  0
  4  5  1  0
  5  6  2  0
  6  7  1  0
  7  8  2  0
  8  9  1  0
  9 10  2  0
 10 11  1  0
 11 12  2  0
 12 13  1  0
 13 14  2  0
 14 15  1  0
 15 16  2  0
 16 17  1  0
 17 18  2  0
 18 19  1  0
 19 20  2  0
 20 21  1  0
 10 22  1  0
 22 23  1  0
 23 24  1  0
 24 25  1  0
 25 26  1  0
 26 27  1  0
 27 28  1  0
 28 29  1  0
 22  2  1  0
 29 24  1  0
  8  3  1  0
 21 13  1  0
 20 15  1  0
  4 30  1  0
  5 31  1  0
  6 32  1  0
  7 33  1  0
 11 34  1  0
 12 35  1  0
 16 36  1  0
 17 37  1  0
 18 38  1  0
 19 39  1  0
 21 40  1  0
 23 41  1  0
 23 42  1  0
 24 43  1  0
 25 44  1  0
 25 45  1  0
 26 46  1  0
 26 47  1  0
 27 48  1  0
 28 49  1  0
 28 50  1  0
 29 51  1  0
 29 52  1  0
M  END
>  <smiles>  (23) 
O=c1c2ccccc2nc(/C=C/c2nc3ccccc3[nH]2)n1CC1CCNCC1

>  <score_type>  (23) 
oracle

>  <origin>  (23) 
autodockgpu

>  <m_score__min__energy>  (23) 
-9.1300000000000008

>  <m_primary>  (23) 
energy

>  <rmsd>  (23) 
8.251043368432862

>  <m_score__min__rmsd>  (23) 
8.251043368432862

>  <meeko>  (23) 
{"free_energy": -8.6, "intermolecular_energy": -10.09, "internal_energy": -1.32, "cluster_size": 17, "cluster_id": 2, "rank_in_cluster": 9}

>  <energy>  (23) 
-8.79

>  <cluster_rmsd>  (23) 
1.6

>  <cluster>  (23) 
1

$$$$

     RDKit          3D

 52 56  0  0  0  0  0  0  0  0999 V2000
  138.8340   67.9670  225.3240 O   0  0  0  0  0  0  0  0  0  0  0  0
  139.2890   69.1100  225.0460 C   0  0  0  0  0  0  0  0  0  0  0  0
  139.8670   69.7970  226.0870 C   0  0  0  0  0  0  0  0  0  0  0  0
  139.9410   69.2770  227.3470 C   0  0  0  0  0  0  0  0  0  0  0  0
  140.5380   70.0370  228.3240 C   0  0  0  0  0  0  0  0  0  0  0  0
  141.0420   71.2850  228.0300 C   0  0  0  0  0  0  0  0  0  0  0  0
  140.9750   71.8330  226.7470 C   0  0  0  0  0  0  0  0  0  0  0  0
  140.3700   71.0380  225.7990 C   0  0  0  0  0  0  0  0  0  0  0  0
  140.2730   71.4940  224.5650 N   0  0  0  0  0  0  0  0  0  0  0  0
  139.7020   70.8350  223.5050 C   0  0  0  0  0  0  0  0  0  0  0  0
  139.7370   71.5410  222.2620 C   0  0  0  0  0  0  0  0  0  0  0  0
  140.5700   72.3840  221.7700 C   0  0  0  0  0  0  0  0  0  0  0  0
  140.3410   73.8490  221.8970 C   0  0  0  0  0  0  0  0  0  0  0  0
  141.1960   74.8350  221.5950 N   0  0  0  0  0  0  0  0  0  0  0  0
  140.6520   76.0400  221.8370 C   0  0  0  0  0  0  0  0  0  0  0  0
  141.0540   77.3560  221.7180 C   0  0  0  0  0  0  0  0  0  0  0  0
  140.2120   78.3900  222.0710 C   0  0  0  0  0  0  0  0  0  0  0  0
  138.9240   78.1560  222.5610 C   0  0  0  0  0  0  0  0  0  0  0  0
  138.5400   76.8290  222.6730 C   0  0  0  0  0  0  0  0  0  0  0  0
  139.3840   75.7940  222.3190 C   0  0  0  0  0  0  0  0  0  0  0  0
  139.2310   74.4600  222.3420 N   0  0  0  0  0  0  0  0  0  0  0  0
  139.2100   69.6280  223.7760 N   0  0  0  0  0  0  0  0  0  0  0  0
  138.5960   68.8040  222.7940 C   0  0  0  0  0  0  0  0  0  0  0  0
  137.1790   69.1760  222.4900 C   0  0  0  0  0  0  0  0  0  0  0  0
  136.3330   67.9160  222.3430 C   0  0  0  0  0  0  0  0  0  0  0  0
  134.9290   68.1810  222.7860 C   0  0  0  0  0  0  0  0  0  0  0  0
  134.7740   68.5260  224.1660 N   0  0  0  0  0  0  0  0  0  0  0  0
  135.9420   69.2240  224.6630 C   0  0  0  0  0  0  0  0  0  0  0  0
  136.4830   70.0340  223.4870 C   0  0  0  0  0  0  0  0  0  0  0  0
  139.5351   68.2800  227.5734 H   0  0  0  0  0  0  0  0  0  0  0  0
  140.6141   69.6457  229.3492 H   0  0  0  0  0  0  0  0  0  0  0  0
  141.5135   71.8701  228.8334 H   0  0  0  0  0  0  0  0  0  0  0  0
  141.3771   72.8292  226.5104 H   0  0  0  0  0  0  0  0  0  0  0  0
  138.8866   71.3188  221.6006 H   0  0  0  0  0  0  0  0  0  0  0  0
  141.4661   72.0186  221.2470 H   0  0  0  0  0  0  0  0  0  0  0  0
  142.0603   77.5829  221.3361 H   0  0  0  0  0  0  0  0  0  0  0  0
  140.5637   79.4268  221.9640 H   0  0  0  0  0  0  0  0  0  0  0  0
  138.2519   78.9801  222.8424 H   0  0  0  0  0  0  0  0  0  0  0  0
  137.5355   76.5933  223.0543 H   0  0  0  0  0  0  0  0  0  0  0  0
  138.3740   73.9280  222.6580 H   0  0  0  0  0  0  0  0  0  0  0  0
  139.1804   68.8782  221.8651 H   0  0  0  0  0  0  0  0  0  0  0  0
  138.5775   67.7822  223.2010 H   0  0  0  0  0  0  0  0  0  0  0  0
  137.2687   69.7681  221.5673 H   0  0  0  0  0  0  0  0  0  0  0  0
  136.3282   67.6027  221.2886 H   0  0  0  0  0  0  0  0  0  0  0  0
  136.7626   67.1205  222.9695 H   0  0  0  0  0  0  0  0  0  0  0  0
  134.5341   69.0115  222.1825 H   0  0  0  0  0  0  0  0  0  0  0  0
  134.3847   67.2351  222.6478 H   0  0  0  0  0  0  0  0  0  0  0  0
  133.9650   69.1690  224.3310 H   0  0  0  0  0  0  0  0  0  0  0  0
  135.6638   69.8924  225.4912 H   0  0  0  0  0  0  0  0  0  0  0  0
  136.6961   68.5220  225.0485 H   0  0  0  0  0  0  0  0  0  0  0  0
  135.6438   70.5442  222.9916 H   0  0  0  0  0  0  0  0  0  0  0  0
  137.2129   70.7568  223.8805 H   0  0  0  0  0  0  0  0  0  0  0  0
  1  2  2  0
  2  3  1  0
  3  4  2  0
  4  5  1  0
  5  6  2  0
  6  7  1  0
  7  8  2  0
  8  9  1  0
  9 10  2  0
 10 11  1  0
 11 12  2  0
 12 13  1  0
 13 14  2  0
 14 15  1  0
 15 16  2  0
 16 17  1  0
 17 18  2  0
 18 19  1  0
 19 20  2  0
 20 21  1  0
 10 22  1  0
 22 23  1  0
 23 24  1  0
 24 25  1  0
 25 26  1  0
 26 27  1  0
 27 28  1  0
 28 29  1  0
 22  2  1  0
 29 24  1  0
  8  3  1  0
 21 13  1  0
 20 15  1  0
  4 30  1  0
  5 31  1  0
  6 32  1  0
  7 33  1  0
 11 34  1  0
 12 35  1  0
 16 36  1  0
 17 37  1  0
 18 38  1  0
 19 39  1  0
 21 40  1  0
 23 41  1  0
 23 42  1  0
 24 43  1  0
 25 44  1  0
 25 45  1  0
 26 46  1  0
 26 47  1  0
 27 48  1  0
 28 49  1  0
 28 50  1  0
 29 51  1  0
 29 52  1  0
M  END
>  <smiles>  (24) 
O=c1c2ccccc2nc(/C=C/c2nc3ccccc3[nH]2)n1CC1CCNCC1

>  <score_type>  (24) 
oracle

>  <origin>  (24) 
autodockgpu

>  <m_score__min__energy>  (24) 
-9.1300000000000008

>  <m_primary>  (24) 
energy

>  <rmsd>  (24) 
12.195972265791788

>  <m_score__min__rmsd>  (24) 
12.195972265791788

>  <meeko>  (24) 
{"free_energy": -9.06, "intermolecular_energy": -10.56, "internal_energy": -1.2, "cluster_size": 30, "cluster_id": 1, "rank_in_cluster": 6}

>  <energy>  (24) 
-8.75

>  <cluster_rmsd>  (24) 
1.37

>  <cluster>  (24) 
1

$$$$

     RDKit          3D

 52 56  0  0  0  0  0  0  0  0999 V2000
  142.7360   74.9030  219.0450 O   0  0  0  0  0  0  0  0  0  0  0  0
  141.9300   74.7310  220.0000 C   0  0  0  0  0  0  0  0  0  0  0  0
  141.6290   75.8480  220.7420 C   0  0  0  0  0  0  0  0  0  0  0  0
  142.1720   77.0700  220.4670 C   0  0  0  0  0  0  0  0  0  0  0  0
  141.8120   78.1300  221.2640 C   0  0  0  0  0  0  0  0  0  0  0  0
  140.9300   77.9540  222.3070 C   0  0  0  0  0  0  0  0  0  0  0  0
  140.3640   76.7120  222.6030 C   0  0  0  0  0  0  0  0  0  0  0  0
  140.7510   75.6780  221.7800 C   0  0  0  0  0  0  0  0  0  0  0  0
  140.2550   74.4760  222.0030 N   0  0  0  0  0  0  0  0  0  0  0  0
  140.5350   73.3420  221.2830 C   0  0  0  0  0  0  0  0  0  0  0  0
  139.8520   72.1630  221.7180 C   0  0  0  0  0  0  0  0  0  0  0  0
  140.2630   71.0800  222.2700 C   0  0  0  0  0  0  0  0  0  0  0  0
  140.3450   70.9590  223.7510 C   0  0  0  0  0  0  0  0  0  0  0  0
  140.7210   71.9020  224.6250 N   0  0  0  0  0  0  0  0  0  0  0  0
  140.6750   71.4400  225.8860 C   0  0  0  0  0  0  0  0  0  0  0  0
  140.9420   71.9490  227.1420 C   0  0  0  0  0  0  0  0  0  0  0  0
  140.7840   71.1720  228.2710 C   0  0  0  0  0  0  0  0  0  0  0  0
  140.3510   69.8450  228.1950 C   0  0  0  0  0  0  0  0  0  0  0  0
  140.0880   69.3540  226.9260 C   0  0  0  0  0  0  0  0  0  0  0  0
  140.2470   70.1340  225.7970 C   0  0  0  0  0  0  0  0  0  0  0  0
  140.0570   69.8760  224.4920 N   0  0  0  0  0  0  0  0  0  0  0  0
  141.3880   73.4990  220.2720 N   0  0  0  0  0  0  0  0  0  0  0  0
  141.7770   72.4330  219.4160 C   0  0  0  0  0  0  0  0  0  0  0  0
  142.8330   71.5450  219.9960 C   0  0  0  0  0  0  0  0  0  0  0  0
  143.6750   70.9430  218.8770 C   0  0  0  0  0  0  0  0  0  0  0  0
  145.0760   70.7160  219.3500 C   0  0  0  0  0  0  0  0  0  0  0  0
  145.8010   71.8950  219.7140 N   0  0  0  0  0  0  0  0  0  0  0  0
  144.9110   72.9150  220.2290 C   0  0  0  0  0  0  0  0  0  0  0  0
  143.7870   72.1730  220.9490 C   0  0  0  0  0  0  0  0  0  0  0  0
  142.8765   77.2021  219.6326 H   0  0  0  0  0  0  0  0  0  0  0  0
  142.2318   79.1275  221.0673 H   0  0  0  0  0  0  0  0  0  0  0  0
  140.6621   78.8214  222.9282 H   0  0  0  0  0  0  0  0  0  0  0  0
  139.6587   76.5697  223.4350 H   0  0  0  0  0  0  0  0  0  0  0  0
  138.7658   72.1898  221.5464 H   0  0  0  0  0  0  0  0  0  0  0  0
  140.5590   70.2287  221.6394 H   0  0  0  0  0  0  0  0  0  0  0  0
  141.2856   72.9890  227.2435 H   0  0  0  0  0  0  0  0  0  0  0  0
  141.0045   71.6080  229.2565 H   0  0  0  0  0  0  0  0  0  0  0  0
  140.2258   69.2239  229.0942 H   0  0  0  0  0  0  0  0  0  0  0  0
  139.7434   68.3153  226.8148 H   0  0  0  0  0  0  0  0  0  0  0  0
  139.7290   68.9650  224.0690 H   0  0  0  0  0  0  0  0  0  0  0  0
  140.8893   71.8203  219.2002 H   0  0  0  0  0  0  0  0  0  0  0  0
  142.2047   72.8894  218.5112 H   0  0  0  0  0  0  0  0  0  0  0  0
  142.2522   70.8066  220.5683 H   0  0  0  0  0  0  0  0  0  0  0  0
  143.2358   69.9830  218.5679 H   0  0  0  0  0  0  0  0  0  0  0  0
  143.6918   71.6395  218.0258 H   0  0  0  0  0  0  0  0  0  0  0  0
  145.0342   70.0582  220.2307 H   0  0  0  0  0  0  0  0  0  0  0  0
  145.6164   70.2800  218.4968 H   0  0  0  0  0  0  0  0  0  0  0  0
  146.5010   71.7170  220.4720 H   0  0  0  0  0  0  0  0  0  0  0  0
  145.4471   73.5700  220.9315 H   0  0  0  0  0  0  0  0  0  0  0  0
  144.5195   73.5513  219.4216 H   0  0  0  0  0  0  0  0  0  0  0  0
  144.2277   71.3870  221.5799 H   0  0  0  0  0  0  0  0  0  0  0  0
  143.2307   72.9041  221.5540 H   0  0  0  0  0  0  0  0  0  0  0  0
  1  2  2  0
  2  3  1  0
  3  4  2  0
  4  5  1  0
  5  6  2  0
  6  7  1  0
  7  8  2  0
  8  9  1  0
  9 10  2  0
 10 11  1  0
 11 12  2  0
 12 13  1  0
 13 14  2  0
 14 15  1  0
 15 16  2  0
 16 17  1  0
 17 18  2  0
 18 19  1  0
 19 20  2  0
 20 21  1  0
 10 22  1  0
 22 23  1  0
 23 24  1  0
 24 25  1  0
 25 26  1  0
 26 27  1  0
 27 28  1  0
 28 29  1  0
 22  2  1  0
 29 24  1  0
  8  3  1  0
 21 13  1  0
 20 15  1  0
  4 30  1  0
  5 31  1  0
  6 32  1  0
  7 33  1  0
 11 34  1  0
 12 35  1  0
 16 36  1  0
 17 37  1  0
 18 38  1  0
 19 39  1  0
 21 40  1  0
 23 41  1  0
 23 42  1  0
 24 43  1  0
 25 44  1  0
 25 45  1  0
 26 46  1  0
 26 47  1  0
 27 48  1  0
 28 49  1  0
 28 50  1  0
 29 51  1  0
 29 52  1  0
M  END
>  <smiles>  (25) 
O=c1c2ccccc2nc(/C=C/c2nc3ccccc3[nH]2)n1CC1CCNCC1

>  <score_type>  (25) 
oracle

>  <origin>  (25) 
autodockgpu

>  <m_score__min__energy>  (25) 
-9.1300000000000008

>  <m_primary>  (25) 
energy

>  <rmsd>  (25) 
8.270832498635981

>  <m_score__min__rmsd>  (25) 
8.270832498635981

>  <meeko>  (25) 
{"free_energy": -8.62, "intermolecular_energy": -10.12, "internal_energy": -1.31, "cluster_size": 17, "cluster_id": 2, "rank_in_cluster": 8}

>  <energy>  (25) 
-8.7

>  <cluster_rmsd>  (25) 
1.13

>  <cluster>  (25) 
1

$$$$

     RDKit          3D

 52 56  0  0  0  0  0  0  0  0999 V2000
  139.1860   67.6940  225.3740 O   0  0  0  0  0  0  0  0  0  0  0  0
  139.5220   68.8800  225.1070 C   0  0  0  0  0  0  0  0  0  0  0  0
  140.0640   69.6000  226.1450 C   0  0  0  0  0  0  0  0  0  0  0  0
  140.2250   69.0670  227.3910 C   0  0  0  0  0  0  0  0  0  0  0  0
  140.7760   69.8620  228.3670 C   0  0  0  0  0  0  0  0  0  0  0  0
  141.1510   71.1580  228.0850 C   0  0  0  0  0  0  0  0  0  0  0  0
  140.9940   71.7200  226.8160 C   0  0  0  0  0  0  0  0  0  0  0  0
  140.4380   70.8880  225.8690 C   0  0  0  0  0  0  0  0  0  0  0  0
  140.2610   71.3550  224.6470 N   0  0  0  0  0  0  0  0  0  0  0  0
  139.7230   70.6640  223.5910 C   0  0  0  0  0  0  0  0  0  0  0  0
  139.6540   71.3920  222.3620 C   0  0  0  0  0  0  0  0  0  0  0  0
  140.4590   72.2180  221.8000 C   0  0  0  0  0  0  0  0  0  0  0  0
  140.2570   73.6880  221.9210 C   0  0  0  0  0  0  0  0  0  0  0  0
  141.1340   74.6570  221.6280 N   0  0  0  0  0  0  0  0  0  0  0  0
  140.6090   75.8720  221.8590 C   0  0  0  0  0  0  0  0  0  0  0  0
  141.0380   77.1800  221.7420 C   0  0  0  0  0  0  0  0  0  0  0  0
  140.2110   78.2310  222.0800 C   0  0  0  0  0  0  0  0  0  0  0  0
  138.9110   78.0220  222.5520 C   0  0  0  0  0  0  0  0  0  0  0  0
  138.5010   76.7030  222.6620 C   0  0  0  0  0  0  0  0  0  0  0  0
  139.3300   75.6520  222.3230 C   0  0  0  0  0  0  0  0  0  0  0  0
  139.1520   74.3200  222.3480 N   0  0  0  0  0  0  0  0  0  0  0  0
  139.3560   69.4110  223.8510 N   0  0  0  0  0  0  0  0  0  0  0  0
  138.7940   68.5500  222.8690 C   0  0  0  0  0  0  0  0  0  0  0  0
  137.2980   68.5710  222.8290 C   0  0  0  0  0  0  0  0  0  0  0  0
  136.7580   69.2680  224.0730 C   0  0  0  0  0  0  0  0  0  0  0  0
  135.4690   69.9600  223.7580 C   0  0  0  0  0  0  0  0  0  0  0  0
  135.5570   71.0160  222.7970 N   0  0  0  0  0  0  0  0  0  0  0  0
  136.6130   70.7620  221.8390 C   0  0  0  0  0  0  0  0  0  0  0  0
  136.6680   69.2460  221.6620 C   0  0  0  0  0  0  0  0  0  0  0  0
  139.9227   68.0318  227.6076 H   0  0  0  0  0  0  0  0  0  0  0  0
  140.9189   69.4610  229.3813 H   0  0  0  0  0  0  0  0  0  0  0  0
  141.5889   71.7707  228.8868 H   0  0  0  0  0  0  0  0  0  0  0  0
  141.2931   72.7539  226.5887 H   0  0  0  0  0  0  0  0  0  0  0  0
  138.7337   71.2085  221.7881 H   0  0  0  0  0  0  0  0  0  0  0  0
  141.3113   71.8342  221.2200 H   0  0  0  0  0  0  0  0  0  0  0  0
  142.0539   77.3864  221.3740 H   0  0  0  0  0  0  0  0  0  0  0  0
  140.5837   79.2607  221.9756 H   0  0  0  0  0  0  0  0  0  0  0  0
  138.2501   78.8591  222.8212 H   0  0  0  0  0  0  0  0  0  0  0  0
  137.4870   76.4871  223.0296 H   0  0  0  0  0  0  0  0  0  0  0  0
  138.2800   73.8060  222.6530 H   0  0  0  0  0  0  0  0  0  0  0  0
  139.1712   68.8571  221.8824 H   0  0  0  0  0  0  0  0  0  0  0  0
  139.0920   67.5250  223.1347 H   0  0  0  0  0  0  0  0  0  0  0  0
  137.0341   67.5054  222.7596 H   0  0  0  0  0  0  0  0  0  0  0  0
  136.5863   68.5214  224.8624 H   0  0  0  0  0  0  0  0  0  0  0  0
  137.4917   70.0130  224.4145 H   0  0  0  0  0  0  0  0  0  0  0  0
  134.7658   69.2076  223.3716 H   0  0  0  0  0  0  0  0  0  0  0  0
  135.1416   70.4314  224.6964 H   0  0  0  0  0  0  0  0  0  0  0  0
  134.6800   71.1220  222.2350 H   0  0  0  0  0  0  0  0  0  0  0  0
  136.3844   71.2503  220.8802 H   0  0  0  0  0  0  0  0  0  0  0  0
  137.5768   71.1613  222.1877 H   0  0  0  0  0  0  0  0  0  0  0  0
  135.6431   68.8650  221.5421 H   0  0  0  0  0  0  0  0  0  0  0  0
  137.2794   69.0296  220.7735 H   0  0  0  0  0  0  0  0  0  0  0  0
  1  2  2  0
  2  3  1  0
  3  4  2  0
  4  5  1  0
  5  6  2  0
  6  7  1  0
  7  8  2  0
  8  9  1  0
  9 10  2  0
 10 11  1  0
 11 12  2  0
 12 13  1  0
 13 14  2  0
 14 15  1  0
 15 16  2  0
 16 17  1  0
 17 18  2  0
 18 19  1  0
 19 20  2  0
 20 21  1  0
 10 22  1  0
 22 23  1  0
 23 24  1  0
 24 25  1  0
 25 26  1  0
 26 27  1  0
 27 28  1  0
 28 29  1  0
 22  2  1  0
 29 24  1  0
  8  3  1  0
 21 13  1  0
 20 15  1  0
  4 30  1  0
  5 31  1  0
  6 32  1  0
  7 33  1  0
 11 34  1  0
 12 35  1  0
 16 36  1  0
 17 37  1  0
 18 38  1  0
 19 39  1  0
 21 40  1  0
 23 41  1  0
 23 42  1  0
 24 43  1  0
 25 44  1  0
 25 45  1  0
 26 46  1  0
 26 47  1  0
 27 48  1  0
 28 49  1  0
 28 50  1  0
 29 51  1  0
 29 52  1  0
M  END
>  <smiles>  (26) 
O=c1c2ccccc2nc(/C=C/c2nc3ccccc3[nH]2)n1CC1CCNCC1

>  <score_type>  (26) 
oracle

>  <origin>  (26) 
autodockgpu

>  <m_score__min__energy>  (26) 
-9.1300000000000008

>  <m_primary>  (26) 
energy

>  <rmsd>  (26) 
11.92891214960394

>  <m_score__min__rmsd>  (26) 
11.92891214960394

>  <meeko>  (26) 
{"free_energy": -8.49, "intermolecular_energy": -9.98, "internal_energy": -1.18, "cluster_size": 30, "cluster_id": 1, "rank_in_cluster": 28}

>  <energy>  (26) 
-8.7

>  <cluster_rmsd>  (26) 
1.13

>  <cluster>  (26) 
1

$$$$

     RDKit          3D

 52 56  0  0  0  0  0  0  0  0999 V2000
  138.3860   68.5340  225.4230 O   0  0  0  0  0  0  0  0  0  0  0  0
  139.1230   69.5030  225.0940 C   0  0  0  0  0  0  0  0  0  0  0  0
  139.8500   70.0790  226.1090 C   0  0  0  0  0  0  0  0  0  0  0  0
  139.7760   69.6320  227.3960 C   0  0  0  0  0  0  0  0  0  0  0  0
  140.5400   70.2700  228.3450 C   0  0  0  0  0  0  0  0  0  0  0  0
  141.3510   71.3270  227.9950 C   0  0  0  0  0  0  0  0  0  0  0  0
  141.4400   71.7970  226.6830 C   0  0  0  0  0  0  0  0  0  0  0  0
  140.6580   71.1290  225.7660 C   0  0  0  0  0  0  0  0  0  0  0  0
  140.6930   71.5220  224.5060 N   0  0  0  0  0  0  0  0  0  0  0  0
  139.9810   70.9710  223.4710 C   0  0  0  0  0  0  0  0  0  0  0  0
  140.2080   71.5690  222.1920 C   0  0  0  0  0  0  0  0  0  0  0  0
  140.9220   72.5680  221.8190 C   0  0  0  0  0  0  0  0  0  0  0  0
  140.4230   73.9630  221.9660 C   0  0  0  0  0  0  0  0  0  0  0  0
  141.1050   75.0960  221.7550 N   0  0  0  0  0  0  0  0  0  0  0  0
  140.3360   76.1740  221.9850 C   0  0  0  0  0  0  0  0  0  0  0  0
  140.5000   77.5440  221.9310 C   0  0  0  0  0  0  0  0  0  0  0  0
  139.4630   78.3970  222.2440 C   0  0  0  0  0  0  0  0  0  0  0  0
  138.2070   77.9170  222.6280 C   0  0  0  0  0  0  0  0  0  0  0  0
  138.0620   76.5400  222.6770 C   0  0  0  0  0  0  0  0  0  0  0  0
  139.1030   75.6880  222.3630 C   0  0  0  0  0  0  0  0  0  0  0  0
  139.1920   74.3470  222.3400 N   0  0  0  0  0  0  0  0  0  0  0  0
  139.1920   69.9490  223.7960 N   0  0  0  0  0  0  0  0  0  0  0  0
  138.3960   69.2530  222.8460 C   0  0  0  0  0  0  0  0  0  0  0  0
  137.0550   69.8750  222.6080 C   0  0  0  0  0  0  0  0  0  0  0  0
  136.8050   70.9730  223.6350 C   0  0  0  0  0  0  0  0  0  0  0  0
  135.9510   72.0490  223.0430 C   0  0  0  0  0  0  0  0  0  0  0  0
  136.5250   72.7520  221.9370 N   0  0  0  0  0  0  0  0  0  0  0  0
  137.4160   71.8960  221.1820 C   0  0  0  0  0  0  0  0  0  0  0  0
  136.8290   70.4890  221.2720 C   0  0  0  0  0  0  0  0  0  0  0  0
  139.1253   68.7873  227.6662 H   0  0  0  0  0  0  0  0  0  0  0  0
  140.5032   69.9336  229.3917 H   0  0  0  0  0  0  0  0  0  0  0  0
  141.9495   71.8181  228.7764 H   0  0  0  0  0  0  0  0  0  0  0  0
  142.0880   72.6402  226.4017 H   0  0  0  0  0  0  0  0  0  0  0  0
  139.6665   71.0784  221.3698 H   0  0  0  0  0  0  0  0  0  0  0  0
  141.9169   72.3911  221.3845 H   0  0  0  0  0  0  0  0  0  0  0  0
  141.4733   77.9614  221.6336 H   0  0  0  0  0  0  0  0  0  0  0  0
  139.6279   79.4832  222.1903 H   0  0  0  0  0  0  0  0  0  0  0  0
  137.3786   78.5962  222.8778 H   0  0  0  0  0  0  0  0  0  0  0  0
  137.0923   76.1139  222.9738 H   0  0  0  0  0  0  0  0  0  0  0  0
  138.4250   73.6590  222.5760 H   0  0  0  0  0  0  0  0  0  0  0  0
  138.9404   69.2268  221.8905 H   0  0  0  0  0  0  0  0  0  0  0  0
  138.2144   68.2484  223.2556 H   0  0  0  0  0  0  0  0  0  0  0  0
  136.3656   69.0214  222.6857 H   0  0  0  0  0  0  0  0  0  0  0  0
  136.2941   70.5433  224.5093 H   0  0  0  0  0  0  0  0  0  0  0  0
  137.7692   71.4064  223.9391 H   0  0  0  0  0  0  0  0  0  0  0  0
  135.0128   71.5875  222.7012 H   0  0  0  0  0  0  0  0  0  0  0  0
  135.8133   72.7970  223.8377 H   0  0  0  0  0  0  0  0  0  0  0  0
  135.8040   73.0870  221.2560 H   0  0  0  0  0  0  0  0  0  0  0  0
  137.4625   72.2239  220.1330 H   0  0  0  0  0  0  0  0  0  0  0  0
  138.4404   71.9303  221.5814 H   0  0  0  0  0  0  0  0  0  0  0  0
  135.7464   70.5433  221.0847 H   0  0  0  0  0  0  0  0  0  0  0  0
  137.3320   69.8624  220.5208 H   0  0  0  0  0  0  0  0  0  0  0  0
  1  2  2  0
  2  3  1  0
  3  4  2  0
  4  5  1  0
  5  6  2  0
  6  7  1  0
  7  8  2  0
  8  9  1  0
  9 10  2  0
 10 11  1  0
 11 12  2  0
 12 13  1  0
 13 14  2  0
 14 15  1  0
 15 16  2  0
 16 17  1  0
 17 18  2  0
 18 19  1  0
 19 20  2  0
 20 21  1  0
 10 22  1  0
 22 23  1  0
 23 24  1  0
 24 25  1  0
 25 26  1  0
 26 27  1  0
 27 28  1  0
 28 29  1  0
 22  2  1  0
 29 24  1  0
  8  3  1  0
 21 13  1  0
 20 15  1  0
  4 30  1  0
  5 31  1  0
  6 32  1  0
  7 33  1  0
 11 34  1  0
 12 35  1  0
 16 36  1  0
 17 37  1  0
 18 38  1  0
 19 39  1  0
 21 40  1  0
 23 41  1  0
 23 42  1  0
 24 43  1  0
 25 44  1  0
 25 45  1  0
 26 46  1  0
 26 47  1  0
 27 48  1  0
 28 49  1  0
 28 50  1  0
 29 51  1  0
 29 52  1  0
M  END
>  <smiles>  (27) 
O=c1c2ccccc2nc(/C=C/c2nc3ccccc3[nH]2)n1CC1CCNCC1

>  <score_type>  (27) 
oracle

>  <origin>  (27) 
autodockgpu

>  <m_score__min__energy>  (27) 
-9.1300000000000008

>  <m_primary>  (27) 
energy

>  <rmsd>  (27) 
11.037209923714137

>  <m_score__min__rmsd>  (27) 
11.037209923714137

>  <meeko>  (27) 
{"free_energy": -7.72, "intermolecular_energy": -9.21, "internal_energy": -2.12, "cluster_size": 30, "cluster_id": 1, "rank_in_cluster": 29}

>  <energy>  (27) 
-8.61

>  <cluster_rmsd>  (27) 
0.88

>  <cluster>  (27) 
1

$$$$

     RDKit          3D

 52 56  0  0  0  0  0  0  0  0999 V2000
  142.7840   75.5990  218.9790 O   0  0  0  0  0  0  0  0  0  0  0  0
  142.0760   75.2000  219.9440 C   0  0  0  0  0  0  0  0  0  0  0  0
  141.5750   76.1790  220.7690 C   0  0  0  0  0  0  0  0  0  0  0  0
  141.8310   77.5030  220.5600 C   0  0  0  0  0  0  0  0  0  0  0  0
  141.2870   78.4110  221.4370 C   0  0  0  0  0  0  0  0  0  0  0  0
  140.5090   77.9860  222.4910 C   0  0  0  0  0  0  0  0  0  0  0  0
  140.2370   76.6350  222.7200 C   0  0  0  0  0  0  0  0  0  0  0  0
  140.8010   75.7610  221.8180 C   0  0  0  0  0  0  0  0  0  0  0  0
  140.5840   74.4680  221.9750 N   0  0  0  0  0  0  0  0  0  0  0  0
  141.0700   73.4670  221.1720 C   0  0  0  0  0  0  0  0  0  0  0  0
  140.6760   72.1440  221.5470 C   0  0  0  0  0  0  0  0  0  0  0  0
  139.6740   71.6960  222.2110 C   0  0  0  0  0  0  0  0  0  0  0  0
  139.8290   71.2500  223.6230 C   0  0  0  0  0  0  0  0  0  0  0  0
  139.2180   70.2200  224.2220 N   0  0  0  0  0  0  0  0  0  0  0  0
  139.5980   70.1110  225.5060 C   0  0  0  0  0  0  0  0  0  0  0  0
  139.3060   69.2700  226.5630 C   0  0  0  0  0  0  0  0  0  0  0  0
  139.8970   69.4490  227.7960 C   0  0  0  0  0  0  0  0  0  0  0  0
  140.8120   70.4800  228.0310 C   0  0  0  0  0  0  0  0  0  0  0  0
  141.0910   71.3120  226.9590 C   0  0  0  0  0  0  0  0  0  0  0  0
  140.4980   71.1320  225.7240 C   0  0  0  0  0  0  0  0  0  0  0  0
  140.6130   71.8000  224.5640 N   0  0  0  0  0  0  0  0  0  0  0  0
  141.8240   73.8650  220.1490 N   0  0  0  0  0  0  0  0  0  0  0  0
  142.3960   72.9620  219.2120 C   0  0  0  0  0  0  0  0  0  0  0  0
  143.2710   71.9180  219.8320 C   0  0  0  0  0  0  0  0  0  0  0  0
  144.0800   71.2110  218.7510 C   0  0  0  0  0  0  0  0  0  0  0  0
  145.4000   70.7710  219.2980 C   0  0  0  0  0  0  0  0  0  0  0  0
  146.2690   71.8230  219.7290 N   0  0  0  0  0  0  0  0  0  0  0  0
  145.5120   72.9590  220.2140 C   0  0  0  0  0  0  0  0  0  0  0  0
  144.2490   72.3840  220.8520 C   0  0  0  0  0  0  0  0  0  0  0  0
  142.4536   77.8335  219.7156 H   0  0  0  0  0  0  0  0  0  0  0  0
  141.4746   79.4857  221.2958 H   0  0  0  0  0  0  0  0  0  0  0  0
  140.0873   78.7362  223.1761 H   0  0  0  0  0  0  0  0  0  0  0  0
  139.6161   76.2937  223.5614 H   0  0  0  0  0  0  0  0  0  0  0  0
  141.3647   71.3600  221.1991 H   0  0  0  0  0  0  0  0  0  0  0  0
  138.6862   71.6406  221.7303 H   0  0  0  0  0  0  0  0  0  0  0  0
  138.5918   68.4459  226.4187 H   0  0  0  0  0  0  0  0  0  0  0  0
  139.6418   68.7624  228.6166 H   0  0  0  0  0  0  0  0  0  0  0  0
  141.2847   70.6227  229.0140 H   0  0  0  0  0  0  0  0  0  0  0  0
  141.8041   72.1385  227.0947 H   0  0  0  0  0  0  0  0  0  0  0  0
  141.2230   72.6430  224.3790 H   0  0  0  0  0  0  0  0  0  0  0  0
  141.5796   72.4559  218.6760 H   0  0  0  0  0  0  0  0  0  0  0  0
  143.0347   73.5579  218.5434 H   0  0  0  0  0  0  0  0  0  0  0  0
  142.5532   71.2675  220.3531 H   0  0  0  0  0  0  0  0  0  0  0  0
  143.5223   70.3316  218.3966 H   0  0  0  0  0  0  0  0  0  0  0  0
  144.2515   71.9082  217.9176 H   0  0  0  0  0  0  0  0  0  0  0  0
  145.2082   70.1151  220.1600 H   0  0  0  0  0  0  0  0  0  0  0  0
  145.9197   70.2706  218.4676 H   0  0  0  0  0  0  0  0  0  0  0  0
  146.8890   71.5330  220.5220 H   0  0  0  0  0  0  0  0  0  0  0  0
  146.0967   73.5171  220.9601 H   0  0  0  0  0  0  0  0  0  0  0  0
  145.2691   73.6577  219.3998 H   0  0  0  0  0  0  0  0  0  0  0  0
  144.5294   71.5328  221.4899 H   0  0  0  0  0  0  0  0  0  0  0  0
  143.7721   73.1821  221.4399 H   0  0  0  0  0  0  0  0  0  0  0  0
  1  2  2  0
  2  3  1  0
  3  4  2  0
  4  5  1  0
  5  6  2  0
  6  7  1  0
  7  8  2  0
  8  9  1  0
  9 10  2  0
 10 11  1  0
 11 12  2  0
 12 13  1  0
 13 14  2  0
 14 15  1  0
 15 16  2  0
 16 17  1  0
 17 18  2  0
 18 19  1  0
 19 20  2  0
 20 21  1  0
 10 22  1  0
 22 23  1  0
 23 24  1  0
 24 25  1  0
 25 26  1  0
 26 27  1  0
 27 28  1  0
 28 29  1  0
 22  2  1  0
 29 24  1  0
  8  3  1  0
 21 13  1  0
 20 15  1  0
  4 30  1  0
  5 31  1  0
  6 32  1  0
  7 33  1  0
 11 34  1  0
 12 35  1  0
 16 36  1  0
 17 37  1  0
 18 38  1  0
 19 39  1  0
 21 40  1  0
 23 41  1  0
 23 42  1  0
 24 43  1  0
 25 44  1  0
 25 45  1  0
 26 46  1  0
 26 47  1  0
 27 48  1  0
 28 49  1  0
 28 50  1  0
 29 51  1  0
 29 52  1  0
M  END
>  <smiles>  (28) 
O=c1c2ccccc2nc(/C=C/c2nc3ccccc3[nH]2)n1CC1CCNCC1

>  <score_type>  (28) 
oracle

>  <origin>  (28) 
autodockgpu

>  <m_score__min__energy>  (28) 
-9.1300000000000008

>  <m_primary>  (28) 
energy

>  <rmsd>  (28) 
8.257119511630403

>  <m_score__min__rmsd>  (28) 
8.257119511630403

>  <meeko>  (28) 
{"free_energy": -8.72, "intermolecular_energy": -10.22, "internal_energy": -1.1, "cluster_size": 17, "cluster_id": 2, "rank_in_cluster": 7}

>  <energy>  (28) 
-8.49

>  <cluster_rmsd>  (28) 
0.89

>  <cluster>  (28) 
1

$$$$

     RDKit          3D

 52 56  0  0  0  0  0  0  0  0999 V2000
  139.1290   67.9200  225.3110 O   0  0  0  0  0  0  0  0  0  0  0  0
  139.5100   69.0940  225.0540 C   0  0  0  0  0  0  0  0  0  0  0  0
  140.0510   69.7950  226.1050 C   0  0  0  0  0  0  0  0  0  0  0  0
  140.1660   69.2550  227.3530 C   0  0  0  0  0  0  0  0  0  0  0  0
  140.7210   70.0310  228.3430 C   0  0  0  0  0  0  0  0  0  0  0  0
  141.1440   71.3140  228.0720 C   0  0  0  0  0  0  0  0  0  0  0  0
  141.0340   71.8820  226.8020 C   0  0  0  0  0  0  0  0  0  0  0  0
  140.4740   71.0700  225.8400 C   0  0  0  0  0  0  0  0  0  0  0  0
  140.3400   71.5450  224.6160 N   0  0  0  0  0  0  0  0  0  0  0  0
  139.8040   70.8730  223.5460 C   0  0  0  0  0  0  0  0  0  0  0  0
  139.7870   71.6040  222.3180 C   0  0  0  0  0  0  0  0  0  0  0  0
  138.9740   72.4750  221.8410 C   0  0  0  0  0  0  0  0  0  0  0  0
  139.2030   73.9310  222.0460 C   0  0  0  0  0  0  0  0  0  0  0  0
  140.3690   74.5880  221.9810 N   0  0  0  0  0  0  0  0  0  0  0  0
  140.2000   75.9000  222.2220 C   0  0  0  0  0  0  0  0  0  0  0  0
  141.0150   77.0130  222.2840 C   0  0  0  0  0  0  0  0  0  0  0  0
  140.4950   78.2580  222.5670 C   0  0  0  0  0  0  0  0  0  0  0  0
  139.1300   78.4490  222.8020 C   0  0  0  0  0  0  0  0  0  0  0  0
  138.3300   77.3210  222.7350 C   0  0  0  0  0  0  0  0  0  0  0  0
  138.8520   76.0730  222.4520 C   0  0  0  0  0  0  0  0  0  0  0  0
  138.2810   74.8630  222.3380 N   0  0  0  0  0  0  0  0  0  0  0  0
  139.3900   69.6320  223.7960 N   0  0  0  0  0  0  0  0  0  0  0  0
  138.8230   68.7910  222.7990 C   0  0  0  0  0  0  0  0  0  0  0  0
  137.4100   69.1380  222.4470 C   0  0  0  0  0  0  0  0  0  0  0  0
  136.5780   67.8660  222.3340 C   0  0  0  0  0  0  0  0  0  0  0  0
  135.1620   68.1380  222.7310 C   0  0  0  0  0  0  0  0  0  0  0  0
  134.9710   68.5400  224.0910 N   0  0  0  0  0  0  0  0  0  0  0  0
  136.1210   69.2680  224.5850 C   0  0  0  0  0  0  0  0  0  0  0  0
  136.6840   70.0320  223.3890 C   0  0  0  0  0  0  0  0  0  0  0  0
  139.8250   68.2300  227.5606 H   0  0  0  0  0  0  0  0  0  0  0  0
  140.8282   69.6244  229.3594 H   0  0  0  0  0  0  0  0  0  0  0  0
  141.5835   71.9111  228.8846 H   0  0  0  0  0  0  0  0  0  0  0  0
  141.3708   72.9063  226.5842 H   0  0  0  0  0  0  0  0  0  0  0  0
  140.6338   71.3762  221.6538 H   0  0  0  0  0  0  0  0  0  0  0  0
  138.0943   72.1401  221.2718 H   0  0  0  0  0  0  0  0  0  0  0  0
  142.0949   76.9046  222.1050 H   0  0  0  0  0  0  0  0  0  0  0  0
  141.1719   79.1241  222.6090 H   0  0  0  0  0  0  0  0  0  0  0  0
  138.7141   79.4420  223.0279 H   0  0  0  0  0  0  0  0  0  0  0  0
  137.2489   77.4209  222.9119 H   0  0  0  0  0  0  0  0  0  0  0  0
  137.2550   74.6350  222.4530 H   0  0  0  0  0  0  0  0  0  0  0  0
  139.4363   68.8698  221.8892 H   0  0  0  0  0  0  0  0  0  0  0  0
  138.8090   67.7711  223.2107 H   0  0  0  0  0  0  0  0  0  0  0  0
  137.5170   69.6916  221.5025 H   0  0  0  0  0  0  0  0  0  0  0  0
  136.6014   67.5077  221.2943 H   0  0  0  0  0  0  0  0  0  0  0  0
  136.9981   67.1016  223.0042 H   0  0  0  0  0  0  0  0  0  0  0  0
  134.7761   68.9389  222.0832 H   0  0  0  0  0  0  0  0  0  0  0  0
  134.6279   67.1828  222.6201 H   0  0  0  0  0  0  0  0  0  0  0  0
  134.1530   69.1830  224.2080 H   0  0  0  0  0  0  0  0  0  0  0  0
  135.8180   69.9684  225.3772 H   0  0  0  0  0  0  0  0  0  0  0  0
  136.8709   68.5893  225.0176 H   0  0  0  0  0  0  0  0  0  0  0  0
  135.8532   70.5135  222.8524 H   0  0  0  0  0  0  0  0  0  0  0  0
  137.3985   70.7774  223.7683 H   0  0  0  0  0  0  0  0  0  0  0  0
  1  2  2  0
  2  3  1  0
  3  4  2  0
  4  5  1  0
  5  6  2  0
  6  7  1  0
  7  8  2  0
  8  9  1  0
  9 10  2  0
 10 11  1  0
 11 12  2  0
 12 13  1  0
 13 14  2  0
 14 15  1  0
 15 16  2  0
 16 17  1  0
 17 18  2  0
 18 19  1  0
 19 20  2  0
 20 21  1  0
 10 22  1  0
 22 23  1  0
 23 24  1  0
 24 25  1  0
 25 26  1  0
 26 27  1  0
 27 28  1  0
 28 29  1  0
 22  2  1  0
 29 24  1  0
  8  3  1  0
 21 13  1  0
 20 15  1  0
  4 30  1  0
  5 31  1  0
  6 32  1  0
  7 33  1  0
 11 34  1  0
 12 35  1  0
 16 36  1  0
 17 37  1  0
 18 38  1  0
 19 39  1  0
 21 40  1  0
 23 41  1  0
 23 42  1  0
 24 43  1  0
 25 44  1  0
 25 45  1  0
 26 46  1  0
 26 47  1  0
 27 48  1  0
 28 49  1  0
 28 50  1  0
 29 51  1  0
 29 52  1  0
M  END
>  <smiles>  (29) 
O=c1c2ccccc2nc(/C=C/c2nc3ccccc3[nH]2)n1CC1CCNCC1

>  <score_type>  (29) 
oracle

>  <origin>  (29) 
autodockgpu

>  <m_score__min__energy>  (29) 
-9.1300000000000008

>  <m_primary>  (29) 
energy

>  <rmsd>  (29) 
12.173443675485009

>  <m_score__min__rmsd>  (29) 
12.173443675485009

>  <meeko>  (29) 
{"free_energy": -8.93, "intermolecular_energy": -10.42, "internal_energy": -1.26, "cluster_size": 30, "cluster_id": 1, "rank_in_cluster": 17}

>  <energy>  (29) 
-7.72

>  <cluster_rmsd>  (29) 
1.32

>  <cluster>  (29) 
1

$$$$

     RDKit          3D

 52 56  0  0  0  0  0  0  0  0999 V2000
  138.1970   68.7660  225.4560 O   0  0  0  0  0  0  0  0  0  0  0  0
  139.0180   69.6530  225.0940 C   0  0  0  0  0  0  0  0  0  0  0  0
  139.7450   70.2450  226.0990 C   0  0  0  0  0  0  0  0  0  0  0  0
  139.5870   69.8980  227.4100 C   0  0  0  0  0  0  0  0  0  0  0  0
  140.3590   70.5450  228.3450 C   0  0  0  0  0  0  0  0  0  0  0  0
  141.2620   71.5120  227.9610 C   0  0  0  0  0  0  0  0  0  0  0  0
  141.4370   71.8790  226.6250 C   0  0  0  0  0  0  0  0  0  0  0  0
  140.6440   71.2070  225.7210 C   0  0  0  0  0  0  0  0  0  0  0  0
  140.7580   71.5050  224.4410 N   0  0  0  0  0  0  0  0  0  0  0  0
  140.0470   70.9340  223.4150 C   0  0  0  0  0  0  0  0  0  0  0  0
  140.3690   71.4210  222.1090 C   0  0  0  0  0  0  0  0  0  0  0  0
  141.0170   72.4530  221.7070 C   0  0  0  0  0  0  0  0  0  0  0  0
  140.4700   73.8240  221.9010 C   0  0  0  0  0  0  0  0  0  0  0  0
  141.0980   74.9880  221.6850 N   0  0  0  0  0  0  0  0  0  0  0  0
  140.2970   76.0300  221.9660 C   0  0  0  0  0  0  0  0  0  0  0  0
  140.4050   77.4060  221.9310 C   0  0  0  0  0  0  0  0  0  0  0  0
  139.3480   78.2110  222.3020 C   0  0  0  0  0  0  0  0  0  0  0  0
  138.1290   77.6750  222.7260 C   0  0  0  0  0  0  0  0  0  0  0  0
  138.0400   76.2920  222.7540 C   0  0  0  0  0  0  0  0  0  0  0  0
  139.1000   75.4870  222.3820 C   0  0  0  0  0  0  0  0  0  0  0  0
  139.2410   74.1520  222.3310 N   0  0  0  0  0  0  0  0  0  0  0  0
  139.1710   69.9980  223.7740 N   0  0  0  0  0  0  0  0  0  0  0  0
  138.3620   69.2960  222.8380 C   0  0  0  0  0  0  0  0  0  0  0  0
  137.0440   69.9510  222.5660 C   0  0  0  0  0  0  0  0  0  0  0  0
  136.8420   71.1230  223.5190 C   0  0  0  0  0  0  0  0  0  0  0  0
  136.0250   72.1890  222.8610 C   0  0  0  0  0  0  0  0  0  0  0  0
  136.6170   72.7960  221.7090 N   0  0  0  0  0  0  0  0  0  0  0  0
  137.4700   71.8590  221.0080 C   0  0  0  0  0  0  0  0  0  0  0  0
  136.8310   70.4840  221.1930 C   0  0  0  0  0  0  0  0  0  0  0  0
  138.8642   69.1245  227.7087 H   0  0  0  0  0  0  0  0  0  0  0  0
  140.2549   70.2884  229.4096 H   0  0  0  0  0  0  0  0  0  0  0  0
  141.8656   72.0119  228.7329 H   0  0  0  0  0  0  0  0  0  0  0  0
  142.1576   72.6506  226.3162 H   0  0  0  0  0  0  0  0  0  0  0  0
  139.9880   70.7896  221.2928 H   0  0  0  0  0  0  0  0  0  0  0  0
  141.9906   72.3228  221.2119 H   0  0  0  0  0  0  0  0  0  0  0  0
  141.3480   77.8672  221.6024 H   0  0  0  0  0  0  0  0  0  0  0  0
  139.4678   79.3038  222.2631 H   0  0  0  0  0  0  0  0  0  0  0  0
  137.2855   78.3162  223.0216 H   0  0  0  0  0  0  0  0  0  0  0  0
  137.1005   75.8226  223.0811 H   0  0  0  0  0  0  0  0  0  0  0  0
  138.5120   73.4300  222.5830 H   0  0  0  0  0  0  0  0  0  0  0  0
  138.9143   69.2217  221.8896 H   0  0  0  0  0  0  0  0  0  0  0  0
  138.1451   68.3114  223.2779 H   0  0  0  0  0  0  0  0  0  0  0  0
  136.3243   69.1306  222.7035 H   0  0  0  0  0  0  0  0  0  0  0  0
  136.3213   70.7715  224.4219 H   0  0  0  0  0  0  0  0  0  0  0  0
  137.8237   71.5389  223.7895 H   0  0  0  0  0  0  0  0  0  0  0  0
  135.0681   71.7416  222.5542 H   0  0  0  0  0  0  0  0  0  0  0  0
  135.9208   72.9921  223.6054 H   0  0  0  0  0  0  0  0  0  0  0  0
  135.9050   73.1130  221.0110 H   0  0  0  0  0  0  0  0  0  0  0  0
  137.5216   72.1153  219.9395 H   0  0  0  0  0  0  0  0  0  0  0  0
  138.4977   71.8805  221.3997 H   0  0  0  0  0  0  0  0  0  0  0  0
  135.7499   70.5669  221.0079 H   0  0  0  0  0  0  0  0  0  0  0  0
  137.3041   69.7908  220.4820 H   0  0  0  0  0  0  0  0  0  0  0  0
  1  2  2  0
  2  3  1  0
  3  4  2  0
  4  5  1  0
  5  6  2  0
  6  7  1  0
  7  8  2  0
  8  9  1  0
  9 10  2  0
 10 11  1  0
 11 12  2  0
 12 13  1  0
 13 14  2  0
 14 15  1  0
 15 16  2  0
 16 17  1  0
 17 18  2  0
 18 19  1  0
 19 20  2  0
 20 21  1  0
 10 22  1  0
 22 23  1  0
 23 24  1  0
 24 25  1  0
 25 26  1  0
 26 27  1  0
 27 28  1  0
 28 29  1  0
 22  2  1  0
 29 24  1  0
  8  3  1  0
 21 13  1  0
 20 15  1  0
  4 30  1  0
  5 31  1  0
  6 32  1  0
  7 33  1  0
 11 34  1  0
 12 35  1  0
 16 36  1  0
 17 37  1  0
 18 38  1  0
 19 39  1  0
 21 40  1  0
 23 41  1  0
 23 42  1  0
 24 43  1  0
 25 44  1  0
 25 45  1  0
 26 46  1  0
 26 47  1  0
 27 48  1  0
 28 49  1  0
 28 50  1  0
 29 51  1  0
 29 52  1  0
M  END
>  <smiles>  (30) 
O=c1c2ccccc2nc(/C=C/c2nc3ccccc3[nH]2)n1CC1CCNCC1

>  <score_type>  (30) 
oracle

>  <origin>  (30) 
autodockgpu

>  <m_score__min__energy>  (30) 
-9.1300000000000008

>  <m_primary>  (30) 
energy

>  <rmsd>  (30) 
10.945858885964238

>  <m_score__min__rmsd>  (30) 
10.945858885964238

>  <meeko>  (30) 
{"free_energy": -7.5, "intermolecular_energy": -8.99, "internal_energy": -2.33, "cluster_size": 30, "cluster_id": 1, "rank_in_cluster": 30}

>  <energy>  (30) 
-7.5

>  <cluster_rmsd>  (30) 
1.39

>  <cluster>  (30) 
1

$$$$

     RDKit          3D

 52 56  0  0  0  0  0  0  0  0999 V2000
  138.8690   68.1130  225.2940 O   0  0  0  0  0  0  0  0  0  0  0  0
  139.3950   69.2260  225.0210 C   0  0  0  0  0  0  0  0  0  0  0  0
  139.9370   69.9130  226.0820 C   0  0  0  0  0  0  0  0  0  0  0  0
  139.9040   69.4220  227.3550 C   0  0  0  0  0  0  0  0  0  0  0  0
  140.4710   70.1790  228.3530 C   0  0  0  0  0  0  0  0  0  0  0  0
  141.0520   71.3950  228.0640 C   0  0  0  0  0  0  0  0  0  0  0  0
  141.0950   71.9120  226.7670 C   0  0  0  0  0  0  0  0  0  0  0  0
  140.5160   71.1210  225.8000 C   0  0  0  0  0  0  0  0  0  0  0  0
  140.5210   71.5490  224.5510 N   0  0  0  0  0  0  0  0  0  0  0  0
  139.9890   70.8900  223.4720 C   0  0  0  0  0  0  0  0  0  0  0  0
  140.1390   71.5610  222.2180 C   0  0  0  0  0  0  0  0  0  0  0  0
  139.4030   72.4100  221.5980 C   0  0  0  0  0  0  0  0  0  0  0  0
  139.5190   73.8690  221.8730 C   0  0  0  0  0  0  0  0  0  0  0  0
  140.6120   74.6340  221.7540 N   0  0  0  0  0  0  0  0  0  0  0  0
  140.3480   75.9100  222.0870 C   0  0  0  0  0  0  0  0  0  0  0  0
  141.0630   77.0890  222.1500 C   0  0  0  0  0  0  0  0  0  0  0  0
  140.4610   78.2640  222.5500 C   0  0  0  0  0  0  0  0  0  0  0  0
  139.1100   78.3130  222.9070 C   0  0  0  0  0  0  0  0  0  0  0  0
  138.4110   77.1190  222.8370 C   0  0  0  0  0  0  0  0  0  0  0  0
  139.0160   75.9440  222.4360 C   0  0  0  0  0  0  0  0  0  0  0  0
  138.5460   74.6930  222.2950 N   0  0  0  0  0  0  0  0  0  0  0  0
  139.4230   69.7140  223.7370 N   0  0  0  0  0  0  0  0  0  0  0  0
  138.8370   68.8940  222.7350 C   0  0  0  0  0  0  0  0  0  0  0  0
  137.4130   69.2380  222.4280 C   0  0  0  0  0  0  0  0  0  0  0  0
  136.5920   67.9620  222.2860 C   0  0  0  0  0  0  0  0  0  0  0  0
  135.1820   68.2020  222.7260 C   0  0  0  0  0  0  0  0  0  0  0  0
  135.0190   68.5510  224.1030 N   0  0  0  0  0  0  0  0  0  0  0  0
  136.1730   69.2720  224.5990 C   0  0  0  0  0  0  0  0  0  0  0  0
  136.7000   70.0880  223.4200 C   0  0  0  0  0  0  0  0  0  0  0  0
  139.4381   68.4503  227.5758 H   0  0  0  0  0  0  0  0  0  0  0  0
  140.4608   69.8114  229.3897 H   0  0  0  0  0  0  0  0  0  0  0  0
  141.4973   71.9786  228.8832 H   0  0  0  0  0  0  0  0  0  0  0  0
  141.5585   72.8822  226.5347 H   0  0  0  0  0  0  0  0  0  0  0  0
  141.0630   71.2990  221.6817 H   0  0  0  0  0  0  0  0  0  0  0  0
  138.6760   72.0549  220.8527 H   0  0  0  0  0  0  0  0  0  0  0  0
  142.1286   77.0917  221.8772 H   0  0  0  0  0  0  0  0  0  0  0  0
  141.0593   79.1862  222.5891 H   0  0  0  0  0  0  0  0  0  0  0  0
  138.6283   79.2490  223.2262 H   0  0  0  0  0  0  0  0  0  0  0  0
  137.3450   77.1064  223.1082 H   0  0  0  0  0  0  0  0  0  0  0  0
  137.5590   74.3640  222.4790 H   0  0  0  0  0  0  0  0  0  0  0  0
  139.4260   69.0002  221.8120 H   0  0  0  0  0  0  0  0  0  0  0  0
  138.8411   67.8642  223.1216 H   0  0  0  0  0  0  0  0  0  0  0  0
  137.4920   69.8275  221.5027 H   0  0  0  0  0  0  0  0  0  0  0  0
  136.5947   67.6437  221.2331 H   0  0  0  0  0  0  0  0  0  0  0  0
  137.0360   67.1779  222.9170 H   0  0  0  0  0  0  0  0  0  0  0  0
  134.7717   69.0215  222.1176 H   0  0  0  0  0  0  0  0  0  0  0  0
  134.6563   67.2451  222.5922 H   0  0  0  0  0  0  0  0  0  0  0  0
  134.1970   69.1790  224.2640 H   0  0  0  0  0  0  0  0  0  0  0  0
  135.8815   69.9380  225.4245 H   0  0  0  0  0  0  0  0  0  0  0  0
  136.9396   68.5857  224.9880 H   0  0  0  0  0  0  0  0  0  0  0  0
  135.8520   70.5802  222.9215 H   0  0  0  0  0  0  0  0  0  0  0  0
  137.4152   70.8268  223.8108 H   0  0  0  0  0  0  0  0  0  0  0  0
  1  2  2  0
  2  3  1  0
  3  4  2  0
  4  5  1  0
  5  6  2  0
  6  7  1  0
  7  8  2  0
  8  9  1  0
  9 10  2  0
 10 11  1  0
 11 12  2  0
 12 13  1  0
 13 14  2  0
 14 15  1  0
 15 16  2  0
 16 17  1  0
 17 18  2  0
 18 19  1  0
 19 20  2  0
 20 21  1  0
 10 22  1  0
 22 23  1  0
 23 24  1  0
 24 25  1  0
 25 26  1  0
 26 27  1  0
 27 28  1  0
 28 29  1  0
 22  2  1  0
 29 24  1  0
  8  3  1  0
 21 13  1  0
 20 15  1  0
  4 30  1  0
  5 31  1  0
  6 32  1  0
  7 33  1  0
 11 34  1  0
 12 35  1  0
 16 36  1  0
 17 37  1  0
 18 38  1  0
 19 39  1  0
 21 40  1  0
 23 41  1  0
 23 42  1  0
 24 43  1  0
 25 44  1  0
 25 45  1  0
 26 46  1  0
 26 47  1  0
 27 48  1  0
 28 49  1  0
 28 50  1  0
 29 51  1  0
 29 52  1  0
M  END
>  <smiles>  (31) 
O=c1c2ccccc2nc(/C=C/c2nc3ccccc3[nH]2)n1CC1CCNCC1

>  <score_type>  (31) 
oracle

>  <origin>  (31) 
autodockgpu

>  <m_score__min__energy>  (31) 
-9.1300000000000008

>  <m_primary>  (31) 
energy

>  <rmsd>  (31) 
12.097881781900458

>  <m_score__min__rmsd>  (31) 
12.097881781900458

>  <meeko>  (31) 
{"free_energy": -8.86, "intermolecular_energy": -10.35, "internal_energy": -1.25, "cluster_size": 30, "cluster_id": 1, "rank_in_cluster": 21}

>  <energy>  (31) 
-9.06

>  <cluster_rmsd>  (31) 
0.0

>  <cluster>  (31) 
2

$$$$

     RDKit          3D

 52 56  0  0  0  0  0  0  0  0999 V2000
  139.1910   67.7280  225.1830 O   0  0  0  0  0  0  0  0  0  0  0  0
  139.4610   68.9550  225.0730 C   0  0  0  0  0  0  0  0  0  0  0  0
  140.0430   69.5440  226.1700 C   0  0  0  0  0  0  0  0  0  0  0  0
  140.3110   68.8450  227.3110 C   0  0  0  0  0  0  0  0  0  0  0  0
  140.8960   69.5180  228.3580 C   0  0  0  0  0  0  0  0  0  0  0  0
  141.1980   70.8580  228.2460 C   0  0  0  0  0  0  0  0  0  0  0  0
  140.9320   71.5880  227.0860 C   0  0  0  0  0  0  0  0  0  0  0  0
  140.3460   70.8750  226.0640 C   0  0  0  0  0  0  0  0  0  0  0  0
  140.0670   71.5050  224.9380 N   0  0  0  0  0  0  0  0  0  0  0  0
  139.4860   70.9480  223.8270 C   0  0  0  0  0  0  0  0  0  0  0  0
  139.3030   71.8410  222.7250 C   0  0  0  0  0  0  0  0  0  0  0  0
  140.0730   72.1920  221.7610 C   0  0  0  0  0  0  0  0  0  0  0  0
  140.4820   73.6130  221.5850 C   0  0  0  0  0  0  0  0  0  0  0  0
  140.0880   74.6680  222.3110 N   0  0  0  0  0  0  0  0  0  0  0  0
  140.6610   75.8010  221.8690 C   0  0  0  0  0  0  0  0  0  0  0  0
  140.6250   77.1360  222.2200 C   0  0  0  0  0  0  0  0  0  0  0  0
  141.3640   78.0720  221.5270 C   0  0  0  0  0  0  0  0  0  0  0  0
  142.1760   77.7150  220.4460 C   0  0  0  0  0  0  0  0  0  0  0  0
  142.1980   76.3710  220.1110 C   0  0  0  0  0  0  0  0  0  0  0  0
  141.4570   75.4350  220.8060 C   0  0  0  0  0  0  0  0  0  0  0  0
  141.3240   74.1050  220.6630 N   0  0  0  0  0  0  0  0  0  0  0  0
  139.1880   69.6530  223.9220 N   0  0  0  0  0  0  0  0  0  0  0  0
  138.5940   68.9160  222.8610 C   0  0  0  0  0  0  0  0  0  0  0  0
  137.1730   69.2930  222.5820 C   0  0  0  0  0  0  0  0  0  0  0  0
  136.3400   68.0370  222.3530 C   0  0  0  0  0  0  0  0  0  0  0  0
  134.9340   68.2600  222.8120 C   0  0  0  0  0  0  0  0  0  0  0  0
  134.7760   68.5130  224.2110 N   0  0  0  0  0  0  0  0  0  0  0  0
  135.9370   69.1880  224.7530 C   0  0  0  0  0  0  0  0  0  0  0  0
  136.4700   70.0790  223.6320 C   0  0  0  0  0  0  0  0  0  0  0  0
  140.0665   67.7755  227.3909 H   0  0  0  0  0  0  0  0  0  0  0  0
  141.1245   68.9829  229.2915 H   0  0  0  0  0  0  0  0  0  0  0  0
  141.6648   71.3702  229.1002 H   0  0  0  0  0  0  0  0  0  0  0  0
  141.1735   72.6573  226.9949 H   0  0  0  0  0  0  0  0  0  0  0  0
  138.3122   72.3182  222.6991 H   0  0  0  0  0  0  0  0  0  0  0  0
  140.4366   71.4320  221.0538 H   0  0  0  0  0  0  0  0  0  0  0  0
  139.9979   77.4577  223.0645 H   0  0  0  0  0  0  0  0  0  0  0  0
  141.3132   79.1274  221.8328 H   0  0  0  0  0  0  0  0  0  0  0  0
  142.7651   78.4606  219.8919 H   0  0  0  0  0  0  0  0  0  0  0  0
  142.8228   76.0400  219.2683 H   0  0  0  0  0  0  0  0  0  0  0  0
  141.7990   73.4970  219.9400 H   0  0  0  0  0  0  0  0  0  0  0  0
  139.1833   69.0871  221.9481 H   0  0  0  0  0  0  0  0  0  0  0  0
  138.5895   67.8601  223.1691 H   0  0  0  0  0  0  0  0  0  0  0  0
  137.2554   69.9445  221.6995 H   0  0  0  0  0  0  0  0  0  0  0  0
  136.3378   67.7928  221.2805 H   0  0  0  0  0  0  0  0  0  0  0  0
  136.7776   67.2062  222.9260 H   0  0  0  0  0  0  0  0  0  0  0  0
  134.5315   69.1245  222.2636 H   0  0  0  0  0  0  0  0  0  0  0  0
  134.3984   67.3201  222.6126 H   0  0  0  0  0  0  0  0  0  0  0  0
  133.9600   69.1370  224.4170 H   0  0  0  0  0  0  0  0  0  0  0  0
  135.6525   69.7980  225.6231 H   0  0  0  0  0  0  0  0  0  0  0  0
  136.6980   68.4697  225.0920 H   0  0  0  0  0  0  0  0  0  0  0  0
  135.6259   70.6127  223.1708 H   0  0  0  0  0  0  0  0  0  0  0  0
  137.1929   70.7821  224.0713 H   0  0  0  0  0  0  0  0  0  0  0  0
  1  2  2  0
  2  3  1  0
  3  4  2  0
  4  5  1  0
  5  6  2  0
  6  7  1  0
  7  8  2  0
  8  9  1  0
  9 10  2  0
 10 11  1  0
 11 12  2  0
 12 13  1  0
 13 14  2  0
 14 15  1  0
 15 16  2  0
 16 17  1  0
 17 18  2  0
 18 19  1  0
 19 20  2  0
 20 21  1  0
 10 22  1  0
 22 23  1  0
 23 24  1  0
 24 25  1  0
 25 26  1  0
 26 27  1  0
 27 28  1  0
 28 29  1  0
 22  2  1  0
 29 24  1  0
  8  3  1  0
 21 13  1  0
 20 15  1  0
  4 30  1  0
  5 31  1  0
  6 32  1  0
  7 33  1  0
 11 34  1  0
 12 35  1  0
 16 36  1  0
 17 37  1  0
 18 38  1  0
 19 39  1  0
 21 40  1  0
 23 41  1  0
 23 42  1  0
 24 43  1  0
 25 44  1  0
 25 45  1  0
 26 46  1  0
 26 47  1  0
 27 48  1  0
 28 49  1  0
 28 50  1  0
 29 51  1  0
 29 52  1  0
M  END
>  <smiles>  (32) 
O=c1c2ccccc2nc(/C=C/c2nc3ccccc3[nH]2)n1CC1CCNCC1

>  <score_type>  (32) 
oracle

>  <origin>  (32) 
autodockgpu

>  <m_score__min__energy>  (32) 
-9.1300000000000008

>  <m_primary>  (32) 
energy

>  <rmsd>  (32) 
12.285129460145564

>  <m_score__min__rmsd>  (32) 
12.285129460145564

>  <meeko>  (32) 
{"free_energy": -8.95, "intermolecular_energy": -10.44, "internal_energy": -1.09, "cluster_size": 30, "cluster_id": 1, "rank_in_cluster": 12}

>  <energy>  (32) 
-8.8

>  <cluster_rmsd>  (32) 
1.07

>  <cluster>  (32) 
2

$$$$

     RDKit          3D

 52 56  0  0  0  0  0  0  0  0999 V2000
  142.6750   74.9800  218.6600 O   0  0  0  0  0  0  0  0  0  0  0  0
  142.0360   74.7880  219.7300 C   0  0  0  0  0  0  0  0  0  0  0  0
  141.7430   75.9120  220.4660 C   0  0  0  0  0  0  0  0  0  0  0  0
  142.1240   77.1600  220.0660 C   0  0  0  0  0  0  0  0  0  0  0  0
  141.7870   78.2250  220.8670 C   0  0  0  0  0  0  0  0  0  0  0  0
  141.0860   78.0270  222.0370 C   0  0  0  0  0  0  0  0  0  0  0  0
  140.6870   76.7570  222.4610 C   0  0  0  0  0  0  0  0  0  0  0  0
  141.0460   75.7200  221.6290 C   0  0  0  0  0  0  0  0  0  0  0  0
  140.7010   74.4920  221.9700 N   0  0  0  0  0  0  0  0  0  0  0  0
  140.9780   73.3510  221.2600 C   0  0  0  0  0  0  0  0  0  0  0  0
  140.4780   72.1420  221.8360 C   0  0  0  0  0  0  0  0  0  0  0  0
  139.5550   71.9110  222.6960 C   0  0  0  0  0  0  0  0  0  0  0  0
  139.8410   71.1460  223.9410 C   0  0  0  0  0  0  0  0  0  0  0  0
  139.5900   69.8520  224.1760 N   0  0  0  0  0  0  0  0  0  0  0  0
  139.9830   69.4990  225.4130 C   0  0  0  0  0  0  0  0  0  0  0  0
  139.9730   68.3430  226.1680 C   0  0  0  0  0  0  0  0  0  0  0  0
  140.4740   68.3290  227.4530 C   0  0  0  0  0  0  0  0  0  0  0  0
  141.0100   69.4770  228.0450 C   0  0  0  0  0  0  0  0  0  0  0  0
  141.0110   70.6260  227.2710 C   0  0  0  0  0  0  0  0  0  0  0  0
  140.5090   70.6370  225.9840 C   0  0  0  0  0  0  0  0  0  0  0  0
  140.4070   71.6140  225.0660 N   0  0  0  0  0  0  0  0  0  0  0  0
  141.6560   73.5290  220.1280 N   0  0  0  0  0  0  0  0  0  0  0  0
  142.0140   72.4580  219.2640 C   0  0  0  0  0  0  0  0  0  0  0  0
  143.0450   71.5370  219.8370 C   0  0  0  0  0  0  0  0  0  0  0  0
  143.9220   70.9830  218.7210 C   0  0  0  0  0  0  0  0  0  0  0  0
  145.3050   70.7240  219.2300 C   0  0  0  0  0  0  0  0  0  0  0  0
  146.0220   71.8800  219.6740 N   0  0  0  0  0  0  0  0  0  0  0  0
  145.1210   72.8800  220.2060 C   0  0  0  0  0  0  0  0  0  0  0  0
  143.9690   72.1120  220.8510 C   0  0  0  0  0  0  0  0  0  0  0  0
  142.6838   77.3091  219.1309 H   0  0  0  0  0  0  0  0  0  0  0  0
  142.0792   79.2436  220.5718 H   0  0  0  0  0  0  0  0  0  0  0  0
  140.8320   78.8986  222.6581 H   0  0  0  0  0  0  0  0  0  0  0  0
  140.1258   76.5967  223.3934 H   0  0  0  0  0  0  0  0  0  0  0  0
  140.9821   71.2349  221.4713 H   0  0  0  0  0  0  0  0  0  0  0  0
  138.5367   72.2837  222.5111 H   0  0  0  0  0  0  0  0  0  0  0  0
  139.5591   67.4190  225.7380 H   0  0  0  0  0  0  0  0  0  0  0  0
  140.4514   67.3908  228.0268 H   0  0  0  0  0  0  0  0  0  0  0  0
  141.4093   69.4682  229.0699 H   0  0  0  0  0  0  0  0  0  0  0  0
  141.4227   71.5548  227.6927 H   0  0  0  0  0  0  0  0  0  0  0  0
  140.7160   72.6180  225.1760 H   0  0  0  0  0  0  0  0  0  0  0  0
  141.1092   71.8720  219.0451 H   0  0  0  0  0  0  0  0  0  0  0  0
  142.4534   72.9082  218.3616 H   0  0  0  0  0  0  0  0  0  0  0  0
  142.4403   70.7769  220.3533 H   0  0  0  0  0  0  0  0  0  0  0  0
  143.4886   70.0418  218.3518 H   0  0  0  0  0  0  0  0  0  0  0  0
  143.9721   71.7192  217.9052 H   0  0  0  0  0  0  0  0  0  0  0  0
  145.2298   70.0254  220.0764 H   0  0  0  0  0  0  0  0  0  0  0  0
  145.8724   70.3247  218.3764 H   0  0  0  0  0  0  0  0  0  0  0  0
  146.6960   71.6620  220.4460 H   0  0  0  0  0  0  0  0  0  0  0  0
  145.6361   73.4972  220.9568 H   0  0  0  0  0  0  0  0  0  0  0  0
  144.7609   73.5568  219.4172 H   0  0  0  0  0  0  0  0  0  0  0  0
  144.3837   71.2937  221.4580 H   0  0  0  0  0  0  0  0  0  0  0  0
  143.3961   72.8170  221.4713 H   0  0  0  0  0  0  0  0  0  0  0  0
  1  2  2  0
  2  3  1  0
  3  4  2  0
  4  5  1  0
  5  6  2  0
  6  7  1  0
  7  8  2  0
  8  9  1  0
  9 10  2  0
 10 11  1  0
 11 12  2  0
 12 13  1  0
 13 14  2  0
 14 15  1  0
 15 16  2  0
 16 17  1  0
 17 18  2  0
 18 19  1  0
 19 20  2  0
 20 21  1  0
 10 22  1  0
 22 23  1  0
 23 24  1  0
 24 25  1  0
 25 26  1  0
 26 27  1  0
 27 28  1  0
 28 29  1  0
 22  2  1  0
 29 24  1  0
  8  3  1  0
 21 13  1  0
 20 15  1  0
  4 30  1  0
  5 31  1  0
  6 32  1  0
  7 33  1  0
 11 34  1  0
 12 35  1  0
 16 36  1  0
 17 37  1  0
 18 38  1  0
 19 39  1  0
 21 40  1  0
 23 41  1  0
 23 42  1  0
 24 43  1  0
 25 44  1  0
 25 45  1  0
 26 46  1  0
 26 47  1  0
 27 48  1  0
 28 49  1  0
 28 50  1  0
 29 51  1  0
 29 52  1  0
M  END
>  <smiles>  (33) 
O=c1c2ccccc2nc(/C=C/c2nc3ccccc3[nH]2)n1CC1CCNCC1

>  <score_type>  (33) 
oracle

>  <origin>  (33) 
autodockgpu

>  <m_score__min__energy>  (33) 
-9.1300000000000008

>  <m_primary>  (33) 
energy

>  <rmsd>  (33) 
8.309430871752099

>  <m_score__min__rmsd>  (33) 
8.309430871752099

>  <meeko>  (33) 
{"free_energy": -8.79, "intermolecular_energy": -10.28, "internal_energy": -1.11, "cluster_size": 17, "cluster_id": 2, "rank_in_cluster": 3}

>  <energy>  (33) 
-8.79

>  <cluster_rmsd>  (33) 
1.67

>  <cluster>  (33) 
2

$$$$

     RDKit          3D

 52 56  0  0  0  0  0  0  0  0999 V2000
  138.9520   67.8220  225.1800 O   0  0  0  0  0  0  0  0  0  0  0  0
  139.3800   68.9950  225.0010 C   0  0  0  0  0  0  0  0  0  0  0  0
  139.9360   69.6070  226.0990 C   0  0  0  0  0  0  0  0  0  0  0  0
  140.0160   68.9870  227.3120 C   0  0  0  0  0  0  0  0  0  0  0  0
  140.5890   69.6770  228.3530 C   0  0  0  0  0  0  0  0  0  0  0  0
  141.0640   70.9570  228.1670 C   0  0  0  0  0  0  0  0  0  0  0  0
  140.9910   71.6070  226.9330 C   0  0  0  0  0  0  0  0  0  0  0  0
  140.4100   70.8790  225.9180 C   0  0  0  0  0  0  0  0  0  0  0  0
  140.3080   71.4340  224.7250 N   0  0  0  0  0  0  0  0  0  0  0  0
  139.7590   70.8510  223.6110 C   0  0  0  0  0  0  0  0  0  0  0  0
  139.7840   71.6580  222.4300 C   0  0  0  0  0  0  0  0  0  0  0  0
  140.6700   72.4440  221.9390 C   0  0  0  0  0  0  0  0  0  0  0  0
  140.4680   73.9190  221.9340 C   0  0  0  0  0  0  0  0  0  0  0  0
  141.3110   74.8540  221.4750 N   0  0  0  0  0  0  0  0  0  0  0  0
  140.7990   76.0870  221.6310 C   0  0  0  0  0  0  0  0  0  0  0  0
  141.2060   77.3760  221.3520 C   0  0  0  0  0  0  0  0  0  0  0  0
  140.4040   78.4560  221.6570 C   0  0  0  0  0  0  0  0  0  0  0  0
  139.1510   78.2950  222.2570 C   0  0  0  0  0  0  0  0  0  0  0  0
  138.7610   76.9940  222.5290 C   0  0  0  0  0  0  0  0  0  0  0  0
  139.5660   75.9140  222.2230 C   0  0  0  0  0  0  0  0  0  0  0  0
  139.3990   74.5910  222.3910 N   0  0  0  0  0  0  0  0  0  0  0  0
  139.2950   69.6140  223.7780 N   0  0  0  0  0  0  0  0  0  0  0  0
  138.7080   68.8590  222.7260 C   0  0  0  0  0  0  0  0  0  0  0  0
  137.2730   69.1980  222.4660 C   0  0  0  0  0  0  0  0  0  0  0  0
  136.4570   67.9190  222.3240 C   0  0  0  0  0  0  0  0  0  0  0  0
  135.0590   68.1420  222.8080 C   0  0  0  0  0  0  0  0  0  0  0  0
  134.9320   68.4640  224.1960 N   0  0  0  0  0  0  0  0  0  0  0  0
  136.0950   69.1860  224.6710 C   0  0  0  0  0  0  0  0  0  0  0  0
  136.5830   70.0250  223.4920 C   0  0  0  0  0  0  0  0  0  0  0  0
  139.6332   67.9653  227.4522 H   0  0  0  0  0  0  0  0  0  0  0  0
  140.6692   69.2037  229.3427 H   0  0  0  0  0  0  0  0  0  0  0  0
  141.5161   71.4849  229.0196 H   0  0  0  0  0  0  0  0  0  0  0  0
  141.3707   72.6283  226.7822 H   0  0  0  0  0  0  0  0  0  0  0  0
  138.8664   71.5913  221.8271 H   0  0  0  0  0  0  0  0  0  0  0  0
  141.5932   72.0222  221.5151 H   0  0  0  0  0  0  0  0  0  0  0  0
  142.1848   77.5446  220.8792 H   0  0  0  0  0  0  0  0  0  0  0  0
  140.7592   79.4703  221.4222 H   0  0  0  0  0  0  0  0  0  0  0  0
  138.5098   79.1551  222.4998 H   0  0  0  0  0  0  0  0  0  0  0  0
  137.7837   76.8161  223.0015 H   0  0  0  0  0  0  0  0  0  0  0  0
  138.5610   74.1090  222.8180 H   0  0  0  0  0  0  0  0  0  0  0  0
  139.2804   69.0443  221.8051 H   0  0  0  0  0  0  0  0  0  0  0  0
  138.7367   67.8036  223.0348 H   0  0  0  0  0  0  0  0  0  0  0  0
  137.3217   69.8046  221.5497 H   0  0  0  0  0  0  0  0  0  0  0  0
  136.4318   67.6196  221.2658 H   0  0  0  0  0  0  0  0  0  0  0  0
  136.9237   67.1265  222.9274 H   0  0  0  0  0  0  0  0  0  0  0  0
  134.6273   68.9703  222.2270 H   0  0  0  0  0  0  0  0  0  0  0  0
  134.5355   67.1843  222.6710 H   0  0  0  0  0  0  0  0  0  0  0  0
  134.1110   69.0840  224.3910 H   0  0  0  0  0  0  0  0  0  0  0  0
  135.8222   69.8362  225.5153 H   0  0  0  0  0  0  0  0  0  0  0  0
  136.8771   68.4990  225.0265 H   0  0  0  0  0  0  0  0  0  0  0  0
  135.7179   70.5196  223.0262 H   0  0  0  0  0  0  0  0  0  0  0  0
  137.3044   70.7617  223.8753 H   0  0  0  0  0  0  0  0  0  0  0  0
  1  2  2  0
  2  3  1  0
  3  4  2  0
  4  5  1  0
  5  6  2  0
  6  7  1  0
  7  8  2  0
  8  9  1  0
  9 10  2  0
 10 11  1  0
 11 12  2  0
 12 13  1  0
 13 14  2  0
 14 15  1  0
 15 16  2  0
 16 17  1  0
 17 18  2  0
 18 19  1  0
 19 20  2  0
 20 21  1  0
 10 22  1  0
 22 23  1  0
 23 24  1  0
 24 25  1  0
 25 26  1  0
 26 27  1  0
 27 28  1  0
 28 29  1  0
 22  2  1  0
 29 24  1  0
  8  3  1  0
 21 13  1  0
 20 15  1  0
  4 30  1  0
  5 31  1  0
  6 32  1  0
  7 33  1  0
 11 34  1  0
 12 35  1  0
 16 36  1  0
 17 37  1  0
 18 38  1  0
 19 39  1  0
 21 40  1  0
 23 41  1  0
 23 42  1  0
 24 43  1  0
 25 44  1  0
 25 45  1  0
 26 46  1  0
 26 47  1  0
 27 48  1  0
 28 49  1  0
 28 50  1  0
 29 51  1  0
 29 52  1  0
M  END
>  <smiles>  (34) 
O=c1c2ccccc2nc(/C=C/c2nc3ccccc3[nH]2)n1CC1CCNCC1

>  <score_type>  (34) 
oracle

>  <origin>  (34) 
autodockgpu

>  <m_score__min__energy>  (34) 
-9.1300000000000008

>  <m_primary>  (34) 
energy

>  <rmsd>  (34) 
12.252569792722078

>  <m_score__min__rmsd>  (34) 
12.252569792722078

>  <meeko>  (34) 
{"free_energy": -8.88, "intermolecular_energy": -10.38, "internal_energy": -1.15, "cluster_size": 30, "cluster_id": 1, "rank_in_cluster": 19}

>  <energy>  (34) 
-8.78

>  <cluster_rmsd>  (34) 
1.39

>  <cluster>  (34) 
2

$$$$

     RDKit          3D

 52 56  0  0  0  0  0  0  0  0999 V2000
  138.9400   67.9320  225.3060 O   0  0  0  0  0  0  0  0  0  0  0  0
  139.3620   69.0910  225.0440 C   0  0  0  0  0  0  0  0  0  0  0  0
  139.9290   69.7780  226.0910 C   0  0  0  0  0  0  0  0  0  0  0  0
  140.0260   69.2400  227.3420 C   0  0  0  0  0  0  0  0  0  0  0  0
  140.6080   70.0010  228.3280 C   0  0  0  0  0  0  0  0  0  0  0  0
  141.0760   71.2660  228.0500 C   0  0  0  0  0  0  0  0  0  0  0  0
  140.9860   71.8320  226.7770 C   0  0  0  0  0  0  0  0  0  0  0  0
  140.3960   71.0360  225.8200 C   0  0  0  0  0  0  0  0  0  0  0  0
  140.2780   71.5090  224.5940 N   0  0  0  0  0  0  0  0  0  0  0  0
  139.7170   70.8520  223.5270 C   0  0  0  0  0  0  0  0  0  0  0  0
  139.7250   71.5770  222.2950 C   0  0  0  0  0  0  0  0  0  0  0  0
  140.5550   72.4150  221.7910 C   0  0  0  0  0  0  0  0  0  0  0  0
  140.3360   73.8820  221.9180 C   0  0  0  0  0  0  0  0  0  0  0  0
  141.2000   74.8620  221.6220 N   0  0  0  0  0  0  0  0  0  0  0  0
  140.6620   76.0710  221.8610 C   0  0  0  0  0  0  0  0  0  0  0  0
  141.0740   77.3830  221.7460 C   0  0  0  0  0  0  0  0  0  0  0  0
  140.2380   78.4240  222.0930 C   0  0  0  0  0  0  0  0  0  0  0  0
  138.9440   78.1980  222.5740 C   0  0  0  0  0  0  0  0  0  0  0  0
  138.5500   76.8740  222.6820 C   0  0  0  0  0  0  0  0  0  0  0  0
  139.3890   75.8330  222.3340 C   0  0  0  0  0  0  0  0  0  0  0  0
  139.2270   74.5000  222.3550 N   0  0  0  0  0  0  0  0  0  0  0  0
  139.2600   69.6270  223.7830 N   0  0  0  0  0  0  0  0  0  0  0  0
  138.6630   68.8020  222.7910 C   0  0  0  0  0  0  0  0  0  0  0  0
  137.2450   69.1640  222.4750 C   0  0  0  0  0  0  0  0  0  0  0  0
  136.4040   67.9000  222.3500 C   0  0  0  0  0  0  0  0  0  0  0  0
  134.9970   68.1700  222.7830 C   0  0  0  0  0  0  0  0  0  0  0  0
  134.8370   68.5420  224.1550 N   0  0  0  0  0  0  0  0  0  0  0  0
  136.0010   69.2520  224.6420 C   0  0  0  0  0  0  0  0  0  0  0  0
  136.5440   70.0410  223.4520 C   0  0  0  0  0  0  0  0  0  0  0  0
  139.6499   68.2284  227.5546 H   0  0  0  0  0  0  0  0  0  0  0  0
  140.7006   69.5964  229.3467 H   0  0  0  0  0  0  0  0  0  0  0  0
  141.5370   71.8510  228.8595 H   0  0  0  0  0  0  0  0  0  0  0  0
  141.3598   72.8422  226.5539 H   0  0  0  0  0  0  0  0  0  0  0  0
  138.8516   71.3780  221.6566 H   0  0  0  0  0  0  0  0  0  0  0  0
  141.4421   72.0441  221.2568 H   0  0  0  0  0  0  0  0  0  0  0  0
  142.0849   77.6022  221.3718 H   0  0  0  0  0  0  0  0  0  0  0  0
  140.5981   79.4582  221.9888 H   0  0  0  0  0  0  0  0  0  0  0  0
  138.2756   79.0264  222.8514 H   0  0  0  0  0  0  0  0  0  0  0  0
  137.5409   76.6453  223.0553 H   0  0  0  0  0  0  0  0  0  0  0  0
  138.3640   73.9740  222.6640 H   0  0  0  0  0  0  0  0  0  0  0  0
  139.2558   68.8856  221.8682 H   0  0  0  0  0  0  0  0  0  0  0  0
  138.6496   67.7780  223.1926 H   0  0  0  0  0  0  0  0  0  0  0  0
  137.3354   69.7376  221.5408 H   0  0  0  0  0  0  0  0  0  0  0  0
  136.4038   67.5659  221.3020 H   0  0  0  0  0  0  0  0  0  0  0  0
  136.8336   67.1181  222.9935 H   0  0  0  0  0  0  0  0  0  0  0  0
  134.6018   68.9872  222.1617 H   0  0  0  0  0  0  0  0  0  0  0  0
  134.4555   67.2202  222.6618 H   0  0  0  0  0  0  0  0  0  0  0  0
  134.0250   69.1870  224.3030 H   0  0  0  0  0  0  0  0  0  0  0  0
  135.7184   69.9354  225.4563 H   0  0  0  0  0  0  0  0  0  0  0  0
  136.7556   68.5595  225.0433 H   0  0  0  0  0  0  0  0  0  0  0  0
  135.7053   70.5395  222.9439 H   0  0  0  0  0  0  0  0  0  0  0  0
  137.2704   70.7739  223.8331 H   0  0  0  0  0  0  0  0  0  0  0  0
  1  2  2  0
  2  3  1  0
  3  4  2  0
  4  5  1  0
  5  6  2  0
  6  7  1  0
  7  8  2  0
  8  9  1  0
  9 10  2  0
 10 11  1  0
 11 12  2  0
 12 13  1  0
 13 14  2  0
 14 15  1  0
 15 16  2  0
 16 17  1  0
 17 18  2  0
 18 19  1  0
 19 20  2  0
 20 21  1  0
 10 22  1  0
 22 23  1  0
 23 24  1  0
 24 25  1  0
 25 26  1  0
 26 27  1  0
 27 28  1  0
 28 29  1  0
 22  2  1  0
 29 24  1  0
  8  3  1  0
 21 13  1  0
 20 15  1  0
  4 30  1  0
  5 31  1  0
  6 32  1  0
  7 33  1  0
 11 34  1  0
 12 35  1  0
 16 36  1  0
 17 37  1  0
 18 38  1  0
 19 39  1  0
 21 40  1  0
 23 41  1  0
 23 42  1  0
 24 43  1  0
 25 44  1  0
 25 45  1  0
 26 46  1  0
 26 47  1  0
 27 48  1  0
 28 49  1  0
 28 50  1  0
 29 51  1  0
 29 52  1  0
M  END
>  <smiles>  (35) 
O=c1c2ccccc2nc(/C=C/c2nc3ccccc3[nH]2)n1CC1CCNCC1

>  <score_type>  (35) 
oracle

>  <origin>  (35) 
autodockgpu

>  <m_score__min__energy>  (35) 
-9.1300000000000008

>  <m_primary>  (35) 
energy

>  <rmsd>  (35) 
12.192123183943929

>  <m_score__min__rmsd>  (35) 
12.192123183943929

>  <meeko>  (35) 
{"free_energy": -9.08, "intermolecular_energy": -10.57, "internal_energy": -1.2, "cluster_size": 30, "cluster_id": 1, "rank_in_cluster": 4}

>  <energy>  (35) 
-8.76

>  <cluster_rmsd>  (35) 
1.64

>  <cluster>  (35) 
2

$$$$

     RDKit          3D

 52 56  0  0  0  0  0  0  0  0999 V2000
  139.1950   67.6940  225.1550 O   0  0  0  0  0  0  0  0  0  0  0  0
  139.4470   68.9240  225.0460 C   0  0  0  0  0  0  0  0  0  0  0  0
  139.9960   69.5270  226.1540 C   0  0  0  0  0  0  0  0  0  0  0  0
  140.2480   68.8370  227.3040 C   0  0  0  0  0  0  0  0  0  0  0  0
  140.7980   69.5230  228.3600 C   0  0  0  0  0  0  0  0  0  0  0  0
  141.0820   70.8670  228.2500 C   0  0  0  0  0  0  0  0  0  0  0  0
  140.8310   71.5880  227.0810 C   0  0  0  0  0  0  0  0  0  0  0  0
  140.2800   70.8620  226.0490 C   0  0  0  0  0  0  0  0  0  0  0  0
  140.0170   71.4820  224.9140 N   0  0  0  0  0  0  0  0  0  0  0  0
  139.4700   70.9120  223.7920 C   0  0  0  0  0  0  0  0  0  0  0  0
  139.2990   71.7980  222.6830 C   0  0  0  0  0  0  0  0  0  0  0  0
  140.1360   72.4320  221.9460 C   0  0  0  0  0  0  0  0  0  0  0  0
  140.1500   73.9200  221.9090 C   0  0  0  0  0  0  0  0  0  0  0  0
  141.1310   74.7140  221.4590 N   0  0  0  0  0  0  0  0  0  0  0  0
  140.7990   76.0110  221.5790 C   0  0  0  0  0  0  0  0  0  0  0  0
  141.3960   77.2220  221.2900 C   0  0  0  0  0  0  0  0  0  0  0  0
  140.7510   78.4120  221.5510 C   0  0  0  0  0  0  0  0  0  0  0  0
  139.4720   78.4470  222.1160 C   0  0  0  0  0  0  0  0  0  0  0  0
  138.8900   77.2220  222.3980 C   0  0  0  0  0  0  0  0  0  0  0  0
  139.5380   76.0300  222.1360 C   0  0  0  0  0  0  0  0  0  0  0  0
  139.1780   74.7490  222.3220 N   0  0  0  0  0  0  0  0  0  0  0  0
  139.1900   69.6130  223.8860 N   0  0  0  0  0  0  0  0  0  0  0  0
  138.6330   68.8630  222.8150 C   0  0  0  0  0  0  0  0  0  0  0  0
  137.2130   69.2190  222.5000 C   0  0  0  0  0  0  0  0  0  0  0  0
  136.3890   67.9490  222.3230 C   0  0  0  0  0  0  0  0  0  0  0  0
  134.9760   68.1870  222.7520 C   0  0  0  0  0  0  0  0  0  0  0  0
  134.7990   68.5070  224.1350 N   0  0  0  0  0  0  0  0  0  0  0  0
  135.9500   69.2140  224.6580 C   0  0  0  0  0  0  0  0  0  0  0  0
  136.4930   70.0510  223.5010 C   0  0  0  0  0  0  0  0  0  0  0  0
  140.0179   67.7643  227.3833 H   0  0  0  0  0  0  0  0  0  0  0  0
  141.0133   68.9951  229.3007 H   0  0  0  0  0  0  0  0  0  0  0  0
  141.5214   71.3895  229.1125 H   0  0  0  0  0  0  0  0  0  0  0  0
  141.0575   72.6606  226.9908 H   0  0  0  0  0  0  0  0  0  0  0  0
  138.2475   71.9689  222.4090 H   0  0  0  0  0  0  0  0  0  0  0  0
  140.8538   71.8678  221.3325 H   0  0  0  0  0  0  0  0  0  0  0  0
  142.4017   77.2374  220.8447 H   0  0  0  0  0  0  0  0  0  0  0  0
  141.2555   79.3590  221.3085 H   0  0  0  0  0  0  0  0  0  0  0  0
  138.9562   79.3958  222.3251 H   0  0  0  0  0  0  0  0  0  0  0  0
  137.8842   77.1975  222.8428 H   0  0  0  0  0  0  0  0  0  0  0  0
  138.2670   74.4030  222.7320 H   0  0  0  0  0  0  0  0  0  0  0  0
  139.2418   69.0384  221.9158 H   0  0  0  0  0  0  0  0  0  0  0  0
  138.6363   67.8084  223.1277 H   0  0  0  0  0  0  0  0  0  0  0  0
  137.3038   69.8272  221.5880 H   0  0  0  0  0  0  0  0  0  0  0  0
  136.4022   67.6518  221.2640 H   0  0  0  0  0  0  0  0  0  0  0  0
  136.8228   67.1501  222.9423 H   0  0  0  0  0  0  0  0  0  0  0  0
  134.5770   69.0217  222.1570 H   0  0  0  0  0  0  0  0  0  0  0  0
  134.4469   67.2361  222.5914 H   0  0  0  0  0  0  0  0  0  0  0  0
  133.9780   69.1360  224.3000 H   0  0  0  0  0  0  0  0  0  0  0  0
  135.6515   69.8648  225.4931 H   0  0  0  0  0  0  0  0  0  0  0  0
  136.7098   68.5174  225.0421 H   0  0  0  0  0  0  0  0  0  0  0  0
  135.6523   70.5566  223.0035 H   0  0  0  0  0  0  0  0  0  0  0  0
  137.2071   70.7785  223.9143 H   0  0  0  0  0  0  0  0  0  0  0  0
  1  2  2  0
  2  3  1  0
  3  4  2  0
  4  5  1  0
  5  6  2  0
  6  7  1  0
  7  8  2  0
  8  9  1  0
  9 10  2  0
 10 11  1  0
 11 12  2  0
 12 13  1  0
 13 14  2  0
 14 15  1  0
 15 16  2  0
 16 17  1  0
 17 18  2  0
 18 19  1  0
 19 20  2  0
 20 21  1  0
 10 22  1  0
 22 23  1  0
 23 24  1  0
 24 25  1  0
 25 26  1  0
 26 27  1  0
 27 28  1  0
 28 29  1  0
 22  2  1  0
 29 24  1  0
  8  3  1  0
 21 13  1  0
 20 15  1  0
  4 30  1  0
  5 31  1  0
  6 32  1  0
  7 33  1  0
 11 34  1  0
 12 35  1  0
 16 36  1  0
 17 37  1  0
 18 38  1  0
 19 39  1  0
 21 40  1  0
 23 41  1  0
 23 42  1  0
 24 43  1  0
 25 44  1  0
 25 45  1  0
 26 46  1  0
 26 47  1  0
 27 48  1  0
 28 49  1  0
 28 50  1  0
 29 51  1  0
 29 52  1  0
M  END
>  <smiles>  (36) 
O=c1c2ccccc2nc(/C=C/c2nc3ccccc3[nH]2)n1CC1CCNCC1

>  <score_type>  (36) 
oracle

>  <origin>  (36) 
autodockgpu

>  <m_score__min__energy>  (36) 
-9.1300000000000008

>  <m_primary>  (36) 
energy

>  <rmsd>  (36) 
12.293188117673614

>  <m_score__min__rmsd>  (36) 
12.293188117673614

>  <meeko>  (36) 
{"free_energy": -9.1, "intermolecular_energy": -10.59, "internal_energy": -1.07, "cluster_size": 30, "cluster_id": 1, "rank_in_cluster": 3}

>  <energy>  (36) 
-8.75

>  <cluster_rmsd>  (36) 
1.05

>  <cluster>  (36) 
2

$$$$

     RDKit          3D

 52 56  0  0  0  0  0  0  0  0999 V2000
  138.8720   68.1200  225.2290 O   0  0  0  0  0  0  0  0  0  0  0  0
  139.3900   69.2380  224.9620 C   0  0  0  0  0  0  0  0  0  0  0  0
  139.9240   69.9240  226.0260 C   0  0  0  0  0  0  0  0  0  0  0  0
  139.8940   69.4270  227.2970 C   0  0  0  0  0  0  0  0  0  0  0  0
  140.4540   70.1840  228.2990 C   0  0  0  0  0  0  0  0  0  0  0  0
  141.0260   71.4050  228.0170 C   0  0  0  0  0  0  0  0  0  0  0  0
  141.0660   71.9290  226.7230 C   0  0  0  0  0  0  0  0  0  0  0  0
  140.4940   71.1380  225.7510 C   0  0  0  0  0  0  0  0  0  0  0  0
  140.4970   71.5730  224.5050 N   0  0  0  0  0  0  0  0  0  0  0  0
  139.9720   70.9150  223.4210 C   0  0  0  0  0  0  0  0  0  0  0  0
  140.1180   71.5930  222.1700 C   0  0  0  0  0  0  0  0  0  0  0  0
  140.9010   72.5320  221.7820 C   0  0  0  0  0  0  0  0  0  0  0  0
  140.5330   73.9620  221.9680 C   0  0  0  0  0  0  0  0  0  0  0  0
  139.3280   74.4580  222.2780 N   0  0  0  0  0  0  0  0  0  0  0  0
  139.3630   75.7990  222.3650 C   0  0  0  0  0  0  0  0  0  0  0  0
  138.4550   76.8020  222.6430 C   0  0  0  0  0  0  0  0  0  0  0  0
  138.8400   78.1260  222.6480 C   0  0  0  0  0  0  0  0  0  0  0  0
  140.1560   78.5110  222.3720 C   0  0  0  0  0  0  0  0  0  0  0  0
  141.0510   77.4890  222.0960 C   0  0  0  0  0  0  0  0  0  0  0  0
  140.6630   76.1630  222.0920 C   0  0  0  0  0  0  0  0  0  0  0  0
  141.3420   75.0280  221.8560 N   0  0  0  0  0  0  0  0  0  0  0  0
  139.4160   69.7330  223.6800 N   0  0  0  0  0  0  0  0  0  0  0  0
  138.8370   68.9130  222.6730 C   0  0  0  0  0  0  0  0  0  0  0  0
  137.4040   69.2330  222.3820 C   0  0  0  0  0  0  0  0  0  0  0  0
  136.6010   67.9430  222.2580 C   0  0  0  0  0  0  0  0  0  0  0  0
  135.1940   68.1650  222.7130 C   0  0  0  0  0  0  0  0  0  0  0  0
  135.0420   68.5190  224.0900 N   0  0  0  0  0  0  0  0  0  0  0  0
  136.1900   69.2620  224.5670 C   0  0  0  0  0  0  0  0  0  0  0  0
  136.6900   70.0780  223.3760 C   0  0  0  0  0  0  0  0  0  0  0  0
  139.4358   68.4506  227.5130 H   0  0  0  0  0  0  0  0  0  0  0  0
  140.4452   69.8116  229.3340 H   0  0  0  0  0  0  0  0  0  0  0  0
  141.4666   71.9875  228.8395 H   0  0  0  0  0  0  0  0  0  0  0  0
  141.5218   72.9041  226.4961 H   0  0  0  0  0  0  0  0  0  0  0  0
  139.4256   71.2416  221.3908 H   0  0  0  0  0  0  0  0  0  0  0  0
  141.8586   72.2765  221.3047 H   0  0  0  0  0  0  0  0  0  0  0  0
  137.4095   76.5407  222.8636 H   0  0  0  0  0  0  0  0  0  0  0  0
  138.0922   78.9001  222.8751 H   0  0  0  0  0  0  0  0  0  0  0  0
  140.4640   79.5670  222.3738 H   0  0  0  0  0  0  0  0  0  0  0  0
  142.0986   77.7406  221.8741 H   0  0  0  0  0  0  0  0  0  0  0  0
  142.3680   74.9440  221.6150 H   0  0  0  0  0  0  0  0  0  0  0  0
  139.4158   69.0411  221.7464 H   0  0  0  0  0  0  0  0  0  0  0  0
  138.8643   67.8791  223.0475 H   0  0  0  0  0  0  0  0  0  0  0  0
  137.4628   69.8180  221.4523 H   0  0  0  0  0  0  0  0  0  0  0  0
  136.5960   67.6176  221.2072 H   0  0  0  0  0  0  0  0  0  0  0  0
  137.0644   67.1697  222.8883 H   0  0  0  0  0  0  0  0  0  0  0  0
  134.7649   68.9752  222.1052 H   0  0  0  0  0  0  0  0  0  0  0  0
  134.6806   67.1999  222.5903 H   0  0  0  0  0  0  0  0  0  0  0  0
  134.2120   69.1360  224.2570 H   0  0  0  0  0  0  0  0  0  0  0  0
  135.8976   69.9291  225.3913 H   0  0  0  0  0  0  0  0  0  0  0  0
  136.9721   68.5908  224.9515 H   0  0  0  0  0  0  0  0  0  0  0  0
  135.8284   70.5533  222.8844 H   0  0  0  0  0  0  0  0  0  0  0  0
  137.3981   70.8306  223.7531 H   0  0  0  0  0  0  0  0  0  0  0  0
  1  2  2  0
  2  3  1  0
  3  4  2  0
  4  5  1  0
  5  6  2  0
  6  7  1  0
  7  8  2  0
  8  9  1  0
  9 10  2  0
 10 11  1  0
 11 12  2  0
 12 13  1  0
 13 14  2  0
 14 15  1  0
 15 16  2  0
 16 17  1  0
 17 18  2  0
 18 19  1  0
 19 20  2  0
 20 21  1  0
 10 22  1  0
 22 23  1  0
 23 24  1  0
 24 25  1  0
 25 26  1  0
 26 27  1  0
 27 28  1  0
 28 29  1  0
 22  2  1  0
 29 24  1  0
  8  3  1  0
 21 13  1  0
 20 15  1  0
  4 30  1  0
  5 31  1  0
  6 32  1  0
  7 33  1  0
 11 34  1  0
 12 35  1  0
 16 36  1  0
 17 37  1  0
 18 38  1  0
 19 39  1  0
 21 40  1  0
 23 41  1  0
 23 42  1  0
 24 43  1  0
 25 44  1  0
 25 45  1  0
 26 46  1  0
 26 47  1  0
 27 48  1  0
 28 49  1  0
 28 50  1  0
 29 51  1  0
 29 52  1  0
M  END
>  <smiles>  (37) 
O=c1c2ccccc2nc(/C=C/c2nc3ccccc3[nH]2)n1CC1CCNCC1

>  <score_type>  (37) 
oracle

>  <origin>  (37) 
autodockgpu

>  <m_score__min__energy>  (37) 
-9.1300000000000008

>  <m_primary>  (37) 
energy

>  <rmsd>  (37) 
12.081616596870568

>  <m_score__min__rmsd>  (37) 
12.081616596870568

>  <meeko>  (37) 
{"free_energy": -8.97, "intermolecular_energy": -10.46, "internal_energy": -1.22, "cluster_size": 30, "cluster_id": 1, "rank_in_cluster": 8}

>  <energy>  (37) 
-8.72

>  <cluster_rmsd>  (37) 
1.55

>  <cluster>  (37) 
2

$$$$

     RDKit          3D

 52 56  0  0  0  0  0  0  0  0999 V2000
  139.1890   67.7950  225.1600 O   0  0  0  0  0  0  0  0  0  0  0  0
  139.5610   68.9870  224.9850 C   0  0  0  0  0  0  0  0  0  0  0  0
  140.0800   69.6240  226.0870 C   0  0  0  0  0  0  0  0  0  0  0  0
  140.1830   69.0060  227.2990 C   0  0  0  0  0  0  0  0  0  0  0  0
  140.7160   69.7220  228.3450 C   0  0  0  0  0  0  0  0  0  0  0  0
  141.1300   71.0240  228.1630 C   0  0  0  0  0  0  0  0  0  0  0  0
  141.0320   71.6710  226.9300 C   0  0  0  0  0  0  0  0  0  0  0  0
  140.4930   70.9170  225.9100 C   0  0  0  0  0  0  0  0  0  0  0  0
  140.3720   71.4680  224.7170 N   0  0  0  0  0  0  0  0  0  0  0  0
  139.8580   70.8610  223.5990 C   0  0  0  0  0  0  0  0  0  0  0  0
  139.8510   71.6690  222.4190 C   0  0  0  0  0  0  0  0  0  0  0  0
  139.0080   72.5210  221.9600 C   0  0  0  0  0  0  0  0  0  0  0  0
  139.2490   73.9840  222.0910 C   0  0  0  0  0  0  0  0  0  0  0  0
  140.4160   74.6300  221.9760 N   0  0  0  0  0  0  0  0  0  0  0  0
  140.2580   75.9530  222.1560 C   0  0  0  0  0  0  0  0  0  0  0  0
  141.0800   77.0630  222.1510 C   0  0  0  0  0  0  0  0  0  0  0  0
  140.5710   78.3240  222.3820 C   0  0  0  0  0  0  0  0  0  0  0  0
  139.2110   78.5340  222.6290 C   0  0  0  0  0  0  0  0  0  0  0  0
  138.4040   77.4080  222.6300 C   0  0  0  0  0  0  0  0  0  0  0  0
  138.9150   76.1450  222.3980 C   0  0  0  0  0  0  0  0  0  0  0  0
  138.3360   74.9340  222.3520 N   0  0  0  0  0  0  0  0  0  0  0  0
  139.4540   69.6030  223.7620 N   0  0  0  0  0  0  0  0  0  0  0  0
  138.9090   68.8220  222.7060 C   0  0  0  0  0  0  0  0  0  0  0  0
  137.4840   69.1480  222.3850 C   0  0  0  0  0  0  0  0  0  0  0  0
  136.6680   67.8640  222.2940 C   0  0  0  0  0  0  0  0  0  0  0  0
  135.2570   68.1170  222.7230 C   0  0  0  0  0  0  0  0  0  0  0  0
  135.0920   68.5200  224.0860 N   0  0  0  0  0  0  0  0  0  0  0  0
  136.2430   69.2660  224.5520 C   0  0  0  0  0  0  0  0  0  0  0  0
  136.7670   70.0350  223.3410 C   0  0  0  0  0  0  0  0  0  0  0  0
  139.8498   67.9666  227.4353 H   0  0  0  0  0  0  0  0  0  0  0  0
  140.8127   69.2520  229.3348 H   0  0  0  0  0  0  0  0  0  0  0  0
  141.5520   71.5719  229.0184 H   0  0  0  0  0  0  0  0  0  0  0  0
  141.3619   72.7100  226.7828 H   0  0  0  0  0  0  0  0  0  0  0  0
  140.7382   71.5345  221.7828 H   0  0  0  0  0  0  0  0  0  0  0  0
  138.0939   72.1648  221.4625 H   0  0  0  0  0  0  0  0  0  0  0  0
  142.1562   76.9396  221.9600 H   0  0  0  0  0  0  0  0  0  0  0  0
  141.2530   79.1870  222.3716 H   0  0  0  0  0  0  0  0  0  0  0  0
  138.8037   79.5392  222.8126 H   0  0  0  0  0  0  0  0  0  0  0  0
  137.3267   77.5223  222.8207 H   0  0  0  0  0  0  0  0  0  0  0  0
  137.3110   74.7190  222.4950 H   0  0  0  0  0  0  0  0  0  0  0  0
  139.5146   68.9893  221.8031 H   0  0  0  0  0  0  0  0  0  0  0  0
  138.9299   67.7741  223.0397 H   0  0  0  0  0  0  0  0  0  0  0  0
  137.5614   69.7003  221.4368 H   0  0  0  0  0  0  0  0  0  0  0  0
  136.6727   67.5034  221.2548 H   0  0  0  0  0  0  0  0  0  0  0  0
  137.1143   67.1074  222.9561 H   0  0  0  0  0  0  0  0  0  0  0  0
  134.8448   68.9105  222.0824 H   0  0  0  0  0  0  0  0  0  0  0  0
  134.7340   67.1541  222.6266 H   0  0  0  0  0  0  0  0  0  0  0  0
  134.2680   69.1520  224.2200 H   0  0  0  0  0  0  0  0  0  0  0  0
  135.9483   69.9641  225.3494 H   0  0  0  0  0  0  0  0  0  0  0  0
  137.0124   68.5995  224.9688 H   0  0  0  0  0  0  0  0  0  0  0  0
  135.9171   70.5028  222.8224 H   0  0  0  0  0  0  0  0  0  0  0  0
  137.4789   70.7922  223.7013 H   0  0  0  0  0  0  0  0  0  0  0  0
  1  2  2  0
  2  3  1  0
  3  4  2  0
  4  5  1  0
  5  6  2  0
  6  7  1  0
  7  8  2  0
  8  9  1  0
  9 10  2  0
 10 11  1  0
 11 12  2  0
 12 13  1  0
 13 14  2  0
 14 15  1  0
 15 16  2  0
 16 17  1  0
 17 18  2  0
 18 19  1  0
 19 20  2  0
 20 21  1  0
 10 22  1  0
 22 23  1  0
 23 24  1  0
 24 25  1  0
 25 26  1  0
 26 27  1  0
 27 28  1  0
 28 29  1  0
 22  2  1  0
 29 24  1  0
  8  3  1  0
 21 13  1  0
 20 15  1  0
  4 30  1  0
  5 31  1  0
  6 32  1  0
  7 33  1  0
 11 34  1  0
 12 35  1  0
 16 36  1  0
 17 37  1  0
 18 38  1  0
 19 39  1  0
 21 40  1  0
 23 41  1  0
 23 42  1  0
 24 43  1  0
 25 44  1  0
 25 45  1  0
 26 46  1  0
 26 47  1  0
 27 48  1  0
 28 49  1  0
 28 50  1  0
 29 51  1  0
 29 52  1  0
M  END
>  <smiles>  (38) 
O=c1c2ccccc2nc(/C=C/c2nc3ccccc3[nH]2)n1CC1CCNCC1

>  <score_type>  (38) 
oracle

>  <origin>  (38) 
autodockgpu

>  <m_score__min__energy>  (38) 
-9.1300000000000008

>  <m_primary>  (38) 
energy

>  <rmsd>  (38) 
12.209782488229427

>  <m_score__min__rmsd>  (38) 
12.209782488229427

>  <meeko>  (38) 
{"free_energy": -8.95, "intermolecular_energy": -10.44, "internal_energy": -1.23, "cluster_size": 30, "cluster_id": 1, "rank_in_cluster": 11}

>  <energy>  (38) 
-8.62

>  <cluster_rmsd>  (38) 
1.33

>  <cluster>  (38) 
2

$$$$

     RDKit          3D

 52 56  0  0  0  0  0  0  0  0999 V2000
  138.9290   67.9940  225.3760 O   0  0  0  0  0  0  0  0  0  0  0  0
  139.3830   69.1290  225.0660 C   0  0  0  0  0  0  0  0  0  0  0  0
  139.9480   69.8520  226.0900 C   0  0  0  0  0  0  0  0  0  0  0  0
  140.0090   69.3740  227.3670 C   0  0  0  0  0  0  0  0  0  0  0  0
  140.5920   70.1670  228.3260 C   0  0  0  0  0  0  0  0  0  0  0  0
  141.0950   71.4070  227.9970 C   0  0  0  0  0  0  0  0  0  0  0  0
  141.0410   71.9130  226.6970 C   0  0  0  0  0  0  0  0  0  0  0  0
  140.4500   71.0850  225.7680 C   0  0  0  0  0  0  0  0  0  0  0  0
  140.3650   71.5010  224.5180 N   0  0  0  0  0  0  0  0  0  0  0  0
  139.8080   70.8060  223.4740 C   0  0  0  0  0  0  0  0  0  0  0  0
  139.8550   71.4710  222.2090 C   0  0  0  0  0  0  0  0  0  0  0  0
  140.8090   72.0390  221.5660 C   0  0  0  0  0  0  0  0  0  0  0  0
  140.9210   73.5230  221.5160 C   0  0  0  0  0  0  0  0  0  0  0  0
  140.2930   74.4130  222.2960 N   0  0  0  0  0  0  0  0  0  0  0  0
  140.6350   75.6710  221.9670 C   0  0  0  0  0  0  0  0  0  0  0  0
  140.3120   76.9370  222.4120 C   0  0  0  0  0  0  0  0  0  0  0  0
  140.8650   78.0580  221.8270 C   0  0  0  0  0  0  0  0  0  0  0  0
  141.7710   77.9620  220.7660 C   0  0  0  0  0  0  0  0  0  0  0  0
  142.0820   76.6820  220.3350 C   0  0  0  0  0  0  0  0  0  0  0  0
  141.5260   75.5620  220.9220 C   0  0  0  0  0  0  0  0  0  0  0  0
  141.6760   74.2490  220.6760 N   0  0  0  0  0  0  0  0  0  0  0  0
  139.3170   69.6060  223.7790 N   0  0  0  0  0  0  0  0  0  0  0  0
  138.7180   68.7480  222.8170 C   0  0  0  0  0  0  0  0  0  0  0  0
  137.3090   69.1170  222.4710 C   0  0  0  0  0  0  0  0  0  0  0  0
  136.4600   67.8570  222.3480 C   0  0  0  0  0  0  0  0  0  0  0  0
  135.0480   68.1440  222.7510 C   0  0  0  0  0  0  0  0  0  0  0  0
  134.8660   68.5360  224.1150 N   0  0  0  0  0  0  0  0  0  0  0  0
  136.0270   69.2440  224.6130 C   0  0  0  0  0  0  0  0  0  0  0  0
  136.5970   70.0120  223.4220 C   0  0  0  0  0  0  0  0  0  0  0  0
  139.6036   68.3835  227.6210 H   0  0  0  0  0  0  0  0  0  0  0  0
  140.6576   69.8092  229.3641 H   0  0  0  0  0  0  0  0  0  0  0  0
  141.5552   72.0196  228.7863 H   0  0  0  0  0  0  0  0  0  0  0  0
  141.4420   72.9028  226.4331 H   0  0  0  0  0  0  0  0  0  0  0  0
  138.8873   71.5015  221.6868 H   0  0  0  0  0  0  0  0  0  0  0  0
  141.5546   71.4210  221.0443 H   0  0  0  0  0  0  0  0  0  0  0  0
  139.6034   77.0542  223.2452 H   0  0  0  0  0  0  0  0  0  0  0  0
  140.5860   79.0526  222.2050 H   0  0  0  0  0  0  0  0  0  0  0  0
  142.2130   78.8543  220.2987 H   0  0  0  0  0  0  0  0  0  0  0  0
  142.7905   76.5546  219.5033 H   0  0  0  0  0  0  0  0  0  0  0  0
  142.2900   73.8110  219.9360 H   0  0  0  0  0  0  0  0  0  0  0  0
  139.3212   68.7832  221.8978 H   0  0  0  0  0  0  0  0  0  0  0  0
  138.6854   67.7424  223.2615 H   0  0  0  0  0  0  0  0  0  0  0  0
  137.4214   69.6778  221.5314 H   0  0  0  0  0  0  0  0  0  0  0  0
  136.4764   67.5082  221.3049 H   0  0  0  0  0  0  0  0  0  0  0  0
  136.8715   67.0809  223.0100 H   0  0  0  0  0  0  0  0  0  0  0  0
  134.6710   68.9558  222.1116 H   0  0  0  0  0  0  0  0  0  0  0  0
  134.5009   67.1971  222.6325 H   0  0  0  0  0  0  0  0  0  0  0  0
  134.0560   69.1890  224.2400 H   0  0  0  0  0  0  0  0  0  0  0  0
  135.7354   69.9409  225.4126 H   0  0  0  0  0  0  0  0  0  0  0  0
  136.7689   68.5515  225.0373 H   0  0  0  0  0  0  0  0  0  0  0  0
  135.7712   70.5088  222.8916 H   0  0  0  0  0  0  0  0  0  0  0  0
  137.3216   70.7452  223.8058 H   0  0  0  0  0  0  0  0  0  0  0  0
  1  2  2  0
  2  3  1  0
  3  4  2  0
  4  5  1  0
  5  6  2  0
  6  7  1  0
  7  8  2  0
  8  9  1  0
  9 10  2  0
 10 11  1  0
 11 12  2  0
 12 13  1  0
 13 14  2  0
 14 15  1  0
 15 16  2  0
 16 17  1  0
 17 18  2  0
 18 19  1  0
 19 20  2  0
 20 21  1  0
 10 22  1  0
 22 23  1  0
 23 24  1  0
 24 25  1  0
 25 26  1  0
 26 27  1  0
 27 28  1  0
 28 29  1  0
 22  2  1  0
 29 24  1  0
  8  3  1  0
 21 13  1  0
 20 15  1  0
  4 30  1  0
  5 31  1  0
  6 32  1  0
  7 33  1  0
 11 34  1  0
 12 35  1  0
 16 36  1  0
 17 37  1  0
 18 38  1  0
 19 39  1  0
 21 40  1  0
 23 41  1  0
 23 42  1  0
 24 43  1  0
 25 44  1  0
 25 45  1  0
 26 46  1  0
 26 47  1  0
 27 48  1  0
 28 49  1  0
 28 50  1  0
 29 51  1  0
 29 52  1  0
M  END
>  <smiles>  (39) 
O=c1c2ccccc2nc(/C=C/c2nc3ccccc3[nH]2)n1CC1CCNCC1

>  <score_type>  (39) 
oracle

>  <origin>  (39) 
autodockgpu

>  <m_score__min__energy>  (39) 
-9.1300000000000008

>  <m_primary>  (39) 
energy

>  <rmsd>  (39) 
12.170939056454431

>  <m_score__min__rmsd>  (39) 
12.170939056454431

>  <meeko>  (39) 
{"free_energy": -8.86, "intermolecular_energy": -10.36, "internal_energy": -1.19, "cluster_size": 30, "cluster_id": 1, "rank_in_cluster": 20}

>  <energy>  (39) 
-8.6

>  <cluster_rmsd>  (39) 
1.32

>  <cluster>  (39) 
2

$$$$

     RDKit          3D

 52 56  0  0  0  0  0  0  0  0999 V2000
  139.1360   67.7720  225.3890 O   0  0  0  0  0  0  0  0  0  0  0  0
  139.4540   68.9610  225.1150 C   0  0  0  0  0  0  0  0  0  0  0  0
  140.0160   69.6860  226.1380 C   0  0  0  0  0  0  0  0  0  0  0  0
  140.2140   69.1540  227.3790 C   0  0  0  0  0  0  0  0  0  0  0  0
  140.7830   69.9550  228.3410 C   0  0  0  0  0  0  0  0  0  0  0  0
  141.1380   71.2540  228.0500 C   0  0  0  0  0  0  0  0  0  0  0  0
  140.9420   71.8150  226.7860 C   0  0  0  0  0  0  0  0  0  0  0  0
  140.3700   70.9780  225.8540 C   0  0  0  0  0  0  0  0  0  0  0  0
  140.1560   71.4440  224.6380 N   0  0  0  0  0  0  0  0  0  0  0  0
  139.5980   70.7480  223.5950 C   0  0  0  0  0  0  0  0  0  0  0  0
  139.4890   71.4760  222.3690 C   0  0  0  0  0  0  0  0  0  0  0  0
  140.2790   72.2970  221.7780 C   0  0  0  0  0  0  0  0  0  0  0  0
  140.1150   73.7680  221.9390 C   0  0  0  0  0  0  0  0  0  0  0  0
  141.0310   74.7180  221.7110 N   0  0  0  0  0  0  0  0  0  0  0  0
  140.5340   75.9410  221.9620 C   0  0  0  0  0  0  0  0  0  0  0  0
  141.0050   77.2380  221.9030 C   0  0  0  0  0  0  0  0  0  0  0  0
  140.1970   78.3030  222.2440 C   0  0  0  0  0  0  0  0  0  0  0  0
  138.8750   78.1190  222.6610 C   0  0  0  0  0  0  0  0  0  0  0  0
  138.4220   76.8110  222.7130 C   0  0  0  0  0  0  0  0  0  0  0  0
  139.2330   75.7450  222.3710 C   0  0  0  0  0  0  0  0  0  0  0  0
  139.0140   74.4200  222.3460 N   0  0  0  0  0  0  0  0  0  0  0  0
  139.2500   69.4910  223.8640 N   0  0  0  0  0  0  0  0  0  0  0  0
  138.6710   68.6250  222.8960 C   0  0  0  0  0  0  0  0  0  0  0  0
  137.2760   69.0010  222.5050 C   0  0  0  0  0  0  0  0  0  0  0  0
  136.4250   67.7450  222.3550 C   0  0  0  0  0  0  0  0  0  0  0  0
  135.0020   68.0390  222.7120 C   0  0  0  0  0  0  0  0  0  0  0  0
  134.7780   68.4320  224.0700 N   0  0  0  0  0  0  0  0  0  0  0  0
  135.9260   69.1340  224.6050 C   0  0  0  0  0  0  0  0  0  0  0  0
  136.5380   69.8990  223.4340 C   0  0  0  0  0  0  0  0  0  0  0  0
  139.9271   68.1159  227.6029 H   0  0  0  0  0  0  0  0  0  0  0  0
  140.9562   69.5554  229.3511 H   0  0  0  0  0  0  0  0  0  0  0  0
  141.5913   71.8705  228.8402 H   0  0  0  0  0  0  0  0  0  0  0  0
  141.2245   72.8519  226.5516 H   0  0  0  0  0  0  0  0  0  0  0  0
  138.5474   71.2983  221.8288 H   0  0  0  0  0  0  0  0  0  0  0  0
  141.0890   71.9082  221.1434 H   0  0  0  0  0  0  0  0  0  0  0  0
  142.0396   77.4246  221.5793 H   0  0  0  0  0  0  0  0  0  0  0  0
  140.6033   79.3236  222.1864 H   0  0  0  0  0  0  0  0  0  0  0  0
  138.2296   78.9672  222.9330 H   0  0  0  0  0  0  0  0  0  0  0  0
  137.3886   76.6152  223.0352 H   0  0  0  0  0  0  0  0  0  0  0  0
  138.1170   73.9230  222.6010 H   0  0  0  0  0  0  0  0  0  0  0  0
  139.3005   68.6431  221.9941 H   0  0  0  0  0  0  0  0  0  0  0  0
  138.6169   67.6256  223.3525 H   0  0  0  0  0  0  0  0  0  0  0  0
  137.4212   69.5613  221.5696 H   0  0  0  0  0  0  0  0  0  0  0  0
  136.4734   67.3957  221.3131 H   0  0  0  0  0  0  0  0  0  0  0  0
  136.8110   66.9673  223.0303 H   0  0  0  0  0  0  0  0  0  0  0  0
  134.6500   68.8527  222.0608 H   0  0  0  0  0  0  0  0  0  0  0  0
  134.4542   67.0949  222.5756 H   0  0  0  0  0  0  0  0  0  0  0  0
  133.9690   69.0880  224.1690 H   0  0  0  0  0  0  0  0  0  0  0  0
  135.6124   69.8322  225.3950 H   0  0  0  0  0  0  0  0  0  0  0  0
  136.6503   68.4375  225.0525 H   0  0  0  0  0  0  0  0  0  0  0  0
  135.7323   70.4005  222.8778 H   0  0  0  0  0  0  0  0  0  0  0  0
  137.2540   70.6277  223.8419 H   0  0  0  0  0  0  0  0  0  0  0  0
  1  2  2  0
  2  3  1  0
  3  4  2  0
  4  5  1  0
  5  6  2  0
  6  7  1  0
  7  8  2  0
  8  9  1  0
  9 10  2  0
 10 11  1  0
 11 12  2  0
 12 13  1  0
 13 14  2  0
 14 15  1  0
 15 16  2  0
 16 17  1  0
 17 18  2  0
 18 19  1  0
 19 20  2  0
 20 21  1  0
 10 22  1  0
 22 23  1  0
 23 24  1  0
 24 25  1  0
 25 26  1  0
 26 27  1  0
 27 28  1  0
 28 29  1  0
 22  2  1  0
 29 24  1  0
  8  3  1  0
 21 13  1  0
 20 15  1  0
  4 30  1  0
  5 31  1  0
  6 32  1  0
  7 33  1  0
 11 34  1  0
 12 35  1  0
 16 36  1  0
 17 37  1  0
 18 38  1  0
 19 39  1  0
 21 40  1  0
 23 41  1  0
 23 42  1  0
 24 43  1  0
 25 44  1  0
 25 45  1  0
 26 46  1  0
 26 47  1  0
 27 48  1  0
 28 49  1  0
 28 50  1  0
 29 51  1  0
 29 52  1  0
M  END
>  <smiles>  (40) 
O=c1c2ccccc2nc(/C=C/c2nc3ccccc3[nH]2)n1CC1CCNCC1

>  <score_type>  (40) 
oracle

>  <origin>  (40) 
autodockgpu

>  <m_score__min__energy>  (40) 
-9.1300000000000008

>  <m_primary>  (40) 
energy

>  <rmsd>  (40) 
12.299480635209433

>  <m_score__min__rmsd>  (40) 
12.299480635209433

>  <meeko>  (40) 
{"free_energy": -9.13, "intermolecular_energy": -10.62, "internal_energy": -1.17, "cluster_size": 30, "cluster_id": 1, "rank_in_cluster": 1}

>  <energy>  (40) 
-8.59

>  <cluster_rmsd>  (40) 
1.54

>  <cluster>  (40) 
2

$$$$

     RDKit          3D

 52 56  0  0  0  0  0  0  0  0999 V2000
  139.1300   67.7560  225.0610 O   0  0  0  0  0  0  0  0  0  0  0  0
  139.5360   68.9430  224.9350 C   0  0  0  0  0  0  0  0  0  0  0  0
  140.0420   69.5310  226.0690 C   0  0  0  0  0  0  0  0  0  0  0  0
  140.0990   68.8720  227.2630 C   0  0  0  0  0  0  0  0  0  0  0  0
  140.6230   69.5410  228.3440 C   0  0  0  0  0  0  0  0  0  0  0  0
  141.0730   70.8360  228.2150 C   0  0  0  0  0  0  0  0  0  0  0  0
  141.0220   71.5260  227.0020 C   0  0  0  0  0  0  0  0  0  0  0  0
  140.4910   70.8190  225.9450 C   0  0  0  0  0  0  0  0  0  0  0  0
  140.4140   71.4100  224.7680 N   0  0  0  0  0  0  0  0  0  0  0  0
  139.9130   70.8530  223.6180 C   0  0  0  0  0  0  0  0  0  0  0  0
  139.9560   71.6990  222.4660 C   0  0  0  0  0  0  0  0  0  0  0  0
  139.1970   72.6530  222.0650 C   0  0  0  0  0  0  0  0  0  0  0  0
  139.7390   74.0220  221.8450 C   0  0  0  0  0  0  0  0  0  0  0  0
  140.7330   74.3800  221.0210 N   0  0  0  0  0  0  0  0  0  0  0  0
  140.9560   75.7040  221.0780 C   0  0  0  0  0  0  0  0  0  0  0  0
  141.8210   76.5950  220.4730 C   0  0  0  0  0  0  0  0  0  0  0  0
  141.7790   77.9400  220.7730 C   0  0  0  0  0  0  0  0  0  0  0  0
  140.8660   78.4600  221.6950 C   0  0  0  0  0  0  0  0  0  0  0  0
  140.0070   77.5510  222.2910 C   0  0  0  0  0  0  0  0  0  0  0  0
  140.0500   76.2030  221.9890 C   0  0  0  0  0  0  0  0  0  0  0  0
  139.3310   75.1580  222.4330 N   0  0  0  0  0  0  0  0  0  0  0  0
  139.4740   69.6010  223.7300 N   0  0  0  0  0  0  0  0  0  0  0  0
  138.9380   68.8690  222.6360 C   0  0  0  0  0  0  0  0  0  0  0  0
  137.5060   69.1870  222.3380 C   0  0  0  0  0  0  0  0  0  0  0  0
  136.6990   67.8980  222.2400 C   0  0  0  0  0  0  0  0  0  0  0  0
  135.2920   68.1330  222.6910 C   0  0  0  0  0  0  0  0  0  0  0  0
  135.1420   68.5150  224.0610 N   0  0  0  0  0  0  0  0  0  0  0  0
  136.2930   69.2640  224.5230 C   0  0  0  0  0  0  0  0  0  0  0  0
  136.7950   70.0540  223.3160 C   0  0  0  0  0  0  0  0  0  0  0  0
  139.7369   67.8376  227.3575 H   0  0  0  0  0  0  0  0  0  0  0  0
  140.6832   69.0374  229.3201 H   0  0  0  0  0  0  0  0  0  0  0  0
  141.4870   71.3446  229.0981 H   0  0  0  0  0  0  0  0  0  0  0  0
  141.3804   72.5607  226.8976 H   0  0  0  0  0  0  0  0  0  0  0  0
  140.8023   71.4924  221.7944 H   0  0  0  0  0  0  0  0  0  0  0  0
  138.1305   72.4563  221.8812 H   0  0  0  0  0  0  0  0  0  0  0  0
  142.5543   76.2259  219.7409 H   0  0  0  0  0  0  0  0  0  0  0  0
  142.4827   78.6221  220.2735 H   0  0  0  0  0  0  0  0  0  0  0  0
  140.8314   79.5331  221.9344 H   0  0  0  0  0  0  0  0  0  0  0  0
  139.2709   77.9119  223.0244 H   0  0  0  0  0  0  0  0  0  0  0  0
  138.5480   75.1860  223.1420 H   0  0  0  0  0  0  0  0  0  0  0  0
  139.5366   69.0951  221.7413 H   0  0  0  0  0  0  0  0  0  0  0  0
  138.9783   67.8052  222.9128 H   0  0  0  0  0  0  0  0  0  0  0  0
  137.5663   69.7523  221.3963 H   0  0  0  0  0  0  0  0  0  0  0  0
  136.6928   67.5519  221.1959 H   0  0  0  0  0  0  0  0  0  0  0  0
  137.1601   67.1362  222.8858 H   0  0  0  0  0  0  0  0  0  0  0  0
  134.8648   68.9321  222.0673 H   0  0  0  0  0  0  0  0  0  0  0  0
  134.7756   67.1672  222.5877 H   0  0  0  0  0  0  0  0  0  0  0  0
  134.3140   69.1380  224.2160 H   0  0  0  0  0  0  0  0  0  0  0  0
  136.0030   69.9485  225.3338 H   0  0  0  0  0  0  0  0  0  0  0  0
  137.0730   68.5982  224.9209 H   0  0  0  0  0  0  0  0  0  0  0  0
  135.9347   70.5223  222.8155 H   0  0  0  0  0  0  0  0  0  0  0  0
  137.5060   70.8114  223.6778 H   0  0  0  0  0  0  0  0  0  0  0  0
  1  2  2  0
  2  3  1  0
  3  4  2  0
  4  5  1  0
  5  6  2  0
  6  7  1  0
  7  8  2  0
  8  9  1  0
  9 10  2  0
 10 11  1  0
 11 12  2  0
 12 13  1  0
 13 14  2  0
 14 15  1  0
 15 16  2  0
 16 17  1  0
 17 18  2  0
 18 19  1  0
 19 20  2  0
 20 21  1  0
 10 22  1  0
 22 23  1  0
 23 24  1  0
 24 25  1  0
 25 26  1  0
 26 27  1  0
 27 28  1  0
 28 29  1  0
 22  2  1  0
 29 24  1  0
  8  3  1  0
 21 13  1  0
 20 15  1  0
  4 30  1  0
  5 31  1  0
  6 32  1  0
  7 33  1  0
 11 34  1  0
 12 35  1  0
 16 36  1  0
 17 37  1  0
 18 38  1  0
 19 39  1  0
 21 40  1  0
 23 41  1  0
 23 42  1  0
 24 43  1  0
 25 44  1  0
 25 45  1  0
 26 46  1  0
 26 47  1  0
 27 48  1  0
 28 49  1  0
 28 50  1  0
 29 51  1  0
 29 52  1  0
M  END
>  <smiles>  (41) 
O=c1c2ccccc2nc(/C=C/c2nc3ccccc3[nH]2)n1CC1CCNCC1

>  <score_type>  (41) 
oracle

>  <origin>  (41) 
autodockgpu

>  <m_score__min__energy>  (41) 
-9.1300000000000008

>  <m_primary>  (41) 
energy

>  <rmsd>  (41) 
12.218921895050004

>  <m_score__min__rmsd>  (41) 
12.218921895050004

>  <meeko>  (41) 
{"free_energy": -8.91, "intermolecular_energy": -10.4, "internal_energy": -1.16, "cluster_size": 30, "cluster_id": 1, "rank_in_cluster": 18}

>  <energy>  (41) 
-8.55

>  <cluster_rmsd>  (41) 
1.31

>  <cluster>  (41) 
2

$$$$

     RDKit          3D

 52 56  0  0  0  0  0  0  0  0999 V2000
  142.6770   75.3170  219.2580 O   0  0  0  0  0  0  0  0  0  0  0  0
  141.8500   74.8340  220.0780 C   0  0  0  0  0  0  0  0  0  0  0  0
  141.2390   75.7340  220.9180 C   0  0  0  0  0  0  0  0  0  0  0  0
  141.5130   77.0700  220.8720 C   0  0  0  0  0  0  0  0  0  0  0  0
  140.8520   77.8950  221.7510 C   0  0  0  0  0  0  0  0  0  0  0  0
  139.9430   77.3770  222.6480 C   0  0  0  0  0  0  0  0  0  0  0  0
  139.6500   76.0130  222.7090 C   0  0  0  0  0  0  0  0  0  0  0  0
  140.3340   75.2240  221.8110 C   0  0  0  0  0  0  0  0  0  0  0  0
  140.1050   73.9240  221.8140 N   0  0  0  0  0  0  0  0  0  0  0  0
  140.6980   73.0000  220.9920 C   0  0  0  0  0  0  0  0  0  0  0  0
  140.2650   71.6510  221.1840 C   0  0  0  0  0  0  0  0  0  0  0  0
  139.4920   71.1060  222.0500 C   0  0  0  0  0  0  0  0  0  0  0  0
  139.8890   71.0160  223.4820 C   0  0  0  0  0  0  0  0  0  0  0  0
  139.8840   69.9260  224.2610 N   0  0  0  0  0  0  0  0  0  0  0  0
  140.3070   70.2160  225.5030 C   0  0  0  0  0  0  0  0  0  0  0  0
  140.5000   69.5160  226.6770 C   0  0  0  0  0  0  0  0  0  0  0  0
  140.9620   70.1470  227.8130 C   0  0  0  0  0  0  0  0  0  0  0  0
  141.2540   71.5140  227.8270 C   0  0  0  0  0  0  0  0  0  0  0  0
  141.0540   72.1990  226.6400 C   0  0  0  0  0  0  0  0  0  0  0  0
  140.5910   71.5650  225.5030 C   0  0  0  0  0  0  0  0  0  0  0  0
  140.3260   72.0160  224.2650 N   0  0  0  0  0  0  0  0  0  0  0  0
  141.5800   73.4870  220.1210 N   0  0  0  0  0  0  0  0  0  0  0  0
  142.2750   72.6730  219.1860 C   0  0  0  0  0  0  0  0  0  0  0  0
  143.2630   71.7400  219.8130 C   0  0  0  0  0  0  0  0  0  0  0  0
  144.2220   71.2120  218.7530 C   0  0  0  0  0  0  0  0  0  0  0  0
  145.5640   70.9450  219.3570 C   0  0  0  0  0  0  0  0  0  0  0  0
  146.2440   72.0900  219.8790 N   0  0  0  0  0  0  0  0  0  0  0  0
  145.3020   73.0780  220.3650 C   0  0  0  0  0  0  0  0  0  0  0  0
  144.1080   72.2940  220.9060 C   0  0  0  0  0  0  0  0  0  0  0  0
  142.2408   77.4747  220.1533 H   0  0  0  0  0  0  0  0  0  0  0  0
  141.0502   78.9769  221.7382 H   0  0  0  0  0  0  0  0  0  0  0  0
  139.4305   78.0616  223.3398 H   0  0  0  0  0  0  0  0  0  0  0  0
  138.9241   75.5980  223.4238 H   0  0  0  0  0  0  0  0  0  0  0  0
  140.6737   70.9444  220.4467 H   0  0  0  0  0  0  0  0  0  0  0  0
  138.5214   70.6991  221.7301 H   0  0  0  0  0  0  0  0  0  0  0  0
  140.2819   68.4382  226.7069 H   0  0  0  0  0  0  0  0  0  0  0  0
  141.1044   69.5593  228.7319 H   0  0  0  0  0  0  0  0  0  0  0  0
  141.6228   72.0186  228.7322 H   0  0  0  0  0  0  0  0  0  0  0  0
  141.2696   73.2770  226.6014 H   0  0  0  0  0  0  0  0  0  0  0  0
  140.4350   73.0080  223.9180 H   0  0  0  0  0  0  0  0  0  0  0  0
  141.5370   72.0748  218.6314 H   0  0  0  0  0  0  0  0  0  0  0  0
  142.8447   73.3507  218.5332 H   0  0  0  0  0  0  0  0  0  0  0  0
  142.6240   70.9674  220.2656 H   0  0  0  0  0  0  0  0  0  0  0  0
  143.8205   70.2781  218.3327 H   0  0  0  0  0  0  0  0  0  0  0  0
  144.3295   71.9657  217.9591 H   0  0  0  0  0  0  0  0  0  0  0  0
  145.4285   70.2273  220.1795 H   0  0  0  0  0  0  0  0  0  0  0  0
  146.1938   70.5676  218.5378 H   0  0  0  0  0  0  0  0  0  0  0  0
  146.8580   71.8560  220.6930 H   0  0  0  0  0  0  0  0  0  0  0  0
  145.7582   73.6793  221.1652 H   0  0  0  0  0  0  0  0  0  0  0  0
  144.9992   73.7716  219.5668 H   0  0  0  0  0  0  0  0  0  0  0  0
  144.4793   71.4630  221.5238 H   0  0  0  0  0  0  0  0  0  0  0  0
  143.4885   72.9840  221.4978 H   0  0  0  0  0  0  0  0  0  0  0  0
  1  2  2  0
  2  3  1  0
  3  4  2  0
  4  5  1  0
  5  6  2  0
  6  7  1  0
  7  8  2  0
  8  9  1  0
  9 10  2  0
 10 11  1  0
 11 12  2  0
 12 13  1  0
 13 14  2  0
 14 15  1  0
 15 16  2  0
 16 17  1  0
 17 18  2  0
 18 19  1  0
 19 20  2  0
 20 21  1  0
 10 22  1  0
 22 23  1  0
 23 24  1  0
 24 25  1  0
 25 26  1  0
 26 27  1  0
 27 28  1  0
 28 29  1  0
 22  2  1  0
 29 24  1  0
  8  3  1  0
 21 13  1  0
 20 15  1  0
  4 30  1  0
  5 31  1  0
  6 32  1  0
  7 33  1  0
 11 34  1  0
 12 35  1  0
 16 36  1  0
 17 37  1  0
 18 38  1  0
 19 39  1  0
 21 40  1  0
 23 41  1  0
 23 42  1  0
 24 43  1  0
 25 44  1  0
 25 45  1  0
 26 46  1  0
 26 47  1  0
 27 48  1  0
 28 49  1  0
 28 50  1  0
 29 51  1  0
 29 52  1  0
M  END
>  <smiles>  (42) 
O=c1c2ccccc2nc(/C=C/c2nc3ccccc3[nH]2)n1CC1CCNCC1

>  <score_type>  (42) 
oracle

>  <origin>  (42) 
autodockgpu

>  <m_score__min__energy>  (42) 
-9.1300000000000008

>  <m_primary>  (42) 
energy

>  <rmsd>  (42) 
8.260495931531693

>  <m_score__min__rmsd>  (42) 
8.260495931531693

>  <meeko>  (42) 
{"free_energy": -8.28, "intermolecular_energy": -9.77, "internal_energy": -1.8, "cluster_size": 17, "cluster_id": 2, "rank_in_cluster": 15}

>  <energy>  (42) 
-8.55

>  <cluster_rmsd>  (42) 
1.23

>  <cluster>  (42) 
2

$$$$

     RDKit          3D

 52 56  0  0  0  0  0  0  0  0999 V2000
  141.7220   70.7940  220.8460 O   0  0  0  0  0  0  0  0  0  0  0  0
  141.6830   72.0480  220.9800 C   0  0  0  0  0  0  0  0  0  0  0  0
  142.8280   72.7260  220.6370 C   0  0  0  0  0  0  0  0  0  0  0  0
  143.9430   72.0830  220.1830 C   0  0  0  0  0  0  0  0  0  0  0  0
  145.0420   72.8440  219.8630 C   0  0  0  0  0  0  0  0  0  0  0  0
  145.0080   74.2150  220.0020 C   0  0  0  0  0  0  0  0  0  0  0  0
  143.8770   74.8890  220.4650 C   0  0  0  0  0  0  0  0  0  0  0  0
  142.7990   74.0880  220.7730 C   0  0  0  0  0  0  0  0  0  0  0  0
  141.6960   74.6610  221.2160 N   0  0  0  0  0  0  0  0  0  0  0  0
  140.5380   74.0140  221.5680 C   0  0  0  0  0  0  0  0  0  0  0  0
  139.4760   74.8660  222.0050 C   0  0  0  0  0  0  0  0  0  0  0  0
  139.1130   76.0450  221.6520 C   0  0  0  0  0  0  0  0  0  0  0  0
  139.8300   77.2500  222.1540 C   0  0  0  0  0  0  0  0  0  0  0  0
  139.2890   78.3640  222.6640 N   0  0  0  0  0  0  0  0  0  0  0  0
  140.2400   79.2470  223.0160 C   0  0  0  0  0  0  0  0  0  0  0  0
  140.2680   80.5110  223.5700 C   0  0  0  0  0  0  0  0  0  0  0  0
  141.4640   81.1560  223.8070 C   0  0  0  0  0  0  0  0  0  0  0  0
  142.6920   80.5650  223.4980 C   0  0  0  0  0  0  0  0  0  0  0  0
  142.6430   79.2960  222.9420 C   0  0  0  0  0  0  0  0  0  0  0  0
  141.4440   78.6510  222.7060 C   0  0  0  0  0  0  0  0  0  0  0  0
  141.1580   77.4450  222.1870 N   0  0  0  0  0  0  0  0  0  0  0  0
  140.5580   72.6890  221.4400 N   0  0  0  0  0  0  0  0  0  0  0  0
  139.4410   71.8650  221.7460 C   0  0  0  0  0  0  0  0  0  0  0  0
  139.7490   70.7600  222.7070 C   0  0  0  0  0  0  0  0  0  0  0  0
  139.9770   71.3340  224.1000 C   0  0  0  0  0  0  0  0  0  0  0  0
  139.5460   70.3510  225.1420 C   0  0  0  0  0  0  0  0  0  0  0  0
  138.1530   70.0250  225.1410 N   0  0  0  0  0  0  0  0  0  0  0  0
  137.6000   70.1090  223.8050 C   0  0  0  0  0  0  0  0  0  0  0  0
  138.7220   69.6940  222.8550 C   0  0  0  0  0  0  0  0  0  0  0  0
  143.9616   70.9883  220.0764 H   0  0  0  0  0  0  0  0  0  0  0  0
  145.9555   72.3553  219.4932 H   0  0  0  0  0  0  0  0  0  0  0  0
  145.9030   74.7979  219.7390 H   0  0  0  0  0  0  0  0  0  0  0  0
  143.8482   75.9830  220.5762 H   0  0  0  0  0  0  0  0  0  0  0  0
  138.8501   74.4263  222.7955 H   0  0  0  0  0  0  0  0  0  0  0  0
  138.2598   76.1675  220.9686 H   0  0  0  0  0  0  0  0  0  0  0  0
  139.3225   81.0113  223.8263 H   0  0  0  0  0  0  0  0  0  0  0  0
  141.4508   82.1623  224.2510 H   0  0  0  0  0  0  0  0  0  0  0  0
  143.6462   81.0790  223.6858 H   0  0  0  0  0  0  0  0  0  0  0  0
  143.5838   78.7890  222.6817 H   0  0  0  0  0  0  0  0  0  0  0  0
  141.8510   76.7250  221.8430 H   0  0  0  0  0  0  0  0  0  0  0  0
  138.6544   72.4965  222.1846 H   0  0  0  0  0  0  0  0  0  0  0  0
  139.1257   71.3914  220.8046 H   0  0  0  0  0  0  0  0  0  0  0  0
  140.6376   70.2857  222.2649 H   0  0  0  0  0  0  0  0  0  0  0  0
  141.0464   71.5562  224.2306 H   0  0  0  0  0  0  0  0  0  0  0  0
  139.3854   72.2549  224.2095 H   0  0  0  0  0  0  0  0  0  0  0  0
  140.1121   69.4209  224.9855 H   0  0  0  0  0  0  0  0  0  0  0  0
  139.7435   70.8318  226.1115 H   0  0  0  0  0  0  0  0  0  0  0  0
  137.9690   69.0470  225.4660 H   0  0  0  0  0  0  0  0  0  0  0  0
  136.7423   69.4278  223.7034 H   0  0  0  0  0  0  0  0  0  0  0  0
  137.2399   71.1243  223.5823 H   0  0  0  0  0  0  0  0  0  0  0  0
  139.2048   68.7879  223.2498 H   0  0  0  0  0  0  0  0  0  0  0  0
  138.2787   69.5092  221.8654 H   0  0  0  0  0  0  0  0  0  0  0  0
  1  2  2  0
  2  3  1  0
  3  4  2  0
  4  5  1  0
  5  6  2  0
  6  7  1  0
  7  8  2  0
  8  9  1  0
  9 10  2  0
 10 11  1  0
 11 12  2  0
 12 13  1  0
 13 14  2  0
 14 15  1  0
 15 16  2  0
 16 17  1  0
 17 18  2  0
 18 19  1  0
 19 20  2  0
 20 21  1  0
 10 22  1  0
 22 23  1  0
 23 24  1  0
 24 25  1  0
 25 26  1  0
 26 27  1  0
 27 28  1  0
 28 29  1  0
 22  2  1  0
 29 24  1  0
  8  3  1  0
 21 13  1  0
 20 15  1  0
  4 30  1  0
  5 31  1  0
  6 32  1  0
  7 33  1  0
 11 34  1  0
 12 35  1  0
 16 36  1  0
 17 37  1  0
 18 38  1  0
 19 39  1  0
 21 40  1  0
 23 41  1  0
 23 42  1  0
 24 43  1  0
 25 44  1  0
 25 45  1  0
 26 46  1  0
 26 47  1  0
 27 48  1  0
 28 49  1  0
 28 50  1  0
 29 51  1  0
 29 52  1  0
M  END
>  <smiles>  (43) 
O=c1c2ccccc2nc(/C=C/c2nc3ccccc3[nH]2)n1CC1CCNCC1

>  <score_type>  (43) 
oracle

>  <origin>  (43) 
autodockgpu

>  <m_score__min__energy>  (43) 
-9.1300000000000008

>  <m_primary>  (43) 
energy

>  <rmsd>  (43) 
9.372173730827667

>  <m_score__min__rmsd>  (43) 
9.372173730827667

>  <meeko>  (43) 
{"free_energy": -7.6, "intermolecular_energy": -9.09, "internal_energy": -1.65, "cluster_size": 1, "cluster_id": 4, "rank_in_cluster": 1}

>  <energy>  (43) 
-8.5

>  <cluster_rmsd>  (43) 
1.23

>  <cluster>  (43) 
2

$$$$

     RDKit          3D

 52 56  0  0  0  0  0  0  0  0999 V2000
  139.1780   67.3900  224.8330 O   0  0  0  0  0  0  0  0  0  0  0  0
  139.5520   68.5850  224.9770 C   0  0  0  0  0  0  0  0  0  0  0  0
  140.0970   68.9030  226.1980 C   0  0  0  0  0  0  0  0  0  0  0  0
  140.2220   67.9820  227.1970 C   0  0  0  0  0  0  0  0  0  0  0  0
  140.7800   68.3910  228.3850 C   0  0  0  0  0  0  0  0  0  0  0  0
  141.1950   69.6940  228.5510 C   0  0  0  0  0  0  0  0  0  0  0  0
  141.0750   70.6500  227.5400 C   0  0  0  0  0  0  0  0  0  0  0  0
  140.5120   70.1970  226.3680 C   0  0  0  0  0  0  0  0  0  0  0  0
  140.3680   71.0480  225.3690 N   0  0  0  0  0  0  0  0  0  0  0  0
  139.8280   70.7650  224.1400 C   0  0  0  0  0  0  0  0  0  0  0  0
  139.7990   71.8600  223.2220 C   0  0  0  0  0  0  0  0  0  0  0  0
  140.3030   72.0230  222.0540 C   0  0  0  0  0  0  0  0  0  0  0  0
  140.7590   73.3640  221.5950 C   0  0  0  0  0  0  0  0  0  0  0  0
  140.3140   74.5580  222.0070 N   0  0  0  0  0  0  0  0  0  0  0  0
  140.9540   75.5580  221.3760 C   0  0  0  0  0  0  0  0  0  0  0  0
  140.9110   76.9380  221.3980 C   0  0  0  0  0  0  0  0  0  0  0  0
  141.7390   77.6870  220.5880 C   0  0  0  0  0  0  0  0  0  0  0  0
  142.6520   77.0880  219.7150 C   0  0  0  0  0  0  0  0  0  0  0  0
  142.6800   75.7030  219.7080 C   0  0  0  0  0  0  0  0  0  0  0  0
  141.8500   74.9540  220.5200 C   0  0  0  0  0  0  0  0  0  0  0  0
  141.7040   73.6280  220.6790 N   0  0  0  0  0  0  0  0  0  0  0  0
  139.4210   69.5080  223.9670 N   0  0  0  0  0  0  0  0  0  0  0  0
  138.8510   69.0400  222.7520 C   0  0  0  0  0  0  0  0  0  0  0  0
  137.4170   69.4260  222.5670 C   0  0  0  0  0  0  0  0  0  0  0  0
  136.5710   68.1790  222.3370 C   0  0  0  0  0  0  0  0  0  0  0  0
  135.1930   68.3820  222.8810 C   0  0  0  0  0  0  0  0  0  0  0  0
  135.1130   68.5810  224.2960 N   0  0  0  0  0  0  0  0  0  0  0  0
  136.3040   69.2360  224.7970 C   0  0  0  0  0  0  0  0  0  0  0  0
  136.7740   70.1700  223.6840 C   0  0  0  0  0  0  0  0  0  0  0  0
  139.8865   66.9439  227.0561 H   0  0  0  0  0  0  0  0  0  0  0  0
  140.8960   67.6721  229.2095 H   0  0  0  0  0  0  0  0  0  0  0  0
  141.6364   69.9919  229.5135 H   0  0  0  0  0  0  0  0  0  0  0  0
  141.4066   71.6907  227.6707 H   0  0  0  0  0  0  0  0  0  0  0  0
  139.2357   72.7311  223.5879 H   0  0  0  0  0  0  0  0  0  0  0  0
  140.3999   71.1585  221.3807 H   0  0  0  0  0  0  0  0  0  0  0  0
  140.2061   77.4475  222.0714 H   0  0  0  0  0  0  0  0  0  0  0  0
  141.6794   78.7846  220.6301 H   0  0  0  0  0  0  0  0  0  0  0  0
  143.3126   77.6844  219.0685 H   0  0  0  0  0  0  0  0  0  0  0  0
  143.3821   75.1854  219.0378 H   0  0  0  0  0  0  0  0  0  0  0  0
  142.2390   72.8690  220.1740 H   0  0  0  0  0  0  0  0  0  0  0  0
  139.4320   69.4541  221.9147 H   0  0  0  0  0  0  0  0  0  0  0  0
  138.8841   67.9410  222.7861 H   0  0  0  0  0  0  0  0  0  0  0  0
  137.4513   70.1109  221.7070 H   0  0  0  0  0  0  0  0  0  0  0  0
  136.5092   67.9759  221.2577 H   0  0  0  0  0  0  0  0  0  0  0  0
  137.0388   67.3278  222.8533 H   0  0  0  0  0  0  0  0  0  0  0  0
  134.7613   69.2663  222.3893 H   0  0  0  0  0  0  0  0  0  0  0  0
  134.6465   67.4498  222.6755 H   0  0  0  0  0  0  0  0  0  0  0  0
  134.3110   69.1950  224.5700 H   0  0  0  0  0  0  0  0  0  0  0  0
  136.0699   69.8114  225.7048 H   0  0  0  0  0  0  0  0  0  0  0  0
  137.0820   68.5056  225.0639 H   0  0  0  0  0  0  0  0  0  0  0  0
  135.9059   70.7198  223.2914 H   0  0  0  0  0  0  0  0  0  0  0  0
  137.5206   70.8569  224.1092 H   0  0  0  0  0  0  0  0  0  0  0  0
  1  2  2  0
  2  3  1  0
  3  4  2  0
  4  5  1  0
  5  6  2  0
  6  7  1  0
  7  8  2  0
  8  9  1  0
  9 10  2  0
 10 11  1  0
 11 12  2  0
 12 13  1  0
 13 14  2  0
 14 15  1  0
 15 16  2  0
 16 17  1  0
 17 18  2  0
 18 19  1  0
 19 20  2  0
 20 21  1  0
 10 22  1  0
 22 23  1  0
 23 24  1  0
 24 25  1  0
 25 26  1  0
 26 27  1  0
 27 28  1  0
 28 29  1  0
 22  2  1  0
 29 24  1  0
  8  3  1  0
 21 13  1  0
 20 15  1  0
  4 30  1  0
  5 31  1  0
  6 32  1  0
  7 33  1  0
 11 34  1  0
 12 35  1  0
 16 36  1  0
 17 37  1  0
 18 38  1  0
 19 39  1  0
 21 40  1  0
 23 41  1  0
 23 42  1  0
 24 43  1  0
 25 44  1  0
 25 45  1  0
 26 46  1  0
 26 47  1  0
 27 48  1  0
 28 49  1  0
 28 50  1  0
 29 51  1  0
 29 52  1  0
M  END
>  <smiles>  (44) 
O=c1c2ccccc2nc(/C=C/c2nc3ccccc3[nH]2)n1CC1CCNCC1

>  <score_type>  (44) 
oracle

>  <origin>  (44) 
autodockgpu

>  <m_score__min__energy>  (44) 
-9.1300000000000008

>  <m_primary>  (44) 
energy

>  <rmsd>  (44) 
12.420115003118458

>  <m_score__min__rmsd>  (44) 
12.420115003118458

>  <meeko>  (44) 
{"free_energy": -8.79, "intermolecular_energy": -10.29, "internal_energy": -1.08, "cluster_size": 30, "cluster_id": 1, "rank_in_cluster": 22}

>  <energy>  (44) 
-8.34

>  <cluster_rmsd>  (44) 
1.64

>  <cluster>  (44) 
2

$$$$

     RDKit          3D

 52 56  0  0  0  0  0  0  0  0999 V2000
  142.0610   76.3570  220.1410 O   0  0  0  0  0  0  0  0  0  0  0  0
  141.1740   75.8000  220.8430 C   0  0  0  0  0  0  0  0  0  0  0  0
  140.3000   76.6420  221.4880 C   0  0  0  0  0  0  0  0  0  0  0  0
  140.3880   78.0000  221.3790 C   0  0  0  0  0  0  0  0  0  0  0  0
  139.4690   78.7620  222.0600 C   0  0  0  0  0  0  0  0  0  0  0  0
  138.4930   78.1630  222.8270 C   0  0  0  0  0  0  0  0  0  0  0  0
  138.3880   76.7760  222.9500 C   0  0  0  0  0  0  0  0  0  0  0  0
  139.3280   76.0510  222.2510 C   0  0  0  0  0  0  0  0  0  0  0  0
  139.2870   74.7340  222.3220 N   0  0  0  0  0  0  0  0  0  0  0  0
  140.1440   73.8660  221.6930 C   0  0  0  0  0  0  0  0  0  0  0  0
  139.8770   72.4800  221.9190 C   0  0  0  0  0  0  0  0  0  0  0  0
  140.5900   71.5290  222.4020 C   0  0  0  0  0  0  0  0  0  0  0  0
  140.4760   71.1380  223.8340 C   0  0  0  0  0  0  0  0  0  0  0  0
  140.7700   71.8850  224.9070 N   0  0  0  0  0  0  0  0  0  0  0  0
  140.5450   71.2060  226.0450 C   0  0  0  0  0  0  0  0  0  0  0  0
  140.6660   71.4630  227.3970 C   0  0  0  0  0  0  0  0  0  0  0  0
  140.3370   70.5060  228.3340 C   0  0  0  0  0  0  0  0  0  0  0  0
  139.8690   69.2420  227.9610 C   0  0  0  0  0  0  0  0  0  0  0  0
  139.7550   69.0050  226.6000 C   0  0  0  0  0  0  0  0  0  0  0  0
  140.0850   69.9650  225.6640 C   0  0  0  0  0  0  0  0  0  0  0  0
  140.0560   69.9590  224.3200 N   0  0  0  0  0  0  0  0  0  0  0  0
  141.0920   74.4330  220.9500 N   0  0  0  0  0  0  0  0  0  0  0  0
  142.0540   73.6830  220.2190 C   0  0  0  0  0  0  0  0  0  0  0  0
  143.4670   74.1190  220.4520 C   0  0  0  0  0  0  0  0  0  0  0  0
  144.3200   72.9210  220.8490 C   0  0  0  0  0  0  0  0  0  0  0  0
  145.7250   73.1060  220.3720 C   0  0  0  0  0  0  0  0  0  0  0  0
  145.8880   73.1740  218.9520 N   0  0  0  0  0  0  0  0  0  0  0  0
  144.7190   73.7500  218.3200 C   0  0  0  0  0  0  0  0  0  0  0  0
  144.1630   74.7710  219.3100 C   0  0  0  0  0  0  0  0  0  0  0  0
  141.1704   78.4699  220.7650 H   0  0  0  0  0  0  0  0  0  0  0  0
  139.5128   79.8590  221.9923 H   0  0  0  0  0  0  0  0  0  0  0  0
  137.7719   78.7995  223.3607 H   0  0  0  0  0  0  0  0  0  0  0  0
  137.6098   76.2963  223.5617 H   0  0  0  0  0  0  0  0  0  0  0  0
  138.8648   72.1687  221.6214 H   0  0  0  0  0  0  0  0  0  0  0  0
  141.2956   70.9949  221.7487 H   0  0  0  0  0  0  0  0  0  0  0  0
  141.0302   72.4457  227.7312 H   0  0  0  0  0  0  0  0  0  0  0  0
  140.4455   70.7431  229.4026 H   0  0  0  0  0  0  0  0  0  0  0  0
  139.6057   68.4776  228.7069 H   0  0  0  0  0  0  0  0  0  0  0  0
  139.3917   68.0253  226.2562 H   0  0  0  0  0  0  0  0  0  0  0  0
  139.7530   69.1600  223.6990 H   0  0  0  0  0  0  0  0  0  0  0  0
  141.9648   72.6264  220.5117 H   0  0  0  0  0  0  0  0  0  0  0  0
  141.8416   73.8448  219.1519 H   0  0  0  0  0  0  0  0  0  0  0  0
  143.3672   74.8798  221.2402 H   0  0  0  0  0  0  0  0  0  0  0  0
  144.3185   72.8211  221.9444 H   0  0  0  0  0  0  0  0  0  0  0  0
  143.9013   72.0141  220.3883 H   0  0  0  0  0  0  0  0  0  0  0  0
  146.1089   74.0425  220.8027 H   0  0  0  0  0  0  0  0  0  0  0  0
  146.2755   72.2109  220.6973 H   0  0  0  0  0  0  0  0  0  0  0  0
  146.6940   73.7790  218.6690 H   0  0  0  0  0  0  0  0  0  0  0  0
  144.9987   74.2445  217.3781 H   0  0  0  0  0  0  0  0  0  0  0  0
  143.9731   72.9793  218.0757 H   0  0  0  0  0  0  0  0  0  0  0  0
  144.9944   75.3767  219.6999 H   0  0  0  0  0  0  0  0  0  0  0  0
  143.4305   75.3958  218.7779 H   0  0  0  0  0  0  0  0  0  0  0  0
  1  2  2  0
  2  3  1  0
  3  4  2  0
  4  5  1  0
  5  6  2  0
  6  7  1  0
  7  8  2  0
  8  9  1  0
  9 10  2  0
 10 11  1  0
 11 12  2  0
 12 13  1  0
 13 14  2  0
 14 15  1  0
 15 16  2  0
 16 17  1  0
 17 18  2  0
 18 19  1  0
 19 20  2  0
 20 21  1  0
 10 22  1  0
 22 23  1  0
 23 24  1  0
 24 25  1  0
 25 26  1  0
 26 27  1  0
 27 28  1  0
 28 29  1  0
 22  2  1  0
 29 24  1  0
  8  3  1  0
 21 13  1  0
 20 15  1  0
  4 30  1  0
  5 31  1  0
  6 32  1  0
  7 33  1  0
 11 34  1  0
 12 35  1  0
 16 36  1  0
 17 37  1  0
 18 38  1  0
 19 39  1  0
 21 40  1  0
 23 41  1  0
 23 42  1  0
 24 43  1  0
 25 44  1  0
 25 45  1  0
 26 46  1  0
 26 47  1  0
 27 48  1  0
 28 49  1  0
 28 50  1  0
 29 51  1  0
 29 52  1  0
M  END
>  <smiles>  (45) 
O=c1c2ccccc2nc(/C=C/c2nc3ccccc3[nH]2)n1CC1CCNCC1

>  <score_type>  (45) 
oracle

>  <origin>  (45) 
autodockgpu

>  <m_score__min__energy>  (45) 
-9.1300000000000008

>  <m_primary>  (45) 
energy

>  <rmsd>  (45) 
7.114572725513734

>  <m_score__min__rmsd>  (45) 
7.114572725513734

>  <meeko>  (45) 
{"free_energy": -9.06, "intermolecular_energy": -10.55, "internal_energy": -0.75, "cluster_size": 17, "cluster_id": 2, "rank_in_cluster": 1}

>  <energy>  (45) 
-8.28

>  <cluster_rmsd>  (45) 
1.57

>  <cluster>  (45) 
2

$$$$

     RDKit          3D

 52 56  0  0  0  0  0  0  0  0999 V2000
  142.5900   74.6720  218.6590 O   0  0  0  0  0  0  0  0  0  0  0  0
  141.9860   74.5100  219.7540 C   0  0  0  0  0  0  0  0  0  0  0  0
  141.7390   75.6500  220.4800 C   0  0  0  0  0  0  0  0  0  0  0  0
  142.1270   76.8850  220.0450 C   0  0  0  0  0  0  0  0  0  0  0  0
  141.8360   77.9690  220.8380 C   0  0  0  0  0  0  0  0  0  0  0  0
  141.1730   77.8030  222.0340 C   0  0  0  0  0  0  0  0  0  0  0  0
  140.7680   76.5490  222.4950 C   0  0  0  0  0  0  0  0  0  0  0  0
  141.0800   75.4910  221.6700 C   0  0  0  0  0  0  0  0  0  0  0  0
  140.7260   74.2760  222.0440 N   0  0  0  0  0  0  0  0  0  0  0  0
  140.9580   73.1180  221.3450 C   0  0  0  0  0  0  0  0  0  0  0  0
  140.4590   71.9270  221.9600 C   0  0  0  0  0  0  0  0  0  0  0  0
  139.5380   71.7250  222.8300 C   0  0  0  0  0  0  0  0  0  0  0  0
  139.8400   71.0490  224.1220 C   0  0  0  0  0  0  0  0  0  0  0  0
  139.5850   69.7770  224.4530 N   0  0  0  0  0  0  0  0  0  0  0  0
  139.9940   69.5110  225.7060 C   0  0  0  0  0  0  0  0  0  0  0  0
  139.9890   68.4120  226.5420 C   0  0  0  0  0  0  0  0  0  0  0  0
  140.5100   68.4870  227.8170 C   0  0  0  0  0  0  0  0  0  0  0  0
  141.0630   69.6710  228.3160 C   0  0  0  0  0  0  0  0  0  0  0  0
  141.0590   70.7610  227.4620 C   0  0  0  0  0  0  0  0  0  0  0  0
  140.5360   70.6840  226.1850 C   0  0  0  0  0  0  0  0  0  0  0  0
  140.4260   71.5920  225.2010 N   0  0  0  0  0  0  0  0  0  0  0  0
  141.5990   73.2640  220.1870 N   0  0  0  0  0  0  0  0  0  0  0  0
  141.9090   72.1730  219.3300 C   0  0  0  0  0  0  0  0  0  0  0  0
  143.1130   71.3920  219.7560 C   0  0  0  0  0  0  0  0  0  0  0  0
  144.2070   71.5140  218.7020 C   0  0  0  0  0  0  0  0  0  0  0  0
  145.5550   71.4400  219.3470 C   0  0  0  0  0  0  0  0  0  0  0  0
  145.8570   72.4950  220.2640 N   0  0  0  0  0  0  0  0  0  0  0  0
  144.6570   72.9800  220.9140 C   0  0  0  0  0  0  0  0  0  0  0  0
  143.7340   71.7710  221.0530 C   0  0  0  0  0  0  0  0  0  0  0  0
  142.6565   77.0084  219.0887 H   0  0  0  0  0  0  0  0  0  0  0  0
  142.1349   78.9772  220.5151 H   0  0  0  0  0  0  0  0  0  0  0  0
  140.9550   78.6897  222.6474 H   0  0  0  0  0  0  0  0  0  0  0  0
  140.2374   76.4154  223.4493 H   0  0  0  0  0  0  0  0  0  0  0  0
  140.9610   71.0083  221.6224 H   0  0  0  0  0  0  0  0  0  0  0  0
  138.5105   72.0559  222.6185 H   0  0  0  0  0  0  0  0  0  0  0  0
  139.5631   67.4624  226.1858 H   0  0  0  0  0  0  0  0  0  0  0  0
  140.4901   67.5930  228.4576 H   0  0  0  0  0  0  0  0  0  0  0  0
  141.4788   69.7329  229.3325 H   0  0  0  0  0  0  0  0  0  0  0  0
  141.4837   71.7143  227.8095 H   0  0  0  0  0  0  0  0  0  0  0  0
  140.7430   72.6000  225.2340 H   0  0  0  0  0  0  0  0  0  0  0  0
  141.0447   71.4930  219.3081 H   0  0  0  0  0  0  0  0  0  0  0  0
  142.1365   72.5976  218.3411 H   0  0  0  0  0  0  0  0  0  0  0  0
  142.7189   70.3725  219.8798 H   0  0  0  0  0  0  0  0  0  0  0  0
  144.1057   70.6936  217.9762 H   0  0  0  0  0  0  0  0  0  0  0  0
  144.1063   72.4823  218.1899 H   0  0  0  0  0  0  0  0  0  0  0  0
  145.6174   70.4875  219.8937 H   0  0  0  0  0  0  0  0  0  0  0  0
  146.2862   71.5310  218.5303 H   0  0  0  0  0  0  0  0  0  0  0  0
  146.4960   72.1870  221.0340 H   0  0  0  0  0  0  0  0  0  0  0  0
  144.8991   73.3917  221.9049 H   0  0  0  0  0  0  0  0  0  0  0  0
  144.1819   73.7844  220.3333 H   0  0  0  0  0  0  0  0  0  0  0  0
  144.3192   70.9188  221.4290 H   0  0  0  0  0  0  0  0  0  0  0  0
  142.9268   72.0383  221.7508 H   0  0  0  0  0  0  0  0  0  0  0  0
  1  2  2  0
  2  3  1  0
  3  4  2  0
  4  5  1  0
  5  6  2  0
  6  7  1  0
  7  8  2  0
  8  9  1  0
  9 10  2  0
 10 11  1  0
 11 12  2  0
 12 13  1  0
 13 14  2  0
 14 15  1  0
 15 16  2  0
 16 17  1  0
 17 18  2  0
 18 19  1  0
 19 20  2  0
 20 21  1  0
 10 22  1  0
 22 23  1  0
 23 24  1  0
 24 25  1  0
 25 26  1  0
 26 27  1  0
 27 28  1  0
 28 29  1  0
 22  2  1  0
 29 24  1  0
  8  3  1  0
 21 13  1  0
 20 15  1  0
  4 30  1  0
  5 31  1  0
  6 32  1  0
  7 33  1  0
 11 34  1  0
 12 35  1  0
 16 36  1  0
 17 37  1  0
 18 38  1  0
 19 39  1  0
 21 40  1  0
 23 41  1  0
 23 42  1  0
 24 43  1  0
 25 44  1  0
 25 45  1  0
 26 46  1  0
 26 47  1  0
 27 48  1  0
 28 49  1  0
 28 50  1  0
 29 51  1  0
 29 52  1  0
M  END
>  <smiles>  (46) 
O=c1c2ccccc2nc(/C=C/c2nc3ccccc3[nH]2)n1CC1CCNCC1

>  <score_type>  (46) 
oracle

>  <origin>  (46) 
autodockgpu

>  <m_score__min__energy>  (46) 
-9.1300000000000008

>  <m_primary>  (46) 
energy

>  <rmsd>  (46) 
8.282563333887653

>  <m_score__min__rmsd>  (46) 
8.282563333887653

>  <meeko>  (46) 
{"free_energy": -8.34, "intermolecular_energy": -9.83, "internal_energy": -1.17, "cluster_size": 17, "cluster_id": 2, "rank_in_cluster": 14}

>  <energy>  (46) 
-8.28

>  <cluster_rmsd>  (46) 
1.6

>  <cluster>  (46) 
2

$$$$

     RDKit          3D

 52 56  0  0  0  0  0  0  0  0999 V2000
  142.7960   76.4670  219.1320 O   0  0  0  0  0  0  0  0  0  0  0  0
  142.0670   76.0710  220.0820 C   0  0  0  0  0  0  0  0  0  0  0  0
  141.4760   77.0550  220.8380 C   0  0  0  0  0  0  0  0  0  0  0  0
  141.6680   78.3820  220.5790 C   0  0  0  0  0  0  0  0  0  0  0  0
  141.0350   79.2950  221.3880 C   0  0  0  0  0  0  0  0  0  0  0  0
  140.2330   78.8730  222.4270 C   0  0  0  0  0  0  0  0  0  0  0  0
  140.0250   77.5210  222.7060 C   0  0  0  0  0  0  0  0  0  0  0  0
  140.6780   76.6410  221.8710 C   0  0  0  0  0  0  0  0  0  0  0  0
  140.5250   75.3460  222.0780 N   0  0  0  0  0  0  0  0  0  0  0  0
  141.1010   74.3400  221.3450 C   0  0  0  0  0  0  0  0  0  0  0  0
  140.7640   73.0150  221.7630 C   0  0  0  0  0  0  0  0  0  0  0  0
  139.7250   72.5280  222.3360 C   0  0  0  0  0  0  0  0  0  0  0  0
  139.8520   71.5720  223.4710 C   0  0  0  0  0  0  0  0  0  0  0  0
  139.2930   70.3600  223.5800 N   0  0  0  0  0  0  0  0  0  0  0  0
  139.6260   69.7760  224.7440 C   0  0  0  0  0  0  0  0  0  0  0  0
  139.3530   68.5760  225.3690 C   0  0  0  0  0  0  0  0  0  0  0  0
  139.8780   68.2860  226.6120 C   0  0  0  0  0  0  0  0  0  0  0  0
  140.7040   69.1880  227.2890 C   0  0  0  0  0  0  0  0  0  0  0  0
  140.9660   70.3860  226.6450 C   0  0  0  0  0  0  0  0  0  0  0  0
  140.4400   70.6740  225.4010 C   0  0  0  0  0  0  0  0  0  0  0  0
  140.5540   71.7490  224.6020 N   0  0  0  0  0  0  0  0  0  0  0  0
  141.8790   74.7350  220.3380 N   0  0  0  0  0  0  0  0  0  0  0  0
  142.5420   73.8250  219.4700 C   0  0  0  0  0  0  0  0  0  0  0  0
  143.2550   72.7180  220.1820 C   0  0  0  0  0  0  0  0  0  0  0  0
  143.6830   71.6500  219.1820 C   0  0  0  0  0  0  0  0  0  0  0  0
  144.9450   70.9910  219.6380 C   0  0  0  0  0  0  0  0  0  0  0  0
  146.0900   71.8460  219.7220 N   0  0  0  0  0  0  0  0  0  0  0  0
  145.7040   73.2030  220.0460 C   0  0  0  0  0  0  0  0  0  0  0  0
  144.4760   73.0900  220.9470 C   0  0  0  0  0  0  0  0  0  0  0  0
  142.3098   78.7102  219.7481 H   0  0  0  0  0  0  0  0  0  0  0  0
  141.1693   80.3713  221.2050 H   0  0  0  0  0  0  0  0  0  0  0  0
  139.7401   79.6275  223.0578 H   0  0  0  0  0  0  0  0  0  0  0  0
  139.3849   77.1823  223.5340 H   0  0  0  0  0  0  0  0  0  0  0  0
  141.5458   72.2703  221.5529 H   0  0  0  0  0  0  0  0  0  0  0  0
  138.7249   72.8208  221.9838 H   0  0  0  0  0  0  0  0  0  0  0  0
  138.7071   67.8395  224.8687 H   0  0  0  0  0  0  0  0  0  0  0  0
  139.6404   67.3203  227.0821 H   0  0  0  0  0  0  0  0  0  0  0  0
  141.1233   68.9587  228.2798 H   0  0  0  0  0  0  0  0  0  0  0  0
  141.6108   71.1284  227.1380 H   0  0  0  0  0  0  0  0  0  0  0  0
  141.1090   72.6260  224.8000 H   0  0  0  0  0  0  0  0  0  0  0  0
  141.7936   73.3793  218.7983 H   0  0  0  0  0  0  0  0  0  0  0  0
  143.3066   74.4005  218.9276 H   0  0  0  0  0  0  0  0  0  0  0  0
  142.5117   72.3744  220.9165 H   0  0  0  0  0  0  0  0  0  0  0  0
  142.8888   70.8937  219.0961 H   0  0  0  0  0  0  0  0  0  0  0  0
  143.8585   72.1234  218.2047 H   0  0  0  0  0  0  0  0  0  0  0  0
  144.7644   70.5670  220.6368 H   0  0  0  0  0  0  0  0  0  0  0  0
  145.1858   70.2373  218.8739 H   0  0  0  0  0  0  0  0  0  0  0  0
  146.7570   71.5500  220.4720 H   0  0  0  0  0  0  0  0  0  0  0  0
  146.5203   73.7160  220.5756 H   0  0  0  0  0  0  0  0  0  0  0  0
  145.4851   73.7861  219.1393 H   0  0  0  0  0  0  0  0  0  0  0  0
  144.6651   72.3205  221.7100 H   0  0  0  0  0  0  0  0  0  0  0  0
  144.3014   74.0734  221.4080 H   0  0  0  0  0  0  0  0  0  0  0  0
  1  2  2  0
  2  3  1  0
  3  4  2  0
  4  5  1  0
  5  6  2  0
  6  7  1  0
  7  8  2  0
  8  9  1  0
  9 10  2  0
 10 11  1  0
 11 12  2  0
 12 13  1  0
 13 14  2  0
 14 15  1  0
 15 16  2  0
 16 17  1  0
 17 18  2  0
 18 19  1  0
 19 20  2  0
 20 21  1  0
 10 22  1  0
 22 23  1  0
 23 24  1  0
 24 25  1  0
 25 26  1  0
 26 27  1  0
 27 28  1  0
 28 29  1  0
 22  2  1  0
 29 24  1  0
  8  3  1  0
 21 13  1  0
 20 15  1  0
  4 30  1  0
  5 31  1  0
  6 32  1  0
  7 33  1  0
 11 34  1  0
 12 35  1  0
 16 36  1  0
 17 37  1  0
 18 38  1  0
 19 39  1  0
 21 40  1  0
 23 41  1  0
 23 42  1  0
 24 43  1  0
 25 44  1  0
 25 45  1  0
 26 46  1  0
 26 47  1  0
 27 48  1  0
 28 49  1  0
 28 50  1  0
 29 51  1  0
 29 52  1  0
M  END
>  <smiles>  (47) 
O=c1c2ccccc2nc(/C=C/c2nc3ccccc3[nH]2)n1CC1CCNCC1

>  <score_type>  (47) 
oracle

>  <origin>  (47) 
autodockgpu

>  <m_score__min__energy>  (47) 
-9.1300000000000008

>  <m_primary>  (47) 
energy

>  <rmsd>  (47) 
7.944751101431517

>  <m_score__min__rmsd>  (47) 
7.944751101431517

>  <meeko>  (47) 
{"free_energy": -8.59, "intermolecular_energy": -10.08, "internal_energy": -0.84, "cluster_size": 17, "cluster_id": 2, "rank_in_cluster": 10}

>  <energy>  (47) 
-8.06

>  <cluster_rmsd>  (47) 
1.64

>  <cluster>  (47) 
2

$$$$

     RDKit          3D

 52 56  0  0  0  0  0  0  0  0999 V2000
  142.7410   75.3370  219.0400 O   0  0  0  0  0  0  0  0  0  0  0  0
  141.9770   75.2700  220.0410 C   0  0  0  0  0  0  0  0  0  0  0  0
  141.6500   76.4680  220.6310 C   0  0  0  0  0  0  0  0  0  0  0  0
  142.1270   77.6590  220.1640 C   0  0  0  0  0  0  0  0  0  0  0  0
  141.7460   78.8070  220.8180 C   0  0  0  0  0  0  0  0  0  0  0  0
  140.9090   78.7450  221.9100 C   0  0  0  0  0  0  0  0  0  0  0  0
  140.4110   77.5360  222.4010 C   0  0  0  0  0  0  0  0  0  0  0  0
  140.8180   76.4110  221.7170 C   0  0  0  0  0  0  0  0  0  0  0  0
  140.3850   75.2340  222.1270 N   0  0  0  0  0  0  0  0  0  0  0  0
  140.6920   74.0220  221.5630 C   0  0  0  0  0  0  0  0  0  0  0  0
  140.0800   72.8900  222.1860 C   0  0  0  0  0  0  0  0  0  0  0  0
  140.5220   71.7240  222.4870 C   0  0  0  0  0  0  0  0  0  0  0  0
  140.4390   71.2090  223.8810 C   0  0  0  0  0  0  0  0  0  0  0  0
  140.7130   71.8740  225.0110 N   0  0  0  0  0  0  0  0  0  0  0  0
  140.5280   71.0930  226.0900 C   0  0  0  0  0  0  0  0  0  0  0  0
  140.6520   71.2400  227.4570 C   0  0  0  0  0  0  0  0  0  0  0  0
  140.3710   70.1940  228.3120 C   0  0  0  0  0  0  0  0  0  0  0  0
  139.9520   68.9480  227.8360 C   0  0  0  0  0  0  0  0  0  0  0  0
  139.8340   68.8210  226.4620 C   0  0  0  0  0  0  0  0  0  0  0  0
  140.1160   69.8700  225.6070 C   0  0  0  0  0  0  0  0  0  0  0  0
  140.0730   69.9760  224.2680 N   0  0  0  0  0  0  0  0  0  0  0  0
  141.5020   74.0680  220.5070 N   0  0  0  0  0  0  0  0  0  0  0  0
  141.9100   72.9070  219.7940 C   0  0  0  0  0  0  0  0  0  0  0  0
  143.1500   72.2690  220.3360 C   0  0  0  0  0  0  0  0  0  0  0  0
  143.8060   71.4130  219.2580 C   0  0  0  0  0  0  0  0  0  0  0  0
  145.2900   71.3940  219.4450 C   0  0  0  0  0  0  0  0  0  0  0  0
  145.9440   72.6580  219.3090 N   0  0  0  0  0  0  0  0  0  0  0  0
  145.0740   73.7420  219.7200 C   0  0  0  0  0  0  0  0  0  0  0  0
  144.2070   73.1840  220.8460 C   0  0  0  0  0  0  0  0  0  0  0  0
  142.7956   77.6990  219.2914 H   0  0  0  0  0  0  0  0  0  0  0  0
  142.1126   79.7826  220.4662 H   0  0  0  0  0  0  0  0  0  0  0  0
  140.6227   79.6804  222.4131 H   0  0  0  0  0  0  0  0  0  0  0  0
  139.7412   77.4854  223.2721 H   0  0  0  0  0  0  0  0  0  0  0  0
  139.0268   73.0498  222.4602 H   0  0  0  0  0  0  0  0  0  0  0  0
  140.9692   71.0952  221.7030 H   0  0  0  0  0  0  0  0  0  0  0  0
  140.9796   72.2051  227.8708 H   0  0  0  0  0  0  0  0  0  0  0  0
  140.4795   70.3444  229.3963 H   0  0  0  0  0  0  0  0  0  0  0  0
  139.7280   68.1132  228.5164 H   0  0  0  0  0  0  0  0  0  0  0  0
  139.5070   67.8594  226.0396 H   0  0  0  0  0  0  0  0  0  0  0  0
  139.7970   69.2200  223.5830 H   0  0  0  0  0  0  0  0  0  0  0  0
  141.0944   72.1701  219.8358 H   0  0  0  0  0  0  0  0  0  0  0  0
  142.1375   73.2262  218.7662 H   0  0  0  0  0  0  0  0  0  0  0  0
  142.7793   71.6982  221.2001 H   0  0  0  0  0  0  0  0  0  0  0  0
  143.4183   70.3857  219.3239 H   0  0  0  0  0  0  0  0  0  0  0  0
  143.5742   71.8394  218.2708 H   0  0  0  0  0  0  0  0  0  0  0  0
  145.4994   71.0111  220.4547 H   0  0  0  0  0  0  0  0  0  0  0  0
  145.6877   70.7600  218.6388 H   0  0  0  0  0  0  0  0  0  0  0  0
  146.7990   72.7350  219.9070 H   0  0  0  0  0  0  0  0  0  0  0  0
  145.6693   74.5931  220.0823 H   0  0  0  0  0  0  0  0  0  0  0  0
  144.4606   74.1052  218.8823 H   0  0  0  0  0  0  0  0  0  0  0  0
  144.8487   72.6295  221.5466 H   0  0  0  0  0  0  0  0  0  0  0  0
  143.7116   74.0305  221.3441 H   0  0  0  0  0  0  0  0  0  0  0  0
  1  2  2  0
  2  3  1  0
  3  4  2  0
  4  5  1  0
  5  6  2  0
  6  7  1  0
  7  8  2  0
  8  9  1  0
  9 10  2  0
 10 11  1  0
 11 12  2  0
 12 13  1  0
 13 14  2  0
 14 15  1  0
 15 16  2  0
 16 17  1  0
 17 18  2  0
 18 19  1  0
 19 20  2  0
 20 21  1  0
 10 22  1  0
 22 23  1  0
 23 24  1  0
 24 25  1  0
 25 26  1  0
 26 27  1  0
 27 28  1  0
 28 29  1  0
 22  2  1  0
 29 24  1  0
  8  3  1  0
 21 13  1  0
 20 15  1  0
  4 30  1  0
  5 31  1  0
  6 32  1  0
  7 33  1  0
 11 34  1  0
 12 35  1  0
 16 36  1  0
 17 37  1  0
 18 38  1  0
 19 39  1  0
 21 40  1  0
 23 41  1  0
 23 42  1  0
 24 43  1  0
 25 44  1  0
 25 45  1  0
 26 46  1  0
 26 47  1  0
 27 48  1  0
 28 49  1  0
 28 50  1  0
 29 51  1  0
 29 52  1  0
M  END
>  <smiles>  (48) 
O=c1c2ccccc2nc(/C=C/c2nc3ccccc3[nH]2)n1CC1CCNCC1

>  <score_type>  (48) 
oracle

>  <origin>  (48) 
autodockgpu

>  <m_score__min__energy>  (48) 
-9.1300000000000008

>  <m_primary>  (48) 
energy

>  <rmsd>  (48) 
7.8302879579776805

>  <m_score__min__rmsd>  (48) 
7.8302879579776805

>  <meeko>  (48) 
{"free_energy": -8.75, "intermolecular_energy": -10.25, "internal_energy": -1.05, "cluster_size": 17, "cluster_id": 2, "rank_in_cluster": 6}

>  <energy>  (48) 
-8.23

>  <cluster_rmsd>  (48) 
0.0

>  <cluster>  (48) 
3

$$$$

     RDKit          3D

 52 56  0  0  0  0  0  0  0  0999 V2000
  142.8040   75.2990  219.1510 O   0  0  0  0  0  0  0  0  0  0  0  0
  142.0020   75.1740  220.1150 C   0  0  0  0  0  0  0  0  0  0  0  0
  141.6600   76.3340  220.7680 C   0  0  0  0  0  0  0  0  0  0  0  0
  142.1620   77.5480  220.4000 C   0  0  0  0  0  0  0  0  0  0  0  0
  141.7630   78.6540  221.1120 C   0  0  0  0  0  0  0  0  0  0  0  0
  140.8830   78.5290  222.1640 C   0  0  0  0  0  0  0  0  0  0  0  0
  140.3590   77.2950  222.5550 C   0  0  0  0  0  0  0  0  0  0  0  0
  140.7850   76.2140  221.8150 C   0  0  0  0  0  0  0  0  0  0  0  0
  140.3290   75.0170  222.1310 N   0  0  0  0  0  0  0  0  0  0  0  0
  140.6500   73.8410  221.5010 C   0  0  0  0  0  0  0  0  0  0  0  0
  140.0070   72.6760  222.0250 C   0  0  0  0  0  0  0  0  0  0  0  0
  140.4550   71.5310  222.3890 C   0  0  0  0  0  0  0  0  0  0  0  0
  140.4570   71.1290  223.8230 C   0  0  0  0  0  0  0  0  0  0  0  0
  140.7320   71.9010  224.8830 N   0  0  0  0  0  0  0  0  0  0  0  0
  140.6370   71.2030  226.0280 C   0  0  0  0  0  0  0  0  0  0  0  0
  140.8040   71.4690  227.3720 C   0  0  0  0  0  0  0  0  0  0  0  0
  140.6210   70.4840  228.3200 C   0  0  0  0  0  0  0  0  0  0  0  0
  140.2620   69.1800  227.9650 C   0  0  0  0  0  0  0  0  0  0  0  0
  140.1000   68.9330  226.6110 C   0  0  0  0  0  0  0  0  0  0  0  0
  140.2830   69.9220  225.6640 C   0  0  0  0  0  0  0  0  0  0  0  0
  140.1840   69.9140  224.3230 N   0  0  0  0  0  0  0  0  0  0  0  0
  141.5010   73.9480  220.4820 N   0  0  0  0  0  0  0  0  0  0  0  0
  141.9290   72.8330  219.7110 C   0  0  0  0  0  0  0  0  0  0  0  0
  143.1420   72.1480  220.2590 C   0  0  0  0  0  0  0  0  0  0  0  0
  143.8220   71.3400  219.1600 C   0  0  0  0  0  0  0  0  0  0  0  0
  145.2980   71.2890  219.3940 C   0  0  0  0  0  0  0  0  0  0  0  0
  145.9730   72.5490  219.3450 N   0  0  0  0  0  0  0  0  0  0  0  0
  145.1050   73.6220  219.7840 C   0  0  0  0  0  0  0  0  0  0  0  0
  144.1940   73.0190  220.8510 C   0  0  0  0  0  0  0  0  0  0  0  0
  142.8649   77.6390  219.5588 H   0  0  0  0  0  0  0  0  0  0  0  0
  142.1497   79.6470  220.8393 H   0  0  0  0  0  0  0  0  0  0  0  0
  140.5825   79.4322  222.7152 H   0  0  0  0  0  0  0  0  0  0  0  0
  139.6557   77.1934  223.3946 H   0  0  0  0  0  0  0  0  0  0  0  0
  138.9180   72.7828  222.1375 H   0  0  0  0  0  0  0  0  0  0  0  0
  140.8437   70.8353  221.6308 H   0  0  0  0  0  0  0  0  0  0  0  0
  141.0875   72.4825  227.6921 H   0  0  0  0  0  0  0  0  0  0  0  0
  140.7611   70.7306  229.3828 H   0  0  0  0  0  0  0  0  0  0  0  0
  140.1161   68.3930  228.7195 H   0  0  0  0  0  0  0  0  0  0  0  0
  139.8181   67.9221  226.2814 H   0  0  0  0  0  0  0  0  0  0  0  0
  139.9280   69.0890  223.7140 H   0  0  0  0  0  0  0  0  0  0  0  0
  141.1070   72.1031  219.6713 H   0  0  0  0  0  0  0  0  0  0  0  0
  142.2003   73.2170  218.7165 H   0  0  0  0  0  0  0  0  0  0  0  0
  142.7346   71.5384  221.0790 H   0  0  0  0  0  0  0  0  0  0  0  0
  143.4188   70.3166  219.1591 H   0  0  0  0  0  0  0  0  0  0  0  0
  143.6290   71.8207  218.1896 H   0  0  0  0  0  0  0  0  0  0  0  0
  145.4685   70.8516  220.3888 H   0  0  0  0  0  0  0  0  0  0  0  0
  145.7140   70.6912  218.5696 H   0  0  0  0  0  0  0  0  0  0  0  0
  146.8090   72.5810  219.9750 H   0  0  0  0  0  0  0  0  0  0  0  0
  145.6992   74.4441  220.2094 H   0  0  0  0  0  0  0  0  0  0  0  0
  144.5242   74.0374  218.9472 H   0  0  0  0  0  0  0  0  0  0  0  0
  144.8048   72.4188  221.5415 H   0  0  0  0  0  0  0  0  0  0  0  0
  143.6941   73.8455  221.3774 H   0  0  0  0  0  0  0  0  0  0  0  0
  1  2  2  0
  2  3  1  0
  3  4  2  0
  4  5  1  0
  5  6  2  0
  6  7  1  0
  7  8  2  0
  8  9  1  0
  9 10  2  0
 10 11  1  0
 11 12  2  0
 12 13  1  0
 13 14  2  0
 14 15  1  0
 15 16  2  0
 16 17  1  0
 17 18  2  0
 18 19  1  0
 19 20  2  0
 20 21  1  0
 10 22  1  0
 22 23  1  0
 23 24  1  0
 24 25  1  0
 25 26  1  0
 26 27  1  0
 27 28  1  0
 28 29  1  0
 22  2  1  0
 29 24  1  0
  8  3  1  0
 21 13  1  0
 20 15  1  0
  4 30  1  0
  5 31  1  0
  6 32  1  0
  7 33  1  0
 11 34  1  0
 12 35  1  0
 16 36  1  0
 17 37  1  0
 18 38  1  0
 19 39  1  0
 21 40  1  0
 23 41  1  0
 23 42  1  0
 24 43  1  0
 25 44  1  0
 25 45  1  0
 26 46  1  0
 26 47  1  0
 27 48  1  0
 28 49  1  0
 28 50  1  0
 29 51  1  0
 29 52  1  0
M  END
>  <smiles>  (49) 
O=c1c2ccccc2nc(/C=C/c2nc3ccccc3[nH]2)n1CC1CCNCC1

>  <score_type>  (49) 
oracle

>  <origin>  (49) 
autodockgpu

>  <m_score__min__energy>  (49) 
-9.1300000000000008

>  <m_primary>  (49) 
energy

>  <rmsd>  (49) 
7.931950078272156

>  <m_score__min__rmsd>  (49) 
7.931950078272156

>  <meeko>  (49) 
{"free_energy": -8.8, "intermolecular_energy": -10.3, "internal_energy": -1.1, "cluster_size": 17, "cluster_id": 2, "rank_in_cluster": 2}

>  <energy>  (49) 
-7.6

>  <cluster_rmsd>  (49) 
0.0

>  <cluster>  (49) 
4

$$$$

     RDKit          3D

 52 56  0  0  0  0  0  0  0  0999 V2000
  139.2410   77.3330  222.3460 O   0  0  0  0  0  0  0  0  0  0  0  0
  140.1200   77.9060  221.6460 C   0  0  0  0  0  0  0  0  0  0  0  0
  140.9260   78.8020  222.3070 C   0  0  0  0  0  0  0  0  0  0  0  0
  140.7820   79.0600  223.6400 C   0  0  0  0  0  0  0  0  0  0  0  0
  141.6340   79.9720  224.2160 C   0  0  0  0  0  0  0  0  0  0  0  0
  142.6000   80.6010  223.4610 C   0  0  0  0  0  0  0  0  0  0  0  0
  142.7610   80.3500  222.0970 C   0  0  0  0  0  0  0  0  0  0  0  0
  141.8870   79.4300  221.5610 C   0  0  0  0  0  0  0  0  0  0  0  0
  141.9840   79.1440  220.2760 N   0  0  0  0  0  0  0  0  0  0  0  0
  141.1960   78.2570  219.5870 C   0  0  0  0  0  0  0  0  0  0  0  0
  141.5150   78.1130  218.2000 C   0  0  0  0  0  0  0  0  0  0  0  0
  142.3380   77.3520  217.5770 C   0  0  0  0  0  0  0  0  0  0  0  0
  142.9900   76.2030  218.2640 C   0  0  0  0  0  0  0  0  0  0  0  0
  143.0030   74.9230  217.8720 N   0  0  0  0  0  0  0  0  0  0  0  0
  143.6890   74.1580  218.7390 C   0  0  0  0  0  0  0  0  0  0  0  0
  144.0190   72.8210  218.8410 C   0  0  0  0  0  0  0  0  0  0  0  0
  144.7650   72.3520  219.9030 C   0  0  0  0  0  0  0  0  0  0  0  0
  145.2190   73.2040  220.9150 C   0  0  0  0  0  0  0  0  0  0  0  0
  144.8780   74.5410  220.7930 C   0  0  0  0  0  0  0  0  0  0  0  0
  144.1300   75.0080  219.7290 C   0  0  0  0  0  0  0  0  0  0  0  0
  143.6890   76.2370  219.4100 N   0  0  0  0  0  0  0  0  0  0  0  0
  140.2580   77.6430  220.3050 N   0  0  0  0  0  0  0  0  0  0  0  0
  139.3650   76.6850  219.7530 C   0  0  0  0  0  0  0  0  0  0  0  0
  139.8410   75.2710  219.8770 C   0  0  0  0  0  0  0  0  0  0  0  0
  141.0450   75.2110  220.8100 C   0  0  0  0  0  0  0  0  0  0  0  0
  141.0740   73.9010  221.5320 C   0  0  0  0  0  0  0  0  0  0  0  0
  139.9670   73.6540  222.4030 N   0  0  0  0  0  0  0  0  0  0  0  0
  138.7660   74.3010  221.9150 C   0  0  0  0  0  0  0  0  0  0  0  0
  138.8610   74.2760  220.3910 C   0  0  0  0  0  0  0  0  0  0  0  0
  140.0077   78.5534  224.2349 H   0  0  0  0  0  0  0  0  0  0  0  0
  141.5440   80.2015  225.2880 H   0  0  0  0  0  0  0  0  0  0  0  0
  143.2674   81.3260  223.9499 H   0  0  0  0  0  0  0  0  0  0  0  0
  143.5315   80.8515  221.4930 H   0  0  0  0  0  0  0  0  0  0  0  0
  140.9446   78.7841  217.5410 H   0  0  0  0  0  0  0  0  0  0  0  0
  142.5657   77.5510  216.5194 H   0  0  0  0  0  0  0  0  0  0  0  0
  143.6821   72.1191  218.0639 H   0  0  0  0  0  0  0  0  0  0  0  0
  145.0088   71.2806  219.9549 H   0  0  0  0  0  0  0  0  0  0  0  0
  145.8146   72.8325  221.7619 H   0  0  0  0  0  0  0  0  0  0  0  0
  145.2118   75.2506  221.5644 H   0  0  0  0  0  0  0  0  0  0  0  0
  143.8480   77.1270  219.9570 H   0  0  0  0  0  0  0  0  0  0  0  0
  138.3991   76.7722  220.2721 H   0  0  0  0  0  0  0  0  0  0  0  0
  139.2872   76.9029  218.6776 H   0  0  0  0  0  0  0  0  0  0  0  0
  140.0629   74.9898  218.8370 H   0  0  0  0  0  0  0  0  0  0  0  0
  141.9672   75.3217  220.2207 H   0  0  0  0  0  0  0  0  0  0  0  0
  140.9698   76.0250  221.5460 H   0  0  0  0  0  0  0  0  0  0  0  0
  141.0984   73.0994  220.7791 H   0  0  0  0  0  0  0  0  0  0  0  0
  141.9649   73.9308  222.1765 H   0  0  0  0  0  0  0  0  0  0  0  0
  139.7340   72.6360  222.4770 H   0  0  0  0  0  0  0  0  0  0  0  0
  137.8735   73.7527  222.2509 H   0  0  0  0  0  0  0  0  0  0  0  0
  138.6806   75.3295  222.2955 H   0  0  0  0  0  0  0  0  0  0  0  0
  139.1742   73.2712  220.0712 H   0  0  0  0  0  0  0  0  0  0  0  0
  137.8715   74.5326  219.9847 H   0  0  0  0  0  0  0  0  0  0  0  0
  1  2  2  0
  2  3  1  0
  3  4  2  0
  4  5  1  0
  5  6  2  0
  6  7  1  0
  7  8  2  0
  8  9  1  0
  9 10  2  0
 10 11  1  0
 11 12  2  0
 12 13  1  0
 13 14  2  0
 14 15  1  0
 15 16  2  0
 16 17  1  0
 17 18  2  0
 18 19  1  0
 19 20  2  0
 20 21  1  0
 10 22  1  0
 22 23  1  0
 23 24  1  0
 24 25  1  0
 25 26  1  0
 26 27  1  0
 27 28  1  0
 28 29  1  0
 22  2  1  0
 29 24  1  0
  8  3  1  0
 21 13  1  0
 20 15  1  0
  4 30  1  0
  5 31  1  0
  6 32  1  0
  7 33  1  0
 11 34  1  0
 12 35  1  0
 16 36  1  0
 17 37  1  0
 18 38  1  0
 19 39  1  0
 21 40  1  0
 23 41  1  0
 23 42  1  0
 24 43  1  0
 25 44  1  0
 25 45  1  0
 26 46  1  0
 26 47  1  0
 27 48  1  0
 28 49  1  0
 28 50  1  0
 29 51  1  0
 29 52  1  0
M  END
>  <smiles>  (50) 
O=c1c2ccccc2nc(/C=C/c2nc3ccccc3[nH]2)n1CC1CCNCC1

>  <score_type>  (50) 
oracle

>  <origin>  (50) 
autodockgpu

>  <m_score__min__energy>  (50) 
-9.1300000000000008

>  <m_primary>  (50) 
energy

>  <rmsd>  (50) 
6.998758182485426

>  <m_score__min__rmsd>  (50) 
6.998758182485426

>  <meeko>  (50) 
{"free_energy": -7.09, "intermolecular_energy": -8.58, "internal_energy": -2.23, "cluster_size": 1, "cluster_id": 5, "rank_in_cluster": 1}

>  <energy>  (50) 
-7.09

>  <cluster_rmsd>  (50) 
0.0

>  <cluster>  (50) 
5

$$$$
