
     RDKit          3D

 67 71  0  0  0  0  0  0  0  0999 V2000
  145.8900   73.3390  217.4360 C   0  0  0  0  0  0  0  0  0  0  0  0
  145.6940   72.6070  218.6690 N   0  0  0  0  0  0  0  0  0  0  0  0
  144.4650   71.8630  218.6840 C   0  0  0  0  0  0  0  0  0  0  0  0
  143.7870   71.8470  220.0380 C   0  0  0  0  0  0  0  0  0  0  0  0
  143.5610   73.2230  220.4200 N   0  0  0  0  0  0  0  0  0  0  0  0
  142.3320   73.7570  220.8380 C   0  0  0  0  0  0  0  0  0  0  0  0
  142.0870   75.1230  220.8590 C   0  0  0  0  0  0  0  0  0  0  0  0
  140.8700   75.6450  221.2740 C   0  0  0  0  0  0  0  0  0  0  0  0
  139.8860   74.7490  221.6750 C   0  0  0  0  0  0  0  0  0  0  0  0
  140.0780   73.3840  221.6740 C   0  0  0  0  0  0  0  0  0  0  0  0
  139.0730   72.4240  222.0870 C   0  0  0  0  0  0  0  0  0  0  0  0
  139.2960   71.1290  222.2470 C   0  0  0  0  0  0  0  0  0  0  0  0
  139.4750   70.5490  223.5920 C   0  0  0  0  0  0  0  0  0  0  0  0
  140.0250   71.4020  224.4970 N   0  0  0  0  0  0  0  0  0  0  0  0
  140.3020   71.0270  225.7560 C   0  0  0  0  0  0  0  0  0  0  0  0
  140.8540   71.8610  226.6890 C   0  0  0  0  0  0  0  0  0  0  0  0
  141.1340   71.4470  227.9930 C   0  0  0  0  0  0  0  0  0  0  0  0
  140.8300   70.1430  228.3310 C   0  0  0  0  0  0  0  0  0  0  0  0
  140.2790   69.3270  227.3830 C   0  0  0  0  0  0  0  0  0  0  0  0
  140.0040   69.7370  226.0960 C   0  0  0  0  0  0  0  0  0  0  0  0
  139.4430   68.8830  225.1600 C   0  0  0  0  0  0  0  0  0  0  0  0
  139.2130   67.7170  225.5710 O   0  0  0  0  0  0  0  0  0  0  0  0
  139.1640   69.2750  223.8840 N   0  0  0  0  0  0  0  0  0  0  0  0
  138.5800   68.4220  222.9010 C   0  0  0  0  0  0  0  0  0  0  0  0
  137.1500   68.6180  222.5490 C   0  0  0  0  0  0  0  0  0  0  0  0
  136.4270   67.4120  222.0100 C   0  0  0  0  0  0  0  0  0  0  0  0
  135.2880   67.9540  221.1140 C   0  0  0  0  0  0  0  0  0  0  0  0
  134.6670   69.1140  221.8000 C   0  0  0  0  0  0  0  0  0  0  0  0
  134.8320   69.1040  223.2840 C   0  0  0  0  0  0  0  0  0  0  0  0
  136.2900   69.1210  223.7010 C   0  0  0  0  0  0  0  0  0  0  0  0
  141.3180   72.9400  221.2470 C   0  0  0  0  0  0  0  0  0  0  0  0
  144.7230   74.1070  220.3580 C   0  0  0  0  0  0  0  0  0  0  0  0
  145.9460   73.3830  219.8490 C   0  0  0  0  0  0  0  0  0  0  0  0
  146.1682   74.3779  217.6666 H   0  0  0  0  0  0  0  0  0  0  0  0
  146.6930   72.8654  216.8521 H   0  0  0  0  0  0  0  0  0  0  0  0
  144.9578   73.3300  216.8521 H   0  0  0  0  0  0  0  0  0  0  0  0
  143.7759   72.3136  217.9545 H   0  0  0  0  0  0  0  0  0  0  0  0
  144.7135   70.8211  218.4335 H   0  0  0  0  0  0  0  0  0  0  0  0
  142.8282   71.3117  219.9729 H   0  0  0  0  0  0  0  0  0  0  0  0
  144.4135   71.3334  220.7821 H   0  0  0  0  0  0  0  0  0  0  0  0
  142.8813   75.8125  220.5370 H   0  0  0  0  0  0  0  0  0  0  0  0
  140.6903   76.7302  221.2852 H   0  0  0  0  0  0  0  0  0  0  0  0
  138.9148   75.1452  222.0065 H   0  0  0  0  0  0  0  0  0  0  0  0
  138.0564   72.7970  222.2805 H   0  0  0  0  0  0  0  0  0  0  0  0
  139.3487   70.4753  221.3639 H   0  0  0  0  0  0  0  0  0  0  0  0
  141.0862   72.8970  226.4013 H   0  0  0  0  0  0  0  0  0  0  0  0
  141.5810   72.1355  228.7252 H   0  0  0  0  0  0  0  0  0  0  0  0
  141.0279   69.7675  229.3458 H   0  0  0  0  0  0  0  0  0  0  0  0
  140.0428   68.2894  227.6615 H   0  0  0  0  0  0  0  0  0  0  0  0
  139.1618   68.5473  221.9759 H   0  0  0  0  0  0  0  0  0  0  0  0
  138.6086   67.4233  223.3612 H   0  0  0  0  0  0  0  0  0  0  0  0
  137.2528   69.3716  221.7543 H   0  0  0  0  0  0  0  0  0  0  0  0
  137.1138   66.7891  221.4181 H   0  0  0  0  0  0  0  0  0  0  0  0
  136.0324   66.7854  222.8234 H   0  0  0  0  0  0  0  0  0  0  0  0
  135.6972   68.2713  220.1435 H   0  0  0  0  0  0  0  0  0  0  0  0
  134.5365   67.1696  220.9406 H   0  0  0  0  0  0  0  0  0  0  0  0
  135.1256   70.0336  221.4075 H   0  0  0  0  0  0  0  0  0  0  0  0
  133.5866   69.0597  221.6004 H   0  0  0  0  0  0  0  0  0  0  0  0
  134.3343   69.9918  223.7013 H   0  0  0  0  0  0  0  0  0  0  0  0
  134.3834   68.1752  223.6663 H   0  0  0  0  0  0  0  0  0  0  0  0
  136.5862   70.1485  223.9591 H   0  0  0  0  0  0  0  0  0  0  0  0
  136.4300   68.4699  224.5765 H   0  0  0  0  0  0  0  0  0  0  0  0
  141.4982   71.8549  221.2367 H   0  0  0  0  0  0  0  0  0  0  0  0
  144.4978   74.9456  219.6827 H   0  0  0  0  0  0  0  0  0  0  0  0
  144.9354   74.4676  221.3753 H   0  0  0  0  0  0  0  0  0  0  0  0
  146.7222   74.1276  219.6184 H   0  0  0  0  0  0  0  0  0  0  0  0
  146.2638   72.6848  220.6373 H   0  0  0  0  0  0  0  0  0  0  0  0
  1  2  1  0
  2  3  1  0
  3  4  1  0
  4  5  1  0
  5  6  1  0
  6  7  2  0
  7  8  1  0
  8  9  2  0
  9 10  1  0
 10 11  1  0
 11 12  2  0
 12 13  1  0
 13 14  2  0
 14 15  1  0
 15 16  2  0
 16 17  1  0
 17 18  2  0
 18 19  1  0
 19 20  2  0
 20 21  1  0
 21 22  2  0
 21 23  1  0
 23 24  1  0
 24 25  1  0
 25 26  1  0
 26 27  1  0
 27 28  1  0
 28 29  1  0
 29 30  1  0
 10 31  2  0
  5 32  1  0
 32 33  1  0
 33  2  1  0
 31  6  1  0
 23 13  1  0
 30 25  1  0
 20 15  1  0
  1 34  1  0
  1 35  1  0
  1 36  1  0
  3 37  1  0
  3 38  1  0
  4 39  1  0
  4 40  1  0
  7 41  1  0
  8 42  1  0
  9 43  1  0
 11 44  1  0
 12 45  1  0
 16 46  1  0
 17 47  1  0
 18 48  1  0
 19 49  1  0
 24 50  1  0
 24 51  1  0
 25 52  1  0
 26 53  1  0
 26 54  1  0
 27 55  1  0
 27 56  1  0
 28 57  1  0
 28 58  1  0
 29 59  1  0
 29 60  1  0
 30 61  1  0
 30 62  1  0
 31 63  1  0
 32 64  1  0
 32 65  1  0
 33 66  1  0
 33 67  1  0
M  END
>  <smiles>  (1) 
CN1CCN(c2cccc(/C=C/c3nc4ccccc4c(=O)n3CC3CCCCC3)c2)CC1

>  <score_type>  (1) 
oracle

>  <origin>  (1) 
autodockgpu

>  <m_score__min__energy>  (1) 
-9.1300000000000008

>  <m_primary>  (1) 
energy

>  <rmsd>  (1) 
7.218298829508227

>  <m_score__min__rmsd>  (1) 
7.218298829508227

>  <meeko>  (1) 
{"free_energy": -8.96, "intermolecular_energy": -10.75, "internal_energy": -1.69, "cluster_size": 9, "cluster_id": 1, "rank_in_cluster": 5}

>  <energy>  (1) 
-9.13

>  <cluster_rmsd>  (1) 
0.0

>  <cluster>  (1) 
1

$$$$

     RDKit          3D

 67 71  0  0  0  0  0  0  0  0999 V2000
  145.6420   70.8580  218.9660 C   0  0  0  0  0  0  0  0  0  0  0  0
  145.8480   72.2850  219.0890 N   0  0  0  0  0  0  0  0  0  0  0  0
  145.7160   72.7520  220.4400 C   0  0  0  0  0  0  0  0  0  0  0  0
  145.0540   74.1100  220.5470 C   0  0  0  0  0  0  0  0  0  0  0  0
  143.7600   74.0070  219.9090 N   0  0  0  0  0  0  0  0  0  0  0  0
  142.5400   74.3900  220.4850 C   0  0  0  0  0  0  0  0  0  0  0  0
  142.1550   75.7190  220.5880 C   0  0  0  0  0  0  0  0  0  0  0  0
  140.9460   76.0920  221.1600 C   0  0  0  0  0  0  0  0  0  0  0  0
  140.1170   75.0830  221.6350 C   0  0  0  0  0  0  0  0  0  0  0  0
  140.4530   73.7480  221.5580 C   0  0  0  0  0  0  0  0  0  0  0  0
  139.6110   72.6720  222.0450 C   0  0  0  0  0  0  0  0  0  0  0  0
  140.0100   71.4180  222.1900 C   0  0  0  0  0  0  0  0  0  0  0  0
  139.9660   70.7550  223.5070 C   0  0  0  0  0  0  0  0  0  0  0  0
  140.4620   71.5080  224.5260 N   0  0  0  0  0  0  0  0  0  0  0  0
  140.5430   71.0460  225.7840 C   0  0  0  0  0  0  0  0  0  0  0  0
  141.0340   71.7780  226.8290 C   0  0  0  0  0  0  0  0  0  0  0  0
  141.1100   71.2740  228.1290 C   0  0  0  0  0  0  0  0  0  0  0  0
  140.6630   69.9850  228.3430 C   0  0  0  0  0  0  0  0  0  0  0  0
  140.1750   69.2710  227.2840 C   0  0  0  0  0  0  0  0  0  0  0  0
  140.1020   69.7710  226.0020 C   0  0  0  0  0  0  0  0  0  0  0  0
  139.6000   69.0190  224.9520 C   0  0  0  0  0  0  0  0  0  0  0  0
  139.2270   67.8570  225.2570 O   0  0  0  0  0  0  0  0  0  0  0  0
  139.5200   69.4990  223.6780 N   0  0  0  0  0  0  0  0  0  0  0  0
  139.0020   68.7530  222.5790 C   0  0  0  0  0  0  0  0  0  0  0  0
  137.5300   68.7130  222.3770 C   0  0  0  0  0  0  0  0  0  0  0  0
  136.9460   67.3760  222.0050 C   0  0  0  0  0  0  0  0  0  0  0  0
  135.6540   67.6740  221.2090 C   0  0  0  0  0  0  0  0  0  0  0  0
  134.9380   68.7870  221.8810 C   0  0  0  0  0  0  0  0  0  0  0  0
  135.2520   68.9240  223.3330 C   0  0  0  0  0  0  0  0  0  0  0  0
  136.7260   69.1830  223.5820 C   0  0  0  0  0  0  0  0  0  0  0  0
  141.6730   73.4560  220.9750 C   0  0  0  0  0  0  0  0  0  0  0  0
  143.7540   73.4570  218.5550 C   0  0  0  0  0  0  0  0  0  0  0  0
  145.1390   73.0590  218.1100 C   0  0  0  0  0  0  0  0  0  0  0  0
  145.5772   70.4092  219.9682 H   0  0  0  0  0  0  0  0  0  0  0  0
  144.7072   70.6684  218.4182 H   0  0  0  0  0  0  0  0  0  0  0  0
  146.4850   70.4117  218.4182 H   0  0  0  0  0  0  0  0  0  0  0  0
  145.1120   72.0248  221.0025 H   0  0  0  0  0  0  0  0  0  0  0  0
  146.7324   72.8540  220.8482 H   0  0  0  0  0  0  0  0  0  0  0  0
  144.9317   74.3873  221.6044 H   0  0  0  0  0  0  0  0  0  0  0  0
  145.6681   74.8828  220.0616 H   0  0  0  0  0  0  0  0  0  0  0  0
  142.8277   76.5006  220.2050 H   0  0  0  0  0  0  0  0  0  0  0  0
  140.6544   77.1500  221.2346 H   0  0  0  0  0  0  0  0  0  0  0  0
  139.1548   75.3603  222.0904 H   0  0  0  0  0  0  0  0  0  0  0  0
  138.5716   72.9141  222.3116 H   0  0  0  0  0  0  0  0  0  0  0  0
  140.3797   70.8624  221.3156 H   0  0  0  0  0  0  0  0  0  0  0  0
  141.3827   72.8037  226.6384 H   0  0  0  0  0  0  0  0  0  0  0  0
  141.5115   71.8819  228.9531 H   0  0  0  0  0  0  0  0  0  0  0  0
  140.6989   69.5402  229.3484 H   0  0  0  0  0  0  0  0  0  0  0  0
  139.8226   68.2448  227.4646 H   0  0  0  0  0  0  0  0  0  0  0  0
  139.4435   69.1747  221.6640 H   0  0  0  0  0  0  0  0  0  0  0  0
  139.2691   67.7117  222.8120 H   0  0  0  0  0  0  0  0  0  0  0  0
  137.4367   69.4041  221.5263 H   0  0  0  0  0  0  0  0  0  0  0  0
  137.6550   66.8104  221.3827 H   0  0  0  0  0  0  0  0  0  0  0  0
  136.7349   66.7691  222.8979 H   0  0  0  0  0  0  0  0  0  0  0  0
  135.9103   67.9646  220.1795 H   0  0  0  0  0  0  0  0  0  0  0  0
  135.0155   66.7790  221.1746 H   0  0  0  0  0  0  0  0  0  0  0  0
  135.2107   69.7267  221.3784 H   0  0  0  0  0  0  0  0  0  0  0  0
  133.8635   68.5629  221.8084 H   0  0  0  0  0  0  0  0  0  0  0  0
  134.6713   69.7636  223.7427 H   0  0  0  0  0  0  0  0  0  0  0  0
  134.9895   67.9757  223.8247 H   0  0  0  0  0  0  0  0  0  0  0  0
  136.8891   70.2600  223.7352 H   0  0  0  0  0  0  0  0  0  0  0  0
  137.0504   68.6341  224.4784 H   0  0  0  0  0  0  0  0  0  0  0  0
  141.9649   72.3980  220.9011 H   0  0  0  0  0  0  0  0  0  0  0  0
  143.1036   72.5701  218.5331 H   0  0  0  0  0  0  0  0  0  0  0  0
  143.3832   74.2339  217.8702 H   0  0  0  0  0  0  0  0  0  0  0  0
  145.0525   72.4632  217.1894 H   0  0  0  0  0  0  0  0  0  0  0  0
  145.7097   73.9858  217.9510 H   0  0  0  0  0  0  0  0  0  0  0  0
  1  2  1  0
  2  3  1  0
  3  4  1  0
  4  5  1  0
  5  6  1  0
  6  7  2  0
  7  8  1  0
  8  9  2  0
  9 10  1  0
 10 11  1  0
 11 12  2  0
 12 13  1  0
 13 14  2  0
 14 15  1  0
 15 16  2  0
 16 17  1  0
 17 18  2  0
 18 19  1  0
 19 20  2  0
 20 21  1  0
 21 22  2  0
 21 23  1  0
 23 24  1  0
 24 25  1  0
 25 26  1  0
 26 27  1  0
 27 28  1  0
 28 29  1  0
 29 30  1  0
 10 31  2  0
  5 32  1  0
 32 33  1  0
 33  2  1  0
 31  6  1  0
 23 13  1  0
 30 25  1  0
 20 15  1  0
  1 34  1  0
  1 35  1  0
  1 36  1  0
  3 37  1  0
  3 38  1  0
  4 39  1  0
  4 40  1  0
  7 41  1  0
  8 42  1  0
  9 43  1  0
 11 44  1  0
 12 45  1  0
 16 46  1  0
 17 47  1  0
 18 48  1  0
 19 49  1  0
 24 50  1  0
 24 51  1  0
 25 52  1  0
 26 53  1  0
 26 54  1  0
 27 55  1  0
 27 56  1  0
 28 57  1  0
 28 58  1  0
 29 59  1  0
 29 60  1  0
 30 61  1  0
 30 62  1  0
 31 63  1  0
 32 64  1  0
 32 65  1  0
 33 66  1  0
 33 67  1  0
M  END
>  <smiles>  (2) 
CN1CCN(c2cccc(/C=C/c3nc4ccccc4c(=O)n3CC3CCCCC3)c2)CC1

>  <score_type>  (2) 
oracle

>  <origin>  (2) 
autodockgpu

>  <m_score__min__energy>  (2) 
-9.1300000000000008

>  <m_primary>  (2) 
energy

>  <rmsd>  (2) 
6.933675488830707

>  <m_score__min__rmsd>  (2) 
6.933675488830707

>  <meeko>  (2) 
{"free_energy": -9.08, "intermolecular_energy": -10.87, "internal_energy": -1.58, "cluster_size": 9, "cluster_id": 1, "rank_in_cluster": 2}

>  <energy>  (2) 
-9.08

>  <cluster_rmsd>  (2) 
0.23

>  <cluster>  (2) 
1

$$$$

     RDKit          3D

 67 71  0  0  0  0  0  0  0  0999 V2000
  143.0180   80.1560  222.9710 C   0  0  0  0  0  0  0  0  0  0  0  0
  141.6830   79.7200  222.6250 N   0  0  0  0  0  0  0  0  0  0  0  0
  141.2450   78.5980  223.4070 C   0  0  0  0  0  0  0  0  0  0  0  0
  140.4130   77.6050  222.6220 C   0  0  0  0  0  0  0  0  0  0  0  0
  141.2150   77.1690  221.4990 N   0  0  0  0  0  0  0  0  0  0  0  0
  141.4670   75.8330  221.1530 C   0  0  0  0  0  0  0  0  0  0  0  0
  142.5610   75.4610  220.3860 C   0  0  0  0  0  0  0  0  0  0  0  0
  142.8040   74.1370  220.0460 C   0  0  0  0  0  0  0  0  0  0  0  0
  141.9080   73.1780  220.5020 C   0  0  0  0  0  0  0  0  0  0  0  0
  140.8060   73.4940  221.2670 C   0  0  0  0  0  0  0  0  0  0  0  0
  139.8530   72.5170  221.7570 C   0  0  0  0  0  0  0  0  0  0  0  0
  140.1530   71.2620  222.0500 C   0  0  0  0  0  0  0  0  0  0  0  0
  139.9930   70.7430  223.4220 C   0  0  0  0  0  0  0  0  0  0  0  0
  140.5650   71.5210  224.3810 N   0  0  0  0  0  0  0  0  0  0  0  0
  140.5570   71.1770  225.6790 C   0  0  0  0  0  0  0  0  0  0  0  0
  141.1220   71.9370  226.6660 C   0  0  0  0  0  0  0  0  0  0  0  0
  141.1020   71.5580  228.0090 C   0  0  0  0  0  0  0  0  0  0  0  0
  140.4810   70.3660  228.3300 C   0  0  0  0  0  0  0  0  0  0  0  0
  139.9230   69.6230  227.3280 C   0  0  0  0  0  0  0  0  0  0  0  0
  139.9440   69.9990  226.0020 C   0  0  0  0  0  0  0  0  0  0  0  0
  139.3670   69.2210  225.0110 C   0  0  0  0  0  0  0  0  0  0  0  0
  138.8340   68.1540  225.4130 O   0  0  0  0  0  0  0  0  0  0  0  0
  139.3780   69.5800  223.6960 N   0  0  0  0  0  0  0  0  0  0  0  0
  138.7870   68.8040  222.6560 C   0  0  0  0  0  0  0  0  0  0  0  0
  137.3110   68.8450  222.4900 C   0  0  0  0  0  0  0  0  0  0  0  0
  136.5440   69.6020  223.5430 C   0  0  0  0  0  0  0  0  0  0  0  0
  135.1330   68.9720  223.5880 C   0  0  0  0  0  0  0  0  0  0  0  0
  134.6900   68.7190  222.1950 C   0  0  0  0  0  0  0  0  0  0  0  0
  135.3440   69.5950  221.1790 C   0  0  0  0  0  0  0  0  0  0  0  0
  136.8520   69.4290  221.1600 C   0  0  0  0  0  0  0  0  0  0  0  0
  140.6310   74.8340  221.5640 C   0  0  0  0  0  0  0  0  0  0  0  0
  141.7950   78.2270  220.6760 C   0  0  0  0  0  0  0  0  0  0  0  0
  141.4610   79.5970  221.2130 C   0  0  0  0  0  0  0  0  0  0  0  0
  143.1206   80.1895  224.0657 H   0  0  0  0  0  0  0  0  0  0  0  0
  143.7532   79.4513  222.5552 H   0  0  0  0  0  0  0  0  0  0  0  0
  143.1955   81.1588  222.5552 H   0  0  0  0  0  0  0  0  0  0  0  0
  142.1320   78.0778  223.7975 H   0  0  0  0  0  0  0  0  0  0  0  0
  140.6063   78.9924  224.2111 H   0  0  0  0  0  0  0  0  0  0  0  0
  140.1542   76.7449  223.2569 H   0  0  0  0  0  0  0  0  0  0  0  0
  139.4760   78.0666  222.2772 H   0  0  0  0  0  0  0  0  0  0  0  0
  143.2568   76.2380  220.0367 H   0  0  0  0  0  0  0  0  0  0  0  0
  143.6759   73.8569  219.4366 H   0  0  0  0  0  0  0  0  0  0  0  0
  142.0853   72.1240  220.2419 H   0  0  0  0  0  0  0  0  0  0  0  0
  138.8108   72.8409  221.8943 H   0  0  0  0  0  0  0  0  0  0  0  0
  140.5273   70.5956  221.2589 H   0  0  0  0  0  0  0  0  0  0  0  0
  141.6108   72.8832  226.3906 H   0  0  0  0  0  0  0  0  0  0  0  0
  141.5643   72.1861  228.7848 H   0  0  0  0  0  0  0  0  0  0  0  0
  140.4366   70.0213  229.3737 H   0  0  0  0  0  0  0  0  0  0  0  0
  139.4314   68.6754  227.5934 H   0  0  0  0  0  0  0  0  0  0  0  0
  139.2296   69.1421  221.7074 H   0  0  0  0  0  0  0  0  0  0  0  0
  138.9958   67.7635  222.9455 H   0  0  0  0  0  0  0  0  0  0  0  0
  137.0822   67.7719  222.5681 H   0  0  0  0  0  0  0  0  0  0  0  0
  137.0378   69.5007  224.5207 H   0  0  0  0  0  0  0  0  0  0  0  0
  136.4955   70.6756  223.3083 H   0  0  0  0  0  0  0  0  0  0  0  0
  135.1666   68.0242  224.1453 H   0  0  0  0  0  0  0  0  0  0  0  0
  134.4304   69.6527  224.0909 H   0  0  0  0  0  0  0  0  0  0  0  0
  134.9164   67.6719  221.9453 H   0  0  0  0  0  0  0  0  0  0  0  0
  133.6132   68.9411  222.1593 H   0  0  0  0  0  0  0  0  0  0  0  0
  134.9476   69.3405  220.1850 H   0  0  0  0  0  0  0  0  0  0  0  0
  135.1240   70.6397  221.4441 H   0  0  0  0  0  0  0  0  0  0  0  0
  137.1367   68.7500  220.3427 H   0  0  0  0  0  0  0  0  0  0  0  0
  137.3285   70.4080  221.0033 H   0  0  0  0  0  0  0  0  0  0  0  0
  139.7587   75.1140  222.1729 H   0  0  0  0  0  0  0  0  0  0  0  0
  142.8883   78.1072  220.6596 H   0  0  0  0  0  0  0  0  0  0  0  0
  141.3745   78.1434  219.6630 H   0  0  0  0  0  0  0  0  0  0  0  0
  142.0874   80.3379  220.6947 H   0  0  0  0  0  0  0  0  0  0  0  0
  140.3887   79.7655  221.0347 H   0  0  0  0  0  0  0  0  0  0  0  0
  1  2  1  0
  2  3  1  0
  3  4  1  0
  4  5  1  0
  5  6  1  0
  6  7  2  0
  7  8  1  0
  8  9  2  0
  9 10  1  0
 10 11  1  0
 11 12  2  0
 12 13  1  0
 13 14  2  0
 14 15  1  0
 15 16  2  0
 16 17  1  0
 17 18  2  0
 18 19  1  0
 19 20  2  0
 20 21  1  0
 21 22  2  0
 21 23  1  0
 23 24  1  0
 24 25  1  0
 25 26  1  0
 26 27  1  0
 27 28  1  0
 28 29  1  0
 29 30  1  0
 10 31  2  0
  5 32  1  0
 32 33  1  0
 33  2  1  0
 31  6  1  0
 23 13  1  0
 30 25  1  0
 20 15  1  0
  1 34  1  0
  1 35  1  0
  1 36  1  0
  3 37  1  0
  3 38  1  0
  4 39  1  0
  4 40  1  0
  7 41  1  0
  8 42  1  0
  9 43  1  0
 11 44  1  0
 12 45  1  0
 16 46  1  0
 17 47  1  0
 18 48  1  0
 19 49  1  0
 24 50  1  0
 24 51  1  0
 25 52  1  0
 26 53  1  0
 26 54  1  0
 27 55  1  0
 27 56  1  0
 28 57  1  0
 28 58  1  0
 29 59  1  0
 29 60  1  0
 30 61  1  0
 30 62  1  0
 31 63  1  0
 32 64  1  0
 32 65  1  0
 33 66  1  0
 33 67  1  0
M  END
>  <smiles>  (3) 
CN1CCN(c2cccc(/C=C/c3nc4ccccc4c(=O)n3CC3CCCCC3)c2)CC1

>  <score_type>  (3) 
oracle

>  <origin>  (3) 
autodockgpu

>  <m_score__min__energy>  (3) 
-9.1300000000000008

>  <m_primary>  (3) 
energy

>  <rmsd>  (3) 
6.99966604069508

>  <m_score__min__rmsd>  (3) 
6.99966604069508

>  <meeko>  (3) 
{"free_energy": -8.74, "intermolecular_energy": -10.53, "internal_energy": -1.62, "cluster_size": 21, "cluster_id": 2, "rank_in_cluster": 9}

>  <energy>  (3) 
-8.98

>  <cluster_rmsd>  (3) 
0.43

>  <cluster>  (3) 
1

$$$$

     RDKit          3D

 67 71  0  0  0  0  0  0  0  0999 V2000
  139.2910   69.6460  228.7120 C   0  0  0  0  0  0  0  0  0  0  0  0
  140.4790   69.8330  227.9060 N   0  0  0  0  0  0  0  0  0  0  0  0
  140.6780   71.2010  227.5200 C   0  0  0  0  0  0  0  0  0  0  0  0
  141.2310   71.3570  226.1180 C   0  0  0  0  0  0  0  0  0  0  0  0
  140.3100   70.6980  225.2190 N   0  0  0  0  0  0  0  0  0  0  0  0
  139.7470   71.2730  224.0700 C   0  0  0  0  0  0  0  0  0  0  0  0
  138.5240   70.8630  223.5600 C   0  0  0  0  0  0  0  0  0  0  0  0
  137.9720   71.4360  222.4220 C   0  0  0  0  0  0  0  0  0  0  0  0
  138.6900   72.4470  221.7950 C   0  0  0  0  0  0  0  0  0  0  0  0
  139.9100   72.8910  222.2600 C   0  0  0  0  0  0  0  0  0  0  0  0
  140.6830   73.9440  221.6290 C   0  0  0  0  0  0  0  0  0  0  0  0
  140.1580   74.9630  220.9690 C   0  0  0  0  0  0  0  0  0  0  0  0
  139.9190   76.2580  221.6350 C   0  0  0  0  0  0  0  0  0  0  0  0
  141.0440   76.9910  221.8480 N   0  0  0  0  0  0  0  0  0  0  0  0
  141.0180   78.1730  222.4840 C   0  0  0  0  0  0  0  0  0  0  0  0
  142.1320   78.9330  222.7130 C   0  0  0  0  0  0  0  0  0  0  0  0
  142.0790   80.1600  223.3780 C   0  0  0  0  0  0  0  0  0  0  0  0
  140.8440   80.6020  223.8100 C   0  0  0  0  0  0  0  0  0  0  0  0
  139.7450   79.8260  223.5700 C   0  0  0  0  0  0  0  0  0  0  0  0
  139.7990   78.6160  222.9140 C   0  0  0  0  0  0  0  0  0  0  0  0
  138.6630   77.8550  222.6870 C   0  0  0  0  0  0  0  0  0  0  0  0
  137.5930   78.3490  223.1270 O   0  0  0  0  0  0  0  0  0  0  0  0
  138.7000   76.6570  222.0380 N   0  0  0  0  0  0  0  0  0  0  0  0
  137.5480   75.8550  221.7840 C   0  0  0  0  0  0  0  0  0  0  0  0
  136.5990   75.6000  222.8980 C   0  0  0  0  0  0  0  0  0  0  0  0
  135.3360   76.4210  222.8960 C   0  0  0  0  0  0  0  0  0  0  0  0
  134.8810   76.5190  224.3710 C   0  0  0  0  0  0  0  0  0  0  0  0
  135.0610   75.1890  225.0050 C   0  0  0  0  0  0  0  0  0  0  0  0
  135.0390   74.0480  224.0420 C   0  0  0  0  0  0  0  0  0  0  0  0
  136.1380   74.1520  223.0010 C   0  0  0  0  0  0  0  0  0  0  0  0
  140.3930   72.2720  223.4000 C   0  0  0  0  0  0  0  0  0  0  0  0
  139.9550   69.3220  225.5590 C   0  0  0  0  0  0  0  0  0  0  0  0
  140.6120   68.8780  226.8430 C   0  0  0  0  0  0  0  0  0  0  0  0
  139.5605   69.6884  229.7776 H   0  0  0  0  0  0  0  0  0  0  0  0
  138.5653   70.4410  228.4854 H   0  0  0  0  0  0  0  0  0  0  0  0
  138.8446   68.6665  228.4854 H   0  0  0  0  0  0  0  0  0  0  0  0
  139.7109   71.7224  227.5732 H   0  0  0  0  0  0  0  0  0  0  0  0
  141.4197   71.6284  228.2108 H   0  0  0  0  0  0  0  0  0  0  0  0
  141.3105   72.4236  225.8608 H   0  0  0  0  0  0  0  0  0  0  0  0
  142.2348   70.9134  226.0427 H   0  0  0  0  0  0  0  0  0  0  0  0
  137.9747   70.0595  224.0726 H   0  0  0  0  0  0  0  0  0  0  0  0
  137.0001   71.1012  222.0304 H   0  0  0  0  0  0  0  0  0  0  0  0
  138.2684   72.9118  220.8916 H   0  0  0  0  0  0  0  0  0  0  0  0
  141.7792   73.8915  221.7045 H   0  0  0  0  0  0  0  0  0  0  0  0
  139.8956   74.8433  219.9075 H   0  0  0  0  0  0  0  0  0  0  0  0
  143.1063   78.5639  222.3601 H   0  0  0  0  0  0  0  0  0  0  0  0
  142.9888   80.7534  223.5516 H   0  0  0  0  0  0  0  0  0  0  0  0
  140.7466   81.5620  224.3381 H   0  0  0  0  0  0  0  0  0  0  0  0
  138.7661   80.1865  223.9190 H   0  0  0  0  0  0  0  0  0  0  0  0
  136.9804   76.3480  220.9810 H   0  0  0  0  0  0  0  0  0  0  0  0
  137.9591   74.8620  221.5496 H   0  0  0  0  0  0  0  0  0  0  0  0
  137.2268   75.8925  223.7526 H   0  0  0  0  0  0  0  0  0  0  0  0
  135.5343   77.4243  222.4909 H   0  0  0  0  0  0  0  0  0  0  0  0
  134.5599   75.9599  222.2675 H   0  0  0  0  0  0  0  0  0  0  0  0
  135.4898   77.2678  224.8988 H   0  0  0  0  0  0  0  0  0  0  0  0
  133.8250   76.8227  224.4219 H   0  0  0  0  0  0  0  0  0  0  0  0
  136.0296   75.1828  225.5263 H   0  0  0  0  0  0  0  0  0  0  0  0
  134.2109   75.0449  225.6880 H   0  0  0  0  0  0  0  0  0  0  0  0
  135.1695   73.1101  224.6017 H   0  0  0  0  0  0  0  0  0  0  0  0
  134.0734   74.0705  223.5155 H   0  0  0  0  0  0  0  0  0  0  0  0
  136.9858   73.5167  223.2971 H   0  0  0  0  0  0  0  0  0  0  0  0
  135.7545   73.8173  222.0259 H   0  0  0  0  0  0  0  0  0  0  0  0
  141.3639   72.6080  223.7931 H   0  0  0  0  0  0  0  0  0  0  0  0
  138.8633   69.2535  225.6748 H   0  0  0  0  0  0  0  0  0  0  0  0
  140.3069   68.6665  224.7488 H   0  0  0  0  0  0  0  0  0  0  0  0
  140.1504   67.9322  227.1630 H   0  0  0  0  0  0  0  0  0  0  0  0
  141.6868   68.7648  226.6380 H   0  0  0  0  0  0  0  0  0  0  0  0
  1  2  1  0
  2  3  1  0
  3  4  1  0
  4  5  1  0
  5  6  1  0
  6  7  2  0
  7  8  1  0
  8  9  2  0
  9 10  1  0
 10 11  1  0
 11 12  2  0
 12 13  1  0
 13 14  2  0
 14 15  1  0
 15 16  2  0
 16 17  1  0
 17 18  2  0
 18 19  1  0
 19 20  2  0
 20 21  1  0
 21 22  2  0
 21 23  1  0
 23 24  1  0
 24 25  1  0
 25 26  1  0
 26 27  1  0
 27 28  1  0
 28 29  1  0
 29 30  1  0
 10 31  2  0
  5 32  1  0
 32 33  1  0
 33  2  1  0
 31  6  1  0
 23 13  1  0
 30 25  1  0
 20 15  1  0
  1 34  1  0
  1 35  1  0
  1 36  1  0
  3 37  1  0
  3 38  1  0
  4 39  1  0
  4 40  1  0
  7 41  1  0
  8 42  1  0
  9 43  1  0
 11 44  1  0
 12 45  1  0
 16 46  1  0
 17 47  1  0
 18 48  1  0
 19 49  1  0
 24 50  1  0
 24 51  1  0
 25 52  1  0
 26 53  1  0
 26 54  1  0
 27 55  1  0
 27 56  1  0
 28 57  1  0
 28 58  1  0
 29 59  1  0
 29 60  1  0
 30 61  1  0
 30 62  1  0
 31 63  1  0
 32 64  1  0
 32 65  1  0
 33 66  1  0
 33 67  1  0
M  END
>  <smiles>  (4) 
CN1CCN(c2cccc(/C=C/c3nc4ccccc4c(=O)n3CC3CCCCC3)c2)CC1

>  <score_type>  (4) 
oracle

>  <origin>  (4) 
autodockgpu

>  <m_score__min__energy>  (4) 
-9.1300000000000008

>  <m_primary>  (4) 
energy

>  <rmsd>  (4) 
9.38079249206507

>  <m_score__min__rmsd>  (4) 
9.38079249206507

>  <meeko>  (4) 
{"free_energy": -8.6, "intermolecular_energy": -10.39, "internal_energy": -2.04, "cluster_size": 1, "cluster_id": 6, "rank_in_cluster": 1}

>  <energy>  (4) 
-8.97

>  <cluster_rmsd>  (4) 
0.83

>  <cluster>  (4) 
1

$$$$

     RDKit          3D

 67 71  0  0  0  0  0  0  0  0999 V2000
  130.8650   71.7530  226.3830 C   0  0  0  0  0  0  0  0  0  0  0  0
  131.8740   72.5520  227.0450 N   0  0  0  0  0  0  0  0  0  0  0  0
  132.0150   73.8590  226.4660 C   0  0  0  0  0  0  0  0  0  0  0  0
  133.4470   74.3510  226.4310 C   0  0  0  0  0  0  0  0  0  0  0  0
  134.2170   73.3750  225.6920 N   0  0  0  0  0  0  0  0  0  0  0  0
  135.0630   73.6600  224.6100 C   0  0  0  0  0  0  0  0  0  0  0  0
  135.2320   74.9480  224.1220 C   0  0  0  0  0  0  0  0  0  0  0  0
  136.0690   75.2240  223.0500 C   0  0  0  0  0  0  0  0  0  0  0  0
  136.7460   74.1590  222.4680 C   0  0  0  0  0  0  0  0  0  0  0  0
  136.6120   72.8610  222.9130 C   0  0  0  0  0  0  0  0  0  0  0  0
  137.3030   71.7280  222.3270 C   0  0  0  0  0  0  0  0  0  0  0  0
  138.5560   71.3980  222.5940 C   0  0  0  0  0  0  0  0  0  0  0  0
  138.9140   70.7400  223.8660 C   0  0  0  0  0  0  0  0  0  0  0  0
  139.6380   71.5210  224.7110 N   0  0  0  0  0  0  0  0  0  0  0  0
  140.0890   71.0700  225.8920 C   0  0  0  0  0  0  0  0  0  0  0  0
  140.8190   71.8300  226.7640 C   0  0  0  0  0  0  0  0  0  0  0  0
  141.2780   71.3370  227.9870 C   0  0  0  0  0  0  0  0  0  0  0  0
  140.9700   70.0290  228.3070 C   0  0  0  0  0  0  0  0  0  0  0  0
  140.2400   69.2880  227.4210 C   0  0  0  0  0  0  0  0  0  0  0  0
  139.7880   69.7760  226.2150 C   0  0  0  0  0  0  0  0  0  0  0  0
  139.0480   68.9960  225.3400 C   0  0  0  0  0  0  0  0  0  0  0  0
  138.8300   67.8190  225.7280 O   0  0  0  0  0  0  0  0  0  0  0  0
  138.5930   69.4650  224.1440 N   0  0  0  0  0  0  0  0  0  0  0  0
  137.8230   68.6890  223.2270 C   0  0  0  0  0  0  0  0  0  0  0  0
  136.3570   68.9170  223.1590 C   0  0  0  0  0  0  0  0  0  0  0  0
  135.5420   67.8170  222.5310 C   0  0  0  0  0  0  0  0  0  0  0  0
  134.2750   68.4920  221.9540 C   0  0  0  0  0  0  0  0  0  0  0  0
  133.7890   69.4900  222.9380 C   0  0  0  0  0  0  0  0  0  0  0  0
  134.1980   69.2070  224.3460 C   0  0  0  0  0  0  0  0  0  0  0  0
  135.7060   69.1780  224.5110 C   0  0  0  0  0  0  0  0  0  0  0  0
  135.7600   72.6660  223.9860 C   0  0  0  0  0  0  0  0  0  0  0  0
  134.0850   71.9870  226.1310 C   0  0  0  0  0  0  0  0  0  0  0  0
  133.1070   71.8550  227.2730 C   0  0  0  0  0  0  0  0  0  0  0  0
  130.2375   71.2561  227.1375 H   0  0  0  0  0  0  0  0  0  0  0  0
  130.2378   72.4019  225.7542 H   0  0  0  0  0  0  0  0  0  0  0  0
  131.3529   70.9937  225.7542 H   0  0  0  0  0  0  0  0  0  0  0  0
  131.6323   73.8267  225.4352 H   0  0  0  0  0  0  0  0  0  0  0  0
  131.4476   74.5571  227.0990 H   0  0  0  0  0  0  0  0  0  0  0  0
  133.4973   75.3287  225.9295 H   0  0  0  0  0  0  0  0  0  0  0  0
  133.8436   74.4707  227.4500 H   0  0  0  0  0  0  0  0  0  0  0  0
  134.6861   75.7752  224.5992 H   0  0  0  0  0  0  0  0  0  0  0  0
  136.1923   76.2503  222.6740 H   0  0  0  0  0  0  0  0  0  0  0  0
  137.4154   74.3596  221.6185 H   0  0  0  0  0  0  0  0  0  0  0  0
  136.7481   71.1015  221.6131 H   0  0  0  0  0  0  0  0  0  0  0  0
  139.3428   71.6172  221.8572 H   0  0  0  0  0  0  0  0  0  0  0  0
  141.0535   72.8695  226.4913 H   0  0  0  0  0  0  0  0  0  0  0  0
  141.8641   71.9678  228.6715 H   0  0  0  0  0  0  0  0  0  0  0  0
  141.3066   69.5916  229.2585 H   0  0  0  0  0  0  0  0  0  0  0  0
  140.0008   68.2472  227.6847 H   0  0  0  0  0  0  0  0  0  0  0  0
  138.2277   68.8789  222.2219 H   0  0  0  0  0  0  0  0  0  0  0  0
  137.9172   67.6592  223.6020 H   0  0  0  0  0  0  0  0  0  0  0  0
  136.3338   69.8074  222.5135 H   0  0  0  0  0  0  0  0  0  0  0  0
  136.1140   67.3302  221.7273 H   0  0  0  0  0  0  0  0  0  0  0  0
  135.2825   67.0413  223.2665 H   0  0  0  0  0  0  0  0  0  0  0  0
  134.5197   68.9933  221.0059 H   0  0  0  0  0  0  0  0  0  0  0  0
  133.4972   67.7377  221.7640 H   0  0  0  0  0  0  0  0  0  0  0  0
  134.1857   70.4761  222.6546 H   0  0  0  0  0  0  0  0  0  0  0  0
  132.6900   69.4510  222.9130 H   0  0  0  0  0  0  0  0  0  0  0  0
  133.7854   69.9903  224.9988 H   0  0  0  0  0  0  0  0  0  0  0  0
  133.8099   68.2140  224.6168 H   0  0  0  0  0  0  0  0  0  0  0  0
  136.0510   70.1458  224.9039 H   0  0  0  0  0  0  0  0  0  0  0  0
  135.9838   68.3784  225.2135 H   0  0  0  0  0  0  0  0  0  0  0  0
  135.6360   71.6396  224.3617 H   0  0  0  0  0  0  0  0  0  0  0  0
  133.7314   71.3777  225.2862 H   0  0  0  0  0  0  0  0  0  0  0  0
  135.0694   71.6419  226.4800 H   0  0  0  0  0  0  0  0  0  0  0  0
  132.8834   70.7881  227.4201 H   0  0  0  0  0  0  0  0  0  0  0  0
  133.5775   72.3049  228.1597 H   0  0  0  0  0  0  0  0  0  0  0  0
  1  2  1  0
  2  3  1  0
  3  4  1  0
  4  5  1  0
  5  6  1  0
  6  7  2  0
  7  8  1  0
  8  9  2  0
  9 10  1  0
 10 11  1  0
 11 12  2  0
 12 13  1  0
 13 14  2  0
 14 15  1  0
 15 16  2  0
 16 17  1  0
 17 18  2  0
 18 19  1  0
 19 20  2  0
 20 21  1  0
 21 22  2  0
 21 23  1  0
 23 24  1  0
 24 25  1  0
 25 26  1  0
 26 27  1  0
 27 28  1  0
 28 29  1  0
 29 30  1  0
 10 31  2  0
  5 32  1  0
 32 33  1  0
 33  2  1  0
 31  6  1  0
 23 13  1  0
 30 25  1  0
 20 15  1  0
  1 34  1  0
  1 35  1  0
  1 36  1  0
  3 37  1  0
  3 38  1  0
  4 39  1  0
  4 40  1  0
  7 41  1  0
  8 42  1  0
  9 43  1  0
 11 44  1  0
 12 45  1  0
 16 46  1  0
 17 47  1  0
 18 48  1  0
 19 49  1  0
 24 50  1  0
 24 51  1  0
 25 52  1  0
 26 53  1  0
 26 54  1  0
 27 55  1  0
 27 56  1  0
 28 57  1  0
 28 58  1  0
 29 59  1  0
 29 60  1  0
 30 61  1  0
 30 62  1  0
 31 63  1  0
 32 64  1  0
 32 65  1  0
 33 66  1  0
 33 67  1  0
M  END
>  <smiles>  (5) 
CN1CCN(c2cccc(/C=C/c3nc4ccccc4c(=O)n3CC3CCCCC3)c2)CC1

>  <score_type>  (5) 
oracle

>  <origin>  (5) 
autodockgpu

>  <m_score__min__energy>  (5) 
-9.1300000000000008

>  <m_primary>  (5) 
energy

>  <rmsd>  (5) 
9.929224453317724

>  <m_score__min__rmsd>  (5) 
9.929224453317724

>  <meeko>  (5) 
{"free_energy": -7.56, "intermolecular_energy": -9.35, "internal_energy": -2.55, "cluster_size": 6, "cluster_id": 8, "rank_in_cluster": 2}

>  <energy>  (5) 
-8.96

>  <cluster_rmsd>  (5) 
0.81

>  <cluster>  (5) 
1

$$$$

     RDKit          3D

 67 71  0  0  0  0  0  0  0  0999 V2000
  142.9710   80.5210  223.6320 C   0  0  0  0  0  0  0  0  0  0  0  0
  141.6430   80.2020  223.1540 N   0  0  0  0  0  0  0  0  0  0  0  0
  141.0990   79.0240  223.7690 C   0  0  0  0  0  0  0  0  0  0  0  0
  140.2780   78.1740  222.8220 C   0  0  0  0  0  0  0  0  0  0  0  0
  141.1320   77.8260  221.7080 N   0  0  0  0  0  0  0  0  0  0  0  0
  141.3430   76.5270  221.2240 C   0  0  0  0  0  0  0  0  0  0  0  0
  142.2030   76.2610  220.1680 C   0  0  0  0  0  0  0  0  0  0  0  0
  142.4070   74.9730  219.6920 C   0  0  0  0  0  0  0  0  0  0  0  0
  141.7160   73.9380  220.3110 C   0  0  0  0  0  0  0  0  0  0  0  0
  140.8500   74.1480  221.3640 C   0  0  0  0  0  0  0  0  0  0  0  0
  140.1140   73.0910  222.0300 C   0  0  0  0  0  0  0  0  0  0  0  0
  140.5920   71.8800  222.2640 C   0  0  0  0  0  0  0  0  0  0  0  0
  140.2820   71.1710  223.5210 C   0  0  0  0  0  0  0  0  0  0  0  0
  140.7280   71.8010  224.6410 N   0  0  0  0  0  0  0  0  0  0  0  0
  140.5740   71.2750  225.8660 C   0  0  0  0  0  0  0  0  0  0  0  0
  141.0100   71.8840  227.0110 C   0  0  0  0  0  0  0  0  0  0  0  0
  140.8400   71.3160  228.2750 C   0  0  0  0  0  0  0  0  0  0  0  0
  140.2020   70.0930  228.3470 C   0  0  0  0  0  0  0  0  0  0  0  0
  139.7740   69.5030  227.1910 C   0  0  0  0  0  0  0  0  0  0  0  0
  139.9440   70.0650  225.9450 C   0  0  0  0  0  0  0  0  0  0  0  0
  139.4960   69.4380  224.7920 C   0  0  0  0  0  0  0  0  0  0  0  0
  138.9340   68.3270  224.9720 O   0  0  0  0  0  0  0  0  0  0  0  0
  139.6550   69.9820  223.5520 N   0  0  0  0  0  0  0  0  0  0  0  0
  139.1990   69.3650  222.3500 C   0  0  0  0  0  0  0  0  0  0  0  0
  137.7440   69.1090  222.1900 C   0  0  0  0  0  0  0  0  0  0  0  0
  137.3020   67.6770  222.3390 C   0  0  0  0  0  0  0  0  0  0  0  0
  136.0090   67.5330  221.5010 C   0  0  0  0  0  0  0  0  0  0  0  0
  135.1710   68.7370  221.7270 C   0  0  0  0  0  0  0  0  0  0  0  0
  135.4300   69.4250  223.0260 C   0  0  0  0  0  0  0  0  0  0  0  0
  136.8650   69.9030  223.1480 C   0  0  0  0  0  0  0  0  0  0  0  0
  140.7000   75.4590  221.7810 C   0  0  0  0  0  0  0  0  0  0  0  0
  141.8180   78.9380  221.0530 C   0  0  0  0  0  0  0  0  0  0  0  0
  141.5140   80.2540  221.7250 C   0  0  0  0  0  0  0  0  0  0  0  0
  142.9744   80.5218  224.7320 H   0  0  0  0  0  0  0  0  0  0  0  0
  143.6838   79.7685  223.2637 H   0  0  0  0  0  0  0  0  0  0  0  0
  143.2643   81.5152  223.2637 H   0  0  0  0  0  0  0  0  0  0  0  0
  141.9311   78.4148  224.1516 H   0  0  0  0  0  0  0  0  0  0  0  0
  140.4249   79.3590  224.5711 H   0  0  0  0  0  0  0  0  0  0  0  0
  139.9366   77.2623  223.3340 H   0  0  0  0  0  0  0  0  0  0  0  0
  139.3898   78.7229  222.4758 H   0  0  0  0  0  0  0  0  0  0  0  0
  142.7394   77.0961  219.6937 H   0  0  0  0  0  0  0  0  0  0  0  0
  143.0920   74.7782  218.8537 H   0  0  0  0  0  0  0  0  0  0  0  0
  141.8656   72.9109  219.9468 H   0  0  0  0  0  0  0  0  0  0  0  0
  139.0890   73.3110  222.3631 H   0  0  0  0  0  0  0  0  0  0  0  0
  141.2298   71.3942  221.5109 H   0  0  0  0  0  0  0  0  0  0  0  0
  141.5139   72.8587  226.9326 H   0  0  0  0  0  0  0  0  0  0  0  0
  141.2012   71.8243  229.1812 H   0  0  0  0  0  0  0  0  0  0  0  0
  140.0412   69.6023  229.3183 H   0  0  0  0  0  0  0  0  0  0  0  0
  139.2676   68.5289  227.2591 H   0  0  0  0  0  0  0  0  0  0  0  0
  139.5081   70.0120  221.5158 H   0  0  0  0  0  0  0  0  0  0  0  0
  139.6468   68.3606  222.3773 H   0  0  0  0  0  0  0  0  0  0  0  0
  137.6083   69.4304  221.1468 H   0  0  0  0  0  0  0  0  0  0  0  0
  138.0792   66.9970  221.9602 H   0  0  0  0  0  0  0  0  0  0  0  0
  137.1257   67.4204  223.3940 H   0  0  0  0  0  0  0  0  0  0  0  0
  136.2642   67.4523  220.4341 H   0  0  0  0  0  0  0  0  0  0  0  0
  135.4611   66.6278  221.8018 H   0  0  0  0  0  0  0  0  0  0  0  0
  135.3656   69.4510  220.9132 H   0  0  0  0  0  0  0  0  0  0  0  0
  134.1256   68.3956  221.7519 H   0  0  0  0  0  0  0  0  0  0  0  0
  134.7597   70.2935  223.1062 H   0  0  0  0  0  0  0  0  0  0  0  0
  135.2467   68.7005  223.8331 H   0  0  0  0  0  0  0  0  0  0  0  0
  136.9188   70.9722  222.8953 H   0  0  0  0  0  0  0  0  0  0  0  0
  137.2164   69.7538  224.1796 H   0  0  0  0  0  0  0  0  0  0  0  0
  140.0152   75.6542  222.6194 H   0  0  0  0  0  0  0  0  0  0  0  0
  142.9028   78.7601  221.0915 H   0  0  0  0  0  0  0  0  0  0  0  0
  141.4647   78.9942  220.0128 H   0  0  0  0  0  0  0  0  0  0  0  0
  142.2100   81.0130  221.3385 H   0  0  0  0  0  0  0  0  0  0  0  0
  140.4662   80.5018  221.5000 H   0  0  0  0  0  0  0  0  0  0  0  0
  1  2  1  0
  2  3  1  0
  3  4  1  0
  4  5  1  0
  5  6  1  0
  6  7  2  0
  7  8  1  0
  8  9  2  0
  9 10  1  0
 10 11  1  0
 11 12  2  0
 12 13  1  0
 13 14  2  0
 14 15  1  0
 15 16  2  0
 16 17  1  0
 17 18  2  0
 18 19  1  0
 19 20  2  0
 20 21  1  0
 21 22  2  0
 21 23  1  0
 23 24  1  0
 24 25  1  0
 25 26  1  0
 26 27  1  0
 27 28  1  0
 28 29  1  0
 29 30  1  0
 10 31  2  0
  5 32  1  0
 32 33  1  0
 33  2  1  0
 31  6  1  0
 23 13  1  0
 30 25  1  0
 20 15  1  0
  1 34  1  0
  1 35  1  0
  1 36  1  0
  3 37  1  0
  3 38  1  0
  4 39  1  0
  4 40  1  0
  7 41  1  0
  8 42  1  0
  9 43  1  0
 11 44  1  0
 12 45  1  0
 16 46  1  0
 17 47  1  0
 18 48  1  0
 19 49  1  0
 24 50  1  0
 24 51  1  0
 25 52  1  0
 26 53  1  0
 26 54  1  0
 27 55  1  0
 27 56  1  0
 28 57  1  0
 28 58  1  0
 29 59  1  0
 29 60  1  0
 30 61  1  0
 30 62  1  0
 31 63  1  0
 32 64  1  0
 32 65  1  0
 33 66  1  0
 33 67  1  0
M  END
>  <smiles>  (6) 
CN1CCN(c2cccc(/C=C/c3nc4ccccc4c(=O)n3CC3CCCCC3)c2)CC1

>  <score_type>  (6) 
oracle

>  <origin>  (6) 
autodockgpu

>  <m_score__min__energy>  (6) 
-9.1300000000000008

>  <m_primary>  (6) 
energy

>  <rmsd>  (6) 
6.876779869846314

>  <m_score__min__rmsd>  (6) 
6.876779869846314

>  <meeko>  (6) 
{"free_energy": -8.87, "intermolecular_energy": -10.66, "internal_energy": -1.48, "cluster_size": 21, "cluster_id": 2, "rank_in_cluster": 6}

>  <energy>  (6) 
-8.9

>  <cluster_rmsd>  (6) 
1.29

>  <cluster>  (6) 
1

$$$$

     RDKit          3D

 67 71  0  0  0  0  0  0  0  0999 V2000
  142.5810   79.5240  222.4910 C   0  0  0  0  0  0  0  0  0  0  0  0
  141.3870   78.9320  221.9270 N   0  0  0  0  0  0  0  0  0  0  0  0
  140.8570   77.8710  222.7370 C   0  0  0  0  0  0  0  0  0  0  0  0
  140.2880   76.7230  221.9290 C   0  0  0  0  0  0  0  0  0  0  0  0
  141.3460   76.2370  221.0710 N   0  0  0  0  0  0  0  0  0  0  0  0
  141.7530   74.8990  220.9650 C   0  0  0  0  0  0  0  0  0  0  0  0
  143.0300   74.5440  220.5550 C   0  0  0  0  0  0  0  0  0  0  0  0
  143.4270   73.2180  220.4510 C   0  0  0  0  0  0  0  0  0  0  0  0
  142.4970   72.2380  220.7730 C   0  0  0  0  0  0  0  0  0  0  0  0
  141.2150   72.5360  221.1850 C   0  0  0  0  0  0  0  0  0  0  0  0
  140.2210   71.5380  221.5270 C   0  0  0  0  0  0  0  0  0  0  0  0
  139.3690   71.6460  222.5340 C   0  0  0  0  0  0  0  0  0  0  0  0
  139.5530   70.8640  223.7720 C   0  0  0  0  0  0  0  0  0  0  0  0
  140.1640   71.5490  224.7770 N   0  0  0  0  0  0  0  0  0  0  0  0
  140.4530   70.9800  225.9580 C   0  0  0  0  0  0  0  0  0  0  0  0
  141.0650   71.6420  226.9860 C   0  0  0  0  0  0  0  0  0  0  0  0
  141.3580   71.0270  228.2050 C   0  0  0  0  0  0  0  0  0  0  0  0
  141.0040   69.7010  228.3550 C   0  0  0  0  0  0  0  0  0  0  0  0
  140.3920   69.0590  227.3150 C   0  0  0  0  0  0  0  0  0  0  0  0
  140.1060   69.6670  226.1120 C   0  0  0  0  0  0  0  0  0  0  0  0
  139.4830   68.9860  225.0780 C   0  0  0  0  0  0  0  0  0  0  0  0
  139.2100   67.7820  225.3190 O   0  0  0  0  0  0  0  0  0  0  0  0
  139.1920   69.5740  223.8830 N   0  0  0  0  0  0  0  0  0  0  0  0
  138.5460   68.9020  222.8030 C   0  0  0  0  0  0  0  0  0  0  0  0
  137.0770   68.6930  222.8730 C   0  0  0  0  0  0  0  0  0  0  0  0
  136.3060   69.6680  223.7240 C   0  0  0  0  0  0  0  0  0  0  0  0
  135.0400   68.9190  224.2030 C   0  0  0  0  0  0  0  0  0  0  0  0
  134.5030   68.1350  223.0640 C   0  0  0  0  0  0  0  0  0  0  0  0
  134.8800   68.6720  221.7230 C   0  0  0  0  0  0  0  0  0  0  0  0
  136.3830   68.7050  221.5180 C   0  0  0  0  0  0  0  0  0  0  0  0
  140.8940   73.8800  221.2640 C   0  0  0  0  0  0  0  0  0  0  0  0
  142.0270   77.2430  220.2590 C   0  0  0  0  0  0  0  0  0  0  0  0
  141.4950   78.6290  220.5280 C   0  0  0  0  0  0  0  0  0  0  0  0
  142.5214   79.4945  223.5890 H   0  0  0  0  0  0  0  0  0  0  0  0
  143.4636   78.9591  222.1564 H   0  0  0  0  0  0  0  0  0  0  0  0
  142.6656   80.5684  222.1564 H   0  0  0  0  0  0  0  0  0  0  0  0
  141.6649   77.4820  223.3741 H   0  0  0  0  0  0  0  0  0  0  0  0
  140.0300   78.2945  223.3258 H   0  0  0  0  0  0  0  0  0  0  0  0
  139.9495   75.9207  222.6011 H   0  0  0  0  0  0  0  0  0  0  0  0
  139.4246   77.0551  221.3338 H   0  0  0  0  0  0  0  0  0  0  0  0
  143.7497   75.3374  220.3047 H   0  0  0  0  0  0  0  0  0  0  0  0
  144.4434   72.9524  220.1247 H   0  0  0  0  0  0  0  0  0  0  0  0
  142.7949   71.1819  220.6963 H   0  0  0  0  0  0  0  0  0  0  0  0
  140.1715   70.6300  220.9081 H   0  0  0  0  0  0  0  0  0  0  0  0
  138.5110   72.3288  222.4469 H   0  0  0  0  0  0  0  0  0  0  0  0
  141.3368   72.6989  226.8476 H   0  0  0  0  0  0  0  0  0  0  0  0
  141.8533   71.5795  229.0170 H   0  0  0  0  0  0  0  0  0  0  0  0
  141.2110   69.1700  229.2958 H   0  0  0  0  0  0  0  0  0  0  0  0
  140.1135   68.0028  227.4451 H   0  0  0  0  0  0  0  0  0  0  0  0
  138.7477   69.4841  221.8917 H   0  0  0  0  0  0  0  0  0  0  0  0
  138.9635   67.8847  222.8317 H   0  0  0  0  0  0  0  0  0  0  0  0
  137.0504   67.6969  223.3389 H   0  0  0  0  0  0  0  0  0  0  0  0
  136.9117   69.9827  224.5866 H   0  0  0  0  0  0  0  0  0  0  0  0
  136.0444   70.5738  223.1573 H   0  0  0  0  0  0  0  0  0  0  0  0
  135.2991   68.2425  225.0308 H   0  0  0  0  0  0  0  0  0  0  0  0
  134.2861   69.6375  224.5571 H   0  0  0  0  0  0  0  0  0  0  0  0
  134.8831   67.1058  223.1433 H   0  0  0  0  0  0  0  0  0  0  0  0
  133.4064   68.1892  223.1306 H   0  0  0  0  0  0  0  0  0  0  0  0
  134.4311   68.0340  220.9475 H   0  0  0  0  0  0  0  0  0  0  0  0
  134.5086   69.7053  221.6576 H   0  0  0  0  0  0  0  0  0  0  0  0
  136.6940   67.8235  220.9382 H   0  0  0  0  0  0  0  0  0  0  0  0
  136.6599   69.6181  220.9707 H   0  0  0  0  0  0  0  0  0  0  0  0
  139.8775   74.1457  221.5899 H   0  0  0  0  0  0  0  0  0  0  0  0
  143.1017   77.2219  220.4924 H   0  0  0  0  0  0  0  0  0  0  0  0
  141.8496   77.0067  219.1994 H   0  0  0  0  0  0  0  0  0  0  0  0
  142.1731   79.3599  220.0634 H   0  0  0  0  0  0  0  0  0  0  0  0
  140.4812   78.6778  220.1039 H   0  0  0  0  0  0  0  0  0  0  0  0
  1  2  1  0
  2  3  1  0
  3  4  1  0
  4  5  1  0
  5  6  1  0
  6  7  2  0
  7  8  1  0
  8  9  2  0
  9 10  1  0
 10 11  1  0
 11 12  2  0
 12 13  1  0
 13 14  2  0
 14 15  1  0
 15 16  2  0
 16 17  1  0
 17 18  2  0
 18 19  1  0
 19 20  2  0
 20 21  1  0
 21 22  2  0
 21 23  1  0
 23 24  1  0
 24 25  1  0
 25 26  1  0
 26 27  1  0
 27 28  1  0
 28 29  1  0
 29 30  1  0
 10 31  2  0
  5 32  1  0
 32 33  1  0
 33  2  1  0
 31  6  1  0
 23 13  1  0
 30 25  1  0
 20 15  1  0
  1 34  1  0
  1 35  1  0
  1 36  1  0
  3 37  1  0
  3 38  1  0
  4 39  1  0
  4 40  1  0
  7 41  1  0
  8 42  1  0
  9 43  1  0
 11 44  1  0
 12 45  1  0
 16 46  1  0
 17 47  1  0
 18 48  1  0
 19 49  1  0
 24 50  1  0
 24 51  1  0
 25 52  1  0
 26 53  1  0
 26 54  1  0
 27 55  1  0
 27 56  1  0
 28 57  1  0
 28 58  1  0
 29 59  1  0
 29 60  1  0
 30 61  1  0
 30 62  1  0
 31 63  1  0
 32 64  1  0
 32 65  1  0
 33 66  1  0
 33 67  1  0
M  END
>  <smiles>  (7) 
CN1CCN(c2cccc(/C=C/c3nc4ccccc4c(=O)n3CC3CCCCC3)c2)CC1

>  <score_type>  (7) 
oracle

>  <origin>  (7) 
autodockgpu

>  <m_score__min__energy>  (7) 
-9.1300000000000008

>  <m_primary>  (7) 
energy

>  <rmsd>  (7) 
7.4099342859555515

>  <m_score__min__rmsd>  (7) 
7.4099342859555515

>  <meeko>  (7) 
{"free_energy": -8.69, "intermolecular_energy": -10.48, "internal_energy": -1.64, "cluster_size": 21, "cluster_id": 2, "rank_in_cluster": 12}

>  <energy>  (7) 
-8.9

>  <cluster_rmsd>  (7) 
1.17

>  <cluster>  (7) 
1

$$$$

     RDKit          3D

 67 71  0  0  0  0  0  0  0  0999 V2000
  141.3410   81.1060  221.7370 C   0  0  0  0  0  0  0  0  0  0  0  0
  142.0750   79.8660  221.6120 N   0  0  0  0  0  0  0  0  0  0  0  0
  141.6280   79.0650  220.5070 C   0  0  0  0  0  0  0  0  0  0  0  0
  141.6380   77.5780  220.7980 C   0  0  0  0  0  0  0  0  0  0  0  0
  140.8040   77.3640  221.9600 N   0  0  0  0  0  0  0  0  0  0  0  0
  139.7540   76.4380  222.0450 C   0  0  0  0  0  0  0  0  0  0  0  0
  138.4420   76.8270  222.2760 C   0  0  0  0  0  0  0  0  0  0  0  0
  137.4060   75.9060  222.3600 C   0  0  0  0  0  0  0  0  0  0  0  0
  137.7220   74.5620  222.2030 C   0  0  0  0  0  0  0  0  0  0  0  0
  139.0090   74.1230  221.9720 C   0  0  0  0  0  0  0  0  0  0  0  0
  139.3710   72.7290  221.8050 C   0  0  0  0  0  0  0  0  0  0  0  0
  140.4040   72.1490  222.3960 C   0  0  0  0  0  0  0  0  0  0  0  0
  140.2210   71.3140  223.5980 C   0  0  0  0  0  0  0  0  0  0  0  0
  140.6770   71.8830  224.7460 N   0  0  0  0  0  0  0  0  0  0  0  0
  140.6340   71.2460  225.9270 C   0  0  0  0  0  0  0  0  0  0  0  0
  141.0840   71.7920  227.0980 C   0  0  0  0  0  0  0  0  0  0  0  0
  141.0290   71.1080  228.3140 C   0  0  0  0  0  0  0  0  0  0  0  0
  140.4940   69.8350  228.3100 C   0  0  0  0  0  0  0  0  0  0  0  0
  140.0500   69.3090  227.1290 C   0  0  0  0  0  0  0  0  0  0  0  0
  140.1060   69.9850  225.9300 C   0  0  0  0  0  0  0  0  0  0  0  0
  139.6450   69.4220  224.7500 C   0  0  0  0  0  0  0  0  0  0  0  0
  139.1840   68.2570  224.8590 O   0  0  0  0  0  0  0  0  0  0  0  0
  139.6920   70.0790  223.5560 N   0  0  0  0  0  0  0  0  0  0  0  0
  139.2190   69.5290  222.3280 C   0  0  0  0  0  0  0  0  0  0  0  0
  137.7900   69.1340  222.2290 C   0  0  0  0  0  0  0  0  0  0  0  0
  137.4980   67.6620  222.3470 C   0  0  0  0  0  0  0  0  0  0  0  0
  136.1840   67.4170  221.5680 C   0  0  0  0  0  0  0  0  0  0  0  0
  135.2460   68.5250  221.8750 C   0  0  0  0  0  0  0  0  0  0  0  0
  135.5020   69.1950  223.1840 C   0  0  0  0  0  0  0  0  0  0  0  0
  136.8880   69.8080  223.2550 C   0  0  0  0  0  0  0  0  0  0  0  0
  139.9860   75.1010  221.9020 C   0  0  0  0  0  0  0  0  0  0  0  0
  141.1050   78.1910  223.1270 C   0  0  0  0  0  0  0  0  0  0  0  0
  142.2300   79.1570  222.8500 C   0  0  0  0  0  0  0  0  0  0  0  0
  141.2006   81.3432  222.8019 H   0  0  0  0  0  0  0  0  0  0  0  0
  141.9050   81.9164  221.2521 H   0  0  0  0  0  0  0  0  0  0  0  0
  140.3592   81.0014  221.2521 H   0  0  0  0  0  0  0  0  0  0  0  0
  140.6002   79.3636  220.2533 H   0  0  0  0  0  0  0  0  0  0  0  0
  142.3285   79.2378  219.6767 H   0  0  0  0  0  0  0  0  0  0  0  0
  141.2355   77.0229  219.9378 H   0  0  0  0  0  0  0  0  0  0  0  0
  142.6627   77.2230  220.9821 H   0  0  0  0  0  0  0  0  0  0  0  0
  138.2159   77.8968  222.3962 H   0  0  0  0  0  0  0  0  0  0  0  0
  136.3709   76.2293  222.5445 H   0  0  0  0  0  0  0  0  0  0  0  0
  136.9136   73.8186  222.2654 H   0  0  0  0  0  0  0  0  0  0  0  0
  138.7456   72.1121  221.1430 H   0  0  0  0  0  0  0  0  0  0  0  0
  141.4140   72.2920  221.9844 H   0  0  0  0  0  0  0  0  0  0  0  0
  141.5050   72.8081  227.0809 H   0  0  0  0  0  0  0  0  0  0  0  0
  141.3989   71.5671  229.2426 H   0  0  0  0  0  0  0  0  0  0  0  0
  140.4262   69.2539  229.2415 H   0  0  0  0  0  0  0  0  0  0  0  0
  139.6263   68.2939  227.1364 H   0  0  0  0  0  0  0  0  0  0  0  0
  139.4031   70.2790  221.5447 H   0  0  0  0  0  0  0  0  0  0  0  0
  139.7668   68.5801  222.2307 H   0  0  0  0  0  0  0  0  0  0  0  0
  137.5703   69.4712  221.2053 H   0  0  0  0  0  0  0  0  0  0  0  0
  138.3172   67.0746  221.9067 H   0  0  0  0  0  0  0  0  0  0  0  0
  137.4023   67.3562  223.3993 H   0  0  0  0  0  0  0  0  0  0  0  0
  136.3910   67.3935  220.4879 H   0  0  0  0  0  0  0  0  0  0  0  0
  135.7423   66.4540  221.8638 H   0  0  0  0  0  0  0  0  0  0  0  0
  135.3298   69.2792  221.0787 H   0  0  0  0  0  0  0  0  0  0  0  0
  134.2410   68.0820  221.9365 H   0  0  0  0  0  0  0  0  0  0  0  0
  134.7556   69.9904  223.3264 H   0  0  0  0  0  0  0  0  0  0  0  0
  135.4306   68.4316  223.9728 H   0  0  0  0  0  0  0  0  0  0  0  0
  136.8252   70.8846  223.0380 H   0  0  0  0  0  0  0  0  0  0  0  0
  137.3039   69.6628  224.2630 H   0  0  0  0  0  0  0  0  0  0  0  0
  141.0213   74.7780  221.7183 H   0  0  0  0  0  0  0  0  0  0  0  0
  140.2052   78.7609  223.4019 H   0  0  0  0  0  0  0  0  0  0  0  0
  141.4165   77.5272  223.9470 H   0  0  0  0  0  0  0  0  0  0  0  0
  142.2714   79.8896  223.6695 H   0  0  0  0  0  0  0  0  0  0  0  0
  143.1557   78.5676  222.7752 H   0  0  0  0  0  0  0  0  0  0  0  0
  1  2  1  0
  2  3  1  0
  3  4  1  0
  4  5  1  0
  5  6  1  0
  6  7  2  0
  7  8  1  0
  8  9  2  0
  9 10  1  0
 10 11  1  0
 11 12  2  0
 12 13  1  0
 13 14  2  0
 14 15  1  0
 15 16  2  0
 16 17  1  0
 17 18  2  0
 18 19  1  0
 19 20  2  0
 20 21  1  0
 21 22  2  0
 21 23  1  0
 23 24  1  0
 24 25  1  0
 25 26  1  0
 26 27  1  0
 27 28  1  0
 28 29  1  0
 29 30  1  0
 10 31  2  0
  5 32  1  0
 32 33  1  0
 33  2  1  0
 31  6  1  0
 23 13  1  0
 30 25  1  0
 20 15  1  0
  1 34  1  0
  1 35  1  0
  1 36  1  0
  3 37  1  0
  3 38  1  0
  4 39  1  0
  4 40  1  0
  7 41  1  0
  8 42  1  0
  9 43  1  0
 11 44  1  0
 12 45  1  0
 16 46  1  0
 17 47  1  0
 18 48  1  0
 19 49  1  0
 24 50  1  0
 24 51  1  0
 25 52  1  0
 26 53  1  0
 26 54  1  0
 27 55  1  0
 27 56  1  0
 28 57  1  0
 28 58  1  0
 29 59  1  0
 29 60  1  0
 30 61  1  0
 30 62  1  0
 31 63  1  0
 32 64  1  0
 32 65  1  0
 33 66  1  0
 33 67  1  0
M  END
>  <smiles>  (8) 
CN1CCN(c2cccc(/C=C/c3nc4ccccc4c(=O)n3CC3CCCCC3)c2)CC1

>  <score_type>  (8) 
oracle

>  <origin>  (8) 
autodockgpu

>  <m_score__min__energy>  (8) 
-9.1300000000000008

>  <m_primary>  (8) 
energy

>  <rmsd>  (8) 
6.733226243075163

>  <m_score__min__rmsd>  (8) 
6.733226243075163

>  <meeko>  (8) 
{"free_energy": -8.41, "intermolecular_energy": -10.2, "internal_energy": -1.69, "cluster_size": 21, "cluster_id": 2, "rank_in_cluster": 14}

>  <energy>  (8) 
-8.64

>  <cluster_rmsd>  (8) 
1.16

>  <cluster>  (8) 
1

$$$$

     RDKit          3D

 67 71  0  0  0  0  0  0  0  0999 V2000
  140.0050   68.7230  228.8000 C   0  0  0  0  0  0  0  0  0  0  0  0
  141.0190   69.0930  227.8370 N   0  0  0  0  0  0  0  0  0  0  0  0
  141.0320   70.5020  227.5580 C   0  0  0  0  0  0  0  0  0  0  0  0
  141.3250   70.8260  226.1080 C   0  0  0  0  0  0  0  0  0  0  0  0
  140.3270   70.1520  225.3080 N   0  0  0  0  0  0  0  0  0  0  0  0
  139.5310   70.7590  224.3240 C   0  0  0  0  0  0  0  0  0  0  0  0
  138.1850   70.4590  224.1730 C   0  0  0  0  0  0  0  0  0  0  0  0
  137.4030   71.0620  223.1980 C   0  0  0  0  0  0  0  0  0  0  0  0
  138.0130   71.9900  222.3620 C   0  0  0  0  0  0  0  0  0  0  0  0
  139.3470   72.3230  222.4690 C   0  0  0  0  0  0  0  0  0  0  0  0
  140.0140   73.2850  221.6130 C   0  0  0  0  0  0  0  0  0  0  0  0
  139.4960   74.4470  221.2520 C   0  0  0  0  0  0  0  0  0  0  0  0
  140.3100   75.6790  221.2670 C   0  0  0  0  0  0  0  0  0  0  0  0
  139.9680   76.5590  222.2460 N   0  0  0  0  0  0  0  0  0  0  0  0
  140.5710   77.7510  222.3780 C   0  0  0  0  0  0  0  0  0  0  0  0
  140.2510   78.6570  223.3520 C   0  0  0  0  0  0  0  0  0  0  0  0
  140.8930   79.8910  223.4680 C   0  0  0  0  0  0  0  0  0  0  0  0
  141.8870   80.1860  222.5560 C   0  0  0  0  0  0  0  0  0  0  0  0
  142.1910   79.2650  221.5920 C   0  0  0  0  0  0  0  0  0  0  0  0
  141.5560   78.0480  221.4790 C   0  0  0  0  0  0  0  0  0  0  0  0
  141.8910   77.1370  220.4890 C   0  0  0  0  0  0  0  0  0  0  0  0
  142.8050   77.5090  219.7080 O   0  0  0  0  0  0  0  0  0  0  0  0
  141.2730   75.9290  220.3640 N   0  0  0  0  0  0  0  0  0  0  0  0
  141.6010   74.9690  219.3610 C   0  0  0  0  0  0  0  0  0  0  0  0
  142.8630   74.1970  219.5010 C   0  0  0  0  0  0  0  0  0  0  0  0
  143.5630   74.3030  220.8310 C   0  0  0  0  0  0  0  0  0  0  0  0
  145.0630   74.0480  220.5530 C   0  0  0  0  0  0  0  0  0  0  0  0
  145.1740   72.9240  219.5900 C   0  0  0  0  0  0  0  0  0  0  0  0
  144.0040   71.9970  219.5980 C   0  0  0  0  0  0  0  0  0  0  0  0
  142.7090   72.7040  219.2450 C   0  0  0  0  0  0  0  0  0  0  0  0
  140.0600   71.6790  223.4660 C   0  0  0  0  0  0  0  0  0  0  0  0
  140.1540   68.7240  225.5650 C   0  0  0  0  0  0  0  0  0  0  0  0
  141.0540   68.2470  226.6780 C   0  0  0  0  0  0  0  0  0  0  0  0
  140.3966   68.8659  229.8180 H   0  0  0  0  0  0  0  0  0  0  0  0
  139.1158   69.3546  228.6572 H   0  0  0  0  0  0  0  0  0  0  0  0
  139.7316   67.6671  228.6572 H   0  0  0  0  0  0  0  0  0  0  0  0
  140.0466   70.9175  227.8157 H   0  0  0  0  0  0  0  0  0  0  0  0
  141.8402   70.9443  228.1590 H   0  0  0  0  0  0  0  0  0  0  0  0
  141.2671   71.9124  225.9457 H   0  0  0  0  0  0  0  0  0  0  0  0
  142.3364   70.4939  225.8309 H   0  0  0  0  0  0  0  0  0  0  0  0
  137.7239   69.7212  224.8461 H   0  0  0  0  0  0  0  0  0  0  0  0
  136.3367   70.8140  223.0904 H   0  0  0  0  0  0  0  0  0  0  0  0
  137.4076   72.4782  221.5841 H   0  0  0  0  0  0  0  0  0  0  0  0
  141.0170   73.0314  221.2393 H   0  0  0  0  0  0  0  0  0  0  0  0
  138.4435   74.4965  220.9360 H   0  0  0  0  0  0  0  0  0  0  0  0
  139.4579   78.4034  224.0708 H   0  0  0  0  0  0  0  0  0  0  0  0
  140.6166   80.6040  224.2588 H   0  0  0  0  0  0  0  0  0  0  0  0
  142.4245   81.1445  222.6041 H   0  0  0  0  0  0  0  0  0  0  0  0
  142.9837   79.5087  220.8694 H   0  0  0  0  0  0  0  0  0  0  0  0
  140.7773   74.2407  219.3275 H   0  0  0  0  0  0  0  0  0  0  0  0
  141.7542   75.5711  218.4533 H   0  0  0  0  0  0  0  0  0  0  0  0
  143.4706   74.6857  218.7251 H   0  0  0  0  0  0  0  0  0  0  0  0
  143.4199   75.3066  221.2579 H   0  0  0  0  0  0  0  0  0  0  0  0
  143.1611   73.5775  221.5535 H   0  0  0  0  0  0  0  0  0  0  0  0
  145.5207   74.9517  220.1242 H   0  0  0  0  0  0  0  0  0  0  0  0
  145.5848   73.7984  221.4886 H   0  0  0  0  0  0  0  0  0  0  0  0
  145.2748   73.3444  218.5785 H   0  0  0  0  0  0  0  0  0  0  0  0
  146.0500   72.3318  219.8931 H   0  0  0  0  0  0  0  0  0  0  0  0
  144.1816   71.1964  218.8648 H   0  0  0  0  0  0  0  0  0  0  0  0
  143.9009   71.5928  220.6158 H   0  0  0  0  0  0  0  0  0  0  0  0
  142.4764   72.5356  218.1831 H   0  0  0  0  0  0  0  0  0  0  0  0
  141.8921   72.3068  219.8654 H   0  0  0  0  0  0  0  0  0  0  0  0
  141.1265   71.9260  223.5739 H   0  0  0  0  0  0  0  0  0  0  0  0
  139.1075   68.5362  225.8469 H   0  0  0  0  0  0  0  0  0  0  0  0
  140.4187   68.1751  224.6493 H   0  0  0  0  0  0  0  0  0  0  0  0
  140.7378   67.2358  226.9739 H   0  0  0  0  0  0  0  0  0  0  0  0
  142.0846   68.2625  226.2937 H   0  0  0  0  0  0  0  0  0  0  0  0
  1  2  1  0
  2  3  1  0
  3  4  1  0
  4  5  1  0
  5  6  1  0
  6  7  2  0
  7  8  1  0
  8  9  2  0
  9 10  1  0
 10 11  1  0
 11 12  2  0
 12 13  1  0
 13 14  2  0
 14 15  1  0
 15 16  2  0
 16 17  1  0
 17 18  2  0
 18 19  1  0
 19 20  2  0
 20 21  1  0
 21 22  2  0
 21 23  1  0
 23 24  1  0
 24 25  1  0
 25 26  1  0
 26 27  1  0
 27 28  1  0
 28 29  1  0
 29 30  1  0
 10 31  2  0
  5 32  1  0
 32 33  1  0
 33  2  1  0
 31  6  1  0
 23 13  1  0
 30 25  1  0
 20 15  1  0
  1 34  1  0
  1 35  1  0
  1 36  1  0
  3 37  1  0
  3 38  1  0
  4 39  1  0
  4 40  1  0
  7 41  1  0
  8 42  1  0
  9 43  1  0
 11 44  1  0
 12 45  1  0
 16 46  1  0
 17 47  1  0
 18 48  1  0
 19 49  1  0
 24 50  1  0
 24 51  1  0
 25 52  1  0
 26 53  1  0
 26 54  1  0
 27 55  1  0
 27 56  1  0
 28 57  1  0
 28 58  1  0
 29 59  1  0
 29 60  1  0
 30 61  1  0
 30 62  1  0
 31 63  1  0
 32 64  1  0
 32 65  1  0
 33 66  1  0
 33 67  1  0
M  END
>  <smiles>  (9) 
CN1CCN(c2cccc(/C=C/c3nc4ccccc4c(=O)n3CC3CCCCC3)c2)CC1

>  <score_type>  (9) 
oracle

>  <origin>  (9) 
autodockgpu

>  <m_score__min__energy>  (9) 
-9.1300000000000008

>  <m_primary>  (9) 
energy

>  <rmsd>  (9) 
9.937705231032718

>  <m_score__min__rmsd>  (9) 
9.937705231032718

>  <meeko>  (9) 
{"free_energy": -8.4, "intermolecular_energy": -10.19, "internal_energy": -1.74, "cluster_size": 5, "cluster_id": 3, "rank_in_cluster": 5}

>  <energy>  (9) 
-8.63

>  <cluster_rmsd>  (9) 
1.03

>  <cluster>  (9) 
1

$$$$

     RDKit          3D

 67 71  0  0  0  0  0  0  0  0999 V2000
  139.5950   69.3110  228.6940 C   0  0  0  0  0  0  0  0  0  0  0  0
  140.6990   69.8700  227.9440 N   0  0  0  0  0  0  0  0  0  0  0  0
  140.5350   71.2710  227.6740 C   0  0  0  0  0  0  0  0  0  0  0  0
  141.0410   71.6850  226.3080 C   0  0  0  0  0  0  0  0  0  0  0  0
  140.3380   70.8850  225.3300 N   0  0  0  0  0  0  0  0  0  0  0  0
  139.6550   71.3880  224.2120 C   0  0  0  0  0  0  0  0  0  0  0  0
  138.3320   71.0660  223.9450 C   0  0  0  0  0  0  0  0  0  0  0  0
  137.6630   71.5660  222.8370 C   0  0  0  0  0  0  0  0  0  0  0  0
  138.3640   72.4110  221.9850 C   0  0  0  0  0  0  0  0  0  0  0  0
  139.6800   72.7620  222.2040 C   0  0  0  0  0  0  0  0  0  0  0  0
  140.4390   73.6400  221.3350 C   0  0  0  0  0  0  0  0  0  0  0  0
  140.6610   74.9210  221.5770 C   0  0  0  0  0  0  0  0  0  0  0  0
  139.5740   75.8080  222.0340 C   0  0  0  0  0  0  0  0  0  0  0  0
  138.3290   75.2740  221.9060 N   0  0  0  0  0  0  0  0  0  0  0  0
  137.2200   75.9580  222.2290 C   0  0  0  0  0  0  0  0  0  0  0  0
  135.9570   75.4490  222.1120 C   0  0  0  0  0  0  0  0  0  0  0  0
  134.8180   76.1810  222.4530 C   0  0  0  0  0  0  0  0  0  0  0  0
  135.0000   77.4660  222.9260 C   0  0  0  0  0  0  0  0  0  0  0  0
  136.2720   77.9550  223.0360 C   0  0  0  0  0  0  0  0  0  0  0  0
  137.3940   77.2300  222.6980 C   0  0  0  0  0  0  0  0  0  0  0  0
  138.6700   77.7570  222.8220 C   0  0  0  0  0  0  0  0  0  0  0  0
  138.7210   78.9360  223.2570 O   0  0  0  0  0  0  0  0  0  0  0  0
  139.7900   77.0520  222.4940 N   0  0  0  0  0  0  0  0  0  0  0  0
  141.1160   77.5640  222.6180 C   0  0  0  0  0  0  0  0  0  0  0  0
  141.3130   79.0370  222.6020 C   0  0  0  0  0  0  0  0  0  0  0  0
  142.5130   79.5540  223.3510 C   0  0  0  0  0  0  0  0  0  0  0  0
  142.1650   80.9980  223.7830 C   0  0  0  0  0  0  0  0  0  0  0  0
  141.4810   81.6710  222.6510 C   0  0  0  0  0  0  0  0  0  0  0  0
  141.8080   81.0970  221.3120 C   0  0  0  0  0  0  0  0  0  0  0  0
  141.4220   79.6330  221.2050 C   0  0  0  0  0  0  0  0  0  0  0  0
  140.2780   72.2230  223.3300 C   0  0  0  0  0  0  0  0  0  0  0  0
  140.3560   69.4400  225.5480 C   0  0  0  0  0  0  0  0  0  0  0  0
  141.0930   69.0780  226.8140 C   0  0  0  0  0  0  0  0  0  0  0  0
  139.7948   69.4122  229.7710 H   0  0  0  0  0  0  0  0  0  0  0  0
  138.6697   69.8492  228.4406 H   0  0  0  0  0  0  0  0  0  0  0  0
  139.4812   68.2467  228.4406 H   0  0  0  0  0  0  0  0  0  0  0  0
  139.4643   71.5151  227.7376 H   0  0  0  0  0  0  0  0  0  0  0  0
  141.1317   71.8168  228.4197 H   0  0  0  0  0  0  0  0  0  0  0  0
  140.8370   72.7525  226.1383 H   0  0  0  0  0  0  0  0  0  0  0  0
  142.1272   71.5297  226.2309 H   0  0  0  0  0  0  0  0  0  0  0  0
  137.7974   70.3940  224.6325 H   0  0  0  0  0  0  0  0  0  0  0  0
  136.6134   71.3025  222.6397 H   0  0  0  0  0  0  0  0  0  0  0  0
  137.8492   72.8159  221.1012 H   0  0  0  0  0  0  0  0  0  0  0  0
  140.8583   73.2119  220.4126 H   0  0  0  0  0  0  0  0  0  0  0  0
  141.6716   75.3316  221.4354 H   0  0  0  0  0  0  0  0  0  0  0  0
  135.8331   74.4232  221.7347 H   0  0  0  0  0  0  0  0  0  0  0  0
  133.8115   75.7497  222.3487 H   0  0  0  0  0  0  0  0  0  0  0  0
  134.1362   78.0853  223.2093 H   0  0  0  0  0  0  0  0  0  0  0  0
  136.4066   78.9794  223.4136 H   0  0  0  0  0  0  0  0  0  0  0  0
  141.5192   77.1930  223.5718 H   0  0  0  0  0  0  0  0  0  0  0  0
  141.6251   77.2149  221.7075 H   0  0  0  0  0  0  0  0  0  0  0  0
  140.3935   79.3575  223.1136 H   0  0  0  0  0  0  0  0  0  0  0  0
  142.7091   78.9288  224.2345 H   0  0  0  0  0  0  0  0  0  0  0  0
  143.4166   79.5306  222.7241 H   0  0  0  0  0  0  0  0  0  0  0  0
  141.4995   80.9741  224.6585 H   0  0  0  0  0  0  0  0  0  0  0  0
  143.0812   81.5446  224.0512 H   0  0  0  0  0  0  0  0  0  0  0  0
  140.3950   81.5892  222.8059 H   0  0  0  0  0  0  0  0  0  0  0  0
  141.8322   82.7134  222.6432 H   0  0  0  0  0  0  0  0  0  0  0  0
  141.2646   81.6637  220.5415 H   0  0  0  0  0  0  0  0  0  0  0  0
  142.8964   81.1701  221.1703 H   0  0  0  0  0  0  0  0  0  0  0  0
  140.4531   79.5452  220.6916 H   0  0  0  0  0  0  0  0  0  0  0  0
  142.1890   79.0910  220.6323 H   0  0  0  0  0  0  0  0  0  0  0  0
  141.3277   72.4857  223.5277 H   0  0  0  0  0  0  0  0  0  0  0  0
  139.3202   69.0773  225.6219 H   0  0  0  0  0  0  0  0  0  0  0  0
  140.8772   68.9708  224.7005 H   0  0  0  0  0  0  0  0  0  0  0  0
  140.8961   68.0202  227.0428 H   0  0  0  0  0  0  0  0  0  0  0  0
  142.1614   69.2706  226.6366 H   0  0  0  0  0  0  0  0  0  0  0  0
  1  2  1  0
  2  3  1  0
  3  4  1  0
  4  5  1  0
  5  6  1  0
  6  7  2  0
  7  8  1  0
  8  9  2  0
  9 10  1  0
 10 11  1  0
 11 12  2  0
 12 13  1  0
 13 14  2  0
 14 15  1  0
 15 16  2  0
 16 17  1  0
 17 18  2  0
 18 19  1  0
 19 20  2  0
 20 21  1  0
 21 22  2  0
 21 23  1  0
 23 24  1  0
 24 25  1  0
 25 26  1  0
 26 27  1  0
 27 28  1  0
 28 29  1  0
 29 30  1  0
 10 31  2  0
  5 32  1  0
 32 33  1  0
 33  2  1  0
 31  6  1  0
 23 13  1  0
 30 25  1  0
 20 15  1  0
  1 34  1  0
  1 35  1  0
  1 36  1  0
  3 37  1  0
  3 38  1  0
  4 39  1  0
  4 40  1  0
  7 41  1  0
  8 42  1  0
  9 43  1  0
 11 44  1  0
 12 45  1  0
 16 46  1  0
 17 47  1  0
 18 48  1  0
 19 49  1  0
 24 50  1  0
 24 51  1  0
 25 52  1  0
 26 53  1  0
 26 54  1  0
 27 55  1  0
 27 56  1  0
 28 57  1  0
 28 58  1  0
 29 59  1  0
 29 60  1  0
 30 61  1  0
 30 62  1  0
 31 63  1  0
 32 64  1  0
 32 65  1  0
 33 66  1  0
 33 67  1  0
M  END
>  <smiles>  (10) 
CN1CCN(c2cccc(/C=C/c3nc4ccccc4c(=O)n3CC3CCCCC3)c2)CC1

>  <score_type>  (10) 
oracle

>  <origin>  (10) 
autodockgpu

>  <m_score__min__energy>  (10) 
-9.1300000000000008

>  <m_primary>  (10) 
energy

>  <rmsd>  (10) 
9.474499748286739

>  <m_score__min__rmsd>  (10) 
9.474499748286739

>  <meeko>  (10) 
{"free_energy": -8.7, "intermolecular_energy": -10.49, "internal_energy": -1.52, "cluster_size": 3, "cluster_id": 5, "rank_in_cluster": 1}

>  <energy>  (10) 
-9.04

>  <cluster_rmsd>  (10) 
0.0

>  <cluster>  (10) 
2

$$$$

     RDKit          3D

 67 71  0  0  0  0  0  0  0  0999 V2000
  141.3740   81.6990  221.9560 C   0  0  0  0  0  0  0  0  0  0  0  0
  141.1840   80.7680  223.0490 N   0  0  0  0  0  0  0  0  0  0  0  0
  142.2650   79.8310  223.1740 C   0  0  0  0  0  0  0  0  0  0  0  0
  141.8150   78.4410  223.5730 C   0  0  0  0  0  0  0  0  0  0  0  0
  140.8610   77.9980  222.5800 N   0  0  0  0  0  0  0  0  0  0  0  0
  140.9200   76.7800  221.8870 C   0  0  0  0  0  0  0  0  0  0  0  0
  141.6670   76.6230  220.7280 C   0  0  0  0  0  0  0  0  0  0  0  0
  141.7200   75.4150  220.0460 C   0  0  0  0  0  0  0  0  0  0  0  0
  140.9940   74.3490  220.5620 C   0  0  0  0  0  0  0  0  0  0  0  0
  140.2360   74.4520  221.7100 C   0  0  0  0  0  0  0  0  0  0  0  0
  139.4670   73.3590  222.2730 C   0  0  0  0  0  0  0  0  0  0  0  0
  139.8300   72.0880  222.2260 C   0  0  0  0  0  0  0  0  0  0  0  0
  139.7760   71.2360  223.4300 C   0  0  0  0  0  0  0  0  0  0  0  0
  140.3630   71.7850  224.5270 N   0  0  0  0  0  0  0  0  0  0  0  0
  140.4470   71.1320  225.6960 C   0  0  0  0  0  0  0  0  0  0  0  0
  141.0310   71.6570  226.8160 C   0  0  0  0  0  0  0  0  0  0  0  0
  141.1070   70.9560  228.0210 C   0  0  0  0  0  0  0  0  0  0  0  0
  140.5640   69.6870  228.0600 C   0  0  0  0  0  0  0  0  0  0  0  0
  139.9850   69.1820  226.9290 C   0  0  0  0  0  0  0  0  0  0  0  0
  139.9120   69.8750  225.7410 C   0  0  0  0  0  0  0  0  0  0  0  0
  139.3160   69.3320  224.6130 C   0  0  0  0  0  0  0  0  0  0  0  0
  138.8590   68.1690  224.7570 O   0  0  0  0  0  0  0  0  0  0  0  0
  139.2340   70.0060  223.4310 N   0  0  0  0  0  0  0  0  0  0  0  0
  138.6210   69.4770  222.2560 C   0  0  0  0  0  0  0  0  0  0  0  0
  139.4530   68.6820  221.3170 C   0  0  0  0  0  0  0  0  0  0  0  0
  138.8250   67.4250  220.7730 C   0  0  0  0  0  0  0  0  0  0  0  0
  139.9920   66.4680  220.4350 C   0  0  0  0  0  0  0  0  0  0  0  0
  141.0710   67.2580  219.7910 C   0  0  0  0  0  0  0  0  0  0  0  0
  140.5970   68.5060  219.1240 C   0  0  0  0  0  0  0  0  0  0  0  0
  139.9240   69.4580  220.0940 C   0  0  0  0  0  0  0  0  0  0  0  0
  140.2330   75.6880  222.3320 C   0  0  0  0  0  0  0  0  0  0  0  0
  139.7570   78.9130  222.2960 C   0  0  0  0  0  0  0  0  0  0  0  0
  139.8720   80.1880  223.0940 C   0  0  0  0  0  0  0  0  0  0  0  0
  141.5786   82.7016  222.3597 H   0  0  0  0  0  0  0  0  0  0  0  0
  142.2239   81.3717  221.3391 H   0  0  0  0  0  0  0  0  0  0  0  0
  140.4638   81.7308  221.3391 H   0  0  0  0  0  0  0  0  0  0  0  0
  142.7826   79.7651  222.2056 H   0  0  0  0  0  0  0  0  0  0  0  0
  142.9234   80.2006  223.9740 H   0  0  0  0  0  0  0  0  0  0  0  0
  142.6773   77.7585  223.5979 H   0  0  0  0  0  0  0  0  0  0  0  0
  141.3598   78.4507  224.5744 H   0  0  0  0  0  0  0  0  0  0  0  0
  142.2340   77.4812  220.3382 H   0  0  0  0  0  0  0  0  0  0  0  0
  142.3165   75.3057  219.1283 H   0  0  0  0  0  0  0  0  0  0  0  0
  141.0248   73.3844  220.0342 H   0  0  0  0  0  0  0  0  0  0  0  0
  138.5180   73.6034  222.7727 H   0  0  0  0  0  0  0  0  0  0  0  0
  140.1776   71.6592  221.2746 H   0  0  0  0  0  0  0  0  0  0  0  0
  141.4569   72.6699  226.7653 H   0  0  0  0  0  0  0  0  0  0  0  0
  141.5828   71.3991  228.9083 H   0  0  0  0  0  0  0  0  0  0  0  0
  140.5967   69.0926  228.9850 H   0  0  0  0  0  0  0  0  0  0  0  0
  139.5554   68.1702  226.9700 H   0  0  0  0  0  0  0  0  0  0  0  0
  137.7945   68.8298  222.5847 H   0  0  0  0  0  0  0  0  0  0  0  0
  138.3389   70.3681  221.6761 H   0  0  0  0  0  0  0  0  0  0  0  0
  140.2884   68.4186  221.9824 H   0  0  0  0  0  0  0  0  0  0  0  0
  138.1664   66.9708  221.5279 H   0  0  0  0  0  0  0  0  0  0  0  0
  138.2114   67.6366  219.8849 H   0  0  0  0  0  0  0  0  0  0  0  0
  140.3710   66.0033  221.3572 H   0  0  0  0  0  0  0  0  0  0  0  0
  139.6467   65.6742  219.7562 H   0  0  0  0  0  0  0  0  0  0  0  0
  141.8037   67.5358  220.5630 H   0  0  0  0  0  0  0  0  0  0  0  0
  141.5033   66.6223  219.0043 H   0  0  0  0  0  0  0  0  0  0  0  0
  141.4607   69.0148  218.6710 H   0  0  0  0  0  0  0  0  0  0  0  0
  139.8548   68.2200  218.3641 H   0  0  0  0  0  0  0  0  0  0  0  0
  140.6400   70.2333  220.4042 H   0  0  0  0  0  0  0  0  0  0  0  0
  139.0610   69.9331  219.6046 H   0  0  0  0  0  0  0  0  0  0  0  0
  139.6353   75.7981  223.2489 H   0  0  0  0  0  0  0  0  0  0  0  0
  139.7657   79.1608  221.2243 H   0  0  0  0  0  0  0  0  0  0  0  0
  138.8172   78.4153  222.5770 H   0  0  0  0  0  0  0  0  0  0  0  0
  139.1535   80.9176  222.6923 H   0  0  0  0  0  0  0  0  0  0  0  0
  139.6624   79.9359  224.1440 H   0  0  0  0  0  0  0  0  0  0  0  0
  1  2  1  0
  2  3  1  0
  3  4  1  0
  4  5  1  0
  5  6  1  0
  6  7  2  0
  7  8  1  0
  8  9  2  0
  9 10  1  0
 10 11  1  0
 11 12  2  0
 12 13  1  0
 13 14  2  0
 14 15  1  0
 15 16  2  0
 16 17  1  0
 17 18  2  0
 18 19  1  0
 19 20  2  0
 20 21  1  0
 21 22  2  0
 21 23  1  0
 23 24  1  0
 24 25  1  0
 25 26  1  0
 26 27  1  0
 27 28  1  0
 28 29  1  0
 29 30  1  0
 10 31  2  0
  5 32  1  0
 32 33  1  0
 33  2  1  0
 31  6  1  0
 23 13  1  0
 30 25  1  0
 20 15  1  0
  1 34  1  0
  1 35  1  0
  1 36  1  0
  3 37  1  0
  3 38  1  0
  4 39  1  0
  4 40  1  0
  7 41  1  0
  8 42  1  0
  9 43  1  0
 11 44  1  0
 12 45  1  0
 16 46  1  0
 17 47  1  0
 18 48  1  0
 19 49  1  0
 24 50  1  0
 24 51  1  0
 25 52  1  0
 26 53  1  0
 26 54  1  0
 27 55  1  0
 27 56  1  0
 28 57  1  0
 28 58  1  0
 29 59  1  0
 29 60  1  0
 30 61  1  0
 30 62  1  0
 31 63  1  0
 32 64  1  0
 32 65  1  0
 33 66  1  0
 33 67  1  0
M  END
>  <smiles>  (11) 
CN1CCN(c2cccc(/C=C/c3nc4ccccc4c(=O)n3CC3CCCCC3)c2)CC1

>  <score_type>  (11) 
oracle

>  <origin>  (11) 
autodockgpu

>  <m_score__min__energy>  (11) 
-9.1300000000000008

>  <m_primary>  (11) 
energy

>  <rmsd>  (11) 
6.514826317206678

>  <m_score__min__rmsd>  (11) 
6.514826317206678

>  <meeko>  (11) 
{"free_energy": -8.66, "intermolecular_energy": -10.45, "internal_energy": -1.48, "cluster_size": 21, "cluster_id": 2, "rank_in_cluster": 13}

>  <energy>  (11) 
-9.04

>  <cluster_rmsd>  (11) 
1.36

>  <cluster>  (11) 
2

$$$$

     RDKit          3D

 67 71  0  0  0  0  0  0  0  0999 V2000
  145.5380   70.8060  219.0120 C   0  0  0  0  0  0  0  0  0  0  0  0
  145.8700   72.2090  219.1380 N   0  0  0  0  0  0  0  0  0  0  0  0
  145.7140   72.6990  220.4790 C   0  0  0  0  0  0  0  0  0  0  0  0
  145.1780   74.1140  220.5450 C   0  0  0  0  0  0  0  0  0  0  0  0
  143.9140   74.1260  219.8420 N   0  0  0  0  0  0  0  0  0  0  0  0
  142.7070   74.6260  220.3530 C   0  0  0  0  0  0  0  0  0  0  0  0
  142.3160   75.9450  220.1710 C   0  0  0  0  0  0  0  0  0  0  0  0
  141.1210   76.4350  220.6800 C   0  0  0  0  0  0  0  0  0  0  0  0
  140.3120   75.5550  221.3880 C   0  0  0  0  0  0  0  0  0  0  0  0
  140.6530   74.2360  221.5980 C   0  0  0  0  0  0  0  0  0  0  0  0
  139.8320   73.2930  222.3330 C   0  0  0  0  0  0  0  0  0  0  0  0
  139.9620   71.9780  222.2660 C   0  0  0  0  0  0  0  0  0  0  0  0
  139.8560   71.1420  223.4780 C   0  0  0  0  0  0  0  0  0  0  0  0
  140.4190   71.6950  224.5860 N   0  0  0  0  0  0  0  0  0  0  0  0
  140.4560   71.0540  225.7650 C   0  0  0  0  0  0  0  0  0  0  0  0
  141.0130   71.5840  226.8970 C   0  0  0  0  0  0  0  0  0  0  0  0
  141.0400   70.8960  228.1120 C   0  0  0  0  0  0  0  0  0  0  0  0
  140.4760   69.6360  228.1480 C   0  0  0  0  0  0  0  0  0  0  0  0
  139.9240   69.1270  227.0060 C   0  0  0  0  0  0  0  0  0  0  0  0
  139.8990   69.8070  225.8080 C   0  0  0  0  0  0  0  0  0  0  0  0
  139.3300   69.2600  224.6680 C   0  0  0  0  0  0  0  0  0  0  0  0
  138.8500   68.1060  224.8110 O   0  0  0  0  0  0  0  0  0  0  0  0
  139.2950   69.9210  223.4760 N   0  0  0  0  0  0  0  0  0  0  0  0
  138.7110   69.3880  222.2890 C   0  0  0  0  0  0  0  0  0  0  0  0
  139.5900   68.6900  221.3150 C   0  0  0  0  0  0  0  0  0  0  0  0
  139.0310   67.4370  220.6950 C   0  0  0  0  0  0  0  0  0  0  0  0
  140.2490   66.5610  220.3150 C   0  0  0  0  0  0  0  0  0  0  0  0
  141.2910   67.4410  219.7290 C   0  0  0  0  0  0  0  0  0  0  0  0
  140.7580   68.6990  219.1280 C   0  0  0  0  0  0  0  0  0  0  0  0
  140.0300   69.5580  220.1440 C   0  0  0  0  0  0  0  0  0  0  0  0
  141.8590   73.8230  221.0600 C   0  0  0  0  0  0  0  0  0  0  0  0
  143.9240   73.5660  218.4920 C   0  0  0  0  0  0  0  0  0  0  0  0
  145.2870   73.0360  218.1200 C   0  0  0  0  0  0  0  0  0  0  0  0
  145.4331   70.3627  220.0132 H   0  0  0  0  0  0  0  0  0  0  0  0
  144.5903   70.7013  218.4635 H   0  0  0  0  0  0  0  0  0  0  0  0
  146.3383   70.2877  218.4635 H   0  0  0  0  0  0  0  0  0  0  0  0
  145.0165   72.0369  221.0130 H   0  0  0  0  0  0  0  0  0  0  0  0
  146.7132   72.7090  220.9388 H   0  0  0  0  0  0  0  0  0  0  0  0
  145.0290   74.4120  221.5933 H   0  0  0  0  0  0  0  0  0  0  0  0
  145.8857   74.8212  220.0879 H   0  0  0  0  0  0  0  0  0  0  0  0
  142.9729   76.6229  219.6063 H   0  0  0  0  0  0  0  0  0  0  0  0
  140.8250   77.4835  220.5280 H   0  0  0  0  0  0  0  0  0  0  0  0
  139.3608   75.9258  221.7976 H   0  0  0  0  0  0  0  0  0  0  0  0
  139.0486   73.6983  222.9903 H   0  0  0  0  0  0  0  0  0  0  0  0
  140.1518   71.5009  221.2932 H   0  0  0  0  0  0  0  0  0  0  0  0
  141.4561   72.5896  226.8481 H   0  0  0  0  0  0  0  0  0  0  0  0
  141.4946   71.3421  229.0089 H   0  0  0  0  0  0  0  0  0  0  0  0
  140.4711   69.0519  229.0801 H   0  0  0  0  0  0  0  0  0  0  0  0
  139.4767   68.1228  227.0454 H   0  0  0  0  0  0  0  0  0  0  0  0
  137.9390   68.6695  222.6019 H   0  0  0  0  0  0  0  0  0  0  0  0
  138.3569   70.2748  221.7429 H   0  0  0  0  0  0  0  0  0  0  0  0
  140.4329   68.4304  221.9724 H   0  0  0  0  0  0  0  0  0  0  0  0
  138.3911   66.9076  221.4164 H   0  0  0  0  0  0  0  0  0  0  0  0
  138.4134   67.6673  219.8144 H   0  0  0  0  0  0  0  0  0  0  0  0
  140.6441   66.0636  221.2130 H   0  0  0  0  0  0  0  0  0  0  0  0
  139.9503   65.7912  219.5882 H   0  0  0  0  0  0  0  0  0  0  0  0
  142.0016   67.7118  220.5238 H   0  0  0  0  0  0  0  0  0  0  0  0
  141.7628   66.8743  218.9128 H   0  0  0  0  0  0  0  0  0  0  0  0
  141.5974   69.2763  218.7131 H   0  0  0  0  0  0  0  0  0  0  0  0
  140.0374   68.4194  218.3453 H   0  0  0  0  0  0  0  0  0  0  0  0
  140.7032   70.3491  220.5058 H   0  0  0  0  0  0  0  0  0  0  0  0
  139.1476   70.0165  219.6736 H   0  0  0  0  0  0  0  0  0  0  0  0
  142.1551   72.7746  221.2126 H   0  0  0  0  0  0  0  0  0  0  0  0
  143.1953   72.7436  218.4414 H   0  0  0  0  0  0  0  0  0  0  0  0
  143.6621   74.3673  217.7854 H   0  0  0  0  0  0  0  0  0  0  0  0
  145.1915   72.4418  217.1992 H   0  0  0  0  0  0  0  0  0  0  0  0
  145.9493   73.9039  217.9853 H   0  0  0  0  0  0  0  0  0  0  0  0
  1  2  1  0
  2  3  1  0
  3  4  1  0
  4  5  1  0
  5  6  1  0
  6  7  2  0
  7  8  1  0
  8  9  2  0
  9 10  1  0
 10 11  1  0
 11 12  2  0
 12 13  1  0
 13 14  2  0
 14 15  1  0
 15 16  2  0
 16 17  1  0
 17 18  2  0
 18 19  1  0
 19 20  2  0
 20 21  1  0
 21 22  2  0
 21 23  1  0
 23 24  1  0
 24 25  1  0
 25 26  1  0
 26 27  1  0
 27 28  1  0
 28 29  1  0
 29 30  1  0
 10 31  2  0
  5 32  1  0
 32 33  1  0
 33  2  1  0
 31  6  1  0
 23 13  1  0
 30 25  1  0
 20 15  1  0
  1 34  1  0
  1 35  1  0
  1 36  1  0
  3 37  1  0
  3 38  1  0
  4 39  1  0
  4 40  1  0
  7 41  1  0
  8 42  1  0
  9 43  1  0
 11 44  1  0
 12 45  1  0
 16 46  1  0
 17 47  1  0
 18 48  1  0
 19 49  1  0
 24 50  1  0
 24 51  1  0
 25 52  1  0
 26 53  1  0
 26 54  1  0
 27 55  1  0
 27 56  1  0
 28 57  1  0
 28 58  1  0
 29 59  1  0
 29 60  1  0
 30 61  1  0
 30 62  1  0
 31 63  1  0
 32 64  1  0
 32 65  1  0
 33 66  1  0
 33 67  1  0
M  END
>  <smiles>  (12) 
CN1CCN(c2cccc(/C=C/c3nc4ccccc4c(=O)n3CC3CCCCC3)c2)CC1

>  <score_type>  (12) 
oracle

>  <origin>  (12) 
autodockgpu

>  <m_score__min__energy>  (12) 
-9.1300000000000008

>  <m_primary>  (12) 
energy

>  <rmsd>  (12) 
6.726631325285736

>  <m_score__min__rmsd>  (12) 
6.726631325285736

>  <meeko>  (12) 
{"free_energy": -8.9, "intermolecular_energy": -10.69, "internal_energy": -1.65, "cluster_size": 9, "cluster_id": 1, "rank_in_cluster": 6}

>  <energy>  (12) 
-8.95

>  <cluster_rmsd>  (12) 
0.6

>  <cluster>  (12) 
2

$$$$

     RDKit          3D

 67 71  0  0  0  0  0  0  0  0999 V2000
  131.3710   73.5010  226.7540 C   0  0  0  0  0  0  0  0  0  0  0  0
  132.7490   73.7760  227.0990 N   0  0  0  0  0  0  0  0  0  0  0  0
  133.2500   74.9690  226.4750 C   0  0  0  0  0  0  0  0  0  0  0  0
  134.6970   74.8600  226.0410 C   0  0  0  0  0  0  0  0  0  0  0  0
  134.7910   73.7310  225.1420 N   0  0  0  0  0  0  0  0  0  0  0  0
  135.3700   73.7570  223.8650 C   0  0  0  0  0  0  0  0  0  0  0  0
  135.0670   74.7410  222.9350 C   0  0  0  0  0  0  0  0  0  0  0  0
  135.6420   74.7610  221.6720 C   0  0  0  0  0  0  0  0  0  0  0  0
  136.5470   73.7540  221.3580 C   0  0  0  0  0  0  0  0  0  0  0  0
  136.8830   72.7530  222.2450 C   0  0  0  0  0  0  0  0  0  0  0  0
  137.8210   71.6880  221.9480 C   0  0  0  0  0  0  0  0  0  0  0  0
  139.0350   71.5960  222.4660 C   0  0  0  0  0  0  0  0  0  0  0  0
  139.2570   70.9450  223.7710 C   0  0  0  0  0  0  0  0  0  0  0  0
  140.0060   71.6770  224.6390 N   0  0  0  0  0  0  0  0  0  0  0  0
  140.3440   71.2190  225.8540 C   0  0  0  0  0  0  0  0  0  0  0  0
  141.0950   71.9320  226.7490 C   0  0  0  0  0  0  0  0  0  0  0  0
  141.4360   71.4330  228.0070 C   0  0  0  0  0  0  0  0  0  0  0  0
  140.9850   70.1700  228.3400 C   0  0  0  0  0  0  0  0  0  0  0  0
  140.2360   69.4770  227.4310 C   0  0  0  0  0  0  0  0  0  0  0  0
  139.9010   69.9710  226.1900 C   0  0  0  0  0  0  0  0  0  0  0  0
  139.1380   69.2390  225.2920 C   0  0  0  0  0  0  0  0  0  0  0  0
  138.7860   68.1010  225.6950 O   0  0  0  0  0  0  0  0  0  0  0  0
  138.7980   69.7150  224.0610 N   0  0  0  0  0  0  0  0  0  0  0  0
  138.0090   68.9900  223.1200 C   0  0  0  0  0  0  0  0  0  0  0  0
  136.5470   68.8710  223.3600 C   0  0  0  0  0  0  0  0  0  0  0  0
  135.9960   69.6690  224.5110 C   0  0  0  0  0  0  0  0  0  0  0  0
  134.7330   68.9170  224.9950 C   0  0  0  0  0  0  0  0  0  0  0  0
  133.9770   68.4610  223.8020 C   0  0  0  0  0  0  0  0  0  0  0  0
  134.2290   69.2720  222.5740 C   0  0  0  0  0  0  0  0  0  0  0  0
  135.6890   69.2490  222.1600 C   0  0  0  0  0  0  0  0  0  0  0  0
  136.2670   72.8010  223.4830 C   0  0  0  0  0  0  0  0  0  0  0  0
  134.2290   72.4730  225.6310 C   0  0  0  0  0  0  0  0  0  0  0  0
  133.6110   72.6330  226.9980 C   0  0  0  0  0  0  0  0  0  0  0  0
  130.7793   73.3829  227.6737 H   0  0  0  0  0  0  0  0  0  0  0  0
  130.9673   74.3363  226.1630 H   0  0  0  0  0  0  0  0  0  0  0  0
  131.3188   72.5747  226.1630 H   0  0  0  0  0  0  0  0  0  0  0  0
  132.6354   75.1829  225.5882 H   0  0  0  0  0  0  0  0  0  0  0  0
  133.1956   75.7736  227.2232 H   0  0  0  0  0  0  0  0  0  0  0  0
  135.0054   75.7803  225.5234 H   0  0  0  0  0  0  0  0  0  0  0  0
  135.3558   74.7218  226.9110 H   0  0  0  0  0  0  0  0  0  0  0  0
  134.3494   75.5291  223.2069 H   0  0  0  0  0  0  0  0  0  0  0  0
  135.3901   75.5468  220.9446 H   0  0  0  0  0  0  0  0  0  0  0  0
  137.0140   73.7555  220.3620 H   0  0  0  0  0  0  0  0  0  0  0  0
  137.5021   70.9042  221.2451 H   0  0  0  0  0  0  0  0  0  0  0  0
  139.8918   72.0113  221.9152 H   0  0  0  0  0  0  0  0  0  0  0  0
  141.4430   72.9364  226.4660 H   0  0  0  0  0  0  0  0  0  0  0  0
  142.0425   72.0243  228.7088 H   0  0  0  0  0  0  0  0  0  0  0  0
  141.2246   69.7302  229.3194 H   0  0  0  0  0  0  0  0  0  0  0  0
  139.8822   68.4721  227.7049 H   0  0  0  0  0  0  0  0  0  0  0  0
  138.1386   69.4789  222.1432 H   0  0  0  0  0  0  0  0  0  0  0  0
  138.3789   67.9571  223.1989 H   0  0  0  0  0  0  0  0  0  0  0  0
  136.4793   67.7976  223.5909 H   0  0  0  0  0  0  0  0  0  0  0  0
  136.7371   69.7300  225.3216 H   0  0  0  0  0  0  0  0  0  0  0  0
  135.7563   70.6983  224.2058 H   0  0  0  0  0  0  0  0  0  0  0  0
  135.0271   68.0490  225.6033 H   0  0  0  0  0  0  0  0  0  0  0  0
  134.1077   69.5819  225.6089 H   0  0  0  0  0  0  0  0  0  0  0  0
  134.2593   67.4189  223.5917 H   0  0  0  0  0  0  0  0  0  0  0  0
  132.9092   68.5718  224.0417 H   0  0  0  0  0  0  0  0  0  0  0  0
  133.6213   68.8670  221.7514 H   0  0  0  0  0  0  0  0  0  0  0  0
  133.9581   70.3146  222.7970 H   0  0  0  0  0  0  0  0  0  0  0  0
  135.8320   68.5092  221.3586 H   0  0  0  0  0  0  0  0  0  0  0  0
  135.9840   70.2439  221.7951 H   0  0  0  0  0  0  0  0  0  0  0  0
  136.5173   72.0144  224.2100 H   0  0  0  0  0  0  0  0  0  0  0  0
  133.4555   72.1307  224.9278 H   0  0  0  0  0  0  0  0  0  0  0  0
  135.0448   71.7390  225.7068 H   0  0  0  0  0  0  0  0  0  0  0  0
  133.0233   71.7310  227.2236 H   0  0  0  0  0  0  0  0  0  0  0  0
  134.4337   72.7801  227.7132 H   0  0  0  0  0  0  0  0  0  0  0  0
  1  2  1  0
  2  3  1  0
  3  4  1  0
  4  5  1  0
  5  6  1  0
  6  7  2  0
  7  8  1  0
  8  9  2  0
  9 10  1  0
 10 11  1  0
 11 12  2  0
 12 13  1  0
 13 14  2  0
 14 15  1  0
 15 16  2  0
 16 17  1  0
 17 18  2  0
 18 19  1  0
 19 20  2  0
 20 21  1  0
 21 22  2  0
 21 23  1  0
 23 24  1  0
 24 25  1  0
 25 26  1  0
 26 27  1  0
 27 28  1  0
 28 29  1  0
 29 30  1  0
 10 31  2  0
  5 32  1  0
 32 33  1  0
 33  2  1  0
 31  6  1  0
 23 13  1  0
 30 25  1  0
 20 15  1  0
  1 34  1  0
  1 35  1  0
  1 36  1  0
  3 37  1  0
  3 38  1  0
  4 39  1  0
  4 40  1  0
  7 41  1  0
  8 42  1  0
  9 43  1  0
 11 44  1  0
 12 45  1  0
 16 46  1  0
 17 47  1  0
 18 48  1  0
 19 49  1  0
 24 50  1  0
 24 51  1  0
 25 52  1  0
 26 53  1  0
 26 54  1  0
 27 55  1  0
 27 56  1  0
 28 57  1  0
 28 58  1  0
 29 59  1  0
 29 60  1  0
 30 61  1  0
 30 62  1  0
 31 63  1  0
 32 64  1  0
 32 65  1  0
 33 66  1  0
 33 67  1  0
M  END
>  <smiles>  (13) 
CN1CCN(c2cccc(/C=C/c3nc4ccccc4c(=O)n3CC3CCCCC3)c2)CC1

>  <score_type>  (13) 
oracle

>  <origin>  (13) 
autodockgpu

>  <m_score__min__energy>  (13) 
-9.1300000000000008

>  <m_primary>  (13) 
energy

>  <rmsd>  (13) 
9.548116142789638

>  <m_score__min__rmsd>  (13) 
9.548116142789638

>  <meeko>  (13) 
{"free_energy": -7.66, "intermolecular_energy": -9.45, "internal_energy": -2.5, "cluster_size": 6, "cluster_id": 8, "rank_in_cluster": 1}

>  <energy>  (13) 
-8.91

>  <cluster_rmsd>  (13) 
0.34

>  <cluster>  (13) 
2

$$$$

     RDKit          3D

 67 71  0  0  0  0  0  0  0  0999 V2000
  139.6100   69.3900  228.6800 C   0  0  0  0  0  0  0  0  0  0  0  0
  140.7350   69.8540  227.8970 N   0  0  0  0  0  0  0  0  0  0  0  0
  140.6680   71.2590  227.6070 C   0  0  0  0  0  0  0  0  0  0  0  0
  141.1730   71.6130  226.2230 C   0  0  0  0  0  0  0  0  0  0  0  0
  140.3890   70.8540  225.2740 N   0  0  0  0  0  0  0  0  0  0  0  0
  139.7200   71.3890  224.1630 C   0  0  0  0  0  0  0  0  0  0  0  0
  138.3720   71.1610  223.9300 C   0  0  0  0  0  0  0  0  0  0  0  0
  137.7160   71.6920  222.8290 C   0  0  0  0  0  0  0  0  0  0  0  0
  138.4570   72.4720  221.9490 C   0  0  0  0  0  0  0  0  0  0  0  0
  139.8000   72.7280  222.1330 C   0  0  0  0  0  0  0  0  0  0  0  0
  140.6010   73.5360  221.2350 C   0  0  0  0  0  0  0  0  0  0  0  0
  141.2300   74.6450  221.5870 C   0  0  0  0  0  0  0  0  0  0  0  0
  141.5380   75.6930  220.5940 C   0  0  0  0  0  0  0  0  0  0  0  0
  142.1420   75.2300  219.4660 N   0  0  0  0  0  0  0  0  0  0  0  0
  142.5350   76.0490  218.4780 C   0  0  0  0  0  0  0  0  0  0  0  0
  143.1430   75.6150  217.3330 C   0  0  0  0  0  0  0  0  0  0  0  0
  143.5440   76.4870  216.3190 C   0  0  0  0  0  0  0  0  0  0  0  0
  143.3040   77.8350  216.5010 C   0  0  0  0  0  0  0  0  0  0  0  0
  142.6940   78.2470  217.6520 C   0  0  0  0  0  0  0  0  0  0  0  0
  142.3000   77.3840  218.6520 C   0  0  0  0  0  0  0  0  0  0  0  0
  141.6820   77.8370  219.8080 C   0  0  0  0  0  0  0  0  0  0  0  0
  141.5180   79.0820  219.8730 O   0  0  0  0  0  0  0  0  0  0  0  0
  141.2850   76.9960  220.8050 N   0  0  0  0  0  0  0  0  0  0  0  0
  140.6410   77.4300  222.0010 C   0  0  0  0  0  0  0  0  0  0  0  0
  140.8820   78.8180  222.4740 C   0  0  0  0  0  0  0  0  0  0  0  0
  139.8760   79.3730  223.4470 C   0  0  0  0  0  0  0  0  0  0  0  0
  139.8970   80.9080  223.2660 C   0  0  0  0  0  0  0  0  0  0  0  0
  141.3100   81.3410  223.1230 C   0  0  0  0  0  0  0  0  0  0  0  0
  142.2980   80.4100  223.7440 C   0  0  0  0  0  0  0  0  0  0  0  0
  142.2380   79.0210  223.1380 C   0  0  0  0  0  0  0  0  0  0  0  0
  140.3820   72.1640  223.2550 C   0  0  0  0  0  0  0  0  0  0  0  0
  140.3050   69.4150  225.5170 C   0  0  0  0  0  0  0  0  0  0  0  0
  141.0420   69.0180  226.7720 C   0  0  0  0  0  0  0  0  0  0  0  0
  139.8437   69.4864  229.7505 H   0  0  0  0  0  0  0  0  0  0  0  0
  138.7231   69.9957  228.4423 H   0  0  0  0  0  0  0  0  0  0  0  0
  139.4080   68.3352  228.4423 H   0  0  0  0  0  0  0  0  0  0  0  0
  139.6197   71.5822  227.6888 H   0  0  0  0  0  0  0  0  0  0  0  0
  141.3190   71.7712  228.3308 H   0  0  0  0  0  0  0  0  0  0  0  0
  141.0466   72.6903  226.0400 H   0  0  0  0  0  0  0  0  0  0  0  0
  142.2424   71.3745  226.1250 H   0  0  0  0  0  0  0  0  0  0  0  0
  137.8057   70.5402  224.6399 H   0  0  0  0  0  0  0  0  0  0  0  0
  136.6460   71.5022  222.6583 H   0  0  0  0  0  0  0  0  0  0  0  0
  137.9526   72.9022  221.0712 H   0  0  0  0  0  0  0  0  0  0  0  0
  140.6919   73.2045  220.1901 H   0  0  0  0  0  0  0  0  0  0  0  0
  141.5282   74.7886  222.6360 H   0  0  0  0  0  0  0  0  0  0  0  0
  143.3232   74.5373  217.2057 H   0  0  0  0  0  0  0  0  0  0  0  0
  144.0337   76.1137  215.4075 H   0  0  0  0  0  0  0  0  0  0  0  0
  143.5990   78.5644  215.7323 H   0  0  0  0  0  0  0  0  0  0  0  0
  142.5077   79.3226  217.7876 H   0  0  0  0  0  0  0  0  0  0  0  0
  139.5576   77.3247  221.8427 H   0  0  0  0  0  0  0  0  0  0  0  0
  141.0802   76.7982  222.7871 H   0  0  0  0  0  0  0  0  0  0  0  0
  140.8073   79.3584  221.5188 H   0  0  0  0  0  0  0  0  0  0  0  0
  138.8738   78.9772  223.2257 H   0  0  0  0  0  0  0  0  0  0  0  0
  140.1218   79.0893  224.4810 H   0  0  0  0  0  0  0  0  0  0  0  0
  139.3303   81.1841  222.3646 H   0  0  0  0  0  0  0  0  0  0  0  0
  139.4363   81.3987  224.1361 H   0  0  0  0  0  0  0  0  0  0  0  0
  141.5394   81.4230  222.0503 H   0  0  0  0  0  0  0  0  0  0  0  0
  141.4028   82.3012  223.6516 H   0  0  0  0  0  0  0  0  0  0  0  0
  143.3092   80.8172  223.5965 H   0  0  0  0  0  0  0  0  0  0  0  0
  142.0528   80.3223  224.8127 H   0  0  0  0  0  0  0  0  0  0  0  0
  143.0344   78.9133  222.3869 H   0  0  0  0  0  0  0  0  0  0  0  0
  142.3770   78.2685  223.9282 H   0  0  0  0  0  0  0  0  0  0  0  0
  141.4519   72.3534  223.4269 H   0  0  0  0  0  0  0  0  0  0  0  0
  139.2471   69.1319  225.6200 H   0  0  0  0  0  0  0  0  0  0  0  0
  140.7706   68.8955  224.6665 H   0  0  0  0  0  0  0  0  0  0  0  0
  140.7720   67.9816  227.0228 H   0  0  0  0  0  0  0  0  0  0  0  0
  142.1173   69.1274  226.5677 H   0  0  0  0  0  0  0  0  0  0  0  0
  1  2  1  0
  2  3  1  0
  3  4  1  0
  4  5  1  0
  5  6  1  0
  6  7  2  0
  7  8  1  0
  8  9  2  0
  9 10  1  0
 10 11  1  0
 11 12  2  0
 12 13  1  0
 13 14  2  0
 14 15  1  0
 15 16  2  0
 16 17  1  0
 17 18  2  0
 18 19  1  0
 19 20  2  0
 20 21  1  0
 21 22  2  0
 21 23  1  0
 23 24  1  0
 24 25  1  0
 25 26  1  0
 26 27  1  0
 27 28  1  0
 28 29  1  0
 29 30  1  0
 10 31  2  0
  5 32  1  0
 32 33  1  0
 33  2  1  0
 31  6  1  0
 23 13  1  0
 30 25  1  0
 20 15  1  0
  1 34  1  0
  1 35  1  0
  1 36  1  0
  3 37  1  0
  3 38  1  0
  4 39  1  0
  4 40  1  0
  7 41  1  0
  8 42  1  0
  9 43  1  0
 11 44  1  0
 12 45  1  0
 16 46  1  0
 17 47  1  0
 18 48  1  0
 19 49  1  0
 24 50  1  0
 24 51  1  0
 25 52  1  0
 26 53  1  0
 26 54  1  0
 27 55  1  0
 27 56  1  0
 28 57  1  0
 28 58  1  0
 29 59  1  0
 29 60  1  0
 30 61  1  0
 30 62  1  0
 31 63  1  0
 32 64  1  0
 32 65  1  0
 33 66  1  0
 33 67  1  0
M  END
>  <smiles>  (14) 
CN1CCN(c2cccc(/C=C/c3nc4ccccc4c(=O)n3CC3CCCCC3)c2)CC1

>  <score_type>  (14) 
oracle

>  <origin>  (14) 
autodockgpu

>  <m_score__min__energy>  (14) 
-9.1300000000000008

>  <m_primary>  (14) 
energy

>  <rmsd>  (14) 
9.437547346776588

>  <m_score__min__rmsd>  (14) 
9.437547346776588

>  <meeko>  (14) 
{"free_energy": -8.76, "intermolecular_energy": -10.55, "internal_energy": -1.3, "cluster_size": 4, "cluster_id": 4, "rank_in_cluster": 2}

>  <energy>  (14) 
-8.88

>  <cluster_rmsd>  (14) 
1.17

>  <cluster>  (14) 
2

$$$$

     RDKit          3D

 67 71  0  0  0  0  0  0  0  0999 V2000
  139.6380   69.3540  228.7040 C   0  0  0  0  0  0  0  0  0  0  0  0
  140.7270   69.8120  227.8680 N   0  0  0  0  0  0  0  0  0  0  0  0
  140.5810   71.1830  227.4670 C   0  0  0  0  0  0  0  0  0  0  0  0
  141.0490   71.4500  226.0510 C   0  0  0  0  0  0  0  0  0  0  0  0
  140.2960   70.5750  225.1800 N   0  0  0  0  0  0  0  0  0  0  0  0
  139.5860   70.9820  224.0400 C   0  0  0  0  0  0  0  0  0  0  0  0
  138.5030   70.2670  223.5480 C   0  0  0  0  0  0  0  0  0  0  0  0
  137.8050   70.6740  222.4200 C   0  0  0  0  0  0  0  0  0  0  0  0
  138.2260   71.8360  221.7840 C   0  0  0  0  0  0  0  0  0  0  0  0
  139.2960   72.5820  222.2310 C   0  0  0  0  0  0  0  0  0  0  0  0
  139.7600   73.7980  221.5900 C   0  0  0  0  0  0  0  0  0  0  0  0
  141.0230   74.1910  221.5600 C   0  0  0  0  0  0  0  0  0  0  0  0
  141.3730   75.6040  221.3120 C   0  0  0  0  0  0  0  0  0  0  0  0
  140.9780   76.4560  222.2950 N   0  0  0  0  0  0  0  0  0  0  0  0
  141.1720   77.7820  222.2130 C   0  0  0  0  0  0  0  0  0  0  0  0
  140.7880   78.6640  223.1840 C   0  0  0  0  0  0  0  0  0  0  0  0
  141.0000   80.0400  223.0750 C   0  0  0  0  0  0  0  0  0  0  0  0
  141.6250   80.5040  221.9340 C   0  0  0  0  0  0  0  0  0  0  0  0
  142.0020   79.6040  220.9760 C   0  0  0  0  0  0  0  0  0  0  0  0
  141.7910   78.2470  221.0860 C   0  0  0  0  0  0  0  0  0  0  0  0
  142.1870   77.3620  220.0950 C   0  0  0  0  0  0  0  0  0  0  0  0
  142.7420   77.8910  219.0980 O   0  0  0  0  0  0  0  0  0  0  0  0
  141.9870   76.0170  220.1890 N   0  0  0  0  0  0  0  0  0  0  0  0
  142.3890   75.0820  219.1910 C   0  0  0  0  0  0  0  0  0  0  0  0
  143.4960   74.1410  219.5030 C   0  0  0  0  0  0  0  0  0  0  0  0
  144.3240   74.4680  220.7180 C   0  0  0  0  0  0  0  0  0  0  0  0
  145.7200   73.8490  220.4710 C   0  0  0  0  0  0  0  0  0  0  0  0
  145.5340   72.5040  219.8730 C   0  0  0  0  0  0  0  0  0  0  0  0
  144.2200   71.8710  220.1910 C   0  0  0  0  0  0  0  0  0  0  0  0
  143.0490   72.6980  219.6970 C   0  0  0  0  0  0  0  0  0  0  0  0
  139.9410   72.1120  223.3610 C   0  0  0  0  0  0  0  0  0  0  0  0
  140.2930   69.1580  225.5390 C   0  0  0  0  0  0  0  0  0  0  0  0
  141.0650   68.9040  226.8090 C   0  0  0  0  0  0  0  0  0  0  0  0
  139.9143   69.4702  229.7624 H   0  0  0  0  0  0  0  0  0  0  0  0
  138.7378   69.9497  228.4925 H   0  0  0  0  0  0  0  0  0  0  0  0
  139.4342   68.2939  228.4925 H   0  0  0  0  0  0  0  0  0  0  0  0
  139.5179   71.4561  227.5400 H   0  0  0  0  0  0  0  0  0  0  0  0
  141.2126   71.7856  228.1363 H   0  0  0  0  0  0  0  0  0  0  0  0
  140.8614   72.5004  225.7838 H   0  0  0  0  0  0  0  0  0  0  0  0
  142.1286   71.2626  225.9545 H   0  0  0  0  0  0  0  0  0  0  0  0
  138.1885   69.3501  224.0679 H   0  0  0  0  0  0  0  0  0  0  0  0
  136.9481   70.0970  222.0421 H   0  0  0  0  0  0  0  0  0  0  0  0
  137.6840   72.1739  220.8884 H   0  0  0  0  0  0  0  0  0  0  0  0
  139.0120   74.4356  221.0961 H   0  0  0  0  0  0  0  0  0  0  0  0
  141.8239   73.4546  221.7221 H   0  0  0  0  0  0  0  0  0  0  0  0
  140.2929   78.2750  224.0860 H   0  0  0  0  0  0  0  0  0  0  0  0
  140.6805   80.7300  223.8698 H   0  0  0  0  0  0  0  0  0  0  0  0
  141.8161   81.5787  221.7983 H   0  0  0  0  0  0  0  0  0  0  0  0
  142.4993   79.9830  220.0710 H   0  0  0  0  0  0  0  0  0  0  0  0
  141.5068   74.4739  218.9422 H   0  0  0  0  0  0  0  0  0  0  0  0
  142.7903   75.7095  218.3815 H   0  0  0  0  0  0  0  0  0  0  0  0
  144.1076   74.2625  218.5968 H   0  0  0  0  0  0  0  0  0  0  0  0
  144.4069   75.5580  220.8404 H   0  0  0  0  0  0  0  0  0  0  0  0
  143.8654   74.0676  221.6342 H   0  0  0  0  0  0  0  0  0  0  0  0
  146.2929   74.4866  219.7816 H   0  0  0  0  0  0  0  0  0  0  0  0
  146.2723   73.7692  221.4189 H   0  0  0  0  0  0  0  0  0  0  0  0
  145.6166   72.5976  218.7801 H   0  0  0  0  0  0  0  0  0  0  0  0
  146.3107   71.8554  220.3043 H   0  0  0  0  0  0  0  0  0  0  0  0
  144.1798   70.8805  219.7143 H   0  0  0  0  0  0  0  0  0  0  0  0
  144.1396   71.7934  221.2853 H   0  0  0  0  0  0  0  0  0  0  0  0
  142.6913   72.2925  218.7391 H   0  0  0  0  0  0  0  0  0  0  0  0
  142.2351   72.6613  220.4360 H   0  0  0  0  0  0  0  0  0  0  0  0
  140.7987   72.6882  223.7383 H   0  0  0  0  0  0  0  0  0  0  0  0
  139.2533   68.8284  225.6816 H   0  0  0  0  0  0  0  0  0  0  0  0
  140.7758   68.5966  224.7255 H   0  0  0  0  0  0  0  0  0  0  0  0
  140.8541   67.8787  227.1471 H   0  0  0  0  0  0  0  0  0  0  0  0
  142.1304   69.0526  226.5789 H   0  0  0  0  0  0  0  0  0  0  0  0
  1  2  1  0
  2  3  1  0
  3  4  1  0
  4  5  1  0
  5  6  1  0
  6  7  2  0
  7  8  1  0
  8  9  2  0
  9 10  1  0
 10 11  1  0
 11 12  2  0
 12 13  1  0
 13 14  2  0
 14 15  1  0
 15 16  2  0
 16 17  1  0
 17 18  2  0
 18 19  1  0
 19 20  2  0
 20 21  1  0
 21 22  2  0
 21 23  1  0
 23 24  1  0
 24 25  1  0
 25 26  1  0
 26 27  1  0
 27 28  1  0
 28 29  1  0
 29 30  1  0
 10 31  2  0
  5 32  1  0
 32 33  1  0
 33  2  1  0
 31  6  1  0
 23 13  1  0
 30 25  1  0
 20 15  1  0
  1 34  1  0
  1 35  1  0
  1 36  1  0
  3 37  1  0
  3 38  1  0
  4 39  1  0
  4 40  1  0
  7 41  1  0
  8 42  1  0
  9 43  1  0
 11 44  1  0
 12 45  1  0
 16 46  1  0
 17 47  1  0
 18 48  1  0
 19 49  1  0
 24 50  1  0
 24 51  1  0
 25 52  1  0
 26 53  1  0
 26 54  1  0
 27 55  1  0
 27 56  1  0
 28 57  1  0
 28 58  1  0
 29 59  1  0
 29 60  1  0
 30 61  1  0
 30 62  1  0
 31 63  1  0
 32 64  1  0
 32 65  1  0
 33 66  1  0
 33 67  1  0
M  END
>  <smiles>  (15) 
CN1CCN(c2cccc(/C=C/c3nc4ccccc4c(=O)n3CC3CCCCC3)c2)CC1

>  <score_type>  (15) 
oracle

>  <origin>  (15) 
autodockgpu

>  <m_score__min__energy>  (15) 
-9.1300000000000008

>  <m_primary>  (15) 
energy

>  <rmsd>  (15) 
9.597663947561797

>  <m_score__min__rmsd>  (15) 
9.597663947561797

>  <meeko>  (15) 
{"free_energy": -8.85, "intermolecular_energy": -10.64, "internal_energy": -1.62, "cluster_size": 5, "cluster_id": 3, "rank_in_cluster": 2}

>  <energy>  (15) 
-8.87

>  <cluster_rmsd>  (15) 
0.6

>  <cluster>  (15) 
2

$$$$

     RDKit          3D

 67 71  0  0  0  0  0  0  0  0999 V2000
  140.1380   68.8330  228.6800 C   0  0  0  0  0  0  0  0  0  0  0  0
  141.0370   69.2960  227.6440 N   0  0  0  0  0  0  0  0  0  0  0  0
  140.9030   70.7020  227.3810 C   0  0  0  0  0  0  0  0  0  0  0  0
  141.0510   71.0570  225.9160 C   0  0  0  0  0  0  0  0  0  0  0  0
  140.0560   70.3000  225.1890 N   0  0  0  0  0  0  0  0  0  0  0  0
  139.1350   70.8380  224.2780 C   0  0  0  0  0  0  0  0  0  0  0  0
  137.8050   70.4410  224.2480 C   0  0  0  0  0  0  0  0  0  0  0  0
  136.8990   70.9760  223.3440 C   0  0  0  0  0  0  0  0  0  0  0  0
  137.3640   71.9360  222.4530 C   0  0  0  0  0  0  0  0  0  0  0  0
  138.6750   72.3640  222.4400 C   0  0  0  0  0  0  0  0  0  0  0  0
  139.1920   73.3620  221.5230 C   0  0  0  0  0  0  0  0  0  0  0  0
  140.4760   73.6470  221.3760 C   0  0  0  0  0  0  0  0  0  0  0  0
  140.9350   75.0440  221.2550 C   0  0  0  0  0  0  0  0  0  0  0  0
  140.3440   75.9020  222.1300 N   0  0  0  0  0  0  0  0  0  0  0  0
  140.6080   77.2180  222.1310 C   0  0  0  0  0  0  0  0  0  0  0  0
  140.0320   78.1040  222.9980 C   0  0  0  0  0  0  0  0  0  0  0  0
  140.3210   79.4700  222.9770 C   0  0  0  0  0  0  0  0  0  0  0  0
  141.2290   79.9190  222.0380 C   0  0  0  0  0  0  0  0  0  0  0  0
  141.7930   79.0150  221.1810 C   0  0  0  0  0  0  0  0  0  0  0  0
  141.5050   77.6680  221.2030 C   0  0  0  0  0  0  0  0  0  0  0  0
  142.0970   76.7790  220.3190 C   0  0  0  0  0  0  0  0  0  0  0  0
  142.9030   77.2950  219.5030 O   0  0  0  0  0  0  0  0  0  0  0  0
  141.8240   75.4430  220.3290 N   0  0  0  0  0  0  0  0  0  0  0  0
  142.4220   74.5040  219.4390 C   0  0  0  0  0  0  0  0  0  0  0  0
  143.7110   73.8750  219.8290 C   0  0  0  0  0  0  0  0  0  0  0  0
  144.4760   73.1890  218.7280 C   0  0  0  0  0  0  0  0  0  0  0  0
  145.3250   72.0900  219.4090 C   0  0  0  0  0  0  0  0  0  0  0  0
  145.8990   72.6520  220.6580 C   0  0  0  0  0  0  0  0  0  0  0  0
  146.0360   74.1380  220.6510 C   0  0  0  0  0  0  0  0  0  0  0  0
  144.7020   74.8380  220.4690 C   0  0  0  0  0  0  0  0  0  0  0  0
  139.5180   71.7840  223.3720 C   0  0  0  0  0  0  0  0  0  0  0  0
  140.0310   68.8610  225.4440 C   0  0  0  0  0  0  0  0  0  0  0  0
  141.0540   68.4610  226.4780 C   0  0  0  0  0  0  0  0  0  0  0  0
  140.5701   69.0555  229.6668 H   0  0  0  0  0  0  0  0  0  0  0  0
  139.1692   69.3443  228.5802 H   0  0  0  0  0  0  0  0  0  0  0  0
  139.9916   67.7474  228.5802 H   0  0  0  0  0  0  0  0  0  0  0  0
  139.9081   71.0267  227.7196 H   0  0  0  0  0  0  0  0  0  0  0  0
  141.7135   71.2121  227.9221 H   0  0  0  0  0  0  0  0  0  0  0  0
  140.8847   72.1346  225.7709 H   0  0  0  0  0  0  0  0  0  0  0  0
  142.0627   70.8174  225.5568 H   0  0  0  0  0  0  0  0  0  0  0  0
  137.4593   69.6794  224.9625 H   0  0  0  0  0  0  0  0  0  0  0  0
  135.8480   70.6514  223.3327 H   0  0  0  0  0  0  0  0  0  0  0  0
  136.6587   72.3715  221.7298 H   0  0  0  0  0  0  0  0  0  0  0  0
  138.4688   73.9189  220.9090 H   0  0  0  0  0  0  0  0  0  0  0  0
  141.2120   72.8302  221.3436 H   0  0  0  0  0  0  0  0  0  0  0  0
  139.3135   77.7266  223.7405 H   0  0  0  0  0  0  0  0  0  0  0  0
  139.8423   80.1641  223.6835 H   0  0  0  0  0  0  0  0  0  0  0  0
  141.4938   80.9851  221.9806 H   0  0  0  0  0  0  0  0  0  0  0  0
  142.5138   79.3822  220.4356 H   0  0  0  0  0  0  0  0  0  0  0  0
  141.6963   73.6908  219.2902 H   0  0  0  0  0  0  0  0  0  0  0  0
  142.6730   75.1002  218.5493 H   0  0  0  0  0  0  0  0  0  0  0  0
  143.3464   73.1246  220.5459 H   0  0  0  0  0  0  0  0  0  0  0  0
  143.7806   72.7392  218.0040 H   0  0  0  0  0  0  0  0  0  0  0  0
  145.1096   73.9004  218.1780 H   0  0  0  0  0  0  0  0  0  0  0  0
  144.6902   71.2240  219.6480 H   0  0  0  0  0  0  0  0  0  0  0  0
  146.1305   71.7613  218.7358 H   0  0  0  0  0  0  0  0  0  0  0  0
  145.2453   72.3693  221.4963 H   0  0  0  0  0  0  0  0  0  0  0  0
  146.9146   72.2403  220.7536 H   0  0  0  0  0  0  0  0  0  0  0  0
  146.4755   74.4573  221.6075 H   0  0  0  0  0  0  0  0  0  0  0  0
  146.6791   74.4129  219.8020 H   0  0  0  0  0  0  0  0  0  0  0  0
  144.3200   75.1610  221.4486 H   0  0  0  0  0  0  0  0  0  0  0  0
  144.8327   75.7169  219.8205 H   0  0  0  0  0  0  0  0  0  0  0  0
  140.5692   72.1079  223.3832 H   0  0  0  0  0  0  0  0  0  0  0  0
  139.0305   68.5800  225.8047 H   0  0  0  0  0  0  0  0  0  0  0  0
  140.2710   68.3415  224.5046 H   0  0  0  0  0  0  0  0  0  0  0  0
  140.8515   67.4250  226.7872 H   0  0  0  0  0  0  0  0  0  0  0  0
  142.0457   68.5682  226.0143 H   0  0  0  0  0  0  0  0  0  0  0  0
  1  2  1  0
  2  3  1  0
  3  4  1  0
  4  5  1  0
  5  6  1  0
  6  7  2  0
  7  8  1  0
  8  9  2  0
  9 10  1  0
 10 11  1  0
 11 12  2  0
 12 13  1  0
 13 14  2  0
 14 15  1  0
 15 16  2  0
 16 17  1  0
 17 18  2  0
 18 19  1  0
 19 20  2  0
 20 21  1  0
 21 22  2  0
 21 23  1  0
 23 24  1  0
 24 25  1  0
 25 26  1  0
 26 27  1  0
 27 28  1  0
 28 29  1  0
 29 30  1  0
 10 31  2  0
  5 32  1  0
 32 33  1  0
 33  2  1  0
 31  6  1  0
 23 13  1  0
 30 25  1  0
 20 15  1  0
  1 34  1  0
  1 35  1  0
  1 36  1  0
  3 37  1  0
  3 38  1  0
  4 39  1  0
  4 40  1  0
  7 41  1  0
  8 42  1  0
  9 43  1  0
 11 44  1  0
 12 45  1  0
 16 46  1  0
 17 47  1  0
 18 48  1  0
 19 49  1  0
 24 50  1  0
 24 51  1  0
 25 52  1  0
 26 53  1  0
 26 54  1  0
 27 55  1  0
 27 56  1  0
 28 57  1  0
 28 58  1  0
 29 59  1  0
 29 60  1  0
 30 61  1  0
 30 62  1  0
 31 63  1  0
 32 64  1  0
 32 65  1  0
 33 66  1  0
 33 67  1  0
M  END
>  <smiles>  (16) 
CN1CCN(c2cccc(/C=C/c3nc4ccccc4c(=O)n3CC3CCCCC3)c2)CC1

>  <score_type>  (16) 
oracle

>  <origin>  (16) 
autodockgpu

>  <m_score__min__energy>  (16) 
-9.1300000000000008

>  <m_primary>  (16) 
energy

>  <rmsd>  (16) 
9.845554518701222

>  <m_score__min__rmsd>  (16) 
9.845554518701222

>  <meeko>  (16) 
{"free_energy": -8.68, "intermolecular_energy": -10.47, "internal_energy": -1.5, "cluster_size": 5, "cluster_id": 3, "rank_in_cluster": 3}

>  <energy>  (16) 
-8.78

>  <cluster_rmsd>  (16) 
0.89

>  <cluster>  (16) 
2

$$$$

     RDKit          3D

 67 71  0  0  0  0  0  0  0  0999 V2000
  141.9310   79.3500  223.9310 C   0  0  0  0  0  0  0  0  0  0  0  0
  140.9090   79.4320  222.9100 N   0  0  0  0  0  0  0  0  0  0  0  0
  139.6050   79.0820  223.4000 C   0  0  0  0  0  0  0  0  0  0  0  0
  138.7710   78.3140  222.3960 C   0  0  0  0  0  0  0  0  0  0  0  0
  139.5190   77.1300  222.0340 N   0  0  0  0  0  0  0  0  0  0  0  0
  139.0250   75.8180  222.0650 C   0  0  0  0  0  0  0  0  0  0  0  0
  137.6800   75.5370  222.2640 C   0  0  0  0  0  0  0  0  0  0  0  0
  137.1970   74.2370  222.2950 C   0  0  0  0  0  0  0  0  0  0  0  0
  138.1110   73.2040  222.1190 C   0  0  0  0  0  0  0  0  0  0  0  0
  139.4570   73.4280  221.9190 C   0  0  0  0  0  0  0  0  0  0  0  0
  140.4340   72.3730  221.7330 C   0  0  0  0  0  0  0  0  0  0  0  0
  140.2240   71.1000  222.0230 C   0  0  0  0  0  0  0  0  0  0  0  0
  140.0370   70.6590  223.4190 C   0  0  0  0  0  0  0  0  0  0  0  0
  140.6100   71.4770  224.3420 N   0  0  0  0  0  0  0  0  0  0  0  0
  140.5790   71.2060  225.6570 C   0  0  0  0  0  0  0  0  0  0  0  0
  141.1450   72.0080  226.6090 C   0  0  0  0  0  0  0  0  0  0  0  0
  141.1000   71.7030  227.9700 C   0  0  0  0  0  0  0  0  0  0  0  0
  140.4530   70.5420  228.3460 C   0  0  0  0  0  0  0  0  0  0  0  0
  139.8940   69.7550  227.3780 C   0  0  0  0  0  0  0  0  0  0  0  0
  139.9400   70.0580  226.0350 C   0  0  0  0  0  0  0  0  0  0  0  0
  139.3610   69.2370  225.0800 C   0  0  0  0  0  0  0  0  0  0  0  0
  138.8030   68.2040  225.5310 O   0  0  0  0  0  0  0  0  0  0  0  0
  139.3960   69.5240  223.7470 N   0  0  0  0  0  0  0  0  0  0  0  0
  138.8040   68.7030  222.7420 C   0  0  0  0  0  0  0  0  0  0  0  0
  137.4100   68.9950  222.3170 C   0  0  0  0  0  0  0  0  0  0  0  0
  136.4690   67.8200  222.2750 C   0  0  0  0  0  0  0  0  0  0  0  0
  135.3920   68.1650  221.2200 C   0  0  0  0  0  0  0  0  0  0  0  0
  135.0090   69.5890  221.3930 C   0  0  0  0  0  0  0  0  0  0  0  0
  135.2470   70.1210  222.7670 C   0  0  0  0  0  0  0  0  0  0  0  0
  136.7080   70.0430  223.1700 C   0  0  0  0  0  0  0  0  0  0  0  0
  139.8610   74.7510  221.9010 C   0  0  0  0  0  0  0  0  0  0  0  0
  140.8980   77.3490  221.6030 C   0  0  0  0  0  0  0  0  0  0  0  0
  141.2770   78.8080  221.6710 C   0  0  0  0  0  0  0  0  0  0  0  0
  141.4605   79.3877  224.9246 H   0  0  0  0  0  0  0  0  0  0  0  0
  142.4829   78.4047  223.8223 H   0  0  0  0  0  0  0  0  0  0  0  0
  142.6265   80.1952  223.8223 H   0  0  0  0  0  0  0  0  0  0  0  0
  139.7258   78.4614  224.3002 H   0  0  0  0  0  0  0  0  0  0  0  0
  139.0745   80.0222  223.6111 H   0  0  0  0  0  0  0  0  0  0  0  0
  137.8084   78.0287  222.8455 H   0  0  0  0  0  0  0  0  0  0  0  0
  138.5628   78.9303  221.5090 H   0  0  0  0  0  0  0  0  0  0  0  0
  136.9758   76.3708  222.4013 H   0  0  0  0  0  0  0  0  0  0  0  0
  136.1282   74.0305  222.4533 H   0  0  0  0  0  0  0  0  0  0  0  0
  137.7458   72.1666  222.1401 H   0  0  0  0  0  0  0  0  0  0  0  0
  141.4163   72.6502  221.3229 H   0  0  0  0  0  0  0  0  0  0  0  0
  140.1881   70.3584  221.2113 H   0  0  0  0  0  0  0  0  0  0  0  0
  141.6553   72.9287  226.2898 H   0  0  0  0  0  0  0  0  0  0  0  0
  141.5635   72.3640  228.7172 H   0  0  0  0  0  0  0  0  0  0  0  0
  140.3887   70.2556  229.4061 H   0  0  0  0  0  0  0  0  0  0  0  0
  139.3811   68.8324  227.6874 H   0  0  0  0  0  0  0  0  0  0  0  0
  139.4386   68.7775  221.8466 H   0  0  0  0  0  0  0  0  0  0  0  0
  138.7400   67.7094  223.2097 H   0  0  0  0  0  0  0  0  0  0  0  0
  137.5950   69.3555  221.2944 H   0  0  0  0  0  0  0  0  0  0  0  0
  137.0106   66.9084  221.9825 H   0  0  0  0  0  0  0  0  0  0  0  0
  136.0181   67.6330  223.2608 H   0  0  0  0  0  0  0  0  0  0  0  0
  135.7978   68.0091  220.2095 H   0  0  0  0  0  0  0  0  0  0  0  0
  134.5124   67.5175  221.3507 H   0  0  0  0  0  0  0  0  0  0  0  0
  135.5931   70.1926  220.6828 H   0  0  0  0  0  0  0  0  0  0  0  0
  133.9257   69.6505  221.2121 H   0  0  0  0  0  0  0  0  0  0  0  0
  134.9268   71.1729  222.7994 H   0  0  0  0  0  0  0  0  0  0  0  0
  134.6703   69.5036  223.4714 H   0  0  0  0  0  0  0  0  0  0  0  0
  137.1847   71.0222  223.0152 H   0  0  0  0  0  0  0  0  0  0  0  0
  136.7831   69.7647  224.2316 H   0  0  0  0  0  0  0  0  0  0  0  0
  140.9299   74.9577  221.7436 H   0  0  0  0  0  0  0  0  0  0  0  0
  141.5715   76.7746  222.2561 H   0  0  0  0  0  0  0  0  0  0  0  0
  140.9879   77.0189  220.5576 H   0  0  0  0  0  0  0  0  0  0  0  0
  142.3668   78.8919  221.5478 H   0  0  0  0  0  0  0  0  0  0  0  0
  140.7287   79.3252  220.8698 H   0  0  0  0  0  0  0  0  0  0  0  0
  1  2  1  0
  2  3  1  0
  3  4  1  0
  4  5  1  0
  5  6  1  0
  6  7  2  0
  7  8  1  0
  8  9  2  0
  9 10  1  0
 10 11  1  0
 11 12  2  0
 12 13  1  0
 13 14  2  0
 14 15  1  0
 15 16  2  0
 16 17  1  0
 17 18  2  0
 18 19  1  0
 19 20  2  0
 20 21  1  0
 21 22  2  0
 21 23  1  0
 23 24  1  0
 24 25  1  0
 25 26  1  0
 26 27  1  0
 27 28  1  0
 28 29  1  0
 29 30  1  0
 10 31  2  0
  5 32  1  0
 32 33  1  0
 33  2  1  0
 31  6  1  0
 23 13  1  0
 30 25  1  0
 20 15  1  0
  1 34  1  0
  1 35  1  0
  1 36  1  0
  3 37  1  0
  3 38  1  0
  4 39  1  0
  4 40  1  0
  7 41  1  0
  8 42  1  0
  9 43  1  0
 11 44  1  0
 12 45  1  0
 16 46  1  0
 17 47  1  0
 18 48  1  0
 19 49  1  0
 24 50  1  0
 24 51  1  0
 25 52  1  0
 26 53  1  0
 26 54  1  0
 27 55  1  0
 27 56  1  0
 28 57  1  0
 28 58  1  0
 29 59  1  0
 29 60  1  0
 30 61  1  0
 30 62  1  0
 31 63  1  0
 32 64  1  0
 32 65  1  0
 33 66  1  0
 33 67  1  0
M  END
>  <smiles>  (17) 
CN1CCN(c2cccc(/C=C/c3nc4ccccc4c(=O)n3CC3CCCCC3)c2)CC1

>  <score_type>  (17) 
oracle

>  <origin>  (17) 
autodockgpu

>  <m_score__min__energy>  (17) 
-9.1300000000000008

>  <m_primary>  (17) 
energy

>  <rmsd>  (17) 
7.104767649195349

>  <m_score__min__rmsd>  (17) 
7.104767649195349

>  <meeko>  (17) 
{"free_energy": -7.99, "intermolecular_energy": -9.78, "internal_energy": -2.09, "cluster_size": 21, "cluster_id": 2, "rank_in_cluster": 20}

>  <energy>  (17) 
-8.77

>  <cluster_rmsd>  (17) 
0.74

>  <cluster>  (17) 
2

$$$$

     RDKit          3D

 67 71  0  0  0  0  0  0  0  0999 V2000
  141.6350   81.5200  221.7810 C   0  0  0  0  0  0  0  0  0  0  0  0
  141.5840   80.6540  222.9390 N   0  0  0  0  0  0  0  0  0  0  0  0
  142.2920   79.4200  222.7400 C   0  0  0  0  0  0  0  0  0  0  0  0
  141.6170   78.2270  223.3860 C   0  0  0  0  0  0  0  0  0  0  0  0
  140.2790   78.1470  222.8430 N   0  0  0  0  0  0  0  0  0  0  0  0
  139.7030   77.0000  222.2750 C   0  0  0  0  0  0  0  0  0  0  0  0
  138.3300   76.8070  222.2310 C   0  0  0  0  0  0  0  0  0  0  0  0
  137.7650   75.6700  221.6690 C   0  0  0  0  0  0  0  0  0  0  0  0
  138.6260   74.7140  221.1440 C   0  0  0  0  0  0  0  0  0  0  0  0
  139.9970   74.8570  221.1630 C   0  0  0  0  0  0  0  0  0  0  0  0
  140.9210   73.8780  220.6240 C   0  0  0  0  0  0  0  0  0  0  0  0
  141.9980   73.4400  221.2550 C   0  0  0  0  0  0  0  0  0  0  0  0
  143.0770   72.7450  220.5250 C   0  0  0  0  0  0  0  0  0  0  0  0
  142.8930   71.4020  220.4070 N   0  0  0  0  0  0  0  0  0  0  0  0
  143.7970   70.6060  219.8140 C   0  0  0  0  0  0  0  0  0  0  0  0
  143.6410   69.2540  219.6790 C   0  0  0  0  0  0  0  0  0  0  0  0
  144.5960   68.4470  219.0590 C   0  0  0  0  0  0  0  0  0  0  0  0
  145.7330   69.0600  218.5690 C   0  0  0  0  0  0  0  0  0  0  0  0
  145.8680   70.4120  218.7150 C   0  0  0  0  0  0  0  0  0  0  0  0
  144.9240   71.2070  219.3270 C   0  0  0  0  0  0  0  0  0  0  0  0
  145.0930   72.5770  219.4570 C   0  0  0  0  0  0  0  0  0  0  0  0
  146.1660   73.0300  218.9820 O   0  0  0  0  0  0  0  0  0  0  0  0
  144.1680   73.3770  220.0590 N   0  0  0  0  0  0  0  0  0  0  0  0
  144.3100   74.7890  220.2000 C   0  0  0  0  0  0  0  0  0  0  0  0
  143.6990   75.6710  219.1730 C   0  0  0  0  0  0  0  0  0  0  0  0
  142.8600   74.9890  218.1250 C   0  0  0  0  0  0  0  0  0  0  0  0
  142.9170   75.8900  216.8700 C   0  0  0  0  0  0  0  0  0  0  0  0
  142.7970   77.3040  217.3050 C   0  0  0  0  0  0  0  0  0  0  0  0
  142.0990   77.4820  218.6120 C   0  0  0  0  0  0  0  0  0  0  0  0
  142.8130   76.7690  219.7460 C   0  0  0  0  0  0  0  0  0  0  0  0
  140.4830   76.0170  221.7390 C   0  0  0  0  0  0  0  0  0  0  0  0
  139.4860   79.3730  222.9030 C   0  0  0  0  0  0  0  0  0  0  0  0
  140.2710   80.5140  223.5010 C   0  0  0  0  0  0  0  0  0  0  0  0
  141.6967   82.5680  222.1094 H   0  0  0  0  0  0  0  0  0  0  0  0
  142.5201   81.2724  221.1767 H   0  0  0  0  0  0  0  0  0  0  0  0
  140.7269   81.3780  221.1767 H   0  0  0  0  0  0  0  0  0  0  0  0
  142.3697   79.2332  221.6588 H   0  0  0  0  0  0  0  0  0  0  0  0
  143.2779   79.5314  223.2151 H   0  0  0  0  0  0  0  0  0  0  0  0
  142.1738   77.3073  223.1534 H   0  0  0  0  0  0  0  0  0  0  0  0
  141.5885   78.3394  224.4799 H   0  0  0  0  0  0  0  0  0  0  0  0
  137.6691   77.5778  222.6540 H   0  0  0  0  0  0  0  0  0  0  0  0
  136.6742   75.5309  221.6404 H   0  0  0  0  0  0  0  0  0  0  0  0
  138.1962   73.8064  220.6951 H   0  0  0  0  0  0  0  0  0  0  0  0
  140.7123   73.4723  219.6231 H   0  0  0  0  0  0  0  0  0  0  0  0
  142.0911   73.5959  222.3399 H   0  0  0  0  0  0  0  0  0  0  0  0
  142.7280   68.7848  220.0742 H   0  0  0  0  0  0  0  0  0  0  0  0
  144.4486   67.3611  218.9638 H   0  0  0  0  0  0  0  0  0  0  0  0
  146.5160   68.4701  218.0700 H   0  0  0  0  0  0  0  0  0  0  0  0
  146.7778   70.8904  218.3234 H   0  0  0  0  0  0  0  0  0  0  0  0
  143.8674   75.0643  221.1687 H   0  0  0  0  0  0  0  0  0  0  0  0
  145.3911   74.9618  220.0931 H   0  0  0  0  0  0  0  0  0  0  0  0
  144.6089   76.0783  218.7081 H   0  0  0  0  0  0  0  0  0  0  0  0
  143.2691   73.9934  217.8981 H   0  0  0  0  0  0  0  0  0  0  0  0
  141.8250   74.8490  218.4701 H   0  0  0  0  0  0  0  0  0  0  0  0
  143.8741   75.7413  216.3486 H   0  0  0  0  0  0  0  0  0  0  0  0
  142.0972   75.6343  216.1826 H   0  0  0  0  0  0  0  0  0  0  0  0
  143.8092   77.7253  217.3937 H   0  0  0  0  0  0  0  0  0  0  0  0
  142.1878   77.8185  216.5473 H   0  0  0  0  0  0  0  0  0  0  0  0
  142.0503   78.5561  218.8440 H   0  0  0  0  0  0  0  0  0  0  0  0
  141.0933   77.0460  218.5195 H   0  0  0  0  0  0  0  0  0  0  0  0
  143.4328   77.4892  220.3002 H   0  0  0  0  0  0  0  0  0  0  0  0
  142.0714   76.3257  220.4268 H   0  0  0  0  0  0  0  0  0  0  0  0
  141.5737   76.1567  221.7669 H   0  0  0  0  0  0  0  0  0  0  0  0
  139.1766   79.6481  221.8839 H   0  0  0  0  0  0  0  0  0  0  0  0
  138.6108   79.1854  223.5424 H   0  0  0  0  0  0  0  0  0  0  0  0
  139.7159   81.4480  223.3290 H   0  0  0  0  0  0  0  0  0  0  0  0
  140.3958   80.2981  224.5724 H   0  0  0  0  0  0  0  0  0  0  0  0
  1  2  1  0
  2  3  1  0
  3  4  1  0
  4  5  1  0
  5  6  1  0
  6  7  2  0
  7  8  1  0
  8  9  2  0
  9 10  1  0
 10 11  1  0
 11 12  2  0
 12 13  1  0
 13 14  2  0
 14 15  1  0
 15 16  2  0
 16 17  1  0
 17 18  2  0
 18 19  1  0
 19 20  2  0
 20 21  1  0
 21 22  2  0
 21 23  1  0
 23 24  1  0
 24 25  1  0
 25 26  1  0
 26 27  1  0
 27 28  1  0
 28 29  1  0
 29 30  1  0
 10 31  2  0
  5 32  1  0
 32 33  1  0
 33  2  1  0
 31  6  1  0
 23 13  1  0
 30 25  1  0
 20 15  1  0
  1 34  1  0
  1 35  1  0
  1 36  1  0
  3 37  1  0
  3 38  1  0
  4 39  1  0
  4 40  1  0
  7 41  1  0
  8 42  1  0
  9 43  1  0
 11 44  1  0
 12 45  1  0
 16 46  1  0
 17 47  1  0
 18 48  1  0
 19 49  1  0
 24 50  1  0
 24 51  1  0
 25 52  1  0
 26 53  1  0
 26 54  1  0
 27 55  1  0
 27 56  1  0
 28 57  1  0
 28 58  1  0
 29 59  1  0
 29 60  1  0
 30 61  1  0
 30 62  1  0
 31 63  1  0
 32 64  1  0
 32 65  1  0
 33 66  1  0
 33 67  1  0
M  END
>  <smiles>  (18) 
CN1CCN(c2cccc(/C=C/c3nc4ccccc4c(=O)n3CC3CCCCC3)c2)CC1

>  <score_type>  (18) 
oracle

>  <origin>  (18) 
autodockgpu

>  <m_score__min__energy>  (18) 
-9.1300000000000008

>  <m_primary>  (18) 
energy

>  <rmsd>  (18) 
6.635491425392044

>  <m_score__min__rmsd>  (18) 
6.635491425392044

>  <meeko>  (18) 
{"free_energy": -7.71, "intermolecular_energy": -9.5, "internal_energy": -2.33, "cluster_size": 1, "cluster_id": 7, "rank_in_cluster": 1}

>  <energy>  (18) 
-8.74

>  <cluster_rmsd>  (18) 
0.56

>  <cluster>  (18) 
2

$$$$

     RDKit          3D

 67 71  0  0  0  0  0  0  0  0999 V2000
  141.8390   78.7130  223.8680 C   0  0  0  0  0  0  0  0  0  0  0  0
  141.0080   78.8370  222.6900 N   0  0  0  0  0  0  0  0  0  0  0  0
  139.6080   78.8980  223.0020 C   0  0  0  0  0  0  0  0  0  0  0  0
  138.7350   78.1700  222.0000 C   0  0  0  0  0  0  0  0  0  0  0  0
  139.1930   76.7990  221.9490 N   0  0  0  0  0  0  0  0  0  0  0  0
  138.3780   75.6670  222.0940 C   0  0  0  0  0  0  0  0  0  0  0  0
  137.0430   75.7570  222.4610 C   0  0  0  0  0  0  0  0  0  0  0  0
  136.2420   74.6330  222.6030 C   0  0  0  0  0  0  0  0  0  0  0  0
  136.8210   73.3920  222.3660 C   0  0  0  0  0  0  0  0  0  0  0  0
  138.1430   73.2470  222.0010 C   0  0  0  0  0  0  0  0  0  0  0  0
  138.7770   71.9680  221.7470 C   0  0  0  0  0  0  0  0  0  0  0  0
  139.9010   71.5650  222.3170 C   0  0  0  0  0  0  0  0  0  0  0  0
  139.8830   70.8140  223.5870 C   0  0  0  0  0  0  0  0  0  0  0  0
  140.3820   71.5030  224.6480 N   0  0  0  0  0  0  0  0  0  0  0  0
  140.4850   70.9580  225.8710 C   0  0  0  0  0  0  0  0  0  0  0  0
  140.9810   71.6250  226.9570 C   0  0  0  0  0  0  0  0  0  0  0  0
  141.0790   71.0360  228.2190 C   0  0  0  0  0  0  0  0  0  0  0  0
  140.6500   69.7290  228.3520 C   0  0  0  0  0  0  0  0  0  0  0  0
  140.1570   69.0820  227.2530 C   0  0  0  0  0  0  0  0  0  0  0  0
  140.0620   69.6660  226.0090 C   0  0  0  0  0  0  0  0  0  0  0  0
  139.5550   68.9800  224.9160 C   0  0  0  0  0  0  0  0  0  0  0  0
  139.1990   67.7960  225.1470 O   0  0  0  0  0  0  0  0  0  0  0  0
  139.4530   69.5440  223.6790 N   0  0  0  0  0  0  0  0  0  0  0  0
  138.9290   68.8660  222.5380 C   0  0  0  0  0  0  0  0  0  0  0  0
  137.4580   68.8600  222.3280 C   0  0  0  0  0  0  0  0  0  0  0  0
  136.8450   67.5340  221.9630 C   0  0  0  0  0  0  0  0  0  0  0  0
  135.5650   67.8550  221.1570 C   0  0  0  0  0  0  0  0  0  0  0  0
  134.8710   68.9900  221.8170 C   0  0  0  0  0  0  0  0  0  0  0  0
  135.1800   69.1310  223.2710 C   0  0  0  0  0  0  0  0  0  0  0  0
  136.6590   69.3570  223.5250 C   0  0  0  0  0  0  0  0  0  0  0  0
  138.8760   74.4140  221.8790 C   0  0  0  0  0  0  0  0  0  0  0  0
  140.6250   76.6080  221.7270 C   0  0  0  0  0  0  0  0  0  0  0  0
  141.3550   77.9250  221.6370 C   0  0  0  0  0  0  0  0  0  0  0  0
  141.2145   78.8062  224.7687 H   0  0  0  0  0  0  0  0  0  0  0  0
  142.3346   77.7310  223.8654 H   0  0  0  0  0  0  0  0  0  0  0  0
  142.5997   79.5076  223.8654 H   0  0  0  0  0  0  0  0  0  0  0  0
  139.4518   78.4468  223.9930 H   0  0  0  0  0  0  0  0  0  0  0  0
  139.3159   79.9582  222.9767 H   0  0  0  0  0  0  0  0  0  0  0  0
  137.6836   78.2042  222.3215 H   0  0  0  0  0  0  0  0  0  0  0  0
  138.8031   78.6412  221.0084 H   0  0  0  0  0  0  0  0  0  0  0  0
  136.6063   76.7497  222.6450 H   0  0  0  0  0  0  0  0  0  0  0  0
  135.1847   74.7211  222.8933 H   0  0  0  0  0  0  0  0  0  0  0  0
  136.2005   72.4901  222.4738 H   0  0  0  0  0  0  0  0  0  0  0  0
  138.2910   71.2872  221.0326 H   0  0  0  0  0  0  0  0  0  0  0  0
  140.8639   71.7934  221.8366 H   0  0  0  0  0  0  0  0  0  0  0  0
  141.3155   72.6653  226.8314 H   0  0  0  0  0  0  0  0  0  0  0  0
  141.4834   71.5926  229.0772 H   0  0  0  0  0  0  0  0  0  0  0  0
  140.7042   69.2183  229.3248 H   0  0  0  0  0  0  0  0  0  0  0  0
  139.8188   68.0416  227.3681 H   0  0  0  0  0  0  0  0  0  0  0  0
  139.3816   69.3296  221.6491 H   0  0  0  0  0  0  0  0  0  0  0  0
  139.1791   67.8096  222.7153 H   0  0  0  0  0  0  0  0  0  0  0  0
  137.3854   69.5473  221.4722 H   0  0  0  0  0  0  0  0  0  0  0  0
  137.5443   66.9471  221.3494 H   0  0  0  0  0  0  0  0  0  0  0  0
  136.6145   66.9397  222.8595 H   0  0  0  0  0  0  0  0  0  0  0  0
  135.8337   68.1316  220.1268 H   0  0  0  0  0  0  0  0  0  0  0  0
  134.9062   66.9746  221.1253 H   0  0  0  0  0  0  0  0  0  0  0  0
  135.1683   69.9192  221.3090 H   0  0  0  0  0  0  0  0  0  0  0  0
  133.7921   68.7902  221.7399 H   0  0  0  0  0  0  0  0  0  0  0  0
  134.6172   69.9873  223.6710 H   0  0  0  0  0  0  0  0  0  0  0  0
  134.8918   68.1936  223.7692 H   0  0  0  0  0  0  0  0  0  0  0  0
  136.8466   70.4310  223.6714 H   0  0  0  0  0  0  0  0  0  0  0  0
  136.9659   68.8065  224.4265 H   0  0  0  0  0  0  0  0  0  0  0  0
  139.9334   74.3263  221.5886 H   0  0  0  0  0  0  0  0  0  0  0  0
  141.0410   76.0260  222.5626 H   0  0  0  0  0  0  0  0  0  0  0  0
  140.7567   76.0764  220.7730 H   0  0  0  0  0  0  0  0  0  0  0  0
  142.4364   77.7294  221.6861 H   0  0  0  0  0  0  0  0  0  0  0  0
  141.0631   78.3963  220.6869 H   0  0  0  0  0  0  0  0  0  0  0  0
  1  2  1  0
  2  3  1  0
  3  4  1  0
  4  5  1  0
  5  6  1  0
  6  7  2  0
  7  8  1  0
  8  9  2  0
  9 10  1  0
 10 11  1  0
 11 12  2  0
 12 13  1  0
 13 14  2  0
 14 15  1  0
 15 16  2  0
 16 17  1  0
 17 18  2  0
 18 19  1  0
 19 20  2  0
 20 21  1  0
 21 22  2  0
 21 23  1  0
 23 24  1  0
 24 25  1  0
 25 26  1  0
 26 27  1  0
 27 28  1  0
 28 29  1  0
 29 30  1  0
 10 31  2  0
  5 32  1  0
 32 33  1  0
 33  2  1  0
 31  6  1  0
 23 13  1  0
 30 25  1  0
 20 15  1  0
  1 34  1  0
  1 35  1  0
  1 36  1  0
  3 37  1  0
  3 38  1  0
  4 39  1  0
  4 40  1  0
  7 41  1  0
  8 42  1  0
  9 43  1  0
 11 44  1  0
 12 45  1  0
 16 46  1  0
 17 47  1  0
 18 48  1  0
 19 49  1  0
 24 50  1  0
 24 51  1  0
 25 52  1  0
 26 53  1  0
 26 54  1  0
 27 55  1  0
 27 56  1  0
 28 57  1  0
 28 58  1  0
 29 59  1  0
 29 60  1  0
 30 61  1  0
 30 62  1  0
 31 63  1  0
 32 64  1  0
 32 65  1  0
 33 66  1  0
 33 67  1  0
M  END
>  <smiles>  (19) 
CN1CCN(c2cccc(/C=C/c3nc4ccccc4c(=O)n3CC3CCCCC3)c2)CC1

>  <score_type>  (19) 
oracle

>  <origin>  (19) 
autodockgpu

>  <m_score__min__energy>  (19) 
-9.1300000000000008

>  <m_primary>  (19) 
energy

>  <rmsd>  (19) 
7.159745080998799

>  <m_score__min__rmsd>  (19) 
7.159745080998799

>  <meeko>  (19) 
{"free_energy": -8.12, "intermolecular_energy": -9.91, "internal_energy": -1.92, "cluster_size": 21, "cluster_id": 2, "rank_in_cluster": 17}

>  <energy>  (19) 
-8.71

>  <cluster_rmsd>  (19) 
0.75

>  <cluster>  (19) 
2

$$$$

     RDKit          3D

 67 71  0  0  0  0  0  0  0  0999 V2000
  140.0110   68.9910  228.6810 C   0  0  0  0  0  0  0  0  0  0  0  0
  140.9970   69.4370  227.7200 N   0  0  0  0  0  0  0  0  0  0  0  0
  140.9160   70.8460  227.4540 C   0  0  0  0  0  0  0  0  0  0  0  0
  141.1850   71.2030  226.0070 C   0  0  0  0  0  0  0  0  0  0  0  0
  140.2330   70.4710  225.2010 N   0  0  0  0  0  0  0  0  0  0  0  0
  139.3970   71.0320  224.2240 C   0  0  0  0  0  0  0  0  0  0  0  0
  138.0390   70.7540  224.1630 C   0  0  0  0  0  0  0  0  0  0  0  0
  137.2180   71.3110  223.1930 C   0  0  0  0  0  0  0  0  0  0  0  0
  137.8010   72.1700  222.2680 C   0  0  0  0  0  0  0  0  0  0  0  0
  139.1450   72.4790  222.2840 C   0  0  0  0  0  0  0  0  0  0  0  0
  139.7830   73.3690  221.3340 C   0  0  0  0  0  0  0  0  0  0  0  0
  141.0240   73.8140  221.4440 C   0  0  0  0  0  0  0  0  0  0  0  0
  141.3450   75.2350  221.2060 C   0  0  0  0  0  0  0  0  0  0  0  0
  140.9070   76.0760  222.1810 N   0  0  0  0  0  0  0  0  0  0  0  0
  141.0710   77.4060  222.1050 C   0  0  0  0  0  0  0  0  0  0  0  0
  140.6420   78.2770  223.0680 C   0  0  0  0  0  0  0  0  0  0  0  0
  140.8240   79.6580  222.9660 C   0  0  0  0  0  0  0  0  0  0  0  0
  141.4660   80.1380  221.8410 C   0  0  0  0  0  0  0  0  0  0  0  0
  141.8860   79.2500  220.8910 C   0  0  0  0  0  0  0  0  0  0  0  0
  141.7050   77.8880  220.9940 C   0  0  0  0  0  0  0  0  0  0  0  0
  142.1460   77.0150  220.0120 C   0  0  0  0  0  0  0  0  0  0  0  0
  142.7120   77.5590  219.0290 O   0  0  0  0  0  0  0  0  0  0  0  0
  141.9760   75.6650  220.1000 N   0  0  0  0  0  0  0  0  0  0  0  0
  142.4250   74.7420  219.1090 C   0  0  0  0  0  0  0  0  0  0  0  0
  143.6170   73.9060  219.4050 C   0  0  0  0  0  0  0  0  0  0  0  0
  144.4910   73.5550  218.2300 C   0  0  0  0  0  0  0  0  0  0  0  0
  145.1860   72.2210  218.5900 C   0  0  0  0  0  0  0  0  0  0  0  0
  145.6120   72.2850  220.0100 C   0  0  0  0  0  0  0  0  0  0  0  0
  145.8190   73.6720  220.5220 C   0  0  0  0  0  0  0  0  0  0  0  0
  144.5570   74.5100  220.4390 C   0  0  0  0  0  0  0  0  0  0  0  0
  139.8970   71.8840  223.2820 C   0  0  0  0  0  0  0  0  0  0  0  0
  140.1570   69.0320  225.4460 C   0  0  0  0  0  0  0  0  0  0  0  0
  141.0870   68.6050  226.5540 C   0  0  0  0  0  0  0  0  0  0  0  0
  140.3886   69.1618  229.6999 H   0  0  0  0  0  0  0  0  0  0  0  0
  139.0773   69.5544  228.5367 H   0  0  0  0  0  0  0  0  0  0  0  0
  139.8176   67.9178  228.5367 H   0  0  0  0  0  0  0  0  0  0  0  0
  139.9055   71.1925  227.7162 H   0  0  0  0  0  0  0  0  0  0  0  0
  141.6941   71.3351  228.0584 H   0  0  0  0  0  0  0  0  0  0  0  0
  141.0542   72.2846  225.8552 H   0  0  0  0  0  0  0  0  0  0  0  0
  142.2161   70.9423  225.7260 H   0  0  0  0  0  0  0  0  0  0  0  0
  137.6002   70.0716  224.9058 H   0  0  0  0  0  0  0  0  0  0  0  0
  136.1429   71.0809  223.1570 H   0  0  0  0  0  0  0  0  0  0  0  0
  137.1647   72.6212  221.4924 H   0  0  0  0  0  0  0  0  0  0  0  0
  139.1959   73.6963  220.4633 H   0  0  0  0  0  0  0  0  0  0  0  0
  141.8283   73.1149  221.7168 H   0  0  0  0  0  0  0  0  0  0  0  0
  140.1342   77.8746  223.9569 H   0  0  0  0  0  0  0  0  0  0  0  0
  140.4688   80.3391  223.7534 H   0  0  0  0  0  0  0  0  0  0  0  0
  141.6363   81.2171  221.7120 H   0  0  0  0  0  0  0  0  0  0  0  0
  142.3947   79.6427  219.9983 H   0  0  0  0  0  0  0  0  0  0  0  0
  141.5904   74.0557  218.9030 H   0  0  0  0  0  0  0  0  0  0  0  0
  142.7458   75.3807  218.2728 H   0  0  0  0  0  0  0  0  0  0  0  0
  143.1225   72.9980  219.7804 H   0  0  0  0  0  0  0  0  0  0  0  0
  143.8799   73.4337  217.3234 H   0  0  0  0  0  0  0  0  0  0  0  0
  145.2266   74.3475  218.0276 H   0  0  0  0  0  0  0  0  0  0  0  0
  144.4836   71.3861  218.4498 H   0  0  0  0  0  0  0  0  0  0  0  0
  146.0587   72.0612  217.9397 H   0  0  0  0  0  0  0  0  0  0  0  0
  144.8386   71.8016  220.6249 H   0  0  0  0  0  0  0  0  0  0  0  0
  146.5846   71.7751  220.0728 H   0  0  0  0  0  0  0  0  0  0  0  0
  146.1389   73.6172  221.5730 H   0  0  0  0  0  0  0  0  0  0  0  0
  146.5840   74.1521  219.8941 H   0  0  0  0  0  0  0  0  0  0  0  0
  144.0614   74.5256  221.4209 H   0  0  0  0  0  0  0  0  0  0  0  0
  144.8166   75.5375  220.1443 H   0  0  0  0  0  0  0  0  0  0  0  0
  140.9721   72.1136  223.3186 H   0  0  0  0  0  0  0  0  0  0  0  0
  139.1256   68.7721  225.7263 H   0  0  0  0  0  0  0  0  0  0  0  0
  140.4584   68.5110  224.5253 H   0  0  0  0  0  0  0  0  0  0  0  0
  140.8380   67.5727  226.8411 H   0  0  0  0  0  0  0  0  0  0  0  0
  142.1142   68.6908  226.1698 H   0  0  0  0  0  0  0  0  0  0  0  0
  1  2  1  0
  2  3  1  0
  3  4  1  0
  4  5  1  0
  5  6  1  0
  6  7  2  0
  7  8  1  0
  8  9  2  0
  9 10  1  0
 10 11  1  0
 11 12  2  0
 12 13  1  0
 13 14  2  0
 14 15  1  0
 15 16  2  0
 16 17  1  0
 17 18  2  0
 18 19  1  0
 19 20  2  0
 20 21  1  0
 21 22  2  0
 21 23  1  0
 23 24  1  0
 24 25  1  0
 25 26  1  0
 26 27  1  0
 27 28  1  0
 28 29  1  0
 29 30  1  0
 10 31  2  0
  5 32  1  0
 32 33  1  0
 33  2  1  0
 31  6  1  0
 23 13  1  0
 30 25  1  0
 20 15  1  0
  1 34  1  0
  1 35  1  0
  1 36  1  0
  3 37  1  0
  3 38  1  0
  4 39  1  0
  4 40  1  0
  7 41  1  0
  8 42  1  0
  9 43  1  0
 11 44  1  0
 12 45  1  0
 16 46  1  0
 17 47  1  0
 18 48  1  0
 19 49  1  0
 24 50  1  0
 24 51  1  0
 25 52  1  0
 26 53  1  0
 26 54  1  0
 27 55  1  0
 27 56  1  0
 28 57  1  0
 28 58  1  0
 29 59  1  0
 29 60  1  0
 30 61  1  0
 30 62  1  0
 31 63  1  0
 32 64  1  0
 32 65  1  0
 33 66  1  0
 33 67  1  0
M  END
>  <smiles>  (20) 
CN1CCN(c2cccc(/C=C/c3nc4ccccc4c(=O)n3CC3CCCCC3)c2)CC1

>  <score_type>  (20) 
oracle

>  <origin>  (20) 
autodockgpu

>  <m_score__min__energy>  (20) 
-9.1300000000000008

>  <m_primary>  (20) 
energy

>  <rmsd>  (20) 
9.686212028724743

>  <m_score__min__rmsd>  (20) 
9.686212028724743

>  <meeko>  (20) 
{"free_energy": -8.98, "intermolecular_energy": -10.77, "internal_energy": -1.57, "cluster_size": 5, "cluster_id": 3, "rank_in_cluster": 1}

>  <energy>  (20) 
-8.7

>  <cluster_rmsd>  (20) 
1.26

>  <cluster>  (20) 
2

$$$$

     RDKit          3D

 67 71  0  0  0  0  0  0  0  0999 V2000
  139.5730   69.4760  228.7160 C   0  0  0  0  0  0  0  0  0  0  0  0
  140.7110   69.9090  227.9330 N   0  0  0  0  0  0  0  0  0  0  0  0
  140.6280   71.2910  227.5510 C   0  0  0  0  0  0  0  0  0  0  0  0
  141.1630   71.5640  226.1610 C   0  0  0  0  0  0  0  0  0  0  0  0
  140.4170   70.7310  225.2440 N   0  0  0  0  0  0  0  0  0  0  0  0
  139.7700   71.1810  224.0840 C   0  0  0  0  0  0  0  0  0  0  0  0
  138.4930   70.7610  223.7380 C   0  0  0  0  0  0  0  0  0  0  0  0
  137.8570   71.2090  222.5890 C   0  0  0  0  0  0  0  0  0  0  0  0
  138.5450   72.1040  221.7780 C   0  0  0  0  0  0  0  0  0  0  0  0
  139.8150   72.5520  222.0740 C   0  0  0  0  0  0  0  0  0  0  0  0
  140.5580   73.4840  221.2490 C   0  0  0  0  0  0  0  0  0  0  0  0
  140.8360   74.7310  221.5950 C   0  0  0  0  0  0  0  0  0  0  0  0
  139.7590   75.6910  221.9060 C   0  0  0  0  0  0  0  0  0  0  0  0
  138.6200   75.1160  222.3760 N   0  0  0  0  0  0  0  0  0  0  0  0
  137.5230   75.8350  222.6660 C   0  0  0  0  0  0  0  0  0  0  0  0
  136.3640   75.2870  223.1410 C   0  0  0  0  0  0  0  0  0  0  0  0
  135.2350   76.0550  223.4340 C   0  0  0  0  0  0  0  0  0  0  0  0
  135.3190   77.4190  223.2310 C   0  0  0  0  0  0  0  0  0  0  0  0
  136.4870   77.9460  222.7560 C   0  0  0  0  0  0  0  0  0  0  0  0
  137.5990   77.1850  222.4670 C   0  0  0  0  0  0  0  0  0  0  0  0
  138.7700   77.7530  221.9880 C   0  0  0  0  0  0  0  0  0  0  0  0
  138.7340   79.0010  221.8350 O   0  0  0  0  0  0  0  0  0  0  0  0
  139.8780   77.0140  221.6990 N   0  0  0  0  0  0  0  0  0  0  0  0
  141.0990   77.5700  221.2120 C   0  0  0  0  0  0  0  0  0  0  0  0
  141.7570   78.6410  222.0030 C   0  0  0  0  0  0  0  0  0  0  0  0
  141.3660   80.0550  221.6620 C   0  0  0  0  0  0  0  0  0  0  0  0
  142.5720   80.9440  222.0470 C   0  0  0  0  0  0  0  0  0  0  0  0
  143.1020   80.4710  223.3500 C   0  0  0  0  0  0  0  0  0  0  0  0
  142.0990   79.7560  224.1930 C   0  0  0  0  0  0  0  0  0  0  0  0
  141.5500   78.5180  223.5070 C   0  0  0  0  0  0  0  0  0  0  0  0
  140.3810   72.0600  223.2370 C   0  0  0  0  0  0  0  0  0  0  0  0
  140.3510   69.3090  225.5770 C   0  0  0  0  0  0  0  0  0  0  0  0
  141.0610   69.0070  226.8730 C   0  0  0  0  0  0  0  0  0  0  0  0
  139.8090   69.5658  229.7866 H   0  0  0  0  0  0  0  0  0  0  0  0
  138.7032   70.1060  228.4782 H   0  0  0  0  0  0  0  0  0  0  0  0
  139.3420   68.4271  228.4782 H   0  0  0  0  0  0  0  0  0  0  0  0
  139.5727   71.5994  227.5852 H   0  0  0  0  0  0  0  0  0  0  0  0
  141.2508   71.8608  228.2563 H   0  0  0  0  0  0  0  0  0  0  0  0
  141.0235   72.6247  225.9052 H   0  0  0  0  0  0  0  0  0  0  0  0
  142.2384   71.3395  226.1056 H   0  0  0  0  0  0  0  0  0  0  0  0
  137.9691   70.0511  224.3950 H   0  0  0  0  0  0  0  0  0  0  0  0
  136.8440   70.8679  222.3291 H   0  0  0  0  0  0  0  0  0  0  0  0
  138.0564   72.4697  220.8628 H   0  0  0  0  0  0  0  0  0  0  0  0
  140.9146   73.1314  220.2700 H   0  0  0  0  0  0  0  0  0  0  0  0
  141.8852   75.0566  221.6516 H   0  0  0  0  0  0  0  0  0  0  0  0
  136.3190   74.1993  223.2985 H   0  0  0  0  0  0  0  0  0  0  0  0
  134.3124   75.5908  223.8126 H   0  0  0  0  0  0  0  0  0  0  0  0
  134.4596   78.0703  223.4482 H   0  0  0  0  0  0  0  0  0  0  0  0
  136.5424   79.0329  222.5962 H   0  0  0  0  0  0  0  0  0  0  0  0
  141.8192   76.7433  221.1232 H   0  0  0  0  0  0  0  0  0  0  0  0
  140.8122   78.0670  220.2735 H   0  0  0  0  0  0  0  0  0  0  0  0
  142.8054   78.4698  221.7174 H   0  0  0  0  0  0  0  0  0  0  0  0
  141.1561   80.1431  220.5858 H   0  0  0  0  0  0  0  0  0  0  0  0
  140.4568   80.3594  222.2011 H   0  0  0  0  0  0  0  0  0  0  0  0
  143.3534   80.8649  221.2768 H   0  0  0  0  0  0  0  0  0  0  0  0
  142.2585   81.9955  222.1244 H   0  0  0  0  0  0  0  0  0  0  0  0
  143.9397   79.7856  223.1538 H   0  0  0  0  0  0  0  0  0  0  0  0
  143.4077   81.3661  223.9116 H   0  0  0  0  0  0  0  0  0  0  0  0
  142.5792   79.4548  225.1357 H   0  0  0  0  0  0  0  0  0  0  0  0
  141.2586   80.4427  224.3726 H   0  0  0  0  0  0  0  0  0  0  0  0
  142.0780   77.6275  223.8788 H   0  0  0  0  0  0  0  0  0  0  0  0
  140.4759   78.4227  223.7241 H   0  0  0  0  0  0  0  0  0  0  0  0
  141.3939   72.4010  223.4971 H   0  0  0  0  0  0  0  0  0  0  0  0
  139.2957   69.0134  225.6712 H   0  0  0  0  0  0  0  0  0  0  0  0
  140.8477   68.7449  224.7738 H   0  0  0  0  0  0  0  0  0  0  0  0
  140.8010   67.9844  227.1840 H   0  0  0  0  0  0  0  0  0  0  0  0
  142.1395   69.1214  226.6892 H   0  0  0  0  0  0  0  0  0  0  0  0
  1  2  1  0
  2  3  1  0
  3  4  1  0
  4  5  1  0
  5  6  1  0
  6  7  2  0
  7  8  1  0
  8  9  2  0
  9 10  1  0
 10 11  1  0
 11 12  2  0
 12 13  1  0
 13 14  2  0
 14 15  1  0
 15 16  2  0
 16 17  1  0
 17 18  2  0
 18 19  1  0
 19 20  2  0
 20 21  1  0
 21 22  2  0
 21 23  1  0
 23 24  1  0
 24 25  1  0
 25 26  1  0
 26 27  1  0
 27 28  1  0
 28 29  1  0
 29 30  1  0
 10 31  2  0
  5 32  1  0
 32 33  1  0
 33  2  1  0
 31  6  1  0
 23 13  1  0
 30 25  1  0
 20 15  1  0
  1 34  1  0
  1 35  1  0
  1 36  1  0
  3 37  1  0
  3 38  1  0
  4 39  1  0
  4 40  1  0
  7 41  1  0
  8 42  1  0
  9 43  1  0
 11 44  1  0
 12 45  1  0
 16 46  1  0
 17 47  1  0
 18 48  1  0
 19 49  1  0
 24 50  1  0
 24 51  1  0
 25 52  1  0
 26 53  1  0
 26 54  1  0
 27 55  1  0
 27 56  1  0
 28 57  1  0
 28 58  1  0
 29 59  1  0
 29 60  1  0
 30 61  1  0
 30 62  1  0
 31 63  1  0
 32 64  1  0
 32 65  1  0
 33 66  1  0
 33 67  1  0
M  END
>  <smiles>  (21) 
CN1CCN(c2cccc(/C=C/c3nc4ccccc4c(=O)n3CC3CCCCC3)c2)CC1

>  <score_type>  (21) 
oracle

>  <origin>  (21) 
autodockgpu

>  <m_score__min__energy>  (21) 
-9.1300000000000008

>  <m_primary>  (21) 
energy

>  <rmsd>  (21) 
9.558216115642045

>  <m_score__min__rmsd>  (21) 
9.558216115642045

>  <meeko>  (21) 
{"free_energy": -8.57, "intermolecular_energy": -10.36, "internal_energy": -1.73, "cluster_size": 3, "cluster_id": 5, "rank_in_cluster": 2}

>  <energy>  (21) 
-8.69

>  <cluster_rmsd>  (21) 
0.81

>  <cluster>  (21) 
2

$$$$

     RDKit          3D

 67 71  0  0  0  0  0  0  0  0999 V2000
  133.2400   68.2470  224.5910 C   0  0  0  0  0  0  0  0  0  0  0  0
  133.6160   69.4030  225.3760 N   0  0  0  0  0  0  0  0  0  0  0  0
  133.0860   70.6290  224.8480 C   0  0  0  0  0  0  0  0  0  0  0  0
  134.0360   71.8010  224.9780 C   0  0  0  0  0  0  0  0  0  0  0  0
  135.2610   71.4360  224.3020 N   0  0  0  0  0  0  0  0  0  0  0  0
  135.9070   72.2070  223.3230 C   0  0  0  0  0  0  0  0  0  0  0  0
  135.2240   73.1120  222.5230 C   0  0  0  0  0  0  0  0  0  0  0  0
  135.8690   73.8700  221.5560 C   0  0  0  0  0  0  0  0  0  0  0  0
  137.2390   73.6970  221.4060 C   0  0  0  0  0  0  0  0  0  0  0  0
  137.9650   72.8110  222.1750 C   0  0  0  0  0  0  0  0  0  0  0  0
  139.3950   72.6070  222.0430 C   0  0  0  0  0  0  0  0  0  0  0  0
  140.0040   71.4470  222.2230 C   0  0  0  0  0  0  0  0  0  0  0  0
  139.9210   70.7380  223.5150 C   0  0  0  0  0  0  0  0  0  0  0  0
  140.3760   71.4590  224.5760 N   0  0  0  0  0  0  0  0  0  0  0  0
  140.4180   70.9540  225.8190 C   0  0  0  0  0  0  0  0  0  0  0  0
  140.8680   71.6530  226.9040 C   0  0  0  0  0  0  0  0  0  0  0  0
  140.9030   71.1050  228.1880 C   0  0  0  0  0  0  0  0  0  0  0  0
  140.4590   69.8060  228.3430 C   0  0  0  0  0  0  0  0  0  0  0  0
  140.0120   69.1270  227.2440 C   0  0  0  0  0  0  0  0  0  0  0  0
  139.9790   69.6690  225.9780 C   0  0  0  0  0  0  0  0  0  0  0  0
  139.5180   68.9510  224.8860 C   0  0  0  0  0  0  0  0  0  0  0  0
  139.1430   67.7770  225.1390 O   0  0  0  0  0  0  0  0  0  0  0  0
  139.4780   69.4740  223.6280 N   0  0  0  0  0  0  0  0  0  0  0  0
  139.0030   68.7630  222.4870 C   0  0  0  0  0  0  0  0  0  0  0  0
  137.5990   68.9790  222.0480 C   0  0  0  0  0  0  0  0  0  0  0  0
  137.4010   69.3050  220.5910 C   0  0  0  0  0  0  0  0  0  0  0  0
  136.0930   70.1260  220.5060 C   0  0  0  0  0  0  0  0  0  0  0  0
  135.0920   69.5040  221.4090 C   0  0  0  0  0  0  0  0  0  0  0  0
  135.3280   68.0550  221.6740 C   0  0  0  0  0  0  0  0  0  0  0  0
  136.6740   67.8010  222.3260 C   0  0  0  0  0  0  0  0  0  0  0  0
  137.2520   72.0920  223.1170 C   0  0  0  0  0  0  0  0  0  0  0  0
  135.8530   70.1570  224.6890 C   0  0  0  0  0  0  0  0  0  0  0  0
  135.0100   69.4430  225.7170 C   0  0  0  0  0  0  0  0  0  0  0  0
  132.9707   67.4191  225.2633 H   0  0  0  0  0  0  0  0  0  0  0  0
  132.3776   68.4994  223.9565 H   0  0  0  0  0  0  0  0  0  0  0  0
  134.0858   67.9438  223.9565 H   0  0  0  0  0  0  0  0  0  0  0  0
  132.8597   70.4803  223.7818 H   0  0  0  0  0  0  0  0  0  0  0  0
  132.1876   70.8730  225.4340 H   0  0  0  0  0  0  0  0  0  0  0  0
  133.5985   72.6945  224.5087 H   0  0  0  0  0  0  0  0  0  0  0  0
  134.2281   72.0322  226.0361 H   0  0  0  0  0  0  0  0  0  0  0  0
  134.1391   73.2321  222.6594 H   0  0  0  0  0  0  0  0  0  0  0  0
  135.3141   74.5838  220.9294 H   0  0  0  0  0  0  0  0  0  0  0  0
  137.7660   74.2899  220.6439 H   0  0  0  0  0  0  0  0  0  0  0  0
  140.0146   73.4756  221.7752 H   0  0  0  0  0  0  0  0  0  0  0  0
  140.5809   71.0040  221.3978 H   0  0  0  0  0  0  0  0  0  0  0  0
  141.2158   72.6866  226.7603 H   0  0  0  0  0  0  0  0  0  0  0  0
  141.2711   71.6871  229.0457 H   0  0  0  0  0  0  0  0  0  0  0  0
  140.4651   69.3267  229.3331 H   0  0  0  0  0  0  0  0  0  0  0  0
  139.6601   68.0934  227.3776 H   0  0  0  0  0  0  0  0  0  0  0  0
  139.6525   69.0349  221.6419 H   0  0  0  0  0  0  0  0  0  0  0  0
  139.0275   67.7084  222.7986 H   0  0  0  0  0  0  0  0  0  0  0  0
  137.3421   69.8563  222.6598 H   0  0  0  0  0  0  0  0  0  0  0  0
  138.2480   69.8972  220.2143 H   0  0  0  0  0  0  0  0  0  0  0  0
  137.3413   68.3918  219.9806 H   0  0  0  0  0  0  0  0  0  0  0  0
  136.2837   71.1628  220.8201 H   0  0  0  0  0  0  0  0  0  0  0  0
  135.7173   70.1339  219.4722 H   0  0  0  0  0  0  0  0  0  0  0  0
  135.1140   70.0390  222.3699 H   0  0  0  0  0  0  0  0  0  0  0  0
  134.1182   69.5794  220.9030 H   0  0  0  0  0  0  0  0  0  0  0  0
  134.5361   67.6838  222.3411 H   0  0  0  0  0  0  0  0  0  0  0  0
  135.3177   67.5300  220.7074 H   0  0  0  0  0  0  0  0  0  0  0  0
  136.5405   67.6871  223.4119 H   0  0  0  0  0  0  0  0  0  0  0  0
  137.1150   66.8813  221.9141 H   0  0  0  0  0  0  0  0  0  0  0  0
  137.8067   71.3781  223.7436 H   0  0  0  0  0  0  0  0  0  0  0  0
  135.9426   69.5205  223.7964 H   0  0  0  0  0  0  0  0  0  0  0  0
  136.8406   70.3548  225.1312 H   0  0  0  0  0  0  0  0  0  0  0  0
  135.3762   68.4102  225.8132 H   0  0  0  0  0  0  0  0  0  0  0  0
  135.1001   70.0028  226.6596 H   0  0  0  0  0  0  0  0  0  0  0  0
  1  2  1  0
  2  3  1  0
  3  4  1  0
  4  5  1  0
  5  6  1  0
  6  7  2  0
  7  8  1  0
  8  9  2  0
  9 10  1  0
 10 11  1  0
 11 12  2  0
 12 13  1  0
 13 14  2  0
 14 15  1  0
 15 16  2  0
 16 17  1  0
 17 18  2  0
 18 19  1  0
 19 20  2  0
 20 21  1  0
 21 22  2  0
 21 23  1  0
 23 24  1  0
 24 25  1  0
 25 26  1  0
 26 27  1  0
 27 28  1  0
 28 29  1  0
 29 30  1  0
 10 31  2  0
  5 32  1  0
 32 33  1  0
 33  2  1  0
 31  6  1  0
 23 13  1  0
 30 25  1  0
 20 15  1  0
  1 34  1  0
  1 35  1  0
  1 36  1  0
  3 37  1  0
  3 38  1  0
  4 39  1  0
  4 40  1  0
  7 41  1  0
  8 42  1  0
  9 43  1  0
 11 44  1  0
 12 45  1  0
 16 46  1  0
 17 47  1  0
 18 48  1  0
 19 49  1  0
 24 50  1  0
 24 51  1  0
 25 52  1  0
 26 53  1  0
 26 54  1  0
 27 55  1  0
 27 56  1  0
 28 57  1  0
 28 58  1  0
 29 59  1  0
 29 60  1  0
 30 61  1  0
 30 62  1  0
 31 63  1  0
 32 64  1  0
 32 65  1  0
 33 66  1  0
 33 67  1  0
M  END
>  <smiles>  (22) 
CN1CCN(c2cccc(/C=C/c3nc4ccccc4c(=O)n3CC3CCCCC3)c2)CC1

>  <score_type>  (22) 
oracle

>  <origin>  (22) 
autodockgpu

>  <m_score__min__energy>  (22) 
-9.1300000000000008

>  <m_primary>  (22) 
energy

>  <rmsd>  (22) 
9.42858901539526

>  <m_score__min__rmsd>  (22) 
9.42858901539526

>  <meeko>  (22) 
{"free_energy": -6.34, "intermolecular_energy": -8.13, "internal_energy": -3.61, "cluster_size": 6, "cluster_id": 8, "rank_in_cluster": 6}

>  <energy>  (22) 
-8.66

>  <cluster_rmsd>  (22) 
1.51

>  <cluster>  (22) 
2

$$$$

     RDKit          3D

 67 71  0  0  0  0  0  0  0  0999 V2000
  141.4270   81.2650  222.0950 C   0  0  0  0  0  0  0  0  0  0  0  0
  142.1560   80.0420  221.8350 N   0  0  0  0  0  0  0  0  0  0  0  0
  141.6430   79.3200  220.7040 C   0  0  0  0  0  0  0  0  0  0  0  0
  141.6750   77.8170  220.8840 C   0  0  0  0  0  0  0  0  0  0  0  0
  140.9160   77.5120  222.0770 N   0  0  0  0  0  0  0  0  0  0  0  0
  139.8750   76.5760  222.1580 C   0  0  0  0  0  0  0  0  0  0  0  0
  138.5780   76.9370  222.4940 C   0  0  0  0  0  0  0  0  0  0  0  0
  137.5530   76.0060  222.5740 C   0  0  0  0  0  0  0  0  0  0  0  0
  137.8630   74.6780  222.3030 C   0  0  0  0  0  0  0  0  0  0  0  0
  139.1350   74.2660  221.9650 C   0  0  0  0  0  0  0  0  0  0  0  0
  139.4910   72.8900  221.6780 C   0  0  0  0  0  0  0  0  0  0  0  0
  140.4800   72.2360  222.2650 C   0  0  0  0  0  0  0  0  0  0  0  0
  140.2420   71.4240  223.4740 C   0  0  0  0  0  0  0  0  0  0  0  0
  140.7090   71.9850  224.6220 N   0  0  0  0  0  0  0  0  0  0  0  0
  140.6200   71.3640  225.8090 C   0  0  0  0  0  0  0  0  0  0  0  0
  141.0780   71.9020  226.9800 C   0  0  0  0  0  0  0  0  0  0  0  0
  140.9760   71.2360  228.2030 C   0  0  0  0  0  0  0  0  0  0  0  0
  140.3820   69.9880  228.2050 C   0  0  0  0  0  0  0  0  0  0  0  0
  139.9310   69.4700  227.0240 C   0  0  0  0  0  0  0  0  0  0  0  0
  140.0340   70.1290  225.8180 C   0  0  0  0  0  0  0  0  0  0  0  0
  139.5630   69.5740  224.6380 C   0  0  0  0  0  0  0  0  0  0  0  0
  139.0470   68.4330  224.7540 O   0  0  0  0  0  0  0  0  0  0  0  0
  139.6560   70.2140  223.4380 N   0  0  0  0  0  0  0  0  0  0  0  0
  139.1750   69.6730  222.2100 C   0  0  0  0  0  0  0  0  0  0  0  0
  137.8300   69.0420  222.1890 C   0  0  0  0  0  0  0  0  0  0  0  0
  136.6940   69.8840  222.7080 C   0  0  0  0  0  0  0  0  0  0  0  0
  135.6250   68.8950  223.2300 C   0  0  0  0  0  0  0  0  0  0  0  0
  135.5160   67.7740  222.2630 C   0  0  0  0  0  0  0  0  0  0  0  0
  135.9390   68.1230  220.8750 C   0  0  0  0  0  0  0  0  0  0  0  0
  137.3860   68.5720  220.8100 C   0  0  0  0  0  0  0  0  0  0  0  0
  140.1030   75.2530  221.9070 C   0  0  0  0  0  0  0  0  0  0  0  0
  141.2860   78.2550  223.2800 C   0  0  0  0  0  0  0  0  0  0  0  0
  142.3890   79.2460  223.0060 C   0  0  0  0  0  0  0  0  0  0  0  0
  141.3377   81.4148  223.1811 H   0  0  0  0  0  0  0  0  0  0  0  0
  141.9661   82.1147  221.6508 H   0  0  0  0  0  0  0  0  0  0  0  0
  140.4231   81.1950  221.6508 H   0  0  0  0  0  0  0  0  0  0  0  0
  140.6005   79.6289  220.5370 H   0  0  0  0  0  0  0  0  0  0  0  0
  142.2900   79.5578  219.8468 H   0  0  0  0  0  0  0  0  0  0  0  0
  141.2209   77.3234  220.0121 H   0  0  0  0  0  0  0  0  0  0  0  0
  142.7103   77.4573  220.9777 H   0  0  0  0  0  0  0  0  0  0  0  0
  138.3559   77.9938  222.7033 H   0  0  0  0  0  0  0  0  0  0  0  0
  136.5299   76.3079  222.8426 H   0  0  0  0  0  0  0  0  0  0  0  0
  137.0620   73.9262  222.3604 H   0  0  0  0  0  0  0  0  0  0  0  0
  138.8991   72.3539  220.9215 H   0  0  0  0  0  0  0  0  0  0  0  0
  141.4950   72.2985  221.8455 H   0  0  0  0  0  0  0  0  0  0  0  0
  141.5448   72.8978  226.9575 H   0  0  0  0  0  0  0  0  0  0  0  0
  141.3547   71.6883  229.1314 H   0  0  0  0  0  0  0  0  0  0  0  0
  140.2742   69.4214  229.1417 H   0  0  0  0  0  0  0  0  0  0  0  0
  139.4613   68.4754  227.0363 H   0  0  0  0  0  0  0  0  0  0  0  0
  139.1594   70.4940  221.4781 H   0  0  0  0  0  0  0  0  0  0  0  0
  139.8639   68.8429  221.9947 H   0  0  0  0  0  0  0  0  0  0  0  0
  138.0056   68.1981  222.8724 H   0  0  0  0  0  0  0  0  0  0  0  0
  137.0431   70.5335  223.5242 H   0  0  0  0  0  0  0  0  0  0  0  0
  136.2863   70.5351  221.9207 H   0  0  0  0  0  0  0  0  0  0  0  0
  135.9252   68.5086  224.2152 H   0  0  0  0  0  0  0  0  0  0  0  0
  134.6551   69.4038  223.3315 H   0  0  0  0  0  0  0  0  0  0  0  0
  136.1486   66.9477  222.6194 H   0  0  0  0  0  0  0  0  0  0  0  0
  134.4513   67.5023  222.2112 H   0  0  0  0  0  0  0  0  0  0  0  0
  135.8142   67.2378  220.2340 H   0  0  0  0  0  0  0  0  0  0  0  0
  135.3116   68.9589  220.5322 H   0  0  0  0  0  0  0  0  0  0  0  0
  138.0175   67.7310  220.4875 H   0  0  0  0  0  0  0  0  0  0  0  0
  137.4833   69.3981  220.0903 H   0  0  0  0  0  0  0  0  0  0  0  0
  141.1267   74.9513  221.6404 H   0  0  0  0  0  0  0  0  0  0  0  0
  140.4032   78.7973  223.6497 H   0  0  0  0  0  0  0  0  0  0  0  0
  141.6492   77.5360  224.0291 H   0  0  0  0  0  0  0  0  0  0  0  0
  142.4791   79.9173  223.8728 H   0  0  0  0  0  0  0  0  0  0  0  0
  143.3099   78.6701  222.8318 H   0  0  0  0  0  0  0  0  0  0  0  0
  1  2  1  0
  2  3  1  0
  3  4  1  0
  4  5  1  0
  5  6  1  0
  6  7  2  0
  7  8  1  0
  8  9  2  0
  9 10  1  0
 10 11  1  0
 11 12  2  0
 12 13  1  0
 13 14  2  0
 14 15  1  0
 15 16  2  0
 16 17  1  0
 17 18  2  0
 18 19  1  0
 19 20  2  0
 20 21  1  0
 21 22  2  0
 21 23  1  0
 23 24  1  0
 24 25  1  0
 25 26  1  0
 26 27  1  0
 27 28  1  0
 28 29  1  0
 29 30  1  0
 10 31  2  0
  5 32  1  0
 32 33  1  0
 33  2  1  0
 31  6  1  0
 23 13  1  0
 30 25  1  0
 20 15  1  0
  1 34  1  0
  1 35  1  0
  1 36  1  0
  3 37  1  0
  3 38  1  0
  4 39  1  0
  4 40  1  0
  7 41  1  0
  8 42  1  0
  9 43  1  0
 11 44  1  0
 12 45  1  0
 16 46  1  0
 17 47  1  0
 18 48  1  0
 19 49  1  0
 24 50  1  0
 24 51  1  0
 25 52  1  0
 26 53  1  0
 26 54  1  0
 27 55  1  0
 27 56  1  0
 28 57  1  0
 28 58  1  0
 29 59  1  0
 29 60  1  0
 30 61  1  0
 30 62  1  0
 31 63  1  0
 32 64  1  0
 32 65  1  0
 33 66  1  0
 33 67  1  0
M  END
>  <smiles>  (23) 
CN1CCN(c2cccc(/C=C/c3nc4ccccc4c(=O)n3CC3CCCCC3)c2)CC1

>  <score_type>  (23) 
oracle

>  <origin>  (23) 
autodockgpu

>  <m_score__min__energy>  (23) 
-9.1300000000000008

>  <m_primary>  (23) 
energy

>  <rmsd>  (23) 
6.762473135798165

>  <m_score__min__rmsd>  (23) 
6.762473135798165

>  <meeko>  (23) 
{"free_energy": -8.22, "intermolecular_energy": -10.01, "internal_energy": -1.7, "cluster_size": 21, "cluster_id": 2, "rank_in_cluster": 16}

>  <energy>  (23) 
-8.41

>  <cluster_rmsd>  (23) 
1.18

>  <cluster>  (23) 
2

$$$$

     RDKit          3D

 67 71  0  0  0  0  0  0  0  0999 V2000
  145.6690   70.8290  218.9880 C   0  0  0  0  0  0  0  0  0  0  0  0
  145.8930   72.2540  219.1070 N   0  0  0  0  0  0  0  0  0  0  0  0
  145.7540   72.7280  220.4550 C   0  0  0  0  0  0  0  0  0  0  0  0
  145.1090   74.0950  220.5500 C   0  0  0  0  0  0  0  0  0  0  0  0
  143.8200   74.0070  219.9000 N   0  0  0  0  0  0  0  0  0  0  0  0
  142.5990   74.4080  220.4620 C   0  0  0  0  0  0  0  0  0  0  0  0
  142.1880   75.7330  220.4690 C   0  0  0  0  0  0  0  0  0  0  0  0
  140.9790   76.1250  221.0280 C   0  0  0  0  0  0  0  0  0  0  0  0
  140.1770   75.1380  221.5900 C   0  0  0  0  0  0  0  0  0  0  0  0
  140.5390   73.8080  221.6090 C   0  0  0  0  0  0  0  0  0  0  0  0
  139.7260   72.7550  222.1880 C   0  0  0  0  0  0  0  0  0  0  0  0
  140.0970   71.4890  222.2780 C   0  0  0  0  0  0  0  0  0  0  0  0
  140.0170   70.7630  223.5600 C   0  0  0  0  0  0  0  0  0  0  0  0
  140.5040   71.4560  224.6240 N   0  0  0  0  0  0  0  0  0  0  0  0
  140.5520   70.9320  225.8590 C   0  0  0  0  0  0  0  0  0  0  0  0
  141.0350   71.6040  226.9480 C   0  0  0  0  0  0  0  0  0  0  0  0
  141.0760   71.0350  228.2220 C   0  0  0  0  0  0  0  0  0  0  0  0
  140.6040   69.7450  228.3640 C   0  0  0  0  0  0  0  0  0  0  0  0
  140.1250   69.0920  227.2630 C   0  0  0  0  0  0  0  0  0  0  0  0
  140.0860   69.6550  226.0060 C   0  0  0  0  0  0  0  0  0  0  0  0
  139.5930   68.9640  224.9100 C   0  0  0  0  0  0  0  0  0  0  0  0
  139.1950   67.7950  225.1500 O   0  0  0  0  0  0  0  0  0  0  0  0
  139.5470   69.5070  223.6600 N   0  0  0  0  0  0  0  0  0  0  0  0
  139.0390   68.8250  222.5160 C   0  0  0  0  0  0  0  0  0  0  0  0
  137.5800   68.8850  222.2420 C   0  0  0  0  0  0  0  0  0  0  0  0
  136.7120   69.3810  223.3680 C   0  0  0  0  0  0  0  0  0  0  0  0
  135.3200   68.7410  223.1580 C   0  0  0  0  0  0  0  0  0  0  0  0
  134.9950   68.7970  221.7110 C   0  0  0  0  0  0  0  0  0  0  0  0
  135.7000   69.8840  220.9700 C   0  0  0  0  0  0  0  0  0  0  0  0
  137.2090   69.7430  221.0400 C   0  0  0  0  0  0  0  0  0  0  0  0
  141.7580   73.4970  221.0330 C   0  0  0  0  0  0  0  0  0  0  0  0
  143.8200   73.4510  218.5480 C   0  0  0  0  0  0  0  0  0  0  0  0
  145.2040   73.0330  218.1170 C   0  0  0  0  0  0  0  0  0  0  0  0
  145.5990   70.3838  219.9914 H   0  0  0  0  0  0  0  0  0  0  0  0
  144.7316   70.6496  218.4411 H   0  0  0  0  0  0  0  0  0  0  0  0
  146.5061   70.3707  218.4411 H   0  0  0  0  0  0  0  0  0  0  0  0
  145.1350   72.0111  221.0143 H   0  0  0  0  0  0  0  0  0  0  0  0
  146.7675   72.8181  220.8729 H   0  0  0  0  0  0  0  0  0  0  0  0
  144.9802   74.3782  221.6051 H   0  0  0  0  0  0  0  0  0  0  0  0
  145.7380   74.8574  220.0672 H   0  0  0  0  0  0  0  0  0  0  0  0
  142.8396   76.4960  220.0181 H   0  0  0  0  0  0  0  0  0  0  0  0
  140.6666   77.1797  221.0263 H   0  0  0  0  0  0  0  0  0  0  0  0
  139.2154   75.4300  222.0372 H   0  0  0  0  0  0  0  0  0  0  0  0
  138.7345   73.0281  222.5783 H   0  0  0  0  0  0  0  0  0  0  0  0
  140.4709   70.9692  221.3836 H   0  0  0  0  0  0  0  0  0  0  0  0
  141.4050   72.6313  226.8149 H   0  0  0  0  0  0  0  0  0  0  0  0
  141.4705   71.5947  229.0829 H   0  0  0  0  0  0  0  0  0  0  0  0
  140.6134   69.2512  229.3469 H   0  0  0  0  0  0  0  0  0  0  0  0
  139.7516   68.0647  227.3867 H   0  0  0  0  0  0  0  0  0  0  0  0
  139.5515   69.2413  221.6362 H   0  0  0  0  0  0  0  0  0  0  0  0
  139.2280   67.7629  222.7311 H   0  0  0  0  0  0  0  0  0  0  0  0
  137.3775   67.8187  222.0633 H   0  0  0  0  0  0  0  0  0  0  0  0
  137.1312   69.0714  224.3367 H   0  0  0  0  0  0  0  0  0  0  0  0
  136.6505   70.4793  223.3711 H   0  0  0  0  0  0  0  0  0  0  0  0
  135.3373   67.6941  223.4951 H   0  0  0  0  0  0  0  0  0  0  0  0
  134.5609   69.2859  223.7384 H   0  0  0  0  0  0  0  0  0  0  0  0
  135.2716   67.8339  221.2572 H   0  0  0  0  0  0  0  0  0  0  0  0
  133.9181   69.0083  221.6356 H   0  0  0  0  0  0  0  0  0  0  0  0
  135.3902   69.8516  219.9150 H   0  0  0  0  0  0  0  0  0  0  0  0
  135.4292   70.8415  221.4388 H   0  0  0  0  0  0  0  0  0  0  0  0
  137.5763   69.2647  220.1200 H   0  0  0  0  0  0  0  0  0  0  0  0
  137.6673   70.7377  221.1423 H   0  0  0  0  0  0  0  0  0  0  0  0
  142.0711   72.4425  221.0354 H   0  0  0  0  0  0  0  0  0  0  0  0
  143.1585   72.5725  218.5238 H   0  0  0  0  0  0  0  0  0  0  0  0
  143.4660   74.2300  217.8567 H   0  0  0  0  0  0  0  0  0  0  0  0
  145.1182   72.4342  217.1983 H   0  0  0  0  0  0  0  0  0  0  0  0
  145.7885   73.9512  217.9583 H   0  0  0  0  0  0  0  0  0  0  0  0
  1  2  1  0
  2  3  1  0
  3  4  1  0
  4  5  1  0
  5  6  1  0
  6  7  2  0
  7  8  1  0
  8  9  2  0
  9 10  1  0
 10 11  1  0
 11 12  2  0
 12 13  1  0
 13 14  2  0
 14 15  1  0
 15 16  2  0
 16 17  1  0
 17 18  2  0
 18 19  1  0
 19 20  2  0
 20 21  1  0
 21 22  2  0
 21 23  1  0
 23 24  1  0
 24 25  1  0
 25 26  1  0
 26 27  1  0
 27 28  1  0
 28 29  1  0
 29 30  1  0
 10 31  2  0
  5 32  1  0
 32 33  1  0
 33  2  1  0
 31  6  1  0
 23 13  1  0
 30 25  1  0
 20 15  1  0
  1 34  1  0
  1 35  1  0
  1 36  1  0
  3 37  1  0
  3 38  1  0
  4 39  1  0
  4 40  1  0
  7 41  1  0
  8 42  1  0
  9 43  1  0
 11 44  1  0
 12 45  1  0
 16 46  1  0
 17 47  1  0
 18 48  1  0
 19 49  1  0
 24 50  1  0
 24 51  1  0
 25 52  1  0
 26 53  1  0
 26 54  1  0
 27 55  1  0
 27 56  1  0
 28 57  1  0
 28 58  1  0
 29 59  1  0
 29 60  1  0
 30 61  1  0
 30 62  1  0
 31 63  1  0
 32 64  1  0
 32 65  1  0
 33 66  1  0
 33 67  1  0
M  END
>  <smiles>  (24) 
CN1CCN(c2cccc(/C=C/c3nc4ccccc4c(=O)n3CC3CCCCC3)c2)CC1

>  <score_type>  (24) 
oracle

>  <origin>  (24) 
autodockgpu

>  <m_score__min__energy>  (24) 
-9.1300000000000008

>  <m_primary>  (24) 
energy

>  <rmsd>  (24) 
6.926935709273832

>  <m_score__min__rmsd>  (24) 
6.926935709273832

>  <meeko>  (24) 
{"free_energy": -8.98, "intermolecular_energy": -10.77, "internal_energy": -1.68, "cluster_size": 9, "cluster_id": 1, "rank_in_cluster": 3}

>  <energy>  (24) 
-8.33

>  <cluster_rmsd>  (24) 
1.6

>  <cluster>  (24) 
2

$$$$

     RDKit          3D

 67 71  0  0  0  0  0  0  0  0999 V2000
  139.2650   69.6190  228.7070 C   0  0  0  0  0  0  0  0  0  0  0  0
  140.4820   69.9950  228.0210 N   0  0  0  0  0  0  0  0  0  0  0  0
  140.5090   71.3840  227.6590 C   0  0  0  0  0  0  0  0  0  0  0  0
  141.1640   71.6450  226.3180 C   0  0  0  0  0  0  0  0  0  0  0  0
  140.4440   70.8700  225.3320 N   0  0  0  0  0  0  0  0  0  0  0  0
  139.9140   71.3730  224.1350 C   0  0  0  0  0  0  0  0  0  0  0  0
  138.6660   70.9940  223.6600 C   0  0  0  0  0  0  0  0  0  0  0  0
  138.1470   71.4940  222.4740 C   0  0  0  0  0  0  0  0  0  0  0  0
  138.9230   72.4010  221.7610 C   0  0  0  0  0  0  0  0  0  0  0  0
  140.1690   72.8110  222.1880 C   0  0  0  0  0  0  0  0  0  0  0  0
  141.0020   73.7540  221.4680 C   0  0  0  0  0  0  0  0  0  0  0  0
  140.5630   74.8790  220.9280 C   0  0  0  0  0  0  0  0  0  0  0  0
  139.4990   75.6690  221.5790 C   0  0  0  0  0  0  0  0  0  0  0  0
  138.2520   75.1430  221.4390 N   0  0  0  0  0  0  0  0  0  0  0  0
  137.1600   75.7540  221.9270 C   0  0  0  0  0  0  0  0  0  0  0  0
  135.8940   75.2510  221.8040 C   0  0  0  0  0  0  0  0  0  0  0  0
  134.7740   75.9060  222.3190 C   0  0  0  0  0  0  0  0  0  0  0  0
  134.9770   77.1040  222.9750 C   0  0  0  0  0  0  0  0  0  0  0  0
  136.2500   77.5870  223.0870 C   0  0  0  0  0  0  0  0  0  0  0  0
  137.3550   76.9400  222.5780 C   0  0  0  0  0  0  0  0  0  0  0  0
  138.6330   77.4590  222.7110 C   0  0  0  0  0  0  0  0  0  0  0  0
  138.7030   78.5570  223.3200 O   0  0  0  0  0  0  0  0  0  0  0  0
  139.7360   76.8300  222.2130 N   0  0  0  0  0  0  0  0  0  0  0  0
  141.0630   77.3350  222.3400 C   0  0  0  0  0  0  0  0  0  0  0  0
  141.2640   78.8060  222.3760 C   0  0  0  0  0  0  0  0  0  0  0  0
  142.4370   79.2980  223.1820 C   0  0  0  0  0  0  0  0  0  0  0  0
  142.0760   80.7290  223.6450 C   0  0  0  0  0  0  0  0  0  0  0  0
  141.4330   81.4380  222.5100 C   0  0  0  0  0  0  0  0  0  0  0  0
  141.8070   80.9030  221.1680 C   0  0  0  0  0  0  0  0  0  0  0  0
  141.4230   79.4450  221.0020 C   0  0  0  0  0  0  0  0  0  0  0  0
  140.6170   72.2670  223.3790 C   0  0  0  0  0  0  0  0  0  0  0  0
  140.2700   69.4500  225.6330 C   0  0  0  0  0  0  0  0  0  0  0  0
  140.8600   69.0890  226.9740 C   0  0  0  0  0  0  0  0  0  0  0  0
  139.4264   69.6689  229.7940 H   0  0  0  0  0  0  0  0  0  0  0  0
  138.4565   70.3092  228.4243 H   0  0  0  0  0  0  0  0  0  0  0  0
  138.9868   68.5930  228.4243 H   0  0  0  0  0  0  0  0  0  0  0  0
  139.4738   71.7539  227.6190 H   0  0  0  0  0  0  0  0  0  0  0  0
  141.1085   71.9056  228.4196 H   0  0  0  0  0  0  0  0  0  0  0  0
  141.1054   72.7155  226.0720 H   0  0  0  0  0  0  0  0  0  0  0  0
  142.2259   71.3588  226.3400 H   0  0  0  0  0  0  0  0  0  0  0  0
  138.0700   70.2752  224.2415 H   0  0  0  0  0  0  0  0  0  0  0  0
  137.1562   71.1836  222.1107 H   0  0  0  0  0  0  0  0  0  0  0  0
  138.5275   72.8079  220.8187 H   0  0  0  0  0  0  0  0  0  0  0  0
  142.0713   73.5181  221.3637 H   0  0  0  0  0  0  0  0  0  0  0  0
  140.9969   75.2309  219.9804 H   0  0  0  0  0  0  0  0  0  0  0  0
  135.7531   74.2944  221.2795 H   0  0  0  0  0  0  0  0  0  0  0  0
  133.7650   75.4826  222.2062 H   0  0  0  0  0  0  0  0  0  0  0  0
  134.1283   77.6599  223.4001 H   0  0  0  0  0  0  0  0  0  0  0  0
  136.4008   78.5424  223.6109 H   0  0  0  0  0  0  0  0  0  0  0  0
  141.4765   76.9284  223.2747 H   0  0  0  0  0  0  0  0  0  0  0  0
  141.5598   77.0194  221.4107 H   0  0  0  0  0  0  0  0  0  0  0  0
  140.3275   79.1120  222.8653 H   0  0  0  0  0  0  0  0  0  0  0  0
  142.6012   78.6460  224.0526 H   0  0  0  0  0  0  0  0  0  0  0  0
  143.3619   79.2918  222.5866 H   0  0  0  0  0  0  0  0  0  0  0  0
  141.3800   80.6803  224.4954 H   0  0  0  0  0  0  0  0  0  0  0  0
  142.9829   81.2649  223.9617 H   0  0  0  0  0  0  0  0  0  0  0  0
  140.3421   81.3543  222.6236 H   0  0  0  0  0  0  0  0  0  0  0  0
  141.7848   82.4796  222.5459 H   0  0  0  0  0  0  0  0  0  0  0  0
  141.2932   81.4943  220.3957 H   0  0  0  0  0  0  0  0  0  0  0  0
  142.9001   80.9764  221.0692 H   0  0  0  0  0  0  0  0  0  0  0  0
  140.4726   79.3757  220.4524 H   0  0  0  0  0  0  0  0  0  0  0  0
  142.2087   78.9189  220.4399 H   0  0  0  0  0  0  0  0  0  0  0  0
  141.6083   72.5762  223.7420 H   0  0  0  0  0  0  0  0  0  0  0  0
  139.1952   69.2162  225.6415 H   0  0  0  0  0  0  0  0  0  0  0  0
  140.7930   68.8683  224.8597 H   0  0  0  0  0  0  0  0  0  0  0  0
  140.5187   68.0792  227.2455 H   0  0  0  0  0  0  0  0  0  0  0  0
  141.9542   69.1429  226.8746 H   0  0  0  0  0  0  0  0  0  0  0  0
  1  2  1  0
  2  3  1  0
  3  4  1  0
  4  5  1  0
  5  6  1  0
  6  7  2  0
  7  8  1  0
  8  9  2  0
  9 10  1  0
 10 11  1  0
 11 12  2  0
 12 13  1  0
 13 14  2  0
 14 15  1  0
 15 16  2  0
 16 17  1  0
 17 18  2  0
 18 19  1  0
 19 20  2  0
 20 21  1  0
 21 22  2  0
 21 23  1  0
 23 24  1  0
 24 25  1  0
 25 26  1  0
 26 27  1  0
 27 28  1  0
 28 29  1  0
 29 30  1  0
 10 31  2  0
  5 32  1  0
 32 33  1  0
 33  2  1  0
 31  6  1  0
 23 13  1  0
 30 25  1  0
 20 15  1  0
  1 34  1  0
  1 35  1  0
  1 36  1  0
  3 37  1  0
  3 38  1  0
  4 39  1  0
  4 40  1  0
  7 41  1  0
  8 42  1  0
  9 43  1  0
 11 44  1  0
 12 45  1  0
 16 46  1  0
 17 47  1  0
 18 48  1  0
 19 49  1  0
 24 50  1  0
 24 51  1  0
 25 52  1  0
 26 53  1  0
 26 54  1  0
 27 55  1  0
 27 56  1  0
 28 57  1  0
 28 58  1  0
 29 59  1  0
 29 60  1  0
 30 61  1  0
 30 62  1  0
 31 63  1  0
 32 64  1  0
 32 65  1  0
 33 66  1  0
 33 67  1  0
M  END
>  <smiles>  (25) 
CN1CCN(c2cccc(/C=C/c3nc4ccccc4c(=O)n3CC3CCCCC3)c2)CC1

>  <score_type>  (25) 
oracle

>  <origin>  (25) 
autodockgpu

>  <m_score__min__energy>  (25) 
-9.1300000000000008

>  <m_primary>  (25) 
energy

>  <rmsd>  (25) 
9.400457119478425

>  <m_score__min__rmsd>  (25) 
9.400457119478425

>  <meeko>  (25) 
{"free_energy": -8.46, "intermolecular_energy": -10.25, "internal_energy": -1.64, "cluster_size": 3, "cluster_id": 5, "rank_in_cluster": 3}

>  <energy>  (25) 
-8.22

>  <cluster_rmsd>  (25) 
1.18

>  <cluster>  (25) 
2

$$$$

     RDKit          3D

 67 71  0  0  0  0  0  0  0  0999 V2000
  141.0530   81.6990  222.3520 C   0  0  0  0  0  0  0  0  0  0  0  0
  141.0000   80.6810  223.3790 N   0  0  0  0  0  0  0  0  0  0  0  0
  142.1490   79.8200  223.3660 C   0  0  0  0  0  0  0  0  0  0  0  0
  141.8230   78.3750  223.6840 C   0  0  0  0  0  0  0  0  0  0  0  0
  140.8390   77.9360  222.7190 N   0  0  0  0  0  0  0  0  0  0  0  0
  140.9360   76.7790  221.9320 C   0  0  0  0  0  0  0  0  0  0  0  0
  141.6050   76.7640  220.7160 C   0  0  0  0  0  0  0  0  0  0  0  0
  141.6970   75.6160  219.9420 C   0  0  0  0  0  0  0  0  0  0  0  0
  141.0910   74.4610  220.4230 C   0  0  0  0  0  0  0  0  0  0  0  0
  140.4150   74.4220  221.6240 C   0  0  0  0  0  0  0  0  0  0  0  0
  139.7730   73.2350  222.1530 C   0  0  0  0  0  0  0  0  0  0  0  0
  140.3710   72.0640  222.3000 C   0  0  0  0  0  0  0  0  0  0  0  0
  140.2010   71.2730  223.5350 C   0  0  0  0  0  0  0  0  0  0  0  0
  140.6550   71.8910  224.6580 N   0  0  0  0  0  0  0  0  0  0  0  0
  140.6230   71.2990  225.8630 C   0  0  0  0  0  0  0  0  0  0  0  0
  141.0700   71.8940  227.0100 C   0  0  0  0  0  0  0  0  0  0  0  0
  141.0270   71.2570  228.2510 C   0  0  0  0  0  0  0  0  0  0  0  0
  140.5070   69.9780  228.2980 C   0  0  0  0  0  0  0  0  0  0  0  0
  140.0650   69.4030  227.1390 C   0  0  0  0  0  0  0  0  0  0  0  0
  140.1090   70.0330  225.9150 C   0  0  0  0  0  0  0  0  0  0  0  0
  139.6510   69.4200  224.7590 C   0  0  0  0  0  0  0  0  0  0  0  0
  139.2030   68.2550  224.9140 O   0  0  0  0  0  0  0  0  0  0  0  0
  139.6860   70.0310  223.5410 N   0  0  0  0  0  0  0  0  0  0  0  0
  139.2160   69.4300  222.3370 C   0  0  0  0  0  0  0  0  0  0  0  0
  137.7890   69.0240  222.2550 C   0  0  0  0  0  0  0  0  0  0  0  0
  137.5130   67.5450  222.3220 C   0  0  0  0  0  0  0  0  0  0  0  0
  136.1850   67.3170  221.5630 C   0  0  0  0  0  0  0  0  0  0  0  0
  135.2430   68.4020  221.9350 C   0  0  0  0  0  0  0  0  0  0  0  0
  135.5230   69.0230  223.2630 C   0  0  0  0  0  0  0  0  0  0  0  0
  136.9040   69.6480  223.3260 C   0  0  0  0  0  0  0  0  0  0  0  0
  140.3670   75.6060  222.3390 C   0  0  0  0  0  0  0  0  0  0  0  0
  139.6590   78.7850  222.5740 C   0  0  0  0  0  0  0  0  0  0  0  0
  139.7370   80.0040  223.4590 C   0  0  0  0  0  0  0  0  0  0  0  0
  141.1047   82.6920  222.8224 H   0  0  0  0  0  0  0  0  0  0  0  0
  141.9442   81.5427  221.7265 H   0  0  0  0  0  0  0  0  0  0  0  0
  140.1504   81.6361  221.7265 H   0  0  0  0  0  0  0  0  0  0  0  0
  142.6049   79.8624  222.3658 H   0  0  0  0  0  0  0  0  0  0  0  0
  142.8318   80.1786  224.1504 H   0  0  0  0  0  0  0  0  0  0  0  0
  142.7301   77.7578  223.6047 H   0  0  0  0  0  0  0  0  0  0  0  0
  141.4349   78.2787  224.7087 H   0  0  0  0  0  0  0  0  0  0  0  0
  142.0764   77.6900  220.3550 H   0  0  0  0  0  0  0  0  0  0  0  0
  142.2313   75.6197  218.9805 H   0  0  0  0  0  0  0  0  0  0  0  0
  141.1533   73.5420  219.8217 H   0  0  0  0  0  0  0  0  0  0  0  0
  138.7174   73.3130  222.4524 H   0  0  0  0  0  0  0  0  0  0  0  0
  141.0045   71.6738  221.4898 H   0  0  0  0  0  0  0  0  0  0  0  0
  141.4791   72.9135  226.9524 H   0  0  0  0  0  0  0  0  0  0  0  0
  141.3943   71.7559  229.1600 H   0  0  0  0  0  0  0  0  0  0  0  0
  140.4496   69.4318  229.2511 H   0  0  0  0  0  0  0  0  0  0  0  0
  139.6528   68.3843  227.1866 H   0  0  0  0  0  0  0  0  0  0  0  0
  139.3959   70.1488  221.5240 H   0  0  0  0  0  0  0  0  0  0  0  0
  139.7688   68.4809  222.2773 H   0  0  0  0  0  0  0  0  0  0  0  0
  137.5437   69.3984  221.2502 H   0  0  0  0  0  0  0  0  0  0  0  0
  138.3277   66.9833  221.8416 H   0  0  0  0  0  0  0  0  0  0  0  0
  137.4432   67.1979  223.3635 H   0  0  0  0  0  0  0  0  0  0  0  0
  136.3680   67.3389  220.4785 H   0  0  0  0  0  0  0  0  0  0  0  0
  135.7597   66.3382  221.8293 H   0  0  0  0  0  0  0  0  0  0  0  0
  135.3003   69.1876  221.1672 H   0  0  0  0  0  0  0  0  0  0  0  0
  134.2443   67.9459  222.0022 H   0  0  0  0  0  0  0  0  0  0  0  0
  134.7721   69.8039  223.4538 H   0  0  0  0  0  0  0  0  0  0  0  0
  135.4779   68.2286  224.0225 H   0  0  0  0  0  0  0  0  0  0  0  0
  136.8252   70.7313  223.1521 H   0  0  0  0  0  0  0  0  0  0  0  0
  137.3444   69.4687  224.3179 H   0  0  0  0  0  0  0  0  0  0  0  0
  139.8340   75.6020  223.3012 H   0  0  0  0  0  0  0  0  0  0  0  0
  139.5800   79.1097  221.5260 H   0  0  0  0  0  0  0  0  0  0  0  0
  138.7767   78.2000  222.8729 H   0  0  0  0  0  0  0  0  0  0  0  0
  138.9447   80.7054  223.1585 H   0  0  0  0  0  0  0  0  0  0  0  0
  139.6145   79.6624  224.4974 H   0  0  0  0  0  0  0  0  0  0  0  0
  1  2  1  0
  2  3  1  0
  3  4  1  0
  4  5  1  0
  5  6  1  0
  6  7  2  0
  7  8  1  0
  8  9  2  0
  9 10  1  0
 10 11  1  0
 11 12  2  0
 12 13  1  0
 13 14  2  0
 14 15  1  0
 15 16  2  0
 16 17  1  0
 17 18  2  0
 18 19  1  0
 19 20  2  0
 20 21  1  0
 21 22  2  0
 21 23  1  0
 23 24  1  0
 24 25  1  0
 25 26  1  0
 26 27  1  0
 27 28  1  0
 28 29  1  0
 29 30  1  0
 10 31  2  0
  5 32  1  0
 32 33  1  0
 33  2  1  0
 31  6  1  0
 23 13  1  0
 30 25  1  0
 20 15  1  0
  1 34  1  0
  1 35  1  0
  1 36  1  0
  3 37  1  0
  3 38  1  0
  4 39  1  0
  4 40  1  0
  7 41  1  0
  8 42  1  0
  9 43  1  0
 11 44  1  0
 12 45  1  0
 16 46  1  0
 17 47  1  0
 18 48  1  0
 19 49  1  0
 24 50  1  0
 24 51  1  0
 25 52  1  0
 26 53  1  0
 26 54  1  0
 27 55  1  0
 27 56  1  0
 28 57  1  0
 28 58  1  0
 29 59  1  0
 29 60  1  0
 30 61  1  0
 30 62  1  0
 31 63  1  0
 32 64  1  0
 32 65  1  0
 33 66  1  0
 33 67  1  0
M  END
>  <smiles>  (26) 
CN1CCN(c2cccc(/C=C/c3nc4ccccc4c(=O)n3CC3CCCCC3)c2)CC1

>  <score_type>  (26) 
oracle

>  <origin>  (26) 
autodockgpu

>  <m_score__min__energy>  (26) 
-9.1300000000000008

>  <m_primary>  (26) 
energy

>  <rmsd>  (26) 
6.534336454193788

>  <m_score__min__rmsd>  (26) 
6.534336454193788

>  <meeko>  (26) 
{"free_energy": -8.78, "intermolecular_energy": -10.57, "internal_energy": -1.47, "cluster_size": 21, "cluster_id": 2, "rank_in_cluster": 7}

>  <energy>  (26) 
-8.12

>  <cluster_rmsd>  (26) 
1.56

>  <cluster>  (26) 
2

$$$$

     RDKit          3D

 67 71  0  0  0  0  0  0  0  0999 V2000
  142.6530   79.9090  222.8250 C   0  0  0  0  0  0  0  0  0  0  0  0
  141.4280   79.3440  222.3000 N   0  0  0  0  0  0  0  0  0  0  0  0
  140.9920   78.1870  223.0300 C   0  0  0  0  0  0  0  0  0  0  0  0
  140.3810   77.1150  222.1510 C   0  0  0  0  0  0  0  0  0  0  0  0
  141.3730   76.7560  221.1620 N   0  0  0  0  0  0  0  0  0  0  0  0
  141.7990   75.4490  220.8790 C   0  0  0  0  0  0  0  0  0  0  0  0
  142.9050   75.1870  220.0830 C   0  0  0  0  0  0  0  0  0  0  0  0
  143.3200   73.8930  219.8050 C   0  0  0  0  0  0  0  0  0  0  0  0
  142.5880   72.8470  220.3540 C   0  0  0  0  0  0  0  0  0  0  0  0
  141.4810   73.0520  221.1500 C   0  0  0  0  0  0  0  0  0  0  0  0
  140.6950   71.9840  221.7360 C   0  0  0  0  0  0  0  0  0  0  0  0
  139.7930   72.1560  222.6890 C   0  0  0  0  0  0  0  0  0  0  0  0
  139.7330   71.2480  223.8510 C   0  0  0  0  0  0  0  0  0  0  0  0
  140.3840   71.7100  224.9530 N   0  0  0  0  0  0  0  0  0  0  0  0
  140.4710   70.9930  226.0850 C   0  0  0  0  0  0  0  0  0  0  0  0
  141.1160   71.4300  227.2080 C   0  0  0  0  0  0  0  0  0  0  0  0
  141.1950   70.6660  228.3740 C   0  0  0  0  0  0  0  0  0  0  0  0
  140.5870   69.4260  228.3690 C   0  0  0  0  0  0  0  0  0  0  0  0
  139.9470   69.0090  227.2350 C   0  0  0  0  0  0  0  0  0  0  0  0
  139.8710   69.7650  226.0860 C   0  0  0  0  0  0  0  0  0  0  0  0
  139.2120   69.3120  224.9540 C   0  0  0  0  0  0  0  0  0  0  0  0
  138.7000   68.1670  225.0560 O   0  0  0  0  0  0  0  0  0  0  0  0
  139.1280   70.0480  223.8100 N   0  0  0  0  0  0  0  0  0  0  0  0
  138.4510   69.6120  222.6320 C   0  0  0  0  0  0  0  0  0  0  0  0
  138.8220   68.2990  222.0440 C   0  0  0  0  0  0  0  0  0  0  0  0
  137.7140   67.5380  221.3660 C   0  0  0  0  0  0  0  0  0  0  0  0
  138.0940   66.0420  221.4600 C   0  0  0  0  0  0  0  0  0  0  0  0
  139.5460   65.9110  221.1800 C   0  0  0  0  0  0  0  0  0  0  0  0
  140.1090   67.0200  220.3540 C   0  0  0  0  0  0  0  0  0  0  0  0
  139.9460   68.3730  221.0190 C   0  0  0  0  0  0  0  0  0  0  0  0
  141.1290   74.3710  221.3810 C   0  0  0  0  0  0  0  0  0  0  0  0
  141.9620   77.8630  220.4120 C   0  0  0  0  0  0  0  0  0  0  0  0
  141.4250   79.1950  220.8720 C   0  0  0  0  0  0  0  0  0  0  0  0
  142.6217   79.8946  223.9245 H   0  0  0  0  0  0  0  0  0  0  0  0
  143.5102   79.3153  222.4747 H   0  0  0  0  0  0  0  0  0  0  0  0
  142.7579   80.9465  222.4747 H   0  0  0  0  0  0  0  0  0  0  0  0
  141.8595   77.7570  223.5521 H   0  0  0  0  0  0  0  0  0  0  0  0
  140.2092   78.5196  223.7276 H   0  0  0  0  0  0  0  0  0  0  0  0
  140.1176   76.2356  222.7571 H   0  0  0  0  0  0  0  0  0  0  0  0
  139.4634   77.4822  221.6681 H   0  0  0  0  0  0  0  0  0  0  0  0
  143.4696   76.0308  219.6597 H   0  0  0  0  0  0  0  0  0  0  0  0
  144.1986   73.7013  219.1715 H   0  0  0  0  0  0  0  0  0  0  0  0
  142.9044   71.8144  220.1452 H   0  0  0  0  0  0  0  0  0  0  0  0
  140.8594   70.9621  221.3635 H   0  0  0  0  0  0  0  0  0  0  0  0
  139.0774   72.9880  222.6140 H   0  0  0  0  0  0  0  0  0  0  0  0
  141.5912   72.4219  227.1926 H   0  0  0  0  0  0  0  0  0  0  0  0
  141.7225   71.0384  229.2645 H   0  0  0  0  0  0  0  0  0  0  0  0
  140.6171   68.7847  229.2622 H   0  0  0  0  0  0  0  0  0  0  0  0
  139.4681   68.0187  227.2405 H   0  0  0  0  0  0  0  0  0  0  0  0
  137.3783   69.5686  222.8716 H   0  0  0  0  0  0  0  0  0  0  0  0
  138.7481   70.3430  221.8655 H   0  0  0  0  0  0  0  0  0  0  0  0
  139.1319   67.7649  222.9544 H   0  0  0  0  0  0  0  0  0  0  0  0
  136.7577   67.7209  221.8779 H   0  0  0  0  0  0  0  0  0  0  0  0
  137.5936   67.8548  220.3195 H   0  0  0  0  0  0  0  0  0  0  0  0
  137.8746   65.6653  222.4699 H   0  0  0  0  0  0  0  0  0  0  0  0
  137.5134   65.4572  220.7314 H   0  0  0  0  0  0  0  0  0  0  0  0
  140.0825   65.8884  222.1400 H   0  0  0  0  0  0  0  0  0  0  0  0
  139.6754   64.9855  220.5997 H   0  0  0  0  0  0  0  0  0  0  0  0
  141.1807   66.8320  220.1927 H   0  0  0  0  0  0  0  0  0  0  0  0
  139.5576   67.0442  219.4025 H   0  0  0  0  0  0  0  0  0  0  0  0
  140.8841   68.6504  221.5220 H   0  0  0  0  0  0  0  0  0  0  0  0
  139.7018   69.1297  220.2589 H   0  0  0  0  0  0  0  0  0  0  0  0
  140.2490   74.5633  222.0124 H   0  0  0  0  0  0  0  0  0  0  0  0
  143.0527   77.8498  220.5541 H   0  0  0  0  0  0  0  0  0  0  0  0
  141.7018   77.7358  219.3508 H   0  0  0  0  0  0  0  0  0  0  0  0
  142.0460   79.9915  220.4362 H   0  0  0  0  0  0  0  0  0  0  0  0
  140.3784   79.2578  220.5392 H   0  0  0  0  0  0  0  0  0  0  0  0
  1  2  1  0
  2  3  1  0
  3  4  1  0
  4  5  1  0
  5  6  1  0
  6  7  2  0
  7  8  1  0
  8  9  2  0
  9 10  1  0
 10 11  1  0
 11 12  2  0
 12 13  1  0
 13 14  2  0
 14 15  1  0
 15 16  2  0
 16 17  1  0
 17 18  2  0
 18 19  1  0
 19 20  2  0
 20 21  1  0
 21 22  2  0
 21 23  1  0
 23 24  1  0
 24 25  1  0
 25 26  1  0
 26 27  1  0
 27 28  1  0
 28 29  1  0
 29 30  1  0
 10 31  2  0
  5 32  1  0
 32 33  1  0
 33  2  1  0
 31  6  1  0
 23 13  1  0
 30 25  1  0
 20 15  1  0
  1 34  1  0
  1 35  1  0
  1 36  1  0
  3 37  1  0
  3 38  1  0
  4 39  1  0
  4 40  1  0
  7 41  1  0
  8 42  1  0
  9 43  1  0
 11 44  1  0
 12 45  1  0
 16 46  1  0
 17 47  1  0
 18 48  1  0
 19 49  1  0
 24 50  1  0
 24 51  1  0
 25 52  1  0
 26 53  1  0
 26 54  1  0
 27 55  1  0
 27 56  1  0
 28 57  1  0
 28 58  1  0
 29 59  1  0
 29 60  1  0
 30 61  1  0
 30 62  1  0
 31 63  1  0
 32 64  1  0
 32 65  1  0
 33 66  1  0
 33 67  1  0
M  END
>  <smiles>  (27) 
CN1CCN(c2cccc(/C=C/c3nc4ccccc4c(=O)n3CC3CCCCC3)c2)CC1

>  <score_type>  (27) 
oracle

>  <origin>  (27) 
autodockgpu

>  <m_score__min__energy>  (27) 
-9.1300000000000008

>  <m_primary>  (27) 
energy

>  <rmsd>  (27) 
7.255784818030709

>  <m_score__min__rmsd>  (27) 
7.255784818030709

>  <meeko>  (27) 
{"free_energy": -8.88, "intermolecular_energy": -10.67, "internal_energy": -1.56, "cluster_size": 21, "cluster_id": 2, "rank_in_cluster": 5}

>  <energy>  (27) 
-8.09

>  <cluster_rmsd>  (27) 
1.45

>  <cluster>  (27) 
2

$$$$

     RDKit          3D

 67 71  0  0  0  0  0  0  0  0999 V2000
  139.2460   69.8580  228.4660 C   0  0  0  0  0  0  0  0  0  0  0  0
  140.4720   69.9000  227.6990 N   0  0  0  0  0  0  0  0  0  0  0  0
  140.7520   71.2060  227.1710 C   0  0  0  0  0  0  0  0  0  0  0  0
  141.3670   71.1770  225.7880 C   0  0  0  0  0  0  0  0  0  0  0  0
  140.4530   70.4590  224.9270 N   0  0  0  0  0  0  0  0  0  0  0  0
  139.9650   70.9230  223.6960 C   0  0  0  0  0  0  0  0  0  0  0  0
  139.5830   70.0600  222.6790 C   0  0  0  0  0  0  0  0  0  0  0  0
  139.1020   70.5240  221.4630 C   0  0  0  0  0  0  0  0  0  0  0  0
  139.0110   71.9000  221.2870 C   0  0  0  0  0  0  0  0  0  0  0  0
  139.3780   72.8010  222.2650 C   0  0  0  0  0  0  0  0  0  0  0  0
  139.2960   74.2400  222.1120 C   0  0  0  0  0  0  0  0  0  0  0  0
  139.7620   74.9090  221.0700 C   0  0  0  0  0  0  0  0  0  0  0  0
  141.1800   74.8060  220.6730 C   0  0  0  0  0  0  0  0  0  0  0  0
  141.6770   73.5400  220.7060 N   0  0  0  0  0  0  0  0  0  0  0  0
  142.9600   73.2680  220.4210 C   0  0  0  0  0  0  0  0  0  0  0  0
  143.4890   72.0070  220.4440 C   0  0  0  0  0  0  0  0  0  0  0  0
  144.8280   71.7500  220.1450 C   0  0  0  0  0  0  0  0  0  0  0  0
  145.6290   72.8250  219.8140 C   0  0  0  0  0  0  0  0  0  0  0  0
  145.0800   74.0760  219.7960 C   0  0  0  0  0  0  0  0  0  0  0  0
  143.7580   74.3280  220.0920 C   0  0  0  0  0  0  0  0  0  0  0  0
  143.2330   75.6110  220.0640 C   0  0  0  0  0  0  0  0  0  0  0  0
  144.0510   76.5160  219.7560 O   0  0  0  0  0  0  0  0  0  0  0  0
  141.9280   75.8760  220.3530 N   0  0  0  0  0  0  0  0  0  0  0  0
  141.3570   77.1830  220.3250 C   0  0  0  0  0  0  0  0  0  0  0  0
  141.7170   78.1390  221.4040 C   0  0  0  0  0  0  0  0  0  0  0  0
  141.4230   79.5910  221.1320 C   0  0  0  0  0  0  0  0  0  0  0  0
  142.4330   80.4030  221.9760 C   0  0  0  0  0  0  0  0  0  0  0  0
  142.5420   79.7670  223.3120 C   0  0  0  0  0  0  0  0  0  0  0  0
  141.3410   78.9740  223.7090 C   0  0  0  0  0  0  0  0  0  0  0  0
  141.0560   77.8390  222.7440 C   0  0  0  0  0  0  0  0  0  0  0  0
  139.8480   72.2600  223.4490 C   0  0  0  0  0  0  0  0  0  0  0  0
  140.0200   69.1470  225.4030 C   0  0  0  0  0  0  0  0  0  0  0  0
  140.6030   68.8250  226.7570 C   0  0  0  0  0  0  0  0  0  0  0  0
  139.4848   69.8662  229.5397 H   0  0  0  0  0  0  0  0  0  0  0  0
  138.6298   70.7356  228.2207 H   0  0  0  0  0  0  0  0  0  0  0  0
  138.6913   68.9403  228.2207 H   0  0  0  0  0  0  0  0  0  0  0  0
  139.8097   71.7714  227.1216 H   0  0  0  0  0  0  0  0  0  0  0  0
  141.4852   71.6769  227.8423 H   0  0  0  0  0  0  0  0  0  0  0  0
  141.5071   72.2029  225.4165 H   0  0  0  0  0  0  0  0  0  0  0  0
  142.3507   70.6852  225.8089 H   0  0  0  0  0  0  0  0  0  0  0  0
  139.6639   68.9751  222.8416 H   0  0  0  0  0  0  0  0  0  0  0  0
  138.8031   69.8273  220.6660 H   0  0  0  0  0  0  0  0  0  0  0  0
  138.6311   72.2858  220.3295 H   0  0  0  0  0  0  0  0  0  0  0  0
  138.8138   74.8147  222.9165 H   0  0  0  0  0  0  0  0  0  0  0  0
  139.0826   75.5516  220.4908 H   0  0  0  0  0  0  0  0  0  0  0  0
  142.8344   71.1633  220.7081 H   0  0  0  0  0  0  0  0  0  0  0  0
  145.2311   70.7269  220.1721 H   0  0  0  0  0  0  0  0  0  0  0  0
  146.6911   72.6767  219.5690 H   0  0  0  0  0  0  0  0  0  0  0  0
  145.7266   74.9257  219.5316 H   0  0  0  0  0  0  0  0  0  0  0  0
  141.6508   77.6450  219.3709 H   0  0  0  0  0  0  0  0  0  0  0  0
  140.2804   77.0088  220.4688 H   0  0  0  0  0  0  0  0  0  0  0  0
  142.8055   77.9844  221.4384 H   0  0  0  0  0  0  0  0  0  0  0  0
  141.5550   79.8127  220.0627 H   0  0  0  0  0  0  0  0  0  0  0  0
  140.3857   79.8454  221.3953 H   0  0  0  0  0  0  0  0  0  0  0  0
  143.4160   80.4018  221.4823 H   0  0  0  0  0  0  0  0  0  0  0  0
  142.0909   81.4434  222.0786 H   0  0  0  0  0  0  0  0  0  0  0  0
  143.4128   79.0950  223.3047 H   0  0  0  0  0  0  0  0  0  0  0  0
  142.6405   80.5819  224.0443 H   0  0  0  0  0  0  0  0  0  0  0  0
  141.5107   78.5524  224.7107 H   0  0  0  0  0  0  0  0  0  0  0  0
  140.4732   79.6499  223.6994 H   0  0  0  0  0  0  0  0  0  0  0  0
  141.4601   76.9004  223.1511 H   0  0  0  0  0  0  0  0  0  0  0  0
  139.9696   77.7381  222.6045 H   0  0  0  0  0  0  0  0  0  0  0  0
  140.1481   72.9560  224.2462 H   0  0  0  0  0  0  0  0  0  0  0  0
  138.9225   69.1386  225.4761 H   0  0  0  0  0  0  0  0  0  0  0  0
  140.3729   68.3890  224.6883 H   0  0  0  0  0  0  0  0  0  0  0  0
  140.0850   67.9421  227.1597 H   0  0  0  0  0  0  0  0  0  0  0  0
  141.6787   68.6438  226.6151 H   0  0  0  0  0  0  0  0  0  0  0  0
  1  2  1  0
  2  3  1  0
  3  4  1  0
  4  5  1  0
  5  6  1  0
  6  7  2  0
  7  8  1  0
  8  9  2  0
  9 10  1  0
 10 11  1  0
 11 12  2  0
 12 13  1  0
 13 14  2  0
 14 15  1  0
 15 16  2  0
 16 17  1  0
 17 18  2  0
 18 19  1  0
 19 20  2  0
 20 21  1  0
 21 22  2  0
 21 23  1  0
 23 24  1  0
 24 25  1  0
 25 26  1  0
 26 27  1  0
 27 28  1  0
 28 29  1  0
 29 30  1  0
 10 31  2  0
  5 32  1  0
 32 33  1  0
 33  2  1  0
 31  6  1  0
 23 13  1  0
 30 25  1  0
 20 15  1  0
  1 34  1  0
  1 35  1  0
  1 36  1  0
  3 37  1  0
  3 38  1  0
  4 39  1  0
  4 40  1  0
  7 41  1  0
  8 42  1  0
  9 43  1  0
 11 44  1  0
 12 45  1  0
 16 46  1  0
 17 47  1  0
 18 48  1  0
 19 49  1  0
 24 50  1  0
 24 51  1  0
 25 52  1  0
 26 53  1  0
 26 54  1  0
 27 55  1  0
 27 56  1  0
 28 57  1  0
 28 58  1  0
 29 59  1  0
 29 60  1  0
 30 61  1  0
 30 62  1  0
 31 63  1  0
 32 64  1  0
 32 65  1  0
 33 66  1  0
 33 67  1  0
M  END
>  <smiles>  (28) 
CN1CCN(c2cccc(/C=C/c3nc4ccccc4c(=O)n3CC3CCCCC3)c2)CC1

>  <score_type>  (28) 
oracle

>  <origin>  (28) 
autodockgpu

>  <m_score__min__energy>  (28) 
-9.1300000000000008

>  <m_primary>  (28) 
energy

>  <rmsd>  (28) 
9.334607905508276

>  <m_score__min__rmsd>  (28) 
9.334607905508276

>  <meeko>  (28) 
{"free_energy": -8.64, "intermolecular_energy": -10.43, "internal_energy": -1.85, "cluster_size": 4, "cluster_id": 4, "rank_in_cluster": 3}

>  <energy>  (28) 
-8.04

>  <cluster_rmsd>  (28) 
1.53

>  <cluster>  (28) 
2

$$$$

     RDKit          3D

 67 71  0  0  0  0  0  0  0  0999 V2000
  140.1900   68.8350  228.7070 C   0  0  0  0  0  0  0  0  0  0  0  0
  141.0260   69.3150  227.6280 N   0  0  0  0  0  0  0  0  0  0  0  0
  140.8080   70.7040  227.3320 C   0  0  0  0  0  0  0  0  0  0  0  0
  140.8870   71.0240  225.8540 C   0  0  0  0  0  0  0  0  0  0  0  0
  139.9100   70.1950  225.1830 N   0  0  0  0  0  0  0  0  0  0  0  0
  138.9310   70.6570  224.2910 C   0  0  0  0  0  0  0  0  0  0  0  0
  137.6550   70.1150  224.2470 C   0  0  0  0  0  0  0  0  0  0  0  0
  136.6900   70.5750  223.3610 C   0  0  0  0  0  0  0  0  0  0  0  0
  137.0420   71.6120  222.5050 C   0  0  0  0  0  0  0  0  0  0  0  0
  138.2960   72.1860  222.5080 C   0  0  0  0  0  0  0  0  0  0  0  0
  138.6940   73.2670  221.6280 C   0  0  0  0  0  0  0  0  0  0  0  0
  139.5180   74.2440  221.9700 C   0  0  0  0  0  0  0  0  0  0  0  0
  140.8580   74.3550  221.3620 C   0  0  0  0  0  0  0  0  0  0  0  0
  141.5480   73.1840  221.3180 N   0  0  0  0  0  0  0  0  0  0  0  0
  142.8010   73.1080  220.8410 C   0  0  0  0  0  0  0  0  0  0  0  0
  143.5190   71.9460  220.7820 C   0  0  0  0  0  0  0  0  0  0  0  0
  144.8220   71.8940  220.2830 C   0  0  0  0  0  0  0  0  0  0  0  0
  145.3840   73.0730  219.8340 C   0  0  0  0  0  0  0  0  0  0  0  0
  144.6480   74.2230  219.9010 C   0  0  0  0  0  0  0  0  0  0  0  0
  143.3620   74.2720  220.3950 C   0  0  0  0  0  0  0  0  0  0  0  0
  142.6430   75.4560  220.4470 C   0  0  0  0  0  0  0  0  0  0  0  0
  143.2520   76.4700  220.0190 O   0  0  0  0  0  0  0  0  0  0  0  0
  141.3710   75.5210  220.9320 N   0  0  0  0  0  0  0  0  0  0  0  0
  140.6040   76.7220  220.9910 C   0  0  0  0  0  0  0  0  0  0  0  0
  140.9720   77.7520  221.9970 C   0  0  0  0  0  0  0  0  0  0  0  0
  141.7660   78.9250  221.4860 C   0  0  0  0  0  0  0  0  0  0  0  0
  142.5870   79.4490  222.6880 C   0  0  0  0  0  0  0  0  0  0  0  0
  141.7160   79.4360  223.8890 C   0  0  0  0  0  0  0  0  0  0  0  0
  140.2570   79.5180  223.5850 C   0  0  0  0  0  0  0  0  0  0  0  0
  139.7830   78.3580  222.7290 C   0  0  0  0  0  0  0  0  0  0  0  0
  139.2020   71.6720  223.4190 C   0  0  0  0  0  0  0  0  0  0  0  0
  139.9720   68.7650  225.4770 C   0  0  0  0  0  0  0  0  0  0  0  0
  141.0490   68.4490  226.4840 C   0  0  0  0  0  0  0  0  0  0  0  0
  140.6488   69.0985  229.6714 H   0  0  0  0  0  0  0  0  0  0  0  0
  139.1956   69.2997  228.6350 H   0  0  0  0  0  0  0  0  0  0  0  0
  140.0900   67.7419  228.6350 H   0  0  0  0  0  0  0  0  0  0  0  0
  139.8091   70.9856  227.6967 H   0  0  0  0  0  0  0  0  0  0  0  0
  141.6080   71.2714  227.8301 H   0  0  0  0  0  0  0  0  0  0  0  0
  140.6583   72.0868  225.6859 H   0  0  0  0  0  0  0  0  0  0  0  0
  141.8974   70.8278  225.4659 H   0  0  0  0  0  0  0  0  0  0  0  0
  137.3998   69.2956  224.9351 H   0  0  0  0  0  0  0  0  0  0  0  0
  135.6824   70.1343  223.3373 H   0  0  0  0  0  0  0  0  0  0  0  0
  136.2901   71.9901  221.7967 H   0  0  0  0  0  0  0  0  0  0  0  0
  138.2834   73.2756  220.6075 H   0  0  0  0  0  0  0  0  0  0  0  0
  139.1995   74.9844  222.7186 H   0  0  0  0  0  0  0  0  0  0  0  0
  143.0525   71.0169  221.1413 H   0  0  0  0  0  0  0  0  0  0  0  0
  145.3812   70.9474  220.2487 H   0  0  0  0  0  0  0  0  0  0  0  0
  146.4067   73.0864  219.4292 H   0  0  0  0  0  0  0  0  0  0  0  0
  145.1053   75.1570  219.5424 H   0  0  0  0  0  0  0  0  0  0  0  0
  140.6693   77.1975  220.0012 H   0  0  0  0  0  0  0  0  0  0  0  0
  139.6041   76.3867  221.3037 H   0  0  0  0  0  0  0  0  0  0  0  0
  141.5997   77.1462  222.6671 H   0  0  0  0  0  0  0  0  0  0  0  0
  142.4380   78.6062  220.6755 H   0  0  0  0  0  0  0  0  0  0  0  0
  141.1080   79.7071  221.0794 H   0  0  0  0  0  0  0  0  0  0  0  0
  143.4591   78.7995  222.8541 H   0  0  0  0  0  0  0  0  0  0  0  0
  142.9411   80.4711  222.4880 H   0  0  0  0  0  0  0  0  0  0  0  0
  141.9020   78.5025  224.4404 H   0  0  0  0  0  0  0  0  0  0  0  0
  141.9689   80.3327  224.4738 H   0  0  0  0  0  0  0  0  0  0  0  0
  139.6971   79.5114  224.5318 H   0  0  0  0  0  0  0  0  0  0  0  0
  140.0813   80.4466  223.0221 H   0  0  0  0  0  0  0  0  0  0  0  0
  139.3185   77.5943  223.3702 H   0  0  0  0  0  0  0  0  0  0  0  0
  139.0453   78.7185  221.9970 H   0  0  0  0  0  0  0  0  0  0  0  0
  140.2101   72.1115  223.4422 H   0  0  0  0  0  0  0  0  0  0  0  0
  139.0010   68.4415  225.8801 H   0  0  0  0  0  0  0  0  0  0  0  0
  140.2083   68.2329  224.5437 H   0  0  0  0  0  0  0  0  0  0  0  0
  140.9132   67.4128  226.8273 H   0  0  0  0  0  0  0  0  0  0  0  0
  142.0174   68.5953  225.9831 H   0  0  0  0  0  0  0  0  0  0  0  0
  1  2  1  0
  2  3  1  0
  3  4  1  0
  4  5  1  0
  5  6  1  0
  6  7  2  0
  7  8  1  0
  8  9  2  0
  9 10  1  0
 10 11  1  0
 11 12  2  0
 12 13  1  0
 13 14  2  0
 14 15  1  0
 15 16  2  0
 16 17  1  0
 17 18  2  0
 18 19  1  0
 19 20  2  0
 20 21  1  0
 21 22  2  0
 21 23  1  0
 23 24  1  0
 24 25  1  0
 25 26  1  0
 26 27  1  0
 27 28  1  0
 28 29  1  0
 29 30  1  0
 10 31  2  0
  5 32  1  0
 32 33  1  0
 33  2  1  0
 31  6  1  0
 23 13  1  0
 30 25  1  0
 20 15  1  0
  1 34  1  0
  1 35  1  0
  1 36  1  0
  3 37  1  0
  3 38  1  0
  4 39  1  0
  4 40  1  0
  7 41  1  0
  8 42  1  0
  9 43  1  0
 11 44  1  0
 12 45  1  0
 16 46  1  0
 17 47  1  0
 18 48  1  0
 19 49  1  0
 24 50  1  0
 24 51  1  0
 25 52  1  0
 26 53  1  0
 26 54  1  0
 27 55  1  0
 27 56  1  0
 28 57  1  0
 28 58  1  0
 29 59  1  0
 29 60  1  0
 30 61  1  0
 30 62  1  0
 31 63  1  0
 32 64  1  0
 32 65  1  0
 33 66  1  0
 33 67  1  0
M  END
>  <smiles>  (29) 
CN1CCN(c2cccc(/C=C/c3nc4ccccc4c(=O)n3CC3CCCCC3)c2)CC1

>  <score_type>  (29) 
oracle

>  <origin>  (29) 
autodockgpu

>  <m_score__min__energy>  (29) 
-9.1300000000000008

>  <m_primary>  (29) 
energy

>  <rmsd>  (29) 
10.033030775951538

>  <m_score__min__rmsd>  (29) 
10.033030775951538

>  <meeko>  (29) 
{"free_energy": -8.91, "intermolecular_energy": -10.7, "internal_energy": -1.6, "cluster_size": 4, "cluster_id": 4, "rank_in_cluster": 1}

>  <energy>  (29) 
-7.99

>  <cluster_rmsd>  (29) 
1.29

>  <cluster>  (29) 
2

$$$$

     RDKit          3D

 67 71  0  0  0  0  0  0  0  0999 V2000
  140.8420   80.7790  220.8720 C   0  0  0  0  0  0  0  0  0  0  0  0
  140.7170   80.1130  222.1510 N   0  0  0  0  0  0  0  0  0  0  0  0
  141.8300   79.2550  222.4420 C   0  0  0  0  0  0  0  0  0  0  0  0
  141.4370   77.9800  223.1590 C   0  0  0  0  0  0  0  0  0  0  0  0
  140.4680   77.3020  222.3270 N   0  0  0  0  0  0  0  0  0  0  0  0
  140.5440   75.9610  221.9220 C   0  0  0  0  0  0  0  0  0  0  0  0
  141.6040   75.4730  221.1710 C   0  0  0  0  0  0  0  0  0  0  0  0
  141.6730   74.1450  220.7720 C   0  0  0  0  0  0  0  0  0  0  0  0
  140.6360   73.3020  221.1520 C   0  0  0  0  0  0  0  0  0  0  0  0
  139.5600   73.7360  221.8980 C   0  0  0  0  0  0  0  0  0  0  0  0
  138.4620   72.8820  222.3090 C   0  0  0  0  0  0  0  0  0  0  0  0
  138.4960   71.5590  222.2890 C   0  0  0  0  0  0  0  0  0  0  0  0
  138.8880   70.7910  223.4870 C   0  0  0  0  0  0  0  0  0  0  0  0
  139.5650   71.5170  224.4170 N   0  0  0  0  0  0  0  0  0  0  0  0
  140.0370   70.9670  225.5470 C   0  0  0  0  0  0  0  0  0  0  0  0
  140.7200   71.6700  226.5010 C   0  0  0  0  0  0  0  0  0  0  0  0
  141.2030   71.0760  227.6680 C   0  0  0  0  0  0  0  0  0  0  0  0
  140.9680   69.7260  227.8450 C   0  0  0  0  0  0  0  0  0  0  0  0
  140.2830   69.0440  226.8790 C   0  0  0  0  0  0  0  0  0  0  0  0
  139.8080   69.6320  225.7280 C   0  0  0  0  0  0  0  0  0  0  0  0
  139.1150   68.9090  224.7690 C   0  0  0  0  0  0  0  0  0  0  0  0
  138.9630   67.6880  225.0280 O   0  0  0  0  0  0  0  0  0  0  0  0
  138.6380   69.4770  223.6250 N   0  0  0  0  0  0  0  0  0  0  0  0
  137.9160   68.7620  222.6250 C   0  0  0  0  0  0  0  0  0  0  0  0
  138.6800   67.9670  221.6290 C   0  0  0  0  0  0  0  0  0  0  0  0
  139.9790   68.5660  221.1560 C   0  0  0  0  0  0  0  0  0  0  0  0
  140.2260   68.0010  219.7380 C   0  0  0  0  0  0  0  0  0  0  0  0
  139.8760   66.5590  219.7420 C   0  0  0  0  0  0  0  0  0  0  0  0
  139.9630   65.9150  221.0860 C   0  0  0  0  0  0  0  0  0  0  0  0
  139.0310   66.5610  222.0950 C   0  0  0  0  0  0  0  0  0  0  0  0
  139.5630   75.0720  222.2560 C   0  0  0  0  0  0  0  0  0  0  0  0
  139.3270   78.1030  221.8870 C   0  0  0  0  0  0  0  0  0  0  0  0
  139.4260   79.5270  222.3750 C   0  0  0  0  0  0  0  0  0  0  0  0
  141.0427   81.8484  221.0335 H   0  0  0  0  0  0  0  0  0  0  0  0
  141.6719   80.3317  220.3052 H   0  0  0  0  0  0  0  0  0  0  0  0
  139.9064   80.6630  220.3052 H   0  0  0  0  0  0  0  0  0  0  0  0
  142.3191   78.9852  221.4944 H   0  0  0  0  0  0  0  0  0  0  0  0
  142.5009   79.8109  223.1135 H   0  0  0  0  0  0  0  0  0  0  0  0
  142.3210   77.3417  223.3044 H   0  0  0  0  0  0  0  0  0  0  0  0
  141.0126   78.2039  224.1488 H   0  0  0  0  0  0  0  0  0  0  0  0
  142.4141   76.1592  220.8831 H   0  0  0  0  0  0  0  0  0  0  0  0
  142.5193   73.7731  220.1757 H   0  0  0  0  0  0  0  0  0  0  0  0
  140.6746   72.2462  220.8457 H   0  0  0  0  0  0  0  0  0  0  0  0
  137.5392   73.3663  222.6609 H   0  0  0  0  0  0  0  0  0  0  0  0
  138.2282   71.0239  221.3660 H   0  0  0  0  0  0  0  0  0  0  0  0
  140.8953   72.7443  226.3425 H   0  0  0  0  0  0  0  0  0  0  0  0
  141.7514   71.6619  228.4203 H   0  0  0  0  0  0  0  0  0  0  0  0
  141.3260   69.2092  228.7477 H   0  0  0  0  0  0  0  0  0  0  0  0
  140.1016   67.9694  227.0287 H   0  0  0  0  0  0  0  0  0  0  0  0
  137.2415   68.0669  223.1465 H   0  0  0  0  0  0  0  0  0  0  0  0
  137.4338   69.5495  222.0272 H   0  0  0  0  0  0  0  0  0  0  0  0
  137.9565   67.9558  220.8005 H   0  0  0  0  0  0  0  0  0  0  0  0
  139.9024   69.6628  221.1211 H   0  0  0  0  0  0  0  0  0  0  0  0
  140.8063   68.3152  221.8362 H   0  0  0  0  0  0  0  0  0  0  0  0
  139.5964   68.5343  219.0105 H   0  0  0  0  0  0  0  0  0  0  0  0
  141.2810   68.1335  219.4564 H   0  0  0  0  0  0  0  0  0  0  0  0
  138.8449   66.4527  219.3740 H   0  0  0  0  0  0  0  0  0  0  0  0
  140.6107   66.0522  219.0990 H   0  0  0  0  0  0  0  0  0  0  0  0
  139.6959   64.8525  220.9872 H   0  0  0  0  0  0  0  0  0  0  0  0
  140.9930   66.0376  221.4522 H   0  0  0  0  0  0  0  0  0  0  0  0
  138.1120   65.9627  222.1817 H   0  0  0  0  0  0  0  0  0  0  0  0
  139.5277   66.6114  223.0752 H   0  0  0  0  0  0  0  0  0  0  0  0
  138.7161   75.4442  222.8512 H   0  0  0  0  0  0  0  0  0  0  0  0
  139.2946   78.1040  220.7875 H   0  0  0  0  0  0  0  0  0  0  0  0
  138.4126   77.6585  222.3070 H   0  0  0  0  0  0  0  0  0  0  0  0
  138.6720   80.1303  221.8482 H   0  0  0  0  0  0  0  0  0  0  0  0
  139.2577   79.5125  223.4620 H   0  0  0  0  0  0  0  0  0  0  0  0
  1  2  1  0
  2  3  1  0
  3  4  1  0
  4  5  1  0
  5  6  1  0
  6  7  2  0
  7  8  1  0
  8  9  2  0
  9 10  1  0
 10 11  1  0
 11 12  2  0
 12 13  1  0
 13 14  2  0
 14 15  1  0
 15 16  2  0
 16 17  1  0
 17 18  2  0
 18 19  1  0
 19 20  2  0
 20 21  1  0
 21 22  2  0
 21 23  1  0
 23 24  1  0
 24 25  1  0
 25 26  1  0
 26 27  1  0
 27 28  1  0
 28 29  1  0
 29 30  1  0
 10 31  2  0
  5 32  1  0
 32 33  1  0
 33  2  1  0
 31  6  1  0
 23 13  1  0
 30 25  1  0
 20 15  1  0
  1 34  1  0
  1 35  1  0
  1 36  1  0
  3 37  1  0
  3 38  1  0
  4 39  1  0
  4 40  1  0
  7 41  1  0
  8 42  1  0
  9 43  1  0
 11 44  1  0
 12 45  1  0
 16 46  1  0
 17 47  1  0
 18 48  1  0
 19 49  1  0
 24 50  1  0
 24 51  1  0
 25 52  1  0
 26 53  1  0
 26 54  1  0
 27 55  1  0
 27 56  1  0
 28 57  1  0
 28 58  1  0
 29 59  1  0
 29 60  1  0
 30 61  1  0
 30 62  1  0
 31 63  1  0
 32 64  1  0
 32 65  1  0
 33 66  1  0
 33 67  1  0
M  END
>  <smiles>  (30) 
CN1CCN(c2cccc(/C=C/c3nc4ccccc4c(=O)n3CC3CCCCC3)c2)CC1

>  <score_type>  (30) 
oracle

>  <origin>  (30) 
autodockgpu

>  <m_score__min__energy>  (30) 
-9.1300000000000008

>  <m_primary>  (30) 
energy

>  <rmsd>  (30) 
6.509981871897882

>  <m_score__min__rmsd>  (30) 
6.509981871897882

>  <meeko>  (30) 
{"free_energy": -8.09, "intermolecular_energy": -9.88, "internal_energy": -1.76, "cluster_size": 21, "cluster_id": 2, "rank_in_cluster": 18}

>  <energy>  (30) 
-7.95

>  <cluster_rmsd>  (30) 
1.5

>  <cluster>  (30) 
2

$$$$

     RDKit          3D

 67 71  0  0  0  0  0  0  0  0999 V2000
  141.8010   78.9790  224.1130 C   0  0  0  0  0  0  0  0  0  0  0  0
  140.9030   79.1210  222.9870 N   0  0  0  0  0  0  0  0  0  0  0  0
  139.5210   79.0100  223.3600 C   0  0  0  0  0  0  0  0  0  0  0  0
  138.6750   78.2870  222.3320 C   0  0  0  0  0  0  0  0  0  0  0  0
  139.2630   76.9800  222.1360 N   0  0  0  0  0  0  0  0  0  0  0  0
  138.5710   75.7620  222.2090 C   0  0  0  0  0  0  0  0  0  0  0  0
  137.2560   75.6820  222.6440 C   0  0  0  0  0  0  0  0  0  0  0  0
  136.5780   74.4730  222.7140 C   0  0  0  0  0  0  0  0  0  0  0  0
  137.2610   73.3250  222.3320 C   0  0  0  0  0  0  0  0  0  0  0  0
  138.5680   73.3490  221.8930 C   0  0  0  0  0  0  0  0  0  0  0  0
  139.3090   72.1700  221.4880 C   0  0  0  0  0  0  0  0  0  0  0  0
  140.3280   71.6610  222.1600 C   0  0  0  0  0  0  0  0  0  0  0  0
  140.1280   71.0210  223.4750 C   0  0  0  0  0  0  0  0  0  0  0  0
  140.6570   71.7150  224.5180 N   0  0  0  0  0  0  0  0  0  0  0  0
  140.6080   71.2580  225.7790 C   0  0  0  0  0  0  0  0  0  0  0  0
  141.1300   71.9320  226.8480 C   0  0  0  0  0  0  0  0  0  0  0  0
  141.0680   71.4350  228.1520 C   0  0  0  0  0  0  0  0  0  0  0  0
  140.4500   70.2150  228.3440 C   0  0  0  0  0  0  0  0  0  0  0  0
  139.9350   69.5590  227.2610 C   0  0  0  0  0  0  0  0  0  0  0  0
  139.9980   70.0510  225.9760 C   0  0  0  0  0  0  0  0  0  0  0  0
  139.4640   69.3580  224.9000 C   0  0  0  0  0  0  0  0  0  0  0  0
  138.9300   68.2560  225.1860 O   0  0  0  0  0  0  0  0  0  0  0  0
  139.5170   69.8330  223.6230 N   0  0  0  0  0  0  0  0  0  0  0  0
  138.9710   69.1470  222.4980 C   0  0  0  0  0  0  0  0  0  0  0  0
  137.4930   69.0660  222.3640 C   0  0  0  0  0  0  0  0  0  0  0  0
  136.6910   69.8980  223.3300 C   0  0  0  0  0  0  0  0  0  0  0  0
  135.3290   69.1840  223.4890 C   0  0  0  0  0  0  0  0  0  0  0  0
  134.8840   68.7240  222.1500 C   0  0  0  0  0  0  0  0  0  0  0  0
  135.4580   69.5050  221.0150 C   0  0  0  0  0  0  0  0  0  0  0  0
  136.9740   69.4410  220.9820 C   0  0  0  0  0  0  0  0  0  0  0  0
  139.1760   74.5920  221.8500 C   0  0  0  0  0  0  0  0  0  0  0  0
  140.6940   76.9570  221.8380 C   0  0  0  0  0  0  0  0  0  0  0  0
  141.2850   78.3450  221.8410 C   0  0  0  0  0  0  0  0  0  0  0  0
  141.2315   79.0691  225.0498 H   0  0  0  0  0  0  0  0  0  0  0  0
  142.2867   77.9929  224.0725 H   0  0  0  0  0  0  0  0  0  0  0  0
  142.5673   79.7671  224.0725 H   0  0  0  0  0  0  0  0  0  0  0  0
  139.4598   78.4600  224.3106 H   0  0  0  0  0  0  0  0  0  0  0  0
  139.1249   80.0328  223.4442 H   0  0  0  0  0  0  0  0  0  0  0  0
  137.6428   78.1847  222.6982 H   0  0  0  0  0  0  0  0  0  0  0  0
  138.6463   78.8478  221.3861 H   0  0  0  0  0  0  0  0  0  0  0  0
  136.7354   76.6040  222.9422 H   0  0  0  0  0  0  0  0  0  0  0  0
  135.5350   74.4253  223.0603 H   0  0  0  0  0  0  0  0  0  0  0  0
  136.7383   72.3584  222.3817 H   0  0  0  0  0  0  0  0  0  0  0  0
  139.0030   71.6653  220.5597 H   0  0  0  0  0  0  0  0  0  0  0  0
  141.3401   71.7154  221.7325 H   0  0  0  0  0  0  0  0  0  0  0  0
  141.6174   72.9027  226.6745 H   0  0  0  0  0  0  0  0  0  0  0  0
  141.4962   71.9955  228.9960 H   0  0  0  0  0  0  0  0  0  0  0  0
  140.3735   69.7788  229.3509 H   0  0  0  0  0  0  0  0  0  0  0  0
  139.4448   68.5878  227.4241 H   0  0  0  0  0  0  0  0  0  0  0  0
  139.3515   69.6487  221.5961 H   0  0  0  0  0  0  0  0  0  0  0  0
  139.2854   68.1027  222.6416 H   0  0  0  0  0  0  0  0  0  0  0  0
  137.3414   67.9989  222.5839 H   0  0  0  0  0  0  0  0  0  0  0  0
  137.2057   69.9574  224.3003 H   0  0  0  0  0  0  0  0  0  0  0  0
  136.5631   70.9267  222.9619 H   0  0  0  0  0  0  0  0  0  0  0  0
  135.4382   68.3204  224.1615 H   0  0  0  0  0  0  0  0  0  0  0  0
  134.5875   69.8740  223.9180 H   0  0  0  0  0  0  0  0  0  0  0  0
  135.1809   67.6716  222.0301 H   0  0  0  0  0  0  0  0  0  0  0  0
  133.7937   68.8651  222.1125 H   0  0  0  0  0  0  0  0  0  0  0  0
  135.0659   69.0981  220.0712 H   0  0  0  0  0  0  0  0  0  0  0  0
  135.1679   70.5575  221.1492 H   0  0  0  0  0  0  0  0  0  0  0  0
  137.2938   68.6833  220.2515 H   0  0  0  0  0  0  0  0  0  0  0  0
  137.3776   70.4220  220.6908 H   0  0  0  0  0  0  0  0  0  0  0  0
  140.2186   74.6403  221.5026 H   0  0  0  0  0  0  0  0  0  0  0  0
  141.2070   76.3491  222.5978 H   0  0  0  0  0  0  0  0  0  0  0  0
  140.8292   76.5280  220.8342 H   0  0  0  0  0  0  0  0  0  0  0  0
  142.3815   78.2579  221.8277 H   0  0  0  0  0  0  0  0  0  0  0  0
  140.9005   78.8654  220.9515 H   0  0  0  0  0  0  0  0  0  0  0  0
  1  2  1  0
  2  3  1  0
  3  4  1  0
  4  5  1  0
  5  6  1  0
  6  7  2  0
  7  8  1  0
  8  9  2  0
  9 10  1  0
 10 11  1  0
 11 12  2  0
 12 13  1  0
 13 14  2  0
 14 15  1  0
 15 16  2  0
 16 17  1  0
 17 18  2  0
 18 19  1  0
 19 20  2  0
 20 21  1  0
 21 22  2  0
 21 23  1  0
 23 24  1  0
 24 25  1  0
 25 26  1  0
 26 27  1  0
 27 28  1  0
 28 29  1  0
 29 30  1  0
 10 31  2  0
  5 32  1  0
 32 33  1  0
 33  2  1  0
 31  6  1  0
 23 13  1  0
 30 25  1  0
 20 15  1  0
  1 34  1  0
  1 35  1  0
  1 36  1  0
  3 37  1  0
  3 38  1  0
  4 39  1  0
  4 40  1  0
  7 41  1  0
  8 42  1  0
  9 43  1  0
 11 44  1  0
 12 45  1  0
 16 46  1  0
 17 47  1  0
 18 48  1  0
 19 49  1  0
 24 50  1  0
 24 51  1  0
 25 52  1  0
 26 53  1  0
 26 54  1  0
 27 55  1  0
 27 56  1  0
 28 57  1  0
 28 58  1  0
 29 59  1  0
 29 60  1  0
 30 61  1  0
 30 62  1  0
 31 63  1  0
 32 64  1  0
 32 65  1  0
 33 66  1  0
 33 67  1  0
M  END
>  <smiles>  (31) 
CN1CCN(c2cccc(/C=C/c3nc4ccccc4c(=O)n3CC3CCCCC3)c2)CC1

>  <score_type>  (31) 
oracle

>  <origin>  (31) 
autodockgpu

>  <m_score__min__energy>  (31) 
-9.1300000000000008

>  <m_primary>  (31) 
energy

>  <rmsd>  (31) 
7.183966584250319

>  <m_score__min__rmsd>  (31) 
7.183966584250319

>  <meeko>  (31) 
{"free_energy": -7.95, "intermolecular_energy": -9.74, "internal_energy": -2.18, "cluster_size": 21, "cluster_id": 2, "rank_in_cluster": 21}

>  <energy>  (31) 
-8.98

>  <cluster_rmsd>  (31) 
0.0

>  <cluster>  (31) 
3

$$$$

     RDKit          3D

 67 71  0  0  0  0  0  0  0  0999 V2000
  139.2270   69.9990  228.6000 C   0  0  0  0  0  0  0  0  0  0  0  0
  140.4460   70.1290  227.8310 N   0  0  0  0  0  0  0  0  0  0  0  0
  140.5610   71.4050  227.1830 C   0  0  0  0  0  0  0  0  0  0  0  0
  141.1910   71.3290  225.8070 C   0  0  0  0  0  0  0  0  0  0  0  0
  140.3860   70.4220  225.0190 N   0  0  0  0  0  0  0  0  0  0  0  0
  139.8560   70.7020  223.7500 C   0  0  0  0  0  0  0  0  0  0  0  0
  139.6820   69.7190  222.7870 C   0  0  0  0  0  0  0  0  0  0  0  0
  139.1580   70.0030  221.5330 C   0  0  0  0  0  0  0  0  0  0  0  0
  138.8060   71.3200  221.2630 C   0  0  0  0  0  0  0  0  0  0  0  0
  138.9580   72.3340  222.1850 C   0  0  0  0  0  0  0  0  0  0  0  0
  138.6010   73.7170  221.9340 C   0  0  0  0  0  0  0  0  0  0  0  0
  139.4290   74.7390  222.0730 C   0  0  0  0  0  0  0  0  0  0  0  0
  140.7110   74.7840  221.3430 C   0  0  0  0  0  0  0  0  0  0  0  0
  141.4250   73.6270  221.4000 N   0  0  0  0  0  0  0  0  0  0  0  0
  142.6350   73.5040  220.8320 C   0  0  0  0  0  0  0  0  0  0  0  0
  143.3760   72.3550  220.8710 C   0  0  0  0  0  0  0  0  0  0  0  0
  144.6330   72.2530  220.2730 C   0  0  0  0  0  0  0  0  0  0  0  0
  145.1260   73.3660  219.6210 C   0  0  0  0  0  0  0  0  0  0  0  0
  144.3680   74.5030  219.5930 C   0  0  0  0  0  0  0  0  0  0  0  0
  143.1280   74.6030  220.1850 C   0  0  0  0  0  0  0  0  0  0  0  0
  142.3850   75.7730  220.1360 C   0  0  0  0  0  0  0  0  0  0  0  0
  142.9300   76.7260  219.5230 O   0  0  0  0  0  0  0  0  0  0  0  0
  141.1560   75.8860  220.7150 N   0  0  0  0  0  0  0  0  0  0  0  0
  140.3660   77.0730  220.6760 C   0  0  0  0  0  0  0  0  0  0  0  0
  140.7450   78.2080  221.5570 C   0  0  0  0  0  0  0  0  0  0  0  0
  141.2670   77.8440  222.9220 C   0  0  0  0  0  0  0  0  0  0  0  0
  140.9440   79.0430  223.8430 C   0  0  0  0  0  0  0  0  0  0  0  0
  141.2310   80.2950  223.0990 C   0  0  0  0  0  0  0  0  0  0  0  0
  142.2370   80.1370  222.0070 C   0  0  0  0  0  0  0  0  0  0  0  0
  141.7940   79.1350  220.9580 C   0  0  0  0  0  0  0  0  0  0  0  0
  139.4870   71.9720  223.4120 C   0  0  0  0  0  0  0  0  0  0  0  0
  140.1210   69.1140  225.6160 C   0  0  0  0  0  0  0  0  0  0  0  0
  140.7260   68.9980  226.9930 C   0  0  0  0  0  0  0  0  0  0  0  0
  139.4662   70.0245  229.6734 H   0  0  0  0  0  0  0  0  0  0  0  0
  138.5489   70.8299  228.3556 H   0  0  0  0  0  0  0  0  0  0  0  0
  138.7394   69.0438  228.3556 H   0  0  0  0  0  0  0  0  0  0  0  0
  139.5541   71.8362  227.0817 H   0  0  0  0  0  0  0  0  0  0  0  0
  141.2200   72.0267  227.8069 H   0  0  0  0  0  0  0  0  0  0  0  0
  141.2014   72.3256  225.3414 H   0  0  0  0  0  0  0  0  0  0  0  0
  142.2301   70.9740  225.8718 H   0  0  0  0  0  0  0  0  0  0  0  0
  139.9677   68.6835  223.0239 H   0  0  0  0  0  0  0  0  0  0  0  0
  139.0260   69.2128  220.7792 H   0  0  0  0  0  0  0  0  0  0  0  0
  138.3895   71.5632  220.2744 H   0  0  0  0  0  0  0  0  0  0  0  0
  137.5729   73.9303  221.6061 H   0  0  0  0  0  0  0  0  0  0  0  0
  139.1580   75.5682  222.7430 H   0  0  0  0  0  0  0  0  0  0  0  0
  142.9658   71.4782  221.3934 H   0  0  0  0  0  0  0  0  0  0  0  0
  145.2110   71.3183  220.3195 H   0  0  0  0  0  0  0  0  0  0  0  0
  146.1113   73.3380  219.1328 H   0  0  0  0  0  0  0  0  0  0  0  0
  144.7689   75.3841  219.0706 H   0  0  0  0  0  0  0  0  0  0  0  0
  140.3890   77.4442  219.6408 H   0  0  0  0  0  0  0  0  0  0  0  0
  139.3840   76.7546  221.0557 H   0  0  0  0  0  0  0  0  0  0  0  0
  139.7685   78.7044  221.6570 H   0  0  0  0  0  0  0  0  0  0  0  0
  140.7687   76.9353  223.2906 H   0  0  0  0  0  0  0  0  0  0  0  0
  142.3475   77.6393  222.8957 H   0  0  0  0  0  0  0  0  0  0  0  0
  139.8823   79.0161  224.1296 H   0  0  0  0  0  0  0  0  0  0  0  0
  141.5576   78.9957  224.7547 H   0  0  0  0  0  0  0  0  0  0  0  0
  140.2918   80.6558  222.6542 H   0  0  0  0  0  0  0  0  0  0  0  0
  141.6574   81.0044  223.8235 H   0  0  0  0  0  0  0  0  0  0  0  0
  142.3895   81.1127  221.5224 H   0  0  0  0  0  0  0  0  0  0  0  0
  143.1680   79.7631  222.4581 H   0  0  0  0  0  0  0  0  0  0  0  0
  141.3638   79.6695  220.0982 H   0  0  0  0  0  0  0  0  0  0  0  0
  142.6599   78.5442  220.6246 H   0  0  0  0  0  0  0  0  0  0  0  0
  139.6190   72.7618  224.1662 H   0  0  0  0  0  0  0  0  0  0  0  0
  139.0331   68.9699  225.6910 H   0  0  0  0  0  0  0  0  0  0  0  0
  140.5764   68.3450  224.9747 H   0  0  0  0  0  0  0  0  0  0  0  0
  140.3231   68.0961  227.4770 H   0  0  0  0  0  0  0  0  0  0  0  0
  141.8176   68.9469  226.8670 H   0  0  0  0  0  0  0  0  0  0  0  0
  1  2  1  0
  2  3  1  0
  3  4  1  0
  4  5  1  0
  5  6  1  0
  6  7  2  0
  7  8  1  0
  8  9  2  0
  9 10  1  0
 10 11  1  0
 11 12  2  0
 12 13  1  0
 13 14  2  0
 14 15  1  0
 15 16  2  0
 16 17  1  0
 17 18  2  0
 18 19  1  0
 19 20  2  0
 20 21  1  0
 21 22  2  0
 21 23  1  0
 23 24  1  0
 24 25  1  0
 25 26  1  0
 26 27  1  0
 27 28  1  0
 28 29  1  0
 29 30  1  0
 10 31  2  0
  5 32  1  0
 32 33  1  0
 33  2  1  0
 31  6  1  0
 23 13  1  0
 30 25  1  0
 20 15  1  0
  1 34  1  0
  1 35  1  0
  1 36  1  0
  3 37  1  0
  3 38  1  0
  4 39  1  0
  4 40  1  0
  7 41  1  0
  8 42  1  0
  9 43  1  0
 11 44  1  0
 12 45  1  0
 16 46  1  0
 17 47  1  0
 18 48  1  0
 19 49  1  0
 24 50  1  0
 24 51  1  0
 25 52  1  0
 26 53  1  0
 26 54  1  0
 27 55  1  0
 27 56  1  0
 28 57  1  0
 28 58  1  0
 29 59  1  0
 29 60  1  0
 30 61  1  0
 30 62  1  0
 31 63  1  0
 32 64  1  0
 32 65  1  0
 33 66  1  0
 33 67  1  0
M  END
>  <smiles>  (32) 
CN1CCN(c2cccc(/C=C/c3nc4ccccc4c(=O)n3CC3CCCCC3)c2)CC1

>  <score_type>  (32) 
oracle

>  <origin>  (32) 
autodockgpu

>  <m_score__min__energy>  (32) 
-9.1300000000000008

>  <m_primary>  (32) 
energy

>  <rmsd>  (32) 
9.610918036325423

>  <m_score__min__rmsd>  (32) 
9.610918036325423

>  <meeko>  (32) 
{"free_energy": -8.43, "intermolecular_energy": -10.22, "internal_energy": -1.95, "cluster_size": 4, "cluster_id": 4, "rank_in_cluster": 4}

>  <energy>  (32) 
-8.85

>  <cluster_rmsd>  (32) 
0.56

>  <cluster>  (32) 
3

$$$$

     RDKit          3D

 67 71  0  0  0  0  0  0  0  0999 V2000
  145.6310   70.8590  218.9920 C   0  0  0  0  0  0  0  0  0  0  0  0
  145.8840   72.2800  219.1100 N   0  0  0  0  0  0  0  0  0  0  0  0
  145.7470   72.7580  220.4570 C   0  0  0  0  0  0  0  0  0  0  0  0
  145.1300   74.1380  220.5460 C   0  0  0  0  0  0  0  0  0  0  0  0
  143.8430   74.0750  219.8890 N   0  0  0  0  0  0  0  0  0  0  0  0
  142.6270   74.5030  220.4440 C   0  0  0  0  0  0  0  0  0  0  0  0
  142.2060   75.8230  220.3760 C   0  0  0  0  0  0  0  0  0  0  0  0
  141.0020   76.2400  220.9270 C   0  0  0  0  0  0  0  0  0  0  0  0
  140.2170   75.2850  221.5620 C   0  0  0  0  0  0  0  0  0  0  0  0
  140.5900   73.9600  221.6580 C   0  0  0  0  0  0  0  0  0  0  0  0
  139.7940   72.9410  222.3130 C   0  0  0  0  0  0  0  0  0  0  0  0
  140.0870   71.6500  222.3150 C   0  0  0  0  0  0  0  0  0  0  0  0
  140.0120   70.8560  223.5570 C   0  0  0  0  0  0  0  0  0  0  0  0
  140.4820   71.4990  224.6590 N   0  0  0  0  0  0  0  0  0  0  0  0
  140.5330   70.9100  225.8640 C   0  0  0  0  0  0  0  0  0  0  0  0
  140.9990   71.5310  226.9900 C   0  0  0  0  0  0  0  0  0  0  0  0
  141.0430   70.8960  228.2330 C   0  0  0  0  0  0  0  0  0  0  0  0
  140.5900   69.5930  228.3030 C   0  0  0  0  0  0  0  0  0  0  0  0
  140.1280   68.9930  227.1660 C   0  0  0  0  0  0  0  0  0  0  0  0
  140.0870   69.6210  225.9400 C   0  0  0  0  0  0  0  0  0  0  0  0
  139.6100   68.9820  224.8060 C   0  0  0  0  0  0  0  0  0  0  0  0
  139.2290   67.7960  224.9820 O   0  0  0  0  0  0  0  0  0  0  0  0
  139.5610   69.5900  223.5870 N   0  0  0  0  0  0  0  0  0  0  0  0
  139.0700   68.9610  222.4050 C   0  0  0  0  0  0  0  0  0  0  0  0
  137.6040   68.7660  222.2600 C   0  0  0  0  0  0  0  0  0  0  0  0
  137.1400   67.3500  222.0450 C   0  0  0  0  0  0  0  0  0  0  0  0
  135.8050   67.4440  221.2690 C   0  0  0  0  0  0  0  0  0  0  0  0
  135.0040   68.5490  221.8520 C   0  0  0  0  0  0  0  0  0  0  0  0
  135.3410   68.8640  223.2710 C   0  0  0  0  0  0  0  0  0  0  0  0
  136.7900   69.2820  223.4400 C   0  0  0  0  0  0  0  0  0  0  0  0
  141.8020   73.6230  221.0830 C   0  0  0  0  0  0  0  0  0  0  0  0
  143.8380   73.5180  218.5380 C   0  0  0  0  0  0  0  0  0  0  0  0
  145.2160   73.0710  218.1160 C   0  0  0  0  0  0  0  0  0  0  0  0
  145.5521   70.4160  219.9958 H   0  0  0  0  0  0  0  0  0  0  0  0
  144.6901   70.6982  218.4453 H   0  0  0  0  0  0  0  0  0  0  0  0
  146.4586   70.3834  218.4453 H   0  0  0  0  0  0  0  0  0  0  0  0
  145.1099   72.0548  221.0134 H   0  0  0  0  0  0  0  0  0  0  0  0
  146.7595   72.8272  220.8814 H   0  0  0  0  0  0  0  0  0  0  0  0
  145.0014   74.4259  221.5998 H   0  0  0  0  0  0  0  0  0  0  0  0
  145.7772   74.8865  220.0655 H   0  0  0  0  0  0  0  0  0  0  0  0
  142.8454   76.5615  219.8703 H   0  0  0  0  0  0  0  0  0  0  0  0
  140.6804   77.2900  220.8632 H   0  0  0  0  0  0  0  0  0  0  0  0
  139.2603   75.5978  222.0057 H   0  0  0  0  0  0  0  0  0  0  0  0
  138.8857   73.2619  222.8440 H   0  0  0  0  0  0  0  0  0  0  0  0
  140.3908   71.1618  221.3773 H   0  0  0  0  0  0  0  0  0  0  0  0
  141.3525   72.5699  226.9136 H   0  0  0  0  0  0  0  0  0  0  0  0
  141.4248   71.4150  229.1246 H   0  0  0  0  0  0  0  0  0  0  0  0
  140.6011   69.0476  229.2582 H   0  0  0  0  0  0  0  0  0  0  0  0
  139.7702   67.9549  227.2325 H   0  0  0  0  0  0  0  0  0  0  0  0
  139.4021   69.5703  221.5515 H   0  0  0  0  0  0  0  0  0  0  0  0
  139.4728   67.9388  222.4579 H   0  0  0  0  0  0  0  0  0  0  0  0
  137.4239   69.3544  221.3482 H   0  0  0  0  0  0  0  0  0  0  0  0
  137.8833   66.7906  221.4580 H   0  0  0  0  0  0  0  0  0  0  0  0
  137.0104   66.8220  223.0013 H   0  0  0  0  0  0  0  0  0  0  0  0
  136.0056   67.6501  220.2073 H   0  0  0  0  0  0  0  0  0  0  0  0
  135.2541   66.4950  221.3461 H   0  0  0  0  0  0  0  0  0  0  0  0
  135.1721   69.4531  221.2483 H   0  0  0  0  0  0  0  0  0  0  0  0
  133.9546   68.2194  221.8413 H   0  0  0  0  0  0  0  0  0  0  0  0
  134.6938   69.6845  223.6145 H   0  0  0  0  0  0  0  0  0  0  0  0
  135.1826   67.9517  223.8648 H   0  0  0  0  0  0  0  0  0  0  0  0
  136.8537   70.3795  223.4784 H   0  0  0  0  0  0  0  0  0  0  0  0
  137.1884   68.8606  224.3747 H   0  0  0  0  0  0  0  0  0  0  0  0
  142.1234   72.5728  221.1449 H   0  0  0  0  0  0  0  0  0  0  0  0
  143.1584   72.6534  218.5109 H   0  0  0  0  0  0  0  0  0  0  0  0
  143.5034   74.3028  217.8437 H   0  0  0  0  0  0  0  0  0  0  0  0
  145.1233   72.4726  217.1976 H   0  0  0  0  0  0  0  0  0  0  0  0
  145.8197   73.9773  217.9602 H   0  0  0  0  0  0  0  0  0  0  0  0
  1  2  1  0
  2  3  1  0
  3  4  1  0
  4  5  1  0
  5  6  1  0
  6  7  2  0
  7  8  1  0
  8  9  2  0
  9 10  1  0
 10 11  1  0
 11 12  2  0
 12 13  1  0
 13 14  2  0
 14 15  1  0
 15 16  2  0
 16 17  1  0
 17 18  2  0
 18 19  1  0
 19 20  2  0
 20 21  1  0
 21 22  2  0
 21 23  1  0
 23 24  1  0
 24 25  1  0
 25 26  1  0
 26 27  1  0
 27 28  1  0
 28 29  1  0
 29 30  1  0
 10 31  2  0
  5 32  1  0
 32 33  1  0
 33  2  1  0
 31  6  1  0
 23 13  1  0
 30 25  1  0
 20 15  1  0
  1 34  1  0
  1 35  1  0
  1 36  1  0
  3 37  1  0
  3 38  1  0
  4 39  1  0
  4 40  1  0
  7 41  1  0
  8 42  1  0
  9 43  1  0
 11 44  1  0
 12 45  1  0
 16 46  1  0
 17 47  1  0
 18 48  1  0
 19 49  1  0
 24 50  1  0
 24 51  1  0
 25 52  1  0
 26 53  1  0
 26 54  1  0
 27 55  1  0
 27 56  1  0
 28 57  1  0
 28 58  1  0
 29 59  1  0
 29 60  1  0
 30 61  1  0
 30 62  1  0
 31 63  1  0
 32 64  1  0
 32 65  1  0
 33 66  1  0
 33 67  1  0
M  END
>  <smiles>  (33) 
CN1CCN(c2cccc(/C=C/c3nc4ccccc4c(=O)n3CC3CCCCC3)c2)CC1

>  <score_type>  (33) 
oracle

>  <origin>  (33) 
autodockgpu

>  <m_score__min__energy>  (33) 
-9.1300000000000008

>  <m_primary>  (33) 
energy

>  <rmsd>  (33) 
6.844862367302168

>  <m_score__min__rmsd>  (33) 
6.844862367302168

>  <meeko>  (33) 
{"free_energy": -9.13, "intermolecular_energy": -10.92, "internal_energy": -1.53, "cluster_size": 9, "cluster_id": 1, "rank_in_cluster": 1}

>  <energy>  (33) 
-8.68

>  <cluster_rmsd>  (33) 
0.46

>  <cluster>  (33) 
3

$$$$

     RDKit          3D

 67 71  0  0  0  0  0  0  0  0999 V2000
  142.4240   79.6720  222.4850 C   0  0  0  0  0  0  0  0  0  0  0  0
  141.2710   78.9960  221.9310 N   0  0  0  0  0  0  0  0  0  0  0  0
  140.8440   77.8820  222.7300 C   0  0  0  0  0  0  0  0  0  0  0  0
  140.3530   76.7060  221.9100 C   0  0  0  0  0  0  0  0  0  0  0  0
  141.4290   76.3220  221.0240 N   0  0  0  0  0  0  0  0  0  0  0  0
  141.9410   75.0230  220.8850 C   0  0  0  0  0  0  0  0  0  0  0  0
  143.2150   74.7780  220.3950 C   0  0  0  0  0  0  0  0  0  0  0  0
  143.7150   73.4900  220.2580 C   0  0  0  0  0  0  0  0  0  0  0  0
  142.8920   72.4350  220.6310 C   0  0  0  0  0  0  0  0  0  0  0  0
  141.6170   72.6240  221.1230 C   0  0  0  0  0  0  0  0  0  0  0  0
  140.7340   71.5450  221.5200 C   0  0  0  0  0  0  0  0  0  0  0  0
  139.7760   71.6580  222.4260 C   0  0  0  0  0  0  0  0  0  0  0  0
  139.8020   70.8560  223.6650 C   0  0  0  0  0  0  0  0  0  0  0  0
  140.3250   71.5070  224.7380 N   0  0  0  0  0  0  0  0  0  0  0  0
  140.4690   70.9140  225.9340 C   0  0  0  0  0  0  0  0  0  0  0  0
  140.9900   71.5420  227.0310 C   0  0  0  0  0  0  0  0  0  0  0  0
  141.1310   70.9030  228.2650 C   0  0  0  0  0  0  0  0  0  0  0  0
  140.7200   69.5870  228.3560 C   0  0  0  0  0  0  0  0  0  0  0  0
  140.2010   68.9800  227.2470 C   0  0  0  0  0  0  0  0  0  0  0  0
  140.0640   69.6120  226.0300 C   0  0  0  0  0  0  0  0  0  0  0  0
  139.5320   68.9660  224.9250 C   0  0  0  0  0  0  0  0  0  0  0  0
  139.1950   67.7690  225.1180 O   0  0  0  0  0  0  0  0  0  0  0  0
  139.3880   69.5780  223.7160 N   0  0  0  0  0  0  0  0  0  0  0  0
  138.8390   68.9420  222.5640 C   0  0  0  0  0  0  0  0  0  0  0  0
  137.3920   68.6020  222.5620 C   0  0  0  0  0  0  0  0  0  0  0  0
  136.4590   69.6650  223.0780 C   0  0  0  0  0  0  0  0  0  0  0  0
  135.2150   68.9230  223.6210 C   0  0  0  0  0  0  0  0  0  0  0  0
  134.8670   67.8380  222.6700 C   0  0  0  0  0  0  0  0  0  0  0  0
  135.3390   68.0770  221.2740 C   0  0  0  0  0  0  0  0  0  0  0  0
  136.8470   68.2180  221.1920 C   0  0  0  0  0  0  0  0  0  0  0  0
  141.1910   73.9360  221.2300 C   0  0  0  0  0  0  0  0  0  0  0  0
  142.0130   77.3950  220.2200 C   0  0  0  0  0  0  0  0  0  0  0  0
  141.3770   78.7280  220.5250 C   0  0  0  0  0  0  0  0  0  0  0  0
  142.3736   79.6425  223.5834 H   0  0  0  0  0  0  0  0  0  0  0  0
  143.3417   79.1689  222.1464 H   0  0  0  0  0  0  0  0  0  0  0  0
  142.4332   80.7185  222.1464 H   0  0  0  0  0  0  0  0  0  0  0  0
  141.6929   77.5482  223.3447 H   0  0  0  0  0  0  0  0  0  0  0  0
  139.9975   78.2270  223.3420 H   0  0  0  0  0  0  0  0  0  0  0  0
  140.0931   75.8672  222.5725 H   0  0  0  0  0  0  0  0  0  0  0  0
  139.4544   76.9783  221.3370 H   0  0  0  0  0  0  0  0  0  0  0  0
  143.8484   75.6297  220.1062 H   0  0  0  0  0  0  0  0  0  0  0  0
  144.7277   73.3112  219.8676 H   0  0  0  0  0  0  0  0  0  0  0  0
  143.2721   71.4077  220.5301 H   0  0  0  0  0  0  0  0  0  0  0  0
  140.8693   70.5667  221.0357 H   0  0  0  0  0  0  0  0  0  0  0  0
  138.9474   72.3605  222.2531 H   0  0  0  0  0  0  0  0  0  0  0  0
  141.3103   72.5902  226.9383 H   0  0  0  0  0  0  0  0  0  0  0  0
  141.5542   71.4288  229.1336 H   0  0  0  0  0  0  0  0  0  0  0  0
  140.8090   69.0374  229.3047 H   0  0  0  0  0  0  0  0  0  0  0  0
  139.8757   67.9325  227.3301 H   0  0  0  0  0  0  0  0  0  0  0  0
  139.0164   69.6106  221.7087 H   0  0  0  0  0  0  0  0  0  0  0  0
  139.3445   67.9656  222.5296 H   0  0  0  0  0  0  0  0  0  0  0  0
  137.3969   67.7485  223.2559 H   0  0  0  0  0  0  0  0  0  0  0  0
  136.9423   70.2382  223.8829 H   0  0  0  0  0  0  0  0  0  0  0  0
  136.1859   70.3770  222.2852 H   0  0  0  0  0  0  0  0  0  0  0  0
  135.4396   68.4939  224.6087 H   0  0  0  0  0  0  0  0  0  0  0  0
  134.3718   69.6219  223.7233 H   0  0  0  0  0  0  0  0  0  0  0  0
  135.3190   66.9029  223.0322 H   0  0  0  0  0  0  0  0  0  0  0  0
  133.7687   67.7911  222.6300 H   0  0  0  0  0  0  0  0  0  0  0  0
  135.0284   67.2293  220.6456 H   0  0  0  0  0  0  0  0  0  0  0  0
  134.8935   69.0203  220.9252 H   0  0  0  0  0  0  0  0  0  0  0  0
  137.2888   67.2616  220.8756 H   0  0  0  0  0  0  0  0  0  0  0  0
  137.1049   68.9983  220.4608 H   0  0  0  0  0  0  0  0  0  0  0  0
  140.1782   74.1154  221.6199 H   0  0  0  0  0  0  0  0  0  0  0  0
  143.0901   77.4561  220.4350 H   0  0  0  0  0  0  0  0  0  0  0  0
  141.8360   77.1646  219.1591 H   0  0  0  0  0  0  0  0  0  0  0  0
  141.9856   79.5194  220.0633 H   0  0  0  0  0  0  0  0  0  0  0  0
  140.3548   78.7027  220.1193 H   0  0  0  0  0  0  0  0  0  0  0  0
  1  2  1  0
  2  3  1  0
  3  4  1  0
  4  5  1  0
  5  6  1  0
  6  7  2  0
  7  8  1  0
  8  9  2  0
  9 10  1  0
 10 11  1  0
 11 12  2  0
 12 13  1  0
 13 14  2  0
 14 15  1  0
 15 16  2  0
 16 17  1  0
 17 18  2  0
 18 19  1  0
 19 20  2  0
 20 21  1  0
 21 22  2  0
 21 23  1  0
 23 24  1  0
 24 25  1  0
 25 26  1  0
 26 27  1  0
 27 28  1  0
 28 29  1  0
 29 30  1  0
 10 31  2  0
  5 32  1  0
 32 33  1  0
 33  2  1  0
 31  6  1  0
 23 13  1  0
 30 25  1  0
 20 15  1  0
  1 34  1  0
  1 35  1  0
  1 36  1  0
  3 37  1  0
  3 38  1  0
  4 39  1  0
  4 40  1  0
  7 41  1  0
  8 42  1  0
  9 43  1  0
 11 44  1  0
 12 45  1  0
 16 46  1  0
 17 47  1  0
 18 48  1  0
 19 49  1  0
 24 50  1  0
 24 51  1  0
 25 52  1  0
 26 53  1  0
 26 54  1  0
 27 55  1  0
 27 56  1  0
 28 57  1  0
 28 58  1  0
 29 59  1  0
 29 60  1  0
 30 61  1  0
 30 62  1  0
 31 63  1  0
 32 64  1  0
 32 65  1  0
 33 66  1  0
 33 67  1  0
M  END
>  <smiles>  (34) 
CN1CCN(c2cccc(/C=C/c3nc4ccccc4c(=O)n3CC3CCCCC3)c2)CC1

>  <score_type>  (34) 
oracle

>  <origin>  (34) 
autodockgpu

>  <m_score__min__energy>  (34) 
-9.1300000000000008

>  <m_primary>  (34) 
energy

>  <rmsd>  (34) 
7.39822783565278

>  <m_score__min__rmsd>  (34) 
7.39822783565278

>  <meeko>  (34) 
{"free_energy": -8.77, "intermolecular_energy": -10.56, "internal_energy": -1.58, "cluster_size": 21, "cluster_id": 2, "rank_in_cluster": 8}

>  <energy>  (34) 
-8.56

>  <cluster_rmsd>  (34) 
0.9

>  <cluster>  (34) 
3

$$$$

     RDKit          3D

 67 71  0  0  0  0  0  0  0  0999 V2000
  145.9410   73.3790  217.5040 C   0  0  0  0  0  0  0  0  0  0  0  0
  145.7190   72.6390  218.7280 N   0  0  0  0  0  0  0  0  0  0  0  0
  144.4860   71.9040  218.7170 C   0  0  0  0  0  0  0  0  0  0  0  0
  143.7850   71.8820  220.0600 C   0  0  0  0  0  0  0  0  0  0  0  0
  143.5610   73.2570  220.4490 N   0  0  0  0  0  0  0  0  0  0  0  0
  142.3300   73.7950  220.8500 C   0  0  0  0  0  0  0  0  0  0  0  0
  142.0630   75.1560  220.7940 C   0  0  0  0  0  0  0  0  0  0  0  0
  140.8430   75.6830  221.1930 C   0  0  0  0  0  0  0  0  0  0  0  0
  139.8780   74.7980  221.6590 C   0  0  0  0  0  0  0  0  0  0  0  0
  140.0920   73.4380  221.7350 C   0  0  0  0  0  0  0  0  0  0  0  0
  139.1070   72.4890  222.2160 C   0  0  0  0  0  0  0  0  0  0  0  0
  139.3160   71.1870  222.3290 C   0  0  0  0  0  0  0  0  0  0  0  0
  139.4950   70.5580  223.6520 C   0  0  0  0  0  0  0  0  0  0  0  0
  140.0890   71.3620  224.5740 N   0  0  0  0  0  0  0  0  0  0  0  0
  140.3720   70.9380  225.8160 C   0  0  0  0  0  0  0  0  0  0  0  0
  140.9680   71.7220  226.7650 C   0  0  0  0  0  0  0  0  0  0  0  0
  141.2540   71.2570  228.0510 C   0  0  0  0  0  0  0  0  0  0  0  0
  140.9100   69.9540  228.3520 C   0  0  0  0  0  0  0  0  0  0  0  0
  140.3150   69.1880  227.3880 C   0  0  0  0  0  0  0  0  0  0  0  0
  140.0350   69.6490  226.1200 C   0  0  0  0  0  0  0  0  0  0  0  0
  139.4290   68.8450  225.1670 C   0  0  0  0  0  0  0  0  0  0  0  0
  139.1650   67.6750  225.5450 O   0  0  0  0  0  0  0  0  0  0  0  0
  139.1440   69.2860  223.9090 N   0  0  0  0  0  0  0  0  0  0  0  0
  138.5160   68.4860  222.9100 C   0  0  0  0  0  0  0  0  0  0  0  0
  137.0420   68.5790  222.7480 C   0  0  0  0  0  0  0  0  0  0  0  0
  136.3240   69.4920  223.7080 C   0  0  0  0  0  0  0  0  0  0  0  0
  134.8850   68.9410  223.8350 C   0  0  0  0  0  0  0  0  0  0  0  0
  134.4150   68.5450  222.4840 C   0  0  0  0  0  0  0  0  0  0  0  0
  135.0980   69.2620  221.3680 C   0  0  0  0  0  0  0  0  0  0  0  0
  136.5960   69.0220  221.3610 C   0  0  0  0  0  0  0  0  0  0  0  0
  141.3330   72.9890  221.3190 C   0  0  0  0  0  0  0  0  0  0  0  0
  144.7310   74.1330  220.4120 C   0  0  0  0  0  0  0  0  0  0  0  0
  145.9570   73.4050  219.9190 C   0  0  0  0  0  0  0  0  0  0  0  0
  146.2492   74.4065  217.7475 H   0  0  0  0  0  0  0  0  0  0  0  0
  146.7315   72.8884  216.9172 H   0  0  0  0  0  0  0  0  0  0  0  0
  145.0110   73.4045  216.9172 H   0  0  0  0  0  0  0  0  0  0  0  0
  143.8122   72.3649  217.9798 H   0  0  0  0  0  0  0  0  0  0  0  0
  144.7318   70.8624  218.4626 H   0  0  0  0  0  0  0  0  0  0  0  0
  142.8242   71.3533  219.9748 H   0  0  0  0  0  0  0  0  0  0  0  0
  144.3959   71.3588  220.8104 H   0  0  0  0  0  0  0  0  0  0  0  0
  142.8423   75.8375  220.4220 H   0  0  0  0  0  0  0  0  0  0  0  0
  140.6464   76.7641  221.1422 H   0  0  0  0  0  0  0  0  0  0  0  0
  138.9050   75.1984  221.9799 H   0  0  0  0  0  0  0  0  0  0  0  0
  138.1196   72.8772  222.5065 H   0  0  0  0  0  0  0  0  0  0  0  0
  139.3569   70.5643  221.4231 H   0  0  0  0  0  0  0  0  0  0  0  0
  141.2322   72.7579  226.5059 H   0  0  0  0  0  0  0  0  0  0  0  0
  141.7360   71.9058  228.7972 H   0  0  0  0  0  0  0  0  0  0  0  0
  141.1112   69.5391  229.3507 H   0  0  0  0  0  0  0  0  0  0  0  0
  140.0462   68.1509  227.6375 H   0  0  0  0  0  0  0  0  0  0  0  0
  138.9664   68.7600  221.9446 H   0  0  0  0  0  0  0  0  0  0  0  0
  138.6842   67.4530  223.2484 H   0  0  0  0  0  0  0  0  0  0  0  0
  136.7633   67.5350  222.9541 H   0  0  0  0  0  0  0  0  0  0  0  0
  136.8234   69.4831  224.6881 H   0  0  0  0  0  0  0  0  0  0  0  0
  136.3243   70.5314  223.3480 H   0  0  0  0  0  0  0  0  0  0  0  0
  134.8795   68.0661  224.5017 H   0  0  0  0  0  0  0  0  0  0  0  0
  134.2211   69.7104  224.2561 H   0  0  0  0  0  0  0  0  0  0  0  0
  134.5897   67.4661  222.3598 H   0  0  0  0  0  0  0  0  0  0  0  0
  133.3493   68.8116  222.4277 H   0  0  0  0  0  0  0  0  0  0  0  0
  134.6791   68.9112  220.4133 H   0  0  0  0  0  0  0  0  0  0  0  0
  134.9305   70.3401  221.5082 H   0  0  0  0  0  0  0  0  0  0  0  0
  136.8389   68.2376  220.6291 H   0  0  0  0  0  0  0  0  0  0  0  0
  137.1165   69.9513  221.0862 H   0  0  0  0  0  0  0  0  0  0  0  0
  141.5297   71.9079  221.3697 H   0  0  0  0  0  0  0  0  0  0  0  0
  144.5230   74.9776  219.7387 H   0  0  0  0  0  0  0  0  0  0  0  0
  144.9290   74.4846  221.4353 H   0  0  0  0  0  0  0  0  0  0  0  0
  146.7420   74.1459  219.7072 H   0  0  0  0  0  0  0  0  0  0  0  0
  146.2572   72.6990  220.7073 H   0  0  0  0  0  0  0  0  0  0  0  0
  1  2  1  0
  2  3  1  0
  3  4  1  0
  4  5  1  0
  5  6  1  0
  6  7  2  0
  7  8  1  0
  8  9  2  0
  9 10  1  0
 10 11  1  0
 11 12  2  0
 12 13  1  0
 13 14  2  0
 14 15  1  0
 15 16  2  0
 16 17  1  0
 17 18  2  0
 18 19  1  0
 19 20  2  0
 20 21  1  0
 21 22  2  0
 21 23  1  0
 23 24  1  0
 24 25  1  0
 25 26  1  0
 26 27  1  0
 27 28  1  0
 28 29  1  0
 29 30  1  0
 10 31  2  0
  5 32  1  0
 32 33  1  0
 33  2  1  0
 31  6  1  0
 23 13  1  0
 30 25  1  0
 20 15  1  0
  1 34  1  0
  1 35  1  0
  1 36  1  0
  3 37  1  0
  3 38  1  0
  4 39  1  0
  4 40  1  0
  7 41  1  0
  8 42  1  0
  9 43  1  0
 11 44  1  0
 12 45  1  0
 16 46  1  0
 17 47  1  0
 18 48  1  0
 19 49  1  0
 24 50  1  0
 24 51  1  0
 25 52  1  0
 26 53  1  0
 26 54  1  0
 27 55  1  0
 27 56  1  0
 28 57  1  0
 28 58  1  0
 29 59  1  0
 29 60  1  0
 30 61  1  0
 30 62  1  0
 31 63  1  0
 32 64  1  0
 32 65  1  0
 33 66  1  0
 33 67  1  0
M  END
>  <smiles>  (35) 
CN1CCN(c2cccc(/C=C/c3nc4ccccc4c(=O)n3CC3CCCCC3)c2)CC1

>  <score_type>  (35) 
oracle

>  <origin>  (35) 
autodockgpu

>  <m_score__min__energy>  (35) 
-9.1300000000000008

>  <m_primary>  (35) 
energy

>  <rmsd>  (35) 
7.190959281910841

>  <m_score__min__rmsd>  (35) 
7.190959281910841

>  <meeko>  (35) 
{"free_energy": -8.97, "intermolecular_energy": -10.76, "internal_energy": -1.75, "cluster_size": 9, "cluster_id": 1, "rank_in_cluster": 4}

>  <energy>  (35) 
-8.4

>  <cluster_rmsd>  (35) 
0.74

>  <cluster>  (35) 
3

$$$$

     RDKit          3D

 67 71  0  0  0  0  0  0  0  0999 V2000
  141.1280   81.6690  222.3660 C   0  0  0  0  0  0  0  0  0  0  0  0
  141.0570   80.6530  223.3940 N   0  0  0  0  0  0  0  0  0  0  0  0
  142.1850   79.7640  223.3750 C   0  0  0  0  0  0  0  0  0  0  0  0
  141.8260   78.3280  223.6960 C   0  0  0  0  0  0  0  0  0  0  0  0
  140.8270   77.9120  222.7370 N   0  0  0  0  0  0  0  0  0  0  0  0
  140.8920   76.7520  221.9500 C   0  0  0  0  0  0  0  0  0  0  0  0
  141.5830   76.7100  220.7490 C   0  0  0  0  0  0  0  0  0  0  0  0
  141.6430   75.5600  219.9740 C   0  0  0  0  0  0  0  0  0  0  0  0
  140.9810   74.4310  220.4410 C   0  0  0  0  0  0  0  0  0  0  0  0
  140.2790   74.4190  221.6280 C   0  0  0  0  0  0  0  0  0  0  0  0
  139.5770   73.2590  222.1430 C   0  0  0  0  0  0  0  0  0  0  0  0
  140.1310   72.0720  222.3290 C   0  0  0  0  0  0  0  0  0  0  0  0
  139.9210   71.3240  223.5830 C   0  0  0  0  0  0  0  0  0  0  0  0
  140.5520   71.8590  224.6630 N   0  0  0  0  0  0  0  0  0  0  0  0
  140.5080   71.2840  225.8750 C   0  0  0  0  0  0  0  0  0  0  0  0
  141.1310   71.7970  226.9790 C   0  0  0  0  0  0  0  0  0  0  0  0
  141.0720   71.1790  228.2300 C   0  0  0  0  0  0  0  0  0  0  0  0
  140.3490   70.0060  228.3310 C   0  0  0  0  0  0  0  0  0  0  0  0
  139.7350   69.5110  227.2150 C   0  0  0  0  0  0  0  0  0  0  0  0
  139.7950   70.1230  225.9820 C   0  0  0  0  0  0  0  0  0  0  0  0
  139.1580   69.5930  224.8700 C   0  0  0  0  0  0  0  0  0  0  0  0
  138.5340   68.5200  225.0740 O   0  0  0  0  0  0  0  0  0  0  0  0
  139.2070   70.1870  223.6440 N   0  0  0  0  0  0  0  0  0  0  0  0
  138.5570   69.6700  222.4850 C   0  0  0  0  0  0  0  0  0  0  0  0
  138.9970   68.3560  221.9490 C   0  0  0  0  0  0  0  0  0  0  0  0
  138.0190   67.2190  222.0920 C   0  0  0  0  0  0  0  0  0  0  0  0
  138.8640   65.9240  222.1360 C   0  0  0  0  0  0  0  0  0  0  0  0
  139.9380   66.0330  221.1180 C   0  0  0  0  0  0  0  0  0  0  0  0
  139.6200   66.9630  219.9940 C   0  0  0  0  0  0  0  0  0  0  0  0
  139.3720   68.3810  220.4740 C   0  0  0  0  0  0  0  0  0  0  0  0
  140.2660   75.6040  222.3440 C   0  0  0  0  0  0  0  0  0  0  0  0
  139.6660   78.7890  222.5980 C   0  0  0  0  0  0  0  0  0  0  0  0
  139.7790   80.0060  223.4810 C   0  0  0  0  0  0  0  0  0  0  0  0
  141.1974   82.6614  222.8354 H   0  0  0  0  0  0  0  0  0  0  0  0
  142.0163   81.4964  221.7406 H   0  0  0  0  0  0  0  0  0  0  0  0
  140.2244   81.6216  221.7406 H   0  0  0  0  0  0  0  0  0  0  0  0
  142.6360   79.7946  222.3722 H   0  0  0  0  0  0  0  0  0  0  0  0
  142.8809   80.1064  224.1551 H   0  0  0  0  0  0  0  0  0  0  0  0
  142.7175   77.6891  223.6126 H   0  0  0  0  0  0  0  0  0  0  0  0
  141.4410   78.2421  224.7228 H   0  0  0  0  0  0  0  0  0  0  0  0
  142.0997   77.6160  220.3993 H   0  0  0  0  0  0  0  0  0  0  0  0
  142.1955   75.5430  219.0230 H   0  0  0  0  0  0  0  0  0  0  0  0
  141.0184   73.5104  219.8401 H   0  0  0  0  0  0  0  0  0  0  0  0
  138.5126   73.3738  222.3959 H   0  0  0  0  0  0  0  0  0  0  0  0
  140.7575   71.6364  221.5367 H   0  0  0  0  0  0  0  0  0  0  0  0
  141.7006   72.7326  226.8778 H   0  0  0  0  0  0  0  0  0  0  0  0
  141.5828   71.6106  229.1034 H   0  0  0  0  0  0  0  0  0  0  0  0
  140.2690   69.4794  229.2935 H   0  0  0  0  0  0  0  0  0  0  0  0
  139.1633   68.5756  227.3057 H   0  0  0  0  0  0  0  0  0  0  0  0
  137.4875   69.5801  222.7261 H   0  0  0  0  0  0  0  0  0  0  0  0
  138.8178   70.3845  221.6903 H   0  0  0  0  0  0  0  0  0  0  0  0
  139.8712   68.1732  222.5911 H   0  0  0  0  0  0  0  0  0  0  0  0
  137.4406   67.3284  223.0213 H   0  0  0  0  0  0  0  0  0  0  0  0
  137.3017   67.2008  221.2582 H   0  0  0  0  0  0  0  0  0  0  0  0
  139.3091   65.8042  223.1348 H   0  0  0  0  0  0  0  0  0  0  0  0
  138.2296   65.0505  221.9252 H   0  0  0  0  0  0  0  0  0  0  0  0
  140.8508   66.3921  221.6158 H   0  0  0  0  0  0  0  0  0  0  0  0
  140.0602   65.0326  220.6772 H   0  0  0  0  0  0  0  0  0  0  0  0
  140.4656   66.9702  219.2905 H   0  0  0  0  0  0  0  0  0  0  0  0
  138.6991   66.6049  219.5106 H   0  0  0  0  0  0  0  0  0  0  0  0
  140.2845   68.9798  220.3372 H   0  0  0  0  0  0  0  0  0  0  0  0
  138.5515   68.8277  219.8933 H   0  0  0  0  0  0  0  0  0  0  0  0
  139.7137   75.6220  223.2951 H   0  0  0  0  0  0  0  0  0  0  0  0
  139.5883   79.1145  221.5502 H   0  0  0  0  0  0  0  0  0  0  0  0
  138.7716   78.2256  222.9025 H   0  0  0  0  0  0  0  0  0  0  0  0
  139.0021   80.7260  223.1844 H   0  0  0  0  0  0  0  0  0  0  0  0
  139.6550   79.6675  224.5202 H   0  0  0  0  0  0  0  0  0  0  0  0
  1  2  1  0
  2  3  1  0
  3  4  1  0
  4  5  1  0
  5  6  1  0
  6  7  2  0
  7  8  1  0
  8  9  2  0
  9 10  1  0
 10 11  1  0
 11 12  2  0
 12 13  1  0
 13 14  2  0
 14 15  1  0
 15 16  2  0
 16 17  1  0
 17 18  2  0
 18 19  1  0
 19 20  2  0
 20 21  1  0
 21 22  2  0
 21 23  1  0
 23 24  1  0
 24 25  1  0
 25 26  1  0
 26 27  1  0
 27 28  1  0
 28 29  1  0
 29 30  1  0
 10 31  2  0
  5 32  1  0
 32 33  1  0
 33  2  1  0
 31  6  1  0
 23 13  1  0
 30 25  1  0
 20 15  1  0
  1 34  1  0
  1 35  1  0
  1 36  1  0
  3 37  1  0
  3 38  1  0
  4 39  1  0
  4 40  1  0
  7 41  1  0
  8 42  1  0
  9 43  1  0
 11 44  1  0
 12 45  1  0
 16 46  1  0
 17 47  1  0
 18 48  1  0
 19 49  1  0
 24 50  1  0
 24 51  1  0
 25 52  1  0
 26 53  1  0
 26 54  1  0
 27 55  1  0
 27 56  1  0
 28 57  1  0
 28 58  1  0
 29 59  1  0
 29 60  1  0
 30 61  1  0
 30 62  1  0
 31 63  1  0
 32 64  1  0
 32 65  1  0
 33 66  1  0
 33 67  1  0
M  END
>  <smiles>  (36) 
CN1CCN(c2cccc(/C=C/c3nc4ccccc4c(=O)n3CC3CCCCC3)c2)CC1

>  <score_type>  (36) 
oracle

>  <origin>  (36) 
autodockgpu

>  <m_score__min__energy>  (36) 
-9.1300000000000008

>  <m_primary>  (36) 
energy

>  <rmsd>  (36) 
6.535961889134934

>  <m_score__min__rmsd>  (36) 
6.535961889134934

>  <meeko>  (36) 
{"free_energy": -9.04, "intermolecular_energy": -10.83, "internal_energy": -1.44, "cluster_size": 21, "cluster_id": 2, "rank_in_cluster": 2}

>  <energy>  (36) 
-8.91

>  <cluster_rmsd>  (36) 
0.0

>  <cluster>  (36) 
4

$$$$

     RDKit          3D

 67 71  0  0  0  0  0  0  0  0999 V2000
  142.9940   80.5130  223.6220 C   0  0  0  0  0  0  0  0  0  0  0  0
  141.6640   80.2090  223.1390 N   0  0  0  0  0  0  0  0  0  0  0  0
  141.1030   79.0390  223.7540 C   0  0  0  0  0  0  0  0  0  0  0  0
  140.2750   78.1980  222.8050 C   0  0  0  0  0  0  0  0  0  0  0  0
  141.1300   77.8370  221.6950 N   0  0  0  0  0  0  0  0  0  0  0  0
  141.3270   76.5350  221.2140 C   0  0  0  0  0  0  0  0  0  0  0  0
  142.1590   76.2610  220.1370 C   0  0  0  0  0  0  0  0  0  0  0  0
  142.3490   74.9700  219.6650 C   0  0  0  0  0  0  0  0  0  0  0  0
  141.6730   73.9400  220.3080 C   0  0  0  0  0  0  0  0  0  0  0  0
  140.8340   74.1580  221.3810 C   0  0  0  0  0  0  0  0  0  0  0  0
  140.1150   73.1060  222.0730 C   0  0  0  0  0  0  0  0  0  0  0  0
  140.5860   71.8860  222.2750 C   0  0  0  0  0  0  0  0  0  0  0  0
  140.2940   71.1550  223.5230 C   0  0  0  0  0  0  0  0  0  0  0  0
  140.6910   71.8020  224.6520 N   0  0  0  0  0  0  0  0  0  0  0  0
  140.5460   71.2630  225.8730 C   0  0  0  0  0  0  0  0  0  0  0  0
  140.9330   71.8880  227.0270 C   0  0  0  0  0  0  0  0  0  0  0  0
  140.7740   71.3060  228.2850 C   0  0  0  0  0  0  0  0  0  0  0  0
  140.1970   70.0520  228.3430 C   0  0  0  0  0  0  0  0  0  0  0  0
  139.8170   69.4460  227.1790 C   0  0  0  0  0  0  0  0  0  0  0  0
  139.9760   70.0220  225.9370 C   0  0  0  0  0  0  0  0  0  0  0  0
  139.5780   69.3790  224.7760 C   0  0  0  0  0  0  0  0  0  0  0  0
  139.0710   68.2400  224.9430 O   0  0  0  0  0  0  0  0  0  0  0  0
  139.7270   69.9360  223.5410 N   0  0  0  0  0  0  0  0  0  0  0  0
  139.3200   69.3030  222.3290 C   0  0  0  0  0  0  0  0  0  0  0  0
  137.9050   68.8730  222.1920 C   0  0  0  0  0  0  0  0  0  0  0  0
  137.6420   67.3970  222.3440 C   0  0  0  0  0  0  0  0  0  0  0  0
  136.3630   67.0990  221.5270 C   0  0  0  0  0  0  0  0  0  0  0  0
  135.3890   68.1930  221.7700 C   0  0  0  0  0  0  0  0  0  0  0  0
  135.5840   68.9060  223.0660 C   0  0  0  0  0  0  0  0  0  0  0  0
  136.9530   69.5530  223.1670 C   0  0  0  0  0  0  0  0  0  0  0  0
  140.6970   75.4710  221.7940 C   0  0  0  0  0  0  0  0  0  0  0  0
  141.8310   78.9400  221.0410 C   0  0  0  0  0  0  0  0  0  0  0  0
  141.5410   80.2600  221.7100 C   0  0  0  0  0  0  0  0  0  0  0  0
  142.9936   80.5129  224.7220 H   0  0  0  0  0  0  0  0  0  0  0  0
  143.6998   79.7530  223.2555 H   0  0  0  0  0  0  0  0  0  0  0  0
  143.2995   81.5041  223.2555 H   0  0  0  0  0  0  0  0  0  0  0  0
  141.9259   78.4200  224.1407 H   0  0  0  0  0  0  0  0  0  0  0  0
  140.4303   79.3836  224.5532 H   0  0  0  0  0  0  0  0  0  0  0  0
  139.9196   77.2917  223.3171 H   0  0  0  0  0  0  0  0  0  0  0  0
  139.3953   78.7575  222.4540 H   0  0  0  0  0  0  0  0  0  0  0  0
  142.6834   77.0922  219.6429 H   0  0  0  0  0  0  0  0  0  0  0  0
  143.0122   74.7687  218.8108 H   0  0  0  0  0  0  0  0  0  0  0  0
  141.8125   72.9103  219.9471 H   0  0  0  0  0  0  0  0  0  0  0  0
  139.1102   73.3377  222.4559 H   0  0  0  0  0  0  0  0  0  0  0  0
  141.2048   71.4094  221.5005 H   0  0  0  0  0  0  0  0  0  0  0  0
  141.3869   72.8878  226.9604 H   0  0  0  0  0  0  0  0  0  0  0  0
  141.0966   71.8271  229.1984 H   0  0  0  0  0  0  0  0  0  0  0  0
  140.0461   69.5500  229.3101 H   0  0  0  0  0  0  0  0  0  0  0  0
  139.3606   68.4468  227.2360 H   0  0  0  0  0  0  0  0  0  0  0  0
  139.5254   70.0081  221.5101 H   0  0  0  0  0  0  0  0  0  0  0  0
  139.8890   68.3617  222.3138 H   0  0  0  0  0  0  0  0  0  0  0  0
  137.7140   69.1768  221.1522 H   0  0  0  0  0  0  0  0  0  0  0  0
  138.4894   66.8164  221.9506 H   0  0  0  0  0  0  0  0  0  0  0  0
  137.5156   67.1196  223.4009 H   0  0  0  0  0  0  0  0  0  0  0  0
  136.6087   67.0509  220.4559 H   0  0  0  0  0  0  0  0  0  0  0  0
  135.9334   66.1340  221.8341 H   0  0  0  0  0  0  0  0  0  0  0  0
  135.4825   68.9260  220.9551 H   0  0  0  0  0  0  0  0  0  0  0  0
  134.3932   67.7276  221.8109 H   0  0  0  0  0  0  0  0  0  0  0  0
  134.8156   69.6876  223.1588 H   0  0  0  0  0  0  0  0  0  0  0  0
  135.5020   68.1641  223.8740 H   0  0  0  0  0  0  0  0  0  0  0  0
  136.8736   70.6215  222.9180 H   0  0  0  0  0  0  0  0  0  0  0  0
  137.3367   69.4448  224.1922 H   0  0  0  0  0  0  0  0  0  0  0  0
  140.0347   75.6722  222.6489 H   0  0  0  0  0  0  0  0  0  0  0  0
  142.9135   78.7493  221.0830 H   0  0  0  0  0  0  0  0  0  0  0  0
  141.4813   78.9992  219.9998 H   0  0  0  0  0  0  0  0  0  0  0  0
  142.2477   81.0098  221.3249 H   0  0  0  0  0  0  0  0  0  0  0  0
  140.4970   80.5200  221.4810 H   0  0  0  0  0  0  0  0  0  0  0  0
  1  2  1  0
  2  3  1  0
  3  4  1  0
  4  5  1  0
  5  6  1  0
  6  7  2  0
  7  8  1  0
  8  9  2  0
  9 10  1  0
 10 11  1  0
 11 12  2  0
 12 13  1  0
 13 14  2  0
 14 15  1  0
 15 16  2  0
 16 17  1  0
 17 18  2  0
 18 19  1  0
 19 20  2  0
 20 21  1  0
 21 22  2  0
 21 23  1  0
 23 24  1  0
 24 25  1  0
 25 26  1  0
 26 27  1  0
 27 28  1  0
 28 29  1  0
 29 30  1  0
 10 31  2  0
  5 32  1  0
 32 33  1  0
 33  2  1  0
 31  6  1  0
 23 13  1  0
 30 25  1  0
 20 15  1  0
  1 34  1  0
  1 35  1  0
  1 36  1  0
  3 37  1  0
  3 38  1  0
  4 39  1  0
  4 40  1  0
  7 41  1  0
  8 42  1  0
  9 43  1  0
 11 44  1  0
 12 45  1  0
 16 46  1  0
 17 47  1  0
 18 48  1  0
 19 49  1  0
 24 50  1  0
 24 51  1  0
 25 52  1  0
 26 53  1  0
 26 54  1  0
 27 55  1  0
 27 56  1  0
 28 57  1  0
 28 58  1  0
 29 59  1  0
 29 60  1  0
 30 61  1  0
 30 62  1  0
 31 63  1  0
 32 64  1  0
 32 65  1  0
 33 66  1  0
 33 67  1  0
M  END
>  <smiles>  (37) 
CN1CCN(c2cccc(/C=C/c3nc4ccccc4c(=O)n3CC3CCCCC3)c2)CC1

>  <score_type>  (37) 
oracle

>  <origin>  (37) 
autodockgpu

>  <m_score__min__energy>  (37) 
-9.1300000000000008

>  <m_primary>  (37) 
energy

>  <rmsd>  (37) 
6.871626614442169

>  <m_score__min__rmsd>  (37) 
6.871626614442169

>  <meeko>  (37) 
{"free_energy": -8.95, "intermolecular_energy": -10.74, "internal_energy": -1.42, "cluster_size": 21, "cluster_id": 2, "rank_in_cluster": 3}

>  <energy>  (37) 
-8.76

>  <cluster_rmsd>  (37) 
2.0

>  <cluster>  (37) 
4

$$$$

     RDKit          3D

 67 71  0  0  0  0  0  0  0  0999 V2000
  145.5740   71.0220  218.1840 C   0  0  0  0  0  0  0  0  0  0  0  0
  145.7640   72.3460  218.7380 N   0  0  0  0  0  0  0  0  0  0  0  0
  145.5850   72.3810  220.1630 C   0  0  0  0  0  0  0  0  0  0  0  0
  144.9090   73.6450  220.6530 C   0  0  0  0  0  0  0  0  0  0  0  0
  143.6370   73.7420  219.9720 N   0  0  0  0  0  0  0  0  0  0  0  0
  142.3950   73.9340  220.5960 C   0  0  0  0  0  0  0  0  0  0  0  0
  141.8610   75.1970  220.8080 C   0  0  0  0  0  0  0  0  0  0  0  0
  140.6330   75.3820  221.4270 C   0  0  0  0  0  0  0  0  0  0  0  0
  139.9390   74.2490  221.8370 C   0  0  0  0  0  0  0  0  0  0  0  0
  140.4250   72.9720  221.6510 C   0  0  0  0  0  0  0  0  0  0  0  0
  139.7270   71.7710  222.0660 C   0  0  0  0  0  0  0  0  0  0  0  0
  138.9430   71.6930  223.1290 C   0  0  0  0  0  0  0  0  0  0  0  0
  139.2120   70.7150  224.2020 C   0  0  0  0  0  0  0  0  0  0  0  0
  139.9110   71.2210  225.2530 N   0  0  0  0  0  0  0  0  0  0  0  0
  140.2840   70.4620  226.2960 C   0  0  0  0  0  0  0  0  0  0  0  0
  140.9860   70.9410  227.3670 C   0  0  0  0  0  0  0  0  0  0  0  0
  141.3640   70.1310  228.4390 C   0  0  0  0  0  0  0  0  0  0  0  0
  141.0010   68.7990  228.3950 C   0  0  0  0  0  0  0  0  0  0  0  0
  140.3000   68.3410  227.3150 C   0  0  0  0  0  0  0  0  0  0  0  0
  139.9280   69.1430  226.2570 C   0  0  0  0  0  0  0  0  0  0  0  0
  139.2150   68.6460  225.1780 C   0  0  0  0  0  0  0  0  0  0  0  0
  138.9430   67.4190  225.2370 O   0  0  0  0  0  0  0  0  0  0  0  0
  138.8400   69.4260  224.1250 N   0  0  0  0  0  0  0  0  0  0  0  0
  138.1000   68.9450  223.0040 C   0  0  0  0  0  0  0  0  0  0  0  0
  138.7490   67.9710  222.0890 C   0  0  0  0  0  0  0  0  0  0  0  0
  137.8360   67.2430  221.1380 C   0  0  0  0  0  0  0  0  0  0  0  0
  138.5250   65.8950  220.8220 C   0  0  0  0  0  0  0  0  0  0  0  0
  139.9750   66.1480  220.6250 C   0  0  0  0  0  0  0  0  0  0  0  0
  140.2980   67.5420  220.2010 C   0  0  0  0  0  0  0  0  0  0  0  0
  139.8420   68.5730  221.2160 C   0  0  0  0  0  0  0  0  0  0  0  0
  141.6560   72.8700  221.0260 C   0  0  0  0  0  0  0  0  0  0  0  0
  143.6780   73.6270  218.5150 C   0  0  0  0  0  0  0  0  0  0  0  0
  145.0800   73.3800  218.0160 C   0  0  0  0  0  0  0  0  0  0  0  0
  145.4695   70.2939  219.0019 H   0  0  0  0  0  0  0  0  0  0  0  0
  144.6650   71.0107  217.5646 H   0  0  0  0  0  0  0  0  0  0  0  0
  146.4431   70.7555  217.5646 H   0  0  0  0  0  0  0  0  0  0  0  0
  144.9689   71.5190  220.4584 H   0  0  0  0  0  0  0  0  0  0  0  0
  146.5864   72.3511  220.6171 H   0  0  0  0  0  0  0  0  0  0  0  0
  144.7511   73.5906  221.7402 H   0  0  0  0  0  0  0  0  0  0  0  0
  145.5320   74.5270  220.4435 H   0  0  0  0  0  0  0  0  0  0  0  0
  142.4285   76.0786  220.4752 H   0  0  0  0  0  0  0  0  0  0  0  0
  140.2228   76.3899  221.5878 H   0  0  0  0  0  0  0  0  0  0  0  0
  138.9636   74.3764  222.3293 H   0  0  0  0  0  0  0  0  0  0  0  0
  139.8579   70.8645  221.4568 H   0  0  0  0  0  0  0  0  0  0  0  0
  138.0778   72.3669  223.2146 H   0  0  0  0  0  0  0  0  0  0  0  0
  141.2634   72.0053  227.3845 H   0  0  0  0  0  0  0  0  0  0  0  0
  141.9309   70.5390  229.2888 H   0  0  0  0  0  0  0  0  0  0  0  0
  141.2717   68.1183  229.2156 H   0  0  0  0  0  0  0  0  0  0  0  0
  140.0181   67.2781  227.2884 H   0  0  0  0  0  0  0  0  0  0  0  0
  137.1914   68.4653  223.3968 H   0  0  0  0  0  0  0  0  0  0  0  0
  137.9467   69.8381  222.3804 H   0  0  0  0  0  0  0  0  0  0  0  0
  139.1556   67.2617  222.8249 H   0  0  0  0  0  0  0  0  0  0  0  0
  136.8567   67.0694  221.6078 H   0  0  0  0  0  0  0  0  0  0  0  0
  137.6630   67.8281  220.2227 H   0  0  0  0  0  0  0  0  0  0  0  0
  138.3795   65.1974  221.6600 H   0  0  0  0  0  0  0  0  0  0  0  0
  138.0908   65.4508  219.9142 H   0  0  0  0  0  0  0  0  0  0  0  0
  140.4929   65.9469  221.5744 H   0  0  0  0  0  0  0  0  0  0  0  0
  140.3053   65.4845  219.8121 H   0  0  0  0  0  0  0  0  0  0  0  0
  141.3870   67.6294  220.0729 H   0  0  0  0  0  0  0  0  0  0  0  0
  139.7655   67.7390  219.2589 H   0  0  0  0  0  0  0  0  0  0  0  0
  140.6934   68.8700  221.8459 H   0  0  0  0  0  0  0  0  0  0  0  0
  139.4499   69.4572  220.6922 H   0  0  0  0  0  0  0  0  0  0  0  0
  142.0668   71.8624  220.8649 H   0  0  0  0  0  0  0  0  0  0  0  0
  143.0361   72.7892  218.2050 H   0  0  0  0  0  0  0  0  0  0  0  0
  143.3222   74.5750  218.0852 H   0  0  0  0  0  0  0  0  0  0  0  0
  145.0277   73.0901  216.9562 H   0  0  0  0  0  0  0  0  0  0  0  0
  145.6475   74.3108  218.1629 H   0  0  0  0  0  0  0  0  0  0  0  0
  1  2  1  0
  2  3  1  0
  3  4  1  0
  4  5  1  0
  5  6  1  0
  6  7  2  0
  7  8  1  0
  8  9  2  0
  9 10  1  0
 10 11  1  0
 11 12  2  0
 12 13  1  0
 13 14  2  0
 14 15  1  0
 15 16  2  0
 16 17  1  0
 17 18  2  0
 18 19  1  0
 19 20  2  0
 20 21  1  0
 21 22  2  0
 21 23  1  0
 23 24  1  0
 24 25  1  0
 25 26  1  0
 26 27  1  0
 27 28  1  0
 28 29  1  0
 29 30  1  0
 10 31  2  0
  5 32  1  0
 32 33  1  0
 33  2  1  0
 31  6  1  0
 23 13  1  0
 30 25  1  0
 20 15  1  0
  1 34  1  0
  1 35  1  0
  1 36  1  0
  3 37  1  0
  3 38  1  0
  4 39  1  0
  4 40  1  0
  7 41  1  0
  8 42  1  0
  9 43  1  0
 11 44  1  0
 12 45  1  0
 16 46  1  0
 17 47  1  0
 18 48  1  0
 19 49  1  0
 24 50  1  0
 24 51  1  0
 25 52  1  0
 26 53  1  0
 26 54  1  0
 27 55  1  0
 27 56  1  0
 28 57  1  0
 28 58  1  0
 29 59  1  0
 29 60  1  0
 30 61  1  0
 30 62  1  0
 31 63  1  0
 32 64  1  0
 32 65  1  0
 33 66  1  0
 33 67  1  0
M  END
>  <smiles>  (38) 
CN1CCN(c2cccc(/C=C/c3nc4ccccc4c(=O)n3CC3CCCCC3)c2)CC1

>  <score_type>  (38) 
oracle

>  <origin>  (38) 
autodockgpu

>  <m_score__min__energy>  (38) 
-9.1300000000000008

>  <m_primary>  (38) 
energy

>  <rmsd>  (38) 
7.392390288771873

>  <m_score__min__rmsd>  (38) 
7.392390288771873

>  <meeko>  (38) 
{"free_energy": -8.9, "intermolecular_energy": -10.69, "internal_energy": -1.65, "cluster_size": 9, "cluster_id": 1, "rank_in_cluster": 7}

>  <energy>  (38) 
-8.64

>  <cluster_rmsd>  (38) 
0.93

>  <cluster>  (38) 
4

$$$$

     RDKit          3D

 67 71  0  0  0  0  0  0  0  0999 V2000
  142.2330   79.7530  223.8110 C   0  0  0  0  0  0  0  0  0  0  0  0
  141.0730   79.8920  222.9570 N   0  0  0  0  0  0  0  0  0  0  0  0
  139.8640   79.4370  223.5850 C   0  0  0  0  0  0  0  0  0  0  0  0
  138.9170   78.7380  222.6310 C   0  0  0  0  0  0  0  0  0  0  0  0
  139.6400   77.6320  222.0440 N   0  0  0  0  0  0  0  0  0  0  0  0
  139.1950   76.3020  222.0040 C   0  0  0  0  0  0  0  0  0  0  0  0
  137.8480   75.9720  222.0210 C   0  0  0  0  0  0  0  0  0  0  0  0
  137.4130   74.6540  221.9820 C   0  0  0  0  0  0  0  0  0  0  0  0
  138.3790   73.6560  221.9260 C   0  0  0  0  0  0  0  0  0  0  0  0
  139.7310   73.9300  221.9080 C   0  0  0  0  0  0  0  0  0  0  0  0
  140.7630   72.9130  221.8500 C   0  0  0  0  0  0  0  0  0  0  0  0
  140.5560   71.6260  222.0750 C   0  0  0  0  0  0  0  0  0  0  0  0
  140.1840   71.1400  223.4180 C   0  0  0  0  0  0  0  0  0  0  0  0
  140.9000   71.6990  224.4300 N   0  0  0  0  0  0  0  0  0  0  0  0
  140.7260   71.3400  225.7120 C   0  0  0  0  0  0  0  0  0  0  0  0
  141.4290   71.8840  226.7520 C   0  0  0  0  0  0  0  0  0  0  0  0
  141.2310   71.4930  228.0770 C   0  0  0  0  0  0  0  0  0  0  0  0
  140.2830   70.5190  228.3240 C   0  0  0  0  0  0  0  0  0  0  0  0
  139.5920   69.9900  227.2700 C   0  0  0  0  0  0  0  0  0  0  0  0
  139.7890   70.3770  225.9620 C   0  0  0  0  0  0  0  0  0  0  0  0
  139.0690   69.8190  224.9170 C   0  0  0  0  0  0  0  0  0  0  0  0
  138.2370   68.9380  225.2530 O   0  0  0  0  0  0  0  0  0  0  0  0
  139.2520   70.1930  223.6190 N   0  0  0  0  0  0  0  0  0  0  0  0
  138.5220   69.6430  222.5240 C   0  0  0  0  0  0  0  0  0  0  0  0
  139.0050   68.3790  221.9100 C   0  0  0  0  0  0  0  0  0  0  0  0
  138.1350   67.1660  222.1130 C   0  0  0  0  0  0  0  0  0  0  0  0
  139.0750   65.9400  222.0370 C   0  0  0  0  0  0  0  0  0  0  0  0
  140.0340   66.1560  220.9250 C   0  0  0  0  0  0  0  0  0  0  0  0
  139.5390   67.0820  219.8640 C   0  0  0  0  0  0  0  0  0  0  0  0
  139.2320   68.4660  220.4070 C   0  0  0  0  0  0  0  0  0  0  0  0
  140.0850   75.2680  221.9490 C   0  0  0  0  0  0  0  0  0  0  0  0
  140.9370   77.9540  221.4510 C   0  0  0  0  0  0  0  0  0  0  0  0
  141.2780   79.4140  221.6200 C   0  0  0  0  0  0  0  0  0  0  0  0
  141.9192   79.7906  224.8646 H   0  0  0  0  0  0  0  0  0  0  0  0
  142.7239   78.7896  223.6088 H   0  0  0  0  0  0  0  0  0  0  0  0
  142.9376   80.5731  223.6088 H   0  0  0  0  0  0  0  0  0  0  0  0
  140.1313   78.7346  224.3882 H   0  0  0  0  0  0  0  0  0  0  0  0
  139.3419   80.3265  223.9674 H   0  0  0  0  0  0  0  0  0  0  0  0
  138.0381   78.3658  223.1778 H   0  0  0  0  0  0  0  0  0  0  0  0
  138.5650   79.4311  221.8528 H   0  0  0  0  0  0  0  0  0  0  0  0
  137.1017   76.7788  222.0668 H   0  0  0  0  0  0  0  0  0  0  0  0
  136.3409   74.4081  221.9950 H   0  0  0  0  0  0  0  0  0  0  0  0
  138.0524   72.6060  221.8948 H   0  0  0  0  0  0  0  0  0  0  0  0
  141.7859   73.2330  221.6025 H   0  0  0  0  0  0  0  0  0  0  0  0
  140.6627   70.9074  221.2490 H   0  0  0  0  0  0  0  0  0  0  0  0
  142.1789   72.6591  226.5356 H   0  0  0  0  0  0  0  0  0  0  0  0
  141.8097   71.9447  228.8962 H   0  0  0  0  0  0  0  0  0  0  0  0
  140.0878   70.1753  229.3505 H   0  0  0  0  0  0  0  0  0  0  0  0
  138.8393   69.2149  227.4765 H   0  0  0  0  0  0  0  0  0  0  0  0
  137.4963   69.4606  222.8771 H   0  0  0  0  0  0  0  0  0  0  0  0
  138.6352   70.3898  221.7243 H   0  0  0  0  0  0  0  0  0  0  0  0
  139.9488   68.2505  222.4602 H   0  0  0  0  0  0  0  0  0  0  0  0
  137.6444   67.2094  223.0966 H   0  0  0  0  0  0  0  0  0  0  0  0
  137.3428   67.1102  221.3519 H   0  0  0  0  0  0  0  0  0  0  0  0
  139.6227   65.8320  222.9848 H   0  0  0  0  0  0  0  0  0  0  0  0
  138.4906   65.0248  221.8610 H   0  0  0  0  0  0  0  0  0  0  0  0
  140.9605   66.5751  221.3445 H   0  0  0  0  0  0  0  0  0  0  0  0
  140.1888   65.1782  220.4454 H   0  0  0  0  0  0  0  0  0  0  0  0
  140.3094   67.1706  219.0838 H   0  0  0  0  0  0  0  0  0  0  0  0
  138.6054   66.6635  219.4598 H   0  0  0  0  0  0  0  0  0  0  0  0
  140.0789   69.1373  220.2017 H   0  0  0  0  0  0  0  0  0  0  0  0
  138.3276   68.8600  219.9204 H   0  0  0  0  0  0  0  0  0  0  0  0
  141.1569   75.5149  221.9364 H   0  0  0  0  0  0  0  0  0  0  0  0
  141.7135   77.3472  221.9397 H   0  0  0  0  0  0  0  0  0  0  0  0
  140.8869   77.7348  220.3742 H   0  0  0  0  0  0  0  0  0  0  0  0
  142.3359   79.5586  221.3555 H   0  0  0  0  0  0  0  0  0  0  0  0
  140.6055   79.9846  220.9626 H   0  0  0  0  0  0  0  0  0  0  0  0
  1  2  1  0
  2  3  1  0
  3  4  1  0
  4  5  1  0
  5  6  1  0
  6  7  2  0
  7  8  1  0
  8  9  2  0
  9 10  1  0
 10 11  1  0
 11 12  2  0
 12 13  1  0
 13 14  2  0
 14 15  1  0
 15 16  2  0
 16 17  1  0
 17 18  2  0
 18 19  1  0
 19 20  2  0
 20 21  1  0
 21 22  2  0
 21 23  1  0
 23 24  1  0
 24 25  1  0
 25 26  1  0
 26 27  1  0
 27 28  1  0
 28 29  1  0
 29 30  1  0
 10 31  2  0
  5 32  1  0
 32 33  1  0
 33  2  1  0
 31  6  1  0
 23 13  1  0
 30 25  1  0
 20 15  1  0
  1 34  1  0
  1 35  1  0
  1 36  1  0
  3 37  1  0
  3 38  1  0
  4 39  1  0
  4 40  1  0
  7 41  1  0
  8 42  1  0
  9 43  1  0
 11 44  1  0
 12 45  1  0
 16 46  1  0
 17 47  1  0
 18 48  1  0
 19 49  1  0
 24 50  1  0
 24 51  1  0
 25 52  1  0
 26 53  1  0
 26 54  1  0
 27 55  1  0
 27 56  1  0
 28 57  1  0
 28 58  1  0
 29 59  1  0
 29 60  1  0
 30 61  1  0
 30 62  1  0
 31 63  1  0
 32 64  1  0
 32 65  1  0
 33 66  1  0
 33 67  1  0
M  END
>  <smiles>  (39) 
CN1CCN(c2cccc(/C=C/c3nc4ccccc4c(=O)n3CC3CCCCC3)c2)CC1

>  <score_type>  (39) 
oracle

>  <origin>  (39) 
autodockgpu

>  <m_score__min__energy>  (39) 
-9.1300000000000008

>  <m_primary>  (39) 
energy

>  <rmsd>  (39) 
6.946817526708507

>  <m_score__min__rmsd>  (39) 
6.946817526708507

>  <meeko>  (39) 
{"free_energy": -8.33, "intermolecular_energy": -10.12, "internal_energy": -1.71, "cluster_size": 21, "cluster_id": 2, "rank_in_cluster": 15}

>  <energy>  (39) 
-8.43

>  <cluster_rmsd>  (39) 
0.93

>  <cluster>  (39) 
4

$$$$

     RDKit          3D

 67 71  0  0  0  0  0  0  0  0999 V2000
  142.5710   79.8210  222.7110 C   0  0  0  0  0  0  0  0  0  0  0  0
  141.3450   79.1750  222.2920 N   0  0  0  0  0  0  0  0  0  0  0  0
  141.0230   78.0250  223.0890 C   0  0  0  0  0  0  0  0  0  0  0  0
  140.4120   76.8910  222.2920 C   0  0  0  0  0  0  0  0  0  0  0  0
  141.3510   76.5480  221.2470 N   0  0  0  0  0  0  0  0  0  0  0  0
  141.8260   75.2560  220.9760 C   0  0  0  0  0  0  0  0  0  0  0  0
  143.0330   75.0300  220.3310 C   0  0  0  0  0  0  0  0  0  0  0  0
  143.4970   73.7500  220.0650 C   0  0  0  0  0  0  0  0  0  0  0  0
  142.7080   72.6800  220.4690 C   0  0  0  0  0  0  0  0  0  0  0  0
  141.5000   72.8480  221.1130 C   0  0  0  0  0  0  0  0  0  0  0  0
  140.6530   71.7540  221.5460 C   0  0  0  0  0  0  0  0  0  0  0  0
  139.6090   71.8890  222.3480 C   0  0  0  0  0  0  0  0  0  0  0  0
  139.5290   71.1500  223.6230 C   0  0  0  0  0  0  0  0  0  0  0  0
  140.2710   71.6910  224.6270 N   0  0  0  0  0  0  0  0  0  0  0  0
  140.3520   71.1240  225.8410 C   0  0  0  0  0  0  0  0  0  0  0  0
  141.0880   71.6440  226.8700 C   0  0  0  0  0  0  0  0  0  0  0  0
  141.1580   71.0350  228.1240 C   0  0  0  0  0  0  0  0  0  0  0  0
  140.4480   69.8650  228.3100 C   0  0  0  0  0  0  0  0  0  0  0  0
  139.7190   69.3640  227.2670 C   0  0  0  0  0  0  0  0  0  0  0  0
  139.6520   69.9660  226.0300 C   0  0  0  0  0  0  0  0  0  0  0  0
  138.9010   69.4300  224.9950 C   0  0  0  0  0  0  0  0  0  0  0  0
  138.2990   68.3610  225.2700 O   0  0  0  0  0  0  0  0  0  0  0  0
  138.8230   70.0150  223.7660 N   0  0  0  0  0  0  0  0  0  0  0  0
  138.0540   69.4920  222.6850 C   0  0  0  0  0  0  0  0  0  0  0  0
  138.6100   68.3600  221.9000 C   0  0  0  0  0  0  0  0  0  0  0  0
  139.9190   68.6150  221.2000 C   0  0  0  0  0  0  0  0  0  0  0  0
  139.9500   67.6660  219.9790 C   0  0  0  0  0  0  0  0  0  0  0  0
  139.4260   66.3440  220.4030 C   0  0  0  0  0  0  0  0  0  0  0  0
  139.5680   66.0720  221.8640 C   0  0  0  0  0  0  0  0  0  0  0  0
  138.8290   67.0900  222.7120 C   0  0  0  0  0  0  0  0  0  0  0  0
  141.1060   74.1550  221.3420 C   0  0  0  0  0  0  0  0  0  0  0  0
  141.8260   77.6560  220.4210 C   0  0  0  0  0  0  0  0  0  0  0  0
  141.2510   78.9750  220.8740 C   0  0  0  0  0  0  0  0  0  0  0  0
  142.6160   79.8447  223.8098 H   0  0  0  0  0  0  0  0  0  0  0  0
  143.4330   79.2600  222.3208 H   0  0  0  0  0  0  0  0  0  0  0  0
  142.5956   80.8492  222.3208 H   0  0  0  0  0  0  0  0  0  0  0  0
  141.9461   77.6600  223.5629 H   0  0  0  0  0  0  0  0  0  0  0  0
  140.2728   78.3426  223.8282 H   0  0  0  0  0  0  0  0  0  0  0  0
  140.2400   76.0220  222.9441 H   0  0  0  0  0  0  0  0  0  0  0  0
  139.4443   77.1917  221.8640 H   0  0  0  0  0  0  0  0  0  0  0  0
  143.6412   75.8925  220.0208 H   0  0  0  0  0  0  0  0  0  0  0  0
  144.4564   73.5877  219.5520 H   0  0  0  0  0  0  0  0  0  0  0  0
  143.0610   71.6579  220.2671 H   0  0  0  0  0  0  0  0  0  0  0  0
  140.8943   70.7438  221.1836 H   0  0  0  0  0  0  0  0  0  0  0  0
  138.7883   72.5623  222.0599 H   0  0  0  0  0  0  0  0  0  0  0  0
  141.6457   72.5773  226.7030 H   0  0  0  0  0  0  0  0  0  0  0  0
  141.7579   71.4718  228.9360 H   0  0  0  0  0  0  0  0  0  0  0  0
  140.4685   69.3456  229.2794 H   0  0  0  0  0  0  0  0  0  0  0  0
  139.1568   68.4316  227.4242 H   0  0  0  0  0  0  0  0  0  0  0  0
  137.0935   69.1561  223.1029 H   0  0  0  0  0  0  0  0  0  0  0  0
  138.0062   70.3211  221.9637 H   0  0  0  0  0  0  0  0  0  0  0  0
  137.8113   68.2380  221.1536 H   0  0  0  0  0  0  0  0  0  0  0  0
  139.9766   69.6627  220.8697 H   0  0  0  0  0  0  0  0  0  0  0  0
  140.7726   68.4333  221.8695 H   0  0  0  0  0  0  0  0  0  0  0  0
  139.3212   68.0746  219.1742 H   0  0  0  0  0  0  0  0  0  0  0  0
  140.9793   67.5634  219.6048 H   0  0  0  0  0  0  0  0  0  0  0  0
  138.3577   66.2970  220.1451 H   0  0  0  0  0  0  0  0  0  0  0  0
  140.0234   65.5832  219.8792 H   0  0  0  0  0  0  0  0  0  0  0  0
  139.1636   65.0718  222.0789 H   0  0  0  0  0  0  0  0  0  0  0  0
  140.6368   66.1350  222.1164 H   0  0  0  0  0  0  0  0  0  0  0  0
  137.8562   66.6769  223.0170 H   0  0  0  0  0  0  0  0  0  0  0  0
  139.4236   67.3239  223.6074 H   0  0  0  0  0  0  0  0  0  0  0  0
  140.1464   74.3180  221.8543 H   0  0  0  0  0  0  0  0  0  0  0  0
  142.9230   77.7042  220.4856 H   0  0  0  0  0  0  0  0  0  0  0  0
  141.5000   77.4768  219.3858 H   0  0  0  0  0  0  0  0  0  0  0  0
  141.7966   79.7860  220.3695 H   0  0  0  0  0  0  0  0  0  0  0  0
  140.1821   78.9724  220.6142 H   0  0  0  0  0  0  0  0  0  0  0  0
  1  2  1  0
  2  3  1  0
  3  4  1  0
  4  5  1  0
  5  6  1  0
  6  7  2  0
  7  8  1  0
  8  9  2  0
  9 10  1  0
 10 11  1  0
 11 12  2  0
 12 13  1  0
 13 14  2  0
 14 15  1  0
 15 16  2  0
 16 17  1  0
 17 18  2  0
 18 19  1  0
 19 20  2  0
 20 21  1  0
 21 22  2  0
 21 23  1  0
 23 24  1  0
 24 25  1  0
 25 26  1  0
 26 27  1  0
 27 28  1  0
 28 29  1  0
 29 30  1  0
 10 31  2  0
  5 32  1  0
 32 33  1  0
 33  2  1  0
 31  6  1  0
 23 13  1  0
 30 25  1  0
 20 15  1  0
  1 34  1  0
  1 35  1  0
  1 36  1  0
  3 37  1  0
  3 38  1  0
  4 39  1  0
  4 40  1  0
  7 41  1  0
  8 42  1  0
  9 43  1  0
 11 44  1  0
 12 45  1  0
 16 46  1  0
 17 47  1  0
 18 48  1  0
 19 49  1  0
 24 50  1  0
 24 51  1  0
 25 52  1  0
 26 53  1  0
 26 54  1  0
 27 55  1  0
 27 56  1  0
 28 57  1  0
 28 58  1  0
 29 59  1  0
 29 60  1  0
 30 61  1  0
 30 62  1  0
 31 63  1  0
 32 64  1  0
 32 65  1  0
 33 66  1  0
 33 67  1  0
M  END
>  <smiles>  (40) 
CN1CCN(c2cccc(/C=C/c3nc4ccccc4c(=O)n3CC3CCCCC3)c2)CC1

>  <score_type>  (40) 
oracle

>  <origin>  (40) 
autodockgpu

>  <m_score__min__energy>  (40) 
-9.1300000000000008

>  <m_primary>  (40) 
energy

>  <rmsd>  (40) 
7.312426531292698

>  <m_score__min__rmsd>  (40) 
7.312426531292698

>  <meeko>  (40) 
{"free_energy": -8.7, "intermolecular_energy": -10.49, "internal_energy": -1.67, "cluster_size": 21, "cluster_id": 2, "rank_in_cluster": 11}

>  <energy>  (40) 
-8.7

>  <cluster_rmsd>  (40) 
0.0

>  <cluster>  (40) 
5

$$$$

     RDKit          3D

 67 71  0  0  0  0  0  0  0  0999 V2000
  139.6640   69.0270  228.7800 C   0  0  0  0  0  0  0  0  0  0  0  0
  140.8020   69.3950  227.9650 N   0  0  0  0  0  0  0  0  0  0  0  0
  140.8130   70.7900  227.6240 C   0  0  0  0  0  0  0  0  0  0  0  0
  141.3150   71.0630  226.2220 C   0  0  0  0  0  0  0  0  0  0  0  0
  140.4720   70.3170  225.3120 N   0  0  0  0  0  0  0  0  0  0  0  0
  139.8180   70.8500  224.1920 C   0  0  0  0  0  0  0  0  0  0  0  0
  138.6490   70.3010  223.6860 C   0  0  0  0  0  0  0  0  0  0  0  0
  138.0070   70.8320  222.5760 C   0  0  0  0  0  0  0  0  0  0  0  0
  138.5750   71.9480  221.9730 C   0  0  0  0  0  0  0  0  0  0  0  0
  139.7360   72.5320  222.4350 C   0  0  0  0  0  0  0  0  0  0  0  0
  140.3550   73.6950  221.8280 C   0  0  0  0  0  0  0  0  0  0  0  0
  139.7260   74.8330  221.5820 C   0  0  0  0  0  0  0  0  0  0  0  0
  140.4680   76.1040  221.4770 C   0  0  0  0  0  0  0  0  0  0  0  0
  140.2510   76.9620  222.5100 N   0  0  0  0  0  0  0  0  0  0  0  0
  140.8080   78.1830  222.5550 C   0  0  0  0  0  0  0  0  0  0  0  0
  140.6100   79.0670  223.5790 C   0  0  0  0  0  0  0  0  0  0  0  0
  141.2000   80.3320  223.6030 C   0  0  0  0  0  0  0  0  0  0  0  0
  142.0130   80.6800  222.5410 C   0  0  0  0  0  0  0  0  0  0  0  0
  142.1970   79.7810  221.5290 C   0  0  0  0  0  0  0  0  0  0  0  0
  141.6130   78.5330  221.5070 C   0  0  0  0  0  0  0  0  0  0  0  0
  141.8230   77.6440  220.4640 C   0  0  0  0  0  0  0  0  0  0  0  0
  142.5740   78.0650  219.5470 O   0  0  0  0  0  0  0  0  0  0  0  0
  141.2540   76.4060  220.4300 N   0  0  0  0  0  0  0  0  0  0  0  0
  141.4560   75.4680  219.3740 C   0  0  0  0  0  0  0  0  0  0  0  0
  142.6310   74.5610  219.4460 C   0  0  0  0  0  0  0  0  0  0  0  0
  143.3590   74.5180  220.7640 C   0  0  0  0  0  0  0  0  0  0  0  0
  144.8190   74.1230  220.4400 C   0  0  0  0  0  0  0  0  0  0  0  0
  144.7950   73.0490  219.4170 C   0  0  0  0  0  0  0  0  0  0  0  0
  143.5340   72.2520  219.3990 C   0  0  0  0  0  0  0  0  0  0  0  0
  142.3150   73.1090  219.1130 C   0  0  0  0  0  0  0  0  0  0  0  0
  140.3170   71.9450  223.5460 C   0  0  0  0  0  0  0  0  0  0  0  0
  140.3080   68.8960  225.6090 C   0  0  0  0  0  0  0  0  0  0  0  0
  141.0410   68.5020  226.8680 C   0  0  0  0  0  0  0  0  0  0  0  0
  139.9314   69.1135  229.8435 H   0  0  0  0  0  0  0  0  0  0  0  0
  138.8215   69.6985  228.5580 H   0  0  0  0  0  0  0  0  0  0  0  0
  139.3742   67.9894  228.5580 H   0  0  0  0  0  0  0  0  0  0  0  0
  139.7870   71.1776  227.7085 H   0  0  0  0  0  0  0  0  0  0  0  0
  141.5047   71.2884  228.3191 H   0  0  0  0  0  0  0  0  0  0  0  0
  141.2489   72.1385  226.0009 H   0  0  0  0  0  0  0  0  0  0  0  0
  142.3669   70.7584  226.1179 H   0  0  0  0  0  0  0  0  0  0  0  0
  138.2176   69.4177  224.1796 H   0  0  0  0  0  0  0  0  0  0  0  0
  137.0804   70.3849  222.1868 H   0  0  0  0  0  0  0  0  0  0  0  0
  138.0791   72.3826  221.0926 H   0  0  0  0  0  0  0  0  0  0  0  0
  141.4181   73.6264  221.5539 H   0  0  0  0  0  0  0  0  0  0  0  0
  138.6335   74.8314  221.4539 H   0  0  0  0  0  0  0  0  0  0  0  0
  139.9610   78.7701  224.4160 H   0  0  0  0  0  0  0  0  0  0  0  0
  141.0241   81.0269  224.4374 H   0  0  0  0  0  0  0  0  0  0  0  0
  142.5036   81.6641  222.5111 H   0  0  0  0  0  0  0  0  0  0  0  0
  142.8451   80.0682  220.6879 H   0  0  0  0  0  0  0  0  0  0  0  0
  140.5586   74.8336  219.3271 H   0  0  0  0  0  0  0  0  0  0  0  0
  141.6532   76.0945  218.4916 H   0  0  0  0  0  0  0  0  0  0  0  0
  143.2753   75.0261  218.6854 H   0  0  0  0  0  0  0  0  0  0  0  0
  143.3299   75.5055  221.2478 H   0  0  0  0  0  0  0  0  0  0  0  0
  142.8939   73.7992  221.4547 H   0  0  0  0  0  0  0  0  0  0  0  0
  145.3627   74.9961  220.0500 H   0  0  0  0  0  0  0  0  0  0  0  0
  145.3265   73.7688  221.3494 H   0  0  0  0  0  0  0  0  0  0  0  0
  144.9252   73.5116  218.4276 H   0  0  0  0  0  0  0  0  0  0  0  0
  145.6070   72.3516  219.6706 H   0  0  0  0  0  0  0  0  0  0  0  0
  143.6145   71.4801  218.6194 H   0  0  0  0  0  0  0  0  0  0  0  0
  143.4045   71.8046  220.3955 H   0  0  0  0  0  0  0  0  0  0  0  0
  142.0487   73.0256  218.0490 H   0  0  0  0  0  0  0  0  0  0  0  0
  141.4705   72.7653  219.7283 H   0  0  0  0  0  0  0  0  0  0  0  0
  141.2441   72.3911  223.9352 H   0  0  0  0  0  0  0  0  0  0  0  0
  139.2371   68.6796  225.7371 H   0  0  0  0  0  0  0  0  0  0  0  0
  140.7286   68.3194  224.7720 H   0  0  0  0  0  0  0  0  0  0  0  0
  140.7147   67.4932  227.1611 H   0  0  0  0  0  0  0  0  0  0  0  0
  142.1174   68.5400  226.6446 H   0  0  0  0  0  0  0  0  0  0  0  0
  1  2  1  0
  2  3  1  0
  3  4  1  0
  4  5  1  0
  5  6  1  0
  6  7  2  0
  7  8  1  0
  8  9  2  0
  9 10  1  0
 10 11  1  0
 11 12  2  0
 12 13  1  0
 13 14  2  0
 14 15  1  0
 15 16  2  0
 16 17  1  0
 17 18  2  0
 18 19  1  0
 19 20  2  0
 20 21  1  0
 21 22  2  0
 21 23  1  0
 23 24  1  0
 24 25  1  0
 25 26  1  0
 26 27  1  0
 27 28  1  0
 28 29  1  0
 29 30  1  0
 10 31  2  0
  5 32  1  0
 32 33  1  0
 33  2  1  0
 31  6  1  0
 23 13  1  0
 30 25  1  0
 20 15  1  0
  1 34  1  0
  1 35  1  0
  1 36  1  0
  3 37  1  0
  3 38  1  0
  4 39  1  0
  4 40  1  0
  7 41  1  0
  8 42  1  0
  9 43  1  0
 11 44  1  0
 12 45  1  0
 16 46  1  0
 17 47  1  0
 18 48  1  0
 19 49  1  0
 24 50  1  0
 24 51  1  0
 25 52  1  0
 26 53  1  0
 26 54  1  0
 27 55  1  0
 27 56  1  0
 28 57  1  0
 28 58  1  0
 29 59  1  0
 29 60  1  0
 30 61  1  0
 30 62  1  0
 31 63  1  0
 32 64  1  0
 32 65  1  0
 33 66  1  0
 33 67  1  0
M  END
>  <smiles>  (41) 
CN1CCN(c2cccc(/C=C/c3nc4ccccc4c(=O)n3CC3CCCCC3)c2)CC1

>  <score_type>  (41) 
oracle

>  <origin>  (41) 
autodockgpu

>  <m_score__min__energy>  (41) 
-9.1300000000000008

>  <m_primary>  (41) 
energy

>  <rmsd>  (41) 
9.767590533121407

>  <m_score__min__rmsd>  (41) 
9.767590533121407

>  <meeko>  (41) 
{"free_energy": -8.56, "intermolecular_energy": -10.35, "internal_energy": -1.78, "cluster_size": 5, "cluster_id": 3, "rank_in_cluster": 4}

>  <energy>  (41) 
-8.57

>  <cluster_rmsd>  (41) 
0.68

>  <cluster>  (41) 
5

$$$$

     RDKit          3D

 67 71  0  0  0  0  0  0  0  0999 V2000
  145.5630   70.8220  219.0380 C   0  0  0  0  0  0  0  0  0  0  0  0
  145.9040   72.2200  219.1920 N   0  0  0  0  0  0  0  0  0  0  0  0
  145.7090   72.6940  220.5340 C   0  0  0  0  0  0  0  0  0  0  0  0
  145.1840   74.1130  220.6010 C   0  0  0  0  0  0  0  0  0  0  0  0
  143.9430   74.1460  219.8580 N   0  0  0  0  0  0  0  0  0  0  0  0
  142.7250   74.6510  220.3360 C   0  0  0  0  0  0  0  0  0  0  0  0
  142.3200   75.9570  220.0980 C   0  0  0  0  0  0  0  0  0  0  0  0
  141.1140   76.4510  220.5750 C   0  0  0  0  0  0  0  0  0  0  0  0
  140.3080   75.5910  221.3100 C   0  0  0  0  0  0  0  0  0  0  0  0
  140.6630   74.2850  221.5760 C   0  0  0  0  0  0  0  0  0  0  0  0
  139.8460   73.3630  222.3390 C   0  0  0  0  0  0  0  0  0  0  0  0
  139.9200   72.0450  222.2460 C   0  0  0  0  0  0  0  0  0  0  0  0
  139.7340   71.1880  223.4330 C   0  0  0  0  0  0  0  0  0  0  0  0
  140.4210   71.6010  224.5320 N   0  0  0  0  0  0  0  0  0  0  0  0
  140.4040   70.9150  225.6860 C   0  0  0  0  0  0  0  0  0  0  0  0
  141.0830   71.3050  226.8070 C   0  0  0  0  0  0  0  0  0  0  0  0
  141.0520   70.5730  227.9960 C   0  0  0  0  0  0  0  0  0  0  0  0
  140.2970   69.4160  228.0160 C   0  0  0  0  0  0  0  0  0  0  0  0
  139.6260   69.0460  226.8850 C   0  0  0  0  0  0  0  0  0  0  0  0
  139.6590   69.7690  225.7130 C   0  0  0  0  0  0  0  0  0  0  0  0
  138.9650   69.3650  224.5830 C   0  0  0  0  0  0  0  0  0  0  0  0
  138.3150   68.2950  224.7100 O   0  0  0  0  0  0  0  0  0  0  0  0
  138.9870   70.0700  223.4170 N   0  0  0  0  0  0  0  0  0  0  0  0
  138.2780   69.6830  222.2410 C   0  0  0  0  0  0  0  0  0  0  0  0
  138.8380   68.5950  221.3990 C   0  0  0  0  0  0  0  0  0  0  0  0
  140.2330   68.8120  220.8740 C   0  0  0  0  0  0  0  0  0  0  0  0
  140.3360   67.9940  219.5650 C   0  0  0  0  0  0  0  0  0  0  0  0
  139.6750   66.6830  219.7820 C   0  0  0  0  0  0  0  0  0  0  0  0
  139.6290   66.2520  221.2100 C   0  0  0  0  0  0  0  0  0  0  0  0
  138.8720   67.2350  222.0830 C   0  0  0  0  0  0  0  0  0  0  0  0
  141.8800   73.8660  221.0670 C   0  0  0  0  0  0  0  0  0  0  0  0
  143.9920   73.6030  218.5020 C   0  0  0  0  0  0  0  0  0  0  0  0
  145.3620   73.0650  218.1670 C   0  0  0  0  0  0  0  0  0  0  0  0
  145.4505   70.3606  220.0302 H   0  0  0  0  0  0  0  0  0  0  0  0
  144.6171   70.7342  218.4834 H   0  0  0  0  0  0  0  0  0  0  0  0
  146.3622   70.3086  218.4834 H   0  0  0  0  0  0  0  0  0  0  0  0
  144.9886   72.0317  221.0364 H   0  0  0  0  0  0  0  0  0  0  0  0
  146.6927   72.6884  221.0262 H   0  0  0  0  0  0  0  0  0  0  0  0
  145.0042   74.3992  221.6478 H   0  0  0  0  0  0  0  0  0  0  0  0
  145.9124   74.8191  220.1757 H   0  0  0  0  0  0  0  0  0  0  0  0
  142.9746   76.6205  219.5138 H   0  0  0  0  0  0  0  0  0  0  0  0
  140.8067   77.4886  220.3777 H   0  0  0  0  0  0  0  0  0  0  0  0
  139.3485   75.9664  221.6952 H   0  0  0  0  0  0  0  0  0  0  0  0
  139.1150   73.7873  223.0430 H   0  0  0  0  0  0  0  0  0  0  0  0
  140.1232   71.5813  221.2694 H   0  0  0  0  0  0  0  0  0  0  0  0
  141.6763   72.2306  226.7709 H   0  0  0  0  0  0  0  0  0  0  0  0
  141.6086   70.9056  228.8846 H   0  0  0  0  0  0  0  0  0  0  0  0
  140.2372   68.8030  228.9274 H   0  0  0  0  0  0  0  0  0  0  0  0
  139.0284   68.1229  226.9116 H   0  0  0  0  0  0  0  0  0  0  0  0
  137.2742   69.3638  222.5579 H   0  0  0  0  0  0  0  0  0  0  0  0
  138.3237   70.5724  221.5953 H   0  0  0  0  0  0  0  0  0  0  0  0
  138.1227   68.6158  220.5635 H   0  0  0  0  0  0  0  0  0  0  0  0
  140.4015   69.8797  220.6702 H   0  0  0  0  0  0  0  0  0  0  0  0
  140.9899   68.4929  221.6057 H   0  0  0  0  0  0  0  0  0  0  0  0
  139.8334   68.5335  218.7487 H   0  0  0  0  0  0  0  0  0  0  0  0
  141.3914   67.8460  219.2924 H   0  0  0  0  0  0  0  0  0  0  0  0
  138.6426   66.7507  219.4083 H   0  0  0  0  0  0  0  0  0  0  0  0
  140.2737   65.9333  219.2439 H   0  0  0  0  0  0  0  0  0  0  0  0
  139.1327   65.2720  221.2681 H   0  0  0  0  0  0  0  0  0  0  0  0
  140.6637   66.2003  221.5799 H   0  0  0  0  0  0  0  0  0  0  0  0
  137.8439   66.8747  222.2352 H   0  0  0  0  0  0  0  0  0  0  0  0
  139.3753   67.3255  223.0569 H   0  0  0  0  0  0  0  0  0  0  0  0
  142.1879   72.8287  221.2651 H   0  0  0  0  0  0  0  0  0  0  0  0
  143.2581   72.7880  218.4173 H   0  0  0  0  0  0  0  0  0  0  0  0
  143.7603   74.4157  217.7978 H   0  0  0  0  0  0  0  0  0  0  0  0
  145.2911   72.4836  217.2359 H   0  0  0  0  0  0  0  0  0  0  0  0
  146.0360   73.9283  218.0650 H   0  0  0  0  0  0  0  0  0  0  0  0
  1  2  1  0
  2  3  1  0
  3  4  1  0
  4  5  1  0
  5  6  1  0
  6  7  2  0
  7  8  1  0
  8  9  2  0
  9 10  1  0
 10 11  1  0
 11 12  2  0
 12 13  1  0
 13 14  2  0
 14 15  1  0
 15 16  2  0
 16 17  1  0
 17 18  2  0
 18 19  1  0
 19 20  2  0
 20 21  1  0
 21 22  2  0
 21 23  1  0
 23 24  1  0
 24 25  1  0
 25 26  1  0
 26 27  1  0
 27 28  1  0
 28 29  1  0
 29 30  1  0
 10 31  2  0
  5 32  1  0
 32 33  1  0
 33  2  1  0
 31  6  1  0
 23 13  1  0
 30 25  1  0
 20 15  1  0
  1 34  1  0
  1 35  1  0
  1 36  1  0
  3 37  1  0
  3 38  1  0
  4 39  1  0
  4 40  1  0
  7 41  1  0
  8 42  1  0
  9 43  1  0
 11 44  1  0
 12 45  1  0
 16 46  1  0
 17 47  1  0
 18 48  1  0
 19 49  1  0
 24 50  1  0
 24 51  1  0
 25 52  1  0
 26 53  1  0
 26 54  1  0
 27 55  1  0
 27 56  1  0
 28 57  1  0
 28 58  1  0
 29 59  1  0
 29 60  1  0
 30 61  1  0
 30 62  1  0
 31 63  1  0
 32 64  1  0
 32 65  1  0
 33 66  1  0
 33 67  1  0
M  END
>  <smiles>  (42) 
CN1CCN(c2cccc(/C=C/c3nc4ccccc4c(=O)n3CC3CCCCC3)c2)CC1

>  <score_type>  (42) 
oracle

>  <origin>  (42) 
autodockgpu

>  <m_score__min__energy>  (42) 
-9.1300000000000008

>  <m_primary>  (42) 
energy

>  <rmsd>  (42) 
6.715620374588207

>  <m_score__min__rmsd>  (42) 
6.715620374588207

>  <meeko>  (42) 
{"free_energy": -8.64, "intermolecular_energy": -10.43, "internal_energy": -1.6, "cluster_size": 9, "cluster_id": 1, "rank_in_cluster": 8}

>  <energy>  (42) 
-8.46

>  <cluster_rmsd>  (42) 
0.38

>  <cluster>  (42) 
5

$$$$

     RDKit          3D

 67 71  0  0  0  0  0  0  0  0999 V2000
  142.9900   80.4350  223.4360 C   0  0  0  0  0  0  0  0  0  0  0  0
  141.6570   80.1530  222.9490 N   0  0  0  0  0  0  0  0  0  0  0  0
  141.0430   79.0430  223.6220 C   0  0  0  0  0  0  0  0  0  0  0  0
  140.1970   78.1780  222.7100 C   0  0  0  0  0  0  0  0  0  0  0  0
  141.0550   77.7200  221.6390 N   0  0  0  0  0  0  0  0  0  0  0  0
  141.2090   76.3850  221.2390 C   0  0  0  0  0  0  0  0  0  0  0  0
  142.0080   76.0210  220.1640 C   0  0  0  0  0  0  0  0  0  0  0  0
  142.1560   74.6980  219.7730 C   0  0  0  0  0  0  0  0  0  0  0  0
  141.4720   73.7290  220.4970 C   0  0  0  0  0  0  0  0  0  0  0  0
  140.6650   74.0370  221.5730 C   0  0  0  0  0  0  0  0  0  0  0  0
  139.9380   73.0500  222.3480 C   0  0  0  0  0  0  0  0  0  0  0  0
  140.2150   71.7570  222.3590 C   0  0  0  0  0  0  0  0  0  0  0  0
  140.0990   70.9650  223.6000 C   0  0  0  0  0  0  0  0  0  0  0  0
  140.5900   71.5880  224.7050 N   0  0  0  0  0  0  0  0  0  0  0  0
  140.6090   70.9970  225.9100 C   0  0  0  0  0  0  0  0  0  0  0  0
  141.0940   71.5970  227.0390 C   0  0  0  0  0  0  0  0  0  0  0  0
  141.1050   70.9610  228.2820 C   0  0  0  0  0  0  0  0  0  0  0  0
  140.5970   69.6780  228.3490 C   0  0  0  0  0  0  0  0  0  0  0  0
  140.1170   69.0980  227.2090 C   0  0  0  0  0  0  0  0  0  0  0  0
  140.1090   69.7280  225.9830 C   0  0  0  0  0  0  0  0  0  0  0  0
  139.6120   69.1090  224.8460 C   0  0  0  0  0  0  0  0  0  0  0  0
  139.1810   67.9400  225.0190 O   0  0  0  0  0  0  0  0  0  0  0  0
  139.5960   69.7200  223.6270 N   0  0  0  0  0  0  0  0  0  0  0  0
  139.0850   69.1120  222.4420 C   0  0  0  0  0  0  0  0  0  0  0  0
  137.6420   68.7650  222.3870 C   0  0  0  0  0  0  0  0  0  0  0  0
  136.6990   69.7290  223.0580 C   0  0  0  0  0  0  0  0  0  0  0  0
  135.4620   68.9020  223.4800 C   0  0  0  0  0  0  0  0  0  0  0  0
  135.1230   67.9720  222.3750 C   0  0  0  0  0  0  0  0  0  0  0  0
  135.5920   68.4250  221.0320 C   0  0  0  0  0  0  0  0  0  0  0  0
  137.0990   68.5890  220.9740 C   0  0  0  0  0  0  0  0  0  0  0  0
  140.5690   75.3770  221.9020 C   0  0  0  0  0  0  0  0  0  0  0  0
  141.8080   78.7550  220.9330 C   0  0  0  0  0  0  0  0  0  0  0  0
  141.5580   80.1230  221.5170 C   0  0  0  0  0  0  0  0  0  0  0  0
  142.9863   80.4342  224.5360 H   0  0  0  0  0  0  0  0  0  0  0  0
  143.6844   79.6639  223.0711 H   0  0  0  0  0  0  0  0  0  0  0  0
  143.3127   81.4213  223.0711 H   0  0  0  0  0  0  0  0  0  0  0  0
  141.8361   78.4179  224.0580 H   0  0  0  0  0  0  0  0  0  0  0  0
  140.3722   79.4591  224.3881 H   0  0  0  0  0  0  0  0  0  0  0  0
  139.7993   77.3178  223.2685 H   0  0  0  0  0  0  0  0  0  0  0  0
  139.3445   78.7475  222.3114 H   0  0  0  0  0  0  0  0  0  0  0  0
  142.5399   76.8051  219.6052 H   0  0  0  0  0  0  0  0  0  0  0  0
  142.7932   74.4254  218.9188 H   0  0  0  0  0  0  0  0  0  0  0  0
  141.5781   72.6750  220.2007 H   0  0  0  0  0  0  0  0  0  0  0  0
  139.0999   73.4005  222.9683 H   0  0  0  0  0  0  0  0  0  0  0  0
  140.5366   71.2640  221.4298 H   0  0  0  0  0  0  0  0  0  0  0  0
  141.4908   72.6203  226.9651 H   0  0  0  0  0  0  0  0  0  0  0  0
  141.5038   71.4634  229.1756 H   0  0  0  0  0  0  0  0  0  0  0  0
  140.5793   69.1327  229.3041 H   0  0  0  0  0  0  0  0  0  0  0  0
  139.7163   68.0756  227.2728 H   0  0  0  0  0  0  0  0  0  0  0  0
  139.2841   69.8042  221.6106 H   0  0  0  0  0  0  0  0  0  0  0  0
  139.5968   68.1394  222.3973 H   0  0  0  0  0  0  0  0  0  0  0  0
  137.6555   67.8162  222.9435 H   0  0  0  0  0  0  0  0  0  0  0  0
  137.1772   70.1772  223.9414 H   0  0  0  0  0  0  0  0  0  0  0  0
  136.4194   70.5509  222.3826 H   0  0  0  0  0  0  0  0  0  0  0  0
  135.6908   68.3293  224.3909 H   0  0  0  0  0  0  0  0  0  0  0  0
  134.6127   69.5699  223.6866 H   0  0  0  0  0  0  0  0  0  0  0  0
  135.5834   66.9966  222.5908 H   0  0  0  0  0  0  0  0  0  0  0  0
  134.0251   67.9222  222.3276 H   0  0  0  0  0  0  0  0  0  0  0  0
  135.2880   67.6806  220.2814 H   0  0  0  0  0  0  0  0  0  0  0  0
  135.1385   69.4067  220.8305 H   0  0  0  0  0  0  0  0  0  0  0  0
  137.5484   67.6953  220.5165 H   0  0  0  0  0  0  0  0  0  0  0  0
  137.3501   69.4735  220.3703 H   0  0  0  0  0  0  0  0  0  0  0  0
  139.9330   75.6498  222.7570 H   0  0  0  0  0  0  0  0  0  0  0  0
  142.8817   78.5270  221.0058 H   0  0  0  0  0  0  0  0  0  0  0  0
  141.4773   78.7643  219.8839 H   0  0  0  0  0  0  0  0  0  0  0  0
  142.2986   80.8216  221.1006 H   0  0  0  0  0  0  0  0  0  0  0  0
  140.5284   80.4076  221.2543 H   0  0  0  0  0  0  0  0  0  0  0  0
  1  2  1  0
  2  3  1  0
  3  4  1  0
  4  5  1  0
  5  6  1  0
  6  7  2  0
  7  8  1  0
  8  9  2  0
  9 10  1  0
 10 11  1  0
 11 12  2  0
 12 13  1  0
 13 14  2  0
 14 15  1  0
 15 16  2  0
 16 17  1  0
 17 18  2  0
 18 19  1  0
 19 20  2  0
 20 21  1  0
 21 22  2  0
 21 23  1  0
 23 24  1  0
 24 25  1  0
 25 26  1  0
 26 27  1  0
 27 28  1  0
 28 29  1  0
 29 30  1  0
 10 31  2  0
  5 32  1  0
 32 33  1  0
 33  2  1  0
 31  6  1  0
 23 13  1  0
 30 25  1  0
 20 15  1  0
  1 34  1  0
  1 35  1  0
  1 36  1  0
  3 37  1  0
  3 38  1  0
  4 39  1  0
  4 40  1  0
  7 41  1  0
  8 42  1  0
  9 43  1  0
 11 44  1  0
 12 45  1  0
 16 46  1  0
 17 47  1  0
 18 48  1  0
 19 49  1  0
 24 50  1  0
 24 51  1  0
 25 52  1  0
 26 53  1  0
 26 54  1  0
 27 55  1  0
 27 56  1  0
 28 57  1  0
 28 58  1  0
 29 59  1  0
 29 60  1  0
 30 61  1  0
 30 62  1  0
 31 63  1  0
 32 64  1  0
 32 65  1  0
 33 66  1  0
 33 67  1  0
M  END
>  <smiles>  (43) 
CN1CCN(c2cccc(/C=C/c3nc4ccccc4c(=O)n3CC3CCCCC3)c2)CC1

>  <score_type>  (43) 
oracle

>  <origin>  (43) 
autodockgpu

>  <m_score__min__energy>  (43) 
-9.1300000000000008

>  <m_primary>  (43) 
energy

>  <rmsd>  (43) 
6.868869251642871

>  <m_score__min__rmsd>  (43) 
6.868869251642871

>  <meeko>  (43) 
{"free_energy": -8.91, "intermolecular_energy": -10.7, "internal_energy": -1.52, "cluster_size": 21, "cluster_id": 2, "rank_in_cluster": 4}

>  <energy>  (43) 
-8.6

>  <cluster_rmsd>  (43) 
0.0

>  <cluster>  (43) 
6

$$$$

     RDKit          3D

 67 71  0  0  0  0  0  0  0  0999 V2000
  146.5930   73.3690  221.7530 C   0  0  0  0  0  0  0  0  0  0  0  0
  145.8710   73.5690  220.5150 N   0  0  0  0  0  0  0  0  0  0  0  0
  145.1640   74.8180  220.4800 C   0  0  0  0  0  0  0  0  0  0  0  0
  143.8220   74.7310  219.7830 C   0  0  0  0  0  0  0  0  0  0  0  0
  143.0470   73.7200  220.4690 N   0  0  0  0  0  0  0  0  0  0  0  0
  141.7450   73.8920  220.9610 C   0  0  0  0  0  0  0  0  0  0  0  0
  141.2190   75.1440  221.2430 C   0  0  0  0  0  0  0  0  0  0  0  0
  139.9300   75.3080  221.7310 C   0  0  0  0  0  0  0  0  0  0  0  0
  139.1660   74.1650  221.9330 C   0  0  0  0  0  0  0  0  0  0  0  0
  139.6400   72.8970  221.6690 C   0  0  0  0  0  0  0  0  0  0  0  0
  138.8690   71.6860  221.8690 C   0  0  0  0  0  0  0  0  0  0  0  0
  139.3930   70.5050  222.1560 C   0  0  0  0  0  0  0  0  0  0  0  0
  139.5340   70.0560  223.5550 C   0  0  0  0  0  0  0  0  0  0  0  0
  140.0680   70.9900  224.3880 N   0  0  0  0  0  0  0  0  0  0  0  0
  140.3100   70.7370  225.6840 C   0  0  0  0  0  0  0  0  0  0  0  0
  140.8440   71.6540  226.5460 C   0  0  0  0  0  0  0  0  0  0  0  0
  141.0890   71.3670  227.8900 C   0  0  0  0  0  0  0  0  0  0  0  0
  140.7690   70.1020  228.3440 C   0  0  0  0  0  0  0  0  0  0  0  0
  140.2350   69.2010  227.4650 C   0  0  0  0  0  0  0  0  0  0  0  0
  139.9960   69.4870  226.1390 C   0  0  0  0  0  0  0  0  0  0  0  0
  139.4520   68.5490  225.2750 C   0  0  0  0  0  0  0  0  0  0  0  0
  139.2040   67.4290  225.7900 O   0  0  0  0  0  0  0  0  0  0  0  0
  139.2080   68.8170  223.9610 N   0  0  0  0  0  0  0  0  0  0  0  0
  138.6430   67.8760  223.0500 C   0  0  0  0  0  0  0  0  0  0  0  0
  137.3110   68.1680  222.4600 C   0  0  0  0  0  0  0  0  0  0  0  0
  136.5380   66.9830  221.9430 C   0  0  0  0  0  0  0  0  0  0  0  0
  135.6100   67.5240  220.8300 C   0  0  0  0  0  0  0  0  0  0  0  0
  135.0350   68.8130  221.2870 C   0  0  0  0  0  0  0  0  0  0  0  0
  134.9820   68.9640  222.7710 C   0  0  0  0  0  0  0  0  0  0  0  0
  136.3580   68.8870  223.4070 C   0  0  0  0  0  0  0  0  0  0  0  0
  140.9340   72.8160  221.1850 C   0  0  0  0  0  0  0  0  0  0  0  0
  143.6990   72.4240  220.6490 C   0  0  0  0  0  0  0  0  0  0  0  0
  145.1050   72.4280  220.1010 C   0  0  0  0  0  0  0  0  0  0  0  0
  145.9209   73.5552  222.6036 H   0  0  0  0  0  0  0  0  0  0  0  0
  146.9637   72.3343  221.7982 H   0  0  0  0  0  0  0  0  0  0  0  0
  147.4432   74.0654  221.7982 H   0  0  0  0  0  0  0  0  0  0  0  0
  144.9985   75.1539  221.5143 H   0  0  0  0  0  0  0  0  0  0  0  0
  145.7821   75.5247  219.9068 H   0  0  0  0  0  0  0  0  0  0  0  0
  143.3064   75.7012  219.8361 H   0  0  0  0  0  0  0  0  0  0  0  0
  143.9499   74.4710  218.7218 H   0  0  0  0  0  0  0  0  0  0  0  0
  141.8426   76.0344  221.0747 H   0  0  0  0  0  0  0  0  0  0  0  0
  139.5273   76.3079  221.9502 H   0  0  0  0  0  0  0  0  0  0  0  0
  138.1419   74.2760  222.3190 H   0  0  0  0  0  0  0  0  0  0  0  0
  137.7750   71.7530  221.7760 H   0  0  0  0  0  0  0  0  0  0  0  0
  139.7284   69.8483  221.3398 H   0  0  0  0  0  0  0  0  0  0  0  0
  141.0900   72.6565  226.1659 H   0  0  0  0  0  0  0  0  0  0  0  0
  141.5215   72.1213  228.5637 H   0  0  0  0  0  0  0  0  0  0  0  0
  140.9408   69.8245  229.3944 H   0  0  0  0  0  0  0  0  0  0  0  0
  139.9834   68.1964  227.8358 H   0  0  0  0  0  0  0  0  0  0  0  0
  139.3508   67.7682  222.2149 H   0  0  0  0  0  0  0  0  0  0  0  0
  138.4736   66.9783  223.6628 H   0  0  0  0  0  0  0  0  0  0  0  0
  137.6133   68.8065  221.6168 H   0  0  0  0  0  0  0  0  0  0  0  0
  137.2257   66.2289  221.5327 H   0  0  0  0  0  0  0  0  0  0  0  0
  135.9613   66.5001  222.7456 H   0  0  0  0  0  0  0  0  0  0  0  0
  136.1883   67.6812  219.9076 H   0  0  0  0  0  0  0  0  0  0  0  0
  134.8056   66.8026  220.6240 H   0  0  0  0  0  0  0  0  0  0  0  0
  135.6486   69.6293  220.8783 H   0  0  0  0  0  0  0  0  0  0  0  0
  133.9958   68.8422  220.9276 H   0  0  0  0  0  0  0  0  0  0  0  0
  134.5351   69.9399  223.0116 H   0  0  0  0  0  0  0  0  0  0  0  0
  134.3788   68.1363  223.1723 H   0  0  0  0  0  0  0  0  0  0  0  0
  136.7305   69.9036  223.6012 H   0  0  0  0  0  0  0  0  0  0  0  0
  136.2949   68.3344  224.3560 H   0  0  0  0  0  0  0  0  0  0  0  0
  141.3371   71.8163  220.9656 H   0  0  0  0  0  0  0  0  0  0  0  0
  143.7352   72.1889  221.7230 H   0  0  0  0  0  0  0  0  0  0  0  0
  143.1183   71.6678  220.1004 H   0  0  0  0  0  0  0  0  0  0  0  0
  145.6177   71.5186  220.4475 H   0  0  0  0  0  0  0  0  0  0  0  0
  145.0278   72.4671  219.0044 H   0  0  0  0  0  0  0  0  0  0  0  0
  1  2  1  0
  2  3  1  0
  3  4  1  0
  4  5  1  0
  5  6  1  0
  6  7  2  0
  7  8  1  0
  8  9  2  0
  9 10  1  0
 10 11  1  0
 11 12  2  0
 12 13  1  0
 13 14  2  0
 14 15  1  0
 15 16  2  0
 16 17  1  0
 17 18  2  0
 18 19  1  0
 19 20  2  0
 20 21  1  0
 21 22  2  0
 21 23  1  0
 23 24  1  0
 24 25  1  0
 25 26  1  0
 26 27  1  0
 27 28  1  0
 28 29  1  0
 29 30  1  0
 10 31  2  0
  5 32  1  0
 32 33  1  0
 33  2  1  0
 31  6  1  0
 23 13  1  0
 30 25  1  0
 20 15  1  0
  1 34  1  0
  1 35  1  0
  1 36  1  0
  3 37  1  0
  3 38  1  0
  4 39  1  0
  4 40  1  0
  7 41  1  0
  8 42  1  0
  9 43  1  0
 11 44  1  0
 12 45  1  0
 16 46  1  0
 17 47  1  0
 18 48  1  0
 19 49  1  0
 24 50  1  0
 24 51  1  0
 25 52  1  0
 26 53  1  0
 26 54  1  0
 27 55  1  0
 27 56  1  0
 28 57  1  0
 28 58  1  0
 29 59  1  0
 29 60  1  0
 30 61  1  0
 30 62  1  0
 31 63  1  0
 32 64  1  0
 32 65  1  0
 33 66  1  0
 33 67  1  0
M  END
>  <smiles>  (44) 
CN1CCN(c2cccc(/C=C/c3nc4ccccc4c(=O)n3CC3CCCCC3)c2)CC1

>  <score_type>  (44) 
oracle

>  <origin>  (44) 
autodockgpu

>  <m_score__min__energy>  (44) 
-9.1300000000000008

>  <m_primary>  (44) 
energy

>  <rmsd>  (44) 
7.325496688258377

>  <m_score__min__rmsd>  (44) 
7.325496688258377

>  <meeko>  (44) 
{"free_energy": -8.63, "intermolecular_energy": -10.42, "internal_energy": -1.76, "cluster_size": 9, "cluster_id": 1, "rank_in_cluster": 9}

>  <energy>  (44) 
-7.71

>  <cluster_rmsd>  (44) 
0.0

>  <cluster>  (44) 
7

$$$$

     RDKit          3D

 67 71  0  0  0  0  0  0  0  0999 V2000
  131.3730   73.2820  226.9700 C   0  0  0  0  0  0  0  0  0  0  0  0
  132.7880   73.5350  227.1400 N   0  0  0  0  0  0  0  0  0  0  0  0
  133.2860   74.5310  226.2330 C   0  0  0  0  0  0  0  0  0  0  0  0
  134.6830   74.2370  225.7250 C   0  0  0  0  0  0  0  0  0  0  0  0
  134.6440   72.9370  225.0920 N   0  0  0  0  0  0  0  0  0  0  0  0
  135.1080   72.6510  223.7990 C   0  0  0  0  0  0  0  0  0  0  0  0
  134.2470   72.3710  222.7480 C   0  0  0  0  0  0  0  0  0  0  0  0
  134.7130   72.0880  221.4720 C   0  0  0  0  0  0  0  0  0  0  0  0
  136.0880   72.0910  221.2700 C   0  0  0  0  0  0  0  0  0  0  0  0
  136.9870   72.3620  222.2800 C   0  0  0  0  0  0  0  0  0  0  0  0
  138.4260   72.3730  222.1020 C   0  0  0  0  0  0  0  0  0  0  0  0
  139.2130   71.3310  222.3150 C   0  0  0  0  0  0  0  0  0  0  0  0
  139.3600   70.7530  223.6650 C   0  0  0  0  0  0  0  0  0  0  0  0
  140.0740   71.5260  224.5270 N   0  0  0  0  0  0  0  0  0  0  0  0
  140.3450   71.1350  225.7820 C   0  0  0  0  0  0  0  0  0  0  0  0
  141.0600   71.8890  226.6720 C   0  0  0  0  0  0  0  0  0  0  0  0
  141.3300   71.4590  227.9720 C   0  0  0  0  0  0  0  0  0  0  0  0
  140.8460   70.2230  228.3530 C   0  0  0  0  0  0  0  0  0  0  0  0
  140.1340   69.4870  227.4480 C   0  0  0  0  0  0  0  0  0  0  0  0
  139.8690   69.9120  226.1650 C   0  0  0  0  0  0  0  0  0  0  0  0
  139.1420   69.1390  225.2730 C   0  0  0  0  0  0  0  0  0  0  0  0
  138.7540   68.0300  225.7200 O   0  0  0  0  0  0  0  0  0  0  0  0
  138.8700   69.5470  224.0010 N   0  0  0  0  0  0  0  0  0  0  0  0
  138.1190   68.7780  223.0630 C   0  0  0  0  0  0  0  0  0  0  0  0
  136.6580   68.6200  223.2810 C   0  0  0  0  0  0  0  0  0  0  0  0
  136.0330   69.5480  224.2900 C   0  0  0  0  0  0  0  0  0  0  0  0
  134.7920   68.8100  224.8460 C   0  0  0  0  0  0  0  0  0  0  0  0
  134.0970   68.1480  223.7150 C   0  0  0  0  0  0  0  0  0  0  0  0
  134.3500   68.7830  222.3880 C   0  0  0  0  0  0  0  0  0  0  0  0
  135.8210   68.7750  222.0180 C   0  0  0  0  0  0  0  0  0  0  0  0
  136.4450   72.6350  223.5240 C   0  0  0  0  0  0  0  0  0  0  0  0
  134.0690   71.8530  225.8860 C   0  0  0  0  0  0  0  0  0  0  0  0
  133.5830   72.3430  227.2270 C   0  0  0  0  0  0  0  0  0  0  0  0
  130.8947   73.1965  227.9569 H   0  0  0  0  0  0  0  0  0  0  0  0
  130.9164   74.1127  226.4120 H   0  0  0  0  0  0  0  0  0  0  0  0
  131.2326   72.3445  226.4120 H   0  0  0  0  0  0  0  0  0  0  0  0
  132.6060   74.5882  225.3702 H   0  0  0  0  0  0  0  0  0  0  0  0
  133.3348   75.4799  226.7873 H   0  0  0  0  0  0  0  0  0  0  0  0
  134.9875   75.0021  224.9957 H   0  0  0  0  0  0  0  0  0  0  0  0
  135.4088   74.2469  226.5515 H   0  0  0  0  0  0  0  0  0  0  0  0
  133.1624   72.3734  222.9316 H   0  0  0  0  0  0  0  0  0  0  0  0
  134.0177   71.8687  220.6483 H   0  0  0  0  0  0  0  0  0  0  0  0
  136.4746   71.8684  220.2645 H   0  0  0  0  0  0  0  0  0  0  0  0
  138.8946   73.3103  221.7675 H   0  0  0  0  0  0  0  0  0  0  0  0
  139.7661   70.8888  221.4732 H   0  0  0  0  0  0  0  0  0  0  0  0
  141.4363   72.8714  226.3507 H   0  0  0  0  0  0  0  0  0  0  0  0
  141.9084   72.0831  228.6691 H   0  0  0  0  0  0  0  0  0  0  0  0
  141.0302   69.8378  229.3667 H   0  0  0  0  0  0  0  0  0  0  0  0
  139.7526   68.5037  227.7606 H   0  0  0  0  0  0  0  0  0  0  0  0
  138.2508   69.2493  222.0779 H   0  0  0  0  0  0  0  0  0  0  0  0
  138.5181   67.7587  223.1711 H   0  0  0  0  0  0  0  0  0  0  0  0
  136.6342   67.5892  223.6641 H   0  0  0  0  0  0  0  0  0  0  0  0
  136.7438   69.7632  225.1015 H   0  0  0  0  0  0  0  0  0  0  0  0
  135.7557   70.5090  223.8323 H   0  0  0  0  0  0  0  0  0  0  0  0
  135.1069   68.0554  225.5818 H   0  0  0  0  0  0  0  0  0  0  0  0
  134.1165   69.5242  225.3396 H   0  0  0  0  0  0  0  0  0  0  0  0
  134.4340   67.1020  223.6672 H   0  0  0  0  0  0  0  0  0  0  0  0
  133.0181   68.2385  223.9092 H   0  0  0  0  0  0  0  0  0  0  0  0
  133.7887   68.2318  221.6191 H   0  0  0  0  0  0  0  0  0  0  0  0
  134.0236   69.8317  222.4487 H   0  0  0  0  0  0  0  0  0  0  0  0
  136.0240   67.9349  221.3375 H   0  0  0  0  0  0  0  0  0  0  0  0
  136.0800   69.7202  221.5185 H   0  0  0  0  0  0  0  0  0  0  0  0
  137.1398   72.8543  224.3481 H   0  0  0  0  0  0  0  0  0  0  0  0
  133.2210   71.4189  225.3360 H   0  0  0  0  0  0  0  0  0  0  0  0
  134.8526   71.1005  226.0585 H   0  0  0  0  0  0  0  0  0  0  0  0
  132.9757   71.5509  227.6894 H   0  0  0  0  0  0  0  0  0  0  0  0
  134.4719   72.5864  227.8275 H   0  0  0  0  0  0  0  0  0  0  0  0
  1  2  1  0
  2  3  1  0
  3  4  1  0
  4  5  1  0
  5  6  1  0
  6  7  2  0
  7  8  1  0
  8  9  2  0
  9 10  1  0
 10 11  1  0
 11 12  2  0
 12 13  1  0
 13 14  2  0
 14 15  1  0
 15 16  2  0
 16 17  1  0
 17 18  2  0
 18 19  1  0
 19 20  2  0
 20 21  1  0
 21 22  2  0
 21 23  1  0
 23 24  1  0
 24 25  1  0
 25 26  1  0
 26 27  1  0
 27 28  1  0
 28 29  1  0
 29 30  1  0
 10 31  2  0
  5 32  1  0
 32 33  1  0
 33  2  1  0
 31  6  1  0
 23 13  1  0
 30 25  1  0
 20 15  1  0
  1 34  1  0
  1 35  1  0
  1 36  1  0
  3 37  1  0
  3 38  1  0
  4 39  1  0
  4 40  1  0
  7 41  1  0
  8 42  1  0
  9 43  1  0
 11 44  1  0
 12 45  1  0
 16 46  1  0
 17 47  1  0
 18 48  1  0
 19 49  1  0
 24 50  1  0
 24 51  1  0
 25 52  1  0
 26 53  1  0
 26 54  1  0
 27 55  1  0
 27 56  1  0
 28 57  1  0
 28 58  1  0
 29 59  1  0
 29 60  1  0
 30 61  1  0
 30 62  1  0
 31 63  1  0
 32 64  1  0
 32 65  1  0
 33 66  1  0
 33 67  1  0
M  END
>  <smiles>  (45) 
CN1CCN(c2cccc(/C=C/c3nc4ccccc4c(=O)n3CC3CCCCC3)c2)CC1

>  <score_type>  (45) 
oracle

>  <origin>  (45) 
autodockgpu

>  <m_score__min__energy>  (45) 
-9.1300000000000008

>  <m_primary>  (45) 
energy

>  <rmsd>  (45) 
10.05845502327614

>  <m_score__min__rmsd>  (45) 
10.05845502327614

>  <meeko>  (45) 
{"free_energy": -7.43, "intermolecular_energy": -9.22, "internal_energy": -3.11, "cluster_size": 6, "cluster_id": 8, "rank_in_cluster": 3}

>  <energy>  (45) 
-7.66

>  <cluster_rmsd>  (45) 
0.0

>  <cluster>  (45) 
8

$$$$

     RDKit          3D

 67 71  0  0  0  0  0  0  0  0999 V2000
  142.9940   80.2770  223.1760 C   0  0  0  0  0  0  0  0  0  0  0  0
  141.6600   79.9360  222.7320 N   0  0  0  0  0  0  0  0  0  0  0  0
  141.0820   78.8600  223.4890 C   0  0  0  0  0  0  0  0  0  0  0  0
  140.2410   77.9190  222.6510 C   0  0  0  0  0  0  0  0  0  0  0  0
  141.0890   77.4090  221.5970 N   0  0  0  0  0  0  0  0  0  0  0  0
  141.2670   76.0540  221.2830 C   0  0  0  0  0  0  0  0  0  0  0  0
  142.2350   75.6220  220.3880 C   0  0  0  0  0  0  0  0  0  0  0  0
  142.4050   74.2790  220.0800 C   0  0  0  0  0  0  0  0  0  0  0  0
  141.5660   73.3620  220.7030 C   0  0  0  0  0  0  0  0  0  0  0  0
  140.5880   73.7390  221.5990 C   0  0  0  0  0  0  0  0  0  0  0  0
  139.6970   72.8080  222.2650 C   0  0  0  0  0  0  0  0  0  0  0  0
  139.8760   71.4970  222.2990 C   0  0  0  0  0  0  0  0  0  0  0  0
  139.8680   70.7630  223.5800 C   0  0  0  0  0  0  0  0  0  0  0  0
  140.3870   71.4610  224.6250 N   0  0  0  0  0  0  0  0  0  0  0  0
  140.5000   70.9310  225.8530 C   0  0  0  0  0  0  0  0  0  0  0  0
  141.0160   71.6080  226.9240 C   0  0  0  0  0  0  0  0  0  0  0  0
  141.1260   71.0340  228.1920 C   0  0  0  0  0  0  0  0  0  0  0  0
  140.6870   69.7330  228.3470 C   0  0  0  0  0  0  0  0  0  0  0  0
  140.1750   69.0760  227.2630 C   0  0  0  0  0  0  0  0  0  0  0  0
  140.0680   69.6440  226.0130 C   0  0  0  0  0  0  0  0  0  0  0  0
  139.5410   68.9490  224.9350 C   0  0  0  0  0  0  0  0  0  0  0  0
  139.1790   67.7710  225.1860 O   0  0  0  0  0  0  0  0  0  0  0  0
  139.4280   69.4980  223.6930 N   0  0  0  0  0  0  0  0  0  0  0  0
  138.8840   68.8110  222.5670 C   0  0  0  0  0  0  0  0  0  0  0  0
  137.4320   68.4980  222.5590 C   0  0  0  0  0  0  0  0  0  0  0  0
  136.5130   69.5970  223.0270 C   0  0  0  0  0  0  0  0  0  0  0  0
  135.2490   68.8980  223.5800 C   0  0  0  0  0  0  0  0  0  0  0  0
  134.8910   67.7880  222.6630 C   0  0  0  0  0  0  0  0  0  0  0  0
  135.3830   67.9680  221.2650 C   0  0  0  0  0  0  0  0  0  0  0  0
  136.8950   68.0770  221.1980 C   0  0  0  0  0  0  0  0  0  0  0  0
  140.4810   75.0950  221.8540 C   0  0  0  0  0  0  0  0  0  0  0  0
  141.8080   78.4100  220.8100 C   0  0  0  0  0  0  0  0  0  0  0  0
  141.5370   79.8090  221.3080 C   0  0  0  0  0  0  0  0  0  0  0  0
  143.0237   80.2846  224.2756 H   0  0  0  0  0  0  0  0  0  0  0  0
  143.7087   79.5327  222.7950 H   0  0  0  0  0  0  0  0  0  0  0  0
  143.2639   81.2730  222.7950 H   0  0  0  0  0  0  0  0  0  0  0  0
  141.8960   78.2823  223.9513 H   0  0  0  0  0  0  0  0  0  0  0  0
  140.4152   79.3116  224.2383 H   0  0  0  0  0  0  0  0  0  0  0  0
  139.8720   77.0895  223.2720 H   0  0  0  0  0  0  0  0  0  0  0  0
  139.3701   78.4437  222.2311 H   0  0  0  0  0  0  0  0  0  0  0  0
  142.8876   76.3661  219.9079 H   0  0  0  0  0  0  0  0  0  0  0  0
  143.1768   73.9518  219.3677 H   0  0  0  0  0  0  0  0  0  0  0  0
  141.6872   72.2934  220.4720 H   0  0  0  0  0  0  0  0  0  0  0  0
  138.8137   73.2189  222.7758 H   0  0  0  0  0  0  0  0  0  0  0  0
  140.0329   70.9466  221.3596 H   0  0  0  0  0  0  0  0  0  0  0  0
  141.3572   72.6439  226.7807 H   0  0  0  0  0  0  0  0  0  0  0  0
  141.5472   71.5975  229.0376 H   0  0  0  0  0  0  0  0  0  0  0  0
  140.7484   69.2346  229.3257 H   0  0  0  0  0  0  0  0  0  0  0  0
  139.8306   68.0398  227.3961 H   0  0  0  0  0  0  0  0  0  0  0  0
  139.0873   69.4295  221.6804 H   0  0  0  0  0  0  0  0  0  0  0  0
  139.3709   67.8250  222.5933 H   0  0  0  0  0  0  0  0  0  0  0  0
  137.4132   67.6688  223.2815 H   0  0  0  0  0  0  0  0  0  0  0  0
  136.9980   70.1886  223.8174 H   0  0  0  0  0  0  0  0  0  0  0  0
  136.2630   70.2861  222.2069 H   0  0  0  0  0  0  0  0  0  0  0  0
  135.4540   68.4991  224.5844 H   0  0  0  0  0  0  0  0  0  0  0  0
  134.4183   69.6159  223.6481 H   0  0  0  0  0  0  0  0  0  0  0  0
  135.3204   66.8576  223.0630 H   0  0  0  0  0  0  0  0  0  0  0  0
  133.7925   67.7618  222.6112 H   0  0  0  0  0  0  0  0  0  0  0  0
  135.0632   67.1045  220.6632 H   0  0  0  0  0  0  0  0  0  0  0  0
  134.9597   68.9061  220.8766 H   0  0  0  0  0  0  0  0  0  0  0  0
  137.3214   67.1016  220.9208 H   0  0  0  0  0  0  0  0  0  0  0  0
  137.1765   68.8267  220.4438 H   0  0  0  0  0  0  0  0  0  0  0  0
  139.7092   75.4227  222.5660 H   0  0  0  0  0  0  0  0  0  0  0  0
  142.8874   78.2097  220.8784 H   0  0  0  0  0  0  0  0  0  0  0  0
  141.4608   78.3426  219.7684 H   0  0  0  0  0  0  0  0  0  0  0  0
  142.2542   80.4943  220.8327 H   0  0  0  0  0  0  0  0  0  0  0  0
  140.4967   80.0531  221.0468 H   0  0  0  0  0  0  0  0  0  0  0  0
  1  2  1  0
  2  3  1  0
  3  4  1  0
  4  5  1  0
  5  6  1  0
  6  7  2  0
  7  8  1  0
  8  9  2  0
  9 10  1  0
 10 11  1  0
 11 12  2  0
 12 13  1  0
 13 14  2  0
 14 15  1  0
 15 16  2  0
 16 17  1  0
 17 18  2  0
 18 19  1  0
 19 20  2  0
 20 21  1  0
 21 22  2  0
 21 23  1  0
 23 24  1  0
 24 25  1  0
 25 26  1  0
 26 27  1  0
 27 28  1  0
 28 29  1  0
 29 30  1  0
 10 31  2  0
  5 32  1  0
 32 33  1  0
 33  2  1  0
 31  6  1  0
 23 13  1  0
 30 25  1  0
 20 15  1  0
  1 34  1  0
  1 35  1  0
  1 36  1  0
  3 37  1  0
  3 38  1  0
  4 39  1  0
  4 40  1  0
  7 41  1  0
  8 42  1  0
  9 43  1  0
 11 44  1  0
 12 45  1  0
 16 46  1  0
 17 47  1  0
 18 48  1  0
 19 49  1  0
 24 50  1  0
 24 51  1  0
 25 52  1  0
 26 53  1  0
 26 54  1  0
 27 55  1  0
 27 56  1  0
 28 57  1  0
 28 58  1  0
 29 59  1  0
 29 60  1  0
 30 61  1  0
 30 62  1  0
 31 63  1  0
 32 64  1  0
 32 65  1  0
 33 66  1  0
 33 67  1  0
M  END
>  <smiles>  (46) 
CN1CCN(c2cccc(/C=C/c3nc4ccccc4c(=O)n3CC3CCCCC3)c2)CC1

>  <score_type>  (46) 
oracle

>  <origin>  (46) 
autodockgpu

>  <m_score__min__energy>  (46) 
-9.1300000000000008

>  <m_primary>  (46) 
energy

>  <rmsd>  (46) 
6.930718059897255

>  <m_score__min__rmsd>  (46) 
6.930718059897255

>  <meeko>  (46) 
{"free_energy": -9.04, "intermolecular_energy": -10.83, "internal_energy": -1.54, "cluster_size": 21, "cluster_id": 2, "rank_in_cluster": 1}

>  <energy>  (46) 
-7.56

>  <cluster_rmsd>  (46) 
0.8

>  <cluster>  (46) 
8

$$$$

     RDKit          3D

 67 71  0  0  0  0  0  0  0  0999 V2000
  134.3270   70.8490  227.9290 C   0  0  0  0  0  0  0  0  0  0  0  0
  133.9370   70.4410  226.5960 N   0  0  0  0  0  0  0  0  0  0  0  0
  135.0360   69.9240  225.8300 C   0  0  0  0  0  0  0  0  0  0  0  0
  134.9830   70.3080  224.3660 C   0  0  0  0  0  0  0  0  0  0  0  0
  134.9450   71.7520  224.3030 N   0  0  0  0  0  0  0  0  0  0  0  0
  135.8020   72.5530  223.5330 C   0  0  0  0  0  0  0  0  0  0  0  0
  135.5490   73.8970  223.3000 C   0  0  0  0  0  0  0  0  0  0  0  0
  136.4000   74.6840  222.5360 C   0  0  0  0  0  0  0  0  0  0  0  0
  137.5320   74.0800  222.0010 C   0  0  0  0  0  0  0  0  0  0  0  0
  137.8290   72.7490  222.2020 C   0  0  0  0  0  0  0  0  0  0  0  0
  139.0010   72.0890  221.6570 C   0  0  0  0  0  0  0  0  0  0  0  0
  140.0440   71.7070  222.3750 C   0  0  0  0  0  0  0  0  0  0  0  0
  139.8710   70.8810  223.5870 C   0  0  0  0  0  0  0  0  0  0  0  0
  140.2170   71.5100  224.7420 N   0  0  0  0  0  0  0  0  0  0  0  0
  140.1670   70.8940  225.9340 C   0  0  0  0  0  0  0  0  0  0  0  0
  140.5060   71.4990  227.1130 C   0  0  0  0  0  0  0  0  0  0  0  0
  140.4480   70.8360  228.3400 C   0  0  0  0  0  0  0  0  0  0  0  0
  140.0250   69.5210  228.3390 C   0  0  0  0  0  0  0  0  0  0  0  0
  139.6900   68.9360  227.1500 C   0  0  0  0  0  0  0  0  0  0  0  0
  139.7500   69.5920  225.9400 C   0  0  0  0  0  0  0  0  0  0  0  0
  139.4010   68.9690  224.7510 C   0  0  0  0  0  0  0  0  0  0  0  0
  139.0370   67.7700  224.8640 O   0  0  0  0  0  0  0  0  0  0  0  0
  139.4530   69.6040  223.5470 N   0  0  0  0  0  0  0  0  0  0  0  0
  139.0940   68.9920  222.3090 C   0  0  0  0  0  0  0  0  0  0  0  0
  137.6760   69.0520  221.8720 C   0  0  0  0  0  0  0  0  0  0  0  0
  137.4210   68.8060  220.4080 C   0  0  0  0  0  0  0  0  0  0  0  0
  136.1130   69.5570  220.0640 C   0  0  0  0  0  0  0  0  0  0  0  0
  135.1470   69.3430  221.1700 C   0  0  0  0  0  0  0  0  0  0  0  0
  135.3880   68.0980  221.9570 C   0  0  0  0  0  0  0  0  0  0  0  0
  136.7580   68.0850  222.6090 C   0  0  0  0  0  0  0  0  0  0  0  0
  136.9330   72.0310  222.9740 C   0  0  0  0  0  0  0  0  0  0  0  0
  133.9220   72.4040  225.1170 C   0  0  0  0  0  0  0  0  0  0  0  0
  133.1210   71.4020  225.9120 C   0  0  0  0  0  0  0  0  0  0  0  0
  133.7659   70.2620  228.6710 H   0  0  0  0  0  0  0  0  0  0  0  0
  135.4050   70.6769  228.0645 H   0  0  0  0  0  0  0  0  0  0  0  0
  134.1065   71.9181  228.0645 H   0  0  0  0  0  0  0  0  0  0  0  0
  135.9722   70.3115  226.2583 H   0  0  0  0  0  0  0  0  0  0  0  0
  134.9784   68.8266  225.8799 H   0  0  0  0  0  0  0  0  0  0  0  0
  135.8758   69.9316  223.8452 H   0  0  0  0  0  0  0  0  0  0  0  0
  134.0971   69.8729  223.8804 H   0  0  0  0  0  0  0  0  0  0  0  0
  134.6468   74.3529  223.7338 H   0  0  0  0  0  0  0  0  0  0  0  0
  136.1860   75.7485  222.3601 H   0  0  0  0  0  0  0  0  0  0  0  0
  138.2179   74.6883  221.3932 H   0  0  0  0  0  0  0  0  0  0  0  0
  139.0234   71.8934  220.5748 H   0  0  0  0  0  0  0  0  0  0  0  0
  141.0553   72.0090  222.0649 H   0  0  0  0  0  0  0  0  0  0  0  0
  140.8369   72.5479  227.0935 H   0  0  0  0  0  0  0  0  0  0  0  0
  140.7293   71.3429  229.2749 H   0  0  0  0  0  0  0  0  0  0  0  0
  139.9589   68.9541  229.2794 H   0  0  0  0  0  0  0  0  0  0  0  0
  139.3555   67.8881  227.1597 H   0  0  0  0  0  0  0  0  0  0  0  0
  139.6961   69.4717  221.5233 H   0  0  0  0  0  0  0  0  0  0  0  0
  139.2784   67.9205  222.4758 H   0  0  0  0  0  0  0  0  0  0  0  0
  137.4472   70.1003  222.1144 H   0  0  0  0  0  0  0  0  0  0  0  0
  138.2543   69.1963  219.8052 H   0  0  0  0  0  0  0  0  0  0  0  0
  137.3339   67.7309  220.1920 H   0  0  0  0  0  0  0  0  0  0  0  0
  136.3195   70.6318  219.9535 H   0  0  0  0  0  0  0  0  0  0  0  0
  135.6964   69.1784  219.1189 H   0  0  0  0  0  0  0  0  0  0  0  0
  135.2096   70.2019  221.8544 H   0  0  0  0  0  0  0  0  0  0  0  0
  134.1540   69.2393  220.7083 H   0  0  0  0  0  0  0  0  0  0  0  0
  134.6217   68.0222  222.7425 H   0  0  0  0  0  0  0  0  0  0  0  0
  135.3376   67.2461  221.2629 H   0  0  0  0  0  0  0  0  0  0  0  0
  136.6672   68.3940  223.6608 H   0  0  0  0  0  0  0  0  0  0  0  0
  137.1786   67.0697  222.5621 H   0  0  0  0  0  0  0  0  0  0  0  0
  137.1466   70.9663  223.1495 H   0  0  0  0  0  0  0  0  0  0  0  0
  134.4108   73.1023  225.8123 H   0  0  0  0  0  0  0  0  0  0  0  0
  133.2346   72.9364  224.4432 H   0  0  0  0  0  0  0  0  0  0  0  0
  132.5221   71.9457  226.6574 H   0  0  0  0  0  0  0  0  0  0  0  0
  132.4913   70.8483  225.2000 H   0  0  0  0  0  0  0  0  0  0  0  0
  1  2  1  0
  2  3  1  0
  3  4  1  0
  4  5  1  0
  5  6  1  0
  6  7  2  0
  7  8  1  0
  8  9  2  0
  9 10  1  0
 10 11  1  0
 11 12  2  0
 12 13  1  0
 13 14  2  0
 14 15  1  0
 15 16  2  0
 16 17  1  0
 17 18  2  0
 18 19  1  0
 19 20  2  0
 20 21  1  0
 21 22  2  0
 21 23  1  0
 23 24  1  0
 24 25  1  0
 25 26  1  0
 26 27  1  0
 27 28  1  0
 28 29  1  0
 29 30  1  0
 10 31  2  0
  5 32  1  0
 32 33  1  0
 33  2  1  0
 31  6  1  0
 23 13  1  0
 30 25  1  0
 20 15  1  0
  1 34  1  0
  1 35  1  0
  1 36  1  0
  3 37  1  0
  3 38  1  0
  4 39  1  0
  4 40  1  0
  7 41  1  0
  8 42  1  0
  9 43  1  0
 11 44  1  0
 12 45  1  0
 16 46  1  0
 17 47  1  0
 18 48  1  0
 19 49  1  0
 24 50  1  0
 24 51  1  0
 25 52  1  0
 26 53  1  0
 26 54  1  0
 27 55  1  0
 27 56  1  0
 28 57  1  0
 28 58  1  0
 29 59  1  0
 29 60  1  0
 30 61  1  0
 30 62  1  0
 31 63  1  0
 32 64  1  0
 32 65  1  0
 33 66  1  0
 33 67  1  0
M  END
>  <smiles>  (47) 
CN1CCN(c2cccc(/C=C/c3nc4ccccc4c(=O)n3CC3CCCCC3)c2)CC1

>  <score_type>  (47) 
oracle

>  <origin>  (47) 
autodockgpu

>  <m_score__min__energy>  (47) 
-9.1300000000000008

>  <m_primary>  (47) 
energy

>  <rmsd>  (47) 
9.529919169907112

>  <m_score__min__rmsd>  (47) 
9.529919169907112

>  <meeko>  (47) 
{"free_energy": -6.83, "intermolecular_energy": -8.62, "internal_energy": -3.09, "cluster_size": 6, "cluster_id": 8, "rank_in_cluster": 5}

>  <energy>  (47) 
-7.43

>  <cluster_rmsd>  (47) 
0.74

>  <cluster>  (47) 
8

$$$$

     RDKit          3D

 67 71  0  0  0  0  0  0  0  0999 V2000
  132.2900   68.4130  225.2270 C   0  0  0  0  0  0  0  0  0  0  0  0
  132.9220   69.3840  226.0950 N   0  0  0  0  0  0  0  0  0  0  0  0
  132.4990   70.7290  225.8230 C   0  0  0  0  0  0  0  0  0  0  0  0
  133.6090   71.7500  225.9640 C   0  0  0  0  0  0  0  0  0  0  0  0
  134.6720   71.3530  225.0680 N   0  0  0  0  0  0  0  0  0  0  0  0
  135.2820   72.1830  224.1150 C   0  0  0  0  0  0  0  0  0  0  0  0
  134.6460   73.3000  223.5920 C   0  0  0  0  0  0  0  0  0  0  0  0
  135.2540   74.1180  222.6500 C   0  0  0  0  0  0  0  0  0  0  0  0
  136.5380   73.7830  222.2350 C   0  0  0  0  0  0  0  0  0  0  0  0
  137.2130   72.6840  222.7230 C   0  0  0  0  0  0  0  0  0  0  0  0
  138.5520   72.3080  222.3120 C   0  0  0  0  0  0  0  0  0  0  0  0
  139.0390   71.0800  222.3860 C   0  0  0  0  0  0  0  0  0  0  0  0
  139.2240   70.4130  223.6890 C   0  0  0  0  0  0  0  0  0  0  0  0
  139.8370   71.1850  224.6270 N   0  0  0  0  0  0  0  0  0  0  0  0
  140.1270   70.7240  225.8540 C   0  0  0  0  0  0  0  0  0  0  0  0
  140.7420   71.4750  226.8180 C   0  0  0  0  0  0  0  0  0  0  0  0
  141.0350   70.9730  228.0870 C   0  0  0  0  0  0  0  0  0  0  0  0
  140.6790   69.6660  228.3570 C   0  0  0  0  0  0  0  0  0  0  0  0
  140.0650   68.9340  227.3790 C   0  0  0  0  0  0  0  0  0  0  0  0
  139.7780   69.4320  226.1270 C   0  0  0  0  0  0  0  0  0  0  0  0
  139.1530   68.6610  225.1590 C   0  0  0  0  0  0  0  0  0  0  0  0
  138.8790   67.4840  225.5080 O   0  0  0  0  0  0  0  0  0  0  0  0
  138.8610   69.1390  223.9160 N   0  0  0  0  0  0  0  0  0  0  0  0
  138.2120   68.3740  222.9020 C   0  0  0  0  0  0  0  0  0  0  0  0
  136.8910   68.8320  222.4010 C   0  0  0  0  0  0  0  0  0  0  0  0
  136.8020   69.1140  220.9240 C   0  0  0  0  0  0  0  0  0  0  0  0
  135.6820   70.1660  220.7500 C   0  0  0  0  0  0  0  0  0  0  0  0
  134.5540   69.7970  221.6410 C   0  0  0  0  0  0  0  0  0  0  0  0
  134.4960   68.3450  221.9820 C   0  0  0  0  0  0  0  0  0  0  0  0
  135.7470   67.8720  222.6970 C   0  0  0  0  0  0  0  0  0  0  0  0
  136.5410   71.9190  223.6600 C   0  0  0  0  0  0  0  0  0  0  0  0
  135.1290   69.9700  225.1860 C   0  0  0  0  0  0  0  0  0  0  0  0
  134.3400   69.2090  226.2230 C   0  0  0  0  0  0  0  0  0  0  0  0
  131.7907   67.6459  225.8371 H   0  0  0  0  0  0  0  0  0  0  0  0
  131.5468   68.9176  224.5922 H   0  0  0  0  0  0  0  0  0  0  0  0
  133.0523   67.9377  224.5922 H   0  0  0  0  0  0  0  0  0  0  0  0
  132.1148   70.7719  224.7932 H   0  0  0  0  0  0  0  0  0  0  0  0
  131.7285   70.9831  226.5658 H   0  0  0  0  0  0  0  0  0  0  0  0
  133.2390   72.7491  225.6903 H   0  0  0  0  0  0  0  0  0  0  0  0
  133.9696   71.7936  227.0023 H   0  0  0  0  0  0  0  0  0  0  0  0
  133.6296   73.5444  223.9343 H   0  0  0  0  0  0  0  0  0  0  0  0
  134.7377   75.0011  222.2456 H   0  0  0  0  0  0  0  0  0  0  0  0
  137.0349   74.4196  221.4881 H   0  0  0  0  0  0  0  0  0  0  0  0
  139.2065   73.0964  221.9120 H   0  0  0  0  0  0  0  0  0  0  0  0
  139.3101   70.5483  221.4620 H   0  0  0  0  0  0  0  0  0  0  0  0
  141.0161   72.5143  226.5841 H   0  0  0  0  0  0  0  0  0  0  0  0
  141.5318   71.5962  228.8452 H   0  0  0  0  0  0  0  0  0  0  0  0
  140.8859   69.2218  229.3418 H   0  0  0  0  0  0  0  0  0  0  0  0
  139.7858   67.8939  227.6034 H   0  0  0  0  0  0  0  0  0  0  0  0
  138.8918   68.3384  222.0379 H   0  0  0  0  0  0  0  0  0  0  0  0
  137.9948   67.4123  223.3898 H   0  0  0  0  0  0  0  0  0  0  0  0
  136.7922   69.7727  222.9626 H   0  0  0  0  0  0  0  0  0  0  0  0
  137.7586   69.5112  220.5537 H   0  0  0  0  0  0  0  0  0  0  0  0
  136.5829   68.1987  220.3546 H   0  0  0  0  0  0  0  0  0  0  0  0
  136.0613   71.1618  221.0230 H   0  0  0  0  0  0  0  0  0  0  0  0
  135.3454   70.1918  219.7031 H   0  0  0  0  0  0  0  0  0  0  0  0
  134.6517   70.3678  222.5763 H   0  0  0  0  0  0  0  0  0  0  0  0
  133.6286   70.0315  221.0946 H   0  0  0  0  0  0  0  0  0  0  0  0
  133.6278   68.1690  222.6341 H   0  0  0  0  0  0  0  0  0  0  0  0
  134.4122   67.7812  221.0412 H   0  0  0  0  0  0  0  0  0  0  0  0
  135.5621   67.8443  223.7810 H   0  0  0  0  0  0  0  0  0  0  0  0
  136.0125   66.8639  222.3458 H   0  0  0  0  0  0  0  0  0  0  0  0
  137.0576   71.0369  224.0662 H   0  0  0  0  0  0  0  0  0  0  0  0
  135.0123   69.4715  224.2124 H   0  0  0  0  0  0  0  0  0  0  0  0
  136.1837   69.9824  225.4981 H   0  0  0  0  0  0  0  0  0  0  0  0
  134.5707   68.1383  226.1214 H   0  0  0  0  0  0  0  0  0  0  0  0
  134.6303   69.6026  227.2083 H   0  0  0  0  0  0  0  0  0  0  0  0
  1  2  1  0
  2  3  1  0
  3  4  1  0
  4  5  1  0
  5  6  1  0
  6  7  2  0
  7  8  1  0
  8  9  2  0
  9 10  1  0
 10 11  1  0
 11 12  2  0
 12 13  1  0
 13 14  2  0
 14 15  1  0
 15 16  2  0
 16 17  1  0
 17 18  2  0
 18 19  1  0
 19 20  2  0
 20 21  1  0
 21 22  2  0
 21 23  1  0
 23 24  1  0
 24 25  1  0
 25 26  1  0
 26 27  1  0
 27 28  1  0
 28 29  1  0
 29 30  1  0
 10 31  2  0
  5 32  1  0
 32 33  1  0
 33  2  1  0
 31  6  1  0
 23 13  1  0
 30 25  1  0
 20 15  1  0
  1 34  1  0
  1 35  1  0
  1 36  1  0
  3 37  1  0
  3 38  1  0
  4 39  1  0
  4 40  1  0
  7 41  1  0
  8 42  1  0
  9 43  1  0
 11 44  1  0
 12 45  1  0
 16 46  1  0
 17 47  1  0
 18 48  1  0
 19 49  1  0
 24 50  1  0
 24 51  1  0
 25 52  1  0
 26 53  1  0
 26 54  1  0
 27 55  1  0
 27 56  1  0
 28 57  1  0
 28 58  1  0
 29 59  1  0
 29 60  1  0
 30 61  1  0
 30 62  1  0
 31 63  1  0
 32 64  1  0
 32 65  1  0
 33 66  1  0
 33 67  1  0
M  END
>  <smiles>  (48) 
CN1CCN(c2cccc(/C=C/c3nc4ccccc4c(=O)n3CC3CCCCC3)c2)CC1

>  <score_type>  (48) 
oracle

>  <origin>  (48) 
autodockgpu

>  <m_score__min__energy>  (48) 
-9.1300000000000008

>  <m_primary>  (48) 
energy

>  <rmsd>  (48) 
10.011285764383114

>  <m_score__min__rmsd>  (48) 
10.011285764383114

>  <meeko>  (48) 
{"free_energy": -6.89, "intermolecular_energy": -8.68, "internal_energy": -3.32, "cluster_size": 6, "cluster_id": 8, "rank_in_cluster": 4}

>  <energy>  (48) 
-6.89

>  <cluster_rmsd>  (48) 
1.38

>  <cluster>  (48) 
8

$$$$

     RDKit          3D

 67 71  0  0  0  0  0  0  0  0999 V2000
  142.6000   79.7780  222.7250 C   0  0  0  0  0  0  0  0  0  0  0  0
  141.3740   79.1400  222.2970 N   0  0  0  0  0  0  0  0  0  0  0  0
  141.0470   77.9830  223.0820 C   0  0  0  0  0  0  0  0  0  0  0  0
  140.4340   76.8590  222.2710 C   0  0  0  0  0  0  0  0  0  0  0  0
  141.3750   76.5240  221.2250 N   0  0  0  0  0  0  0  0  0  0  0  0
  141.8460   75.2330  220.9420 C   0  0  0  0  0  0  0  0  0  0  0  0
  143.0370   75.0120  220.2660 C   0  0  0  0  0  0  0  0  0  0  0  0
  143.4980   73.7320  219.9880 C   0  0  0  0  0  0  0  0  0  0  0  0
  142.7230   72.6600  220.4130 C   0  0  0  0  0  0  0  0  0  0  0  0
  141.5320   72.8250  221.0880 C   0  0  0  0  0  0  0  0  0  0  0  0
  140.7010   71.7270  221.5430 C   0  0  0  0  0  0  0  0  0  0  0  0
  139.7120   71.8500  222.4140 C   0  0  0  0  0  0  0  0  0  0  0  0
  139.7080   71.0810  223.6730 C   0  0  0  0  0  0  0  0  0  0  0  0
  140.3260   71.7090  224.7100 N   0  0  0  0  0  0  0  0  0  0  0  0
  140.4570   71.1360  225.9170 C   0  0  0  0  0  0  0  0  0  0  0  0
  141.0720   71.7400  226.9790 C   0  0  0  0  0  0  0  0  0  0  0  0
  141.1970   71.1230  228.2240 C   0  0  0  0  0  0  0  0  0  0  0  0
  140.6710   69.8540  228.3670 C   0  0  0  0  0  0  0  0  0  0  0  0
  140.0600   69.2690  227.2930 C   0  0  0  0  0  0  0  0  0  0  0  0
  139.9390   69.8800  226.0640 C   0  0  0  0  0  0  0  0  0  0  0  0
  139.3120   69.2570  224.9960 C   0  0  0  0  0  0  0  0  0  0  0  0
  138.8740   68.1020  225.2330 O   0  0  0  0  0  0  0  0  0  0  0  0
  139.1820   69.8490  223.7750 N   0  0  0  0  0  0  0  0  0  0  0  0
  138.5360   69.2370  222.6600 C   0  0  0  0  0  0  0  0  0  0  0  0
  137.0880   68.9200  222.7630 C   0  0  0  0  0  0  0  0  0  0  0  0
  136.2730   69.8200  223.6540 C   0  0  0  0  0  0  0  0  0  0  0  0
  135.0780   68.9720  224.1490 C   0  0  0  0  0  0  0  0  0  0  0  0
  134.5670   68.1740  223.0070 C   0  0  0  0  0  0  0  0  0  0  0  0
  134.8680   68.7640  221.6690 C   0  0  0  0  0  0  0  0  0  0  0  0
  136.3590   68.9090  221.4260 C   0  0  0  0  0  0  0  0  0  0  0  0
  141.1400   74.1300  221.3270 C   0  0  0  0  0  0  0  0  0  0  0  0
  141.8550   77.6390  220.4110 C   0  0  0  0  0  0  0  0  0  0  0  0
  141.2820   78.9550  220.8770 C   0  0  0  0  0  0  0  0  0  0  0  0
  142.6386   79.7981  223.8241 H   0  0  0  0  0  0  0  0  0  0  0  0
  143.4614   79.2138  222.3381 H   0  0  0  0  0  0  0  0  0  0  0  0
  142.6322   80.8072  222.3381 H   0  0  0  0  0  0  0  0  0  0  0  0
  141.9680   77.6103  223.5541 H   0  0  0  0  0  0  0  0  0  0  0  0
  140.2967   78.2951  223.8234 H   0  0  0  0  0  0  0  0  0  0  0  0
  140.2572   75.9837  222.9134 H   0  0  0  0  0  0  0  0  0  0  0  0
  139.4685   77.1674  221.8436 H   0  0  0  0  0  0  0  0  0  0  0  0
  143.6341   75.8766  219.9405 H   0  0  0  0  0  0  0  0  0  0  0  0
  144.4440   73.5723  219.4499 H   0  0  0  0  0  0  0  0  0  0  0  0
  143.0736   71.6388  220.2026 H   0  0  0  0  0  0  0  0  0  0  0  0
  140.9063   70.7254  221.1373 H   0  0  0  0  0  0  0  0  0  0  0  0
  138.8803   72.5361  222.1958 H   0  0  0  0  0  0  0  0  0  0  0  0
  141.4840   72.7513  226.8463 H   0  0  0  0  0  0  0  0  0  0  0  0
  141.6971   71.6296  229.0626 H   0  0  0  0  0  0  0  0  0  0  0  0
  140.7424   69.3234  229.3279 H   0  0  0  0  0  0  0  0  0  0  0  0
  139.6435   68.2584  227.4164 H   0  0  0  0  0  0  0  0  0  0  0  0
  138.6595   69.9141  221.8019 H   0  0  0  0  0  0  0  0  0  0  0  0
  139.0206   68.2531  222.5761 H   0  0  0  0  0  0  0  0  0  0  0  0
  137.1447   67.9154  223.2075 H   0  0  0  0  0  0  0  0  0  0  0  0
  136.8779   70.1608  224.5072 H   0  0  0  0  0  0  0  0  0  0  0  0
  135.9319   70.7156  223.1140 H   0  0  0  0  0  0  0  0  0  0  0  0
  135.4078   68.2994  224.9545 H   0  0  0  0  0  0  0  0  0  0  0  0
  134.2846   69.6269  224.5384 H   0  0  0  0  0  0  0  0  0  0  0  0
  135.0216   67.1734  223.0537 H   0  0  0  0  0  0  0  0  0  0  0  0
  133.4715   68.1474  223.1032 H   0  0  0  0  0  0  0  0  0  0  0  0
  134.4446   68.1115  220.8912 H   0  0  0  0  0  0  0  0  0  0  0  0
  134.4223   69.7691  221.6363 H   0  0  0  0  0  0  0  0  0  0  0  0
  136.7164   68.0637  220.8195 H   0  0  0  0  0  0  0  0  0  0  0  0
  136.5555   69.8500  220.8914 H   0  0  0  0  0  0  0  0  0  0  0  0
  140.1937   74.2899  221.8646 H   0  0  0  0  0  0  0  0  0  0  0  0
  142.9520   77.6836  220.4783 H   0  0  0  0  0  0  0  0  0  0  0  0
  141.5312   77.4713  219.3732 H   0  0  0  0  0  0  0  0  0  0  0  0
  141.8303   79.7700  220.3819 H   0  0  0  0  0  0  0  0  0  0  0  0
  140.2136   78.9575  220.6154 H   0  0  0  0  0  0  0  0  0  0  0  0
  1  2  1  0
  2  3  1  0
  3  4  1  0
  4  5  1  0
  5  6  1  0
  6  7  2  0
  7  8  1  0
  8  9  2  0
  9 10  1  0
 10 11  1  0
 11 12  2  0
 12 13  1  0
 13 14  2  0
 14 15  1  0
 15 16  2  0
 16 17  1  0
 17 18  2  0
 18 19  1  0
 19 20  2  0
 20 21  1  0
 21 22  2  0
 21 23  1  0
 23 24  1  0
 24 25  1  0
 25 26  1  0
 26 27  1  0
 27 28  1  0
 28 29  1  0
 29 30  1  0
 10 31  2  0
  5 32  1  0
 32 33  1  0
 33  2  1  0
 31  6  1  0
 23 13  1  0
 30 25  1  0
 20 15  1  0
  1 34  1  0
  1 35  1  0
  1 36  1  0
  3 37  1  0
  3 38  1  0
  4 39  1  0
  4 40  1  0
  7 41  1  0
  8 42  1  0
  9 43  1  0
 11 44  1  0
 12 45  1  0
 16 46  1  0
 17 47  1  0
 18 48  1  0
 19 49  1  0
 24 50  1  0
 24 51  1  0
 25 52  1  0
 26 53  1  0
 26 54  1  0
 27 55  1  0
 27 56  1  0
 28 57  1  0
 28 58  1  0
 29 59  1  0
 29 60  1  0
 30 61  1  0
 30 62  1  0
 31 63  1  0
 32 64  1  0
 32 65  1  0
 33 66  1  0
 33 67  1  0
M  END
>  <smiles>  (49) 
CN1CCN(c2cccc(/C=C/c3nc4ccccc4c(=O)n3CC3CCCCC3)c2)CC1

>  <score_type>  (49) 
oracle

>  <origin>  (49) 
autodockgpu

>  <m_score__min__energy>  (49) 
-9.1300000000000008

>  <m_primary>  (49) 
energy

>  <rmsd>  (49) 
7.324304020888721

>  <m_score__min__rmsd>  (49) 
7.324304020888721

>  <meeko>  (49) 
{"free_energy": -8.71, "intermolecular_energy": -10.5, "internal_energy": -1.58, "cluster_size": 21, "cluster_id": 2, "rank_in_cluster": 10}

>  <energy>  (49) 
-6.83

>  <cluster_rmsd>  (49) 
1.34

>  <cluster>  (49) 
8

$$$$

     RDKit          3D

 67 71  0  0  0  0  0  0  0  0999 V2000
  141.7890   78.9480  224.1420 C   0  0  0  0  0  0  0  0  0  0  0  0
  140.9920   79.0660  222.9400 N   0  0  0  0  0  0  0  0  0  0  0  0
  139.5810   79.0670  223.2060 C   0  0  0  0  0  0  0  0  0  0  0  0
  138.7710   78.3280  222.1610 C   0  0  0  0  0  0  0  0  0  0  0  0
  139.2830   76.9770  222.0970 N   0  0  0  0  0  0  0  0  0  0  0  0
  138.5080   75.8120  222.1920 C   0  0  0  0  0  0  0  0  0  0  0  0
  137.1850   75.8340  222.6090 C   0  0  0  0  0  0  0  0  0  0  0  0
  136.4240   74.6770  222.7020 C   0  0  0  0  0  0  0  0  0  0  0  0
  137.0310   73.4750  222.3600 C   0  0  0  0  0  0  0  0  0  0  0  0
  138.3420   73.3970  221.9390 C   0  0  0  0  0  0  0  0  0  0  0  0
  139.0050   72.1600  221.5760 C   0  0  0  0  0  0  0  0  0  0  0  0
  140.0720   71.6750  222.1900 C   0  0  0  0  0  0  0  0  0  0  0  0
  139.9560   71.0040  223.4990 C   0  0  0  0  0  0  0  0  0  0  0  0
  140.5030   71.7000  224.5320 N   0  0  0  0  0  0  0  0  0  0  0  0
  140.5290   71.2180  225.7850 C   0  0  0  0  0  0  0  0  0  0  0  0
  141.0700   71.8940  226.8440 C   0  0  0  0  0  0  0  0  0  0  0  0
  141.0860   71.3710  228.1380 C   0  0  0  0  0  0  0  0  0  0  0  0
  140.5270   70.1230  228.3320 C   0  0  0  0  0  0  0  0  0  0  0  0
  139.9910   69.4660  227.2600 C   0  0  0  0  0  0  0  0  0  0  0  0
  139.9770   69.9840  225.9830 C   0  0  0  0  0  0  0  0  0  0  0  0
  139.4240   69.2900  224.9180 C   0  0  0  0  0  0  0  0  0  0  0  0
  138.9480   68.1610  225.2060 O   0  0  0  0  0  0  0  0  0  0  0  0
  139.4000   69.7890  223.6500 N   0  0  0  0  0  0  0  0  0  0  0  0
  138.8330   69.1020  222.5360 C   0  0  0  0  0  0  0  0  0  0  0  0
  137.3630   69.1790  222.3280 C   0  0  0  0  0  0  0  0  0  0  0  0
  136.6310   67.8640  222.2690 C   0  0  0  0  0  0  0  0  0  0  0  0
  135.3710   68.1080  221.4070 C   0  0  0  0  0  0  0  0  0  0  0  0
  134.7890   69.4180  221.7920 C   0  0  0  0  0  0  0  0  0  0  0  0
  135.1330   69.8540  223.1770 C   0  0  0  0  0  0  0  0  0  0  0  0
  136.6300   70.0010  223.3790 C   0  0  0  0  0  0  0  0  0  0  0  0
  139.0350   74.5930  221.8730 C   0  0  0  0  0  0  0  0  0  0  0  0
  140.7270   76.8460  221.9190 C   0  0  0  0  0  0  0  0  0  0  0  0
  141.4090   78.1910  221.8810 C   0  0  0  0  0  0  0  0  0  0  0  0
  141.1388   79.0443  225.0240 H   0  0  0  0  0  0  0  0  0  0  0  0
  142.2855   77.9666  224.1579 H   0  0  0  0  0  0  0  0  0  0  0  0
  142.5486   79.7435  224.1579 H   0  0  0  0  0  0  0  0  0  0  0  0
  139.4099   78.5891  224.1819 H   0  0  0  0  0  0  0  0  0  0  0  0
  139.2489   80.1156  223.1924 H   0  0  0  0  0  0  0  0  0  0  0  0
  137.7091   78.3150  222.4475 H   0  0  0  0  0  0  0  0  0  0  0  0
  138.8537   78.8229  221.1821 H   0  0  0  0  0  0  0  0  0  0  0  0
  136.7252   76.7975  222.8739 H   0  0  0  0  0  0  0  0  0  0  0  0
  135.3762   74.7106  223.0351 H   0  0  0  0  0  0  0  0  0  0  0  0
  136.4423   72.5483  222.4277 H   0  0  0  0  0  0  0  0  0  0  0  0
  138.5932   71.5857  220.7331 H   0  0  0  0  0  0  0  0  0  0  0  0
  141.0604   71.7735  221.7175 H   0  0  0  0  0  0  0  0  0  0  0  0
  141.5091   72.8873  226.6692 H   0  0  0  0  0  0  0  0  0  0  0  0
  141.5282   71.9330  228.9738 H   0  0  0  0  0  0  0  0  0  0  0  0
  140.5134   69.6656  229.3323 H   0  0  0  0  0  0  0  0  0  0  0  0
  139.5480   68.4727  227.4250 H   0  0  0  0  0  0  0  0  0  0  0  0
  139.3105   69.5031  221.6299 H   0  0  0  0  0  0  0  0  0  0  0  0
  139.0189   68.0396  222.7520 H   0  0  0  0  0  0  0  0  0  0  0  0
  137.3364   69.6601  221.3392 H   0  0  0  0  0  0  0  0  0  0  0  0
  137.2664   67.0947  221.8059 H   0  0  0  0  0  0  0  0  0  0  0  0
  136.3646   67.5088  223.2754 H   0  0  0  0  0  0  0  0  0  0  0  0
  135.6460   68.1218  220.3420 H   0  0  0  0  0  0  0  0  0  0  0  0
  134.6379   67.3046  221.5718 H   0  0  0  0  0  0  0  0  0  0  0  0
  135.1569   70.1796  221.0887 H   0  0  0  0  0  0  0  0  0  0  0  0
  133.6957   69.3016  221.7584 H   0  0  0  0  0  0  0  0  0  0  0  0
  134.6527   70.8242  223.3721 H   0  0  0  0  0  0  0  0  0  0  0  0
  134.7737   69.0811  223.8723 H   0  0  0  0  0  0  0  0  0  0  0  0
  136.9119   71.0596  223.2798 H   0  0  0  0  0  0  0  0  0  0  0  0
  136.9031   69.6433  224.3827 H   0  0  0  0  0  0  0  0  0  0  0  0
  140.0830   74.5596  221.5406 H   0  0  0  0  0  0  0  0  0  0  0  0
  141.1377   76.2616  222.7556 H   0  0  0  0  0  0  0  0  0  0  0  0
  140.9097   76.3418  220.9586 H   0  0  0  0  0  0  0  0  0  0  0  0
  142.4948   78.0350  221.9633 H   0  0  0  0  0  0  0  0  0  0  0  0
  141.1318   78.6717  220.9312 H   0  0  0  0  0  0  0  0  0  0  0  0
  1  2  1  0
  2  3  1  0
  3  4  1  0
  4  5  1  0
  5  6  1  0
  6  7  2  0
  7  8  1  0
  8  9  2  0
  9 10  1  0
 10 11  1  0
 11 12  2  0
 12 13  1  0
 13 14  2  0
 14 15  1  0
 15 16  2  0
 16 17  1  0
 17 18  2  0
 18 19  1  0
 19 20  2  0
 20 21  1  0
 21 22  2  0
 21 23  1  0
 23 24  1  0
 24 25  1  0
 25 26  1  0
 26 27  1  0
 27 28  1  0
 28 29  1  0
 29 30  1  0
 10 31  2  0
  5 32  1  0
 32 33  1  0
 33  2  1  0
 31  6  1  0
 23 13  1  0
 30 25  1  0
 20 15  1  0
  1 34  1  0
  1 35  1  0
  1 36  1  0
  3 37  1  0
  3 38  1  0
  4 39  1  0
  4 40  1  0
  7 41  1  0
  8 42  1  0
  9 43  1  0
 11 44  1  0
 12 45  1  0
 16 46  1  0
 17 47  1  0
 18 48  1  0
 19 49  1  0
 24 50  1  0
 24 51  1  0
 25 52  1  0
 26 53  1  0
 26 54  1  0
 27 55  1  0
 27 56  1  0
 28 57  1  0
 28 58  1  0
 29 59  1  0
 29 60  1  0
 30 61  1  0
 30 62  1  0
 31 63  1  0
 32 64  1  0
 32 65  1  0
 33 66  1  0
 33 67  1  0
M  END
>  <smiles>  (50) 
CN1CCN(c2cccc(/C=C/c3nc4ccccc4c(=O)n3CC3CCCCC3)c2)CC1

>  <score_type>  (50) 
oracle

>  <origin>  (50) 
autodockgpu

>  <m_score__min__energy>  (50) 
-9.1300000000000008

>  <m_primary>  (50) 
energy

>  <rmsd>  (50) 
7.156677051455236

>  <m_score__min__rmsd>  (50) 
7.156677051455236

>  <meeko>  (50) 
{"free_energy": -8.04, "intermolecular_energy": -9.83, "internal_energy": -2.06, "cluster_size": 21, "cluster_id": 2, "rank_in_cluster": 19}

>  <energy>  (50) 
-6.34

>  <cluster_rmsd>  (50) 
1.42

>  <cluster>  (50) 
8

$$$$
