
     RDKit          3D

 52 55  0  0  0  0  0  0  0  0999 V2000
  140.9510   71.2820  221.3870 O   0  0  0  0  0  0  0  0  0  0  0  0
  140.4300   71.8070  222.4010 C   0  0  0  0  0  0  0  0  0  0  0  0
  140.0140   73.1640  222.3130 N   0  0  0  0  0  0  0  0  0  0  0  0
  140.2190   73.8500  221.0530 C   0  0  0  0  0  0  0  0  0  0  0  0
  140.7390   75.2380  221.2830 C   0  0  0  0  0  0  0  0  0  0  0  0
  140.3300   75.7960  222.3450 O   0  0  0  0  0  0  0  0  0  0  0  0
  141.6250   75.8770  220.3710 N   0  0  0  0  0  0  0  0  0  0  0  0
  141.4860   77.2620  219.9860 C   0  0  0  0  0  0  0  0  0  0  0  0
  142.2440   77.2510  218.6500 C   0  0  0  0  0  0  0  0  0  0  0  0
  143.3850   76.2570  218.9160 C   0  0  2  0  0  0  0  0  0  0  0  0
  143.8170   75.8100  217.6770 O   0  0  0  0  0  0  0  0  0  0  0  0
  142.7280   75.2130  219.7390 C   0  0  1  0  0  0  0  0  0  0  0  0
  143.6650   74.5050  220.6810 C   0  0  0  0  0  0  0  0  0  0  0  0
  144.1710   73.2100  220.1830 C   0  0  0  0  0  0  0  0  0  0  0  0
  145.5000   72.8450  220.1860 C   0  0  0  0  0  0  0  0  0  0  0  0
  145.9520   71.6250  219.7170 C   0  0  0  0  0  0  0  0  0  0  0  0
  145.0680   70.7000  219.2140 C   0  0  0  0  0  0  0  0  0  0  0  0
  145.6770   69.1680  218.6300 Cl  0  0  0  0  0  0  0  0  0  0  0  0
  143.7320   71.0340  219.1970 C   0  0  0  0  0  0  0  0  0  0  0  0
  143.2870   72.2540  219.6670 C   0  0  0  0  0  0  0  0  0  0  0  0
  140.2500   71.0630  223.6420 C   0  0  0  0  0  0  0  0  0  0  0  0
  139.5730   69.8510  223.5990 C   0  0  0  0  0  0  0  0  0  0  0  0
  139.3920   69.1320  224.7620 C   0  0  0  0  0  0  0  0  0  0  0  0
  139.8710   69.6040  225.9420 C   0  0  0  0  0  0  0  0  0  0  0  0
  139.6640   68.8430  227.0900 C   0  0  0  0  0  0  0  0  0  0  0  0
  140.1590   69.3400  228.2830 C   0  0  0  0  0  0  0  0  0  0  0  0
  139.9850   68.6360  229.4410 F   0  0  0  0  0  0  0  0  0  0  0  0
  140.8290   70.5450  228.3150 C   0  0  0  0  0  0  0  0  0  0  0  0
  141.0330   71.2960  227.1760 C   0  0  0  0  0  0  0  0  0  0  0  0
  140.5470   70.8160  225.9860 C   0  0  0  0  0  0  0  0  0  0  0  0
  140.7090   71.4970  224.8290 N   0  0  0  0  0  0  0  0  0  0  0  0
  139.5770   73.6260  223.1420 H   0  0  0  0  0  0  0  0  0  0  0  0
  140.9466   73.2872  220.4498 H   0  0  0  0  0  0  0  0  0  0  0  0
  139.2558   73.9162  220.5258 H   0  0  0  0  0  0  0  0  0  0  0  0
  140.4310   77.5439  219.8534 H   0  0  0  0  0  0  0  0  0  0  0  0
  141.8625   77.9857  220.7238 H   0  0  0  0  0  0  0  0  0  0  0  0
  141.5980   76.9030  217.8305 H   0  0  0  0  0  0  0  0  0  0  0  0
  142.5959   78.2460  218.3400 H   0  0  0  0  0  0  0  0  0  0  0  0
  144.2738   76.6430  219.4366 H   0  0  0  0  0  0  0  0  0  0  0  0
  144.8010   75.7240  217.6180 H   0  0  0  0  0  0  0  0  0  0  0  0
  142.3712   74.3742  219.1233 H   0  0  0  0  0  0  0  0  0  0  0  0
  144.5272   75.1624  220.8666 H   0  0  0  0  0  0  0  0  0  0  0  0
  143.0873   74.2861  221.5911 H   0  0  0  0  0  0  0  0  0  0  0  0
  146.2375   73.5592  220.5809 H   0  0  0  0  0  0  0  0  0  0  0  0
  147.0268   71.3930  219.7466 H   0  0  0  0  0  0  0  0  0  0  0  0
  143.0027   70.3126  218.8000 H   0  0  0  0  0  0  0  0  0  0  0  0
  142.2111   72.4806  219.6353 H   0  0  0  0  0  0  0  0  0  0  0  0
  139.1840   69.4673  222.6443 H   0  0  0  0  0  0  0  0  0  0  0  0
  138.8569   68.1713  224.7337 H   0  0  0  0  0  0  0  0  0  0  0  0
  139.1275   67.8835  227.0499 H   0  0  0  0  0  0  0  0  0  0  0  0
  141.2117   70.9180  229.2764 H   0  0  0  0  0  0  0  0  0  0  0  0
  141.5711   72.2544  227.2206 H   0  0  0  0  0  0  0  0  0  0  0  0
  1  2  2  0
  2  3  1  0
  3  4  1  0
  4  5  1  0
  5  6  2  0
  5  7  1  0
  7  8  1  0
  8  9  1  0
  9 10  1  0
 10 11  1  0
 10 12  1  0
 12 13  1  0
 13 14  1  0
 14 15  2  0
 15 16  1  0
 16 17  2  0
 17 18  1  0
 17 19  1  0
 19 20  2  0
  2 21  1  0
 21 22  2  0
 22 23  1  0
 23 24  2  0
 24 25  1  0
 25 26  2  0
 26 27  1  0
 26 28  1  0
 28 29  2  0
 29 30  1  0
 30 31  2  0
 12  7  1  0
 20 14  1  0
 31 21  1  0
 30 24  1  0
  3 32  1  0
  4 33  1  0
  4 34  1  0
  8 35  1  0
  8 36  1  0
  9 37  1  0
  9 38  1  0
 10 39  1  1
 11 40  1  0
 12 41  1  6
 13 42  1  0
 13 43  1  0
 15 44  1  0
 16 45  1  0
 19 46  1  0
 20 47  1  0
 22 48  1  0
 23 49  1  0
 25 50  1  0
 28 51  1  0
 29 52  1  0
M  END
>  <smiles>  (1) 
O=C(NCC(=O)N1CC[C@H](O)[C@H]1Cc1ccc(Cl)cc1)c1ccc2cc(F)ccc2n1

>  <score_type>  (1) 
oracle

>  <origin>  (1) 
autodockgpu

>  <m_score__min__energy>  (1) 
-9.1999999999999993

>  <m_primary>  (1) 
energy

>  <rmsd>  (1) 
2.410906029622342

>  <m_score__min__rmsd>  (1) 
2.410906029622342

>  <meeko>  (1) 
{"free_energy": -8.63, "intermolecular_energy": -10.72, "internal_energy": -1.99, "cluster_size": 23, "cluster_id": 2, "rank_in_cluster": 4}

>  <energy>  (1) 
-9.2

>  <cluster_rmsd>  (1) 
0.0

>  <cluster>  (1) 
1

$$$$

     RDKit          3D

 52 55  0  0  0  0  0  0  0  0999 V2000
  140.7780   73.3790  222.5050 O   0  0  0  0  0  0  0  0  0  0  0  0
  139.8310   72.5890  222.7380 C   0  0  0  0  0  0  0  0  0  0  0  0
  138.6580   72.6960  221.9410 N   0  0  0  0  0  0  0  0  0  0  0  0
  138.6370   73.7150  220.9100 C   0  0  0  0  0  0  0  0  0  0  0  0
  139.4040   73.2640  219.7030 C   0  0  0  0  0  0  0  0  0  0  0  0
  138.6930   72.8370  218.7430 O   0  0  0  0  0  0  0  0  0  0  0  0
  140.8250   73.3130  219.6450 N   0  0  0  0  0  0  0  0  0  0  0  0
  141.6250   72.2270  219.1270 C   0  0  0  0  0  0  0  0  0  0  0  0
  142.9670   72.5280  219.8110 C   0  0  0  0  0  0  0  0  0  0  0  0
  143.0070   74.0640  219.8160 C   0  0  2  0  0  0  0  0  0  0  0  0
  143.8990   74.4330  220.8120 O   0  0  0  0  0  0  0  0  0  0  0  0
  141.5990   74.4300  220.1000 C   0  0  1  0  0  0  0  0  0  0  0  0
  141.1910   75.7610  219.5260 C   0  0  0  0  0  0  0  0  0  0  0  0
  141.3020   76.8950  220.4660 C   0  0  0  0  0  0  0  0  0  0  0  0
  141.7320   78.1550  220.1130 C   0  0  0  0  0  0  0  0  0  0  0  0
  141.8250   79.2030  221.0090 C   0  0  0  0  0  0  0  0  0  0  0  0
  141.4820   79.0250  222.3290 C   0  0  0  0  0  0  0  0  0  0  0  0
  141.6130   80.3740  223.4340 Cl  0  0  0  0  0  0  0  0  0  0  0  0
  141.0480   77.7770  222.7150 C   0  0  0  0  0  0  0  0  0  0  0  0
  140.9570   76.7340  221.8140 C   0  0  0  0  0  0  0  0  0  0  0  0
  139.9130   71.5840  223.7920 C   0  0  0  0  0  0  0  0  0  0  0  0
  139.4690   70.2960  223.5190 C   0  0  0  0  0  0  0  0  0  0  0  0
  139.5390   69.3320  224.5020 C   0  0  0  0  0  0  0  0  0  0  0  0
  140.0370   69.6360  225.7290 C   0  0  0  0  0  0  0  0  0  0  0  0
  140.0870   68.6290  226.6890 C   0  0  0  0  0  0  0  0  0  0  0  0
  140.5970   68.9570  227.9330 C   0  0  0  0  0  0  0  0  0  0  0  0
  140.6710   68.0100  228.9140 F   0  0  0  0  0  0  0  0  0  0  0  0
  141.0350   70.2390  228.1930 C   0  0  0  0  0  0  0  0  0  0  0  0
  140.9850   71.2350  227.2390 C   0  0  0  0  0  0  0  0  0  0  0  0
  140.4810   70.9230  226.0010 C   0  0  0  0  0  0  0  0  0  0  0  0
  140.4000   71.8470  225.0170 N   0  0  0  0  0  0  0  0  0  0  0  0
  137.8550   72.0520  222.1140 H   0  0  0  0  0  0  0  0  0  0  0  0
  137.5946   73.9151  220.6214 H   0  0  0  0  0  0  0  0  0  0  0  0
  139.1055   74.6281  221.3058 H   0  0  0  0  0  0  0  0  0  0  0  0
  141.2253   71.2472  219.4274 H   0  0  0  0  0  0  0  0  0  0  0  0
  141.6692   72.1691  218.0294 H   0  0  0  0  0  0  0  0  0  0  0  0
  142.9887   72.1274  220.8352 H   0  0  0  0  0  0  0  0  0  0  0  0
  143.8284   72.0707  219.3022 H   0  0  0  0  0  0  0  0  0  0  0  0
  143.3456   74.5591  218.8939 H   0  0  0  0  0  0  0  0  0  0  0  0
  143.4800   74.9760  221.5250 H   0  0  0  0  0  0  0  0  0  0  0  0
  141.4316   74.6018  221.1735 H   0  0  0  0  0  0  0  0  0  0  0  0
  141.8321   75.9712  218.6572 H   0  0  0  0  0  0  0  0  0  0  0  0
  140.1259   75.6751  219.2648 H   0  0  0  0  0  0  0  0  0  0  0  0
  142.0155   78.3361  219.0657 H   0  0  0  0  0  0  0  0  0  0  0  0
  142.1759   80.1868  220.6640 H   0  0  0  0  0  0  0  0  0  0  0  0
  140.7673   77.6064  223.7648 H   0  0  0  0  0  0  0  0  0  0  0  0
  140.6048   75.7524  222.1638 H   0  0  0  0  0  0  0  0  0  0  0  0
  139.0649   70.0475  222.5265 H   0  0  0  0  0  0  0  0  0  0  0  0
  139.1895   68.3104  224.2917 H   0  0  0  0  0  0  0  0  0  0  0  0
  139.7344   67.6109  226.4671 H   0  0  0  0  0  0  0  0  0  0  0  0
  141.4359   70.4743  229.1900 H   0  0  0  0  0  0  0  0  0  0  0  0
  141.3395   72.2516  227.4647 H   0  0  0  0  0  0  0  0  0  0  0  0
  1  2  2  0
  2  3  1  0
  3  4  1  0
  4  5  1  0
  5  6  2  0
  5  7  1  0
  7  8  1  0
  8  9  1  0
  9 10  1  0
 10 11  1  0
 10 12  1  0
 12 13  1  0
 13 14  1  0
 14 15  2  0
 15 16  1  0
 16 17  2  0
 17 18  1  0
 17 19  1  0
 19 20  2  0
  2 21  1  0
 21 22  2  0
 22 23  1  0
 23 24  2  0
 24 25  1  0
 25 26  2  0
 26 27  1  0
 26 28  1  0
 28 29  2  0
 29 30  1  0
 30 31  2  0
 12  7  1  0
 20 14  1  0
 31 21  1  0
 30 24  1  0
  3 32  1  0
  4 33  1  0
  4 34  1  0
  8 35  1  0
  8 36  1  0
  9 37  1  0
  9 38  1  0
 10 39  1  6
 11 40  1  0
 12 41  1  1
 13 42  1  0
 13 43  1  0
 15 44  1  0
 16 45  1  0
 19 46  1  0
 20 47  1  0
 22 48  1  0
 23 49  1  0
 25 50  1  0
 28 51  1  0
 29 52  1  0
M  END
>  <smiles>  (2) 
O=C(NCC(=O)N1CC[C@H](O)[C@H]1Cc1ccc(Cl)cc1)c1ccc2cc(F)ccc2n1

>  <score_type>  (2) 
oracle

>  <origin>  (2) 
autodockgpu

>  <m_score__min__energy>  (2) 
-9.1999999999999993

>  <m_primary>  (2) 
energy

>  <rmsd>  (2) 
2.6779035650871688

>  <m_score__min__rmsd>  (2) 
2.6779035650871688

>  <meeko>  (2) 
{"free_energy": -7.86, "intermolecular_energy": -9.95, "internal_energy": -1.71, "cluster_size": 19, "cluster_id": 1, "rank_in_cluster": 19}

>  <energy>  (2) 
-9.2

>  <cluster_rmsd>  (2) 
0.68

>  <cluster>  (2) 
1

$$$$

     RDKit          3D

 52 55  0  0  0  0  0  0  0  0999 V2000
  139.5310   71.8320  220.5740 O   0  0  0  0  0  0  0  0  0  0  0  0
  140.3430   72.0010  221.5160 C   0  0  0  0  0  0  0  0  0  0  0  0
  141.4940   72.8000  221.2720 N   0  0  0  0  0  0  0  0  0  0  0  0
  141.6500   73.3670  219.9480 C   0  0  0  0  0  0  0  0  0  0  0  0
  142.5870   74.5380  219.9790 C   0  0  0  0  0  0  0  0  0  0  0  0
  143.3940   74.5560  220.9570 O   0  0  0  0  0  0  0  0  0  0  0  0
  142.5660   75.5520  218.9810 N   0  0  0  0  0  0  0  0  0  0  0  0
  142.6990   75.2660  217.5710 C   0  0  0  0  0  0  0  0  0  0  0  0
  143.1870   76.6300  217.0610 C   0  0  0  0  0  0  0  0  0  0  0  0
  142.4180   77.6190  217.9490 C   0  0  2  0  0  0  0  0  0  0  0  0
  143.1230   78.8120  217.9170 O   0  0  0  0  0  0  0  0  0  0  0  0
  142.4240   76.9490  219.2720 C   0  0  1  0  0  0  0  0  0  0  0  0
  141.2410   77.2990  220.1350 C   0  0  0  0  0  0  0  0  0  0  0  0
  141.4970   78.3680  221.1220 C   0  0  0  0  0  0  0  0  0  0  0  0
  141.8500   79.6580  220.7930 C   0  0  0  0  0  0  0  0  0  0  0  0
  142.0820   80.6440  221.7340 C   0  0  0  0  0  0  0  0  0  0  0  0
  141.9680   80.3680  223.0760 C   0  0  0  0  0  0  0  0  0  0  0  0
  142.2690   81.6400  224.2380 Cl  0  0  0  0  0  0  0  0  0  0  0  0
  141.6170   79.0870  223.4390 C   0  0  0  0  0  0  0  0  0  0  0  0
  141.3850   78.1070  222.4940 C   0  0  0  0  0  0  0  0  0  0  0  0
  140.1290   71.4030  222.8290 C   0  0  0  0  0  0  0  0  0  0  0  0
  139.2880   70.3020  222.9280 C   0  0  0  0  0  0  0  0  0  0  0  0
  139.0730   69.7220  224.1610 C   0  0  0  0  0  0  0  0  0  0  0  0
  139.6770   70.2210  225.2700 C   0  0  0  0  0  0  0  0  0  0  0  0
  139.4290   69.6020  226.4920 C   0  0  0  0  0  0  0  0  0  0  0  0
  140.0530   70.1250  227.6110 C   0  0  0  0  0  0  0  0  0  0  0  0
  139.8470   69.5590  228.8370 F   0  0  0  0  0  0  0  0  0  0  0  0
  140.8850   71.2200  227.5010 C   0  0  0  0  0  0  0  0  0  0  0  0
  141.1300   71.8310  226.2880 C   0  0  0  0  0  0  0  0  0  0  0  0
  140.5170   71.3220  225.1700 C   0  0  0  0  0  0  0  0  0  0  0  0
  140.7090   71.8690  223.9480 N   0  0  0  0  0  0  0  0  0  0  0  0
  142.1860   72.9570  222.0380 H   0  0  0  0  0  0  0  0  0  0  0  0
  142.0540   72.5992  219.2718 H   0  0  0  0  0  0  0  0  0  0  0  0
  140.6672   73.7101  219.5925 H   0  0  0  0  0  0  0  0  0  0  0  0
  143.4382   74.4731  217.3842 H   0  0  0  0  0  0  0  0  0  0  0  0
  141.7837   74.8936  217.0877 H   0  0  0  0  0  0  0  0  0  0  0  0
  144.2733   76.7381  217.1959 H   0  0  0  0  0  0  0  0  0  0  0  0
  143.0110   76.7818  215.9858 H   0  0  0  0  0  0  0  0  0  0  0  0
  141.3860   77.8585  217.6529 H   0  0  0  0  0  0  0  0  0  0  0  0
  143.4670   79.0350  217.0170 H   0  0  0  0  0  0  0  0  0  0  0  0
  143.2563   77.2983  219.9007 H   0  0  0  0  0  0  0  0  0  0  0  0
  140.4218   77.6269  219.4782 H   0  0  0  0  0  0  0  0  0  0  0  0
  140.9954   76.3944  220.7106 H   0  0  0  0  0  0  0  0  0  0  0  0
  141.9524   79.9166  219.7288 H   0  0  0  0  0  0  0  0  0  0  0  0
  142.3598   81.6567  221.4065 H   0  0  0  0  0  0  0  0  0  0  0  0
  141.5192   78.8385  224.5061 H   0  0  0  0  0  0  0  0  0  0  0  0
  141.1053   77.0965  222.8267 H   0  0  0  0  0  0  0  0  0  0  0  0
  138.7976   69.8961  222.0309 H   0  0  0  0  0  0  0  0  0  0  0  0
  138.4081   68.8498  224.2463 H   0  0  0  0  0  0  0  0  0  0  0  0
  138.7623   68.7302  226.5653 H   0  0  0  0  0  0  0  0  0  0  0  0
  141.3670   71.6176  228.4063 H   0  0  0  0  0  0  0  0  0  0  0  0
  141.7982   72.7020  226.2189 H   0  0  0  0  0  0  0  0  0  0  0  0
  1  2  2  0
  2  3  1  0
  3  4  1  0
  4  5  1  0
  5  6  2  0
  5  7  1  0
  7  8  1  0
  8  9  1  0
  9 10  1  0
 10 11  1  0
 10 12  1  0
 12 13  1  0
 13 14  1  0
 14 15  2  0
 15 16  1  0
 16 17  2  0
 17 18  1  0
 17 19  1  0
 19 20  2  0
  2 21  1  0
 21 22  2  0
 22 23  1  0
 23 24  2  0
 24 25  1  0
 25 26  2  0
 26 27  1  0
 26 28  1  0
 28 29  2  0
 29 30  1  0
 30 31  2  0
 12  7  1  0
 20 14  1  0
 31 21  1  0
 30 24  1  0
  3 32  1  0
  4 33  1  0
  4 34  1  0
  8 35  1  0
  8 36  1  0
  9 37  1  0
  9 38  1  0
 10 39  1  6
 11 40  1  0
 12 41  1  1
 13 42  1  0
 13 43  1  0
 15 44  1  0
 16 45  1  0
 19 46  1  0
 20 47  1  0
 22 48  1  0
 23 49  1  0
 25 50  1  0
 28 51  1  0
 29 52  1  0
M  END
>  <smiles>  (3) 
O=C(NCC(=O)N1CC[C@H](O)[C@H]1Cc1ccc(Cl)cc1)c1ccc2cc(F)ccc2n1

>  <score_type>  (3) 
oracle

>  <origin>  (3) 
autodockgpu

>  <m_score__min__energy>  (3) 
-9.1999999999999993

>  <m_primary>  (3) 
energy

>  <rmsd>  (3) 
2.551527349667462

>  <m_score__min__rmsd>  (3) 
2.551527349667462

>  <meeko>  (3) 
{"free_energy": -8.16, "intermolecular_energy": -10.25, "internal_energy": -1.89, "cluster_size": 19, "cluster_id": 1, "rank_in_cluster": 15}

>  <energy>  (3) 
-8.98

>  <cluster_rmsd>  (3) 
0.45

>  <cluster>  (3) 
1

$$$$

     RDKit          3D

 52 55  0  0  0  0  0  0  0  0999 V2000
  138.1570   70.8960  221.9700 O   0  0  0  0  0  0  0  0  0  0  0  0
  138.8860   71.3180  222.9000 C   0  0  0  0  0  0  0  0  0  0  0  0
  139.3740   72.6510  222.8160 N   0  0  0  0  0  0  0  0  0  0  0  0
  138.9930   73.4340  221.6570 C   0  0  0  0  0  0  0  0  0  0  0  0
  139.7010   74.7560  221.6540 C   0  0  0  0  0  0  0  0  0  0  0  0
  140.9210   74.7140  221.9980 O   0  0  0  0  0  0  0  0  0  0  0  0
  139.0470   75.9660  221.2910 N   0  0  0  0  0  0  0  0  0  0  0  0
  137.9290   76.5030  222.0310 C   0  0  0  0  0  0  0  0  0  0  0  0
  137.2870   77.3890  220.9520 C   0  0  0  0  0  0  0  0  0  0  0  0
  138.5060   77.9290  220.1890 C   0  0  2  0  0  0  0  0  0  0  0  0
  138.0490   78.3210  218.9400 O   0  0  0  0  0  0  0  0  0  0  0  0
  139.4200   76.7620  220.1580 C   0  0  1  0  0  0  0  0  0  0  0  0
  140.8780   77.1350  220.0990 C   0  0  0  0  0  0  0  0  0  0  0  0
  141.2920   78.1490  221.0900 C   0  0  0  0  0  0  0  0  0  0  0  0
  141.8110   79.3830  220.7650 C   0  0  0  0  0  0  0  0  0  0  0  0
  142.1900   80.3180  221.7100 C   0  0  0  0  0  0  0  0  0  0  0  0
  142.0620   80.0460  223.0520 C   0  0  0  0  0  0  0  0  0  0  0  0
  142.5520   81.2540  224.2180 Cl  0  0  0  0  0  0  0  0  0  0  0  0
  141.5470   78.8200  223.4100 C   0  0  0  0  0  0  0  0  0  0  0  0
  141.1690   77.8910  222.4610 C   0  0  0  0  0  0  0  0  0  0  0  0
  139.2350   70.4790  224.0410 C   0  0  0  0  0  0  0  0  0  0  0  0
  138.9160   69.1280  223.9950 C   0  0  0  0  0  0  0  0  0  0  0  0
  139.2380   68.3190  225.0650 C   0  0  0  0  0  0  0  0  0  0  0  0
  139.8600   68.8360  226.1550 C   0  0  0  0  0  0  0  0  0  0  0  0
  140.1640   67.9790  227.2100 C   0  0  0  0  0  0  0  0  0  0  0  0
  140.7980   68.5240  228.3130 C   0  0  0  0  0  0  0  0  0  0  0  0
  141.1210   67.7320  229.3780 F   0  0  0  0  0  0  0  0  0  0  0  0
  141.1100   69.8680  228.3480 C   0  0  0  0  0  0  0  0  0  0  0  0
  140.8080   70.7140  227.3010 C   0  0  0  0  0  0  0  0  0  0  0  0
  140.1780   70.1870  226.2010 C   0  0  0  0  0  0  0  0  0  0  0  0
  139.8510   70.9550  225.1380 N   0  0  0  0  0  0  0  0  0  0  0  0
  139.9840   73.0280  223.5760 H   0  0  0  0  0  0  0  0  0  0  0  0
  139.2582   72.8804  220.7442 H   0  0  0  0  0  0  0  0  0  0  0  0
  137.9084   73.6139  221.6929 H   0  0  0  0  0  0  0  0  0  0  0  0
  137.2446   75.7101  222.3670 H   0  0  0  0  0  0  0  0  0  0  0  0
  138.2001   77.0293  222.9581 H   0  0  0  0  0  0  0  0  0  0  0  0
  136.6347   76.7994  220.2911 H   0  0  0  0  0  0  0  0  0  0  0  0
  136.6437   78.1808  221.3633 H   0  0  0  0  0  0  0  0  0  0  0  0
  139.0213   78.7994  220.6212 H   0  0  0  0  0  0  0  0  0  0  0  0
  138.1250   77.6080  218.2580 H   0  0  0  0  0  0  0  0  0  0  0  0
  139.3098   76.1843  219.2284 H   0  0  0  0  0  0  0  0  0  0  0  0
  141.4724   76.2253  220.2696 H   0  0  0  0  0  0  0  0  0  0  0  0
  141.0469   77.5799  219.1073 H   0  0  0  0  0  0  0  0  0  0  0  0
  141.9297   79.6368  219.7013 H   0  0  0  0  0  0  0  0  0  0  0  0
  142.5972   81.2872  221.3861 H   0  0  0  0  0  0  0  0  0  0  0  0
  141.4342   78.5752  224.4765 H   0  0  0  0  0  0  0  0  0  0  0  0
  140.7610   76.9239  222.7901 H   0  0  0  0  0  0  0  0  0  0  0  0
  138.4111   68.7068  223.1132 H   0  0  0  0  0  0  0  0  0  0  0  0
  138.9891   67.2480  225.0346 H   0  0  0  0  0  0  0  0  0  0  0  0
  139.9098   66.9096  227.1682 H   0  0  0  0  0  0  0  0  0  0  0  0
  141.6140   70.2764  229.2364 H   0  0  0  0  0  0  0  0  0  0  0  0
  141.0652   71.7825  227.3463 H   0  0  0  0  0  0  0  0  0  0  0  0
  1  2  2  0
  2  3  1  0
  3  4  1  0
  4  5  1  0
  5  6  2  0
  5  7  1  0
  7  8  1  0
  8  9  1  0
  9 10  1  0
 10 11  1  0
 10 12  1  0
 12 13  1  0
 13 14  1  0
 14 15  2  0
 15 16  1  0
 16 17  2  0
 17 18  1  0
 17 19  1  0
 19 20  2  0
  2 21  1  0
 21 22  2  0
 22 23  1  0
 23 24  2  0
 24 25  1  0
 25 26  2  0
 26 27  1  0
 26 28  1  0
 28 29  2  0
 29 30  1  0
 30 31  2  0
 12  7  1  0
 20 14  1  0
 31 21  1  0
 30 24  1  0
  3 32  1  0
  4 33  1  0
  4 34  1  0
  8 35  1  0
  8 36  1  0
  9 37  1  0
  9 38  1  0
 10 39  1  1
 11 40  1  0
 12 41  1  6
 13 42  1  0
 13 43  1  0
 15 44  1  0
 16 45  1  0
 19 46  1  0
 20 47  1  0
 22 48  1  0
 23 49  1  0
 25 50  1  0
 28 51  1  0
 29 52  1  0
M  END
>  <smiles>  (4) 
O=C(NCC(=O)N1CC[C@H](O)[C@H]1Cc1ccc(Cl)cc1)c1ccc2cc(F)ccc2n1

>  <score_type>  (4) 
oracle

>  <origin>  (4) 
autodockgpu

>  <m_score__min__energy>  (4) 
-9.1999999999999993

>  <m_primary>  (4) 
energy

>  <rmsd>  (4) 
2.468361788851442

>  <m_score__min__rmsd>  (4) 
2.468361788851442

>  <meeko>  (4) 
{"free_energy": -8.28, "intermolecular_energy": -10.37, "internal_energy": -1.85, "cluster_size": 19, "cluster_id": 1, "rank_in_cluster": 12}

>  <energy>  (4) 
-8.75

>  <cluster_rmsd>  (4) 
1.47

>  <cluster>  (4) 
1

$$$$

     RDKit          3D

 52 55  0  0  0  0  0  0  0  0999 V2000
  137.8350   71.8900  223.1890 O   0  0  0  0  0  0  0  0  0  0  0  0
  138.9920   71.4110  223.2660 C   0  0  0  0  0  0  0  0  0  0  0  0
  139.9320   71.7650  222.2600 N   0  0  0  0  0  0  0  0  0  0  0  0
  139.4880   72.6610  221.2100 C   0  0  0  0  0  0  0  0  0  0  0  0
  140.1540   73.9990  221.3360 C   0  0  0  0  0  0  0  0  0  0  0  0
  139.6230   74.7870  222.1750 O   0  0  0  0  0  0  0  0  0  0  0  0
  141.2980   74.3510  220.5660 N   0  0  0  0  0  0  0  0  0  0  0  0
  141.9230   73.4430  219.6330 C   0  0  0  0  0  0  0  0  0  0  0  0
  143.3300   74.0560  219.5570 C   0  0  0  0  0  0  0  0  0  0  0  0
  143.0480   75.5630  219.6560 C   0  0  2  0  0  0  0  0  0  0  0  0
  144.2250   76.1590  220.0830 O   0  0  0  0  0  0  0  0  0  0  0  0
  141.9450   75.6280  220.6450 C   0  0  1  0  0  0  0  0  0  0  0  0
  141.0340   76.8130  220.4600 C   0  0  0  0  0  0  0  0  0  0  0  0
  141.3180   77.9510  221.3580 C   0  0  0  0  0  0  0  0  0  0  0  0
  141.2200   77.8980  222.7310 C   0  0  0  0  0  0  0  0  0  0  0  0
  141.4940   78.9750  223.5530 C   0  0  0  0  0  0  0  0  0  0  0  0
  141.8860   80.1800  223.0170 C   0  0  0  0  0  0  0  0  0  0  0  0
  142.2240   81.5200  224.0880 Cl  0  0  0  0  0  0  0  0  0  0  0  0
  141.9930   80.2660  221.6470 C   0  0  0  0  0  0  0  0  0  0  0  0
  141.7190   79.1860  220.8320 C   0  0  0  0  0  0  0  0  0  0  0  0
  139.3790   70.5140  224.3490 C   0  0  0  0  0  0  0  0  0  0  0  0
  139.1200   69.1560  224.2120 C   0  0  0  0  0  0  0  0  0  0  0  0
  139.4790   68.2920  225.2250 C   0  0  0  0  0  0  0  0  0  0  0  0
  140.0800   68.7610  226.3490 C   0  0  0  0  0  0  0  0  0  0  0  0
  140.4230   67.8500  227.3440 C   0  0  0  0  0  0  0  0  0  0  0  0
  141.0350   68.3470  228.4820 C   0  0  0  0  0  0  0  0  0  0  0  0
  141.3940   67.5000  229.4910 F   0  0  0  0  0  0  0  0  0  0  0  0
  141.2870   69.6970  228.6070 C   0  0  0  0  0  0  0  0  0  0  0  0
  140.9460   70.5980  227.6190 C   0  0  0  0  0  0  0  0  0  0  0  0
  140.3390   70.1190  226.4850 C   0  0  0  0  0  0  0  0  0  0  0  0
  139.9760   70.9410  225.4750 N   0  0  0  0  0  0  0  0  0  0  0  0
  140.9020   71.3810  222.2990 H   0  0  0  0  0  0  0  0  0  0  0  0
  139.7390   72.2237  220.2324 H   0  0  0  0  0  0  0  0  0  0  0  0
  138.4003   72.7983  221.2996 H   0  0  0  0  0  0  0  0  0  0  0  0
  141.9475   72.4138  220.0206 H   0  0  0  0  0  0  0  0  0  0  0  0
  141.4080   73.3491  218.6655 H   0  0  0  0  0  0  0  0  0  0  0  0
  143.9573   73.7141  220.3935 H   0  0  0  0  0  0  0  0  0  0  0  0
  143.8804   73.7739  218.6473 H   0  0  0  0  0  0  0  0  0  0  0  0
  142.7545   76.0790  218.7299 H   0  0  0  0  0  0  0  0  0  0  0  0
  144.1340   77.1330  220.2320 H   0  0  0  0  0  0  0  0  0  0  0  0
  142.3214   75.8060  221.6632 H   0  0  0  0  0  0  0  0  0  0  0  0
  141.1315   77.1623  219.4215 H   0  0  0  0  0  0  0  0  0  0  0  0
  140.0186   76.4678  220.7046 H   0  0  0  0  0  0  0  0  0  0  0  0
  140.9081   76.9514  223.1965 H   0  0  0  0  0  0  0  0  0  0  0  0
  141.3980   78.8679  224.6435 H   0  0  0  0  0  0  0  0  0  0  0  0
  142.3041   81.2176  221.1912 H   0  0  0  0  0  0  0  0  0  0  0  0
  141.8180   79.2979  219.7422 H   0  0  0  0  0  0  0  0  0  0  0  0
  138.6327   68.7732  223.3032 H   0  0  0  0  0  0  0  0  0  0  0  0
  139.2772   67.2156  225.1220 H   0  0  0  0  0  0  0  0  0  0  0  0
  140.2156   66.7757  227.2304 H   0  0  0  0  0  0  0  0  0  0  0  0
  141.7743   70.0666  229.5213 H   0  0  0  0  0  0  0  0  0  0  0  0
  141.1551   71.6715  227.7371 H   0  0  0  0  0  0  0  0  0  0  0  0
  1  2  2  0
  2  3  1  0
  3  4  1  0
  4  5  1  0
  5  6  2  0
  5  7  1  0
  7  8  1  0
  8  9  1  0
  9 10  1  0
 10 11  1  0
 10 12  1  0
 12 13  1  0
 13 14  1  0
 14 15  2  0
 15 16  1  0
 16 17  2  0
 17 18  1  0
 17 19  1  0
 19 20  2  0
  2 21  1  0
 21 22  2  0
 22 23  1  0
 23 24  2  0
 24 25  1  0
 25 26  2  0
 26 27  1  0
 26 28  1  0
 28 29  2  0
 29 30  1  0
 30 31  2  0
 12  7  1  0
 20 14  1  0
 31 21  1  0
 30 24  1  0
  3 32  1  0
  4 33  1  0
  4 34  1  0
  8 35  1  0
  8 36  1  0
  9 37  1  0
  9 38  1  0
 10 39  1  6
 11 40  1  0
 12 41  1  1
 13 42  1  0
 13 43  1  0
 15 44  1  0
 16 45  1  0
 19 46  1  0
 20 47  1  0
 22 48  1  0
 23 49  1  0
 25 50  1  0
 28 51  1  0
 29 52  1  0
M  END
>  <smiles>  (5) 
O=C(NCC(=O)N1CC[C@H](O)[C@H]1Cc1ccc(Cl)cc1)c1ccc2cc(F)ccc2n1

>  <score_type>  (5) 
oracle

>  <origin>  (5) 
autodockgpu

>  <m_score__min__energy>  (5) 
-9.1999999999999993

>  <m_primary>  (5) 
energy

>  <rmsd>  (5) 
2.4336057163699403

>  <m_score__min__rmsd>  (5) 
2.4336057163699403

>  <meeko>  (5) 
{"free_energy": -9.2, "intermolecular_energy": -11.29, "internal_energy": -1.23, "cluster_size": 19, "cluster_id": 1, "rank_in_cluster": 1}

>  <energy>  (5) 
-8.63

>  <cluster_rmsd>  (5) 
1.19

>  <cluster>  (5) 
1

$$$$

     RDKit          3D

 52 55  0  0  0  0  0  0  0  0999 V2000
  141.0880   72.4270  221.5300 O   0  0  0  0  0  0  0  0  0  0  0  0
  140.2230   72.5430  222.4320 C   0  0  0  0  0  0  0  0  0  0  0  0
  139.3030   73.6230  222.3430 N   0  0  0  0  0  0  0  0  0  0  0  0
  139.4260   74.5190  221.2100 C   0  0  0  0  0  0  0  0  0  0  0  0
  138.8760   75.8740  221.5440 C   0  0  0  0  0  0  0  0  0  0  0  0
  138.4570   76.0070  222.7330 O   0  0  0  0  0  0  0  0  0  0  0  0
  138.8310   76.9300  220.5900 N   0  0  0  0  0  0  0  0  0  0  0  0
  137.7580   77.8960  220.5430 C   0  0  0  0  0  0  0  0  0  0  0  0
  137.8830   78.3700  219.0870 C   0  0  0  0  0  0  0  0  0  0  0  0
  139.4010   78.3500  218.8540 C   0  0  2  0  0  0  0  0  0  0  0  0
  139.5900   78.2820  217.4810 O   0  0  0  0  0  0  0  0  0  0  0  0
  139.8320   77.1330  219.5840 C   0  0  1  0  0  0  0  0  0  0  0  0
  141.2440   77.2030  220.0990 C   0  0  0  0  0  0  0  0  0  0  0  0
  141.4770   78.2550  221.1100 C   0  0  0  0  0  0  0  0  0  0  0  0
  141.3770   78.0580  222.4690 C   0  0  0  0  0  0  0  0  0  0  0  0
  141.6030   79.0570  223.3980 C   0  0  0  0  0  0  0  0  0  0  0  0
  141.9440   80.3250  222.9910 C   0  0  0  0  0  0  0  0  0  0  0  0
  142.2220   81.5630  224.1950 Cl  0  0  0  0  0  0  0  0  0  0  0  0
  142.0520   80.5550  221.6370 C   0  0  0  0  0  0  0  0  0  0  0  0
  141.8270   79.5530  220.7150 C   0  0  0  0  0  0  0  0  0  0  0  0
  140.1510   71.6070  223.5490 C   0  0  0  0  0  0  0  0  0  0  0  0
  139.5830   70.3580  223.3330 C   0  0  0  0  0  0  0  0  0  0  0  0
  139.5050   69.4600  224.3770 C   0  0  0  0  0  0  0  0  0  0  0  0
  139.9800   69.7900  225.6060 C   0  0  0  0  0  0  0  0  0  0  0  0
  139.8790   68.8490  226.6270 C   0  0  0  0  0  0  0  0  0  0  0  0
  140.3670   69.2040  227.8720 C   0  0  0  0  0  0  0  0  0  0  0  0
  140.2950   68.3220  228.9130 F   0  0  0  0  0  0  0  0  0  0  0  0
  140.9290   70.4480  228.0750 C   0  0  0  0  0  0  0  0  0  0  0  0
  141.0280   71.3780  227.0600 C   0  0  0  0  0  0  0  0  0  0  0  0
  140.5470   71.0390  225.8200 C   0  0  0  0  0  0  0  0  0  0  0  0
  140.6100   71.8980  224.7790 N   0  0  0  0  0  0  0  0  0  0  0  0
  138.5730   73.7430  223.0800 H   0  0  0  0  0  0  0  0  0  0  0  0
  140.4880   74.6167  220.9404 H   0  0  0  0  0  0  0  0  0  0  0  0
  138.8550   74.1034  220.3666 H   0  0  0  0  0  0  0  0  0  0  0  0
  136.7809   77.4295  220.7372 H   0  0  0  0  0  0  0  0  0  0  0  0
  137.8233   78.6954  221.2958 H   0  0  0  0  0  0  0  0  0  0  0  0
  137.3673   77.6825  218.4005 H   0  0  0  0  0  0  0  0  0  0  0  0
  137.4271   79.3550  218.9081 H   0  0  0  0  0  0  0  0  0  0  0  0
  139.9725   79.2216  219.2057 H   0  0  0  0  0  0  0  0  0  0  0  0
  139.0870   77.5430  217.0570 H   0  0  0  0  0  0  0  0  0  0  0  0
  139.8927   76.2588  218.9191 H   0  0  0  0  0  0  0  0  0  0  0  0
  141.4934   76.2315  220.5506 H   0  0  0  0  0  0  0  0  0  0  0  0
  141.8792   77.4526  219.2363 H   0  0  0  0  0  0  0  0  0  0  0  0
  141.1039   77.0568  222.8336 H   0  0  0  0  0  0  0  0  0  0  0  0
  141.5092   78.8353  224.4713 H   0  0  0  0  0  0  0  0  0  0  0  0
  142.3238   81.5603  221.2826 H   0  0  0  0  0  0  0  0  0  0  0  0
  141.9249   79.7791  219.6429 H   0  0  0  0  0  0  0  0  0  0  0  0
  139.1989   70.0875  222.3384 H   0  0  0  0  0  0  0  0  0  0  0  0
  139.0550   68.4697  224.2132 H   0  0  0  0  0  0  0  0  0  0  0  0
  139.4285   67.8611  226.4506 H   0  0  0  0  0  0  0  0  0  0  0  0
  141.3090   70.7058  229.0746 H   0  0  0  0  0  0  0  0  0  0  0  0
  141.4803   72.3644  227.2400 H   0  0  0  0  0  0  0  0  0  0  0  0
  1  2  2  0
  2  3  1  0
  3  4  1  0
  4  5  1  0
  5  6  2  0
  5  7  1  0
  7  8  1  0
  8  9  1  0
  9 10  1  0
 10 11  1  0
 10 12  1  0
 12 13  1  0
 13 14  1  0
 14 15  2  0
 15 16  1  0
 16 17  2  0
 17 18  1  0
 17 19  1  0
 19 20  2  0
  2 21  1  0
 21 22  2  0
 22 23  1  0
 23 24  2  0
 24 25  1  0
 25 26  2  0
 26 27  1  0
 26 28  1  0
 28 29  2  0
 29 30  1  0
 30 31  2  0
 12  7  1  0
 20 14  1  0
 31 21  1  0
 30 24  1  0
  3 32  1  0
  4 33  1  0
  4 34  1  0
  8 35  1  0
  8 36  1  0
  9 37  1  0
  9 38  1  0
 10 39  1  1
 11 40  1  0
 12 41  1  6
 13 42  1  0
 13 43  1  0
 15 44  1  0
 16 45  1  0
 19 46  1  0
 20 47  1  0
 22 48  1  0
 23 49  1  0
 25 50  1  0
 28 51  1  0
 29 52  1  0
M  END
>  <smiles>  (6) 
O=C(NCC(=O)N1CC[C@H](O)[C@H]1Cc1ccc(Cl)cc1)c1ccc2cc(F)ccc2n1

>  <score_type>  (6) 
oracle

>  <origin>  (6) 
autodockgpu

>  <m_score__min__energy>  (6) 
-9.1999999999999993

>  <m_primary>  (6) 
energy

>  <rmsd>  (6) 
2.2701114003853333

>  <m_score__min__rmsd>  (6) 
2.2701114003853333

>  <meeko>  (6) 
{"free_energy": -7.94, "intermolecular_energy": -10.03, "internal_energy": -1.97, "cluster_size": 3, "cluster_id": 4, "rank_in_cluster": 2}

>  <energy>  (6) 
-8.62

>  <cluster_rmsd>  (6) 
1.37

>  <cluster>  (6) 
1

$$$$

     RDKit          3D

 52 55  0  0  0  0  0  0  0  0999 V2000
  141.2340   72.6400  221.1800 O   0  0  0  0  0  0  0  0  0  0  0  0
  140.3770   72.8480  222.0730 C   0  0  0  0  0  0  0  0  0  0  0  0
  139.5950   74.0320  221.9880 N   0  0  0  0  0  0  0  0  0  0  0  0
  139.8420   74.9210  220.8700 C   0  0  0  0  0  0  0  0  0  0  0  0
  140.9420   75.8890  221.1940 C   0  0  0  0  0  0  0  0  0  0  0  0
  141.4760   75.7330  222.3330 O   0  0  0  0  0  0  0  0  0  0  0  0
  141.3500   76.9040  220.2850 N   0  0  0  0  0  0  0  0  0  0  0  0
  140.7680   78.2270  220.2770 C   0  0  0  0  0  0  0  0  0  0  0  0
  141.1020   78.6620  218.8420 C   0  0  0  0  0  0  0  0  0  0  0  0
  142.4820   78.0300  218.6090 C   0  0  2  0  0  0  0  0  0  0  0  0
  142.6510   77.9420  217.2360 O   0  0  0  0  0  0  0  0  0  0  0  0
  142.3630   76.7170  219.2880 C   0  0  1  0  0  0  0  0  0  0  0  0
  143.6710   76.1820  219.8070 C   0  0  0  0  0  0  0  0  0  0  0  0
  143.7870   74.7090  219.7750 C   0  0  0  0  0  0  0  0  0  0  0  0
  143.0650   73.8940  218.9320 C   0  0  0  0  0  0  0  0  0  0  0  0
  143.1920   72.5170  218.9170 C   0  0  0  0  0  0  0  0  0  0  0  0
  144.0690   71.8880  219.7690 C   0  0  0  0  0  0  0  0  0  0  0  0
  144.2020   70.1440  219.7210 Cl  0  0  0  0  0  0  0  0  0  0  0  0
  144.8060   72.6750  220.6250 C   0  0  0  0  0  0  0  0  0  0  0  0
  144.6750   74.0490  220.6340 C   0  0  0  0  0  0  0  0  0  0  0  0
  140.1760   71.9120  223.1740 C   0  0  0  0  0  0  0  0  0  0  0  0
  139.4330   70.7620  222.9420 C   0  0  0  0  0  0  0  0  0  0  0  0
  139.2330   69.8660  223.9710 C   0  0  0  0  0  0  0  0  0  0  0  0
  139.7550   70.1040  225.2020 C   0  0  0  0  0  0  0  0  0  0  0  0
  139.5250   69.1700  226.2090 C   0  0  0  0  0  0  0  0  0  0  0  0
  140.0650   69.4290  227.4560 C   0  0  0  0  0  0  0  0  0  0  0  0
  139.8720   68.5490  228.4820 F   0  0  0  0  0  0  0  0  0  0  0  0
  140.8010   70.5750  227.6750 C   0  0  0  0  0  0  0  0  0  0  0  0
  141.0280   71.4990  226.6750 C   0  0  0  0  0  0  0  0  0  0  0  0
  140.4980   71.2540  225.4330 C   0  0  0  0  0  0  0  0  0  0  0  0
  140.6780   72.1140  224.4050 N   0  0  0  0  0  0  0  0  0  0  0  0
  138.8750   74.2300  222.7180 H   0  0  0  0  0  0  0  0  0  0  0  0
  140.1326   74.3250  219.9923 H   0  0  0  0  0  0  0  0  0  0  0  0
  138.9231   75.4879  220.6596 H   0  0  0  0  0  0  0  0  0  0  0  0
  139.6823   78.1956  220.4509 H   0  0  0  0  0  0  0  0  0  0  0  0
  141.1420   78.9004  221.0622 H   0  0  0  0  0  0  0  0  0  0  0  0
  140.3619   78.2728  218.1273 H   0  0  0  0  0  0  0  0  0  0  0  0
  141.0932   79.7533  218.7039 H   0  0  0  0  0  0  0  0  0  0  0  0
  143.3542   78.5768  218.9967 H   0  0  0  0  0  0  0  0  0  0  0  0
  143.3090   78.5910  216.8840 H   0  0  0  0  0  0  0  0  0  0  0  0
  142.0710   75.9215  218.5866 H   0  0  0  0  0  0  0  0  0  0  0  0
  144.4818   76.6038  219.1949 H   0  0  0  0  0  0  0  0  0  0  0  0
  143.7321   76.4775  220.8648 H   0  0  0  0  0  0  0  0  0  0  0  0
  142.3523   74.3611  218.2364 H   0  0  0  0  0  0  0  0  0  0  0  0
  142.5870   71.9205  218.2183 H   0  0  0  0  0  0  0  0  0  0  0  0
  145.5153   72.1981  221.3174 H   0  0  0  0  0  0  0  0  0  0  0  0
  145.2835   74.6408  221.3336 H   0  0  0  0  0  0  0  0  0  0  0  0
  139.0078   70.5675  221.9463 H   0  0  0  0  0  0  0  0  0  0  0  0
  138.6467   68.9523  223.7936 H   0  0  0  0  0  0  0  0  0  0  0  0
  138.9360   68.2604  226.0200 H   0  0  0  0  0  0  0  0  0  0  0  0
  141.2192   70.7578  228.6758 H   0  0  0  0  0  0  0  0  0  0  0  0
  141.6178   72.4072  226.8683 H   0  0  0  0  0  0  0  0  0  0  0  0
  1  2  2  0
  2  3  1  0
  3  4  1  0
  4  5  1  0
  5  6  2  0
  5  7  1  0
  7  8  1  0
  8  9  1  0
  9 10  1  0
 10 11  1  0
 10 12  1  0
 12 13  1  0
 13 14  1  0
 14 15  2  0
 15 16  1  0
 16 17  2  0
 17 18  1  0
 17 19  1  0
 19 20  2  0
  2 21  1  0
 21 22  2  0
 22 23  1  0
 23 24  2  0
 24 25  1  0
 25 26  2  0
 26 27  1  0
 26 28  1  0
 28 29  2  0
 29 30  1  0
 30 31  2  0
 12  7  1  0
 20 14  1  0
 31 21  1  0
 30 24  1  0
  3 32  1  0
  4 33  1  0
  4 34  1  0
  8 35  1  0
  8 36  1  0
  9 37  1  0
  9 38  1  0
 10 39  1  1
 11 40  1  0
 12 41  1  6
 13 42  1  0
 13 43  1  0
 15 44  1  0
 16 45  1  0
 19 46  1  0
 20 47  1  0
 22 48  1  0
 23 49  1  0
 25 50  1  0
 28 51  1  0
 29 52  1  0
M  END
>  <smiles>  (7) 
O=C(NCC(=O)N1CC[C@H](O)[C@H]1Cc1ccc(Cl)cc1)c1ccc2cc(F)ccc2n1

>  <score_type>  (7) 
oracle

>  <origin>  (7) 
autodockgpu

>  <m_score__min__energy>  (7) 
-9.1999999999999993

>  <m_primary>  (7) 
energy

>  <rmsd>  (7) 
2.428468910990676

>  <m_score__min__rmsd>  (7) 
2.428468910990676

>  <meeko>  (7) 
{"free_energy": -8.0, "intermolecular_energy": -10.08, "internal_energy": -1.99, "cluster_size": 23, "cluster_id": 2, "rank_in_cluster": 16}

>  <energy>  (7) 
-8.58

>  <cluster_rmsd>  (7) 
1.6

>  <cluster>  (7) 
1

$$$$

     RDKit          3D

 52 55  0  0  0  0  0  0  0  0999 V2000
  137.8170   71.6270  222.6670 O   0  0  0  0  0  0  0  0  0  0  0  0
  138.9910   71.4880  223.0880 C   0  0  0  0  0  0  0  0  0  0  0  0
  140.0260   72.2090  222.4320 N   0  0  0  0  0  0  0  0  0  0  0  0
  139.6520   73.0600  221.3190 C   0  0  0  0  0  0  0  0  0  0  0  0
  140.4300   74.3420  221.3450 C   0  0  0  0  0  0  0  0  0  0  0  0
  140.1950   75.0920  222.3400 O   0  0  0  0  0  0  0  0  0  0  0  0
  141.3600   74.6860  220.3250 N   0  0  0  0  0  0  0  0  0  0  0  0
  141.7830   73.7530  219.3060 C   0  0  0  0  0  0  0  0  0  0  0  0
  143.1200   74.3890  218.8940 C   0  0  0  0  0  0  0  0  0  0  0  0
  142.8270   75.8930  219.0030 C   0  0  2  0  0  0  0  0  0  0  0  0
  144.0540   76.5260  219.1320 O   0  0  0  0  0  0  0  0  0  0  0  0
  141.9740   75.9760  220.2130 C   0  0  1  0  0  0  0  0  0  0  0  0
  141.0140   77.1360  220.2000 C   0  0  0  0  0  0  0  0  0  0  0  0
  141.3400   78.2130  221.1570 C   0  0  0  0  0  0  0  0  0  0  0  0
  141.8240   79.4510  220.7950 C   0  0  0  0  0  0  0  0  0  0  0  0
  142.1200   80.4460  221.7080 C   0  0  0  0  0  0  0  0  0  0  0  0
  141.9380   80.2340  223.0540 C   0  0  0  0  0  0  0  0  0  0  0  0
  142.3230   81.5160  224.1800 Cl  0  0  0  0  0  0  0  0  0  0  0  0
  141.4560   79.0060  223.4500 C   0  0  0  0  0  0  0  0  0  0  0  0
  141.1610   78.0170  222.5330 C   0  0  0  0  0  0  0  0  0  0  0  0
  139.3040   70.6160  224.2140 C   0  0  0  0  0  0  0  0  0  0  0  0
  138.8450   69.3050  224.1870 C   0  0  0  0  0  0  0  0  0  0  0  0
  139.1310   68.4650  225.2430 C   0  0  0  0  0  0  0  0  0  0  0  0
  139.8540   68.9130  226.3020 C   0  0  0  0  0  0  0  0  0  0  0  0
  140.1170   68.0280  227.3440 C   0  0  0  0  0  0  0  0  0  0  0  0
  140.8550   68.5030  228.4140 C   0  0  0  0  0  0  0  0  0  0  0  0
  141.1430   67.6800  229.4650 F   0  0  0  0  0  0  0  0  0  0  0  0
  141.3040   69.8070  228.4310 C   0  0  0  0  0  0  0  0  0  0  0  0
  141.0430   70.6820  227.3960 C   0  0  0  0  0  0  0  0  0  0  0  0
  140.3120   70.2240  226.3280 C   0  0  0  0  0  0  0  0  0  0  0  0
  140.0160   71.0240  225.2790 N   0  0  0  0  0  0  0  0  0  0  0  0
  141.0120   72.1130  222.7600 H   0  0  0  0  0  0  0  0  0  0  0  0
  139.8578   72.5321  220.3761 H   0  0  0  0  0  0  0  0  0  0  0  0
  138.5805   73.2957  221.3994 H   0  0  0  0  0  0  0  0  0  0  0  0
  141.9216   72.7404  219.7128 H   0  0  0  0  0  0  0  0  0  0  0  0
  141.0663   73.6113  218.4836 H   0  0  0  0  0  0  0  0  0  0  0  0
  143.9281   74.0918  219.5785 H   0  0  0  0  0  0  0  0  0  0  0  0
  143.4593   74.0820  217.8937 H   0  0  0  0  0  0  0  0  0  0  0  0
  142.3183   76.3674  218.1509 H   0  0  0  0  0  0  0  0  0  0  0  0
  144.0620   77.2130  219.8450 H   0  0  0  0  0  0  0  0  0  0  0  0
  142.5656   76.2000  221.1129 H   0  0  0  0  0  0  0  0  0  0  0  0
  141.0089   77.5662  219.1876 H   0  0  0  0  0  0  0  0  0  0  0  0
  140.0354   76.7350  220.5025 H   0  0  0  0  0  0  0  0  0  0  0  0
  141.9828   79.6581  219.7264 H   0  0  0  0  0  0  0  0  0  0  0  0
  142.5039   81.4144  221.3548 H   0  0  0  0  0  0  0  0  0  0  0  0
  141.3026   78.8088  224.5212 H   0  0  0  0  0  0  0  0  0  0  0  0
  140.7758   77.0510  222.8914 H   0  0  0  0  0  0  0  0  0  0  0  0
  138.2586   68.9401  223.3309 H   0  0  0  0  0  0  0  0  0  0  0  0
  138.7712   67.4256  225.2274 H   0  0  0  0  0  0  0  0  0  0  0  0
  139.7521   66.9906  227.3178 H   0  0  0  0  0  0  0  0  0  0  0  0
  141.8870   70.1599  229.2945 H   0  0  0  0  0  0  0  0  0  0  0  0
  141.4107   71.7183  227.4260 H   0  0  0  0  0  0  0  0  0  0  0  0
  1  2  2  0
  2  3  1  0
  3  4  1  0
  4  5  1  0
  5  6  2  0
  5  7  1  0
  7  8  1  0
  8  9  1  0
  9 10  1  0
 10 11  1  0
 10 12  1  0
 12 13  1  0
 13 14  1  0
 14 15  2  0
 15 16  1  0
 16 17  2  0
 17 18  1  0
 17 19  1  0
 19 20  2  0
  2 21  1  0
 21 22  2  0
 22 23  1  0
 23 24  2  0
 24 25  1  0
 25 26  2  0
 26 27  1  0
 26 28  1  0
 28 29  2  0
 29 30  1  0
 30 31  2  0
 12  7  1  0
 20 14  1  0
 31 21  1  0
 30 24  1  0
  3 32  1  0
  4 33  1  0
  4 34  1  0
  8 35  1  0
  8 36  1  0
  9 37  1  0
  9 38  1  0
 10 39  1  6
 11 40  1  0
 12 41  1  1
 13 42  1  0
 13 43  1  0
 15 44  1  0
 16 45  1  0
 19 46  1  0
 20 47  1  0
 22 48  1  0
 23 49  1  0
 25 50  1  0
 28 51  1  0
 29 52  1  0
M  END
>  <smiles>  (8) 
O=C(NCC(=O)N1CC[C@H](O)[C@H]1Cc1ccc(Cl)cc1)c1ccc2cc(F)ccc2n1

>  <score_type>  (8) 
oracle

>  <origin>  (8) 
autodockgpu

>  <m_score__min__energy>  (8) 
-9.1999999999999993

>  <m_primary>  (8) 
energy

>  <rmsd>  (8) 
2.1491785465963376

>  <m_score__min__rmsd>  (8) 
2.1491785465963376

>  <meeko>  (8) 
{"free_energy": -8.98, "intermolecular_energy": -11.07, "internal_energy": -1.3, "cluster_size": 19, "cluster_id": 1, "rank_in_cluster": 3}

>  <energy>  (8) 
-8.57

>  <cluster_rmsd>  (8) 
1.55

>  <cluster>  (8) 
1

$$$$

     RDKit          3D

 52 55  0  0  0  0  0  0  0  0999 V2000
  138.6680   72.2160  221.8170 O   0  0  0  0  0  0  0  0  0  0  0  0
  139.7580   71.8650  222.3300 C   0  0  0  0  0  0  0  0  0  0  0  0
  140.9610   72.2910  221.7030 N   0  0  0  0  0  0  0  0  0  0  0  0
  140.8450   73.1050  220.5090 C   0  0  0  0  0  0  0  0  0  0  0  0
  142.0350   74.0070  220.3640 C   0  0  0  0  0  0  0  0  0  0  0  0
  143.0020   73.7520  221.1450 O   0  0  0  0  0  0  0  0  0  0  0  0
  142.0710   75.0690  219.4180 N   0  0  0  0  0  0  0  0  0  0  0  0
  142.0690   74.8460  217.9910 C   0  0  0  0  0  0  0  0  0  0  0  0
  142.6860   76.1670  217.5070 C   0  0  0  0  0  0  0  0  0  0  0  0
  142.1080   77.1910  218.4950 C   0  0  2  0  0  0  0  0  0  0  0  0
  142.9520   78.2910  218.4640 O   0  0  0  0  0  0  0  0  0  0  0  0
  142.1230   76.4550  219.7820 C   0  0  1  0  0  0  0  0  0  0  0  0
  141.0550   76.8970  220.7460 C   0  0  0  0  0  0  0  0  0  0  0  0
  141.4240   78.0590  221.5800 C   0  0  0  0  0  0  0  0  0  0  0  0
  141.8010   79.2850  221.0760 C   0  0  0  0  0  0  0  0  0  0  0  0
  142.1400   80.3610  221.8750 C   0  0  0  0  0  0  0  0  0  0  0  0
  142.1150   80.2480  223.2450 C   0  0  0  0  0  0  0  0  0  0  0  0
  142.5500   81.6310  224.2230 Cl  0  0  0  0  0  0  0  0  0  0  0  0
  141.7430   79.0360  223.7810 C   0  0  0  0  0  0  0  0  0  0  0  0
  141.4050   77.9650  222.9770 C   0  0  0  0  0  0  0  0  0  0  0  0
  139.8090   71.0430  223.5340 C   0  0  0  0  0  0  0  0  0  0  0  0
  139.2270   69.7830  223.5030 C   0  0  0  0  0  0  0  0  0  0  0  0
  139.2650   68.9910  224.6320 C   0  0  0  0  0  0  0  0  0  0  0  0
  139.8660   69.4370  225.7650 C   0  0  0  0  0  0  0  0  0  0  0  0
  139.8780   68.6010  226.8790 C   0  0  0  0  0  0  0  0  0  0  0  0
  140.4950   69.0740  228.0240 C   0  0  0  0  0  0  0  0  0  0  0  0
  140.5380   68.2980  229.1480 F   0  0  0  0  0  0  0  0  0  0  0  0
  141.0690   70.3280  228.0440 C   0  0  0  0  0  0  0  0  0  0  0  0
  141.0560   71.1530  226.9380 C   0  0  0  0  0  0  0  0  0  0  0  0
  140.4470   70.6980  225.7950 C   0  0  0  0  0  0  0  0  0  0  0  0
  140.3950   71.4510  224.6740 N   0  0  0  0  0  0  0  0  0  0  0  0
  141.8830   72.0130  222.1080 H   0  0  0  0  0  0  0  0  0  0  0  0
  140.7806   72.4481  219.6291 H   0  0  0  0  0  0  0  0  0  0  0  0
  139.9397   73.7245  220.5901 H   0  0  0  0  0  0  0  0  0  0  0  0
  142.6892   73.9810  217.7132 H   0  0  0  0  0  0  0  0  0  0  0  0
  141.0830   74.6135  217.5623 H   0  0  0  0  0  0  0  0  0  0  0  0
  143.7841   76.1365  217.5643 H   0  0  0  0  0  0  0  0  0  0  0  0
  142.4569   76.3968  216.4560 H   0  0  0  0  0  0  0  0  0  0  0  0
  141.0952   77.5676  218.2890 H   0  0  0  0  0  0  0  0  0  0  0  0
  143.7010   78.2230  219.1070 H   0  0  0  0  0  0  0  0  0  0  0  0
  143.0334   76.6675  220.3617 H   0  0  0  0  0  0  0  0  0  0  0  0
  140.1577   77.1610  220.1670 H   0  0  0  0  0  0  0  0  0  0  0  0
  140.8902   76.0567  221.4364 H   0  0  0  0  0  0  0  0  0  0  0  0
  141.8338   79.4138  219.9841 H   0  0  0  0  0  0  0  0  0  0  0  0
  142.4319   81.3148  221.4112 H   0  0  0  0  0  0  0  0  0  0  0  0
  141.7142   78.9177  224.8743 H   0  0  0  0  0  0  0  0  0  0  0  0
  141.1134   77.0138  223.4462 H   0  0  0  0  0  0  0  0  0  0  0  0
  138.7398   69.4193  222.5863 H   0  0  0  0  0  0  0  0  0  0  0  0
  138.8055   67.9917  224.6142 H   0  0  0  0  0  0  0  0  0  0  0  0
  139.4151   67.6036  226.8499 H   0  0  0  0  0  0  0  0  0  0  0  0
  141.5508   70.6804  228.9679 H   0  0  0  0  0  0  0  0  0  0  0  0
  141.5214   72.1491  226.9714 H   0  0  0  0  0  0  0  0  0  0  0  0
  1  2  2  0
  2  3  1  0
  3  4  1  0
  4  5  1  0
  5  6  2  0
  5  7  1  0
  7  8  1  0
  8  9  1  0
  9 10  1  0
 10 11  1  0
 10 12  1  0
 12 13  1  0
 13 14  1  0
 14 15  2  0
 15 16  1  0
 16 17  2  0
 17 18  1  0
 17 19  1  0
 19 20  2  0
  2 21  1  0
 21 22  2  0
 22 23  1  0
 23 24  2  0
 24 25  1  0
 25 26  2  0
 26 27  1  0
 26 28  1  0
 28 29  2  0
 29 30  1  0
 30 31  2  0
 12  7  1  0
 20 14  1  0
 31 21  1  0
 30 24  1  0
  3 32  1  0
  4 33  1  0
  4 34  1  0
  8 35  1  0
  8 36  1  0
  9 37  1  0
  9 38  1  0
 10 39  1  6
 11 40  1  0
 12 41  1  1
 13 42  1  0
 13 43  1  0
 15 44  1  0
 16 45  1  0
 19 46  1  0
 20 47  1  0
 22 48  1  0
 23 49  1  0
 25 50  1  0
 28 51  1  0
 29 52  1  0
M  END
>  <smiles>  (9) 
O=C(NCC(=O)N1CC[C@H](O)[C@H]1Cc1ccc(Cl)cc1)c1ccc2cc(F)ccc2n1

>  <score_type>  (9) 
oracle

>  <origin>  (9) 
autodockgpu

>  <m_score__min__energy>  (9) 
-9.1999999999999993

>  <m_primary>  (9) 
energy

>  <rmsd>  (9) 
2.232002089619226

>  <m_score__min__rmsd>  (9) 
2.232002089619226

>  <meeko>  (9) 
{"free_energy": -8.38, "intermolecular_energy": -10.47, "internal_energy": -1.73, "cluster_size": 19, "cluster_id": 1, "rank_in_cluster": 9}

>  <energy>  (9) 
-8.38

>  <cluster_rmsd>  (9) 
1.32

>  <cluster>  (9) 
1

$$$$

     RDKit          3D

 52 55  0  0  0  0  0  0  0  0999 V2000
  141.0810   72.1720  220.9290 O   0  0  0  0  0  0  0  0  0  0  0  0
  140.5230   72.6050  221.9660 C   0  0  0  0  0  0  0  0  0  0  0  0
  140.1350   73.9730  221.9970 N   0  0  0  0  0  0  0  0  0  0  0  0
  140.4110   74.7760  220.8230 C   0  0  0  0  0  0  0  0  0  0  0  0
  140.9780   76.1090  221.2130 C   0  0  0  0  0  0  0  0  0  0  0  0
  141.0450   76.3210  222.4610 O   0  0  0  0  0  0  0  0  0  0  0  0
  141.4050   77.0630  220.2470 N   0  0  0  0  0  0  0  0  0  0  0  0
  140.8580   78.3980  220.1710 C   0  0  0  0  0  0  0  0  0  0  0  0
  141.1920   78.7460  218.7120 C   0  0  0  0  0  0  0  0  0  0  0  0
  142.5540   78.0650  218.5050 C   0  0  2  0  0  0  0  0  0  0  0  0
  142.7090   77.8980  217.1370 O   0  0  0  0  0  0  0  0  0  0  0  0
  142.4060   76.7950  219.2560 C   0  0  1  0  0  0  0  0  0  0  0  0
  143.7030   76.2540  219.7940 C   0  0  0  0  0  0  0  0  0  0  0  0
  143.8060   74.7800  219.7810 C   0  0  0  0  0  0  0  0  0  0  0  0
  144.5480   74.0480  220.6810 C   0  0  0  0  0  0  0  0  0  0  0  0
  144.6280   72.6680  220.6530 C   0  0  0  0  0  0  0  0  0  0  0  0
  143.9500   71.9490  219.6960 C   0  0  0  0  0  0  0  0  0  0  0  0
  144.0750   70.2050  219.6900 Cl  0  0  0  0  0  0  0  0  0  0  0  0
  143.1990   72.6520  218.7800 C   0  0  0  0  0  0  0  0  0  0  0  0
  143.1230   74.0300  218.8150 C   0  0  0  0  0  0  0  0  0  0  0  0
  140.2720   71.7450  223.1180 C   0  0  0  0  0  0  0  0  0  0  0  0
  139.5520   70.5730  222.9270 C   0  0  0  0  0  0  0  0  0  0  0  0
  139.3050   69.7460  224.0030 C   0  0  0  0  0  0  0  0  0  0  0  0
  139.7600   70.0740  225.2400 C   0  0  0  0  0  0  0  0  0  0  0  0
  139.4850   69.2080  226.2960 C   0  0  0  0  0  0  0  0  0  0  0  0
  139.9570   69.5580  227.5480 C   0  0  0  0  0  0  0  0  0  0  0  0
  139.7180   68.7470  228.6210 F   0  0  0  0  0  0  0  0  0  0  0  0
  140.6710   70.7250  227.7260 C   0  0  0  0  0  0  0  0  0  0  0  0
  140.9430   71.5810  226.6780 C   0  0  0  0  0  0  0  0  0  0  0  0
  140.4800   71.2460  225.4300 C   0  0  0  0  0  0  0  0  0  0  0  0
  140.7070   72.0350  224.3560 N   0  0  0  0  0  0  0  0  0  0  0  0
  139.6690   74.3600  222.8480 H   0  0  0  0  0  0  0  0  0  0  0  0
  141.1360   74.2476  220.1865 H   0  0  0  0  0  0  0  0  0  0  0  0
  139.4702   74.9383  220.2766 H   0  0  0  0  0  0  0  0  0  0  0  0
  139.7733   78.4048  220.3534 H   0  0  0  0  0  0  0  0  0  0  0  0
  141.2557   79.1027  220.9161 H   0  0  0  0  0  0  0  0  0  0  0  0
  140.4364   78.3387  218.0242 H   0  0  0  0  0  0  0  0  0  0  0  0
  141.2108   79.8280  218.5149 H   0  0  0  0  0  0  0  0  0  0  0  0
  143.4437   78.6081  218.8563 H   0  0  0  0  0  0  0  0  0  0  0  0
  143.2990   78.5790  216.7290 H   0  0  0  0  0  0  0  0  0  0  0  0
  142.0880   75.9699  218.6018 H   0  0  0  0  0  0  0  0  0  0  0  0
  144.5237   76.6609  219.1849 H   0  0  0  0  0  0  0  0  0  0  0  0
  143.7559   76.5614  220.8489 H   0  0  0  0  0  0  0  0  0  0  0  0
  145.1047   74.5881  221.4610 H   0  0  0  0  0  0  0  0  0  0  0  0
  145.2382   72.1412  221.4014 H   0  0  0  0  0  0  0  0  0  0  0  0
  142.6472   72.1029  218.0028 H   0  0  0  0  0  0  0  0  0  0  0  0
  142.5105   74.5523  218.0653 H   0  0  0  0  0  0  0  0  0  0  0  0
  139.1818   70.3064  221.9261 H   0  0  0  0  0  0  0  0  0  0  0  0
  138.7363   68.8156  223.8584 H   0  0  0  0  0  0  0  0  0  0  0  0
  138.9140   68.2808  226.1399 H   0  0  0  0  0  0  0  0  0  0  0  0
  141.0341   70.9807  228.7324 H   0  0  0  0  0  0  0  0  0  0  0  0
  141.5153   72.5066  226.8385 H   0  0  0  0  0  0  0  0  0  0  0  0
  1  2  2  0
  2  3  1  0
  3  4  1  0
  4  5  1  0
  5  6  2  0
  5  7  1  0
  7  8  1  0
  8  9  1  0
  9 10  1  0
 10 11  1  0
 10 12  1  0
 12 13  1  0
 13 14  1  0
 14 15  2  0
 15 16  1  0
 16 17  2  0
 17 18  1  0
 17 19  1  0
 19 20  2  0
  2 21  1  0
 21 22  2  0
 22 23  1  0
 23 24  2  0
 24 25  1  0
 25 26  2  0
 26 27  1  0
 26 28  1  0
 28 29  2  0
 29 30  1  0
 30 31  2  0
 12  7  1  0
 20 14  1  0
 31 21  1  0
 30 24  1  0
  3 32  1  0
  4 33  1  0
  4 34  1  0
  8 35  1  0
  8 36  1  0
  9 37  1  0
  9 38  1  0
 10 39  1  1
 11 40  1  0
 12 41  1  6
 13 42  1  0
 13 43  1  0
 15 44  1  0
 16 45  1  0
 19 46  1  0
 20 47  1  0
 22 48  1  0
 23 49  1  0
 25 50  1  0
 28 51  1  0
 29 52  1  0
M  END
>  <smiles>  (10) 
O=C(NCC(=O)N1CC[C@H](O)[C@H]1Cc1ccc(Cl)cc1)c1ccc2cc(F)ccc2n1

>  <score_type>  (10) 
oracle

>  <origin>  (10) 
autodockgpu

>  <m_score__min__energy>  (10) 
-9.1999999999999993

>  <m_primary>  (10) 
energy

>  <rmsd>  (10) 
2.4874634489774663

>  <m_score__min__rmsd>  (10) 
2.4874634489774663

>  <meeko>  (10) 
{"free_energy": -7.9, "intermolecular_energy": -9.99, "internal_energy": -2.32, "cluster_size": 23, "cluster_id": 2, "rank_in_cluster": 20}

>  <energy>  (10) 
-8.38

>  <cluster_rmsd>  (10) 
1.08

>  <cluster>  (10) 
1

$$$$

     RDKit          3D

 52 55  0  0  0  0  0  0  0  0999 V2000
  138.2380   70.8400  221.8330 O   0  0  0  0  0  0  0  0  0  0  0  0
  138.9080   71.2900  222.7940 C   0  0  0  0  0  0  0  0  0  0  0  0
  139.3510   72.6400  222.7280 N   0  0  0  0  0  0  0  0  0  0  0  0
  138.9960   73.4060  221.5490 C   0  0  0  0  0  0  0  0  0  0  0  0
  139.6250   74.7670  221.5920 C   0  0  0  0  0  0  0  0  0  0  0  0
  140.6680   74.8550  222.3080 O   0  0  0  0  0  0  0  0  0  0  0  0
  139.0860   75.8740  220.8800 N   0  0  0  0  0  0  0  0  0  0  0  0
  137.8610   76.5330  221.2700 C   0  0  0  0  0  0  0  0  0  0  0  0
  137.4630   77.1810  219.9350 C   0  0  0  0  0  0  0  0  0  0  0  0
  138.8200   77.5750  219.3330 C   0  0  2  0  0  0  0  0  0  0  0  0
  138.6240   77.7100  217.9670 O   0  0  0  0  0  0  0  0  0  0  0  0
  139.6920   76.4360  219.7080 C   0  0  1  0  0  0  0  0  0  0  0  0
  141.1430   76.8070  219.8610 C   0  0  0  0  0  0  0  0  0  0  0  0
  141.3980   77.9010  220.8200 C   0  0  0  0  0  0  0  0  0  0  0  0
  141.8290   79.1600  220.4630 C   0  0  0  0  0  0  0  0  0  0  0  0
  142.0590   80.1710  221.3770 C   0  0  0  0  0  0  0  0  0  0  0  0
  141.8630   79.9540  222.7210 C   0  0  0  0  0  0  0  0  0  0  0  0
  142.1640   81.2570  223.8480 Cl  0  0  0  0  0  0  0  0  0  0  0  0
  141.4320   78.7060  223.1120 C   0  0  0  0  0  0  0  0  0  0  0  0
  141.2030   77.7010  222.1930 C   0  0  0  0  0  0  0  0  0  0  0  0
  139.2320   70.4670  223.9540 C   0  0  0  0  0  0  0  0  0  0  0  0
  138.8950   69.1200  223.9290 C   0  0  0  0  0  0  0  0  0  0  0  0
  139.1940   68.3260  225.0160 C   0  0  0  0  0  0  0  0  0  0  0  0
  139.8130   68.8540  226.1040 C   0  0  0  0  0  0  0  0  0  0  0  0
  140.0930   68.0120  227.1770 C   0  0  0  0  0  0  0  0  0  0  0  0
  140.7240   68.5690  228.2770 C   0  0  0  0  0  0  0  0  0  0  0  0
  141.0240   67.7910  229.3590 F   0  0  0  0  0  0  0  0  0  0  0  0
  141.0530   69.9080  228.2910 C   0  0  0  0  0  0  0  0  0  0  0  0
  140.7750   70.7390  227.2260 C   0  0  0  0  0  0  0  0  0  0  0  0
  140.1490   70.2010  226.1290 C   0  0  0  0  0  0  0  0  0  0  0  0
  139.8440   70.9540  225.0480 N   0  0  0  0  0  0  0  0  0  0  0  0
  139.9100   73.0400  223.5140 H   0  0  0  0  0  0  0  0  0  0  0  0
  139.3479   72.8737  220.6530 H   0  0  0  0  0  0  0  0  0  0  0  0
  137.9026   73.5224  221.5188 H   0  0  0  0  0  0  0  0  0  0  0  0
  137.1037   75.8138  221.6154 H   0  0  0  0  0  0  0  0  0  0  0  0
  137.9624   77.2347  222.1110 H   0  0  0  0  0  0  0  0  0  0  0  0
  136.9351   76.4647  219.2882 H   0  0  0  0  0  0  0  0  0  0  0  0
  136.7736   78.0304  220.0505 H   0  0  0  0  0  0  0  0  0  0  0  0
  139.2648   78.5195  219.6796 H   0  0  0  0  0  0  0  0  0  0  0  0
  139.1730   78.4280  217.5650 H   0  0  0  0  0  0  0  0  0  0  0  0
  139.7485   75.6857  218.9056 H   0  0  0  0  0  0  0  0  0  0  0  0
  141.6911   75.9164  220.2022 H   0  0  0  0  0  0  0  0  0  0  0  0
  141.4787   77.1685  218.8778 H   0  0  0  0  0  0  0  0  0  0  0  0
  141.9986   79.3712  219.3969 H   0  0  0  0  0  0  0  0  0  0  0  0
  142.4012   81.1561  221.0271 H   0  0  0  0  0  0  0  0  0  0  0  0
  141.2663   78.5050  224.1807 H   0  0  0  0  0  0  0  0  0  0  0  0
  140.8587   76.7184  222.5479 H   0  0  0  0  0  0  0  0  0  0  0  0
  138.3937   68.6900  223.0493 H   0  0  0  0  0  0  0  0  0  0  0  0
  138.9296   67.2583  225.0021 H   0  0  0  0  0  0  0  0  0  0  0  0
  139.8235   66.9458  227.1521 H   0  0  0  0  0  0  0  0  0  0  0  0
  141.5519   70.3257  229.1779 H   0  0  0  0  0  0  0  0  0  0  0  0
  141.0475   71.8043  227.2548 H   0  0  0  0  0  0  0  0  0  0  0  0
  1  2  2  0
  2  3  1  0
  3  4  1  0
  4  5  1  0
  5  6  2  0
  5  7  1  0
  7  8  1  0
  8  9  1  0
  9 10  1  0
 10 11  1  0
 10 12  1  0
 12 13  1  0
 13 14  1  0
 14 15  2  0
 15 16  1  0
 16 17  2  0
 17 18  1  0
 17 19  1  0
 19 20  2  0
  2 21  1  0
 21 22  2  0
 22 23  1  0
 23 24  2  0
 24 25  1  0
 25 26  2  0
 26 27  1  0
 26 28  1  0
 28 29  2  0
 29 30  1  0
 30 31  2  0
 12  7  1  0
 20 14  1  0
 31 21  1  0
 30 24  1  0
  3 32  1  0
  4 33  1  0
  4 34  1  0
  8 35  1  0
  8 36  1  0
  9 37  1  0
  9 38  1  0
 10 39  1  1
 11 40  1  0
 12 41  1  6
 13 42  1  0
 13 43  1  0
 15 44  1  0
 16 45  1  0
 19 46  1  0
 20 47  1  0
 22 48  1  0
 23 49  1  0
 25 50  1  0
 28 51  1  0
 29 52  1  0
M  END
>  <smiles>  (11) 
O=C(NCC(=O)N1CC[C@H](O)[C@H]1Cc1ccc(Cl)cc1)c1ccc2cc(F)ccc2n1

>  <score_type>  (11) 
oracle

>  <origin>  (11) 
autodockgpu

>  <m_score__min__energy>  (11) 
-9.1999999999999993

>  <m_primary>  (11) 
energy

>  <rmsd>  (11) 
2.114316816303476

>  <m_score__min__rmsd>  (11) 
2.114316816303476

>  <meeko>  (11) 
{"free_energy": -8.02, "intermolecular_energy": -10.11, "internal_energy": -2.03, "cluster_size": 19, "cluster_id": 1, "rank_in_cluster": 17}

>  <energy>  (11) 
-8.35

>  <cluster_rmsd>  (11) 
1.35

>  <cluster>  (11) 
1

$$$$

     RDKit          3D

 52 55  0  0  0  0  0  0  0  0999 V2000
  140.4970   71.6250  221.1480 O   0  0  0  0  0  0  0  0  0  0  0  0
  140.1570   72.1000  222.2590 C   0  0  0  0  0  0  0  0  0  0  0  0
  139.8190   73.4790  222.3220 N   0  0  0  0  0  0  0  0  0  0  0  0
  139.8890   74.2450  221.0940 C   0  0  0  0  0  0  0  0  0  0  0  0
  140.6170   75.5380  221.3150 C   0  0  0  0  0  0  0  0  0  0  0  0
  140.2980   76.1610  222.3730 O   0  0  0  0  0  0  0  0  0  0  0  0
  141.5930   76.0250  220.4010 N   0  0  0  0  0  0  0  0  0  0  0  0
  141.6240   77.3970  219.9470 C   0  0  0  0  0  0  0  0  0  0  0  0
  142.4080   77.2320  218.6370 C   0  0  0  0  0  0  0  0  0  0  0  0
  143.4200   76.1300  218.9850 C   0  0  2  0  0  0  0  0  0  0  0  0
  143.8290   75.5740  217.7820 O   0  0  0  0  0  0  0  0  0  0  0  0
  142.6280   75.2100  219.8360 C   0  0  1  0  0  0  0  0  0  0  0  0
  143.4540   74.4490  220.8380 C   0  0  0  0  0  0  0  0  0  0  0  0
  144.0330   73.1900  220.3270 C   0  0  0  0  0  0  0  0  0  0  0  0
  143.2900   72.0980  219.9370 C   0  0  0  0  0  0  0  0  0  0  0  0
  143.8530   70.9300  219.4580 C   0  0  0  0  0  0  0  0  0  0  0  0
  145.2180   70.8070  219.3480 C   0  0  0  0  0  0  0  0  0  0  0  0
  145.8950   69.3140  218.7380 Cl  0  0  0  0  0  0  0  0  0  0  0  0
  145.9900   71.8820  219.7300 C   0  0  0  0  0  0  0  0  0  0  0  0
  145.4210   73.0460  220.2070 C   0  0  0  0  0  0  0  0  0  0  0  0
  140.1050   71.2750  223.4610 C   0  0  0  0  0  0  0  0  0  0  0  0
  139.5360   70.0110  223.3770 C   0  0  0  0  0  0  0  0  0  0  0  0
  139.4780   69.2170  224.5030 C   0  0  0  0  0  0  0  0  0  0  0  0
  139.9720   69.6650  225.6860 C   0  0  0  0  0  0  0  0  0  0  0  0
  139.8900   68.8270  226.7950 C   0  0  0  0  0  0  0  0  0  0  0  0
  140.4000   69.3000  227.9920 C   0  0  0  0  0  0  0  0  0  0  0  0
  140.3470   68.5220  229.1130 F   0  0  0  0  0  0  0  0  0  0  0  0
  140.9630   70.5570  228.0640 C   0  0  0  0  0  0  0  0  0  0  0  0
  141.0430   71.3850  226.9630 C   0  0  0  0  0  0  0  0  0  0  0  0
  140.5410   70.9280  225.7700 C   0  0  0  0  0  0  0  0  0  0  0  0
  140.5850   71.6840  224.6490 N   0  0  0  0  0  0  0  0  0  0  0  0
  139.5320   73.9010  223.2340 H   0  0  0  0  0  0  0  0  0  0  0  0
  140.4211   73.6570  220.3317 H   0  0  0  0  0  0  0  0  0  0  0  0
  138.8656   74.4688  220.7585 H   0  0  0  0  0  0  0  0  0  0  0  0
  140.6122   77.7904  219.7695 H   0  0  0  0  0  0  0  0  0  0  0  0
  142.0630   78.1095  220.6609 H   0  0  0  0  0  0  0  0  0  0  0  0
  141.7467   76.9182  217.8159 H   0  0  0  0  0  0  0  0  0  0  0  0
  142.8793   78.1635  218.2903 H   0  0  0  0  0  0  0  0  0  0  0  0
  144.3336   76.4393  219.5139 H   0  0  0  0  0  0  0  0  0  0  0  0
  144.8100   75.6040  217.6560 H   0  0  0  0  0  0  0  0  0  0  0  0
  142.1931   74.3865  219.2506 H   0  0  0  0  0  0  0  0  0  0  0  0
  144.2793   75.0980  221.1662 H   0  0  0  0  0  0  0  0  0  0  0  0
  142.7735   74.1701  221.6560 H   0  0  0  0  0  0  0  0  0  0  0  0
  142.1941   72.1583  220.0103 H   0  0  0  0  0  0  0  0  0  0  0  0
  143.2040   70.0925  219.1625 H   0  0  0  0  0  0  0  0  0  0  0  0
  147.0851   71.8114  219.6532 H   0  0  0  0  0  0  0  0  0  0  0  0
  146.0741   73.8812  220.5001 H   0  0  0  0  0  0  0  0  0  0  0  0
  139.1348   69.6461  222.4200 H   0  0  0  0  0  0  0  0  0  0  0  0
  139.0289   68.2147  224.4426 H   0  0  0  0  0  0  0  0  0  0  0  0
  139.4372   67.8271  226.7228 H   0  0  0  0  0  0  0  0  0  0  0  0
  141.3599   70.9098  229.0273 H   0  0  0  0  0  0  0  0  0  0  0  0
  141.4967   72.3841  227.0393 H   0  0  0  0  0  0  0  0  0  0  0  0
  1  2  2  0
  2  3  1  0
  3  4  1  0
  4  5  1  0
  5  6  2  0
  5  7  1  0
  7  8  1  0
  8  9  1  0
  9 10  1  0
 10 11  1  0
 10 12  1  0
 12 13  1  0
 13 14  1  0
 14 15  2  0
 15 16  1  0
 16 17  2  0
 17 18  1  0
 17 19  1  0
 19 20  2  0
  2 21  1  0
 21 22  2  0
 22 23  1  0
 23 24  2  0
 24 25  1  0
 25 26  2  0
 26 27  1  0
 26 28  1  0
 28 29  2  0
 29 30  1  0
 30 31  2  0
 12  7  1  0
 20 14  1  0
 31 21  1  0
 30 24  1  0
  3 32  1  0
  4 33  1  0
  4 34  1  0
  8 35  1  0
  8 36  1  0
  9 37  1  0
  9 38  1  0
 10 39  1  1
 11 40  1  0
 12 41  1  6
 13 42  1  0
 13 43  1  0
 15 44  1  0
 16 45  1  0
 19 46  1  0
 20 47  1  0
 22 48  1  0
 23 49  1  0
 25 50  1  0
 28 51  1  0
 29 52  1  0
M  END
>  <smiles>  (12) 
O=C(NCC(=O)N1CC[C@H](O)[C@H]1Cc1ccc(Cl)cc1)c1ccc2cc(F)ccc2n1

>  <score_type>  (12) 
oracle

>  <origin>  (12) 
autodockgpu

>  <m_score__min__energy>  (12) 
-9.1999999999999993

>  <m_primary>  (12) 
energy

>  <rmsd>  (12) 
2.3988657362578816

>  <m_score__min__rmsd>  (12) 
2.3988657362578816

>  <meeko>  (12) 
{"free_energy": -8.71, "intermolecular_energy": -10.79, "internal_energy": -1.96, "cluster_size": 23, "cluster_id": 2, "rank_in_cluster": 1}

>  <energy>  (12) 
-8.28

>  <cluster_rmsd>  (12) 
1.95

>  <cluster>  (12) 
1

$$$$

     RDKit          3D

 52 55  0  0  0  0  0  0  0  0999 V2000
  141.0780   73.3290  222.3600 O   0  0  0  0  0  0  0  0  0  0  0  0
  140.0780   72.5990  222.5620 C   0  0  0  0  0  0  0  0  0  0  0  0
  138.9760   72.7120  221.6700 N   0  0  0  0  0  0  0  0  0  0  0  0
  139.0850   73.6650  220.5840 C   0  0  0  0  0  0  0  0  0  0  0  0
  140.1770   73.2660  219.6350 C   0  0  0  0  0  0  0  0  0  0  0  0
  140.1120   72.0730  219.2130 O   0  0  0  0  0  0  0  0  0  0  0  0
  141.2060   74.1660  219.2430 N   0  0  0  0  0  0  0  0  0  0  0  0
  141.9070   74.0530  217.9850 C   0  0  0  0  0  0  0  0  0  0  0  0
  143.1980   74.8150  218.3220 C   0  0  0  0  0  0  0  0  0  0  0  0
  142.6970   75.9380  219.2440 C   0  0  2  0  0  0  0  0  0  0  0  0
  143.7930   76.3670  219.9770 O   0  0  0  0  0  0  0  0  0  0  0  0
  141.6560   75.2600  220.0540 C   0  0  1  0  0  0  0  0  0  0  0  0
  140.5670   76.1810  220.5350 C   0  0  0  0  0  0  0  0  0  0  0  0
  141.0430   77.3240  221.3420 C   0  0  0  0  0  0  0  0  0  0  0  0
  141.0800   77.3370  222.7190 C   0  0  0  0  0  0  0  0  0  0  0  0
  141.5320   78.4170  223.4550 C   0  0  0  0  0  0  0  0  0  0  0  0
  141.9740   79.5560  222.8230 C   0  0  0  0  0  0  0  0  0  0  0  0
  142.5390   80.9010  223.7870 Cl  0  0  0  0  0  0  0  0  0  0  0  0
  141.9490   79.5750  221.4470 C   0  0  0  0  0  0  0  0  0  0  0  0
  141.4980   78.4920  220.7180 C   0  0  0  0  0  0  0  0  0  0  0  0
  140.0280   71.6580  223.6750 C   0  0  0  0  0  0  0  0  0  0  0  0
  139.4010   70.4340  223.4830 C   0  0  0  0  0  0  0  0  0  0  0  0
  139.3440   69.5300  224.5230 C   0  0  0  0  0  0  0  0  0  0  0  0
  139.8960   69.8330  225.7270 C   0  0  0  0  0  0  0  0  0  0  0  0
  139.8120   68.8880  226.7470 C   0  0  0  0  0  0  0  0  0  0  0  0
  140.3800   69.2140  227.9670 C   0  0  0  0  0  0  0  0  0  0  0  0
  140.3290   68.3270  229.0040 F   0  0  0  0  0  0  0  0  0  0  0  0
  140.9990   70.4340  228.1470 C   0  0  0  0  0  0  0  0  0  0  0  0
  141.0810   71.3670  227.1340 C   0  0  0  0  0  0  0  0  0  0  0  0
  140.5220   71.0570  225.9190 C   0  0  0  0  0  0  0  0  0  0  0  0
  140.5620   71.9220  224.8810 N   0  0  0  0  0  0  0  0  0  0  0  0
  138.1300   72.1170  221.8150 H   0  0  0  0  0  0  0  0  0  0  0  0
  138.1298   73.7030  220.0398 H   0  0  0  0  0  0  0  0  0  0  0  0
  139.3250   74.6531  221.0036 H   0  0  0  0  0  0  0  0  0  0  0  0
  142.1097   73.0037  217.7247 H   0  0  0  0  0  0  0  0  0  0  0  0
  141.3571   74.4403  217.1146 H   0  0  0  0  0  0  0  0  0  0  0  0
  143.9174   74.1657  218.8426 H   0  0  0  0  0  0  0  0  0  0  0  0
  143.7309   75.1849  217.4337 H   0  0  0  0  0  0  0  0  0  0  0  0
  142.2753   76.8317  218.7608 H   0  0  0  0  0  0  0  0  0  0  0  0
  143.8120   77.3480  220.1050 H   0  0  0  0  0  0  0  0  0  0  0  0
  142.0600   74.8910  221.0083 H   0  0  0  0  0  0  0  0  0  0  0  0
  140.0391   76.5777  219.6553 H   0  0  0  0  0  0  0  0  0  0  0  0
  139.9187   75.5826  221.1920 H   0  0  0  0  0  0  0  0  0  0  0  0
  140.7329   76.4442  223.2598 H   0  0  0  0  0  0  0  0  0  0  0  0
  141.5381   78.3648  224.5537 H   0  0  0  0  0  0  0  0  0  0  0  0
  142.2962   80.4734  220.9156 H   0  0  0  0  0  0  0  0  0  0  0  0
  141.4962   78.5485  219.6195 H   0  0  0  0  0  0  0  0  0  0  0  0
  138.9533   70.1873  222.5090 H   0  0  0  0  0  0  0  0  0  0  0  0
  138.8490   68.5586  224.3770 H   0  0  0  0  0  0  0  0  0  0  0  0
  139.3136   67.9201  226.5893 H   0  0  0  0  0  0  0  0  0  0  0  0
  141.4400   70.6696  229.1268 H   0  0  0  0  0  0  0  0  0  0  0  0
  141.5809   72.3334  227.2955 H   0  0  0  0  0  0  0  0  0  0  0  0
  1  2  2  0
  2  3  1  0
  3  4  1  0
  4  5  1  0
  5  6  2  0
  5  7  1  0
  7  8  1  0
  8  9  1  0
  9 10  1  0
 10 11  1  0
 10 12  1  0
 12 13  1  0
 13 14  1  0
 14 15  2  0
 15 16  1  0
 16 17  2  0
 17 18  1  0
 17 19  1  0
 19 20  2  0
  2 21  1  0
 21 22  2  0
 22 23  1  0
 23 24  2  0
 24 25  1  0
 25 26  2  0
 26 27  1  0
 26 28  1  0
 28 29  2  0
 29 30  1  0
 30 31  2  0
 12  7  1  0
 20 14  1  0
 31 21  1  0
 30 24  1  0
  3 32  1  0
  4 33  1  0
  4 34  1  0
  8 35  1  0
  8 36  1  0
  9 37  1  0
  9 38  1  0
 10 39  1  6
 11 40  1  0
 12 41  1  1
 13 42  1  0
 13 43  1  0
 15 44  1  0
 16 45  1  0
 19 46  1  0
 20 47  1  0
 22 48  1  0
 23 49  1  0
 25 50  1  0
 28 51  1  0
 29 52  1  0
M  END
>  <smiles>  (13) 
O=C(NCC(=O)N1CC[C@H](O)[C@H]1Cc1ccc(Cl)cc1)c1ccc2cc(F)ccc2n1

>  <score_type>  (13) 
oracle

>  <origin>  (13) 
autodockgpu

>  <m_score__min__energy>  (13) 
-9.1999999999999993

>  <m_primary>  (13) 
energy

>  <rmsd>  (13) 
2.3353651643721713

>  <m_score__min__rmsd>  (13) 
2.3353651643721713

>  <meeko>  (13) 
{"free_energy": -8.62, "intermolecular_energy": -10.71, "internal_energy": -1.3, "cluster_size": 19, "cluster_id": 1, "rank_in_cluster": 6}

>  <energy>  (13) 
-8.27

>  <cluster_rmsd>  (13) 
1.36

>  <cluster>  (13) 
1

$$$$

     RDKit          3D

 52 55  0  0  0  0  0  0  0  0999 V2000
  140.7130   73.7280  222.3490 O   0  0  0  0  0  0  0  0  0  0  0  0
  140.2080   72.5860  222.2320 C   0  0  0  0  0  0  0  0  0  0  0  0
  139.6820   72.2130  220.9640 N   0  0  0  0  0  0  0  0  0  0  0  0
  139.7670   73.1820  219.8900 C   0  0  0  0  0  0  0  0  0  0  0  0
  141.0810   73.0680  219.1750 C   0  0  0  0  0  0  0  0  0  0  0  0
  141.0350   72.4650  218.0600 O   0  0  0  0  0  0  0  0  0  0  0  0
  142.2860   73.5980  219.7130 N   0  0  0  0  0  0  0  0  0  0  0  0
  142.3960   74.9540  220.1990 C   0  0  0  0  0  0  0  0  0  0  0  0
  143.9150   75.1590  220.0940 C   0  0  0  0  0  0  0  0  0  0  0  0
  144.4690   73.7750  220.4620 C   0  0  2  0  0  0  0  0  0  0  0  0
  145.7510   73.7100  219.9370 O   0  0  0  0  0  0  0  0  0  0  0  0
  143.5050   72.8510  219.8180 C   0  0  1  0  0  0  0  0  0  0  0  0
  143.3770   71.5240  220.5180 C   0  0  0  0  0  0  0  0  0  0  0  0
  144.0880   70.4110  219.8570 C   0  0  0  0  0  0  0  0  0  0  0  0
  143.5780   69.1380  219.7220 C   0  0  0  0  0  0  0  0  0  0  0  0
  144.2600   68.1110  219.0960 C   0  0  0  0  0  0  0  0  0  0  0  0
  145.5120   68.3240  218.5690 C   0  0  0  0  0  0  0  0  0  0  0  0
  146.3440   67.0010  217.7850 Cl  0  0  0  0  0  0  0  0  0  0  0  0
  146.0500   69.5860  218.6880 C   0  0  0  0  0  0  0  0  0  0  0  0
  145.3640   70.6070  219.3130 C   0  0  0  0  0  0  0  0  0  0  0  0
  140.1520   71.6540  223.3530 C   0  0  0  0  0  0  0  0  0  0  0  0
  139.5820   70.4040  223.1500 C   0  0  0  0  0  0  0  0  0  0  0  0
  139.5200   69.5100  224.1980 C   0  0  0  0  0  0  0  0  0  0  0  0
  140.0100   69.8460  225.4190 C   0  0  0  0  0  0  0  0  0  0  0  0
  139.9240   68.9090  226.4460 C   0  0  0  0  0  0  0  0  0  0  0  0
  140.4280   69.2700  227.6830 C   0  0  0  0  0  0  0  0  0  0  0  0
  140.3720   68.3920  228.7280 F   0  0  0  0  0  0  0  0  0  0  0  0
  140.9910   70.5150  227.8730 C   0  0  0  0  0  0  0  0  0  0  0  0
  141.0760   71.4410  226.8540 C   0  0  0  0  0  0  0  0  0  0  0  0
  140.5790   71.0960  225.6210 C   0  0  0  0  0  0  0  0  0  0  0  0
  140.6260   71.9520  224.5750 N   0  0  0  0  0  0  0  0  0  0  0  0
  139.2550   71.2680  220.8390 H   0  0  0  0  0  0  0  0  0  0  0  0
  138.9504   73.0015  219.1755 H   0  0  0  0  0  0  0  0  0  0  0  0
  139.6839   74.1920  220.3178 H   0  0  0  0  0  0  0  0  0  0  0  0
  141.8446   75.6610  219.5618 H   0  0  0  0  0  0  0  0  0  0  0  0
  141.9767   75.1196  221.2024 H   0  0  0  0  0  0  0  0  0  0  0  0
  144.2070   75.4443  219.0726 H   0  0  0  0  0  0  0  0  0  0  0  0
  144.2921   75.9658  220.7397 H   0  0  0  0  0  0  0  0  0  0  0  0
  144.5571   73.5398  221.5329 H   0  0  0  0  0  0  0  0  0  0  0  0
  146.1830   74.5960  219.8570 H   0  0  0  0  0  0  0  0  0  0  0  0
  143.8487   72.5339  218.8223 H   0  0  0  0  0  0  0  0  0  0  0  0
  143.7797   71.6324  221.5359 H   0  0  0  0  0  0  0  0  0  0  0  0
  142.3081   71.2647  220.5032 H   0  0  0  0  0  0  0  0  0  0  0  0
  142.5792   68.9286  220.1325 H   0  0  0  0  0  0  0  0  0  0  0  0
  143.7974   67.1160  219.0190 H   0  0  0  0  0  0  0  0  0  0  0  0
  147.0500   69.7847  218.2751 H   0  0  0  0  0  0  0  0  0  0  0  0
  145.8309   71.6003  219.3860 H   0  0  0  0  0  0  0  0  0  0  0  0
  139.1836   70.1295  222.1621 H   0  0  0  0  0  0  0  0  0  0  0  0
  139.0706   68.5179  224.0439 H   0  0  0  0  0  0  0  0  0  0  0  0
  139.4726   67.9197  226.2800 H   0  0  0  0  0  0  0  0  0  0  0  0
  141.3838   70.7771  228.8665 H   0  0  0  0  0  0  0  0  0  0  0  0
  141.5294   72.4286  227.0243 H   0  0  0  0  0  0  0  0  0  0  0  0
  1  2  2  0
  2  3  1  0
  3  4  1  0
  4  5  1  0
  5  6  2  0
  5  7  1  0
  7  8  1  0
  8  9  1  0
  9 10  1  0
 10 11  1  0
 10 12  1  0
 12 13  1  0
 13 14  1  0
 14 15  2  0
 15 16  1  0
 16 17  2  0
 17 18  1  0
 17 19  1  0
 19 20  2  0
  2 21  1  0
 21 22  2  0
 22 23  1  0
 23 24  2  0
 24 25  1  0
 25 26  2  0
 26 27  1  0
 26 28  1  0
 28 29  2  0
 29 30  1  0
 30 31  2  0
 12  7  1  0
 20 14  1  0
 31 21  1  0
 30 24  1  0
  3 32  1  0
  4 33  1  0
  4 34  1  0
  8 35  1  0
  8 36  1  0
  9 37  1  0
  9 38  1  0
 10 39  1  1
 11 40  1  0
 12 41  1  6
 13 42  1  0
 13 43  1  0
 15 44  1  0
 16 45  1  0
 19 46  1  0
 20 47  1  0
 22 48  1  0
 23 49  1  0
 25 50  1  0
 28 51  1  0
 29 52  1  0
M  END
>  <smiles>  (14) 
O=C(NCC(=O)N1CC[C@H](O)[C@H]1Cc1ccc(Cl)cc1)c1ccc2cc(F)ccc2n1

>  <score_type>  (14) 
oracle

>  <origin>  (14) 
autodockgpu

>  <m_score__min__energy>  (14) 
-9.1999999999999993

>  <m_primary>  (14) 
energy

>  <rmsd>  (14) 
3.4609779365602766

>  <m_score__min__rmsd>  (14) 
3.4609779365602766

>  <meeko>  (14) 
{"free_energy": -8.12, "intermolecular_energy": -10.21, "internal_energy": -1.71, "cluster_size": 23, "cluster_id": 2, "rank_in_cluster": 9}

>  <energy>  (14) 
-8.25

>  <cluster_rmsd>  (14) 
1.99

>  <cluster>  (14) 
1

$$$$

     RDKit          3D

 52 55  0  0  0  0  0  0  0  0999 V2000
  140.8420   71.2580  221.3070 O   0  0  0  0  0  0  0  0  0  0  0  0
  140.4380   71.8540  222.3340 C   0  0  0  0  0  0  0  0  0  0  0  0
  140.2060   73.2540  222.2480 N   0  0  0  0  0  0  0  0  0  0  0  0
  140.4520   73.8990  220.9740 C   0  0  0  0  0  0  0  0  0  0  0  0
  140.8200   75.3400  221.1710 C   0  0  0  0  0  0  0  0  0  0  0  0
  140.3550   75.8750  222.2220 O   0  0  0  0  0  0  0  0  0  0  0  0
  141.6300   76.0500  220.2410 N   0  0  0  0  0  0  0  0  0  0  0  0
  141.3860   77.4280  219.8820 C   0  0  0  0  0  0  0  0  0  0  0  0
  142.0990   77.4860  218.5230 C   0  0  0  0  0  0  0  0  0  0  0  0
  143.3120   76.5680  218.7370 C   0  0  2  0  0  0  0  0  0  0  0  0
  143.7330   76.1680  217.4780 O   0  0  0  0  0  0  0  0  0  0  0  0
  142.7540   75.4710  219.5650 C   0  0  1  0  0  0  0  0  0  0  0  0
  143.7670   74.8160  220.4650 C   0  0  0  0  0  0  0  0  0  0  0  0
  144.1490   73.4470  220.0640 C   0  0  0  0  0  0  0  0  0  0  0  0
  145.1700   73.1520  219.1880 C   0  0  0  0  0  0  0  0  0  0  0  0
  145.5120   71.8620  218.8280 C   0  0  0  0  0  0  0  0  0  0  0  0
  144.8270   70.7880  219.3470 C   0  0  0  0  0  0  0  0  0  0  0  0
  145.2880   69.1700  218.8700 Cl  0  0  0  0  0  0  0  0  0  0  0  0
  143.8000   71.0480  220.2260 C   0  0  0  0  0  0  0  0  0  0  0  0
  143.4630   72.3400  220.5820 C   0  0  0  0  0  0  0  0  0  0  0  0
  140.2080   71.1470  223.5890 C   0  0  0  0  0  0  0  0  0  0  0  0
  139.5660   69.9160  223.5510 C   0  0  0  0  0  0  0  0  0  0  0  0
  139.3400   69.2330  224.7280 C   0  0  0  0  0  0  0  0  0  0  0  0
  139.7400   69.7570  225.9150 C   0  0  0  0  0  0  0  0  0  0  0  0
  139.4880   69.0300  227.0760 C   0  0  0  0  0  0  0  0  0  0  0  0
  139.9020   69.5810  228.2760 C   0  0  0  0  0  0  0  0  0  0  0  0
  139.6830   68.9130  229.4470 F   0  0  0  0  0  0  0  0  0  0  0  0
  140.5380   70.8050  228.3020 C   0  0  0  0  0  0  0  0  0  0  0  0
  140.7860   71.5230  227.1500 C   0  0  0  0  0  0  0  0  0  0  0  0
  140.3800   70.9880  225.9530 C   0  0  0  0  0  0  0  0  0  0  0  0
  140.5890   71.6340  224.7830 N   0  0  0  0  0  0  0  0  0  0  0  0
  139.8690   73.7750  223.0880 H   0  0  0  0  0  0  0  0  0  0  0  0
  141.2769   73.3826  220.4612 H   0  0  0  0  0  0  0  0  0  0  0  0
  139.5347   73.8480  220.3690 H   0  0  0  0  0  0  0  0  0  0  0  0
  140.3108   77.6399  219.7872 H   0  0  0  0  0  0  0  0  0  0  0  0
  141.7371   78.1655  220.6187 H   0  0  0  0  0  0  0  0  0  0  0  0
  141.4514   77.1062  217.7190 H   0  0  0  0  0  0  0  0  0  0  0  0
  142.3731   78.5066  218.2177 H   0  0  0  0  0  0  0  0  0  0  0  0
  144.1895   77.0062  219.2349 H   0  0  0  0  0  0  0  0  0  0  0  0
  144.7040   75.9840  217.4350 H   0  0  0  0  0  0  0  0  0  0  0  0
  142.4343   74.6176  218.9489 H   0  0  0  0  0  0  0  0  0  0  0  0
  144.6743   75.4379  220.4707 H   0  0  0  0  0  0  0  0  0  0  0  0
  143.2966   74.7316  221.4557 H   0  0  0  0  0  0  0  0  0  0  0  0
  145.7420   73.9848  218.7530 H   0  0  0  0  0  0  0  0  0  0  0  0
  146.3379   71.6931  218.1214 H   0  0  0  0  0  0  0  0  0  0  0  0
  143.2344   70.2077  220.6550 H   0  0  0  0  0  0  0  0  0  0  0  0
  142.6363   72.5036  221.2890 H   0  0  0  0  0  0  0  0  0  0  0  0
  139.2406   69.4894  222.5907 H   0  0  0  0  0  0  0  0  0  0  0  0
  138.8324   68.2574  224.7048 H   0  0  0  0  0  0  0  0  0  0  0  0
  138.9794   68.0553  227.0404 H   0  0  0  0  0  0  0  0  0  0  0  0
  140.8567   71.2207  229.2693 H   0  0  0  0  0  0  0  0  0  0  0  0
  141.2951   72.4973  227.1899 H   0  0  0  0  0  0  0  0  0  0  0  0
  1  2  2  0
  2  3  1  0
  3  4  1  0
  4  5  1  0
  5  6  2  0
  5  7  1  0
  7  8  1  0
  8  9  1  0
  9 10  1  0
 10 11  1  0
 10 12  1  0
 12 13  1  0
 13 14  1  0
 14 15  2  0
 15 16  1  0
 16 17  2  0
 17 18  1  0
 17 19  1  0
 19 20  2  0
  2 21  1  0
 21 22  2  0
 22 23  1  0
 23 24  2  0
 24 25  1  0
 25 26  2  0
 26 27  1  0
 26 28  1  0
 28 29  2  0
 29 30  1  0
 30 31  2  0
 12  7  1  0
 20 14  1  0
 31 21  1  0
 30 24  1  0
  3 32  1  0
  4 33  1  0
  4 34  1  0
  8 35  1  0
  8 36  1  0
  9 37  1  0
  9 38  1  0
 10 39  1  1
 11 40  1  0
 12 41  1  6
 13 42  1  0
 13 43  1  0
 15 44  1  0
 16 45  1  0
 19 46  1  0
 20 47  1  0
 22 48  1  0
 23 49  1  0
 25 50  1  0
 28 51  1  0
 29 52  1  0
M  END
>  <smiles>  (15) 
O=C(NCC(=O)N1CC[C@H](O)[C@H]1Cc1ccc(Cl)cc1)c1ccc2cc(F)ccc2n1

>  <score_type>  (15) 
oracle

>  <origin>  (15) 
autodockgpu

>  <m_score__min__energy>  (15) 
-9.1999999999999993

>  <m_primary>  (15) 
energy

>  <rmsd>  (15) 
2.4005450136780064

>  <m_score__min__rmsd>  (15) 
2.4005450136780064

>  <meeko>  (15) 
{"free_energy": -8.37, "intermolecular_energy": -10.46, "internal_energy": -2.14, "cluster_size": 23, "cluster_id": 2, "rank_in_cluster": 8}

>  <energy>  (15) 
-8.16

>  <cluster_rmsd>  (15) 
1.79

>  <cluster>  (15) 
1

$$$$

     RDKit          3D

 52 55  0  0  0  0  0  0  0  0999 V2000
  139.5790   74.1740  222.3690 O   0  0  0  0  0  0  0  0  0  0  0  0
  140.3610   73.1940  222.3190 C   0  0  0  0  0  0  0  0  0  0  0  0
  141.5490   73.3250  221.5490 N   0  0  0  0  0  0  0  0  0  0  0  0
  141.7770   74.5860  220.8720 C   0  0  0  0  0  0  0  0  0  0  0  0
  142.0930   74.3630  219.4230 C   0  0  0  0  0  0  0  0  0  0  0  0
  142.1780   73.1470  219.0730 O   0  0  0  0  0  0  0  0  0  0  0  0
  142.2840   75.4400  218.5140 N   0  0  0  0  0  0  0  0  0  0  0  0
  142.5010   75.2400  217.0990 C   0  0  0  0  0  0  0  0  0  0  0  0
  143.1970   76.5630  216.7410 C   0  0  0  0  0  0  0  0  0  0  0  0
  142.4820   77.5770  217.6470 C   0  0  2  0  0  0  0  0  0  0  0  0
  143.3310   78.6670  217.7670 O   0  0  0  0  0  0  0  0  0  0  0  0
  142.2920   76.8190  218.9070 C   0  0  1  0  0  0  0  0  0  0  0  0
  141.0910   77.2570  219.7020 C   0  0  0  0  0  0  0  0  0  0  0  0
  141.3880   78.2260  220.7770 C   0  0  0  0  0  0  0  0  0  0  0  0
  141.2860   77.9470  222.1220 C   0  0  0  0  0  0  0  0  0  0  0  0
  141.5720   78.8690  223.1120 C   0  0  0  0  0  0  0  0  0  0  0  0
  141.9810   80.1400  222.7840 C   0  0  0  0  0  0  0  0  0  0  0  0
  142.3340   81.2800  224.0620 Cl  0  0  0  0  0  0  0  0  0  0  0  0
  142.0930   80.4520  221.4470 C   0  0  0  0  0  0  0  0  0  0  0  0
  141.8070   79.5260  220.4630 C   0  0  0  0  0  0  0  0  0  0  0  0
  140.0760   71.9490  223.0230 C   0  0  0  0  0  0  0  0  0  0  0  0
  139.3680   70.9570  222.3570 C   0  0  0  0  0  0  0  0  0  0  0  0
  139.0880   69.7720  223.0070 C   0  0  0  0  0  0  0  0  0  0  0  0
  139.5000   69.5750  224.2860 C   0  0  0  0  0  0  0  0  0  0  0  0
  139.1930   68.3630  224.8990 C   0  0  0  0  0  0  0  0  0  0  0  0
  139.6210   68.1810  226.2020 C   0  0  0  0  0  0  0  0  0  0  0  0
  139.3490   67.0120  226.8540 F   0  0  0  0  0  0  0  0  0  0  0  0
  140.3230   69.1740  226.8540 C   0  0  0  0  0  0  0  0  0  0  0  0
  140.6260   70.3740  226.2430 C   0  0  0  0  0  0  0  0  0  0  0  0
  140.2070   70.5680  224.9500 C   0  0  0  0  0  0  0  0  0  0  0  0
  140.4670   71.7180  224.2880 N   0  0  0  0  0  0  0  0  0  0  0  0
  142.2180   72.5250  221.4890 H   0  0  0  0  0  0  0  0  0  0  0  0
  140.8727   75.2072  220.9524 H   0  0  0  0  0  0  0  0  0  0  0  0
  142.6318   75.0910  221.3456 H   0  0  0  0  0  0  0  0  0  0  0  0
  143.1495   74.3729  216.9048 H   0  0  0  0  0  0  0  0  0  0  0  0
  141.5917   75.0251  216.5185 H   0  0  0  0  0  0  0  0  0  0  0  0
  144.2727   76.5190  216.9667 H   0  0  0  0  0  0  0  0  0  0  0  0
  143.1349   76.8134  215.6717 H   0  0  0  0  0  0  0  0  0  0  0  0
  141.5165   77.9688  217.2945 H   0  0  0  0  0  0  0  0  0  0  0  0
  143.6690   78.9930  216.8960 H   0  0  0  0  0  0  0  0  0  0  0  0
  143.1042   77.0108  219.6236 H   0  0  0  0  0  0  0  0  0  0  0  0
  140.3718   77.7205  219.0107 H   0  0  0  0  0  0  0  0  0  0  0  0
  140.6956   76.3559  220.1936 H   0  0  0  0  0  0  0  0  0  0  0  0
  140.9607   76.9404  222.4236 H   0  0  0  0  0  0  0  0  0  0  0  0
  141.4716   78.5835  224.1696 H   0  0  0  0  0  0  0  0  0  0  0  0
  142.4177   81.4620  221.1563 H   0  0  0  0  0  0  0  0  0  0  0  0
  141.9106   79.8159  219.4070 H   0  0  0  0  0  0  0  0  0  0  0  0
  139.0334   71.1143  221.3210 H   0  0  0  0  0  0  0  0  0  0  0  0
  138.5275   68.9820  222.4857 H   0  0  0  0  0  0  0  0  0  0  0  0
  138.6317   67.5803  224.3677 H   0  0  0  0  0  0  0  0  0  0  0  0
  140.6505   69.0044  227.8903 H   0  0  0  0  0  0  0  0  0  0  0  0
  141.1881   71.1539  226.7776 H   0  0  0  0  0  0  0  0  0  0  0  0
  1  2  2  0
  2  3  1  0
  3  4  1  0
  4  5  1  0
  5  6  2  0
  5  7  1  0
  7  8  1  0
  8  9  1  0
  9 10  1  0
 10 11  1  0
 10 12  1  0
 12 13  1  0
 13 14  1  0
 14 15  2  0
 15 16  1  0
 16 17  2  0
 17 18  1  0
 17 19  1  0
 19 20  2  0
  2 21  1  0
 21 22  2  0
 22 23  1  0
 23 24  2  0
 24 25  1  0
 25 26  2  0
 26 27  1  0
 26 28  1  0
 28 29  2  0
 29 30  1  0
 30 31  2  0
 12  7  1  0
 20 14  1  0
 31 21  1  0
 30 24  1  0
  3 32  1  0
  4 33  1  0
  4 34  1  0
  8 35  1  0
  8 36  1  0
  9 37  1  0
  9 38  1  0
 10 39  1  6
 11 40  1  0
 12 41  1  1
 13 42  1  0
 13 43  1  0
 15 44  1  0
 16 45  1  0
 19 46  1  0
 20 47  1  0
 22 48  1  0
 23 49  1  0
 25 50  1  0
 28 51  1  0
 29 52  1  0
M  END
>  <smiles>  (16) 
O=C(NCC(=O)N1CC[C@H](O)[C@H]1Cc1ccc(Cl)cc1)c1ccc2cc(F)ccc2n1

>  <score_type>  (16) 
oracle

>  <origin>  (16) 
autodockgpu

>  <m_score__min__energy>  (16) 
-9.1999999999999993

>  <m_primary>  (16) 
energy

>  <rmsd>  (16) 
2.845426634769471

>  <m_score__min__rmsd>  (16) 
2.845426634769471

>  <meeko>  (16) 
{"free_energy": -8.04, "intermolecular_energy": -10.13, "internal_energy": -1.48, "cluster_size": 19, "cluster_id": 1, "rank_in_cluster": 16}

>  <energy>  (16) 
-8.04

>  <cluster_rmsd>  (16) 
1.86

>  <cluster>  (16) 
1

$$$$

     RDKit          3D

 52 55  0  0  0  0  0  0  0  0999 V2000
  140.9290   75.4590  218.7960 O   0  0  0  0  0  0  0  0  0  0  0  0
  141.4650   76.2730  219.5860 C   0  0  0  0  0  0  0  0  0  0  0  0
  141.8290   75.8100  220.8800 N   0  0  0  0  0  0  0  0  0  0  0  0
  141.5550   74.4220  221.1990 C   0  0  0  0  0  0  0  0  0  0  0  0
  140.1050   74.2290  221.5280 C   0  0  0  0  0  0  0  0  0  0  0  0
  139.8620   73.3150  222.3720 O   0  0  0  0  0  0  0  0  0  0  0  0
  139.0810   75.0180  220.9330 N   0  0  0  0  0  0  0  0  0  0  0  0
  138.0900   74.4670  220.0370 C   0  0  0  0  0  0  0  0  0  0  0  0
  137.6670   75.7370  219.2830 C   0  0  0  0  0  0  0  0  0  0  0  0
  137.7340   76.8160  220.3750 C   0  0  2  0  0  0  0  0  0  0  0  0
  137.8520   78.0340  219.7220 O   0  0  0  0  0  0  0  0  0  0  0  0
  138.9360   76.4270  221.1510 C   0  0  1  0  0  0  0  0  0  0  0  0
  138.8850   76.8430  222.5970 C   0  0  0  0  0  0  0  0  0  0  0  0
  139.7110   78.0220  222.9260 C   0  0  0  0  0  0  0  0  0  0  0  0
  139.2030   79.2800  223.1680 C   0  0  0  0  0  0  0  0  0  0  0  0
  139.9950   80.3700  223.4780 C   0  0  0  0  0  0  0  0  0  0  0  0
  141.3610   80.2400  223.5570 C   0  0  0  0  0  0  0  0  0  0  0  0
  142.3310   81.6420  223.9510 Cl  0  0  0  0  0  0  0  0  0  0  0  0
  141.9010   78.9960  223.3200 C   0  0  0  0  0  0  0  0  0  0  0  0
  141.1050   77.9100  223.0120 C   0  0  0  0  0  0  0  0  0  0  0  0
  141.7150   77.6590  219.2060 C   0  0  0  0  0  0  0  0  0  0  0  0
  142.6910   77.9220  218.2530 C   0  0  0  0  0  0  0  0  0  0  0  0
  142.9410   79.2260  217.8810 C   0  0  0  0  0  0  0  0  0  0  0  0
  142.2420   80.2470  218.4390 C   0  0  0  0  0  0  0  0  0  0  0  0
  142.5310   81.5460  218.0310 C   0  0  0  0  0  0  0  0  0  0  0  0
  141.8080   82.5740  218.6110 C   0  0  0  0  0  0  0  0  0  0  0  0
  142.0480   83.8690  218.2500 F   0  0  0  0  0  0  0  0  0  0  0  0
  140.8410   82.3010  219.5570 C   0  0  0  0  0  0  0  0  0  0  0  0
  140.5560   81.0130  219.9590 C   0  0  0  0  0  0  0  0  0  0  0  0
  141.2660   79.9840  219.3920 C   0  0  0  0  0  0  0  0  0  0  0  0
  141.0430   78.6960  219.7370 N   0  0  0  0  0  0  0  0  0  0  0  0
  142.2770   76.4660  221.5580 H   0  0  0  0  0  0  0  0  0  0  0  0
  141.8153   73.7947  220.3338 H   0  0  0  0  0  0  0  0  0  0  0  0
  142.1569   74.1352  222.0739 H   0  0  0  0  0  0  0  0  0  0  0  0
  138.5253   73.7174  219.3598 H   0  0  0  0  0  0  0  0  0  0  0  0
  137.2679   73.9302  220.5330 H   0  0  0  0  0  0  0  0  0  0  0  0
  138.3630   75.9607  218.4611 H   0  0  0  0  0  0  0  0  0  0  0  0
  136.6771   75.6549  218.8105 H   0  0  0  0  0  0  0  0  0  0  0  0
  136.8661   76.9040  221.0451 H   0  0  0  0  0  0  0  0  0  0  0  0
  138.7880   78.3480  219.6560 H   0  0  0  0  0  0  0  0  0  0  0  0
  139.8328   76.9632  220.8072 H   0  0  0  0  0  0  0  0  0  0  0  0
  137.8400   77.0743  222.8510 H   0  0  0  0  0  0  0  0  0  0  0  0
  139.2940   76.0033  223.1780 H   0  0  0  0  0  0  0  0  0  0  0  0
  138.1139   79.4240  223.1118 H   0  0  0  0  0  0  0  0  0  0  0  0
  139.5283   81.3488  223.6628 H   0  0  0  0  0  0  0  0  0  0  0  0
  142.9915   78.8638  223.3773 H   0  0  0  0  0  0  0  0  0  0  0  0
  141.5770   76.9333  222.8298 H   0  0  0  0  0  0  0  0  0  0  0  0
  143.2595   77.0970  217.7990 H   0  0  0  0  0  0  0  0  0  0  0  0
  143.7124   79.4404  217.1267 H   0  0  0  0  0  0  0  0  0  0  0  0
  143.3050   81.7481  217.2759 H   0  0  0  0  0  0  0  0  0  0  0  0
  140.2809   83.1357  220.0037 H   0  0  0  0  0  0  0  0  0  0  0  0
  139.7805   80.8155  220.7137 H   0  0  0  0  0  0  0  0  0  0  0  0
  1  2  2  0
  2  3  1  0
  3  4  1  0
  4  5  1  0
  5  6  2  0
  5  7  1  0
  7  8  1  0
  8  9  1  0
  9 10  1  0
 10 11  1  0
 10 12  1  0
 12 13  1  0
 13 14  1  0
 14 15  2  0
 15 16  1  0
 16 17  2  0
 17 18  1  0
 17 19  1  0
 19 20  2  0
  2 21  1  0
 21 22  2  0
 22 23  1  0
 23 24  2  0
 24 25  1  0
 25 26  2  0
 26 27  1  0
 26 28  1  0
 28 29  2  0
 29 30  1  0
 30 31  2  0
 12  7  1  0
 20 14  1  0
 31 21  1  0
 30 24  1  0
  3 32  1  0
  4 33  1  0
  4 34  1  0
  8 35  1  0
  8 36  1  0
  9 37  1  0
  9 38  1  0
 10 39  1  1
 11 40  1  0
 12 41  1  6
 13 42  1  0
 13 43  1  0
 15 44  1  0
 16 45  1  0
 19 46  1  0
 20 47  1  0
 22 48  1  0
 23 49  1  0
 25 50  1  0
 28 51  1  0
 29 52  1  0
M  END
>  <smiles>  (17) 
O=C(NCC(=O)N1CC[C@H](O)[C@H]1Cc1ccc(Cl)cc1)c1ccc2cc(F)ccc2n1

>  <score_type>  (17) 
oracle

>  <origin>  (17) 
autodockgpu

>  <m_score__min__energy>  (17) 
-9.1999999999999993

>  <m_primary>  (17) 
energy

>  <rmsd>  (17) 
9.208046222039012

>  <m_score__min__rmsd>  (17) 
9.208046222039012

>  <meeko>  (17) 
{"free_energy": -5.91, "intermolecular_energy": -8.0, "internal_energy": -3.52, "cluster_size": 1, "cluster_id": 8, "rank_in_cluster": 1}

>  <energy>  (17) 
-8.02

>  <cluster_rmsd>  (17) 
1.89

>  <cluster>  (17) 
1

$$$$

     RDKit          3D

 52 55  0  0  0  0  0  0  0  0999 V2000
  138.3980   72.3040  222.4120 O   0  0  0  0  0  0  0  0  0  0  0  0
  139.5170   72.0060  222.8950 C   0  0  0  0  0  0  0  0  0  0  0  0
  140.6730   72.6090  222.3270 N   0  0  0  0  0  0  0  0  0  0  0  0
  140.4780   73.5310  221.2260 C   0  0  0  0  0  0  0  0  0  0  0  0
  141.7710   73.7780  220.5050 C   0  0  0  0  0  0  0  0  0  0  0  0
  142.7160   72.9890  220.8110 O   0  0  0  0  0  0  0  0  0  0  0  0
  141.9190   74.8220  219.5510 N   0  0  0  0  0  0  0  0  0  0  0  0
  141.9770   74.5790  218.1280 C   0  0  0  0  0  0  0  0  0  0  0  0
  142.6960   75.8540  217.6620 C   0  0  0  0  0  0  0  0  0  0  0  0
  142.1320   76.9250  218.6070 C   0  0  2  0  0  0  0  0  0  0  0  0
  143.0410   77.9720  218.6080 O   0  0  0  0  0  0  0  0  0  0  0  0
  142.0360   76.2070  219.9010 C   0  0  1  0  0  0  0  0  0  0  0  0
  140.9490   76.7260  220.8040 C   0  0  0  0  0  0  0  0  0  0  0  0
  141.3370   77.8940  221.6220 C   0  0  0  0  0  0  0  0  0  0  0  0
  141.7860   79.0880  221.1040 C   0  0  0  0  0  0  0  0  0  0  0  0
  142.1410   80.1700  221.8890 C   0  0  0  0  0  0  0  0  0  0  0  0
  142.0590   80.0940  223.2590 C   0  0  0  0  0  0  0  0  0  0  0  0
  142.5160   81.4820  224.2200 Cl  0  0  0  0  0  0  0  0  0  0  0  0
  141.6130   78.9130  223.8100 C   0  0  0  0  0  0  0  0  0  0  0  0
  141.2590   77.8370  223.0200 C   0  0  0  0  0  0  0  0  0  0  0  0
  139.6470   71.0700  224.0050 C   0  0  0  0  0  0  0  0  0  0  0  0
  139.0890   69.8040  223.8770 C   0  0  0  0  0  0  0  0  0  0  0  0
  139.2020   68.9050  224.9170 C   0  0  0  0  0  0  0  0  0  0  0  0
  139.8530   69.2510  226.0570 C   0  0  0  0  0  0  0  0  0  0  0  0
  139.9400   68.3090  227.0790 C   0  0  0  0  0  0  0  0  0  0  0  0
  140.6070   68.6800  228.2340 C   0  0  0  0  0  0  0  0  0  0  0  0
  140.7240   67.7970  229.2690 F   0  0  0  0  0  0  0  0  0  0  0  0
  141.1570   69.9390  228.3510 C   0  0  0  0  0  0  0  0  0  0  0  0
  141.0690   70.8700  227.3360 C   0  0  0  0  0  0  0  0  0  0  0  0
  140.4100   70.5160  226.1850 C   0  0  0  0  0  0  0  0  0  0  0  0
  140.2840   71.3760  225.1500 N   0  0  0  0  0  0  0  0  0  0  0  0
  141.6170   72.3790  222.7100 H   0  0  0  0  0  0  0  0  0  0  0  0
  139.7482   73.1039  220.5224 H   0  0  0  0  0  0  0  0  0  0  0  0
  140.1084   74.4866  221.6264 H   0  0  0  0  0  0  0  0  0  0  0  0
  142.5578   73.6749  217.8927 H   0  0  0  0  0  0  0  0  0  0  0  0
  141.0022   74.3992  217.6511 H   0  0  0  0  0  0  0  0  0  0  0  0
  143.7859   75.7588  217.7760 H   0  0  0  0  0  0  0  0  0  0  0  0
  142.5342   76.0820  216.5981 H   0  0  0  0  0  0  0  0  0  0  0  0
  141.1561   77.3594  218.3443 H   0  0  0  0  0  0  0  0  0  0  0  0
  143.7050   77.9080  219.3390 H   0  0  0  0  0  0  0  0  0  0  0  0
  142.9270   76.3727  220.5244 H   0  0  0  0  0  0  0  0  0  0  0  0
  140.0913   77.0144  220.1785 H   0  0  0  0  0  0  0  0  0  0  0  0
  140.7142   75.9148  221.5088 H   0  0  0  0  0  0  0  0  0  0  0  0
  141.8664   79.1863  220.0114 H   0  0  0  0  0  0  0  0  0  0  0  0
  142.4915   81.0980  221.4136 H   0  0  0  0  0  0  0  0  0  0  0  0
  141.5371   78.8249  224.9038 H   0  0  0  0  0  0  0  0  0  0  0  0
  140.9070   76.9120  223.5002 H   0  0  0  0  0  0  0  0  0  0  0  0
  138.5616   69.5210  222.9541 H   0  0  0  0  0  0  0  0  0  0  0  0
  138.7619   67.9014  224.8221 H   0  0  0  0  0  0  0  0  0  0  0  0
  139.4957   67.3084  226.9726 H   0  0  0  0  0  0  0  0  0  0  0  0
  141.6808   70.2090  229.2798 H   0  0  0  0  0  0  0  0  0  0  0  0
  141.5152   71.8694  227.4464 H   0  0  0  0  0  0  0  0  0  0  0  0
  1  2  2  0
  2  3  1  0
  3  4  1  0
  4  5  1  0
  5  6  2  0
  5  7  1  0
  7  8  1  0
  8  9  1  0
  9 10  1  0
 10 11  1  0
 10 12  1  0
 12 13  1  0
 13 14  1  0
 14 15  2  0
 15 16  1  0
 16 17  2  0
 17 18  1  0
 17 19  1  0
 19 20  2  0
  2 21  1  0
 21 22  2  0
 22 23  1  0
 23 24  2  0
 24 25  1  0
 25 26  2  0
 26 27  1  0
 26 28  1  0
 28 29  2  0
 29 30  1  0
 30 31  2  0
 12  7  1  0
 20 14  1  0
 31 21  1  0
 30 24  1  0
  3 32  1  0
  4 33  1  0
  4 34  1  0
  8 35  1  0
  8 36  1  0
  9 37  1  0
  9 38  1  0
 10 39  1  6
 11 40  1  0
 12 41  1  1
 13 42  1  0
 13 43  1  0
 15 44  1  0
 16 45  1  0
 19 46  1  0
 20 47  1  0
 22 48  1  0
 23 49  1  0
 25 50  1  0
 28 51  1  0
 29 52  1  0
M  END
>  <smiles>  (18) 
O=C(NCC(=O)N1CC[C@H](O)[C@H]1Cc1ccc(Cl)cc1)c1ccc2cc(F)ccc2n1

>  <score_type>  (18) 
oracle

>  <origin>  (18) 
autodockgpu

>  <m_score__min__energy>  (18) 
-9.1999999999999993

>  <m_primary>  (18) 
energy

>  <rmsd>  (18) 
2.2139920997697247

>  <m_score__min__rmsd>  (18) 
2.2139920997697247

>  <meeko>  (18) 
{"free_energy": -8.63, "intermolecular_energy": -10.71, "internal_energy": -1.71, "cluster_size": 19, "cluster_id": 1, "rank_in_cluster": 5}

>  <energy>  (18) 
-7.95

>  <cluster_rmsd>  (18) 
1.75

>  <cluster>  (18) 
1

$$$$

     RDKit          3D

 52 55  0  0  0  0  0  0  0  0999 V2000
  141.2560   71.9420  221.1280 O   0  0  0  0  0  0  0  0  0  0  0  0
  140.6040   72.3940  222.1000 C   0  0  0  0  0  0  0  0  0  0  0  0
  140.1490   73.7390  222.0320 N   0  0  0  0  0  0  0  0  0  0  0  0
  140.4710   74.4990  220.8400 C   0  0  0  0  0  0  0  0  0  0  0  0
  140.9360   75.8790  221.2000 C   0  0  0  0  0  0  0  0  0  0  0  0
  140.8770   76.1620  222.4340 O   0  0  0  0  0  0  0  0  0  0  0  0
  141.4090   76.7980  220.2220 N   0  0  0  0  0  0  0  0  0  0  0  0
  140.8440   78.1170  220.0510 C   0  0  0  0  0  0  0  0  0  0  0  0
  141.2650   78.4080  218.6030 C   0  0  0  0  0  0  0  0  0  0  0  0
  142.6490   77.7470  218.5130 C   0  0  2  0  0  0  0  0  0  0  0  0
  142.8950   77.5240  217.1670 O   0  0  0  0  0  0  0  0  0  0  0  0
  142.4750   76.5080  219.3090 C   0  0  1  0  0  0  0  0  0  0  0  0
  143.7440   76.0170  219.9520 C   0  0  0  0  0  0  0  0  0  0  0  0
  143.9940   74.5700  219.7920 C   0  0  0  0  0  0  0  0  0  0  0  0
  143.3240   73.7630  218.8990 C   0  0  0  0  0  0  0  0  0  0  0  0
  143.5750   72.4100  218.7630 C   0  0  0  0  0  0  0  0  0  0  0  0
  144.5320   71.7970  219.5380 C   0  0  0  0  0  0  0  0  0  0  0  0
  144.8230   70.0840  219.3390 Cl  0  0  0  0  0  0  0  0  0  0  0  0
  145.2200   72.5760  220.4410 C   0  0  0  0  0  0  0  0  0  0  0  0
  144.9640   73.9270  220.5710 C   0  0  0  0  0  0  0  0  0  0  0  0
  140.3120   71.5780  223.2730 C   0  0  0  0  0  0  0  0  0  0  0  0
  139.5770   70.4110  223.1050 C   0  0  0  0  0  0  0  0  0  0  0  0
  139.2910   69.6270  224.2030 C   0  0  0  0  0  0  0  0  0  0  0  0
  139.7220   69.9890  225.4390 C   0  0  0  0  0  0  0  0  0  0  0  0
  139.4080   69.1650  226.5160 C   0  0  0  0  0  0  0  0  0  0  0  0
  139.8550   69.5520  227.7670 C   0  0  0  0  0  0  0  0  0  0  0  0
  139.5770   68.7820  228.8610 F   0  0  0  0  0  0  0  0  0  0  0  0
  140.5830   70.7130  227.9220 C   0  0  0  0  0  0  0  0  0  0  0  0
  140.8930   71.5280  226.8530 C   0  0  0  0  0  0  0  0  0  0  0  0
  140.4550   71.1560  225.6060 C   0  0  0  0  0  0  0  0  0  0  0  0
  140.7210   71.9050  224.5120 N   0  0  0  0  0  0  0  0  0  0  0  0
  139.6030   74.1420  222.8270 H   0  0  0  0  0  0  0  0  0  0  0  0
  141.2689   73.9820  220.2868 H   0  0  0  0  0  0  0  0  0  0  0  0
  139.5671   74.5815  220.2185 H   0  0  0  0  0  0  0  0  0  0  0  0
  139.7498   78.1091  220.1633 H   0  0  0  0  0  0  0  0  0  0  0  0
  141.1801   78.8617  220.7875 H   0  0  0  0  0  0  0  0  0  0  0  0
  140.5625   77.9559  217.8874 H   0  0  0  0  0  0  0  0  0  0  0  0
  141.2775   79.4807  218.3597 H   0  0  0  0  0  0  0  0  0  0  0  0
  143.5046   78.3232  218.8952 H   0  0  0  0  0  0  0  0  0  0  0  0
  143.5160   78.1850  216.7720 H   0  0  0  0  0  0  0  0  0  0  0  0
  142.2136   75.6496  218.6727 H   0  0  0  0  0  0  0  0  0  0  0  0
  144.5884   76.5626  219.5054 H   0  0  0  0  0  0  0  0  0  0  0  0
  143.6366   76.1975  221.0318 H   0  0  0  0  0  0  0  0  0  0  0  0
  142.5507   74.2176  218.2623 H   0  0  0  0  0  0  0  0  0  0  0  0
  143.0054   71.8198  218.0300 H   0  0  0  0  0  0  0  0  0  0  0  0
  145.9912   72.1118  221.0733 H   0  0  0  0  0  0  0  0  0  0  0  0
  145.5366   74.5128  221.3051 H   0  0  0  0  0  0  0  0  0  0  0  0
  139.2264   70.1150  222.1053 H   0  0  0  0  0  0  0  0  0  0  0  0
  138.7096   68.7018  224.0768 H   0  0  0  0  0  0  0  0  0  0  0  0
  138.8267   68.2414  226.3779 H   0  0  0  0  0  0  0  0  0  0  0  0
  140.9265   70.9975  228.9275 H   0  0  0  0  0  0  0  0  0  0  0  0
  141.4750   72.4504  226.9957 H   0  0  0  0  0  0  0  0  0  0  0  0
  1  2  2  0
  2  3  1  0
  3  4  1  0
  4  5  1  0
  5  6  2  0
  5  7  1  0
  7  8  1  0
  8  9  1  0
  9 10  1  0
 10 11  1  0
 10 12  1  0
 12 13  1  0
 13 14  1  0
 14 15  2  0
 15 16  1  0
 16 17  2  0
 17 18  1  0
 17 19  1  0
 19 20  2  0
  2 21  1  0
 21 22  2  0
 22 23  1  0
 23 24  2  0
 24 25  1  0
 25 26  2  0
 26 27  1  0
 26 28  1  0
 28 29  2  0
 29 30  1  0
 30 31  2  0
 12  7  1  0
 20 14  1  0
 31 21  1  0
 30 24  1  0
  3 32  1  0
  4 33  1  0
  4 34  1  0
  8 35  1  0
  8 36  1  0
  9 37  1  0
  9 38  1  0
 10 39  1  1
 11 40  1  0
 12 41  1  6
 13 42  1  0
 13 43  1  0
 15 44  1  0
 16 45  1  0
 19 46  1  0
 20 47  1  0
 22 48  1  0
 23 49  1  0
 25 50  1  0
 28 51  1  0
 29 52  1  0
M  END
>  <smiles>  (19) 
O=C(NCC(=O)N1CC[C@H](O)[C@H]1Cc1ccc(Cl)cc1)c1ccc2cc(F)ccc2n1

>  <score_type>  (19) 
oracle

>  <origin>  (19) 
autodockgpu

>  <m_score__min__energy>  (19) 
-9.1999999999999993

>  <m_primary>  (19) 
energy

>  <rmsd>  (19) 
2.3965826115449542

>  <m_score__min__rmsd>  (19) 
2.3965826115449542

>  <meeko>  (19) 
{"free_energy": -8.1, "intermolecular_energy": -10.18, "internal_energy": -2.14, "cluster_size": 23, "cluster_id": 2, "rank_in_cluster": 10}

>  <energy>  (19) 
-7.86

>  <cluster_rmsd>  (19) 
1.52

>  <cluster>  (19) 
1

$$$$

     RDKit          3D

 52 55  0  0  0  0  0  0  0  0999 V2000
  141.2110   72.5740  221.1420 O   0  0  0  0  0  0  0  0  0  0  0  0
  140.3830   72.8160  222.0540 C   0  0  0  0  0  0  0  0  0  0  0  0
  139.6410   74.0270  221.9800 N   0  0  0  0  0  0  0  0  0  0  0  0
  139.8940   74.9020  220.8530 C   0  0  0  0  0  0  0  0  0  0  0  0
  140.9530   75.9100  221.1890 C   0  0  0  0  0  0  0  0  0  0  0  0
  141.4500   75.8000  222.3500 O   0  0  0  0  0  0  0  0  0  0  0  0
  141.3630   76.9140  220.2690 N   0  0  0  0  0  0  0  0  0  0  0  0
  140.7720   78.2320  220.2330 C   0  0  0  0  0  0  0  0  0  0  0  0
  141.1190   78.6470  218.7950 C   0  0  0  0  0  0  0  0  0  0  0  0
  142.5060   78.0210  218.5870 C   0  0  2  0  0  0  0  0  0  0  0  0
  142.6900   77.9120  217.2170 O   0  0  0  0  0  0  0  0  0  0  0  0
  142.3890   76.7180  219.2860 C   0  0  1  0  0  0  0  0  0  0  0  0
  143.6950   76.2010  219.8270 C   0  0  0  0  0  0  0  0  0  0  0  0
  143.8250   74.7300  219.8130 C   0  0  0  0  0  0  0  0  0  0  0  0
  144.6400   74.0160  220.6640 C   0  0  0  0  0  0  0  0  0  0  0  0
  144.7440   72.6380  220.6350 C   0  0  0  0  0  0  0  0  0  0  0  0
  144.0180   71.9020  219.7290 C   0  0  0  0  0  0  0  0  0  0  0  0
  144.1760   70.1600  219.7220 Cl  0  0  0  0  0  0  0  0  0  0  0  0
  143.1940   72.5850  218.8630 C   0  0  0  0  0  0  0  0  0  0  0  0
  143.0930   73.9620  218.8980 C   0  0  0  0  0  0  0  0  0  0  0  0
  140.1740   71.8940  223.1640 C   0  0  0  0  0  0  0  0  0  0  0  0
  139.4350   70.7390  222.9400 C   0  0  0  0  0  0  0  0  0  0  0  0
  139.2270   69.8550  223.9780 C   0  0  0  0  0  0  0  0  0  0  0  0
  139.7390   70.1080  225.2100 C   0  0  0  0  0  0  0  0  0  0  0  0
  139.5010   69.1860  226.2260 C   0  0  0  0  0  0  0  0  0  0  0  0
  140.0300   69.4610  227.4740 C   0  0  0  0  0  0  0  0  0  0  0  0
  139.8300   68.5930  228.5090 F   0  0  0  0  0  0  0  0  0  0  0  0
  140.7630   70.6110  227.6860 C   0  0  0  0  0  0  0  0  0  0  0  0
  140.9970   71.5230  226.6770 C   0  0  0  0  0  0  0  0  0  0  0  0
  140.4770   71.2630  225.4340 C   0  0  0  0  0  0  0  0  0  0  0  0
  140.6650   72.1100  224.3970 N   0  0  0  0  0  0  0  0  0  0  0  0
  138.9460   74.2540  222.7250 H   0  0  0  0  0  0  0  0  0  0  0  0
  140.2289   74.2989  219.9962 H   0  0  0  0  0  0  0  0  0  0  0  0
  138.9647   75.4359  220.6053 H   0  0  0  0  0  0  0  0  0  0  0  0
  139.6846   78.1954  220.3952 H   0  0  0  0  0  0  0  0  0  0  0  0
  141.1325   78.9205  221.0114 H   0  0  0  0  0  0  0  0  0  0  0  0
  140.3895   78.2416  218.0784 H   0  0  0  0  0  0  0  0  0  0  0  0
  141.1044   79.7359  218.6398 H   0  0  0  0  0  0  0  0  0  0  0  0
  143.3702   78.5801  218.9751 H   0  0  0  0  0  0  0  0  0  0  0  0
  143.3320   78.5750  216.8590 H   0  0  0  0  0  0  0  0  0  0  0  0
  142.1104   75.9088  218.5950 H   0  0  0  0  0  0  0  0  0  0  0  0
  144.5094   76.6235  219.2202 H   0  0  0  0  0  0  0  0  0  0  0  0
  143.7400   76.5087  220.8821 H   0  0  0  0  0  0  0  0  0  0  0  0
  145.2375   74.5700  221.4030 H   0  0  0  0  0  0  0  0  0  0  0  0
  145.4130   72.1263  221.3425 H   0  0  0  0  0  0  0  0  0  0  0  0
  142.6026   72.0212  218.1265 H   0  0  0  0  0  0  0  0  0  0  0  0
  142.4209   74.4685  218.1896 H   0  0  0  0  0  0  0  0  0  0  0  0
  139.0192   70.5313  221.9430 H   0  0  0  0  0  0  0  0  0  0  0  0
  138.6425   68.9390  223.8068 H   0  0  0  0  0  0  0  0  0  0  0  0
  138.9145   68.2736  226.0430 H   0  0  0  0  0  0  0  0  0  0  0  0
  141.1725   70.8063  228.6881 H   0  0  0  0  0  0  0  0  0  0  0  0
  141.5846   72.4339  226.8641 H   0  0  0  0  0  0  0  0  0  0  0  0
  1  2  2  0
  2  3  1  0
  3  4  1  0
  4  5  1  0
  5  6  2  0
  5  7  1  0
  7  8  1  0
  8  9  1  0
  9 10  1  0
 10 11  1  0
 10 12  1  0
 12 13  1  0
 13 14  1  0
 14 15  2  0
 15 16  1  0
 16 17  2  0
 17 18  1  0
 17 19  1  0
 19 20  2  0
  2 21  1  0
 21 22  2  0
 22 23  1  0
 23 24  2  0
 24 25  1  0
 25 26  2  0
 26 27  1  0
 26 28  1  0
 28 29  2  0
 29 30  1  0
 30 31  2  0
 12  7  1  0
 20 14  1  0
 31 21  1  0
 30 24  1  0
  3 32  1  0
  4 33  1  0
  4 34  1  0
  8 35  1  0
  8 36  1  0
  9 37  1  0
  9 38  1  0
 10 39  1  1
 11 40  1  0
 12 41  1  6
 13 42  1  0
 13 43  1  0
 15 44  1  0
 16 45  1  0
 19 46  1  0
 20 47  1  0
 22 48  1  0
 23 49  1  0
 25 50  1  0
 28 51  1  0
 29 52  1  0
M  END
>  <smiles>  (20) 
O=C(NCC(=O)N1CC[C@H](O)[C@H]1Cc1ccc(Cl)cc1)c1ccc2cc(F)ccc2n1

>  <score_type>  (20) 
oracle

>  <origin>  (20) 
autodockgpu

>  <m_score__min__energy>  (20) 
-9.1999999999999993

>  <m_primary>  (20) 
energy

>  <rmsd>  (20) 
2.4261754823188264

>  <m_score__min__rmsd>  (20) 
2.4261754823188264

>  <meeko>  (20) 
{"free_energy": -8.0, "intermolecular_energy": -10.09, "internal_energy": -2.02, "cluster_size": 23, "cluster_id": 2, "rank_in_cluster": 15}

>  <energy>  (20) 
-8.71

>  <cluster_rmsd>  (20) 
0.0

>  <cluster>  (20) 
2

$$$$

     RDKit          3D

 52 55  0  0  0  0  0  0  0  0999 V2000
  140.4030   71.0180  221.2620 O   0  0  0  0  0  0  0  0  0  0  0  0
  140.1650   71.5730  222.3620 C   0  0  0  0  0  0  0  0  0  0  0  0
  139.9670   72.9810  222.3730 N   0  0  0  0  0  0  0  0  0  0  0  0
  140.0530   73.6820  221.1070 C   0  0  0  0  0  0  0  0  0  0  0  0
  140.7410   75.0040  221.2760 C   0  0  0  0  0  0  0  0  0  0  0  0
  140.3160   75.7110  222.2390 O   0  0  0  0  0  0  0  0  0  0  0  0
  141.7920   75.4270  220.4160 N   0  0  0  0  0  0  0  0  0  0  0  0
  141.9700   76.8050  220.0180 C   0  0  0  0  0  0  0  0  0  0  0  0
  142.7840   76.6130  218.7290 C   0  0  0  0  0  0  0  0  0  0  0  0
  143.6730   75.4070  219.0670 C   0  0  2  0  0  0  0  0  0  0  0  0
  144.0730   74.8580  217.8580 O   0  0  0  0  0  0  0  0  0  0  0  0
  142.7660   74.5370  219.8550 C   0  0  1  0  0  0  0  0  0  0  0  0
  143.4780   73.6650  220.8540 C   0  0  0  0  0  0  0  0  0  0  0  0
  143.9990   72.3980  220.3010 C   0  0  0  0  0  0  0  0  0  0  0  0
  143.2790   71.2250  220.2410 C   0  0  0  0  0  0  0  0  0  0  0  0
  143.7850   70.0510  219.7160 C   0  0  0  0  0  0  0  0  0  0  0  0
  145.0660   70.0040  219.2190 C   0  0  0  0  0  0  0  0  0  0  0  0
  145.6730   68.5010  218.5630 Cl  0  0  0  0  0  0  0  0  0  0  0  0
  145.8130   71.1600  219.2640 C   0  0  0  0  0  0  0  0  0  0  0  0
  145.3010   72.3300  219.7890 C   0  0  0  0  0  0  0  0  0  0  0  0
  140.0920   70.8120  223.6040 C   0  0  0  0  0  0  0  0  0  0  0  0
  139.4820   69.5640  223.5840 C   0  0  0  0  0  0  0  0  0  0  0  0
  139.4030   68.8290  224.7480 C   0  0  0  0  0  0  0  0  0  0  0  0
  139.9150   69.3200  225.9070 C   0  0  0  0  0  0  0  0  0  0  0  0
  139.8110   68.5410  227.0570 C   0  0  0  0  0  0  0  0  0  0  0  0
  140.3380   69.0570  228.2270 C   0  0  0  0  0  0  0  0  0  0  0  0
  140.2640   68.3380  229.3860 F   0  0  0  0  0  0  0  0  0  0  0  0
  140.9400   70.2980  228.2360 C   0  0  0  0  0  0  0  0  0  0  0  0
  141.0430   71.0670  227.0950 C   0  0  0  0  0  0  0  0  0  0  0  0
  140.5230   70.5670  225.9270 C   0  0  0  0  0  0  0  0  0  0  0  0
  140.5870   71.2640  224.7700 N   0  0  0  0  0  0  0  0  0  0  0  0
  139.7680   73.4690  223.2740 H   0  0  0  0  0  0  0  0  0  0  0  0
  140.6215   73.0682  220.3928 H   0  0  0  0  0  0  0  0  0  0  0  0
  139.0341   73.8600  220.7326 H   0  0  0  0  0  0  0  0  0  0  0  0
  141.0074   77.3000  219.8220 H   0  0  0  0  0  0  0  0  0  0  0  0
  142.4475   77.4455  220.7741 H   0  0  0  0  0  0  0  0  0  0  0  0
  142.1272   76.3943  217.8741 H   0  0  0  0  0  0  0  0  0  0  0  0
  143.3542   77.5068  218.4358 H   0  0  0  0  0  0  0  0  0  0  0  0
  144.5915   75.6078  219.6380 H   0  0  0  0  0  0  0  0  0  0  0  0
  144.9300   75.2280  217.5290 H   0  0  0  0  0  0  0  0  0  0  0  0
  142.2777   73.7801  219.2236 H   0  0  0  0  0  0  0  0  0  0  0  0
  144.3248   74.2343  221.2648 H   0  0  0  0  0  0  0  0  0  0  0  0
  142.7335   73.3907  221.6159 H   0  0  0  0  0  0  0  0  0  0  0  0
  142.2502   71.2227  220.6303 H   0  0  0  0  0  0  0  0  0  0  0  0
  143.1581   69.1474  219.6956 H   0  0  0  0  0  0  0  0  0  0  0  0
  146.8411   71.1511  218.8728 H   0  0  0  0  0  0  0  0  0  0  0  0
  145.9314   73.2313  219.8056 H   0  0  0  0  0  0  0  0  0  0  0  0
  139.0654   69.1654  222.6472 H   0  0  0  0  0  0  0  0  0  0  0  0
  138.9227   67.8394  224.7383 H   0  0  0  0  0  0  0  0  0  0  0  0
  139.3281   67.5529  227.0355 H   0  0  0  0  0  0  0  0  0  0  0  0
  141.3499   70.6859  229.1802 H   0  0  0  0  0  0  0  0  0  0  0  0
  141.5285   72.0537  227.1206 H   0  0  0  0  0  0  0  0  0  0  0  0
  1  2  2  0
  2  3  1  0
  3  4  1  0
  4  5  1  0
  5  6  2  0
  5  7  1  0
  7  8  1  0
  8  9  1  0
  9 10  1  0
 10 11  1  0
 10 12  1  0
 12 13  1  0
 13 14  1  0
 14 15  2  0
 15 16  1  0
 16 17  2  0
 17 18  1  0
 17 19  1  0
 19 20  2  0
  2 21  1  0
 21 22  2  0
 22 23  1  0
 23 24  2  0
 24 25  1  0
 25 26  2  0
 26 27  1  0
 26 28  1  0
 28 29  2  0
 29 30  1  0
 30 31  2  0
 12  7  1  0
 20 14  1  0
 31 21  1  0
 30 24  1  0
  3 32  1  0
  4 33  1  0
  4 34  1  0
  8 35  1  0
  8 36  1  0
  9 37  1  0
  9 38  1  0
 10 39  1  1
 11 40  1  0
 12 41  1  6
 13 42  1  0
 13 43  1  0
 15 44  1  0
 16 45  1  0
 19 46  1  0
 20 47  1  0
 22 48  1  0
 23 49  1  0
 25 50  1  0
 28 51  1  0
 29 52  1  0
M  END
>  <smiles>  (21) 
O=C(NCC(=O)N1CC[C@H](O)[C@H]1Cc1ccc(Cl)cc1)c1ccc2cc(F)ccc2n1

>  <score_type>  (21) 
oracle

>  <origin>  (21) 
autodockgpu

>  <m_score__min__energy>  (21) 
-9.1999999999999993

>  <m_primary>  (21) 
energy

>  <rmsd>  (21) 
2.508689549942819

>  <m_score__min__rmsd>  (21) 
2.508689549942819

>  <meeko>  (21) 
{"free_energy": -8.44, "intermolecular_energy": -10.53, "internal_energy": -1.97, "cluster_size": 23, "cluster_id": 2, "rank_in_cluster": 7}

>  <energy>  (21) 
-8.71

>  <cluster_rmsd>  (21) 
0.11

>  <cluster>  (21) 
2

$$$$

     RDKit          3D

 52 55  0  0  0  0  0  0  0  0999 V2000
  137.8410   70.7100  222.4430 O   0  0  0  0  0  0  0  0  0  0  0  0
  138.7250   71.0920  223.2460 C   0  0  0  0  0  0  0  0  0  0  0  0
  139.2980   72.3780  223.0480 N   0  0  0  0  0  0  0  0  0  0  0  0
  138.8190   73.1630  221.9280 C   0  0  0  0  0  0  0  0  0  0  0  0
  139.5770   74.4520  221.8190 C   0  0  0  0  0  0  0  0  0  0  0  0
  140.8360   74.3460  221.9220 O   0  0  0  0  0  0  0  0  0  0  0  0
  138.9250   75.7010  221.6160 N   0  0  0  0  0  0  0  0  0  0  0  0
  137.8770   76.1860  222.4850 C   0  0  0  0  0  0  0  0  0  0  0  0
  137.1770   77.1750  221.5410 C   0  0  0  0  0  0  0  0  0  0  0  0
  138.3480   77.7630  220.7390 C   0  0  2  0  0  0  0  0  0  0  0  0
  137.8080   78.2750  219.5680 O   0  0  0  0  0  0  0  0  0  0  0  0
  139.2310   76.5900  220.5340 C   0  0  1  0  0  0  0  0  0  0  0  0
  140.6870   76.9430  220.3970 C   0  0  0  0  0  0  0  0  0  0  0  0
  141.1480   78.0100  221.3100 C   0  0  0  0  0  0  0  0  0  0  0  0
  141.6680   79.2150  220.8930 C   0  0  0  0  0  0  0  0  0  0  0  0
  142.0910   80.2010  221.7640 C   0  0  0  0  0  0  0  0  0  0  0  0
  142.0070   80.0130  223.1240 C   0  0  0  0  0  0  0  0  0  0  0  0
  142.5510   81.2830  224.1970 Cl  0  0  0  0  0  0  0  0  0  0  0  0
  141.4920   78.8180  223.5740 C   0  0  0  0  0  0  0  0  0  0  0  0
  141.0710   77.8380  222.6980 C   0  0  0  0  0  0  0  0  0  0  0  0
  139.1660   70.2550  224.3560 C   0  0  0  0  0  0  0  0  0  0  0  0
  138.8540   68.9020  224.3330 C   0  0  0  0  0  0  0  0  0  0  0  0
  139.2620   68.0940  225.3740 C   0  0  0  0  0  0  0  0  0  0  0  0
  139.9620   68.6150  226.4140 C   0  0  0  0  0  0  0  0  0  0  0  0
  140.3520   67.7590  227.4420 C   0  0  0  0  0  0  0  0  0  0  0  0
  141.0650   68.3080  228.4940 C   0  0  0  0  0  0  0  0  0  0  0  0
  141.4730   67.5170  229.5300 F   0  0  0  0  0  0  0  0  0  0  0  0
  141.3680   69.6530  228.5070 C   0  0  0  0  0  0  0  0  0  0  0  0
  140.9810   70.4990  227.4870 C   0  0  0  0  0  0  0  0  0  0  0  0
  140.2730   69.9680  226.4370 C   0  0  0  0  0  0  0  0  0  0  0  0
  139.8610   70.7340  225.4030 N   0  0  0  0  0  0  0  0  0  0  0  0
  140.0370   72.7220  223.7020 H   0  0  0  0  0  0  0  0  0  0  0  0
  138.9520   72.5868  221.0005 H   0  0  0  0  0  0  0  0  0  0  0  0
  137.7549   73.3918  222.0870 H   0  0  0  0  0  0  0  0  0  0  0  0
  137.2021   75.3766  222.8004 H   0  0  0  0  0  0  0  0  0  0  0  0
  138.2278   76.6217  223.4321 H   0  0  0  0  0  0  0  0  0  0  0  0
  136.4648   76.6574  220.8815 H   0  0  0  0  0  0  0  0  0  0  0  0
  136.5834   77.9362  222.0685 H   0  0  0  0  0  0  0  0  0  0  0  0
  138.9135   78.5821  221.2073 H   0  0  0  0  0  0  0  0  0  0  0  0
  137.3290   77.5940  219.0330 H   0  0  0  0  0  0  0  0  0  0  0  0
  139.0397   76.1011  219.5674 H   0  0  0  0  0  0  0  0  0  0  0  0
  141.2801   76.0387  220.5983 H   0  0  0  0  0  0  0  0  0  0  0  0
  140.8208   77.3268  219.3748 H   0  0  0  0  0  0  0  0  0  0  0  0
  141.7508   79.4021  219.8122 H   0  0  0  0  0  0  0  0  0  0  0  0
  142.4977   81.1428  221.3669 H   0  0  0  0  0  0  0  0  0  0  0  0
  141.4143   78.6402  224.6568 H   0  0  0  0  0  0  0  0  0  0  0  0
  140.6647   76.8981  223.1000 H   0  0  0  0  0  0  0  0  0  0  0  0
  138.2862   68.4781  223.4916 H   0  0  0  0  0  0  0  0  0  0  0  0
  139.0187   67.0213  225.3613 H   0  0  0  0  0  0  0  0  0  0  0  0
  140.1028   66.6879  227.4185 H   0  0  0  0  0  0  0  0  0  0  0  0
  141.9349   70.0642  229.3553 H   0  0  0  0  0  0  0  0  0  0  0  0
  141.2330   71.5694  227.5146 H   0  0  0  0  0  0  0  0  0  0  0  0
  1  2  2  0
  2  3  1  0
  3  4  1  0
  4  5  1  0
  5  6  2  0
  5  7  1  0
  7  8  1  0
  8  9  1  0
  9 10  1  0
 10 11  1  0
 10 12  1  0
 12 13  1  0
 13 14  1  0
 14 15  2  0
 15 16  1  0
 16 17  2  0
 17 18  1  0
 17 19  1  0
 19 20  2  0
  2 21  1  0
 21 22  2  0
 22 23  1  0
 23 24  2  0
 24 25  1  0
 25 26  2  0
 26 27  1  0
 26 28  1  0
 28 29  2  0
 29 30  1  0
 30 31  2  0
 12  7  1  0
 20 14  1  0
 31 21  1  0
 30 24  1  0
  3 32  1  0
  4 33  1  0
  4 34  1  0
  8 35  1  0
  8 36  1  0
  9 37  1  0
  9 38  1  0
 10 39  1  1
 11 40  1  0
 12 41  1  6
 13 42  1  0
 13 43  1  0
 15 44  1  0
 16 45  1  0
 19 46  1  0
 20 47  1  0
 22 48  1  0
 23 49  1  0
 25 50  1  0
 28 51  1  0
 29 52  1  0
M  END
>  <smiles>  (22) 
O=C(NCC(=O)N1CC[C@H](O)[C@H]1Cc1ccc(Cl)cc1)c1ccc2cc(F)ccc2n1

>  <score_type>  (22) 
oracle

>  <origin>  (22) 
autodockgpu

>  <m_score__min__energy>  (22) 
-9.1999999999999993

>  <m_primary>  (22) 
energy

>  <rmsd>  (22) 
2.771731332939379

>  <m_score__min__rmsd>  (22) 
2.771731332939379

>  <meeko>  (22) 
{"free_energy": -8.25, "intermolecular_energy": -10.34, "internal_energy": -1.77, "cluster_size": 19, "cluster_id": 1, "rank_in_cluster": 14}

>  <energy>  (22) 
-8.68

>  <cluster_rmsd>  (22) 
0.27

>  <cluster>  (22) 
2

$$$$

     RDKit          3D

 52 55  0  0  0  0  0  0  0  0999 V2000
  141.2070   71.8600  221.0310 O   0  0  0  0  0  0  0  0  0  0  0  0
  140.6330   72.3490  222.0340 C   0  0  0  0  0  0  0  0  0  0  0  0
  140.2860   73.7270  222.0020 N   0  0  0  0  0  0  0  0  0  0  0  0
  140.6200   74.4760  220.8060 C   0  0  0  0  0  0  0  0  0  0  0  0
  140.9140   75.9080  221.1420 C   0  0  0  0  0  0  0  0  0  0  0  0
  140.7510   76.2190  222.3600 O   0  0  0  0  0  0  0  0  0  0  0  0
  141.3430   76.8440  220.1600 N   0  0  0  0  0  0  0  0  0  0  0  0
  140.7420   78.1490  220.0080 C   0  0  0  0  0  0  0  0  0  0  0  0
  141.1260   78.4590  218.5530 C   0  0  0  0  0  0  0  0  0  0  0  0
  142.5240   77.8330  218.4320 C   0  0  2  0  0  0  0  0  0  0  0  0
  142.7480   77.6230  217.0800 O   0  0  0  0  0  0  0  0  0  0  0  0
  142.3970   76.5860  219.2240 C   0  0  1  0  0  0  0  0  0  0  0  0
  143.6910   76.1240  219.8390 C   0  0  0  0  0  0  0  0  0  0  0  0
  143.9580   74.6780  219.6940 C   0  0  0  0  0  0  0  0  0  0  0  0
  143.5350   73.9150  218.6290 C   0  0  0  0  0  0  0  0  0  0  0  0
  143.7980   72.5630  218.5120 C   0  0  0  0  0  0  0  0  0  0  0  0
  144.5130   71.9050  219.4850 C   0  0  0  0  0  0  0  0  0  0  0  0
  144.8270   70.1940  219.3030 Cl  0  0  0  0  0  0  0  0  0  0  0  0
  144.9510   72.6390  220.5640 C   0  0  0  0  0  0  0  0  0  0  0  0
  144.6850   73.9900  220.6740 C   0  0  0  0  0  0  0  0  0  0  0  0
  140.3240   71.5410  223.2090 C   0  0  0  0  0  0  0  0  0  0  0  0
  139.5830   70.3780  223.0410 C   0  0  0  0  0  0  0  0  0  0  0  0
  139.2810   69.6020  224.1400 C   0  0  0  0  0  0  0  0  0  0  0  0
  139.7020   69.9690  225.3780 C   0  0  0  0  0  0  0  0  0  0  0  0
  139.3710   69.1530  226.4560 C   0  0  0  0  0  0  0  0  0  0  0  0
  139.8080   69.5430  227.7100 C   0  0  0  0  0  0  0  0  0  0  0  0
  139.5140   68.7820  228.8050 F   0  0  0  0  0  0  0  0  0  0  0  0
  140.5420   70.7010  227.8660 C   0  0  0  0  0  0  0  0  0  0  0  0
  140.8690   71.5070  226.7950 C   0  0  0  0  0  0  0  0  0  0  0  0
  140.4410   71.1320  225.5460 C   0  0  0  0  0  0  0  0  0  0  0  0
  140.7230   71.8720  224.4500 N   0  0  0  0  0  0  0  0  0  0  0  0
  139.8070   74.1600  222.8230 H   0  0  0  0  0  0  0  0  0  0  0  0
  141.5062   74.0265  220.3342 H   0  0  0  0  0  0  0  0  0  0  0  0
  139.7629   74.4431  220.1173 H   0  0  0  0  0  0  0  0  0  0  0  0
  139.6508   78.1129  220.1423 H   0  0  0  0  0  0  0  0  0  0  0  0
  141.0745   78.8978  220.7419 H   0  0  0  0  0  0  0  0  0  0  0  0
  140.4207   77.9936  217.8488 H   0  0  0  0  0  0  0  0  0  0  0  0
  141.1066   79.5329  218.3157 H   0  0  0  0  0  0  0  0  0  0  0  0
  143.3724   78.4283  218.8006 H   0  0  0  0  0  0  0  0  0  0  0  0
  143.3680   78.2840  216.6830 H   0  0  0  0  0  0  0  0  0  0  0  0
  142.1441   75.7249  218.5879 H   0  0  0  0  0  0  0  0  0  0  0  0
  144.5143   76.6748  219.3607 H   0  0  0  0  0  0  0  0  0  0  0  0
  143.6112   76.3201  220.9184 H   0  0  0  0  0  0  0  0  0  0  0  0
  142.9587   74.4060  217.8310 H   0  0  0  0  0  0  0  0  0  0  0  0
  143.4328   72.0096  217.6343 H   0  0  0  0  0  0  0  0  0  0  0  0
  145.5260   72.1382  221.3568 H   0  0  0  0  0  0  0  0  0  0  0  0
  145.0532   74.5393  221.5530 H   0  0  0  0  0  0  0  0  0  0  0  0
  139.2400   70.0787  222.0396 H   0  0  0  0  0  0  0  0  0  0  0  0
  138.6953   68.6796  224.0132 H   0  0  0  0  0  0  0  0  0  0  0  0
  138.7843   68.2330  226.3165 H   0  0  0  0  0  0  0  0  0  0  0  0
  140.8761   70.9899  228.8734 H   0  0  0  0  0  0  0  0  0  0  0  0
  141.4570   72.4256  226.9383 H   0  0  0  0  0  0  0  0  0  0  0  0
  1  2  2  0
  2  3  1  0
  3  4  1  0
  4  5  1  0
  5  6  2  0
  5  7  1  0
  7  8  1  0
  8  9  1  0
  9 10  1  0
 10 11  1  0
 10 12  1  0
 12 13  1  0
 13 14  1  0
 14 15  2  0
 15 16  1  0
 16 17  2  0
 17 18  1  0
 17 19  1  0
 19 20  2  0
  2 21  1  0
 21 22  2  0
 22 23  1  0
 23 24  2  0
 24 25  1  0
 25 26  2  0
 26 27  1  0
 26 28  1  0
 28 29  2  0
 29 30  1  0
 30 31  2  0
 12  7  1  0
 20 14  1  0
 31 21  1  0
 30 24  1  0
  3 32  1  0
  4 33  1  0
  4 34  1  0
  8 35  1  0
  8 36  1  0
  9 37  1  0
  9 38  1  0
 10 39  1  1
 11 40  1  0
 12 41  1  6
 13 42  1  0
 13 43  1  0
 15 44  1  0
 16 45  1  0
 19 46  1  0
 20 47  1  0
 22 48  1  0
 23 49  1  0
 25 50  1  0
 28 51  1  0
 29 52  1  0
M  END
>  <smiles>  (23) 
O=C(NCC(=O)N1CC[C@H](O)[C@H]1Cc1ccc(Cl)cc1)c1ccc2cc(F)ccc2n1

>  <score_type>  (23) 
oracle

>  <origin>  (23) 
autodockgpu

>  <m_score__min__energy>  (23) 
-9.1999999999999993

>  <m_primary>  (23) 
energy

>  <rmsd>  (23) 
2.389800768204806

>  <m_score__min__rmsd>  (23) 
2.389800768204806

>  <meeko>  (23) 
{"free_energy": -7.87, "intermolecular_energy": -9.96, "internal_energy": -2.3, "cluster_size": 23, "cluster_id": 2, "rank_in_cluster": 21}

>  <energy>  (23) 
-8.63

>  <cluster_rmsd>  (23) 
0.31

>  <cluster>  (23) 
2

$$$$

     RDKit          3D

 52 55  0  0  0  0  0  0  0  0999 V2000
  138.8140   70.6480  221.4550 O   0  0  0  0  0  0  0  0  0  0  0  0
  139.0680   71.2190  222.5430 C   0  0  0  0  0  0  0  0  0  0  0  0
  139.0700   72.6410  222.5690 N   0  0  0  0  0  0  0  0  0  0  0  0
  138.7770   73.3360  221.3310 C   0  0  0  0  0  0  0  0  0  0  0  0
  138.9840   74.8130  221.4890 C   0  0  0  0  0  0  0  0  0  0  0  0
  138.2310   75.3720  222.3440 O   0  0  0  0  0  0  0  0  0  0  0  0
  139.9530   75.5290  220.7330 N   0  0  0  0  0  0  0  0  0  0  0  0
  139.7770   75.8440  219.3340 C   0  0  0  0  0  0  0  0  0  0  0  0
  141.2410   76.0490  218.9150 C   0  0  0  0  0  0  0  0  0  0  0  0
  141.8590   76.7090  220.1570 C   0  0  2  0  0  0  0  0  0  0  0  0
  143.2270   76.4920  220.0810 O   0  0  0  0  0  0  0  0  0  0  0  0
  141.1960   75.9960  221.2750 C   0  0  1  0  0  0  0  0  0  0  0  0
  141.0710   76.8190  222.5290 C   0  0  0  0  0  0  0  0  0  0  0  0
  141.0870   78.2790  222.3090 C   0  0  0  0  0  0  0  0  0  0  0  0
  142.1440   79.1000  222.6330 C   0  0  0  0  0  0  0  0  0  0  0  0
  142.1400   80.4650  222.4160 C   0  0  0  0  0  0  0  0  0  0  0  0
  141.0460   81.0780  221.8510 C   0  0  0  0  0  0  0  0  0  0  0  0
  141.0760   82.8070  221.5900 Cl  0  0  0  0  0  0  0  0  0  0  0  0
  139.9710   80.2850  221.5150 C   0  0  0  0  0  0  0  0  0  0  0  0
  139.9830   78.9220  221.7340 C   0  0  0  0  0  0  0  0  0  0  0  0
  139.3550   70.4630  223.7570 C   0  0  0  0  0  0  0  0  0  0  0  0
  139.0100   69.1180  223.7990 C   0  0  0  0  0  0  0  0  0  0  0  0
  139.2740   68.3860  224.9380 C   0  0  0  0  0  0  0  0  0  0  0  0
  139.8650   68.9720  226.0110 C   0  0  0  0  0  0  0  0  0  0  0  0
  140.1100   68.1920  227.1380 C   0  0  0  0  0  0  0  0  0  0  0  0
  140.7140   68.8080  228.2210 C   0  0  0  0  0  0  0  0  0  0  0  0
  140.9790   68.0920  229.3540 F   0  0  0  0  0  0  0  0  0  0  0  0
  141.0510   70.1440  228.1680 C   0  0  0  0  0  0  0  0  0  0  0  0
  140.8070   70.9140  227.0490 C   0  0  0  0  0  0  0  0  0  0  0  0
  140.2090   70.3170  225.9680 C   0  0  0  0  0  0  0  0  0  0  0  0
  139.9390   71.0080  224.8380 N   0  0  0  0  0  0  0  0  0  0  0  0
  139.2780   73.1420  223.4610 H   0  0  0  0  0  0  0  0  0  0  0  0
  139.4432   72.9608  220.5401 H   0  0  0  0  0  0  0  0  0  0  0  0
  137.7257   73.1534  221.0638 H   0  0  0  0  0  0  0  0  0  0  0  0
  139.3087   75.0136  218.7852 H   0  0  0  0  0  0  0  0  0  0  0  0
  139.1156   76.6997  219.1335 H   0  0  0  0  0  0  0  0  0  0  0  0
  141.7281   75.0881  218.6927 H   0  0  0  0  0  0  0  0  0  0  0  0
  141.3530   76.6497  218.0003 H   0  0  0  0  0  0  0  0  0  0  0  0
  141.7199   77.7945  220.2680 H   0  0  0  0  0  0  0  0  0  0  0  0
  143.7600   77.2850  220.3380 H   0  0  0  0  0  0  0  0  0  0  0  0
  141.8010   75.1507  221.6348 H   0  0  0  0  0  0  0  0  0  0  0  0
  140.1219   76.5561  223.0190 H   0  0  0  0  0  0  0  0  0  0  0  0
  141.9526   76.5863  223.1443 H   0  0  0  0  0  0  0  0  0  0  0  0
  143.0370   78.6464  223.0877 H   0  0  0  0  0  0  0  0  0  0  0  0
  143.0179   81.0653  222.6971 H   0  0  0  0  0  0  0  0  0  0  0  0
  139.0824   80.7485  221.0617 H   0  0  0  0  0  0  0  0  0  0  0  0
  139.1034   78.3257  221.4498 H   0  0  0  0  0  0  0  0  0  0  0  0
  138.5305   68.6409  222.9316 H   0  0  0  0  0  0  0  0  0  0  0  0
  139.0040   67.3204  224.9774 H   0  0  0  0  0  0  0  0  0  0  0  0
  139.8344   67.1275  227.1669 H   0  0  0  0  0  0  0  0  0  0  0  0
  141.5281   70.6096  229.0430 H   0  0  0  0  0  0  0  0  0  0  0  0
  141.0846   71.9781  227.0244 H   0  0  0  0  0  0  0  0  0  0  0  0
  1  2  2  0
  2  3  1  0
  3  4  1  0
  4  5  1  0
  5  6  2  0
  5  7  1  0
  7  8  1  0
  8  9  1  0
  9 10  1  0
 10 11  1  0
 10 12  1  0
 12 13  1  0
 13 14  1  0
 14 15  2  0
 15 16  1  0
 16 17  2  0
 17 18  1  0
 17 19  1  0
 19 20  2  0
  2 21  1  0
 21 22  2  0
 22 23  1  0
 23 24  2  0
 24 25  1  0
 25 26  2  0
 26 27  1  0
 26 28  1  0
 28 29  2  0
 29 30  1  0
 30 31  2  0
 12  7  1  0
 20 14  1  0
 31 21  1  0
 30 24  1  0
  3 32  1  0
  4 33  1  0
  4 34  1  0
  8 35  1  0
  8 36  1  0
  9 37  1  0
  9 38  1  0
 10 39  1  1
 11 40  1  0
 12 41  1  1
 13 42  1  0
 13 43  1  0
 15 44  1  0
 16 45  1  0
 19 46  1  0
 20 47  1  0
 22 48  1  0
 23 49  1  0
 25 50  1  0
 28 51  1  0
 29 52  1  0
M  END
>  <smiles>  (24) 
O=C(NCC(=O)N1CC[C@H](O)[C@H]1Cc1ccc(Cl)cc1)c1ccc2cc(F)ccc2n1

>  <score_type>  (24) 
oracle

>  <origin>  (24) 
autodockgpu

>  <m_score__min__energy>  (24) 
-9.1999999999999993

>  <m_primary>  (24) 
energy

>  <rmsd>  (24) 
2.1060837312652607

>  <m_score__min__rmsd>  (24) 
2.1060837312652607

>  <meeko>  (24) 
{"free_energy": -8.27, "intermolecular_energy": -10.35, "internal_energy": -1.67, "cluster_size": 19, "cluster_id": 1, "rank_in_cluster": 13}

>  <energy>  (24) 
-8.54

>  <cluster_rmsd>  (24) 
0.48

>  <cluster>  (24) 
2

$$$$

     RDKit          3D

 52 55  0  0  0  0  0  0  0  0999 V2000
  139.2190   70.6960  221.5660 O   0  0  0  0  0  0  0  0  0  0  0  0
  139.4750   71.2160  222.6790 C   0  0  0  0  0  0  0  0  0  0  0  0
  139.5910   72.6310  222.7460 N   0  0  0  0  0  0  0  0  0  0  0  0
  139.4040   73.3790  221.5180 C   0  0  0  0  0  0  0  0  0  0  0  0
  140.2390   74.6250  221.5230 C   0  0  0  0  0  0  0  0  0  0  0  0
  139.7600   75.5910  222.1910 O   0  0  0  0  0  0  0  0  0  0  0  0
  141.4770   74.7120  220.8260 N   0  0  0  0  0  0  0  0  0  0  0  0
  142.2440   73.5480  220.4470 C   0  0  0  0  0  0  0  0  0  0  0  0
  143.6370   74.1770  220.2980 C   0  0  0  0  0  0  0  0  0  0  0  0
  143.3220   75.5640  219.7190 C   0  0  2  0  0  0  0  0  0  0  0  0
  144.4160   76.3690  220.0000 O   0  0  0  0  0  0  0  0  0  0  0  0
  142.0870   75.9510  220.4420 C   0  0  1  0  0  0  0  0  0  0  0  0
  141.1950   76.8820  219.6650 C   0  0  0  0  0  0  0  0  0  0  0  0
  141.2330   78.2880  220.1180 C   0  0  0  0  0  0  0  0  0  0  0  0
  141.1550   79.3750  219.2760 C   0  0  0  0  0  0  0  0  0  0  0  0
  141.1890   80.6830  219.7220 C   0  0  0  0  0  0  0  0  0  0  0  0
  141.3060   80.9600  221.0630 C   0  0  0  0  0  0  0  0  0  0  0  0
  141.3460   82.6270  221.5900 Cl  0  0  0  0  0  0  0  0  0  0  0  0
  141.3860   79.8950  221.9320 C   0  0  0  0  0  0  0  0  0  0  0  0
  141.3510   78.5910  221.4800 C   0  0  0  0  0  0  0  0  0  0  0  0
  139.6520   70.4070  223.8800 C   0  0  0  0  0  0  0  0  0  0  0  0
  139.1980   69.0950  223.8710 C   0  0  0  0  0  0  0  0  0  0  0  0
  139.3570   68.3150  224.9980 C   0  0  0  0  0  0  0  0  0  0  0  0
  139.9520   68.8230  226.1070 C   0  0  0  0  0  0  0  0  0  0  0  0
  140.0890   67.9970  227.2200 C   0  0  0  0  0  0  0  0  0  0  0  0
  140.6980   68.5320  228.3410 C   0  0  0  0  0  0  0  0  0  0  0  0
  140.8600   67.7690  229.4620 F   0  0  0  0  0  0  0  0  0  0  0  0
  141.1450   69.8370  228.3390 C   0  0  0  0  0  0  0  0  0  0  0  0
  141.0090   70.6530  227.2350 C   0  0  0  0  0  0  0  0  0  0  0  0
  140.4060   70.1350  226.1160 C   0  0  0  0  0  0  0  0  0  0  0  0
  140.2370   70.8750  224.9970 N   0  0  0  0  0  0  0  0  0  0  0  0
  139.8040   73.0910  223.6590 H   0  0  0  0  0  0  0  0  0  0  0  0
  139.6982   72.7508  220.6643 H   0  0  0  0  0  0  0  0  0  0  0  0
  138.3447   73.6638  221.4356 H   0  0  0  0  0  0  0  0  0  0  0  0
  142.2272   72.7762  221.2306 H   0  0  0  0  0  0  0  0  0  0  0  0
  141.8761   73.0243  219.5523 H   0  0  0  0  0  0  0  0  0  0  0  0
  144.1412   74.2592  221.2722 H   0  0  0  0  0  0  0  0  0  0  0  0
  144.3174   73.5856  219.6678 H   0  0  0  0  0  0  0  0  0  0  0  0
  143.1584   75.6268  218.6330 H   0  0  0  0  0  0  0  0  0  0  0  0
  144.1940   77.1340  220.5870 H   0  0  0  0  0  0  0  0  0  0  0  0
  142.3100   76.5620  221.3291 H   0  0  0  0  0  0  0  0  0  0  0  0
  141.5040   76.8527  218.6097 H   0  0  0  0  0  0  0  0  0  0  0  0
  140.1644   76.5308  219.8216 H   0  0  0  0  0  0  0  0  0  0  0  0
  141.0610   79.1934  218.1952 H   0  0  0  0  0  0  0  0  0  0  0  0
  141.1219   81.5084  218.9980 H   0  0  0  0  0  0  0  0  0  0  0  0
  141.4799   80.0875  223.0109 H   0  0  0  0  0  0  0  0  0  0  0  0
  141.4175   77.7692  222.2082 H   0  0  0  0  0  0  0  0  0  0  0  0
  138.7157   68.6809  222.9732 H   0  0  0  0  0  0  0  0  0  0  0  0
  138.9992   67.2748  224.9976 H   0  0  0  0  0  0  0  0  0  0  0  0
  139.7267   66.9585  227.2081 H   0  0  0  0  0  0  0  0  0  0  0  0
  141.6239   70.2387  229.2441 H   0  0  0  0  0  0  0  0  0  0  0  0
  141.3739   71.6906  227.2510 H   0  0  0  0  0  0  0  0  0  0  0  0
  1  2  2  0
  2  3  1  0
  3  4  1  0
  4  5  1  0
  5  6  2  0
  5  7  1  0
  7  8  1  0
  8  9  1  0
  9 10  1  0
 10 11  1  0
 10 12  1  0
 12 13  1  0
 13 14  1  0
 14 15  2  0
 15 16  1  0
 16 17  2  0
 17 18  1  0
 17 19  1  0
 19 20  2  0
  2 21  1  0
 21 22  2  0
 22 23  1  0
 23 24  2  0
 24 25  1  0
 25 26  2  0
 26 27  1  0
 26 28  1  0
 28 29  2  0
 29 30  1  0
 30 31  2  0
 12  7  1  0
 20 14  1  0
 31 21  1  0
 30 24  1  0
  3 32  1  0
  4 33  1  0
  4 34  1  0
  8 35  1  0
  8 36  1  0
  9 37  1  0
  9 38  1  0
 10 39  1  6
 11 40  1  0
 12 41  1  1
 13 42  1  0
 13 43  1  0
 15 44  1  0
 16 45  1  0
 19 46  1  0
 20 47  1  0
 22 48  1  0
 23 49  1  0
 25 50  1  0
 28 51  1  0
 29 52  1  0
M  END
>  <smiles>  (25) 
O=C(NCC(=O)N1CC[C@H](O)[C@H]1Cc1ccc(Cl)cc1)c1ccc2cc(F)ccc2n1

>  <score_type>  (25) 
oracle

>  <origin>  (25) 
autodockgpu

>  <m_score__min__energy>  (25) 
-9.1999999999999993

>  <m_primary>  (25) 
energy

>  <rmsd>  (25) 
2.409360210129701

>  <m_score__min__rmsd>  (25) 
2.409360210129701

>  <meeko>  (25) 
{"free_energy": -8.38, "intermolecular_energy": -10.47, "internal_energy": -1.54, "cluster_size": 19, "cluster_id": 1, "rank_in_cluster": 10}

>  <energy>  (25) 
-8.52

>  <cluster_rmsd>  (25) 
0.43

>  <cluster>  (25) 
2

$$$$

     RDKit          3D

 52 55  0  0  0  0  0  0  0  0999 V2000
  140.5190   72.2750  221.4790 O   0  0  0  0  0  0  0  0  0  0  0  0
  139.6860   72.3210  222.4160 C   0  0  0  0  0  0  0  0  0  0  0  0
  138.6020   73.2360  222.3040 N   0  0  0  0  0  0  0  0  0  0  0  0
  138.5350   74.0540  221.1100 C   0  0  0  0  0  0  0  0  0  0  0  0
  139.4140   75.2620  221.2440 C   0  0  0  0  0  0  0  0  0  0  0  0
  139.0380   76.1060  222.1120 O   0  0  0  0  0  0  0  0  0  0  0  0
  140.5810   75.4430  220.4510 N   0  0  0  0  0  0  0  0  0  0  0  0
  141.0190   74.4750  219.4710 C   0  0  0  0  0  0  0  0  0  0  0  0
  142.5070   74.8420  219.3720 C   0  0  0  0  0  0  0  0  0  0  0  0
  142.4890   76.3700  219.5260 C   0  0  2  0  0  0  0  0  0  0  0  0
  143.7610   76.7420  219.9350 O   0  0  0  0  0  0  0  0  0  0  0  0
  141.4390   76.5870  220.5500 C   0  0  1  0  0  0  0  0  0  0  0  0
  140.7400   77.9150  220.4290 C   0  0  0  0  0  0  0  0  0  0  0  0
  141.1710   78.9260  221.4160 C   0  0  0  0  0  0  0  0  0  0  0  0
  140.6350   80.1920  221.5130 C   0  0  0  0  0  0  0  0  0  0  0  0
  141.0510   81.1220  222.4470 C   0  0  0  0  0  0  0  0  0  0  0  0
  142.0470   80.8130  223.3430 C   0  0  0  0  0  0  0  0  0  0  0  0
  142.5480   82.0160  224.5100 Cl  0  0  0  0  0  0  0  0  0  0  0  0
  142.6050   79.5560  223.2730 C   0  0  0  0  0  0  0  0  0  0  0  0
  142.1840   78.6310  222.3380 C   0  0  0  0  0  0  0  0  0  0  0  0
  139.8080   71.4700  223.5940 C   0  0  0  0  0  0  0  0  0  0  0  0
  139.3560   70.1590  223.5170 C   0  0  0  0  0  0  0  0  0  0  0  0
  139.4640   69.3390  224.6200 C   0  0  0  0  0  0  0  0  0  0  0  0
  140.0070   69.8060  225.7740 C   0  0  0  0  0  0  0  0  0  0  0  0
  140.0940   68.9400  226.8610 C   0  0  0  0  0  0  0  0  0  0  0  0
  140.6500   69.4340  228.0280 C   0  0  0  0  0  0  0  0  0  0  0  0
  140.7610   68.6300  229.1270 F   0  0  0  0  0  0  0  0  0  0  0  0
  141.0950   70.7380  228.0930 C   0  0  0  0  0  0  0  0  0  0  0  0
  141.0090   71.5930  227.0140 C   0  0  0  0  0  0  0  0  0  0  0  0
  140.4590   71.1170  225.8510 C   0  0  0  0  0  0  0  0  0  0  0  0
  140.3400   71.8970  224.7530 N   0  0  0  0  0  0  0  0  0  0  0  0
  137.8940   73.2950  223.0690 H   0  0  0  0  0  0  0  0  0  0  0  0
  138.8675   73.4597  220.2462 H   0  0  0  0  0  0  0  0  0  0  0  0
  137.4963   74.3869  220.9676 H   0  0  0  0  0  0  0  0  0  0  0  0
  140.8766   73.4435  219.8255 H   0  0  0  0  0  0  0  0  0  0  0  0
  140.4722   74.5047  218.5170 H   0  0  0  0  0  0  0  0  0  0  0  0
  143.0867   74.3689  220.1783 H   0  0  0  0  0  0  0  0  0  0  0  0
  142.9789   74.5030  218.4380 H   0  0  0  0  0  0  0  0  0  0  0  0
  142.2645   76.9604  218.6254 H   0  0  0  0  0  0  0  0  0  0  0  0
  143.7570   77.3170  220.7400 H   0  0  0  0  0  0  0  0  0  0  0  0
  141.8658   76.6621  221.5610 H   0  0  0  0  0  0  0  0  0  0  0  0
  140.9322   78.3140  219.4221 H   0  0  0  0  0  0  0  0  0  0  0  0
  139.6734   77.7258  220.6202 H   0  0  0  0  0  0  0  0  0  0  0  0
  139.8363   80.4765  220.8122 H   0  0  0  0  0  0  0  0  0  0  0  0
  140.5818   82.1166  222.4737 H   0  0  0  0  0  0  0  0  0  0  0  0
  143.4041   79.2825  223.9777 H   0  0  0  0  0  0  0  0  0  0  0  0
  142.6558   77.6376  222.3165 H   0  0  0  0  0  0  0  0  0  0  0  0
  138.9155   69.7781  222.5838 H   0  0  0  0  0  0  0  0  0  0  0  0
  139.1080   68.2996  224.5651 H   0  0  0  0  0  0  0  0  0  0  0  0
  139.7344   67.9026  226.7945 H   0  0  0  0  0  0  0  0  0  0  0  0
  141.5313   71.1069  229.0330 H   0  0  0  0  0  0  0  0  0  0  0  0
  141.3718   72.6291  227.0843 H   0  0  0  0  0  0  0  0  0  0  0  0
  1  2  2  0
  2  3  1  0
  3  4  1  0
  4  5  1  0
  5  6  2  0
  5  7  1  0
  7  8  1  0
  8  9  1  0
  9 10  1  0
 10 11  1  0
 10 12  1  0
 12 13  1  0
 13 14  1  0
 14 15  2  0
 15 16  1  0
 16 17  2  0
 17 18  1  0
 17 19  1  0
 19 20  2  0
  2 21  1  0
 21 22  2  0
 22 23  1  0
 23 24  2  0
 24 25  1  0
 25 26  2  0
 26 27  1  0
 26 28  1  0
 28 29  2  0
 29 30  1  0
 30 31  2  0
 12  7  1  0
 20 14  1  0
 31 21  1  0
 30 24  1  0
  3 32  1  0
  4 33  1  0
  4 34  1  0
  8 35  1  0
  8 36  1  0
  9 37  1  0
  9 38  1  0
 10 39  1  6
 11 40  1  0
 12 41  1  1
 13 42  1  0
 13 43  1  0
 15 44  1  0
 16 45  1  0
 19 46  1  0
 20 47  1  0
 22 48  1  0
 23 49  1  0
 25 50  1  0
 28 51  1  0
 29 52  1  0
M  END
>  <smiles>  (26) 
O=C(NCC(=O)N1CC[C@H](O)[C@H]1Cc1ccc(Cl)cc1)c1ccc2cc(F)ccc2n1

>  <score_type>  (26) 
oracle

>  <origin>  (26) 
autodockgpu

>  <m_score__min__energy>  (26) 
-9.1999999999999993

>  <m_primary>  (26) 
energy

>  <rmsd>  (26) 
2.014660062603189

>  <m_score__min__rmsd>  (26) 
2.014660062603189

>  <meeko>  (26) 
{"free_energy": -8.35, "intermolecular_energy": -10.44, "internal_energy": -1.43, "cluster_size": 19, "cluster_id": 1, "rank_in_cluster": 11}

>  <energy>  (26) 
-8.44

>  <cluster_rmsd>  (26) 
0.62

>  <cluster>  (26) 
2

$$$$

     RDKit          3D

 52 55  0  0  0  0  0  0  0  0999 V2000
  140.8780   71.5160  221.2580 O   0  0  0  0  0  0  0  0  0  0  0  0
  140.3830   72.0250  222.2920 C   0  0  0  0  0  0  0  0  0  0  0  0
  139.9800   73.3880  222.2410 N   0  0  0  0  0  0  0  0  0  0  0  0
  140.1690   74.0980  220.9920 C   0  0  0  0  0  0  0  0  0  0  0  0
  140.8890   75.3940  221.2210 C   0  0  0  0  0  0  0  0  0  0  0  0
  140.6730   75.9370  222.3470 O   0  0  0  0  0  0  0  0  0  0  0  0
  141.7490   75.9670  220.2440 N   0  0  0  0  0  0  0  0  0  0  0  0
  141.6070   77.3270  219.7770 C   0  0  0  0  0  0  0  0  0  0  0  0
  142.3220   77.2260  218.4210 C   0  0  0  0  0  0  0  0  0  0  0  0
  143.4640   76.2410  218.7130 C   0  0  2  0  0  0  0  0  0  0  0  0
  143.8540   75.7130  217.4910 O   0  0  0  0  0  0  0  0  0  0  0  0
  142.8270   75.2560  219.6210 C   0  0  1  0  0  0  0  0  0  0  0  0
  143.7890   74.6000  220.5750 C   0  0  0  0  0  0  0  0  0  0  0  0
  144.2470   73.2590  220.1590 C   0  0  0  0  0  0  0  0  0  0  0  0
  145.5700   72.8800  220.0860 C   0  0  0  0  0  0  0  0  0  0  0  0
  145.9770   71.6180  219.6970 C   0  0  0  0  0  0  0  0  0  0  0  0
  145.0500   70.6600  219.3560 C   0  0  0  0  0  0  0  0  0  0  0  0
  145.6010   69.0740  218.8680 Cl  0  0  0  0  0  0  0  0  0  0  0  0
  143.7190   71.0070  219.4180 C   0  0  0  0  0  0  0  0  0  0  0  0
  143.3190   72.2700  219.8080 C   0  0  0  0  0  0  0  0  0  0  0  0
  140.2180   71.2570  223.5210 C   0  0  0  0  0  0  0  0  0  0  0  0
  139.5720   70.0290  223.4560 C   0  0  0  0  0  0  0  0  0  0  0  0
  139.4070   69.2880  224.6080 C   0  0  0  0  0  0  0  0  0  0  0  0
  139.8710   69.7520  225.7960 C   0  0  0  0  0  0  0  0  0  0  0  0
  139.6800   68.9680  226.9310 C   0  0  0  0  0  0  0  0  0  0  0  0
  140.1600   69.4570  228.1330 C   0  0  0  0  0  0  0  0  0  0  0  0
  140.0010   68.7320  229.2800 F   0  0  0  0  0  0  0  0  0  0  0  0
  140.8000   70.6780  228.1860 C   0  0  0  0  0  0  0  0  0  0  0  0
  140.9880   71.4530  227.0600 C   0  0  0  0  0  0  0  0  0  0  0  0
  140.5170   70.9790  225.8610 C   0  0  0  0  0  0  0  0  0  0  0  0
  140.6640   71.6830  224.7160 N   0  0  0  0  0  0  0  0  0  0  0  0
  139.5640   73.8370  223.0880 H   0  0  0  0  0  0  0  0  0  0  0  0
  140.7607   73.4726  220.3074 H   0  0  0  0  0  0  0  0  0  0  0  0
  139.1825   74.3144  220.5561 H   0  0  0  0  0  0  0  0  0  0  0  0
  140.5503   77.6092  219.6601 H   0  0  0  0  0  0  0  0  0  0  0  0
  142.0118   78.0921  220.4557 H   0  0  0  0  0  0  0  0  0  0  0  0
  141.6480   76.8330  217.6456 H   0  0  0  0  0  0  0  0  0  0  0  0
  142.6704   78.1966  218.0382 H   0  0  0  0  0  0  0  0  0  0  0  0
  144.3714   76.6515  219.1800 H   0  0  0  0  0  0  0  0  0  0  0  0
  144.8360   75.6340  217.4000 H   0  0  0  0  0  0  0  0  0  0  0  0
  142.4453   74.3831  219.0711 H   0  0  0  0  0  0  0  0  0  0  0  0
  144.6716   75.2491  220.6731 H   0  0  0  0  0  0  0  0  0  0  0  0
  143.2463   74.4648  221.5222 H   0  0  0  0  0  0  0  0  0  0  0  0
  146.3406   73.6190  220.3506 H   0  0  0  0  0  0  0  0  0  0  0  0
  147.0498   71.3775  219.6597 H   0  0  0  0  0  0  0  0  0  0  0  0
  142.9564   70.2607  219.1506 H   0  0  0  0  0  0  0  0  0  0  0  0
  142.2451   72.5052  219.8439 H   0  0  0  0  0  0  0  0  0  0  0  0
  139.1952   69.6506  222.4943 H   0  0  0  0  0  0  0  0  0  0  0  0
  138.8961   68.3149  224.5633 H   0  0  0  0  0  0  0  0  0  0  0  0
  139.1669   67.9967  226.8740 H   0  0  0  0  0  0  0  0  0  0  0  0
  141.1713   71.0445  229.1544 H   0  0  0  0  0  0  0  0  0  0  0  0
  141.5012   72.4240  227.1215 H   0  0  0  0  0  0  0  0  0  0  0  0
  1  2  2  0
  2  3  1  0
  3  4  1  0
  4  5  1  0
  5  6  2  0
  5  7  1  0
  7  8  1  0
  8  9  1  0
  9 10  1  0
 10 11  1  0
 10 12  1  0
 12 13  1  0
 13 14  1  0
 14 15  2  0
 15 16  1  0
 16 17  2  0
 17 18  1  0
 17 19  1  0
 19 20  2  0
  2 21  1  0
 21 22  2  0
 22 23  1  0
 23 24  2  0
 24 25  1  0
 25 26  2  0
 26 27  1  0
 26 28  1  0
 28 29  2  0
 29 30  1  0
 30 31  2  0
 12  7  1  0
 20 14  1  0
 31 21  1  0
 30 24  1  0
  3 32  1  0
  4 33  1  0
  4 34  1  0
  8 35  1  0
  8 36  1  0
  9 37  1  0
  9 38  1  0
 10 39  1  1
 11 40  1  0
 12 41  1  6
 13 42  1  0
 13 43  1  0
 15 44  1  0
 16 45  1  0
 19 46  1  0
 20 47  1  0
 22 48  1  0
 23 49  1  0
 25 50  1  0
 28 51  1  0
 29 52  1  0
M  END
>  <smiles>  (27) 
O=C(NCC(=O)N1CC[C@H](O)[C@H]1Cc1ccc(Cl)cc1)c1ccc2cc(F)ccc2n1

>  <score_type>  (27) 
oracle

>  <origin>  (27) 
autodockgpu

>  <m_score__min__energy>  (27) 
-9.1999999999999993

>  <m_primary>  (27) 
energy

>  <rmsd>  (27) 
2.401393862816092

>  <m_score__min__rmsd>  (27) 
2.401393862816092

>  <meeko>  (27) 
{"free_energy": -8.68, "intermolecular_energy": -10.77, "internal_energy": -1.94, "cluster_size": 23, "cluster_id": 2, "rank_in_cluster": 3}

>  <energy>  (27) 
-8.37

>  <cluster_rmsd>  (27) 
0.53

>  <cluster>  (27) 
2

$$$$

     RDKit          3D

 52 55  0  0  0  0  0  0  0  0999 V2000
  141.3310   72.4580  221.1600 O   0  0  0  0  0  0  0  0  0  0  0  0
  140.5230   72.7550  222.0730 C   0  0  0  0  0  0  0  0  0  0  0  0
  139.8320   73.9940  221.9790 N   0  0  0  0  0  0  0  0  0  0  0  0
  140.1090   74.8330  220.8290 C   0  0  0  0  0  0  0  0  0  0  0  0
  140.9950   75.9820  221.2120 C   0  0  0  0  0  0  0  0  0  0  0  0
  141.3280   76.0200  222.4350 O   0  0  0  0  0  0  0  0  0  0  0  0
  141.4250   76.9540  220.2670 N   0  0  0  0  0  0  0  0  0  0  0  0
  140.8940   78.2970  220.2300 C   0  0  0  0  0  0  0  0  0  0  0  0
  141.2190   78.6790  218.7770 C   0  0  0  0  0  0  0  0  0  0  0  0
  142.5690   77.9860  218.5390 C   0  0  2  0  0  0  0  0  0  0  0  0
  142.7090   77.8530  217.1660 O   0  0  0  0  0  0  0  0  0  0  0  0
  142.4120   76.6990  219.2590 C   0  0  1  0  0  0  0  0  0  0  0  0
  143.7080   76.1290  219.7700 C   0  0  0  0  0  0  0  0  0  0  0  0
  143.7910   74.6540  219.7200 C   0  0  0  0  0  0  0  0  0  0  0  0
  144.5840   73.8950  220.5510 C   0  0  0  0  0  0  0  0  0  0  0  0
  144.6450   72.5150  220.4890 C   0  0  0  0  0  0  0  0  0  0  0  0
  143.8940   71.8250  219.5670 C   0  0  0  0  0  0  0  0  0  0  0  0
  143.9960   70.0800  219.5180 Cl  0  0  0  0  0  0  0  0  0  0  0  0
  143.0900   72.5550  218.7210 C   0  0  0  0  0  0  0  0  0  0  0  0
  143.0330   73.9330  218.7890 C   0  0  0  0  0  0  0  0  0  0  0  0
  140.2870   71.8670  223.2060 C   0  0  0  0  0  0  0  0  0  0  0  0
  139.5730   70.6940  222.9940 C   0  0  0  0  0  0  0  0  0  0  0  0
  139.3400   69.8420  224.0530 C   0  0  0  0  0  0  0  0  0  0  0  0
  139.8020   70.1440  225.2930 C   0  0  0  0  0  0  0  0  0  0  0  0
  139.5410   69.2520  226.3300 C   0  0  0  0  0  0  0  0  0  0  0  0
  140.0200   69.5780  227.5880 C   0  0  0  0  0  0  0  0  0  0  0  0
  139.7940   68.7410  228.6430 F   0  0  0  0  0  0  0  0  0  0  0  0
  140.7260   70.7460  227.7870 C   0  0  0  0  0  0  0  0  0  0  0  0
  140.9840   71.6270  226.7570 C   0  0  0  0  0  0  0  0  0  0  0  0
  140.5150   71.3170  225.5050 C   0  0  0  0  0  0  0  0  0  0  0  0
  140.7280   72.1320  224.4480 N   0  0  0  0  0  0  0  0  0  0  0  0
  139.1540   74.2660  222.7250 H   0  0  0  0  0  0  0  0  0  0  0  0
  140.6106   74.2322  220.0561 H   0  0  0  0  0  0  0  0  0  0  0  0
  139.1585   75.2319  220.4450 H   0  0  0  0  0  0  0  0  0  0  0  0
  139.8111   78.3122  220.4226 H   0  0  0  0  0  0  0  0  0  0  0  0
  141.3074   78.9773  220.9891 H   0  0  0  0  0  0  0  0  0  0  0  0
  140.4515   78.3000  218.0862 H   0  0  0  0  0  0  0  0  0  0  0  0
  141.2505   79.7655  218.6081 H   0  0  0  0  0  0  0  0  0  0  0  0
  143.4692   78.5081  218.8953 H   0  0  0  0  0  0  0  0  0  0  0  0
  143.3170   78.5270  216.7710 H   0  0  0  0  0  0  0  0  0  0  0  0
  142.0764   75.8950  218.5875 H   0  0  0  0  0  0  0  0  0  0  0  0
  144.5275   76.5400  219.1621 H   0  0  0  0  0  0  0  0  0  0  0  0
  143.7766   76.4104  220.8312 H   0  0  0  0  0  0  0  0  0  0  0  0
  145.1997   74.4121  221.3016 H   0  0  0  0  0  0  0  0  0  0  0  0
  145.2989   71.9655  221.1821 H   0  0  0  0  0  0  0  0  0  0  0  0
  142.4787   72.0283  217.9734 H   0  0  0  0  0  0  0  0  0  0  0  0
  142.3761   74.4777  218.0949 H   0  0  0  0  0  0  0  0  0  0  0  0
  139.1969   70.4472  221.9902 H   0  0  0  0  0  0  0  0  0  0  0  0
  138.7760   68.9115  223.8917 H   0  0  0  0  0  0  0  0  0  0  0  0
  138.9761   68.3242  226.1567 H   0  0  0  0  0  0  0  0  0  0  0  0
  141.0941   70.9820  228.7963 H   0  0  0  0  0  0  0  0  0  0  0  0
  141.5504   72.5531  226.9345 H   0  0  0  0  0  0  0  0  0  0  0  0
  1  2  2  0
  2  3  1  0
  3  4  1  0
  4  5  1  0
  5  6  2  0
  5  7  1  0
  7  8  1  0
  8  9  1  0
  9 10  1  0
 10 11  1  0
 10 12  1  0
 12 13  1  0
 13 14  1  0
 14 15  2  0
 15 16  1  0
 16 17  2  0
 17 18  1  0
 17 19  1  0
 19 20  2  0
  2 21  1  0
 21 22  2  0
 22 23  1  0
 23 24  2  0
 24 25  1  0
 25 26  2  0
 26 27  1  0
 26 28  1  0
 28 29  2  0
 29 30  1  0
 30 31  2  0
 12  7  1  0
 20 14  1  0
 31 21  1  0
 30 24  1  0
  3 32  1  0
  4 33  1  0
  4 34  1  0
  8 35  1  0
  8 36  1  0
  9 37  1  0
  9 38  1  0
 10 39  1  1
 11 40  1  0
 12 41  1  6
 13 42  1  0
 13 43  1  0
 15 44  1  0
 16 45  1  0
 19 46  1  0
 20 47  1  0
 22 48  1  0
 23 49  1  0
 25 50  1  0
 28 51  1  0
 29 52  1  0
M  END
>  <smiles>  (28) 
O=C(NCC(=O)N1CC[C@H](O)[C@H]1Cc1ccc(Cl)cc1)c1ccc2cc(F)ccc2n1

>  <score_type>  (28) 
oracle

>  <origin>  (28) 
autodockgpu

>  <m_score__min__energy>  (28) 
-9.1999999999999993

>  <m_primary>  (28) 
energy

>  <rmsd>  (28) 
2.465829514201588

>  <m_score__min__rmsd>  (28) 
2.465829514201588

>  <meeko>  (28) 
{"free_energy": -7.99, "intermolecular_energy": -10.08, "internal_energy": -2.06, "cluster_size": 23, "cluster_id": 2, "rank_in_cluster": 17}

>  <energy>  (28) 
-8.12

>  <cluster_rmsd>  (28) 
1.85

>  <cluster>  (28) 
2

$$$$

     RDKit          3D

 52 55  0  0  0  0  0  0  0  0999 V2000
  140.7860   71.7270  221.1950 O   0  0  0  0  0  0  0  0  0  0  0  0
  140.3260   72.2240  222.2510 C   0  0  0  0  0  0  0  0  0  0  0  0
  139.9680   73.6010  222.2420 N   0  0  0  0  0  0  0  0  0  0  0  0
  140.1610   74.3370  221.0080 C   0  0  0  0  0  0  0  0  0  0  0  0
  140.9570   75.5850  221.2530 C   0  0  0  0  0  0  0  0  0  0  0  0
  140.8610   76.0620  222.4240 O   0  0  0  0  0  0  0  0  0  0  0  0
  141.7570   76.1840  220.2410 N   0  0  0  0  0  0  0  0  0  0  0  0
  141.5590   77.5420  219.7880 C   0  0  0  0  0  0  0  0  0  0  0  0
  142.2150   77.4650  218.4010 C   0  0  0  0  0  0  0  0  0  0  0  0
  143.3940   76.5090  218.6370 C   0  0  2  0  0  0  0  0  0  0  0  0
  143.7430   75.9970  217.3960 O   0  0  0  0  0  0  0  0  0  0  0  0
  142.8250   75.5040  219.5670 C   0  0  1  0  0  0  0  0  0  0  0  0
  143.8450   74.8700  220.4740 C   0  0  0  0  0  0  0  0  0  0  0  0
  144.1730   73.4680  220.1420 C   0  0  0  0  0  0  0  0  0  0  0  0
  143.5210   72.3750  220.6670 C   0  0  0  0  0  0  0  0  0  0  0  0
  143.8430   71.0710  220.3410 C   0  0  0  0  0  0  0  0  0  0  0  0
  144.8590   70.8040  219.4530 C   0  0  0  0  0  0  0  0  0  0  0  0
  145.2380   69.1420  219.0640 Cl  0  0  0  0  0  0  0  0  0  0  0  0
  145.5320   71.8760  218.9100 C   0  0  0  0  0  0  0  0  0  0  0  0
  145.2040   73.1760  219.2400 C   0  0  0  0  0  0  0  0  0  0  0  0
  140.1560   71.4300  223.4620 C   0  0  0  0  0  0  0  0  0  0  0  0
  139.4840   70.2170  223.3730 C   0  0  0  0  0  0  0  0  0  0  0  0
  139.3140   69.4510  224.5070 C   0  0  0  0  0  0  0  0  0  0  0  0
  139.7970   69.8770  225.7030 C   0  0  0  0  0  0  0  0  0  0  0  0
  139.5990   69.0690  226.8200 C   0  0  0  0  0  0  0  0  0  0  0  0
  140.0980   69.5200  228.0290 C   0  0  0  0  0  0  0  0  0  0  0  0
  139.9340   68.7700  229.1590 F   0  0  0  0  0  0  0  0  0  0  0  0
  140.7620   70.7260  228.1070 C   0  0  0  0  0  0  0  0  0  0  0  0
  140.9570   71.5240  226.9980 C   0  0  0  0  0  0  0  0  0  0  0  0
  140.4670   71.0900  225.7920 C   0  0  0  0  0  0  0  0  0  0  0  0
  140.6190   71.8180  224.6630 N   0  0  0  0  0  0  0  0  0  0  0  0
  139.5830   74.0410  223.1070 H   0  0  0  0  0  0  0  0  0  0  0  0
  140.6985   73.7014  220.2889 H   0  0  0  0  0  0  0  0  0  0  0  0
  139.1763   74.6190  220.6070 H   0  0  0  0  0  0  0  0  0  0  0  0
  140.4911   77.7970  219.7199 H   0  0  0  0  0  0  0  0  0  0  0  0
  141.9737   78.3147  220.4520 H   0  0  0  0  0  0  0  0  0  0  0  0
  141.5174   77.0576  217.6545 H   0  0  0  0  0  0  0  0  0  0  0  0
  142.5206   78.4458  218.0079 H   0  0  0  0  0  0  0  0  0  0  0  0
  144.3101   76.9413  219.0658 H   0  0  0  0  0  0  0  0  0  0  0  0
  144.7140   75.8290  217.3060 H   0  0  0  0  0  0  0  0  0  0  0  0
  142.4430   74.6232  219.0301 H   0  0  0  0  0  0  0  0  0  0  0  0
  144.7704   75.4620  220.4172 H   0  0  0  0  0  0  0  0  0  0  0  0
  143.4032   74.8578  221.4813 H   0  0  0  0  0  0  0  0  0  0  0  0
  142.7029   72.5481  221.3817 H   0  0  0  0  0  0  0  0  0  0  0  0
  143.2826   70.2405  220.7951 H   0  0  0  0  0  0  0  0  0  0  0  0
  146.3494   71.6923  218.1972 H   0  0  0  0  0  0  0  0  0  0  0  0
  145.7667   74.0033  218.7829 H   0  0  0  0  0  0  0  0  0  0  0  0
  139.0908   69.8706  222.4058 H   0  0  0  0  0  0  0  0  0  0  0  0
  138.7841   68.4892  224.4427 H   0  0  0  0  0  0  0  0  0  0  0  0
  139.0665   68.1095  226.7439 H   0  0  0  0  0  0  0  0  0  0  0  0
  141.1473   71.0617  229.0811 H   0  0  0  0  0  0  0  0  0  0  0  0
  141.4910   72.4823  227.0787 H   0  0  0  0  0  0  0  0  0  0  0  0
  1  2  2  0
  2  3  1  0
  3  4  1  0
  4  5  1  0
  5  6  2  0
  5  7  1  0
  7  8  1  0
  8  9  1  0
  9 10  1  0
 10 11  1  0
 10 12  1  0
 12 13  1  0
 13 14  1  0
 14 15  2  0
 15 16  1  0
 16 17  2  0
 17 18  1  0
 17 19  1  0
 19 20  2  0
  2 21  1  0
 21 22  2  0
 22 23  1  0
 23 24  2  0
 24 25  1  0
 25 26  2  0
 26 27  1  0
 26 28  1  0
 28 29  2  0
 29 30  1  0
 30 31  2  0
 12  7  1  0
 20 14  1  0
 31 21  1  0
 30 24  1  0
  3 32  1  0
  4 33  1  0
  4 34  1  0
  8 35  1  0
  8 36  1  0
  9 37  1  0
  9 38  1  0
 10 39  1  1
 11 40  1  0
 12 41  1  6
 13 42  1  0
 13 43  1  0
 15 44  1  0
 16 45  1  0
 19 46  1  0
 20 47  1  0
 22 48  1  0
 23 49  1  0
 25 50  1  0
 28 51  1  0
 29 52  1  0
M  END
>  <smiles>  (29) 
O=C(NCC(=O)N1CC[C@H](O)[C@H]1Cc1ccc(Cl)cc1)c1ccc2cc(F)ccc2n1

>  <score_type>  (29) 
oracle

>  <origin>  (29) 
autodockgpu

>  <m_score__min__energy>  (29) 
-9.1999999999999993

>  <m_primary>  (29) 
energy

>  <rmsd>  (29) 
2.402164591609364

>  <m_score__min__rmsd>  (29) 
2.402164591609364

>  <meeko>  (29) 
{"free_energy": -8.54, "intermolecular_energy": -10.63, "internal_energy": -1.97, "cluster_size": 23, "cluster_id": 2, "rank_in_cluster": 5}

>  <energy>  (29) 
-8.1

>  <cluster_rmsd>  (29) 
1.07

>  <cluster>  (29) 
2

$$$$

     RDKit          3D

 52 55  0  0  0  0  0  0  0  0999 V2000
  141.1960   72.1020  221.0940 O   0  0  0  0  0  0  0  0  0  0  0  0
  140.5210   72.5200  222.0650 C   0  0  0  0  0  0  0  0  0  0  0  0
  140.0250   73.8510  222.0120 N   0  0  0  0  0  0  0  0  0  0  0  0
  140.3340   74.6370  220.8340 C   0  0  0  0  0  0  0  0  0  0  0  0
  140.9330   75.9580  221.2190 C   0  0  0  0  0  0  0  0  0  0  0  0
  140.9560   76.1950  222.4650 O   0  0  0  0  0  0  0  0  0  0  0  0
  141.4340   76.8740  220.2520 N   0  0  0  0  0  0  0  0  0  0  0  0
  140.9280   78.2200  220.1140 C   0  0  0  0  0  0  0  0  0  0  0  0
  141.3440   78.5200  218.6660 C   0  0  0  0  0  0  0  0  0  0  0  0
  142.6950   77.7980  218.5460 C   0  0  2  0  0  0  0  0  0  0  0  0
  142.9140   77.5900  217.1920 O   0  0  0  0  0  0  0  0  0  0  0  0
  142.4750   76.5530  219.3200 C   0  0  1  0  0  0  0  0  0  0  0  0
  143.7280   75.9930  219.9370 C   0  0  0  0  0  0  0  0  0  0  0  0
  143.8280   74.5200  219.8950 C   0  0  0  0  0  0  0  0  0  0  0  0
  144.5110   73.7630  220.8210 C   0  0  0  0  0  0  0  0  0  0  0  0
  144.5890   72.3840  220.7640 C   0  0  0  0  0  0  0  0  0  0  0  0
  143.9700   71.6910  219.7490 C   0  0  0  0  0  0  0  0  0  0  0  0
  144.0900   69.9470  219.7090 Cl  0  0  0  0  0  0  0  0  0  0  0  0
  143.2790   72.4190  218.8060 C   0  0  0  0  0  0  0  0  0  0  0  0
  143.2040   73.7960  218.8700 C   0  0  0  0  0  0  0  0  0  0  0  0
  140.2430   71.6790  223.2240 C   0  0  0  0  0  0  0  0  0  0  0  0
  139.4790   70.5330  223.0460 C   0  0  0  0  0  0  0  0  0  0  0  0
  139.2060   69.7250  224.1300 C   0  0  0  0  0  0  0  0  0  0  0  0
  139.6790   70.0440  225.3620 C   0  0  0  0  0  0  0  0  0  0  0  0
  139.3760   69.1970  226.4250 C   0  0  0  0  0  0  0  0  0  0  0  0
  139.8670   69.5400  227.6730 C   0  0  0  0  0  0  0  0  0  0  0  0
  139.6020   68.7470  228.7530 F   0  0  0  0  0  0  0  0  0  0  0  0
  140.6240   70.6810  227.8390 C   0  0  0  0  0  0  0  0  0  0  0  0
  140.9230   71.5180  226.7830 C   0  0  0  0  0  0  0  0  0  0  0  0
  140.4430   71.1900  225.5400 C   0  0  0  0  0  0  0  0  0  0  0  0
  140.6940   71.9620  224.4590 N   0  0  0  0  0  0  0  0  0  0  0  0
  139.4600   74.2250  222.8070 H   0  0  0  0  0  0  0  0  0  0  0  0
  141.0507   74.0841  220.2090 H   0  0  0  0  0  0  0  0  0  0  0  0
  139.4032   74.8200  220.2771 H   0  0  0  0  0  0  0  0  0  0  0  0
  139.8360   78.2597  220.2407 H   0  0  0  0  0  0  0  0  0  0  0  0
  141.3068   78.9340  220.8601 H   0  0  0  0  0  0  0  0  0  0  0  0
  140.6128   78.1146  217.9512 H   0  0  0  0  0  0  0  0  0  0  0  0
  141.4026   79.5955  218.4426 H   0  0  0  0  0  0  0  0  0  0  0  0
  143.5803   78.3271  218.9285 H   0  0  0  0  0  0  0  0  0  0  0  0
  143.5270   78.2560  216.7920 H   0  0  0  0  0  0  0  0  0  0  0  0
  142.1677   75.7193  218.6715 H   0  0  0  0  0  0  0  0  0  0  0  0
  144.5918   76.4111  219.3994 H   0  0  0  0  0  0  0  0  0  0  0  0
  143.7047   76.2740  221.0002 H   0  0  0  0  0  0  0  0  0  0  0  0
  145.0197   74.2815  221.6470 H   0  0  0  0  0  0  0  0  0  0  0  0
  145.1500   71.8366  221.5357 H   0  0  0  0  0  0  0  0  0  0  0  0
  142.7753   71.8911  217.9829 H   0  0  0  0  0  0  0  0  0  0  0  0
  142.6402   74.3387  218.0969 H   0  0  0  0  0  0  0  0  0  0  0  0
  139.0948   70.2719  222.0489 H   0  0  0  0  0  0  0  0  0  0  0  0
  138.6011   68.8162  223.9955 H   0  0  0  0  0  0  0  0  0  0  0  0
  138.7701   68.2907  226.2787 H   0  0  0  0  0  0  0  0  0  0  0  0
  141.0003   70.9311  228.8419 H   0  0  0  0  0  0  0  0  0  0  0  0
  141.5295   72.4232  226.9337 H   0  0  0  0  0  0  0  0  0  0  0  0
  1  2  2  0
  2  3  1  0
  3  4  1  0
  4  5  1  0
  5  6  2  0
  5  7  1  0
  7  8  1  0
  8  9  1  0
  9 10  1  0
 10 11  1  0
 10 12  1  0
 12 13  1  0
 13 14  1  0
 14 15  2  0
 15 16  1  0
 16 17  2  0
 17 18  1  0
 17 19  1  0
 19 20  2  0
  2 21  1  0
 21 22  2  0
 22 23  1  0
 23 24  2  0
 24 25  1  0
 25 26  2  0
 26 27  1  0
 26 28  1  0
 28 29  2  0
 29 30  1  0
 30 31  2  0
 12  7  1  0
 20 14  1  0
 31 21  1  0
 30 24  1  0
  3 32  1  0
  4 33  1  0
  4 34  1  0
  8 35  1  0
  8 36  1  0
  9 37  1  0
  9 38  1  0
 10 39  1  1
 11 40  1  0
 12 41  1  6
 13 42  1  0
 13 43  1  0
 15 44  1  0
 16 45  1  0
 19 46  1  0
 20 47  1  0
 22 48  1  0
 23 49  1  0
 25 50  1  0
 28 51  1  0
 29 52  1  0
M  END
>  <smiles>  (30) 
O=C(NCC(=O)N1CC[C@H](O)[C@H]1Cc1ccc(Cl)cc1)c1ccc2cc(F)ccc2n1

>  <score_type>  (30) 
oracle

>  <origin>  (30) 
autodockgpu

>  <m_score__min__energy>  (30) 
-9.1999999999999993

>  <m_primary>  (30) 
energy

>  <rmsd>  (30) 
2.4360241941904035

>  <m_score__min__rmsd>  (30) 
2.4360241941904035

>  <meeko>  (30) 
{"free_energy": -7.94, "intermolecular_energy": -10.02, "internal_energy": -2.24, "cluster_size": 23, "cluster_id": 2, "rank_in_cluster": 18}

>  <energy>  (30) 
-8.09

>  <cluster_rmsd>  (30) 
1.07

>  <cluster>  (30) 
2

$$$$

     RDKit          3D

 52 55  0  0  0  0  0  0  0  0999 V2000
  140.9960   71.3040  221.3100 O   0  0  0  0  0  0  0  0  0  0  0  0
  140.5140   71.8780  222.3160 C   0  0  0  0  0  0  0  0  0  0  0  0
  140.2090   73.2630  222.2140 N   0  0  0  0  0  0  0  0  0  0  0  0
  140.4770   73.9190  220.9500 C   0  0  0  0  0  0  0  0  0  0  0  0
  140.8340   75.3600  221.1640 C   0  0  0  0  0  0  0  0  0  0  0  0
  140.3610   75.8790  222.2200 O   0  0  0  0  0  0  0  0  0  0  0  0
  141.6420   76.0860  220.2460 N   0  0  0  0  0  0  0  0  0  0  0  0
  141.3830   77.4630  219.8940 C   0  0  0  0  0  0  0  0  0  0  0  0
  142.1060   77.5390  218.5410 C   0  0  0  0  0  0  0  0  0  0  0  0
  143.3290   76.6360  218.7590 C   0  0  2  0  0  0  0  0  0  0  0  0
  143.7660   76.2490  217.5010 O   0  0  0  0  0  0  0  0  0  0  0  0
  142.7790   75.5270  219.5750 C   0  0  1  0  0  0  0  0  0  0  0  0
  143.7930   74.8790  220.4800 C   0  0  0  0  0  0  0  0  0  0  0  0
  144.1870   73.5130  220.0800 C   0  0  0  0  0  0  0  0  0  0  0  0
  143.3030   72.5410  219.6680 C   0  0  0  0  0  0  0  0  0  0  0  0
  143.6940   71.2680  219.2960 C   0  0  0  0  0  0  0  0  0  0  0  0
  145.0210   70.9100  219.3240 C   0  0  0  0  0  0  0  0  0  0  0  0
  145.4790   69.2910  218.8450 Cl  0  0  0  0  0  0  0  0  0  0  0  0
  145.9320   71.8590  219.7320 C   0  0  0  0  0  0  0  0  0  0  0  0
  145.5340   73.1290  220.1010 C   0  0  0  0  0  0  0  0  0  0  0  0
  140.2670   71.1610  223.5620 C   0  0  0  0  0  0  0  0  0  0  0  0
  139.5800   69.9550  223.5110 C   0  0  0  0  0  0  0  0  0  0  0  0
  139.3370   69.2630  224.6780 C   0  0  0  0  0  0  0  0  0  0  0  0
  139.7640   69.7540  225.8700 C   0  0  0  0  0  0  0  0  0  0  0  0
  139.4940   69.0190  227.0220 C   0  0  0  0  0  0  0  0  0  0  0  0
  139.9370   69.5360  228.2270 C   0  0  0  0  0  0  0  0  0  0  0  0
  139.7020   68.8590  229.3900 F   0  0  0  0  0  0  0  0  0  0  0  0
  140.6180   70.7350  228.2660 C   0  0  0  0  0  0  0  0  0  0  0  0
  140.8840   71.4610  227.1230 C   0  0  0  0  0  0  0  0  0  0  0  0
  140.4500   70.9600  225.9210 C   0  0  0  0  0  0  0  0  0  0  0  0
  140.6740   71.6160  224.7600 N   0  0  0  0  0  0  0  0  0  0  0  0
  139.8070   73.7660  223.0360 H   0  0  0  0  0  0  0  0  0  0  0  0
  141.3143   73.4103  220.4499 H   0  0  0  0  0  0  0  0  0  0  0  0
  139.5718   73.8683  220.3271 H   0  0  0  0  0  0  0  0  0  0  0  0
  140.3059   77.6616  219.7920 H   0  0  0  0  0  0  0  0  0  0  0  0
  141.7186   78.2002  220.6383 H   0  0  0  0  0  0  0  0  0  0  0  0
  141.4699   77.1558  217.7295 H   0  0  0  0  0  0  0  0  0  0  0  0
  142.3690   78.5650  218.2442 H   0  0  0  0  0  0  0  0  0  0  0  0
  144.1965   77.0830  219.2666 H   0  0  0  0  0  0  0  0  0  0  0  0
  144.7250   76.0080  217.4820 H   0  0  0  0  0  0  0  0  0  0  0  0
  142.4761   74.6742  218.9498 H   0  0  0  0  0  0  0  0  0  0  0  0
  144.6956   75.5077  220.4904 H   0  0  0  0  0  0  0  0  0  0  0  0
  143.3186   74.7908  221.4685 H   0  0  0  0  0  0  0  0  0  0  0  0
  142.2320   72.7897  219.6331 H   0  0  0  0  0  0  0  0  0  0  0  0
  142.9378   70.5364  218.9753 H   0  0  0  0  0  0  0  0  0  0  0  0
  147.0005   71.5996  219.7647 H   0  0  0  0  0  0  0  0  0  0  0  0
  146.2941   73.8575  220.4195 H   0  0  0  0  0  0  0  0  0  0  0  0
  139.2326   69.5553  222.5469 H   0  0  0  0  0  0  0  0  0  0  0  0
  138.7938   68.3071  224.6436 H   0  0  0  0  0  0  0  0  0  0  0  0
  138.9496   68.0643  226.9758 H   0  0  0  0  0  0  0  0  0  0  0  0
  140.9590   71.1239  229.2368 H   0  0  0  0  0  0  0  0  0  0  0  0
  141.4290   72.4152  227.1737 H   0  0  0  0  0  0  0  0  0  0  0  0
  1  2  2  0
  2  3  1  0
  3  4  1  0
  4  5  1  0
  5  6  2  0
  5  7  1  0
  7  8  1  0
  8  9  1  0
  9 10  1  0
 10 11  1  0
 10 12  1  0
 12 13  1  0
 13 14  1  0
 14 15  2  0
 15 16  1  0
 16 17  2  0
 17 18  1  0
 17 19  1  0
 19 20  2  0
  2 21  1  0
 21 22  2  0
 22 23  1  0
 23 24  2  0
 24 25  1  0
 25 26  2  0
 26 27  1  0
 26 28  1  0
 28 29  2  0
 29 30  1  0
 30 31  2  0
 12  7  1  0
 20 14  1  0
 31 21  1  0
 30 24  1  0
  3 32  1  0
  4 33  1  0
  4 34  1  0
  8 35  1  0
  8 36  1  0
  9 37  1  0
  9 38  1  0
 10 39  1  1
 11 40  1  0
 12 41  1  6
 13 42  1  0
 13 43  1  0
 15 44  1  0
 16 45  1  0
 19 46  1  0
 20 47  1  0
 22 48  1  0
 23 49  1  0
 25 50  1  0
 28 51  1  0
 29 52  1  0
M  END
>  <smiles>  (31) 
O=C(NCC(=O)N1CC[C@H](O)[C@H]1Cc1ccc(Cl)cc1)c1ccc2cc(F)ccc2n1

>  <score_type>  (31) 
oracle

>  <origin>  (31) 
autodockgpu

>  <m_score__min__energy>  (31) 
-9.1999999999999993

>  <m_primary>  (31) 
energy

>  <rmsd>  (31) 
2.4155392076424307

>  <m_score__min__rmsd>  (31) 
2.4155392076424307

>  <meeko>  (31) 
{"free_energy": -8.52, "intermolecular_energy": -10.6, "internal_energy": -2.09, "cluster_size": 23, "cluster_id": 2, "rank_in_cluster": 6}

>  <energy>  (31) 
-8.08

>  <cluster_rmsd>  (31) 
0.75

>  <cluster>  (31) 
2

$$$$

     RDKit          3D

 52 55  0  0  0  0  0  0  0  0999 V2000
  140.1790   71.5190  221.0970 O   0  0  0  0  0  0  0  0  0  0  0  0
  139.9760   72.0050  222.2350 C   0  0  0  0  0  0  0  0  0  0  0  0
  139.7320   73.4020  222.3330 N   0  0  0  0  0  0  0  0  0  0  0  0
  139.7330   74.1720  221.1050 C   0  0  0  0  0  0  0  0  0  0  0  0
  140.2720   75.5510  221.3430 C   0  0  0  0  0  0  0  0  0  0  0  0
  140.0670   76.0150  222.5050 O   0  0  0  0  0  0  0  0  0  0  0  0
  140.9610   76.2810  220.3340 N   0  0  0  0  0  0  0  0  0  0  0  0
  141.5910   77.5570  220.5840 C   0  0  0  0  0  0  0  0  0  0  0  0
  141.6340   78.1230  219.1560 C   0  0  0  0  0  0  0  0  0  0  0  0
  141.9030   76.8730  218.3050 C   0  0  2  0  0  0  0  0  0  0  0  0
  141.4830   77.1730  217.0180 O   0  0  0  0  0  0  0  0  0  0  0  0
  141.0900   75.8320  218.9790 C   0  0  1  0  0  0  0  0  0  0  0  0
  141.6370   74.4390  218.8210 C   0  0  0  0  0  0  0  0  0  0  0  0
  142.8810   74.1800  219.5740 C   0  0  0  0  0  0  0  0  0  0  0  0
  143.8670   75.1170  219.7880 C   0  0  0  0  0  0  0  0  0  0  0  0
  145.0220   74.8540  220.4990 C   0  0  0  0  0  0  0  0  0  0  0  0
  145.2420   73.6070  221.0370 C   0  0  0  0  0  0  0  0  0  0  0  0
  146.7160   73.3110  221.9300 Cl  0  0  0  0  0  0  0  0  0  0  0  0
  144.2760   72.6460  220.8410 C   0  0  0  0  0  0  0  0  0  0  0  0
  143.1230   72.9170  220.1300 C   0  0  0  0  0  0  0  0  0  0  0  0
  139.9880   71.1760  223.4360 C   0  0  0  0  0  0  0  0  0  0  0  0
  139.4930   69.8810  223.3540 C   0  0  0  0  0  0  0  0  0  0  0  0
  139.4960   69.0820  224.4790 C   0  0  0  0  0  0  0  0  0  0  0  0
  139.9770   69.5550  225.6570 C   0  0  0  0  0  0  0  0  0  0  0  0
  139.9590   68.7110  226.7640 C   0  0  0  0  0  0  0  0  0  0  0  0
  140.4530   69.2110  227.9570 C   0  0  0  0  0  0  0  0  0  0  0  0
  140.4600   68.4290  229.0760 F   0  0  0  0  0  0  0  0  0  0  0  0
  140.9410   70.4990  228.0260 C   0  0  0  0  0  0  0  0  0  0  0  0
  140.9590   71.3330  226.9270 C   0  0  0  0  0  0  0  0  0  0  0  0
  140.4710   70.8500  225.7380 C   0  0  0  0  0  0  0  0  0  0  0  0
  140.4560   71.6090  224.6200 N   0  0  0  0  0  0  0  0  0  0  0  0
  139.5600   73.8330  223.2680 H   0  0  0  0  0  0  0  0  0  0  0  0
  140.3618   73.6624  220.3600 H   0  0  0  0  0  0  0  0  0  0  0  0
  138.6988   74.2553  220.7396 H   0  0  0  0  0  0  0  0  0  0  0  0
  140.9859   78.1860  221.2536 H   0  0  0  0  0  0  0  0  0  0  0  0
  142.5675   77.4989  221.0871 H   0  0  0  0  0  0  0  0  0  0  0  0
  140.6750   78.5885  218.8849 H   0  0  0  0  0  0  0  0  0  0  0  0
  142.3880   78.9126  219.0221 H   0  0  0  0  0  0  0  0  0  0  0  0
  142.9478   76.5389  218.2231 H   0  0  0  0  0  0  0  0  0  0  0  0
  140.9820   78.0240  216.9620 H   0  0  0  0  0  0  0  0  0  0  0  0
  140.0991   75.7239  218.5137 H   0  0  0  0  0  0  0  0  0  0  0  0
  140.8719   73.7283  219.1667 H   0  0  0  0  0  0  0  0  0  0  0  0
  141.8855   74.3196  217.7561 H   0  0  0  0  0  0  0  0  0  0  0  0
  143.7281   76.1257  219.3719 H   0  0  0  0  0  0  0  0  0  0  0  0
  145.7713   75.6476  220.6360 H   0  0  0  0  0  0  0  0  0  0  0  0
  144.4255   71.6399  221.2599 H   0  0  0  0  0  0  0  0  0  0  0  0
  142.3758   72.1208  219.9970 H   0  0  0  0  0  0  0  0  0  0  0  0
  139.1020   69.4957  222.4008 H   0  0  0  0  0  0  0  0  0  0  0  0
  139.1061   68.0551  224.4209 H   0  0  0  0  0  0  0  0  0  0  0  0
  139.5671   67.6856  226.6936 H   0  0  0  0  0  0  0  0  0  0  0  0
  141.3274   70.8726  228.9858 H   0  0  0  0  0  0  0  0  0  0  0  0
  141.3536   72.3571  227.0014 H   0  0  0  0  0  0  0  0  0  0  0  0
  1  2  2  0
  2  3  1  0
  3  4  1  0
  4  5  1  0
  5  6  2  0
  5  7  1  0
  7  8  1  0
  8  9  1  0
  9 10  1  0
 10 11  1  0
 10 12  1  0
 12 13  1  0
 13 14  1  0
 14 15  2  0
 15 16  1  0
 16 17  2  0
 17 18  1  0
 17 19  1  0
 19 20  2  0
  2 21  1  0
 21 22  2  0
 22 23  1  0
 23 24  2  0
 24 25  1  0
 25 26  2  0
 26 27  1  0
 26 28  1  0
 28 29  2  0
 29 30  1  0
 30 31  2  0
 12  7  1  0
 20 14  1  0
 31 21  1  0
 30 24  1  0
  3 32  1  0
  4 33  1  0
  4 34  1  0
  8 35  1  0
  8 36  1  0
  9 37  1  0
  9 38  1  0
 10 39  1  6
 11 40  1  0
 12 41  1  6
 13 42  1  0
 13 43  1  0
 15 44  1  0
 16 45  1  0
 19 46  1  0
 20 47  1  0
 22 48  1  0
 23 49  1  0
 25 50  1  0
 28 51  1  0
 29 52  1  0
M  END
>  <smiles>  (32) 
O=C(NCC(=O)N1CC[C@H](O)[C@H]1Cc1ccc(Cl)cc1)c1ccc2cc(F)ccc2n1

>  <score_type>  (32) 
oracle

>  <origin>  (32) 
autodockgpu

>  <m_score__min__energy>  (32) 
-9.1999999999999993

>  <m_primary>  (32) 
energy

>  <rmsd>  (32) 
2.1466077911144987

>  <m_score__min__rmsd>  (32) 
2.1466077911144987

>  <meeko>  (32) 
{"free_energy": -8.05, "intermolecular_energy": -10.14, "internal_energy": -2.05, "cluster_size": 23, "cluster_id": 2, "rank_in_cluster": 14}

>  <energy>  (32) 
-8.05

>  <cluster_rmsd>  (32) 
1.1

>  <cluster>  (32) 
2

$$$$

     RDKit          3D

 52 55  0  0  0  0  0  0  0  0999 V2000
  138.5590   70.4210  221.6300 O   0  0  0  0  0  0  0  0  0  0  0  0
  138.9870   70.9980  222.6590 C   0  0  0  0  0  0  0  0  0  0  0  0
  139.1690   72.4070  222.6090 N   0  0  0  0  0  0  0  0  0  0  0  0
  138.8460   73.0830  221.3690 C   0  0  0  0  0  0  0  0  0  0  0  0
  138.9210   74.5720  221.5390 C   0  0  0  0  0  0  0  0  0  0  0  0
  139.8030   74.9750  222.3570 O   0  0  0  0  0  0  0  0  0  0  0  0
  138.0630   75.4610  220.8340 N   0  0  0  0  0  0  0  0  0  0  0  0
  136.9900   75.0010  219.9830 C   0  0  0  0  0  0  0  0  0  0  0  0
  136.8120   76.2310  219.0800 C   0  0  0  0  0  0  0  0  0  0  0  0
  137.0740   77.3980  220.0440 C   0  0  2  0  0  0  0  0  0  0  0  0
  137.4180   78.4900  219.2600 O   0  0  0  0  0  0  0  0  0  0  0  0
  138.1810   76.8880  220.8880 C   0  0  1  0  0  0  0  0  0  0  0  0
  138.2040   77.4710  222.2760 C   0  0  0  0  0  0  0  0  0  0  0  0
  139.4300   78.2270  222.6040 C   0  0  0  0  0  0  0  0  0  0  0  0
  139.4960   79.2190  223.5570 C   0  0  0  0  0  0  0  0  0  0  0  0
  140.6560   79.9120  223.8500 C   0  0  0  0  0  0  0  0  0  0  0  0
  141.8240   79.6320  223.1820 C   0  0  0  0  0  0  0  0  0  0  0  0
  143.2720   80.5290  223.5790 Cl  0  0  0  0  0  0  0  0  0  0  0  0
  141.7920   78.6450  222.2220 C   0  0  0  0  0  0  0  0  0  0  0  0
  140.6300   77.9550  221.9350 C   0  0  0  0  0  0  0  0  0  0  0  0
  139.2950   70.2610  223.8790 C   0  0  0  0  0  0  0  0  0  0  0  0
  138.9600   68.9140  223.9450 C   0  0  0  0  0  0  0  0  0  0  0  0
  139.2430   68.2000  225.0900 C   0  0  0  0  0  0  0  0  0  0  0  0
  139.8440   68.8060  226.1470 C   0  0  0  0  0  0  0  0  0  0  0  0
  140.1090   68.0430  227.2810 C   0  0  0  0  0  0  0  0  0  0  0  0
  140.7210   68.6780  228.3480 C   0  0  0  0  0  0  0  0  0  0  0  0
  141.0060   67.9800  229.4870 F   0  0  0  0  0  0  0  0  0  0  0  0
  141.0490   70.0150  228.2720 C   0  0  0  0  0  0  0  0  0  0  0  0
  140.7860   70.7680  227.1460 C   0  0  0  0  0  0  0  0  0  0  0  0
  140.1780   70.1520  226.0810 C   0  0  0  0  0  0  0  0  0  0  0  0
  139.8890   70.8250  224.9450 N   0  0  0  0  0  0  0  0  0  0  0  0
  139.5240   72.9130  223.4510 H   0  0  0  0  0  0  0  0  0  0  0  0
  139.5601   72.7722  220.5922 H   0  0  0  0  0  0  0  0  0  0  0  0
  137.8206   72.8126  221.0766 H   0  0  0  0  0  0  0  0  0  0  0  0
  137.2809   74.1108  219.4060 H   0  0  0  0  0  0  0  0  0  0  0  0
  136.0814   74.6852  220.5165 H   0  0  0  0  0  0  0  0  0  0  0  0
  137.5400   76.2265  218.2554 H   0  0  0  0  0  0  0  0  0  0  0  0
  135.8255   76.2779  218.5955 H   0  0  0  0  0  0  0  0  0  0  0  0
  136.2352   77.7204  220.6784 H   0  0  0  0  0  0  0  0  0  0  0  0
  136.7150   79.1860  219.2360 H   0  0  0  0  0  0  0  0  0  0  0  0
  139.1627   77.2073  220.5081 H   0  0  0  0  0  0  0  0  0  0  0  0
  137.3445   78.1500  222.3775 H   0  0  0  0  0  0  0  0  0  0  0  0
  138.1658   76.6205  222.9726 H   0  0  0  0  0  0  0  0  0  0  0  0
  138.5809   79.4725  224.1124 H   0  0  0  0  0  0  0  0  0  0  0  0
  140.6439   80.6936  224.6239 H   0  0  0  0  0  0  0  0  0  0  0  0
  142.7124   78.4006  221.6714 H   0  0  0  0  0  0  0  0  0  0  0  0
  140.6477   77.1727  221.1619 H   0  0  0  0  0  0  0  0  0  0  0  0
  138.4729   68.4213  223.0906 H   0  0  0  0  0  0  0  0  0  0  0  0
  138.9806   67.1333  225.1480 H   0  0  0  0  0  0  0  0  0  0  0  0
  139.8424   66.9768  227.3273 H   0  0  0  0  0  0  0  0  0  0  0  0
  141.5345   70.4955  229.1342 H   0  0  0  0  0  0  0  0  0  0  0  0
  141.0564   71.8334  227.1032 H   0  0  0  0  0  0  0  0  0  0  0  0
  1  2  2  0
  2  3  1  0
  3  4  1  0
  4  5  1  0
  5  6  2  0
  5  7  1  0
  7  8  1  0
  8  9  1  0
  9 10  1  0
 10 11  1  0
 10 12  1  0
 12 13  1  0
 13 14  1  0
 14 15  2  0
 15 16  1  0
 16 17  2  0
 17 18  1  0
 17 19  1  0
 19 20  2  0
  2 21  1  0
 21 22  2  0
 22 23  1  0
 23 24  2  0
 24 25  1  0
 25 26  2  0
 26 27  1  0
 26 28  1  0
 28 29  2  0
 29 30  1  0
 30 31  2  0
 12  7  1  0
 20 14  1  0
 31 21  1  0
 30 24  1  0
  3 32  1  0
  4 33  1  0
  4 34  1  0
  8 35  1  0
  8 36  1  0
  9 37  1  0
  9 38  1  0
 10 39  1  1
 11 40  1  0
 12 41  1  6
 13 42  1  0
 13 43  1  0
 15 44  1  0
 16 45  1  0
 19 46  1  0
 20 47  1  0
 22 48  1  0
 23 49  1  0
 25 50  1  0
 28 51  1  0
 29 52  1  0
M  END
>  <smiles>  (33) 
O=C(NCC(=O)N1CC[C@H](O)[C@H]1Cc1ccc(Cl)cc1)c1ccc2cc(F)ccc2n1

>  <score_type>  (33) 
oracle

>  <origin>  (33) 
autodockgpu

>  <m_score__min__energy>  (33) 
-9.1999999999999993

>  <m_primary>  (33) 
energy

>  <rmsd>  (33) 
2.7249400834677306

>  <m_score__min__rmsd>  (33) 
2.7249400834677306

>  <meeko>  (33) 
{"free_energy": -7.9, "intermolecular_energy": -9.99, "internal_energy": -1.84, "cluster_size": 3, "cluster_id": 4, "rank_in_cluster": 3}

>  <energy>  (33) 
-8.05

>  <cluster_rmsd>  (33) 
1.54

>  <cluster>  (33) 
2

$$$$

     RDKit          3D

 52 55  0  0  0  0  0  0  0  0999 V2000
  139.2700   71.7140  220.8220 O   0  0  0  0  0  0  0  0  0  0  0  0
  140.0330   72.0210  221.7690 C   0  0  0  0  0  0  0  0  0  0  0  0
  140.9920   73.0480  221.5490 N   0  0  0  0  0  0  0  0  0  0  0  0
  141.0200   73.6730  220.2420 C   0  0  0  0  0  0  0  0  0  0  0  0
  142.0690   74.7440  220.1880 C   0  0  0  0  0  0  0  0  0  0  0  0
  142.8230   74.8110  221.2050 O   0  0  0  0  0  0  0  0  0  0  0  0
  142.2020   75.6190  219.0740 N   0  0  0  0  0  0  0  0  0  0  0  0
  142.3470   75.1430  217.7180 C   0  0  0  0  0  0  0  0  0  0  0  0
  143.0110   76.3670  217.0680 C   0  0  0  0  0  0  0  0  0  0  0  0
  142.3340   77.5410  217.7910 C   0  0  2  0  0  0  0  0  0  0  0  0
  143.1780   78.6330  217.6470 O   0  0  0  0  0  0  0  0  0  0  0  0
  142.2170   77.0480  219.1840 C   0  0  1  0  0  0  0  0  0  0  0  0
  141.0550   77.6370  219.9400 C   0  0  0  0  0  0  0  0  0  0  0  0
  141.4330   78.6150  220.9810 C   0  0  0  0  0  0  0  0  0  0  0  0
  141.8040   79.9160  220.7230 C   0  0  0  0  0  0  0  0  0  0  0  0
  142.1510   80.8160  221.7140 C   0  0  0  0  0  0  0  0  0  0  0  0
  142.1410   80.4370  223.0360 C   0  0  0  0  0  0  0  0  0  0  0  0
  142.5860   81.6020  224.2610 Cl  0  0  0  0  0  0  0  0  0  0  0  0
  141.7750   79.1420  223.3270 C   0  0  0  0  0  0  0  0  0  0  0  0
  141.4280   78.2480  222.3330 C   0  0  0  0  0  0  0  0  0  0  0  0
  139.9550   71.3540  223.0640 C   0  0  0  0  0  0  0  0  0  0  0  0
  139.2400   70.1670  223.1580 C   0  0  0  0  0  0  0  0  0  0  0  0
  139.1550   69.5220  224.3740 C   0  0  0  0  0  0  0  0  0  0  0  0
  139.7640   70.0400  225.4710 C   0  0  0  0  0  0  0  0  0  0  0  0
  139.6500   69.3520  226.6770 C   0  0  0  0  0  0  0  0  0  0  0  0
  140.2770   69.8960  227.7840 C   0  0  0  0  0  0  0  0  0  0  0  0
  140.1990   69.2650  228.9930 F   0  0  0  0  0  0  0  0  0  0  0  0
  140.9840   71.0750  227.6790 C   0  0  0  0  0  0  0  0  0  0  0  0
  141.0960   71.7540  226.4830 C   0  0  0  0  0  0  0  0  0  0  0  0
  140.4790   71.2270  225.3770 C   0  0  0  0  0  0  0  0  0  0  0  0
  140.5450   71.8360  224.1720 N   0  0  0  0  0  0  0  0  0  0  0  0
  141.6410   73.3240  222.3200 H   0  0  0  0  0  0  0  0  0  0  0  0
  141.2436   72.9101  219.4818 H   0  0  0  0  0  0  0  0  0  0  0  0
  140.0384   74.1297  220.0476 H   0  0  0  0  0  0  0  0  0  0  0  0
  142.9924   74.2538  217.6655 H   0  0  0  0  0  0  0  0  0  0  0  0
  141.4104   74.8190  217.2407 H   0  0  0  0  0  0  0  0  0  0  0  0
  144.0973   76.3677  217.2410 H   0  0  0  0  0  0  0  0  0  0  0  0
  142.8917   76.3998  215.9750 H   0  0  0  0  0  0  0  0  0  0  0  0
  141.3477   77.8561  217.4196 H   0  0  0  0  0  0  0  0  0  0  0  0
  143.7310   78.5900  216.8280 H   0  0  0  0  0  0  0  0  0  0  0  0
  143.0639   77.3773  219.8039 H   0  0  0  0  0  0  0  0  0  0  0  0
  140.3958   78.1413  219.2181 H   0  0  0  0  0  0  0  0  0  0  0  0
  140.5644   76.8010  220.4600 H   0  0  0  0  0  0  0  0  0  0  0  0
  141.8254   80.2560  219.6771 H   0  0  0  0  0  0  0  0  0  0  0  0
  142.4372   81.8429  221.4428 H   0  0  0  0  0  0  0  0  0  0  0  0
  141.7585   78.8115  224.3760 H   0  0  0  0  0  0  0  0  0  0  0  0
  141.1407   77.2229  222.6097 H   0  0  0  0  0  0  0  0  0  0  0  0
  138.7459   69.7451  222.2704 H   0  0  0  0  0  0  0  0  0  0  0  0
  138.5900   68.5817  224.4555 H   0  0  0  0  0  0  0  0  0  0  0  0
  139.0830   68.4119  226.7466 H   0  0  0  0  0  0  0  0  0  0  0  0
  141.4729   71.4862  228.5745 H   0  0  0  0  0  0  0  0  0  0  0  0
  141.6650   72.6931  226.4182 H   0  0  0  0  0  0  0  0  0  0  0  0
  1  2  2  0
  2  3  1  0
  3  4  1  0
  4  5  1  0
  5  6  2  0
  5  7  1  0
  7  8  1  0
  8  9  1  0
  9 10  1  0
 10 11  1  0
 10 12  1  0
 12 13  1  0
 13 14  1  0
 14 15  2  0
 15 16  1  0
 16 17  2  0
 17 18  1  0
 17 19  1  0
 19 20  2  0
  2 21  1  0
 21 22  2  0
 22 23  1  0
 23 24  2  0
 24 25  1  0
 25 26  2  0
 26 27  1  0
 26 28  1  0
 28 29  2  0
 29 30  1  0
 30 31  2  0
 12  7  1  0
 20 14  1  0
 31 21  1  0
 30 24  1  0
  3 32  1  0
  4 33  1  0
  4 34  1  0
  8 35  1  0
  8 36  1  0
  9 37  1  0
  9 38  1  0
 10 39  1  6
 11 40  1  0
 12 41  1  1
 13 42  1  0
 13 43  1  0
 15 44  1  0
 16 45  1  0
 19 46  1  0
 20 47  1  0
 22 48  1  0
 23 49  1  0
 25 50  1  0
 28 51  1  0
 29 52  1  0
M  END
>  <smiles>  (34) 
O=C(NCC(=O)N1CC[C@H](O)[C@H]1Cc1ccc(Cl)cc1)c1ccc2cc(F)ccc2n1

>  <score_type>  (34) 
oracle

>  <origin>  (34) 
autodockgpu

>  <m_score__min__energy>  (34) 
-9.1999999999999993

>  <m_primary>  (34) 
energy

>  <rmsd>  (34) 
2.2241853667885043

>  <m_score__min__rmsd>  (34) 
2.2241853667885043

>  <meeko>  (34) 
{"free_energy": -7.95, "intermolecular_energy": -10.04, "internal_energy": -2.0, "cluster_size": 19, "cluster_id": 1, "rank_in_cluster": 18}

>  <energy>  (34) 
-8.0

>  <cluster_rmsd>  (34) 
1.25

>  <cluster>  (34) 
2

$$$$

     RDKit          3D

 52 55  0  0  0  0  0  0  0  0999 V2000
  140.3010   74.5360  222.3360 O   0  0  0  0  0  0  0  0  0  0  0  0
  140.6670   75.3020  221.4120 C   0  0  0  0  0  0  0  0  0  0  0  0
  140.8620   74.7450  220.1180 N   0  0  0  0  0  0  0  0  0  0  0  0
  140.6210   73.3250  219.9550 C   0  0  0  0  0  0  0  0  0  0  0  0
  141.7360   72.5240  220.5600 C   0  0  0  0  0  0  0  0  0  0  0  0
  141.5270   72.1220  221.7450 O   0  0  0  0  0  0  0  0  0  0  0  0
  142.9380   72.2410  219.8530 N   0  0  0  0  0  0  0  0  0  0  0  0
  142.9620   71.4820  218.6240 C   0  0  0  0  0  0  0  0  0  0  0  0
  144.4190   70.9960  218.6330 C   0  0  0  0  0  0  0  0  0  0  0  0
  145.1700   72.1890  219.2430 C   0  0  2  0  0  0  0  0  0  0  0  0
  146.3660   71.6930  219.7390 O   0  0  0  0  0  0  0  0  0  0  0  0
  144.2350   72.6670  220.2900 C   0  0  1  0  0  0  0  0  0  0  0  0
  144.3530   74.1390  220.5820 C   0  0  0  0  0  0  0  0  0  0  0  0
  143.8880   75.0200  219.4910 C   0  0  0  0  0  0  0  0  0  0  0  0
  143.6360   74.5940  218.2050 C   0  0  0  0  0  0  0  0  0  0  0  0
  143.1980   75.4360  217.2000 C   0  0  0  0  0  0  0  0  0  0  0  0
  142.9910   76.7720  217.4490 C   0  0  0  0  0  0  0  0  0  0  0  0
  142.4370   77.8070  216.1530 Cl  0  0  0  0  0  0  0  0  0  0  0  0
  143.2340   77.2310  218.7250 C   0  0  0  0  0  0  0  0  0  0  0  0
  143.6710   76.3840  219.7250 C   0  0  0  0  0  0  0  0  0  0  0  0
  140.8930   76.7240  221.6410 C   0  0  0  0  0  0  0  0  0  0  0  0
  141.0770   77.1670  222.9450 C   0  0  0  0  0  0  0  0  0  0  0  0
  141.2920   78.5090  223.1800 C   0  0  0  0  0  0  0  0  0  0  0  0
  141.3240   79.3920  222.1490 C   0  0  0  0  0  0  0  0  0  0  0  0
  141.5440   80.7370  222.4380 C   0  0  0  0  0  0  0  0  0  0  0  0
  141.5730   81.6210  221.3740 C   0  0  0  0  0  0  0  0  0  0  0  0
  141.7850   82.9520  221.5970 F   0  0  0  0  0  0  0  0  0  0  0  0
  141.3890   81.1700  220.0840 C   0  0  0  0  0  0  0  0  0  0  0  0
  141.1720   79.8370  219.8010 C   0  0  0  0  0  0  0  0  0  0  0  0
  141.1400   78.9490  220.8470 C   0  0  0  0  0  0  0  0  0  0  0  0
  140.9320   77.6280  220.6460 N   0  0  0  0  0  0  0  0  0  0  0  0
  141.1670   75.3600  219.3310 H   0  0  0  0  0  0  0  0  0  0  0  0
  139.6758   73.0600  220.4513 H   0  0  0  0  0  0  0  0  0  0  0  0
  140.5653   73.0973  218.8803 H   0  0  0  0  0  0  0  0  0  0  0  0
  142.2522   70.6421  218.6500 H   0  0  0  0  0  0  0  0  0  0  0  0
  142.6698   72.0474  217.7268 H   0  0  0  0  0  0  0  0  0  0  0  0
  144.5329   70.0958  219.2548 H   0  0  0  0  0  0  0  0  0  0  0  0
  144.7896   70.7101  217.6376 H   0  0  0  0  0  0  0  0  0  0  0  0
  145.4312   73.0149  218.5650 H   0  0  0  0  0  0  0  0  0  0  0  0
  146.3580   71.5710  220.7210 H   0  0  0  0  0  0  0  0  0  0  0  0
  144.4710   72.2354  221.2739 H   0  0  0  0  0  0  0  0  0  0  0  0
  143.7567   74.3599  221.4796 H   0  0  0  0  0  0  0  0  0  0  0  0
  145.4250   74.3461  220.7155 H   0  0  0  0  0  0  0  0  0  0  0  0
  143.7910   73.5314  217.9664 H   0  0  0  0  0  0  0  0  0  0  0  0
  143.0136   75.0337  216.1929 H   0  0  0  0  0  0  0  0  0  0  0  0
  143.0765   78.2956  218.9526 H   0  0  0  0  0  0  0  0  0  0  0  0
  143.8532   76.7910  220.7306 H   0  0  0  0  0  0  0  0  0  0  0  0
  141.0514   76.4540  223.7823 H   0  0  0  0  0  0  0  0  0  0  0  0
  141.4386   78.8665  224.2099 H   0  0  0  0  0  0  0  0  0  0  0  0
  141.6891   81.0828  223.4721 H   0  0  0  0  0  0  0  0  0  0  0  0
  141.4160   81.8940  219.2563 H   0  0  0  0  0  0  0  0  0  0  0  0
  141.0286   79.4954  218.7653 H   0  0  0  0  0  0  0  0  0  0  0  0
  1  2  2  0
  2  3  1  0
  3  4  1  0
  4  5  1  0
  5  6  2  0
  5  7  1  0
  7  8  1  0
  8  9  1  0
  9 10  1  0
 10 11  1  0
 10 12  1  0
 12 13  1  0
 13 14  1  0
 14 15  2  0
 15 16  1  0
 16 17  2  0
 17 18  1  0
 17 19  1  0
 19 20  2  0
  2 21  1  0
 21 22  2  0
 22 23  1  0
 23 24  2  0
 24 25  1  0
 25 26  2  0
 26 27  1  0
 26 28  1  0
 28 29  2  0
 29 30  1  0
 30 31  2  0
 12  7  1  0
 20 14  1  0
 31 21  1  0
 30 24  1  0
  3 32  1  0
  4 33  1  0
  4 34  1  0
  8 35  1  0
  8 36  1  0
  9 37  1  0
  9 38  1  0
 10 39  1  6
 11 40  1  0
 12 41  1  1
 13 42  1  0
 13 43  1  0
 15 44  1  0
 16 45  1  0
 19 46  1  0
 20 47  1  0
 22 48  1  0
 23 49  1  0
 25 50  1  0
 28 51  1  0
 29 52  1  0
M  END
>  <smiles>  (35) 
O=C(NCC(=O)N1CC[C@H](O)[C@H]1Cc1ccc(Cl)cc1)c1ccc2cc(F)ccc2n1

>  <score_type>  (35) 
oracle

>  <origin>  (35) 
autodockgpu

>  <m_score__min__energy>  (35) 
-9.1999999999999993

>  <m_primary>  (35) 
energy

>  <rmsd>  (35) 
8.373065539808668

>  <m_score__min__rmsd>  (35) 
8.373065539808668

>  <meeko>  (35) 
{"free_energy": -6.88, "intermolecular_energy": -8.96, "internal_energy": -2.68, "cluster_size": 1, "cluster_id": 6, "rank_in_cluster": 1}

>  <energy>  (35) 
-8.0

>  <cluster_rmsd>  (35) 
1.25

>  <cluster>  (35) 
2

$$$$

     RDKit          3D

 52 55  0  0  0  0  0  0  0  0999 V2000
  141.2540   76.7730  217.6070 O   0  0  0  0  0  0  0  0  0  0  0  0
  142.2330   77.0780  218.3300 C   0  0  0  0  0  0  0  0  0  0  0  0
  143.4540   76.3760  218.1350 N   0  0  0  0  0  0  0  0  0  0  0  0
  143.4840   75.3520  217.1090 C   0  0  0  0  0  0  0  0  0  0  0  0
  142.8570   74.0840  217.6060 C   0  0  0  0  0  0  0  0  0  0  0  0
  143.0170   73.0750  216.8550 O   0  0  0  0  0  0  0  0  0  0  0  0
  142.1350   74.0240  218.8310 N   0  0  0  0  0  0  0  0  0  0  0  0
  140.8300   73.4140  218.9410 C   0  0  0  0  0  0  0  0  0  0  0  0
  140.3090   74.1140  220.2050 C   0  0  0  0  0  0  0  0  0  0  0  0
  141.5740   74.2470  221.0660 C   0  0  2  0  0  0  0  0  0  0  0  0
  141.3310   75.2660  221.9740 O   0  0  0  0  0  0  0  0  0  0  0  0
  142.6210   74.5670  220.0660 C   0  0  1  0  0  0  0  0  0  0  0  0
  143.9990   74.1070  220.4620 C   0  0  0  0  0  0  0  0  0  0  0  0
  144.3190   72.7190  220.0680 C   0  0  0  0  0  0  0  0  0  0  0  0
  145.4510   72.3520  219.3760 C   0  0  0  0  0  0  0  0  0  0  0  0
  145.7320   71.0460  219.0200 C   0  0  0  0  0  0  0  0  0  0  0  0
  144.8670   70.0310  219.3520 C   0  0  0  0  0  0  0  0  0  0  0  0
  145.2550   68.3910  218.8850 Cl  0  0  0  0  0  0  0  0  0  0  0  0
  143.7240   70.3640  220.0440 C   0  0  0  0  0  0  0  0  0  0  0  0
  143.4500   71.6710  220.3980 C   0  0  0  0  0  0  0  0  0  0  0  0
  142.1400   78.1200  219.3470 C   0  0  0  0  0  0  0  0  0  0  0  0
  142.1870   79.4480  218.9440 C   0  0  0  0  0  0  0  0  0  0  0  0
  142.1000   80.4470  219.8910 C   0  0  0  0  0  0  0  0  0  0  0  0
  141.9700   80.1370  221.2070 C   0  0  0  0  0  0  0  0  0  0  0  0
  141.8870   81.1810  222.1260 C   0  0  0  0  0  0  0  0  0  0  0  0
  141.7550   80.8450  223.4620 C   0  0  0  0  0  0  0  0  0  0  0  0
  141.6680   81.8270  224.4080 F   0  0  0  0  0  0  0  0  0  0  0  0
  141.7100   79.5230  223.8510 C   0  0  0  0  0  0  0  0  0  0  0  0
  141.7920   78.4910  222.9380 C   0  0  0  0  0  0  0  0  0  0  0  0
  141.9240   78.8090  221.6090 C   0  0  0  0  0  0  0  0  0  0  0  0
  142.0100   77.8520  220.6590 N   0  0  0  0  0  0  0  0  0  0  0  0
  144.2850   76.6100  218.7220 H   0  0  0  0  0  0  0  0  0  0  0  0
  142.9296   75.7075  216.2279 H   0  0  0  0  0  0  0  0  0  0  0  0
  144.5319   75.1477  216.8443 H   0  0  0  0  0  0  0  0  0  0  0  0
  140.2021   73.6342  218.0651 H   0  0  0  0  0  0  0  0  0  0  0  0
  140.8369   72.3152  218.9914 H   0  0  0  0  0  0  0  0  0  0  0  0
  139.8869   75.1012  219.9658 H   0  0  0  0  0  0  0  0  0  0  0  0
  139.4979   73.5639  220.7046 H   0  0  0  0  0  0  0  0  0  0  0  0
  141.8719   73.3677  221.6561 H   0  0  0  0  0  0  0  0  0  0  0  0
  141.9200   76.0500  221.8440 H   0  0  0  0  0  0  0  0  0  0  0  0
  142.7776   75.6519  219.9742 H   0  0  0  0  0  0  0  0  0  0  0  0
  144.7334   74.7761  219.9898 H   0  0  0  0  0  0  0  0  0  0  0  0
  144.0345   74.1361  221.5610 H   0  0  0  0  0  0  0  0  0  0  0  0
  146.1676   73.1368  219.0922 H   0  0  0  0  0  0  0  0  0  0  0  0
  146.6549   70.8176  218.4668 H   0  0  0  0  0  0  0  0  0  0  0  0
  143.0132   69.5716  220.3212 H   0  0  0  0  0  0  0  0  0  0  0  0
  142.5267   71.8942  220.9527 H   0  0  0  0  0  0  0  0  0  0  0  0
  142.2927   79.7011  217.8787 H   0  0  0  0  0  0  0  0  0  0  0  0
  142.1361   81.5011  219.5786 H   0  0  0  0  0  0  0  0  0  0  0  0
  141.9249   82.2316  221.8022 H   0  0  0  0  0  0  0  0  0  0  0  0
  141.6058   79.2838  224.9196 H   0  0  0  0  0  0  0  0  0  0  0  0
  141.7527   77.4419  223.2665 H   0  0  0  0  0  0  0  0  0  0  0  0
  1  2  2  0
  2  3  1  0
  3  4  1  0
  4  5  1  0
  5  6  2  0
  5  7  1  0
  7  8  1  0
  8  9  1  0
  9 10  1  0
 10 11  1  0
 10 12  1  0
 12 13  1  0
 13 14  1  0
 14 15  2  0
 15 16  1  0
 16 17  2  0
 17 18  1  0
 17 19  1  0
 19 20  2  0
  2 21  1  0
 21 22  2  0
 22 23  1  0
 23 24  2  0
 24 25  1  0
 25 26  2  0
 26 27  1  0
 26 28  1  0
 28 29  2  0
 29 30  1  0
 30 31  2  0
 12  7  1  0
 20 14  1  0
 31 21  1  0
 30 24  1  0
  3 32  1  0
  4 33  1  0
  4 34  1  0
  8 35  1  0
  8 36  1  0
  9 37  1  0
  9 38  1  0
 10 39  1  1
 11 40  1  0
 12 41  1  6
 13 42  1  0
 13 43  1  0
 15 44  1  0
 16 45  1  0
 19 46  1  0
 20 47  1  0
 22 48  1  0
 23 49  1  0
 25 50  1  0
 28 51  1  0
 29 52  1  0
M  END
>  <smiles>  (36) 
O=C(NCC(=O)N1CC[C@H](O)[C@H]1Cc1ccc(Cl)cc1)c1ccc2cc(F)ccc2n1

>  <score_type>  (36) 
oracle

>  <origin>  (36) 
autodockgpu

>  <m_score__min__energy>  (36) 
-9.1999999999999993

>  <m_primary>  (36) 
energy

>  <rmsd>  (36) 
8.495585540464784

>  <m_score__min__rmsd>  (36) 
8.495585540464784

>  <meeko>  (36) 
{"free_energy": -6.64, "intermolecular_energy": -8.73, "internal_energy": -2.77, "cluster_size": 1, "cluster_id": 7, "rank_in_cluster": 1}

>  <energy>  (36) 
-7.99

>  <cluster_rmsd>  (36) 
1.23

>  <cluster>  (36) 
2

$$$$

     RDKit          3D

 52 55  0  0  0  0  0  0  0  0999 V2000
  140.2080   71.4600  221.0060 O   0  0  0  0  0  0  0  0  0  0  0  0
  139.9270   71.9830  222.1110 C   0  0  0  0  0  0  0  0  0  0  0  0
  139.6140   73.3700  222.1350 N   0  0  0  0  0  0  0  0  0  0  0  0
  139.6400   74.0860  220.8760 C   0  0  0  0  0  0  0  0  0  0  0  0
  140.8070   75.0270  220.8240 C   0  0  0  0  0  0  0  0  0  0  0  0
  141.2930   75.3440  221.9510 O   0  0  0  0  0  0  0  0  0  0  0  0
  141.3260   75.5240  219.5960 N   0  0  0  0  0  0  0  0  0  0  0  0
  141.4730   74.7000  218.4180 C   0  0  0  0  0  0  0  0  0  0  0  0
  142.5470   75.4970  217.6610 C   0  0  0  0  0  0  0  0  0  0  0  0
  142.1820   76.9520  217.9880 C   0  0  2  0  0  0  0  0  0  0  0  0
  143.3280   77.7050  217.7770 O   0  0  0  0  0  0  0  0  0  0  0  0
  141.7620   76.8770  219.4080 C   0  0  1  0  0  0  0  0  0  0  0  0
  140.7560   77.9260  219.7990 C   0  0  0  0  0  0  0  0  0  0  0  0
  141.2060   78.8360  220.8730 C   0  0  0  0  0  0  0  0  0  0  0  0
  141.5880   80.1440  220.6700 C   0  0  0  0  0  0  0  0  0  0  0  0
  142.0030   80.9800  221.6910 C   0  0  0  0  0  0  0  0  0  0  0  0
  142.0540   80.5250  222.9870 C   0  0  0  0  0  0  0  0  0  0  0  0
  142.5830   81.6110  224.2520 Cl  0  0  0  0  0  0  0  0  0  0  0  0
  141.6780   79.2210  223.2240 C   0  0  0  0  0  0  0  0  0  0  0  0
  141.2640   78.3930  222.2000 C   0  0  0  0  0  0  0  0  0  0  0  0
  139.9190   71.2070  223.3460 C   0  0  0  0  0  0  0  0  0  0  0  0
  139.3450   69.9420  223.3320 C   0  0  0  0  0  0  0  0  0  0  0  0
  139.3270   69.1930  224.4900 C   0  0  0  0  0  0  0  0  0  0  0  0
  139.8650   69.6850  225.6360 C   0  0  0  0  0  0  0  0  0  0  0  0
  139.8230   68.8910  226.7790 C   0  0  0  0  0  0  0  0  0  0  0  0
  140.3750   69.4100  227.9370 C   0  0  0  0  0  0  0  0  0  0  0  0
  140.3630   68.6770  229.0890 F   0  0  0  0  0  0  0  0  0  0  0  0
  140.9420   70.6680  227.9400 C   0  0  0  0  0  0  0  0  0  0  0  0
  140.9830   71.4520  226.8050 C   0  0  0  0  0  0  0  0  0  0  0  0
  140.4380   70.9500  225.6490 C   0  0  0  0  0  0  0  0  0  0  0  0
  140.4410   71.6600  224.4990 N   0  0  0  0  0  0  0  0  0  0  0  0
  139.3770   73.8310  223.0420 H   0  0  0  0  0  0  0  0  0  0  0  0
  139.7225   73.3629  220.0512 H   0  0  0  0  0  0  0  0  0  0  0  0
  138.7119   74.6688  220.7819 H   0  0  0  0  0  0  0  0  0  0  0  0
  141.8195   73.6869  218.6701 H   0  0  0  0  0  0  0  0  0  0  0  0
  140.5433   74.5289  217.8556 H   0  0  0  0  0  0  0  0  0  0  0  0
  143.5549   75.2495  218.0255 H   0  0  0  0  0  0  0  0  0  0  0  0
  142.5681   75.2846  216.5819 H   0  0  0  0  0  0  0  0  0  0  0  0
  141.3876   77.4157  217.3848 H   0  0  0  0  0  0  0  0  0  0  0  0
  143.2000   78.4260  217.1120 H   0  0  0  0  0  0  0  0  0  0  0  0
  142.5918   77.1130  220.0905 H   0  0  0  0  0  0  0  0  0  0  0  0
  140.5271   78.5311  218.9094 H   0  0  0  0  0  0  0  0  0  0  0  0
  139.8797   77.3887  220.1907 H   0  0  0  0  0  0  0  0  0  0  0  0
  141.5617   80.5433  219.6454 H   0  0  0  0  0  0  0  0  0  0  0  0
  142.2943   82.0162  221.4641 H   0  0  0  0  0  0  0  0  0  0  0  0
  141.7083   78.8310  224.2521 H   0  0  0  0  0  0  0  0  0  0  0  0
  140.9721   77.3582  222.4326 H   0  0  0  0  0  0  0  0  0  0  0  0
  138.9086   69.5411  222.4053 H   0  0  0  0  0  0  0  0  0  0  0  0
  138.8740   68.1906  224.4854 H   0  0  0  0  0  0  0  0  0  0  0  0
  139.3684   67.8895  226.7622 H   0  0  0  0  0  0  0  0  0  0  0  0
  141.3737   71.0571  228.8739 H   0  0  0  0  0  0  0  0  0  0  0  0
  141.4401   72.4523  226.8258 H   0  0  0  0  0  0  0  0  0  0  0  0
  1  2  2  0
  2  3  1  0
  3  4  1  0
  4  5  1  0
  5  6  2  0
  5  7  1  0
  7  8  1  0
  8  9  1  0
  9 10  1  0
 10 11  1  0
 10 12  1  0
 12 13  1  0
 13 14  1  0
 14 15  2  0
 15 16  1  0
 16 17  2  0
 17 18  1  0
 17 19  1  0
 19 20  2  0
  2 21  1  0
 21 22  2  0
 22 23  1  0
 23 24  2  0
 24 25  1  0
 25 26  2  0
 26 27  1  0
 26 28  1  0
 28 29  2  0
 29 30  1  0
 30 31  2  0
 12  7  1  0
 20 14  1  0
 31 21  1  0
 30 24  1  0
  3 32  1  0
  4 33  1  0
  4 34  1  0
  8 35  1  0
  8 36  1  0
  9 37  1  0
  9 38  1  0
 10 39  1  6
 11 40  1  0
 12 41  1  1
 13 42  1  0
 13 43  1  0
 15 44  1  0
 16 45  1  0
 19 46  1  0
 20 47  1  0
 22 48  1  0
 23 49  1  0
 25 50  1  0
 28 51  1  0
 29 52  1  0
M  END
>  <smiles>  (37) 
O=C(NCC(=O)N1CC[C@H](O)[C@H]1Cc1ccc(Cl)cc1)c1ccc2cc(F)ccc2n1

>  <score_type>  (37) 
oracle

>  <origin>  (37) 
autodockgpu

>  <m_score__min__energy>  (37) 
-9.1999999999999993

>  <m_primary>  (37) 
energy

>  <rmsd>  (37) 
1.6390088859151881

>  <m_score__min__rmsd>  (37) 
1.6390088859151881

>  <meeko>  (37) 
{"free_energy": -8.58, "intermolecular_energy": -10.67, "internal_energy": -1.54, "cluster_size": 19, "cluster_id": 1, "rank_in_cluster": 7}

>  <energy>  (37) 
-7.94

>  <cluster_rmsd>  (37) 
1.13

>  <cluster>  (37) 
2

$$$$

     RDKit          3D

 52 55  0  0  0  0  0  0  0  0999 V2000
  140.9170   71.3580  221.2170 O   0  0  0  0  0  0  0  0  0  0  0  0
  140.1920   71.7840  222.1490 C   0  0  0  0  0  0  0  0  0  0  0  0
  139.4900   73.0040  221.9470 N   0  0  0  0  0  0  0  0  0  0  0  0
  139.6600   73.6740  220.6730 C   0  0  0  0  0  0  0  0  0  0  0  0
  140.6540   74.7910  220.7890 C   0  0  0  0  0  0  0  0  0  0  0  0
  140.9350   75.1390  221.9750 O   0  0  0  0  0  0  0  0  0  0  0  0
  141.2340   75.4110  219.6470 N   0  0  0  0  0  0  0  0  0  0  0  0
  141.4450   74.7130  218.4000 C   0  0  0  0  0  0  0  0  0  0  0  0
  142.5530   75.5810  217.7860 C   0  0  0  0  0  0  0  0  0  0  0  0
  142.1660   76.9960  218.2420 C   0  0  2  0  0  0  0  0  0  0  0  0
  143.3190   77.7640  218.1690 O   0  0  0  0  0  0  0  0  0  0  0  0
  141.6740   76.7750  219.6230 C   0  0  1  0  0  0  0  0  0  0  0  0
  140.6450   77.7810  220.0670 C   0  0  0  0  0  0  0  0  0  0  0  0
  141.1180   78.7280  221.0970 C   0  0  0  0  0  0  0  0  0  0  0  0
  141.5070   80.0240  220.8380 C   0  0  0  0  0  0  0  0  0  0  0  0
  141.9450   80.8950  221.8190 C   0  0  0  0  0  0  0  0  0  0  0  0
  142.0120   80.4900  223.1310 C   0  0  0  0  0  0  0  0  0  0  0  0
  142.5700   81.6200  224.3440 Cl  0  0  0  0  0  0  0  0  0  0  0  0
  141.6300   79.2000  223.4240 C   0  0  0  0  0  0  0  0  0  0  0  0
  141.1940   78.3360  222.4400 C   0  0  0  0  0  0  0  0  0  0  0  0
  140.0630   71.0620  223.4100 C   0  0  0  0  0  0  0  0  0  0  0  0
  139.3960   69.8440  223.4130 C   0  0  0  0  0  0  0  0  0  0  0  0
  139.2630   69.1470  224.5960 C   0  0  0  0  0  0  0  0  0  0  0  0
  139.7800   69.6450  225.7490 C   0  0  0  0  0  0  0  0  0  0  0  0
  139.6200   68.9040  226.9180 C   0  0  0  0  0  0  0  0  0  0  0  0
  140.1530   69.4280  228.0830 C   0  0  0  0  0  0  0  0  0  0  0  0
  140.0270   68.7460  229.2590 F   0  0  0  0  0  0  0  0  0  0  0  0
  140.8130   70.6390  228.0680 C   0  0  0  0  0  0  0  0  0  0  0  0
  140.9700   71.3700  226.9080 C   0  0  0  0  0  0  0  0  0  0  0  0
  140.4460   70.8630  225.7450 C   0  0  0  0  0  0  0  0  0  0  0  0
  140.5610   71.5230  224.5710 N   0  0  0  0  0  0  0  0  0  0  0  0
  138.8800   73.3810  222.7060 H   0  0  0  0  0  0  0  0  0  0  0  0
  140.0182   72.9480  219.9283 H   0  0  0  0  0  0  0  0  0  0  0  0
  138.6917   74.0936  220.3625 H   0  0  0  0  0  0  0  0  0  0  0  0
  141.7817   73.6787  218.5641 H   0  0  0  0  0  0  0  0  0  0  0  0
  140.5462   74.6027  217.7755 H   0  0  0  0  0  0  0  0  0  0  0  0
  143.5416   75.2956  218.1747 H   0  0  0  0  0  0  0  0  0  0  0  0
  142.6307   75.4807  216.6933 H   0  0  0  0  0  0  0  0  0  0  0  0
  141.4020   77.5214  217.6501 H   0  0  0  0  0  0  0  0  0  0  0  0
  143.3600   78.3230  217.3540 H   0  0  0  0  0  0  0  0  0  0  0  0
  142.4661   76.9368  220.3689 H   0  0  0  0  0  0  0  0  0  0  0  0
  140.3290   78.3604  219.1869 H   0  0  0  0  0  0  0  0  0  0  0  0
  139.8240   77.2080  220.5226 H   0  0  0  0  0  0  0  0  0  0  0  0
  141.4673   80.3839  219.7993 H   0  0  0  0  0  0  0  0  0  0  0  0
  142.2418   81.9188  221.5476 H   0  0  0  0  0  0  0  0  0  0  0  0
  141.6733   78.8501  224.4660 H   0  0  0  0  0  0  0  0  0  0  0  0
  140.8986   77.3133  222.7173 H   0  0  0  0  0  0  0  0  0  0  0  0
  138.9773   69.4385  222.4801 H   0  0  0  0  0  0  0  0  0  0  0  0
  138.7350   68.1820  224.6056 H   0  0  0  0  0  0  0  0  0  0  0  0
  139.0905   67.9398  226.9152 H   0  0  0  0  0  0  0  0  0  0  0  0
  141.2263   71.0336  229.0079 H   0  0  0  0  0  0  0  0  0  0  0  0
  141.5009   72.3334  226.9152 H   0  0  0  0  0  0  0  0  0  0  0  0
  1  2  2  0
  2  3  1  0
  3  4  1  0
  4  5  1  0
  5  6  2  0
  5  7  1  0
  7  8  1  0
  8  9  1  0
  9 10  1  0
 10 11  1  0
 10 12  1  0
 12 13  1  0
 13 14  1  0
 14 15  2  0
 15 16  1  0
 16 17  2  0
 17 18  1  0
 17 19  1  0
 19 20  2  0
  2 21  1  0
 21 22  2  0
 22 23  1  0
 23 24  2  0
 24 25  1  0
 25 26  2  0
 26 27  1  0
 26 28  1  0
 28 29  2  0
 29 30  1  0
 30 31  2  0
 12  7  1  0
 20 14  1  0
 31 21  1  0
 30 24  1  0
  3 32  1  0
  4 33  1  0
  4 34  1  0
  8 35  1  0
  8 36  1  0
  9 37  1  0
  9 38  1  0
 10 39  1  6
 11 40  1  0
 12 41  1  1
 13 42  1  0
 13 43  1  0
 15 44  1  0
 16 45  1  0
 19 46  1  0
 20 47  1  0
 22 48  1  0
 23 49  1  0
 25 50  1  0
 28 51  1  0
 29 52  1  0
M  END
>  <smiles>  (38) 
O=C(NCC(=O)N1CC[C@H](O)[C@H]1Cc1ccc(Cl)cc1)c1ccc2cc(F)ccc2n1

>  <score_type>  (38) 
oracle

>  <origin>  (38) 
autodockgpu

>  <m_score__min__energy>  (38) 
-9.1999999999999993

>  <m_primary>  (38) 
energy

>  <rmsd>  (38) 
1.6956914237581033

>  <m_score__min__rmsd>  (38) 
1.6956914237581033

>  <meeko>  (38) 
{"free_energy": -8.57, "intermolecular_energy": -10.65, "internal_energy": -1.41, "cluster_size": 19, "cluster_id": 1, "rank_in_cluster": 8}

>  <energy>  (38) 
-7.91

>  <cluster_rmsd>  (38) 
1.61

>  <cluster>  (38) 
2

$$$$

     RDKit          3D

 52 55  0  0  0  0  0  0  0  0999 V2000
  136.7280   76.7520  221.9220 O   0  0  0  0  0  0  0  0  0  0  0  0
  136.7180   75.6870  222.5840 C   0  0  0  0  0  0  0  0  0  0  0  0
  137.7060   74.7070  222.2890 N   0  0  0  0  0  0  0  0  0  0  0  0
  138.6600   75.0080  221.2410 C   0  0  0  0  0  0  0  0  0  0  0  0
  139.9510   74.2800  221.4720 C   0  0  0  0  0  0  0  0  0  0  0  0
  139.9320   73.4430  222.4250 O   0  0  0  0  0  0  0  0  0  0  0  0
  141.1070   74.5150  220.6780 N   0  0  0  0  0  0  0  0  0  0  0  0
  141.6570   73.5240  219.7830 C   0  0  0  0  0  0  0  0  0  0  0  0
  143.1020   74.0320  219.6680 C   0  0  0  0  0  0  0  0  0  0  0  0
  142.9280   75.5580  219.6990 C   0  0  2  0  0  0  0  0  0  0  0  0
  144.1490   76.0880  220.0890 O   0  0  0  0  0  0  0  0  0  0  0  0
  141.8430   75.7460  220.6930 C   0  0  1  0  0  0  0  0  0  0  0  0
  141.0160   76.9820  220.4610 C   0  0  0  0  0  0  0  0  0  0  0  0
  141.3320   78.1090  221.3610 C   0  0  0  0  0  0  0  0  0  0  0  0
  141.7790   79.3400  220.9330 C   0  0  0  0  0  0  0  0  0  0  0  0
  142.0670   80.3840  221.7940 C   0  0  0  0  0  0  0  0  0  0  0  0
  141.9150   80.2300  223.1520 C   0  0  0  0  0  0  0  0  0  0  0  0
  142.2880   81.5710  224.2100 Cl  0  0  0  0  0  0  0  0  0  0  0  0
  141.4700   79.0110  223.6120 C   0  0  0  0  0  0  0  0  0  0  0  0
  141.1840   77.9730  222.7470 C   0  0  0  0  0  0  0  0  0  0  0  0
  135.7300   75.4420  223.6280 C   0  0  0  0  0  0  0  0  0  0  0  0
  135.0620   76.5280  224.1790 C   0  0  0  0  0  0  0  0  0  0  0  0
  134.1240   76.3170  225.1680 C   0  0  0  0  0  0  0  0  0  0  0  0
  133.8530   75.0580  225.6010 C   0  0  0  0  0  0  0  0  0  0  0  0
  132.8980   74.8960  226.6020 C   0  0  0  0  0  0  0  0  0  0  0  0
  132.6370   73.6060  227.0310 C   0  0  0  0  0  0  0  0  0  0  0  0
  131.7100   73.3860  228.0090 F   0  0  0  0  0  0  0  0  0  0  0  0
  133.3060   72.5350  226.4770 C   0  0  0  0  0  0  0  0  0  0  0  0
  134.2510   72.6990  225.4850 C   0  0  0  0  0  0  0  0  0  0  0  0
  134.5210   73.9730  225.0510 C   0  0  0  0  0  0  0  0  0  0  0  0
  135.4350   74.2110  224.0830 N   0  0  0  0  0  0  0  0  0  0  0  0
  137.7210   73.8100  222.8250 H   0  0  0  0  0  0  0  0  0  0  0  0
  138.2405   74.7000  220.2719 H   0  0  0  0  0  0  0  0  0  0  0  0
  138.8592   76.0898  221.2451 H   0  0  0  0  0  0  0  0  0  0  0  0
  141.6137   72.5143  220.2173 H   0  0  0  0  0  0  0  0  0  0  0  0
  141.1262   73.4230  218.8248 H   0  0  0  0  0  0  0  0  0  0  0  0
  143.7127   73.6853  220.5146 H   0  0  0  0  0  0  0  0  0  0  0  0
  143.6211   73.6704  218.7681 H   0  0  0  0  0  0  0  0  0  0  0  0
  142.6614   76.0507  218.7523 H   0  0  0  0  0  0  0  0  0  0  0  0
  144.1240   77.0700  220.2080 H   0  0  0  0  0  0  0  0  0  0  0  0
  142.2421   75.9434  221.6989 H   0  0  0  0  0  0  0  0  0  0  0  0
  141.1780   77.3141  219.4249 H   0  0  0  0  0  0  0  0  0  0  0  0
  139.9720   76.7023  220.6653 H   0  0  0  0  0  0  0  0  0  0  0  0
  141.9136   79.5007  219.8532 H   0  0  0  0  0  0  0  0  0  0  0  0
  142.4201   81.3440  221.3894 H   0  0  0  0  0  0  0  0  0  0  0  0
  141.3392   78.8603  224.6937 H   0  0  0  0  0  0  0  0  0  0  0  0
  140.8311   77.0152  223.1570 H   0  0  0  0  0  0  0  0  0  0  0  0
  135.2793   77.5481  223.8295 H   0  0  0  0  0  0  0  0  0  0  0  0
  133.5922   77.1731  225.6088 H   0  0  0  0  0  0  0  0  0  0  0  0
  132.3717   75.7596  227.0348 H   0  0  0  0  0  0  0  0  0  0  0  0
  133.0797   71.5203  226.8364 H   0  0  0  0  0  0  0  0  0  0  0  0
  134.7737   71.8325  225.0538 H   0  0  0  0  0  0  0  0  0  0  0  0
  1  2  2  0
  2  3  1  0
  3  4  1  0
  4  5  1  0
  5  6  2  0
  5  7  1  0
  7  8  1  0
  8  9  1  0
  9 10  1  0
 10 11  1  0
 10 12  1  0
 12 13  1  0
 13 14  1  0
 14 15  2  0
 15 16  1  0
 16 17  2  0
 17 18  1  0
 17 19  1  0
 19 20  2  0
  2 21  1  0
 21 22  2  0
 22 23  1  0
 23 24  2  0
 24 25  1  0
 25 26  2  0
 26 27  1  0
 26 28  1  0
 28 29  2  0
 29 30  1  0
 30 31  2  0
 12  7  1  0
 20 14  1  0
 31 21  1  0
 30 24  1  0
  3 32  1  0
  4 33  1  0
  4 34  1  0
  8 35  1  0
  8 36  1  0
  9 37  1  0
  9 38  1  0
 10 39  1  6
 11 40  1  0
 12 41  1  1
 13 42  1  0
 13 43  1  0
 15 44  1  0
 16 45  1  0
 19 46  1  0
 20 47  1  0
 22 48  1  0
 23 49  1  0
 25 50  1  0
 28 51  1  0
 29 52  1  0
M  END
>  <smiles>  (39) 
O=C(NCC(=O)N1CC[C@H](O)[C@H]1Cc1ccc(Cl)cc1)c1ccc2cc(F)ccc2n1

>  <score_type>  (39) 
oracle

>  <origin>  (39) 
autodockgpu

>  <m_score__min__energy>  (39) 
-9.1999999999999993

>  <m_primary>  (39) 
energy

>  <rmsd>  (39) 
6.037888611903414

>  <m_score__min__rmsd>  (39) 
6.037888611903414

>  <meeko>  (39) 
{"free_energy": -8.07, "intermolecular_energy": -10.16, "internal_energy": -1.98, "cluster_size": 1, "cluster_id": 3, "rank_in_cluster": 1}

>  <energy>  (39) 
-7.9

>  <cluster_rmsd>  (39) 
1.25

>  <cluster>  (39) 
2

$$$$

     RDKit          3D

 52 55  0  0  0  0  0  0  0  0999 V2000
  141.0560   71.9970  220.9790 O   0  0  0  0  0  0  0  0  0  0  0  0
  140.5420   72.4620  222.0250 C   0  0  0  0  0  0  0  0  0  0  0  0
  140.2070   73.8430  222.0490 N   0  0  0  0  0  0  0  0  0  0  0  0
  140.4830   74.6220  220.8580 C   0  0  0  0  0  0  0  0  0  0  0  0
  140.9340   76.0060  221.2220 C   0  0  0  0  0  0  0  0  0  0  0  0
  140.8240   76.3020  222.4500 O   0  0  0  0  0  0  0  0  0  0  0  0
  141.4460   76.9150  220.2540 N   0  0  0  0  0  0  0  0  0  0  0  0
  140.9730   78.2750  220.1310 C   0  0  0  0  0  0  0  0  0  0  0  0
  141.3770   78.5740  218.6790 C   0  0  0  0  0  0  0  0  0  0  0  0
  142.7070   77.8190  218.5370 C   0  0  2  0  0  0  0  0  0  0  0  0
  142.9030   77.6150  217.1790 O   0  0  0  0  0  0  0  0  0  0  0  0
  142.4650   76.5740  219.3060 C   0  0  1  0  0  0  0  0  0  0  0  0
  143.7120   75.9790  219.9030 C   0  0  0  0  0  0  0  0  0  0  0  0
  143.7850   74.5050  219.8270 C   0  0  0  0  0  0  0  0  0  0  0  0
  143.2320   73.7530  218.8140 C   0  0  0  0  0  0  0  0  0  0  0  0
  143.3150   72.3740  218.7620 C   0  0  0  0  0  0  0  0  0  0  0  0
  143.9700   71.6760  219.7490 C   0  0  0  0  0  0  0  0  0  0  0  0
  144.0540   69.9330  219.6490 Cl  0  0  0  0  0  0  0  0  0  0  0  0
  144.5340   72.3990  220.7770 C   0  0  0  0  0  0  0  0  0  0  0  0
  144.4490   73.7760  220.8230 C   0  0  0  0  0  0  0  0  0  0  0  0
  140.2890   71.6240  223.1920 C   0  0  0  0  0  0  0  0  0  0  0  0
  139.6160   70.4220  223.0150 C   0  0  0  0  0  0  0  0  0  0  0  0
  139.3680   69.6170  224.1070 C   0  0  0  0  0  0  0  0  0  0  0  0
  139.7770   69.9940  225.3460 C   0  0  0  0  0  0  0  0  0  0  0  0
  139.5020   69.1470  226.4170 C   0  0  0  0  0  0  0  0  0  0  0  0
  139.9260   69.5480  227.6720 C   0  0  0  0  0  0  0  0  0  0  0  0
  139.6850   68.7590  228.7600 F   0  0  0  0  0  0  0  0  0  0  0  0
  140.5930   70.7440  227.8370 C   0  0  0  0  0  0  0  0  0  0  0  0
  140.8640   71.5810  226.7730 C   0  0  0  0  0  0  0  0  0  0  0  0
  140.4490   71.1960  225.5230 C   0  0  0  0  0  0  0  0  0  0  0  0
  140.6780   71.9640  224.4340 N   0  0  0  0  0  0  0  0  0  0  0  0
  139.7780   74.2570  222.9070 H   0  0  0  0  0  0  0  0  0  0  0  0
  141.2743   74.1255  220.2771 H   0  0  0  0  0  0  0  0  0  0  0  0
  139.5612   74.6957  220.2623 H   0  0  0  0  0  0  0  0  0  0  0  0
  139.8842   78.3419  220.2728 H   0  0  0  0  0  0  0  0  0  0  0  0
  141.3804   78.9740  220.8762 H   0  0  0  0  0  0  0  0  0  0  0  0
  140.6263   78.1918  217.9716 H   0  0  0  0  0  0  0  0  0  0  0  0
  141.4596   79.6490  218.4612 H   0  0  0  0  0  0  0  0  0  0  0  0
  143.6104   78.3226  218.9115 H   0  0  0  0  0  0  0  0  0  0  0  0
  143.5060   78.2840  216.7700 H   0  0  0  0  0  0  0  0  0  0  0  0
  142.1273   75.7531  218.6563 H   0  0  0  0  0  0  0  0  0  0  0  0
  144.5800   76.3939  219.3696 H   0  0  0  0  0  0  0  0  0  0  0  0
  143.7006   76.2368  220.9723 H   0  0  0  0  0  0  0  0  0  0  0  0
  142.6980   74.2755  218.0066 H   0  0  0  0  0  0  0  0  0  0  0  0
  142.8533   71.8308  217.9242 H   0  0  0  0  0  0  0  0  0  0  0  0
  145.0646   71.8665  221.5801 H   0  0  0  0  0  0  0  0  0  0  0  0
  144.9139   74.3144  221.6620 H   0  0  0  0  0  0  0  0  0  0  0  0
  139.2836   70.1147  222.0124 H   0  0  0  0  0  0  0  0  0  0  0  0
  138.8356   68.6637  223.9736 H   0  0  0  0  0  0  0  0  0  0  0  0
  138.9685   68.1962  226.2710 H   0  0  0  0  0  0  0  0  0  0  0  0
  140.9184   71.0394  228.8454 H   0  0  0  0  0  0  0  0  0  0  0  0
  141.3981   72.5308  226.9232 H   0  0  0  0  0  0  0  0  0  0  0  0
  1  2  2  0
  2  3  1  0
  3  4  1  0
  4  5  1  0
  5  6  2  0
  5  7  1  0
  7  8  1  0
  8  9  1  0
  9 10  1  0
 10 11  1  0
 10 12  1  0
 12 13  1  0
 13 14  1  0
 14 15  2  0
 15 16  1  0
 16 17  2  0
 17 18  1  0
 17 19  1  0
 19 20  2  0
  2 21  1  0
 21 22  2  0
 22 23  1  0
 23 24  2  0
 24 25  1  0
 25 26  2  0
 26 27  1  0
 26 28  1  0
 28 29  2  0
 29 30  1  0
 30 31  2  0
 12  7  1  0
 20 14  1  0
 31 21  1  0
 30 24  1  0
  3 32  1  0
  4 33  1  0
  4 34  1  0
  8 35  1  0
  8 36  1  0
  9 37  1  0
  9 38  1  0
 10 39  1  1
 11 40  1  0
 12 41  1  6
 13 42  1  0
 13 43  1  0
 15 44  1  0
 16 45  1  0
 19 46  1  0
 20 47  1  0
 22 48  1  0
 23 49  1  0
 25 50  1  0
 28 51  1  0
 29 52  1  0
M  END
>  <smiles>  (40) 
O=C(NCC(=O)N1CC[C@H](O)[C@H]1Cc1ccc(Cl)cc1)c1ccc2cc(F)ccc2n1

>  <score_type>  (40) 
oracle

>  <origin>  (40) 
autodockgpu

>  <m_score__min__energy>  (40) 
-9.1999999999999993

>  <m_primary>  (40) 
energy

>  <rmsd>  (40) 
2.4565883324147233

>  <m_score__min__rmsd>  (40) 
2.4565883324147233

>  <meeko>  (40) 
{"free_energy": -7.78, "intermolecular_energy": -9.87, "internal_energy": -2.44, "cluster_size": 23, "cluster_id": 2, "rank_in_cluster": 22}

>  <energy>  (40) 
-7.87

>  <cluster_rmsd>  (40) 
1.15

>  <cluster>  (40) 
2

$$$$

     RDKit          3D

 52 55  0  0  0  0  0  0  0  0999 V2000
  140.2680   71.8850  221.0780 O   0  0  0  0  0  0  0  0  0  0  0  0
  139.9560   72.3200  222.2120 C   0  0  0  0  0  0  0  0  0  0  0  0
  139.5730   73.6850  222.3240 N   0  0  0  0  0  0  0  0  0  0  0  0
  139.5690   74.4830  221.1140 C   0  0  0  0  0  0  0  0  0  0  0  0
  140.6850   75.4860  221.1360 C   0  0  0  0  0  0  0  0  0  0  0  0
  141.1460   75.7520  222.2870 O   0  0  0  0  0  0  0  0  0  0  0  0
  141.1830   76.0920  219.9490 N   0  0  0  0  0  0  0  0  0  0  0  0
  141.7720   77.4110  219.9310 C   0  0  0  0  0  0  0  0  0  0  0  0
  141.5810   77.7750  218.4510 C   0  0  0  0  0  0  0  0  0  0  0  0
  141.7940   76.4290  217.7420 C   0  0  2  0  0  0  0  0  0  0  0  0
  141.1800   76.5320  216.5030 O   0  0  0  0  0  0  0  0  0  0  0  0
  141.1420   75.4640  218.6600 C   0  0  1  0  0  0  0  0  0  0  0  0
  141.7360   74.0820  218.6090 C   0  0  0  0  0  0  0  0  0  0  0  0
  142.9270   73.8940  219.4630 C   0  0  0  0  0  0  0  0  0  0  0  0
  143.2510   72.7120  220.0910 C   0  0  0  0  0  0  0  0  0  0  0  0
  144.3730   72.5570  220.8830 C   0  0  0  0  0  0  0  0  0  0  0  0
  145.2360   73.6090  221.0840 C   0  0  0  0  0  0  0  0  0  0  0  0
  146.6450   73.3760  222.0930 Cl  0  0  0  0  0  0  0  0  0  0  0  0
  144.9400   74.8050  220.4700 C   0  0  0  0  0  0  0  0  0  0  0  0
  143.8180   74.9530  219.6790 C   0  0  0  0  0  0  0  0  0  0  0  0
  139.9800   71.4650  223.3940 C   0  0  0  0  0  0  0  0  0  0  0  0
  139.5000   70.1660  223.2850 C   0  0  0  0  0  0  0  0  0  0  0  0
  139.5140   69.3430  224.3910 C   0  0  0  0  0  0  0  0  0  0  0  0
  139.9930   69.7960  225.5790 C   0  0  0  0  0  0  0  0  0  0  0  0
  139.9860   68.9270  226.6670 C   0  0  0  0  0  0  0  0  0  0  0  0
  140.4770   69.4060  227.8690 C   0  0  0  0  0  0  0  0  0  0  0  0
  140.4960   68.6000  228.9710 F   0  0  0  0  0  0  0  0  0  0  0  0
  140.9500   70.6980  227.9660 C   0  0  0  0  0  0  0  0  0  0  0  0
  140.9560   71.5570  226.8860 C   0  0  0  0  0  0  0  0  0  0  0  0
  140.4720   71.0940  225.6880 C   0  0  0  0  0  0  0  0  0  0  0  0
  140.4450   71.8780  224.5860 N   0  0  0  0  0  0  0  0  0  0  0  0
  139.3080   74.0740  223.2570 H   0  0  0  0  0  0  0  0  0  0  0  0
  139.6956   73.8211  220.2446 H   0  0  0  0  0  0  0  0  0  0  0  0
  138.6116   75.0207  221.0483 H   0  0  0  0  0  0  0  0  0  0  0  0
  141.2353   78.1057  220.5938 H   0  0  0  0  0  0  0  0  0  0  0  0
  142.8120   77.4563  220.2864 H   0  0  0  0  0  0  0  0  0  0  0  0
  140.5693   78.1651  218.2658 H   0  0  0  0  0  0  0  0  0  0  0  0
  142.2642   78.5641  218.1039 H   0  0  0  0  0  0  0  0  0  0  0  0
  142.8335   76.1239  217.5516 H   0  0  0  0  0  0  0  0  0  0  0  0
  140.2440   76.8490  216.5600 H   0  0  0  0  0  0  0  0  0  0  0  0
  140.1026   75.2588  218.3641 H   0  0  0  0  0  0  0  0  0  0  0  0
  140.9661   73.3653  218.9308 H   0  0  0  0  0  0  0  0  0  0  0  0
  142.0667   73.9222  217.5721 H   0  0  0  0  0  0  0  0  0  0  0  0
  142.5836   71.8482  219.9555 H   0  0  0  0  0  0  0  0  0  0  0  0
  144.5773   71.5852  221.3561 H   0  0  0  0  0  0  0  0  0  0  0  0
  145.6133   75.6631  220.6129 H   0  0  0  0  0  0  0  0  0  0  0  0
  143.6190   75.9264  219.2069 H   0  0  0  0  0  0  0  0  0  0  0  0
  139.1119   69.7970  222.3241 H   0  0  0  0  0  0  0  0  0  0  0  0
  139.1351   68.3134  224.3111 H   0  0  0  0  0  0  0  0  0  0  0  0
  139.6048   67.8993  226.5747 H   0  0  0  0  0  0  0  0  0  0  0  0
  141.3340   71.0544  228.9333 H   0  0  0  0  0  0  0  0  0  0  0  0
  141.3380   72.5840  226.9825 H   0  0  0  0  0  0  0  0  0  0  0  0
  1  2  2  0
  2  3  1  0
  3  4  1  0
  4  5  1  0
  5  6  2  0
  5  7  1  0
  7  8  1  0
  8  9  1  0
  9 10  1  0
 10 11  1  0
 10 12  1  0
 12 13  1  0
 13 14  1  0
 14 15  2  0
 15 16  1  0
 16 17  2  0
 17 18  1  0
 17 19  1  0
 19 20  2  0
  2 21  1  0
 21 22  2  0
 22 23  1  0
 23 24  2  0
 24 25  1  0
 25 26  2  0
 26 27  1  0
 26 28  1  0
 28 29  2  0
 29 30  1  0
 30 31  2  0
 12  7  1  0
 20 14  1  0
 31 21  1  0
 30 24  1  0
  3 32  1  0
  4 33  1  0
  4 34  1  0
  8 35  1  0
  8 36  1  0
  9 37  1  0
  9 38  1  0
 10 39  1  6
 11 40  1  0
 12 41  1  6
 13 42  1  0
 13 43  1  0
 15 44  1  0
 16 45  1  0
 19 46  1  0
 20 47  1  0
 22 48  1  0
 23 49  1  0
 25 50  1  0
 28 51  1  0
 29 52  1  0
M  END
>  <smiles>  (41) 
O=C(NCC(=O)N1CC[C@H](O)[C@H]1Cc1ccc(Cl)cc1)c1ccc2cc(F)ccc2n1

>  <score_type>  (41) 
oracle

>  <origin>  (41) 
autodockgpu

>  <m_score__min__energy>  (41) 
-9.1999999999999993

>  <m_primary>  (41) 
energy

>  <rmsd>  (41) 
2.08759232067005

>  <m_score__min__rmsd>  (41) 
2.08759232067005

>  <meeko>  (41) 
{"free_energy": -7.91, "intermolecular_energy": -10.0, "internal_energy": -2.0, "cluster_size": 23, "cluster_id": 2, "rank_in_cluster": 19}

>  <energy>  (41) 
-7.78

>  <cluster_rmsd>  (41) 
1.13

>  <cluster>  (41) 
2

$$$$

     RDKit          3D

 52 55  0  0  0  0  0  0  0  0999 V2000
  140.5460   71.4770  221.2070 O   0  0  0  0  0  0  0  0  0  0  0  0
  140.1910   71.9720  222.3040 C   0  0  0  0  0  0  0  0  0  0  0  0
  139.8570   73.3540  222.3380 N   0  0  0  0  0  0  0  0  0  0  0  0
  139.9480   74.0980  221.0980 C   0  0  0  0  0  0  0  0  0  0  0  0
  140.5870   75.4360  221.3270 C   0  0  0  0  0  0  0  0  0  0  0  0
  140.2190   76.0340  222.3830 O   0  0  0  0  0  0  0  0  0  0  0  0
  141.5350   75.9890  220.4220 N   0  0  0  0  0  0  0  0  0  0  0  0
  141.4930   77.3660  219.9890 C   0  0  0  0  0  0  0  0  0  0  0  0
  142.2850   77.2640  218.6760 C   0  0  0  0  0  0  0  0  0  0  0  0
  143.3550   76.2130  219.0080 C   0  0  2  0  0  0  0  0  0  0  0  0
  143.7930   75.6980  217.7980 O   0  0  0  0  0  0  0  0  0  0  0  0
  142.6130   75.2390  219.8450 C   0  0  1  0  0  0  0  0  0  0  0  0
  143.4780   74.5080  220.8370 C   0  0  0  0  0  0  0  0  0  0  0  0
  144.0290   73.2290  220.3440 C   0  0  0  0  0  0  0  0  0  0  0  0
  143.2650   72.1310  220.0170 C   0  0  0  0  0  0  0  0  0  0  0  0
  143.8020   70.9440  219.5550 C   0  0  0  0  0  0  0  0  0  0  0  0
  145.1610   70.8070  219.3990 C   0  0  0  0  0  0  0  0  0  0  0  0
  145.8040   69.2900  218.8120 Cl  0  0  0  0  0  0  0  0  0  0  0  0
  145.9540   71.8860  219.7180 C   0  0  0  0  0  0  0  0  0  0  0  0
  145.4110   73.0700  220.1780 C   0  0  0  0  0  0  0  0  0  0  0  0
  140.1180   71.1690  223.5200 C   0  0  0  0  0  0  0  0  0  0  0  0
  139.5290   69.9130  223.4530 C   0  0  0  0  0  0  0  0  0  0  0  0
  139.4520   69.1390  224.5910 C   0  0  0  0  0  0  0  0  0  0  0  0
  139.9460   69.5990  225.7700 C   0  0  0  0  0  0  0  0  0  0  0  0
  139.8430   68.7810  226.8920 C   0  0  0  0  0  0  0  0  0  0  0  0
  140.3520   69.2670  228.0850 C   0  0  0  0  0  0  0  0  0  0  0  0
  140.2800   68.5080  229.2180 F   0  0  0  0  0  0  0  0  0  0  0  0
  140.9340   70.5160  228.1400 C   0  0  0  0  0  0  0  0  0  0  0  0
  141.0350   71.3240  227.0260 C   0  0  0  0  0  0  0  0  0  0  0  0
  140.5340   70.8550  225.8370 C   0  0  0  0  0  0  0  0  0  0  0  0
  140.5960   71.5900  224.7040 N   0  0  0  0  0  0  0  0  0  0  0  0
  139.5580   73.7920  223.2380 H   0  0  0  0  0  0  0  0  0  0  0  0
  140.5533   73.5274  220.3783 H   0  0  0  0  0  0  0  0  0  0  0  0
  138.9328   74.2541  220.7044 H   0  0  0  0  0  0  0  0  0  0  0  0
  140.4616   77.7074  219.8169 H   0  0  0  0  0  0  0  0  0  0  0  0
  141.8940   78.0895  220.7141 H   0  0  0  0  0  0  0  0  0  0  0  0
  141.6415   76.9276  217.8497 H   0  0  0  0  0  0  0  0  0  0  0  0
  142.7051   78.2248  218.3438 H   0  0  0  0  0  0  0  0  0  0  0  0
  144.2509   76.5630  219.5417 H   0  0  0  0  0  0  0  0  0  0  0  0
  144.7800   75.6610  217.7270 H   0  0  0  0  0  0  0  0  0  0  0  0
  142.2234   74.4025  219.2462 H   0  0  0  0  0  0  0  0  0  0  0  0
  144.3193   75.1630  221.1075 H   0  0  0  0  0  0  0  0  0  0  0  0
  142.8325   74.2613  221.6928 H   0  0  0  0  0  0  0  0  0  0  0  0
  142.1730   72.2020  220.1290 H   0  0  0  0  0  0  0  0  0  0  0  0
  143.1369   70.1027  219.3103 H   0  0  0  0  0  0  0  0  0  0  0  0
  147.0450   71.8036  219.6040 H   0  0  0  0  0  0  0  0  0  0  0  0
  146.0803   73.9088  220.4199 H   0  0  0  0  0  0  0  0  0  0  0  0
  139.1273   69.5390  222.4997 H   0  0  0  0  0  0  0  0  0  0  0  0
  138.9877   68.1429  224.5442 H   0  0  0  0  0  0  0  0  0  0  0  0
  139.3754   67.7871  226.8332 H   0  0  0  0  0  0  0  0  0  0  0  0
  141.3294   70.8789  229.1002 H   0  0  0  0  0  0  0  0  0  0  0  0
  141.5042   72.3169  227.0889 H   0  0  0  0  0  0  0  0  0  0  0  0
  1  2  2  0
  2  3  1  0
  3  4  1  0
  4  5  1  0
  5  6  2  0
  5  7  1  0
  7  8  1  0
  8  9  1  0
  9 10  1  0
 10 11  1  0
 10 12  1  0
 12 13  1  0
 13 14  1  0
 14 15  2  0
 15 16  1  0
 16 17  2  0
 17 18  1  0
 17 19  1  0
 19 20  2  0
  2 21  1  0
 21 22  2  0
 22 23  1  0
 23 24  2  0
 24 25  1  0
 25 26  2  0
 26 27  1  0
 26 28  1  0
 28 29  2  0
 29 30  1  0
 30 31  2  0
 12  7  1  0
 20 14  1  0
 31 21  1  0
 30 24  1  0
  3 32  1  0
  4 33  1  0
  4 34  1  0
  8 35  1  0
  8 36  1  0
  9 37  1  0
  9 38  1  0
 10 39  1  1
 11 40  1  0
 12 41  1  6
 13 42  1  0
 13 43  1  0
 15 44  1  0
 16 45  1  0
 19 46  1  0
 20 47  1  0
 22 48  1  0
 23 49  1  0
 25 50  1  0
 28 51  1  0
 29 52  1  0
M  END
>  <smiles>  (42) 
O=C(NCC(=O)N1CC[C@H](O)[C@H]1Cc1ccc(Cl)cc1)c1ccc2cc(F)ccc2n1

>  <score_type>  (42) 
oracle

>  <origin>  (42) 
autodockgpu

>  <m_score__min__energy>  (42) 
-9.1999999999999993

>  <m_primary>  (42) 
energy

>  <rmsd>  (42) 
2.375234497360887

>  <m_score__min__rmsd>  (42) 
2.375234497360887

>  <meeko>  (42) 
{"free_energy": -8.71, "intermolecular_energy": -10.79, "internal_energy": -1.98, "cluster_size": 23, "cluster_id": 2, "rank_in_cluster": 2}

>  <energy>  (42) 
-7.76

>  <cluster_rmsd>  (42) 
1.06

>  <cluster>  (42) 
2

$$$$

     RDKit          3D

 52 55  0  0  0  0  0  0  0  0999 V2000
  138.3180   70.7530  221.8650 O   0  0  0  0  0  0  0  0  0  0  0  0
  138.9560   71.2210  222.8380 C   0  0  0  0  0  0  0  0  0  0  0  0
  139.3510   72.5860  222.7850 N   0  0  0  0  0  0  0  0  0  0  0  0
  138.9880   73.3450  221.6050 C   0  0  0  0  0  0  0  0  0  0  0  0
  139.7810   74.6160  221.5270 C   0  0  0  0  0  0  0  0  0  0  0  0
  139.3340   75.5730  222.2280 O   0  0  0  0  0  0  0  0  0  0  0  0
  140.9480   74.7330  220.7210 N   0  0  0  0  0  0  0  0  0  0  0  0
  141.4070   73.6750  219.8510 C   0  0  0  0  0  0  0  0  0  0  0  0
  142.8890   74.0570  219.7160 C   0  0  0  0  0  0  0  0  0  0  0  0
  142.8430   75.5930  219.7070 C   0  0  2  0  0  0  0  0  0  0  0  0
  144.1060   76.0290  220.0760 O   0  0  0  0  0  0  0  0  0  0  0  0
  141.7840   75.8970  220.7000 C   0  0  1  0  0  0  0  0  0  0  0  0
  141.0620   77.1920  220.4380 C   0  0  0  0  0  0  0  0  0  0  0  0
  141.4010   78.2840  221.3730 C   0  0  0  0  0  0  0  0  0  0  0  0
  141.7820   79.5480  220.9810 C   0  0  0  0  0  0  0  0  0  0  0  0
  142.0930   80.5570  221.8740 C   0  0  0  0  0  0  0  0  0  0  0  0
  142.0350   80.3320  223.2290 C   0  0  0  0  0  0  0  0  0  0  0  0
  142.4350   81.6320  224.3280 Cl  0  0  0  0  0  0  0  0  0  0  0  0
  141.6580   79.0780  223.6540 C   0  0  0  0  0  0  0  0  0  0  0  0
  141.3470   78.0750  222.7570 C   0  0  0  0  0  0  0  0  0  0  0  0
  139.2920   70.4040  223.9990 C   0  0  0  0  0  0  0  0  0  0  0  0
  138.9730   69.0530  223.9760 C   0  0  0  0  0  0  0  0  0  0  0  0
  139.2830   68.2640  225.0640 C   0  0  0  0  0  0  0  0  0  0  0  0
  139.8950   68.8010  226.1510 C   0  0  0  0  0  0  0  0  0  0  0  0
  140.1870   67.9650  227.2250 C   0  0  0  0  0  0  0  0  0  0  0  0
  140.8100   68.5310  228.3240 C   0  0  0  0  0  0  0  0  0  0  0  0
  141.1210   67.7590  229.4060 F   0  0  0  0  0  0  0  0  0  0  0  0
  141.1220   69.8740  228.3360 C   0  0  0  0  0  0  0  0  0  0  0  0
  140.8310   70.7010  227.2700 C   0  0  0  0  0  0  0  0  0  0  0  0
  140.2130   70.1530  226.1740 C   0  0  0  0  0  0  0  0  0  0  0  0
  139.8970   70.9000  225.0930 N   0  0  0  0  0  0  0  0  0  0  0  0
  139.8840   73.0020  223.5820 H   0  0  0  0  0  0  0  0  0  0  0  0
  139.1891   72.7385  220.7096 H   0  0  0  0  0  0  0  0  0  0  0  0
  137.9191   73.5982  221.6625 H   0  0  0  0  0  0  0  0  0  0  0  0
  141.2821   72.6846  220.3131 H   0  0  0  0  0  0  0  0  0  0  0  0
  140.8633   73.5928  218.8983 H   0  0  0  0  0  0  0  0  0  0  0  0
  143.4743   73.6828  220.5689 H   0  0  0  0  0  0  0  0  0  0  0  0
  143.3702   73.6297  218.8239 H   0  0  0  0  0  0  0  0  0  0  0  0
  142.6119   76.0815  218.7489 H   0  0  0  0  0  0  0  0  0  0  0  0
  144.1280   76.9880  220.3210 H   0  0  0  0  0  0  0  0  0  0  0  0
  142.2043   76.0862  221.6988 H   0  0  0  0  0  0  0  0  0  0  0  0
  141.3101   77.5233  219.4188 H   0  0  0  0  0  0  0  0  0  0  0  0
  139.9903   76.9852  220.5750 H   0  0  0  0  0  0  0  0  0  0  0  0
  141.8419   79.7657  219.9044 H   0  0  0  0  0  0  0  0  0  0  0  0
  142.3891   81.5472  221.4973 H   0  0  0  0  0  0  0  0  0  0  0  0
  141.6032   78.8701  224.7328 H   0  0  0  0  0  0  0  0  0  0  0  0
  141.0494   77.0873  223.1390 H   0  0  0  0  0  0  0  0  0  0  0  0
  138.4770   68.6153  223.0971 H   0  0  0  0  0  0  0  0  0  0  0  0
  139.0329   67.1929  225.0512 H   0  0  0  0  0  0  0  0  0  0  0  0
  139.9323   66.8951  227.2013 H   0  0  0  0  0  0  0  0  0  0  0  0
  141.6175   70.2989  229.2214 H   0  0  0  0  0  0  0  0  0  0  0  0
  141.0874   71.7703  227.2981 H   0  0  0  0  0  0  0  0  0  0  0  0
  1  2  2  0
  2  3  1  0
  3  4  1  0
  4  5  1  0
  5  6  2  0
  5  7  1  0
  7  8  1  0
  8  9  1  0
  9 10  1  0
 10 11  1  0
 10 12  1  0
 12 13  1  0
 13 14  1  0
 14 15  2  0
 15 16  1  0
 16 17  2  0
 17 18  1  0
 17 19  1  0
 19 20  2  0
  2 21  1  0
 21 22  2  0
 22 23  1  0
 23 24  2  0
 24 25  1  0
 25 26  2  0
 26 27  1  0
 26 28  1  0
 28 29  2  0
 29 30  1  0
 30 31  2  0
 12  7  1  0
 20 14  1  0
 31 21  1  0
 30 24  1  0
  3 32  1  0
  4 33  1  0
  4 34  1  0
  8 35  1  0
  8 36  1  0
  9 37  1  0
  9 38  1  0
 10 39  1  6
 11 40  1  0
 12 41  1  1
 13 42  1  0
 13 43  1  0
 15 44  1  0
 16 45  1  0
 19 46  1  0
 20 47  1  0
 22 48  1  0
 23 49  1  0
 25 50  1  0
 28 51  1  0
 29 52  1  0
M  END
>  <smiles>  (43) 
O=C(NCC(=O)N1CC[C@H](O)[C@H]1Cc1ccc(Cl)cc1)c1ccc2cc(F)ccc2n1

>  <score_type>  (43) 
oracle

>  <origin>  (43) 
autodockgpu

>  <m_score__min__energy>  (43) 
-9.1999999999999993

>  <m_primary>  (43) 
energy

>  <rmsd>  (43) 
2.173060850188167

>  <m_score__min__rmsd>  (43) 
2.173060850188167

>  <meeko>  (43) 
{"free_energy": -9.2, "intermolecular_energy": -11.29, "internal_energy": -1.49, "cluster_size": 19, "cluster_id": 1, "rank_in_cluster": 2}

>  <energy>  (43) 
-8.07

>  <cluster_rmsd>  (43) 
0.0

>  <cluster>  (43) 
3

$$$$

     RDKit          3D

 52 55  0  0  0  0  0  0  0  0999 V2000
  140.2880   71.4860  221.1150 O   0  0  0  0  0  0  0  0  0  0  0  0
  139.9270   71.9600  222.2190 C   0  0  0  0  0  0  0  0  0  0  0  0
  139.5190   73.3220  222.2610 N   0  0  0  0  0  0  0  0  0  0  0  0
  139.5480   74.0710  221.0200 C   0  0  0  0  0  0  0  0  0  0  0  0
  140.8320   74.8350  220.8910 C   0  0  0  0  0  0  0  0  0  0  0  0
  141.3260   75.2450  221.9840 O   0  0  0  0  0  0  0  0  0  0  0  0
  141.4460   75.0790  219.6300 N   0  0  0  0  0  0  0  0  0  0  0  0
  141.5960   74.0550  218.6220 C   0  0  0  0  0  0  0  0  0  0  0  0
  142.7590   74.6430  217.8080 C   0  0  0  0  0  0  0  0  0  0  0  0
  142.4760   76.1520  217.8580 C   0  0  2  0  0  0  0  0  0  0  0  0
  143.6800   76.7890  217.5920 O   0  0  0  0  0  0  0  0  0  0  0  0
  141.9810   76.3500  219.2410 C   0  0  1  0  0  0  0  0  0  0  0  0
  141.0300   77.5090  219.3840 C   0  0  0  0  0  0  0  0  0  0  0  0
  141.3360   78.4190  220.5060 C   0  0  0  0  0  0  0  0  0  0  0  0
  141.2070   78.0800  221.8350 C   0  0  0  0  0  0  0  0  0  0  0  0
  141.5020   78.9470  222.8710 C   0  0  0  0  0  0  0  0  0  0  0  0
  141.9480   80.2210  222.6080 C   0  0  0  0  0  0  0  0  0  0  0  0
  142.3120   81.2910  223.9430 Cl  0  0  0  0  0  0  0  0  0  0  0  0
  142.0870   80.5920  221.2890 C   0  0  0  0  0  0  0  0  0  0  0  0
  141.7920   79.7200  220.2590 C   0  0  0  0  0  0  0  0  0  0  0  0
  139.9200   71.1540  223.4350 C   0  0  0  0  0  0  0  0  0  0  0  0
  139.3870   69.8730  223.3790 C   0  0  0  0  0  0  0  0  0  0  0  0
  139.3720   69.0950  224.5180 C   0  0  0  0  0  0  0  0  0  0  0  0
  139.8730   69.5760  225.6860 C   0  0  0  0  0  0  0  0  0  0  0  0
  139.8350   68.7530  226.8090 C   0  0  0  0  0  0  0  0  0  0  0  0
  140.3500   69.2610  227.9890 C   0  0  0  0  0  0  0  0  0  0  0  0
  140.3390   68.4990  229.1230 F   0  0  0  0  0  0  0  0  0  0  0  0
  140.8760   70.5350  228.0320 C   0  0  0  0  0  0  0  0  0  0  0  0
  140.9130   71.3470  226.9180 C   0  0  0  0  0  0  0  0  0  0  0  0
  140.4050   70.8570  225.7400 C   0  0  0  0  0  0  0  0  0  0  0  0
  140.4070   71.5950  224.6080 N   0  0  0  0  0  0  0  0  0  0  0  0
  139.2140   73.7430  223.1670 H   0  0  0  0  0  0  0  0  0  0  0  0
  139.4569   73.3729  220.1748 H   0  0  0  0  0  0  0  0  0  0  0  0
  138.7107   74.7844  221.0182 H   0  0  0  0  0  0  0  0  0  0  0  0
  141.8590   73.0830  219.0647 H   0  0  0  0  0  0  0  0  0  0  0  0
  140.6866   73.8432  218.0406 H   0  0  0  0  0  0  0  0  0  0  0  0
  143.7278   74.4054  218.2716 H   0  0  0  0  0  0  0  0  0  0  0  0
  142.8218   74.2440  216.7849 H   0  0  0  0  0  0  0  0  0  0  0  0
  141.7459   76.5484  217.1370 H   0  0  0  0  0  0  0  0  0  0  0  0
  144.4680   76.2380  217.8250 H   0  0  0  0  0  0  0  0  0  0  0  0
  142.7890   76.6524  219.9234 H   0  0  0  0  0  0  0  0  0  0  0  0
  141.0569   78.0923  218.4518 H   0  0  0  0  0  0  0  0  0  0  0  0
  140.0403   77.0769  219.5934 H   0  0  0  0  0  0  0  0  0  0  0  0
  140.8516   77.0693  222.0845 H   0  0  0  0  0  0  0  0  0  0  0  0
  141.3791   78.6154  223.9126 H   0  0  0  0  0  0  0  0  0  0  0  0
  142.4410   81.6058  221.0502 H   0  0  0  0  0  0  0  0  0  0  0  0
  141.9184   80.0557  219.2191 H   0  0  0  0  0  0  0  0  0  0  0  0
  138.9803   69.4821  222.4347 H   0  0  0  0  0  0  0  0  0  0  0  0
  138.9519   68.0791  224.4806 H   0  0  0  0  0  0  0  0  0  0  0  0
  139.4121   67.7387  226.7600 H   0  0  0  0  0  0  0  0  0  0  0  0
  141.2779   70.9147  228.9829 H   0  0  0  0  0  0  0  0  0  0  0  0
  141.3381   72.3601  226.9716 H   0  0  0  0  0  0  0  0  0  0  0  0
  1  2  2  0
  2  3  1  0
  3  4  1  0
  4  5  1  0
  5  6  2  0
  5  7  1  0
  7  8  1  0
  8  9  1  0
  9 10  1  0
 10 11  1  0
 10 12  1  0
 12 13  1  0
 13 14  1  0
 14 15  2  0
 15 16  1  0
 16 17  2  0
 17 18  1  0
 17 19  1  0
 19 20  2  0
  2 21  1  0
 21 22  2  0
 22 23  1  0
 23 24  2  0
 24 25  1  0
 25 26  2  0
 26 27  1  0
 26 28  1  0
 28 29  2  0
 29 30  1  0
 30 31  2  0
 12  7  1  0
 20 14  1  0
 31 21  1  0
 30 24  1  0
  3 32  1  0
  4 33  1  0
  4 34  1  0
  8 35  1  0
  8 36  1  0
  9 37  1  0
  9 38  1  0
 10 39  1  6
 11 40  1  0
 12 41  1  1
 13 42  1  0
 13 43  1  0
 15 44  1  0
 16 45  1  0
 19 46  1  0
 20 47  1  0
 22 48  1  0
 23 49  1  0
 25 50  1  0
 28 51  1  0
 29 52  1  0
M  END
>  <smiles>  (44) 
O=C(NCC(=O)N1CC[C@H](O)[C@H]1Cc1ccc(Cl)cc1)c1ccc2cc(F)ccc2n1

>  <score_type>  (44) 
oracle

>  <origin>  (44) 
autodockgpu

>  <m_score__min__energy>  (44) 
-9.1999999999999993

>  <m_primary>  (44) 
energy

>  <rmsd>  (44) 
1.6628635570946149

>  <m_score__min__rmsd>  (44) 
1.6628635570946149

>  <meeko>  (44) 
{"free_energy": -8.75, "intermolecular_energy": -10.84, "internal_energy": -1.48, "cluster_size": 19, "cluster_id": 1, "rank_in_cluster": 4}

>  <energy>  (44) 
-8.04

>  <cluster_rmsd>  (44) 
0.0

>  <cluster>  (44) 
4

$$$$

     RDKit          3D

 52 55  0  0  0  0  0  0  0  0999 V2000
  141.2960   71.8410  221.1690 O   0  0  0  0  0  0  0  0  0  0  0  0
  140.6880   72.3320  222.1500 C   0  0  0  0  0  0  0  0  0  0  0  0
  140.2960   73.6970  222.0790 N   0  0  0  0  0  0  0  0  0  0  0  0
  140.6270   74.4300  220.8730 C   0  0  0  0  0  0  0  0  0  0  0  0
  140.8240   75.8860  221.1740 C   0  0  0  0  0  0  0  0  0  0  0  0
  140.5180   76.2380  222.3530 O   0  0  0  0  0  0  0  0  0  0  0  0
  141.3190   76.8010  220.2030 N   0  0  0  0  0  0  0  0  0  0  0  0
  140.7260   78.0980  219.9770 C   0  0  0  0  0  0  0  0  0  0  0  0
  141.2120   78.3740  218.5460 C   0  0  0  0  0  0  0  0  0  0  0  0
  142.6170   77.7540  218.5400 C   0  0  2  0  0  0  0  0  0  0  0  0
  142.9380   77.5130  217.2130 O   0  0  0  0  0  0  0  0  0  0  0  0
  142.4390   76.5250  219.3510 C   0  0  1  0  0  0  0  0  0  0  0  0
  143.6870   76.0860  220.0680 C   0  0  0  0  0  0  0  0  0  0  0  0
  144.0910   74.6900  219.7980 C   0  0  0  0  0  0  0  0  0  0  0  0
  143.7030   73.9730  218.6880 C   0  0  0  0  0  0  0  0  0  0  0  0
  144.0950   72.6680  218.4540 C   0  0  0  0  0  0  0  0  0  0  0  0
  144.9100   72.0130  219.3460 C   0  0  0  0  0  0  0  0  0  0  0  0
  145.3860   70.3630  219.0170 Cl  0  0  0  0  0  0  0  0  0  0  0  0
  145.3160   72.7030  220.4680 C   0  0  0  0  0  0  0  0  0  0  0  0
  144.9220   74.0070  220.6950 C   0  0  0  0  0  0  0  0  0  0  0  0
  140.3830   71.5410  223.3370 C   0  0  0  0  0  0  0  0  0  0  0  0
  139.6360   70.3800  223.1890 C   0  0  0  0  0  0  0  0  0  0  0  0
  139.3380   69.6190  224.3000 C   0  0  0  0  0  0  0  0  0  0  0  0
  139.7700   70.0000  225.5300 C   0  0  0  0  0  0  0  0  0  0  0  0
  139.4430   69.1990  226.6210 C   0  0  0  0  0  0  0  0  0  0  0  0
  139.8920   69.6030  227.8670 C   0  0  0  0  0  0  0  0  0  0  0  0
  139.6020   68.8570  228.9730 F   0  0  0  0  0  0  0  0  0  0  0  0
  140.6330   70.7580  228.0020 C   0  0  0  0  0  0  0  0  0  0  0  0
  140.9560   71.5490  226.9190 C   0  0  0  0  0  0  0  0  0  0  0  0
  140.5170   71.1610  225.6780 C   0  0  0  0  0  0  0  0  0  0  0  0
  140.7940   71.8860  224.5710 N   0  0  0  0  0  0  0  0  0  0  0  0
  139.7880   74.1320  222.8820 H   0  0  0  0  0  0  0  0  0  0  0  0
  141.5543   74.0212  220.4451 H   0  0  0  0  0  0  0  0  0  0  0  0
  139.7979   74.3261  220.1576 H   0  0  0  0  0  0  0  0  0  0  0  0
  139.6282   78.0595  220.0340 H   0  0  0  0  0  0  0  0  0  0  0  0
  141.0023   78.8663  220.7142 H   0  0  0  0  0  0  0  0  0  0  0  0
  140.5606   77.8872  217.8052 H   0  0  0  0  0  0  0  0  0  0  0  0
  141.2054   79.4417  218.2815 H   0  0  0  0  0  0  0  0  0  0  0  0
  143.4343   78.3631  218.9535 H   0  0  0  0  0  0  0  0  0  0  0  0
  143.5230   78.2100  216.8240 H   0  0  0  0  0  0  0  0  0  0  0  0
  142.2363   75.6469  218.7203 H   0  0  0  0  0  0  0  0  0  0  0  0
  144.5104   76.7474  219.7605 H   0  0  0  0  0  0  0  0  0  0  0  0
  143.4663   76.1449  221.1440 H   0  0  0  0  0  0  0  0  0  0  0  0
  143.0491   74.4627  217.9514 H   0  0  0  0  0  0  0  0  0  0  0  0
  143.7518   72.1497  217.5465 H   0  0  0  0  0  0  0  0  0  0  0  0
  145.9687   72.2037  221.1992 H   0  0  0  0  0  0  0  0  0  0  0  0
  145.2694   74.5220  221.6028 H   0  0  0  0  0  0  0  0  0  0  0  0
  139.2848   70.0697  222.1938 H   0  0  0  0  0  0  0  0  0  0  0  0
  138.7469   68.6980  224.1892 H   0  0  0  0  0  0  0  0  0  0  0  0
  138.8506   68.2804  226.4978 H   0  0  0  0  0  0  0  0  0  0  0  0
  140.9768   71.0575  229.0030 H   0  0  0  0  0  0  0  0  0  0  0  0
  141.5496   72.4663  227.0467 H   0  0  0  0  0  0  0  0  0  0  0  0
  1  2  2  0
  2  3  1  0
  3  4  1  0
  4  5  1  0
  5  6  2  0
  5  7  1  0
  7  8  1  0
  8  9  1  0
  9 10  1  0
 10 11  1  0
 10 12  1  0
 12 13  1  0
 13 14  1  0
 14 15  2  0
 15 16  1  0
 16 17  2  0
 17 18  1  0
 17 19  1  0
 19 20  2  0
  2 21  1  0
 21 22  2  0
 22 23  1  0
 23 24  2  0
 24 25  1  0
 25 26  2  0
 26 27  1  0
 26 28  1  0
 28 29  2  0
 29 30  1  0
 30 31  2  0
 12  7  1  0
 20 14  1  0
 31 21  1  0
 30 24  1  0
  3 32  1  0
  4 33  1  0
  4 34  1  0
  8 35  1  0
  8 36  1  0
  9 37  1  0
  9 38  1  0
 10 39  1  1
 11 40  1  0
 12 41  1  6
 13 42  1  0
 13 43  1  0
 15 44  1  0
 16 45  1  0
 19 46  1  0
 20 47  1  0
 22 48  1  0
 23 49  1  0
 25 50  1  0
 28 51  1  0
 29 52  1  0
M  END
>  <smiles>  (45) 
O=C(NCC(=O)N1CC[C@H](O)[C@H]1Cc1ccc(Cl)cc1)c1ccc2cc(F)ccc2n1

>  <score_type>  (45) 
oracle

>  <origin>  (45) 
autodockgpu

>  <m_score__min__energy>  (45) 
-9.1999999999999993

>  <m_primary>  (45) 
energy

>  <rmsd>  (45) 
2.3982962724038877

>  <m_score__min__rmsd>  (45) 
2.3982962724038877

>  <meeko>  (45) 
{"free_energy": -8.05, "intermolecular_energy": -10.14, "internal_energy": -2.19, "cluster_size": 23, "cluster_id": 2, "rank_in_cluster": 13}

>  <energy>  (45) 
-7.94

>  <cluster_rmsd>  (45) 
1.5

>  <cluster>  (45) 
4

$$$$

     RDKit          3D

 52 55  0  0  0  0  0  0  0  0999 V2000
  138.5980   71.0630  221.4510 O   0  0  0  0  0  0  0  0  0  0  0  0
  138.3510   71.5150  222.5950 C   0  0  0  0  0  0  0  0  0  0  0  0
  137.3670   72.5350  222.7130 N   0  0  0  0  0  0  0  0  0  0  0  0
  136.7140   72.9830  221.5000 C   0  0  0  0  0  0  0  0  0  0  0  0
  137.5710   73.9760  220.7710 C   0  0  0  0  0  0  0  0  0  0  0  0
  137.5730   73.8600  219.5080 O   0  0  0  0  0  0  0  0  0  0  0  0
  138.3240   74.9720  221.4530 N   0  0  0  0  0  0  0  0  0  0  0  0
  137.7080   76.0390  222.2070 C   0  0  0  0  0  0  0  0  0  0  0  0
  138.8480   77.0690  222.2050 C   0  0  0  0  0  0  0  0  0  0  0  0
  140.1010   76.1860  222.3060 C   0  0  2  0  0  0  0  0  0  0  0  0
  141.1590   76.9440  221.8290 O   0  0  0  0  0  0  0  0  0  0  0  0
  139.7570   75.0240  221.4510 C   0  0  1  0  0  0  0  0  0  0  0  0
  140.4370   73.7460  221.8610 C   0  0  0  0  0  0  0  0  0  0  0  0
  141.7810   73.5520  221.2780 C   0  0  0  0  0  0  0  0  0  0  0  0
  142.4270   72.3370  221.2090 C   0  0  0  0  0  0  0  0  0  0  0  0
  143.6840   72.1770  220.6550 C   0  0  0  0  0  0  0  0  0  0  0  0
  144.3600   73.2570  220.1380 C   0  0  0  0  0  0  0  0  0  0  0  0
  145.9490   73.0170  219.4460 Cl  0  0  0  0  0  0  0  0  0  0  0  0
  143.7420   74.4860  220.1920 C   0  0  0  0  0  0  0  0  0  0  0  0
  142.4860   74.6380  220.7450 C   0  0  0  0  0  0  0  0  0  0  0  0
  139.0440   71.0220  223.7800 C   0  0  0  0  0  0  0  0  0  0  0  0
  140.0630   71.7930  224.3230 C   0  0  0  0  0  0  0  0  0  0  0  0
  140.7300   71.3430  225.4430 C   0  0  0  0  0  0  0  0  0  0  0  0
  140.3950   70.1570  226.0130 C   0  0  0  0  0  0  0  0  0  0  0  0
  141.0970   69.7450  227.1430 C   0  0  0  0  0  0  0  0  0  0  0  0
  140.7410   68.5330  227.7090 C   0  0  0  0  0  0  0  0  0  0  0  0
  141.3950   68.0780  228.8190 F   0  0  0  0  0  0  0  0  0  0  0  0
  139.7270   67.7750  227.1610 C   0  0  0  0  0  0  0  0  0  0  0  0
  139.0330   68.1860  226.0410 C   0  0  0  0  0  0  0  0  0  0  0  0
  139.3760   69.3860  225.4690 C   0  0  0  0  0  0  0  0  0  0  0  0
  138.7400   69.8530  224.3710 N   0  0  0  0  0  0  0  0  0  0  0  0
  137.1420   72.9300  223.6540 H   0  0  0  0  0  0  0  0  0  0  0  0
  136.5309   72.1166  220.8475 H   0  0  0  0  0  0  0  0  0  0  0  0
  135.7633   73.4667  221.7685 H   0  0  0  0  0  0  0  0  0  0  0  0
  136.8089   76.4258  221.7050 H   0  0  0  0  0  0  0  0  0  0  0  0
  137.3499   75.7500  223.2061 H   0  0  0  0  0  0  0  0  0  0  0  0
  138.8505   77.6562  221.2748 H   0  0  0  0  0  0  0  0  0  0  0  0
  138.7691   77.8091  223.0150 H   0  0  0  0  0  0  0  0  0  0  0  0
  140.3904   75.8418  223.3099 H   0  0  0  0  0  0  0  0  0  0  0  0
  142.0380   76.6340  222.1620 H   0  0  0  0  0  0  0  0  0  0  0  0
  140.1372   75.1471  220.4262 H   0  0  0  0  0  0  0  0  0  0  0  0
  140.5345   73.7450  222.9567 H   0  0  0  0  0  0  0  0  0  0  0  0
  139.8110   72.9239  221.4838 H   0  0  0  0  0  0  0  0  0  0  0  0
  141.9177   71.4504  221.6146 H   0  0  0  0  0  0  0  0  0  0  0  0
  144.1461   71.1791  220.6278 H   0  0  0  0  0  0  0  0  0  0  0  0
  144.2606   75.3668  219.7854 H   0  0  0  0  0  0  0  0  0  0  0  0
  142.0276   75.6377  220.7674 H   0  0  0  0  0  0  0  0  0  0  0  0
  140.3360   72.7546  223.8638 H   0  0  0  0  0  0  0  0  0  0  0  0
  141.5388   71.9489  225.8775 H   0  0  0  0  0  0  0  0  0  0  0  0
  141.9037   70.3593  227.5695 H   0  0  0  0  0  0  0  0  0  0  0  0
  139.4640   66.8154  227.6301 H   0  0  0  0  0  0  0  0  0  0  0  0
  138.2268   67.5687  225.6181 H   0  0  0  0  0  0  0  0  0  0  0  0
  1  2  2  0
  2  3  1  0
  3  4  1  0
  4  5  1  0
  5  6  2  0
  5  7  1  0
  7  8  1  0
  8  9  1  0
  9 10  1  0
 10 11  1  0
 10 12  1  0
 12 13  1  0
 13 14  1  0
 14 15  2  0
 15 16  1  0
 16 17  2  0
 17 18  1  0
 17 19  1  0
 19 20  2  0
  2 21  1  0
 21 22  2  0
 22 23  1  0
 23 24  2  0
 24 25  1  0
 25 26  2  0
 26 27  1  0
 26 28  1  0
 28 29  2  0
 29 30  1  0
 30 31  2  0
 12  7  1  0
 20 14  1  0
 31 21  1  0
 30 24  1  0
  3 32  1  0
  4 33  1  0
  4 34  1  0
  8 35  1  0
  8 36  1  0
  9 37  1  0
  9 38  1  0
 10 39  1  1
 11 40  1  0
 12 41  1  6
 13 42  1  0
 13 43  1  0
 15 44  1  0
 16 45  1  0
 19 46  1  0
 20 47  1  0
 22 48  1  0
 23 49  1  0
 25 50  1  0
 28 51  1  0
 29 52  1  0
M  END
>  <smiles>  (46) 
O=C(NCC(=O)N1CC[C@H](O)[C@H]1Cc1ccc(Cl)cc1)c1ccc2cc(F)ccc2n1

>  <score_type>  (46) 
oracle

>  <origin>  (46) 
autodockgpu

>  <m_score__min__energy>  (46) 
-9.1999999999999993

>  <m_primary>  (46) 
energy

>  <rmsd>  (46) 
3.7489949906142512

>  <m_score__min__rmsd>  (46) 
3.7489949906142512

>  <meeko>  (46) 
{"free_energy": -7.75, "intermolecular_energy": -9.83, "internal_energy": -1.82, "cluster_size": 1, "cluster_id": 5, "rank_in_cluster": 1}

>  <energy>  (46) 
-7.9

>  <cluster_rmsd>  (46) 
0.78

>  <cluster>  (46) 
4

$$$$

     RDKit          3D

 52 55  0  0  0  0  0  0  0  0999 V2000
  141.2820   71.7830  221.0940 O   0  0  0  0  0  0  0  0  0  0  0  0
  140.7190   72.3000  222.0890 C   0  0  0  0  0  0  0  0  0  0  0  0
  140.3900   73.6820  222.0300 N   0  0  0  0  0  0  0  0  0  0  0  0
  140.7290   74.4020  220.8180 C   0  0  0  0  0  0  0  0  0  0  0  0
  140.7840   75.8790  221.0760 C   0  0  0  0  0  0  0  0  0  0  0  0
  140.2560   76.2540  222.1650 O   0  0  0  0  0  0  0  0  0  0  0  0
  141.3850   76.7860  220.1600 N   0  0  0  0  0  0  0  0  0  0  0  0
  140.9130   78.1390  219.9740 C   0  0  0  0  0  0  0  0  0  0  0  0
  141.4660   78.4310  218.5710 C   0  0  0  0  0  0  0  0  0  0  0  0
  142.8120   77.6910  218.5770 C   0  0  2  0  0  0  0  0  0  0  0  0
  143.1530   77.4780  217.2500 O   0  0  0  0  0  0  0  0  0  0  0  0
  142.5040   76.4500  219.3280 C   0  0  1  0  0  0  0  0  0  0  0  0
  143.6870   75.8740  220.0590 C   0  0  0  0  0  0  0  0  0  0  0  0
  143.8760   74.4210  219.8710 C   0  0  0  0  0  0  0  0  0  0  0  0
  143.3360   73.6970  218.8310 C   0  0  0  0  0  0  0  0  0  0  0  0
  143.5290   72.3380  218.6720 C   0  0  0  0  0  0  0  0  0  0  0  0
  144.2890   71.6310  219.5740 C   0  0  0  0  0  0  0  0  0  0  0  0
  144.5110   69.9120  219.3420 Cl  0  0  0  0  0  0  0  0  0  0  0  0
  144.8430   72.3250  220.6270 C   0  0  0  0  0  0  0  0  0  0  0  0
  144.6480   73.6830  220.7790 C   0  0  0  0  0  0  0  0  0  0  0  0
  140.4040   71.5210  223.2820 C   0  0  0  0  0  0  0  0  0  0  0  0
  139.6540   70.3610  223.1390 C   0  0  0  0  0  0  0  0  0  0  0  0
  139.3460   69.6110  224.2550 C   0  0  0  0  0  0  0  0  0  0  0  0
  139.7710   70.0010  225.4840 C   0  0  0  0  0  0  0  0  0  0  0  0
  139.4350   69.2110  226.5800 C   0  0  0  0  0  0  0  0  0  0  0  0
  139.8760   69.6260  227.8250 C   0  0  0  0  0  0  0  0  0  0  0  0
  139.5770   68.8910  228.9370 F   0  0  0  0  0  0  0  0  0  0  0  0
  140.6200   70.7800  227.9550 C   0  0  0  0  0  0  0  0  0  0  0  0
  140.9520   71.5600  226.8670 C   0  0  0  0  0  0  0  0  0  0  0  0
  140.5200   71.1620  225.6260 C   0  0  0  0  0  0  0  0  0  0  0  0
  140.8070   71.8750  224.5150 N   0  0  0  0  0  0  0  0  0  0  0  0
  139.9220   74.1380  222.8440 H   0  0  0  0  0  0  0  0  0  0  0  0
  141.7113   74.0615  220.4585 H   0  0  0  0  0  0  0  0  0  0  0  0
  139.9558   74.2039  220.0611 H   0  0  0  0  0  0  0  0  0  0  0  0
  139.8146   78.1940  219.9983 H   0  0  0  0  0  0  0  0  0  0  0  0
  141.2310   78.8490  220.7517 H   0  0  0  0  0  0  0  0  0  0  0  0
  140.7989   78.0344  217.7914 H   0  0  0  0  0  0  0  0  0  0  0  0
  141.5598   79.5053  218.3540 H   0  0  0  0  0  0  0  0  0  0  0  0
  143.6651   78.2089  219.0396 H   0  0  0  0  0  0  0  0  0  0  0  0
  143.6930   78.2130  216.8660 H   0  0  0  0  0  0  0  0  0  0  0  0
  142.2466   75.6199  218.6537 H   0  0  0  0  0  0  0  0  0  0  0  0
  144.5930   76.3870  219.7041 H   0  0  0  0  0  0  0  0  0  0  0  0
  143.4971   76.0283  221.1314 H   0  0  0  0  0  0  0  0  0  0  0  0
  142.7201   74.2274  218.0898 H   0  0  0  0  0  0  0  0  0  0  0  0
  143.0713   71.8179  217.8176 H   0  0  0  0  0  0  0  0  0  0  0  0
  145.4551   71.7844  221.3639 H   0  0  0  0  0  0  0  0  0  0  0  0
  145.1098   74.1989  221.6338 H   0  0  0  0  0  0  0  0  0  0  0  0
  139.3085   70.0430  222.1443 H   0  0  0  0  0  0  0  0  0  0  0  0
  138.7523   68.6911  224.1485 H   0  0  0  0  0  0  0  0  0  0  0  0
  138.8418   68.2923  226.4613 H   0  0  0  0  0  0  0  0  0  0  0  0
  140.9585   71.0873  228.9555 H   0  0  0  0  0  0  0  0  0  0  0  0
  141.5472   72.4768  226.9903 H   0  0  0  0  0  0  0  0  0  0  0  0
  1  2  2  0
  2  3  1  0
  3  4  1  0
  4  5  1  0
  5  6  2  0
  5  7  1  0
  7  8  1  0
  8  9  1  0
  9 10  1  0
 10 11  1  0
 10 12  1  0
 12 13  1  0
 13 14  1  0
 14 15  2  0
 15 16  1  0
 16 17  2  0
 17 18  1  0
 17 19  1  0
 19 20  2  0
  2 21  1  0
 21 22  2  0
 22 23  1  0
 23 24  2  0
 24 25  1  0
 25 26  2  0
 26 27  1  0
 26 28  1  0
 28 29  2  0
 29 30  1  0
 30 31  2  0
 12  7  1  0
 20 14  1  0
 31 21  1  0
 30 24  1  0
  3 32  1  0
  4 33  1  0
  4 34  1  0
  8 35  1  0
  8 36  1  0
  9 37  1  0
  9 38  1  0
 10 39  1  1
 11 40  1  0
 12 41  1  6
 13 42  1  0
 13 43  1  0
 15 44  1  0
 16 45  1  0
 19 46  1  0
 20 47  1  0
 22 48  1  0
 23 49  1  0
 25 50  1  0
 28 51  1  0
 29 52  1  0
M  END
>  <smiles>  (47) 
O=C(NCC(=O)N1CC[C@H](O)[C@H]1Cc1ccc(Cl)cc1)c1ccc2cc(F)ccc2n1

>  <score_type>  (47) 
oracle

>  <origin>  (47) 
autodockgpu

>  <m_score__min__energy>  (47) 
-9.1999999999999993

>  <m_primary>  (47) 
energy

>  <rmsd>  (47) 
2.462967558776344

>  <m_score__min__rmsd>  (47) 
2.462967558776344

>  <meeko>  (47) 
{"free_energy": -7.76, "intermolecular_energy": -9.85, "internal_energy": -2.4, "cluster_size": 23, "cluster_id": 2, "rank_in_cluster": 23}

>  <energy>  (47) 
-7.75

>  <cluster_rmsd>  (47) 
0.0

>  <cluster>  (47) 
5

$$$$

     RDKit          3D

 52 55  0  0  0  0  0  0  0  0999 V2000
  141.2170   71.8360  221.1220 O   0  0  0  0  0  0  0  0  0  0  0  0
  140.6050   72.3190  222.1050 C   0  0  0  0  0  0  0  0  0  0  0  0
  140.1880   73.6770  222.0330 N   0  0  0  0  0  0  0  0  0  0  0  0
  140.5010   74.4120  220.8240 C   0  0  0  0  0  0  0  0  0  0  0  0
  140.8520   75.8350  221.1430 C   0  0  0  0  0  0  0  0  0  0  0  0
  140.6850   76.1710  222.3540 O   0  0  0  0  0  0  0  0  0  0  0  0
  141.3370   76.7370  220.1550 N   0  0  0  0  0  0  0  0  0  0  0  0
  140.7360   78.0280  219.9130 C   0  0  0  0  0  0  0  0  0  0  0  0
  141.2120   78.2840  218.4750 C   0  0  0  0  0  0  0  0  0  0  0  0
  142.6200   77.6700  218.4700 C   0  0  2  0  0  0  0  0  0  0  0  0
  142.9340   77.4100  217.1440 O   0  0  0  0  0  0  0  0  0  0  0  0
  142.4520   76.4530  219.3010 C   0  0  1  0  0  0  0  0  0  0  0  0
  143.7070   76.0300  220.0160 C   0  0  0  0  0  0  0  0  0  0  0  0
  144.1020   74.6260  219.7850 C   0  0  0  0  0  0  0  0  0  0  0  0
  144.9750   73.9240  220.5870 C   0  0  0  0  0  0  0  0  0  0  0  0
  145.3280   72.6080  220.3530 C   0  0  0  0  0  0  0  0  0  0  0  0
  144.8080   71.9260  219.2790 C   0  0  0  0  0  0  0  0  0  0  0  0
  145.2770   70.2620  219.0150 Cl  0  0  0  0  0  0  0  0  0  0  0  0
  143.9310   72.5990  218.4570 C   0  0  0  0  0  0  0  0  0  0  0  0
  143.5820   73.9130  218.6970 C   0  0  0  0  0  0  0  0  0  0  0  0
  140.3200   71.5260  223.2960 C   0  0  0  0  0  0  0  0  0  0  0  0
  139.6010   70.3460  223.1530 C   0  0  0  0  0  0  0  0  0  0  0  0
  139.3230   69.5830  224.2670 C   0  0  0  0  0  0  0  0  0  0  0  0
  139.7460   69.9790  225.4950 C   0  0  0  0  0  0  0  0  0  0  0  0
  139.4390   69.1750  226.5900 C   0  0  0  0  0  0  0  0  0  0  0  0
  139.8790   69.5950  227.8330 C   0  0  0  0  0  0  0  0  0  0  0  0
  139.6080   68.8470  228.9430 F   0  0  0  0  0  0  0  0  0  0  0  0
  140.5910   70.7690  227.9640 C   0  0  0  0  0  0  0  0  0  0  0  0
  140.8940   71.5630  226.8770 C   0  0  0  0  0  0  0  0  0  0  0  0
  140.4640   71.1590  225.6380 C   0  0  0  0  0  0  0  0  0  0  0  0
  140.7230   71.8860  224.5280 N   0  0  0  0  0  0  0  0  0  0  0  0
  139.6770   74.1040  222.8370 H   0  0  0  0  0  0  0  0  0  0  0  0
  141.3547   73.9336  220.3217 H   0  0  0  0  0  0  0  0  0  0  0  0
  139.6182   74.4047  220.1678 H   0  0  0  0  0  0  0  0  0  0  0  0
  139.6387   77.9851  219.9774 H   0  0  0  0  0  0  0  0  0  0  0  0
  141.0128   78.8088  220.6366 H   0  0  0  0  0  0  0  0  0  0  0  0
  140.5584   77.7829  217.7459 H   0  0  0  0  0  0  0  0  0  0  0  0
  141.1990   79.3474  218.1941 H   0  0  0  0  0  0  0  0  0  0  0  0
  143.4373   78.2887  218.8690 H   0  0  0  0  0  0  0  0  0  0  0  0
  143.4990   78.1120  216.7350 H   0  0  0  0  0  0  0  0  0  0  0  0
  142.2484   75.5643  218.6856 H   0  0  0  0  0  0  0  0  0  0  0  0
  144.5293   76.6779  219.6783 H   0  0  0  0  0  0  0  0  0  0  0  0
  143.4992   76.1226  221.0922 H   0  0  0  0  0  0  0  0  0  0  0  0
  145.4128   74.4360  221.4566 H   0  0  0  0  0  0  0  0  0  0  0  0
  146.0307   72.1027  221.0318 H   0  0  0  0  0  0  0  0  0  0  0  0
  143.4991   72.0777  217.5900 H   0  0  0  0  0  0  0  0  0  0  0  0
  142.8773   74.4131  218.0163 H   0  0  0  0  0  0  0  0  0  0  0  0
  139.2565   70.0232  222.1595 H   0  0  0  0  0  0  0  0  0  0  0  0
  138.7547   68.6472  224.1604 H   0  0  0  0  0  0  0  0  0  0  0  0
  138.8686   68.2419  226.4714 H   0  0  0  0  0  0  0  0  0  0  0  0
  140.9270   71.0813  228.9638 H   0  0  0  0  0  0  0  0  0  0  0  0
  141.4650   72.4951  227.0003 H   0  0  0  0  0  0  0  0  0  0  0  0
  1  2  2  0
  2  3  1  0
  3  4  1  0
  4  5  1  0
  5  6  2  0
  5  7  1  0
  7  8  1  0
  8  9  1  0
  9 10  1  0
 10 11  1  0
 10 12  1  0
 12 13  1  0
 13 14  1  0
 14 15  2  0
 15 16  1  0
 16 17  2  0
 17 18  1  0
 17 19  1  0
 19 20  2  0
  2 21  1  0
 21 22  2  0
 22 23  1  0
 23 24  2  0
 24 25  1  0
 25 26  2  0
 26 27  1  0
 26 28  1  0
 28 29  2  0
 29 30  1  0
 30 31  2  0
 12  7  1  0
 20 14  1  0
 31 21  1  0
 30 24  1  0
  3 32  1  0
  4 33  1  0
  4 34  1  0
  8 35  1  0
  8 36  1  0
  9 37  1  0
  9 38  1  0
 10 39  1  1
 11 40  1  0
 12 41  1  6
 13 42  1  0
 13 43  1  0
 15 44  1  0
 16 45  1  0
 19 46  1  0
 20 47  1  0
 22 48  1  0
 23 49  1  0
 25 50  1  0
 28 51  1  0
 29 52  1  0
M  END
>  <smiles>  (48) 
O=C(NCC(=O)N1CC[C@H](O)[C@H]1Cc1ccc(Cl)cc1)c1ccc2cc(F)ccc2n1

>  <score_type>  (48) 
oracle

>  <origin>  (48) 
autodockgpu

>  <m_score__min__energy>  (48) 
-9.1999999999999993

>  <m_primary>  (48) 
energy

>  <rmsd>  (48) 
2.3411027912145945

>  <m_score__min__rmsd>  (48) 
2.3411027912145945

>  <meeko>  (48) 
{"free_energy": -8.09, "intermolecular_energy": -10.18, "internal_energy": -2.12, "cluster_size": 23, "cluster_id": 2, "rank_in_cluster": 11}

>  <energy>  (48) 
-6.88

>  <cluster_rmsd>  (48) 
0.0

>  <cluster>  (48) 
6

$$$$

     RDKit          3D

 52 55  0  0  0  0  0  0  0  0999 V2000
  137.9000   70.3490  221.9970 O   0  0  0  0  0  0  0  0  0  0  0  0
  138.6050   70.8790  222.8890 C   0  0  0  0  0  0  0  0  0  0  0  0
  138.9570   72.2480  222.7400 N   0  0  0  0  0  0  0  0  0  0  0  0
  138.4740   72.9410  221.5620 C   0  0  0  0  0  0  0  0  0  0  0  0
  138.9970   74.3470  221.5220 C   0  0  0  0  0  0  0  0  0  0  0  0
  139.9300   74.5970  222.3420 O   0  0  0  0  0  0  0  0  0  0  0  0
  138.4780   75.3230  220.6260 N   0  0  0  0  0  0  0  0  0  0  0  0
  137.6340   74.9850  219.5040 C   0  0  0  0  0  0  0  0  0  0  0  0
  137.8600   76.2160  218.6120 C   0  0  0  0  0  0  0  0  0  0  0  0
  137.9840   77.3560  219.6350 C   0  0  2  0  0  0  0  0  0  0  0  0
  138.6580   78.3870  218.9980 O   0  0  0  0  0  0  0  0  0  0  0  0
  138.7480   76.7270  220.7390 C   0  0  1  0  0  0  0  0  0  0  0  0
  138.4570   77.3210  222.0920 C   0  0  0  0  0  0  0  0  0  0  0  0
  139.5060   78.2270  222.6020 C   0  0  0  0  0  0  0  0  0  0  0  0
  139.2720   79.5110  223.0450 C   0  0  0  0  0  0  0  0  0  0  0  0
  140.2680   80.3420  223.5210 C   0  0  0  0  0  0  0  0  0  0  0  0
  141.5720   79.9090  223.5730 C   0  0  0  0  0  0  0  0  0  0  0  0
  142.8070   80.9880  224.1820 Cl  0  0  0  0  0  0  0  0  0  0  0  0
  141.8400   78.6300  223.1370 C   0  0  0  0  0  0  0  0  0  0  0  0
  140.8400   77.8050  222.6630 C   0  0  0  0  0  0  0  0  0  0  0  0
  139.0610   70.1260  224.0530 C   0  0  0  0  0  0  0  0  0  0  0  0
  138.8650   68.7510  224.0740 C   0  0  0  0  0  0  0  0  0  0  0  0
  139.2890   68.0230  225.1660 C   0  0  0  0  0  0  0  0  0  0  0  0
  139.8930   68.6420  226.2130 C   0  0  0  0  0  0  0  0  0  0  0  0
  140.3030   67.8640  227.2930 C   0  0  0  0  0  0  0  0  0  0  0  0
  140.9160   68.5130  228.3500 C   0  0  0  0  0  0  0  0  0  0  0  0
  141.3400   67.8010  229.4360 F   0  0  0  0  0  0  0  0  0  0  0  0
  141.1050   69.8780  228.3190 C   0  0  0  0  0  0  0  0  0  0  0  0
  140.6980   70.6470  227.2470 C   0  0  0  0  0  0  0  0  0  0  0  0
  140.0880   70.0160  226.1910 C   0  0  0  0  0  0  0  0  0  0  0  0
  139.6630   70.7040  225.1080 N   0  0  0  0  0  0  0  0  0  0  0  0
  139.5430   72.7140  223.4680 H   0  0  0  0  0  0  0  0  0  0  0  0
  138.8121   72.4043  220.6633 H   0  0  0  0  0  0  0  0  0  0  0  0
  137.3750   72.9733  221.5964 H   0  0  0  0  0  0  0  0  0  0  0  0
  137.9637   74.0587  219.0109 H   0  0  0  0  0  0  0  0  0  0  0  0
  136.5826   74.7883  219.7607 H   0  0  0  0  0  0  0  0  0  0  0  0
  138.7810   76.1128  218.0195 H   0  0  0  0  0  0  0  0  0  0  0  0
  137.0580   76.3751  217.8761 H   0  0  0  0  0  0  0  0  0  0  0  0
  137.0481   77.7856  220.0217 H   0  0  0  0  0  0  0  0  0  0  0  0
  139.4670   78.0820  218.5170 H   0  0  0  0  0  0  0  0  0  0  0  0
  139.8272   76.9199  220.6488 H   0  0  0  0  0  0  0  0  0  0  0  0
  137.5170   77.8882  222.0232 H   0  0  0  0  0  0  0  0  0  0  0  0
  138.4009   76.4790  222.7976 H   0  0  0  0  0  0  0  0  0  0  0  0
  138.2409   79.8933  223.0183 H   0  0  0  0  0  0  0  0  0  0  0  0
  140.0159   81.3574  223.8608 H   0  0  0  0  0  0  0  0  0  0  0  0
  142.8746   78.2576  223.1673 H   0  0  0  0  0  0  0  0  0  0  0  0
  141.0974   76.7905  222.3246 H   0  0  0  0  0  0  0  0  0  0  0  0
  138.3760   68.2472  223.2272 H   0  0  0  0  0  0  0  0  0  0  0  0
  139.1369   66.9338  225.1890 H   0  0  0  0  0  0  0  0  0  0  0  0
  140.1455   66.7754  227.3051 H   0  0  0  0  0  0  0  0  0  0  0  0
  141.5943   70.3689  229.1732 H   0  0  0  0  0  0  0  0  0  0  0  0
  140.8580   71.7353  227.2391 H   0  0  0  0  0  0  0  0  0  0  0  0
  1  2  2  0
  2  3  1  0
  3  4  1  0
  4  5  1  0
  5  6  2  0
  5  7  1  0
  7  8  1  0
  8  9  1  0
  9 10  1  0
 10 11  1  0
 10 12  1  0
 12 13  1  0
 13 14  1  0
 14 15  2  0
 15 16  1  0
 16 17  2  0
 17 18  1  0
 17 19  1  0
 19 20  2  0
  2 21  1  0
 21 22  2  0
 22 23  1  0
 23 24  2  0
 24 25  1  0
 25 26  2  0
 26 27  1  0
 26 28  1  0
 28 29  2  0
 29 30  1  0
 30 31  2  0
 12  7  1  0
 20 14  1  0
 31 21  1  0
 30 24  1  0
  3 32  1  0
  4 33  1  0
  4 34  1  0
  8 35  1  0
  8 36  1  0
  9 37  1  0
  9 38  1  0
 10 39  1  1
 11 40  1  0
 12 41  1  6
 13 42  1  0
 13 43  1  0
 15 44  1  0
 16 45  1  0
 19 46  1  0
 20 47  1  0
 22 48  1  0
 23 49  1  0
 25 50  1  0
 28 51  1  0
 29 52  1  0
M  END
>  <smiles>  (49) 
O=C(NCC(=O)N1CC[C@H](O)[C@H]1Cc1ccc(Cl)cc1)c1ccc2cc(F)ccc2n1

>  <score_type>  (49) 
oracle

>  <origin>  (49) 
autodockgpu

>  <m_score__min__energy>  (49) 
-9.1999999999999993

>  <m_primary>  (49) 
energy

>  <rmsd>  (49) 
2.290040568859853

>  <m_score__min__rmsd>  (49) 
2.290040568859853

>  <meeko>  (49) 
{"free_energy": -8.04, "intermolecular_energy": -10.13, "internal_energy": -1.98, "cluster_size": 3, "cluster_id": 4, "rank_in_cluster": 1}

>  <energy>  (49) 
-6.64

>  <cluster_rmsd>  (49) 
0.0

>  <cluster>  (49) 
7

$$$$

     RDKit          3D

 52 55  0  0  0  0  0  0  0  0999 V2000
  141.2760   72.3240  221.5070 O   0  0  0  0  0  0  0  0  0  0  0  0
  140.3320   72.4900  222.3170 C   0  0  0  0  0  0  0  0  0  0  0  0
  139.4160   73.5490  222.0680 N   0  0  0  0  0  0  0  0  0  0  0  0
  139.6360   74.3650  220.8920 C   0  0  0  0  0  0  0  0  0  0  0  0
  140.7420   75.3500  221.1280 C   0  0  0  0  0  0  0  0  0  0  0  0
  141.0420   75.5390  222.3450 O   0  0  0  0  0  0  0  0  0  0  0  0
  141.4030   76.0200  220.0600 N   0  0  0  0  0  0  0  0  0  0  0  0
  140.9780   77.3080  219.5640 C   0  0  0  0  0  0  0  0  0  0  0  0
  141.5880   77.2710  218.1540 C   0  0  0  0  0  0  0  0  0  0  0  0
  142.9100   76.5220  218.3770 C   0  0  2  0  0  0  0  0  0  0  0  0
  143.2900   76.0140  217.1440 O   0  0  0  0  0  0  0  0  0  0  0  0
  142.5380   75.4840  219.3690 C   0  0  1  0  0  0  0  0  0  0  0  0
  143.6770   75.0580  220.2560 C   0  0  0  0  0  0  0  0  0  0  0  0
  144.2370   73.7280  219.9400 C   0  0  0  0  0  0  0  0  0  0  0  0
  145.5140   73.3280  220.2640 C   0  0  0  0  0  0  0  0  0  0  0  0
  146.0170   72.0760  219.9610 C   0  0  0  0  0  0  0  0  0  0  0  0
  145.2390   71.1530  219.3030 C   0  0  0  0  0  0  0  0  0  0  0  0
  145.9080   69.5790  218.9360 Cl  0  0  0  0  0  0  0  0  0  0  0  0
  143.9560   71.5210  218.9640 C   0  0  0  0  0  0  0  0  0  0  0  0
  143.4600   72.7730  219.2710 C   0  0  0  0  0  0  0  0  0  0  0  0
  140.1640   71.6330  223.4850 C   0  0  0  0  0  0  0  0  0  0  0  0
  139.4320   70.4600  223.3490 C   0  0  0  0  0  0  0  0  0  0  0  0
  139.2620   69.6360  224.4420 C   0  0  0  0  0  0  0  0  0  0  0  0
  139.8050   69.9670  225.6430 C   0  0  0  0  0  0  0  0  0  0  0  0
  139.6050   69.1030  226.7170 C   0  0  0  0  0  0  0  0  0  0  0  0
  140.1650   69.4570  227.9320 C   0  0  0  0  0  0  0  0  0  0  0  0
  140.0030   68.6490  229.0210 F   0  0  0  0  0  0  0  0  0  0  0  0
  140.8890   70.6240  228.0560 C   0  0  0  0  0  0  0  0  0  0  0  0
  141.0860   71.4780  226.9890 C   0  0  0  0  0  0  0  0  0  0  0  0
  140.5350   71.1390  225.7780 C   0  0  0  0  0  0  0  0  0  0  0  0
  140.6860   71.9260  224.6890 N   0  0  0  0  0  0  0  0  0  0  0  0
  138.6210   73.7100  222.7260 H   0  0  0  0  0  0  0  0  0  0  0  0
  139.9062   73.7147  220.0469 H   0  0  0  0  0  0  0  0  0  0  0  0
  138.7120   74.9184  220.6683 H   0  0  0  0  0  0  0  0  0  0  0  0
  139.8816   77.3906  219.5315 H   0  0  0  0  0  0  0  0  0  0  0  0
  141.2894   78.1651  220.1792 H   0  0  0  0  0  0  0  0  0  0  0  0
  140.9368   76.7265  217.4544 H   0  0  0  0  0  0  0  0  0  0  0  0
  141.7213   78.2685  217.7100 H   0  0  0  0  0  0  0  0  0  0  0  0
  143.7619   77.1103  218.7488 H   0  0  0  0  0  0  0  0  0  0  0  0
  142.5220   75.8180  216.5520 H   0  0  0  0  0  0  0  0  0  0  0  0
  142.2786   74.5314  218.8839 H   0  0  0  0  0  0  0  0  0  0  0  0
  144.4825   75.8010  220.1610 H   0  0  0  0  0  0  0  0  0  0  0  0
  143.2704   74.9913  221.2759 H   0  0  0  0  0  0  0  0  0  0  0  0
  146.1668   74.0400  220.7902 H   0  0  0  0  0  0  0  0  0  0  0  0
  147.0467   71.8168  220.2484 H   0  0  0  0  0  0  0  0  0  0  0  0
  143.3118   70.8018  218.4370 H   0  0  0  0  0  0  0  0  0  0  0  0
  142.4291   73.0267  218.9830 H   0  0  0  0  0  0  0  0  0  0  0  0
  138.9917   70.1906  222.3776 H   0  0  0  0  0  0  0  0  0  0  0  0
  138.6837   68.7058  224.3410 H   0  0  0  0  0  0  0  0  0  0  0  0
  139.0246   68.1755  226.6038 H   0  0  0  0  0  0  0  0  0  0  0  0
  141.3223   70.8822  229.0335 H   0  0  0  0  0  0  0  0  0  0  0  0
  141.6681   72.4040  227.1059 H   0  0  0  0  0  0  0  0  0  0  0  0
  1  2  2  0
  2  3  1  0
  3  4  1  0
  4  5  1  0
  5  6  2  0
  5  7  1  0
  7  8  1  0
  8  9  1  0
  9 10  1  0
 10 11  1  0
 10 12  1  0
 12 13  1  0
 13 14  1  0
 14 15  2  0
 15 16  1  0
 16 17  2  0
 17 18  1  0
 17 19  1  0
 19 20  2  0
  2 21  1  0
 21 22  2  0
 22 23  1  0
 23 24  2  0
 24 25  1  0
 25 26  2  0
 26 27  1  0
 26 28  1  0
 28 29  2  0
 29 30  1  0
 30 31  2  0
 12  7  1  0
 20 14  1  0
 31 21  1  0
 30 24  1  0
  3 32  1  0
  4 33  1  0
  4 34  1  0
  8 35  1  0
  8 36  1  0
  9 37  1  0
  9 38  1  0
 10 39  1  1
 11 40  1  0
 12 41  1  6
 13 42  1  0
 13 43  1  0
 15 44  1  0
 16 45  1  0
 19 46  1  0
 20 47  1  0
 22 48  1  0
 23 49  1  0
 25 50  1  0
 28 51  1  0
 29 52  1  0
M  END
>  <smiles>  (50) 
O=C(NCC(=O)N1CC[C@H](O)[C@H]1Cc1ccc(Cl)cc1)c1ccc2cc(F)ccc2n1

>  <score_type>  (50) 
oracle

>  <origin>  (50) 
autodockgpu

>  <m_score__min__energy>  (50) 
-9.1999999999999993

>  <m_primary>  (50) 
energy

>  <rmsd>  (50) 
2.1093734014193077

>  <m_score__min__rmsd>  (50) 
2.1093734014193077

>  <meeko>  (50) 
{"free_energy": -8.08, "intermolecular_energy": -10.17, "internal_energy": -1.68, "cluster_size": 23, "cluster_id": 2, "rank_in_cluster": 12}

>  <energy>  (50) 
-5.91

>  <cluster_rmsd>  (50) 
0.0

>  <cluster>  (50) 
8

$$$$
