
     RDKit          3D

 46 49  0  0  0  0  0  0  0  0999 V2000
  141.4660   72.3460  221.6380 O   0  0  0  0  0  0  0  0  0  0  0  0
  140.5250   72.5840  222.4440 C   0  0  0  0  0  0  0  0  0  0  0  0
  139.6860   73.7270  222.3370 N   0  0  0  0  0  0  0  0  0  0  0  0
  139.8890   74.6850  221.2670 C   0  0  0  0  0  0  0  0  0  0  0  0
  139.4100   76.0340  221.6440 C   0  0  0  0  0  0  0  0  0  0  0  0
  138.4910   76.1740  222.5060 O   0  0  0  0  0  0  0  0  0  0  0  0
  140.0220   77.1470  221.0020 N   0  0  0  0  0  0  0  0  0  0  0  0
  139.4050   78.1910  220.1960 C   0  0  0  0  0  0  0  0  0  0  0  0
  140.2620   78.0500  218.9530 C   0  0  0  0  0  0  0  0  0  0  0  0
  141.6420   77.9530  219.5640 C   0  0  0  0  0  0  0  0  0  0  0  0
  141.4510   77.4990  221.0090 C   0  0  1  0  0  0  0  0  0  0  0  0
  141.6900   78.6360  221.9460 C   0  0  0  0  0  0  0  0  0  0  0  0
  142.0150   79.8680  221.5140 N   0  0  0  0  0  0  0  0  0  0  0  0
  142.2310   80.8960  222.3840 C   0  0  0  0  0  0  0  0  0  0  0  0
  142.1010   80.6170  223.7320 C   0  0  0  0  0  0  0  0  0  0  0  0
  141.7680   79.3640  224.2110 C   0  0  0  0  0  0  0  0  0  0  0  0
  141.5690   78.3900  223.2830 N   0  0  0  0  0  0  0  0  0  0  0  0
  140.2730   71.6410  223.5530 C   0  0  0  0  0  0  0  0  0  0  0  0
  139.5820   70.4690  223.3230 C   0  0  0  0  0  0  0  0  0  0  0  0
  139.3530   69.5870  224.3820 C   0  0  0  0  0  0  0  0  0  0  0  0
  139.8210   69.9060  225.6420 C   0  0  0  0  0  0  0  0  0  0  0  0
  139.6180   69.0650  226.7260 C   0  0  0  0  0  0  0  0  0  0  0  0
  140.1190   69.4490  227.9710 C   0  0  0  0  0  0  0  0  0  0  0  0
  140.8000   70.6210  228.1590 C   0  0  0  0  0  0  0  0  0  0  0  0
  140.9900   71.4400  227.0760 C   0  0  0  0  0  0  0  0  0  0  0  0
  140.5080   71.0850  225.8360 C   0  0  0  0  0  0  0  0  0  0  0  0
  140.7030   71.8920  224.8010 N   0  0  0  0  0  0  0  0  0  0  0  0
  138.9160   73.8490  223.0610 H   0  0  0  0  0  0  0  0  0  0  0  0
  140.9631   74.7394  221.0358 H   0  0  0  0  0  0  0  0  0  0  0  0
  139.3147   74.3487  220.3911 H   0  0  0  0  0  0  0  0  0  0  0  0
  138.3436   77.9855  219.9933 H   0  0  0  0  0  0  0  0  0  0  0  0
  139.3809   79.1932  220.6489 H   0  0  0  0  0  0  0  0  0  0  0  0
  140.0062   77.1424  218.3867 H   0  0  0  0  0  0  0  0  0  0  0  0
  140.1443   78.8669  218.2258 H   0  0  0  0  0  0  0  0  0  0  0  0
  142.2497   77.2198  219.0134 H   0  0  0  0  0  0  0  0  0  0  0  0
  142.1636   78.9204  219.5188 H   0  0  0  0  0  0  0  0  0  0  0  0
  142.1264   76.6914  221.3277 H   0  0  0  0  0  0  0  0  0  0  0  0
  142.4969   81.9026  222.0289 H   0  0  0  0  0  0  0  0  0  0  0  0
  142.2701   81.4283  224.4553 H   0  0  0  0  0  0  0  0  0  0  0  0
  141.6690   79.1647  225.2883 H   0  0  0  0  0  0  0  0  0  0  0  0
  139.2144   70.2310  222.3139 H   0  0  0  0  0  0  0  0  0  0  0  0
  138.8055   68.6478  224.2142 H   0  0  0  0  0  0  0  0  0  0  0  0
  139.0741   68.1163  226.6073 H   0  0  0  0  0  0  0  0  0  0  0  0
  139.9605   68.7846  228.8333 H   0  0  0  0  0  0  0  0  0  0  0  0
  141.1844   70.8983  229.1516 H   0  0  0  0  0  0  0  0  0  0  0  0
  141.5323   72.3891  227.1988 H   0  0  0  0  0  0  0  0  0  0  0  0
  1  2  2  0
  2  3  1  0
  3  4  1  0
  4  5  1  0
  5  6  2  0
  5  7  1  0
  7  8  1  0
  8  9  1  0
  9 10  1  0
 10 11  1  0
 11 12  1  0
 12 13  2  0
 13 14  1  0
 14 15  2  0
 15 16  1  0
 16 17  2  0
  2 18  1  0
 18 19  2  0
 19 20  1  0
 20 21  2  0
 21 22  1  0
 22 23  2  0
 23 24  1  0
 24 25  2  0
 25 26  1  0
 26 27  2  0
 11  7  1  0
 17 12  1  0
 27 18  1  0
 26 21  1  0
  3 28  1  0
  4 29  1  0
  4 30  1  0
  8 31  1  0
  8 32  1  0
  9 33  1  0
  9 34  1  0
 10 35  1  0
 10 36  1  0
 11 37  1  1
 14 38  1  0
 15 39  1  0
 16 40  1  0
 19 41  1  0
 20 42  1  0
 22 43  1  0
 23 44  1  0
 24 45  1  0
 25 46  1  0
M  END
>  <smiles>  (1) 
O=C(NCC(=O)N1CCC[C@H]1c1ncccn1)c1ccc2ccccc2n1

>  <score_type>  (1) 
oracle

>  <origin>  (1) 
autodockgpu

>  <m_score__min__energy>  (1) 
-8.3499999999999996

>  <m_primary>  (1) 
energy

>  <rmsd>  (1) 
2.297779092021548

>  <m_score__min__rmsd>  (1) 
2.297779092021548

>  <meeko>  (1) 
{"free_energy": -8.18, "intermolecular_energy": -9.67, "internal_energy": -1.58, "cluster_size": 23, "cluster_id": 1, "rank_in_cluster": 6}

>  <energy>  (1) 
-8.35

>  <cluster_rmsd>  (1) 
0.0

>  <cluster>  (1) 
1

$$$$

     RDKit          3D

 46 49  0  0  0  0  0  0  0  0999 V2000
  138.5670   74.7920  222.1780 O   0  0  0  0  0  0  0  0  0  0  0  0
  139.7050   75.2770  221.9330 C   0  0  0  0  0  0  0  0  0  0  0  0
  139.9830   76.6700  222.0020 N   0  0  0  0  0  0  0  0  0  0  0  0
  138.9370   77.6070  222.3670 C   0  0  0  0  0  0  0  0  0  0  0  0
  139.4870   78.7960  223.0550 C   0  0  0  0  0  0  0  0  0  0  0  0
  138.8030   79.4100  223.9280 O   0  0  0  0  0  0  0  0  0  0  0  0
  140.8000   79.2100  222.6930 N   0  0  0  0  0  0  0  0  0  0  0  0
  142.0750   78.8210  223.2770 C   0  0  0  0  0  0  0  0  0  0  0  0
  142.6120   80.2050  223.5840 C   0  0  0  0  0  0  0  0  0  0  0  0
  142.2910   80.9310  222.2970 C   0  0  0  0  0  0  0  0  0  0  0  0
  141.1700   80.1470  221.6190 C   0  0  1  0  0  0  0  0  0  0  0  0
  141.7010   79.3920  220.4460 C   0  0  0  0  0  0  0  0  0  0  0  0
  141.8210   78.0520  220.4470 N   0  0  0  0  0  0  0  0  0  0  0  0
  142.3080   77.3780  219.3650 C   0  0  0  0  0  0  0  0  0  0  0  0
  142.6730   78.1340  218.2660 C   0  0  0  0  0  0  0  0  0  0  0  0
  142.5630   79.5100  218.2310 C   0  0  0  0  0  0  0  0  0  0  0  0
  142.0700   80.1110  219.3460 N   0  0  0  0  0  0  0  0  0  0  0  0
  140.8070   74.3690  221.5550 C   0  0  0  0  0  0  0  0  0  0  0  0
  140.6190   73.0020  221.5830 C   0  0  0  0  0  0  0  0  0  0  0  0
  141.6700   72.1560  221.2220 C   0  0  0  0  0  0  0  0  0  0  0  0
  142.8810   72.7040  220.8450 C   0  0  0  0  0  0  0  0  0  0  0  0
  143.9560   71.9070  220.4790 C   0  0  0  0  0  0  0  0  0  0  0  0
  145.1510   72.5280  220.1080 C   0  0  0  0  0  0  0  0  0  0  0  0
  145.2980   73.8880  220.0940 C   0  0  0  0  0  0  0  0  0  0  0  0
  144.2240   74.6590  220.4590 C   0  0  0  0  0  0  0  0  0  0  0  0
  143.0350   74.0740  220.8290 C   0  0  0  0  0  0  0  0  0  0  0  0
  142.0080   74.8380  221.1780 N   0  0  0  0  0  0  0  0  0  0  0  0
  140.9720   76.9920  221.7780 H   0  0  0  0  0  0  0  0  0  0  0  0
  138.4146   77.9320  221.4551 H   0  0  0  0  0  0  0  0  0  0  0  0
  138.2456   77.0998  223.0560 H   0  0  0  0  0  0  0  0  0  0  0  0
  141.9470   78.2149  224.1860 H   0  0  0  0  0  0  0  0  0  0  0  0
  142.7166   78.1884  222.6461 H   0  0  0  0  0  0  0  0  0  0  0  0
  142.0949   80.6576  224.4429 H   0  0  0  0  0  0  0  0  0  0  0  0
  143.6756   80.2269  223.8639 H   0  0  0  0  0  0  0  0  0  0  0  0
  141.9589   81.9571  222.5132 H   0  0  0  0  0  0  0  0  0  0  0  0
  143.1767   80.9963  221.6480 H   0  0  0  0  0  0  0  0  0  0  0  0
  140.3444   80.7658  221.2375 H   0  0  0  0  0  0  0  0  0  0  0  0
  142.4059   76.2824  219.3669 H   0  0  0  0  0  0  0  0  0  0  0  0
  143.0687   77.6159  217.3800 H   0  0  0  0  0  0  0  0  0  0  0  0
  142.8595   80.0907  217.3451 H   0  0  0  0  0  0  0  0  0  0  0  0
  139.6489   72.5820  221.8873 H   0  0  0  0  0  0  0  0  0  0  0  0
  141.5350   71.0644  221.2377 H   0  0  0  0  0  0  0  0  0  0  0  0
  143.8692   70.8104  220.4809 H   0  0  0  0  0  0  0  0  0  0  0  0
  146.0057   71.9000  219.8162 H   0  0  0  0  0  0  0  0  0  0  0  0
  146.2512   74.3504  219.7982 H   0  0  0  0  0  0  0  0  0  0  0  0
  144.3141   75.7553  220.4559 H   0  0  0  0  0  0  0  0  0  0  0  0
  1  2  2  0
  2  3  1  0
  3  4  1  0
  4  5  1  0
  5  6  2  0
  5  7  1  0
  7  8  1  0
  8  9  1  0
  9 10  1  0
 10 11  1  0
 11 12  1  0
 12 13  2  0
 13 14  1  0
 14 15  2  0
 15 16  1  0
 16 17  2  0
  2 18  1  0
 18 19  2  0
 19 20  1  0
 20 21  2  0
 21 22  1  0
 22 23  2  0
 23 24  1  0
 24 25  2  0
 25 26  1  0
 26 27  2  0
 11  7  1  0
 17 12  1  0
 27 18  1  0
 26 21  1  0
  3 28  1  0
  4 29  1  0
  4 30  1  0
  8 31  1  0
  8 32  1  0
  9 33  1  0
  9 34  1  0
 10 35  1  0
 10 36  1  0
 11 37  1  6
 14 38  1  0
 15 39  1  0
 16 40  1  0
 19 41  1  0
 20 42  1  0
 22 43  1  0
 23 44  1  0
 24 45  1  0
 25 46  1  0
M  END
>  <smiles>  (2) 
O=C(NCC(=O)N1CCC[C@H]1c1ncccn1)c1ccc2ccccc2n1

>  <score_type>  (2) 
oracle

>  <origin>  (2) 
autodockgpu

>  <m_score__min__energy>  (2) 
-8.3499999999999996

>  <m_primary>  (2) 
energy

>  <rmsd>  (2) 
5.972175750094397

>  <m_score__min__rmsd>  (2) 
5.972175750094397

>  <meeko>  (2) 
{"free_energy": -6.5, "intermolecular_energy": -7.99, "internal_energy": -2.85, "cluster_size": 4, "cluster_id": 5, "rank_in_cluster": 3}

>  <energy>  (2) 
-8.29

>  <cluster_rmsd>  (2) 
0.26

>  <cluster>  (2) 
1

$$$$

     RDKit          3D

 46 49  0  0  0  0  0  0  0  0999 V2000
  138.4840   75.6240  221.9810 O   0  0  0  0  0  0  0  0  0  0  0  0
  139.6870   76.0010  222.0210 C   0  0  0  0  0  0  0  0  0  0  0  0
  140.7710   75.1700  221.6260 N   0  0  0  0  0  0  0  0  0  0  0  0
  140.5230   73.8220  221.1490 C   0  0  0  0  0  0  0  0  0  0  0  0
  141.7450   72.9900  221.2070 C   0  0  0  0  0  0  0  0  0  0  0  0
  141.8030   71.9820  221.9730 O   0  0  0  0  0  0  0  0  0  0  0  0
  142.8340   73.3710  220.3740 N   0  0  0  0  0  0  0  0  0  0  0  0
  143.3260   72.7320  219.1620 C   0  0  0  0  0  0  0  0  0  0  0  0
  144.7740   72.5560  219.5740 C   0  0  0  0  0  0  0  0  0  0  0  0
  145.0710   73.9140  220.1690 C   0  0  0  0  0  0  0  0  0  0  0  0
  143.7270   74.5270  220.5550 C   0  0  1  0  0  0  0  0  0  0  0  0
  143.3580   75.6110  219.5980 C   0  0  0  0  0  0  0  0  0  0  0  0
  143.6890   75.5640  218.2950 N   0  0  0  0  0  0  0  0  0  0  0  0
  143.3440   76.5640  217.4340 C   0  0  0  0  0  0  0  0  0  0  0  0
  142.6380   77.6310  217.9600 C   0  0  0  0  0  0  0  0  0  0  0  0
  142.2810   77.7110  219.2920 C   0  0  0  0  0  0  0  0  0  0  0  0
  142.6610   76.6770  220.0890 N   0  0  0  0  0  0  0  0  0  0  0  0
  139.9980   77.3640  222.4980 C   0  0  0  0  0  0  0  0  0  0  0  0
  138.9780   78.2190  222.8650 C   0  0  0  0  0  0  0  0  0  0  0  0
  139.2880   79.5040  223.3160 C   0  0  0  0  0  0  0  0  0  0  0  0
  140.6110   79.8980  223.3850 C   0  0  0  0  0  0  0  0  0  0  0  0
  140.9700   81.1630  223.8240 C   0  0  0  0  0  0  0  0  0  0  0  0
  142.3270   81.4930  223.8690 C   0  0  0  0  0  0  0  0  0  0  0  0
  143.3080   80.6170  223.4960 C   0  0  0  0  0  0  0  0  0  0  0  0
  142.9340   79.3700  223.0640 C   0  0  0  0  0  0  0  0  0  0  0  0
  141.6040   79.0180  223.0100 C   0  0  0  0  0  0  0  0  0  0  0  0
  141.2630   77.8070  222.5900 N   0  0  0  0  0  0  0  0  0  0  0  0
  141.7540   75.5690  221.6930 H   0  0  0  0  0  0  0  0  0  0  0  0
  139.7460   73.3591  221.7751 H   0  0  0  0  0  0  0  0  0  0  0  0
  140.1978   73.8828  220.0999 H   0  0  0  0  0  0  0  0  0  0  0  0
  142.8296   71.7693  218.9700 H   0  0  0  0  0  0  0  0  0  0  0  0
  143.1590   73.2873  218.2272 H   0  0  0  0  0  0  0  0  0  0  0  0
  144.8876   71.7548  220.3191 H   0  0  0  0  0  0  0  0  0  0  0  0
  145.4465   72.2628  218.7544 H   0  0  0  0  0  0  0  0  0  0  0  0
  145.7084   73.8068  221.0591 H   0  0  0  0  0  0  0  0  0  0  0  0
  145.6055   74.5527  219.4504 H   0  0  0  0  0  0  0  0  0  0  0  0
  143.7011   74.9806  221.5568 H   0  0  0  0  0  0  0  0  0  0  0  0
  143.6151   76.5238  216.3687 H   0  0  0  0  0  0  0  0  0  0  0  0
  142.3481   78.4521  217.2878 H   0  0  0  0  0  0  0  0  0  0  0  0
  141.7174   78.5685  219.6882 H   0  0  0  0  0  0  0  0  0  0  0  0
  137.9299   77.8909  222.8027 H   0  0  0  0  0  0  0  0  0  0  0  0
  138.4865   80.1962  223.6136 H   0  0  0  0  0  0  0  0  0  0  0  0
  140.2038   81.8906  224.1300 H   0  0  0  0  0  0  0  0  0  0  0  0
  142.6168   82.4952  224.2176 H   0  0  0  0  0  0  0  0  0  0  0  0
  144.3688   80.9044  223.5411 H   0  0  0  0  0  0  0  0  0  0  0  0
  143.7029   78.6453  222.7582 H   0  0  0  0  0  0  0  0  0  0  0  0
  1  2  2  0
  2  3  1  0
  3  4  1  0
  4  5  1  0
  5  6  2  0
  5  7  1  0
  7  8  1  0
  8  9  1  0
  9 10  1  0
 10 11  1  0
 11 12  1  0
 12 13  2  0
 13 14  1  0
 14 15  2  0
 15 16  1  0
 16 17  2  0
  2 18  1  0
 18 19  2  0
 19 20  1  0
 20 21  2  0
 21 22  1  0
 22 23  2  0
 23 24  1  0
 24 25  2  0
 25 26  1  0
 26 27  2  0
 11  7  1  0
 17 12  1  0
 27 18  1  0
 26 21  1  0
  3 28  1  0
  4 29  1  0
  4 30  1  0
  8 31  1  0
  8 32  1  0
  9 33  1  0
  9 34  1  0
 10 35  1  0
 10 36  1  0
 11 37  1  1
 14 38  1  0
 15 39  1  0
 16 40  1  0
 19 41  1  0
 20 42  1  0
 22 43  1  0
 23 44  1  0
 24 45  1  0
 25 46  1  0
M  END
>  <smiles>  (3) 
O=C(NCC(=O)N1CCC[C@H]1c1ncccn1)c1ccc2ccccc2n1

>  <score_type>  (3) 
oracle

>  <origin>  (3) 
autodockgpu

>  <m_score__min__energy>  (3) 
-8.3499999999999996

>  <m_primary>  (3) 
energy

>  <rmsd>  (3) 
7.407756186955309

>  <m_score__min__rmsd>  (3) 
7.407756186955309

>  <meeko>  (3) 
{"free_energy": -6.86, "intermolecular_energy": -8.35, "internal_energy": -2.81, "cluster_size": 11, "cluster_id": 4, "rank_in_cluster": 5}

>  <energy>  (3) 
-8.24

>  <cluster_rmsd>  (3) 
0.25

>  <cluster>  (3) 
1

$$$$

     RDKit          3D

 46 49  0  0  0  0  0  0  0  0999 V2000
  141.4730   72.1070  221.6910 O   0  0  0  0  0  0  0  0  0  0  0  0
  140.5050   72.3840  222.4510 C   0  0  0  0  0  0  0  0  0  0  0  0
  139.6310   73.4820  222.2190 N   0  0  0  0  0  0  0  0  0  0  0  0
  139.8270   74.3420  221.0680 C   0  0  0  0  0  0  0  0  0  0  0  0
  140.9780   75.2520  221.2570 C   0  0  0  0  0  0  0  0  0  0  0  0
  141.0780   75.9570  222.3050 O   0  0  0  0  0  0  0  0  0  0  0  0
  141.9530   75.2950  220.2200 N   0  0  0  0  0  0  0  0  0  0  0  0
  142.7490   76.4230  219.7580 C   0  0  0  0  0  0  0  0  0  0  0  0
  142.3840   76.3680  218.2890 C   0  0  0  0  0  0  0  0  0  0  0  0
  142.5120   74.8860  218.0160 C   0  0  0  0  0  0  0  0  0  0  0  0
  142.3850   74.1790  219.3630 C   0  0  1  0  0  0  0  0  0  0  0  0
  143.7160   73.6760  219.8120 C   0  0  0  0  0  0  0  0  0  0  0  0
  144.4140   74.2700  220.7970 N   0  0  0  0  0  0  0  0  0  0  0  0
  145.6300   73.7970  221.1960 C   0  0  0  0  0  0  0  0  0  0  0  0
  146.1140   72.6780  220.5430 C   0  0  0  0  0  0  0  0  0  0  0  0
  145.4240   72.0440  219.5290 C   0  0  0  0  0  0  0  0  0  0  0  0
  144.2200   72.5730  219.1860 N   0  0  0  0  0  0  0  0  0  0  0  0
  140.2590   71.5410  223.6380 C   0  0  0  0  0  0  0  0  0  0  0  0
  139.5550   70.3600  223.5160 C   0  0  0  0  0  0  0  0  0  0  0  0
  139.3320   69.5740  224.6480 C   0  0  0  0  0  0  0  0  0  0  0  0
  139.8180   69.9930  225.8720 C   0  0  0  0  0  0  0  0  0  0  0  0
  139.6210   69.2490  227.0250 C   0  0  0  0  0  0  0  0  0  0  0  0
  140.1400   69.7320  228.2280 C   0  0  0  0  0  0  0  0  0  0  0  0
  140.8330   70.9090  228.3080 C   0  0  0  0  0  0  0  0  0  0  0  0
  141.0170   71.6320  227.1570 C   0  0  0  0  0  0  0  0  0  0  0  0
  140.5160   71.1780  225.9580 C   0  0  0  0  0  0  0  0  0  0  0  0
  140.7060   71.8920  224.8560 N   0  0  0  0  0  0  0  0  0  0  0  0
  138.8400   73.6430  222.9120 H   0  0  0  0  0  0  0  0  0  0  0  0
  140.0086   73.7162  220.1818 H   0  0  0  0  0  0  0  0  0  0  0  0
  138.9224   74.9543  220.9383 H   0  0  0  0  0  0  0  0  0  0  0  0
  142.4393   77.3686  220.2270 H   0  0  0  0  0  0  0  0  0  0  0  0
  143.8241   76.3742  219.9854 H   0  0  0  0  0  0  0  0  0  0  0  0
  141.3580   76.7240  218.1139 H   0  0  0  0  0  0  0  0  0  0  0  0
  143.0067   77.0039  217.6426 H   0  0  0  0  0  0  0  0  0  0  0  0
  141.7121   74.5551  217.3373 H   0  0  0  0  0  0  0  0  0  0  0  0
  143.4744   74.6538  217.5366 H   0  0  0  0  0  0  0  0  0  0  0  0
  141.7133   73.3079  219.3622 H   0  0  0  0  0  0  0  0  0  0  0  0
  146.1999   74.2839  222.0011 H   0  0  0  0  0  0  0  0  0  0  0  0
  147.0921   72.2753  220.8449 H   0  0  0  0  0  0  0  0  0  0  0  0
  145.8287   71.1547  219.0237 H   0  0  0  0  0  0  0  0  0  0  0  0
  139.1729   70.0409  222.5351 H   0  0  0  0  0  0  0  0  0  0  0  0
  138.7743   68.6294  224.5664 H   0  0  0  0  0  0  0  0  0  0  0  0
  139.0678   68.2987  226.9929 H   0  0  0  0  0  0  0  0  0  0  0  0
  139.9860   69.1446  229.1452 H   0  0  0  0  0  0  0  0  0  0  0  0
  141.2317   71.2657  229.2691 H   0  0  0  0  0  0  0  0  0  0  0  0
  141.5695   72.5825  227.1924 H   0  0  0  0  0  0  0  0  0  0  0  0
  1  2  2  0
  2  3  1  0
  3  4  1  0
  4  5  1  0
  5  6  2  0
  5  7  1  0
  7  8  1  0
  8  9  1  0
  9 10  1  0
 10 11  1  0
 11 12  1  0
 12 13  2  0
 13 14  1  0
 14 15  2  0
 15 16  1  0
 16 17  2  0
  2 18  1  0
 18 19  2  0
 19 20  1  0
 20 21  2  0
 21 22  1  0
 22 23  2  0
 23 24  1  0
 24 25  2  0
 25 26  1  0
 26 27  2  0
 11  7  1  0
 17 12  1  0
 27 18  1  0
 26 21  1  0
  3 28  1  0
  4 29  1  0
  4 30  1  0
  8 31  1  0
  8 32  1  0
  9 33  1  0
  9 34  1  0
 10 35  1  0
 10 36  1  0
 11 37  1  6
 14 38  1  0
 15 39  1  0
 16 40  1  0
 19 41  1  0
 20 42  1  0
 22 43  1  0
 23 44  1  0
 24 45  1  0
 25 46  1  0
M  END
>  <smiles>  (4) 
O=C(NCC(=O)N1CCC[C@H]1c1ncccn1)c1ccc2ccccc2n1

>  <score_type>  (4) 
oracle

>  <origin>  (4) 
autodockgpu

>  <m_score__min__energy>  (4) 
-8.3499999999999996

>  <m_primary>  (4) 
energy

>  <rmsd>  (4) 
3.956907277622766

>  <m_score__min__rmsd>  (4) 
3.956907277622766

>  <meeko>  (4) 
{"free_energy": -8.07, "intermolecular_energy": -9.56, "internal_energy": -1.53, "cluster_size": 10, "cluster_id": 3, "rank_in_cluster": 3}

>  <energy>  (4) 
-8.23

>  <cluster_rmsd>  (4) 
0.39

>  <cluster>  (4) 
1

$$$$

     RDKit          3D

 46 49  0  0  0  0  0  0  0  0999 V2000
  138.5000   75.6320  221.9680 O   0  0  0  0  0  0  0  0  0  0  0  0
  139.7030   76.0100  222.0050 C   0  0  0  0  0  0  0  0  0  0  0  0
  140.7860   75.1810  221.6010 N   0  0  0  0  0  0  0  0  0  0  0  0
  140.5380   73.8350  221.1200 C   0  0  0  0  0  0  0  0  0  0  0  0
  141.7610   73.0050  221.1660 C   0  0  0  0  0  0  0  0  0  0  0  0
  141.8260   71.9920  221.9250 O   0  0  0  0  0  0  0  0  0  0  0  0
  142.8450   73.3930  220.3290 N   0  0  0  0  0  0  0  0  0  0  0  0
  143.3320   72.7620  219.1100 C   0  0  0  0  0  0  0  0  0  0  0  0
  144.7820   72.5870  219.5130 C   0  0  0  0  0  0  0  0  0  0  0  0
  145.0800   73.9410  220.1150 C   0  0  0  0  0  0  0  0  0  0  0  0
  143.7370   74.5490  220.5120 C   0  0  1  0  0  0  0  0  0  0  0  0
  143.3610   75.6390  219.5640 C   0  0  0  0  0  0  0  0  0  0  0  0
  143.6910   75.6050  218.2610 N   0  0  0  0  0  0  0  0  0  0  0  0
  143.3390   76.6090  217.4080 C   0  0  0  0  0  0  0  0  0  0  0  0
  142.6260   77.6670  217.9420 C   0  0  0  0  0  0  0  0  0  0  0  0
  142.2700   77.7350  219.2750 C   0  0  0  0  0  0  0  0  0  0  0  0
  142.6570   76.6960  220.0630 N   0  0  0  0  0  0  0  0  0  0  0  0
  140.0140   77.3710  222.4870 C   0  0  0  0  0  0  0  0  0  0  0  0
  138.9950   78.2240  222.8590 C   0  0  0  0  0  0  0  0  0  0  0  0
  139.3060   79.5070  223.3140 C   0  0  0  0  0  0  0  0  0  0  0  0
  140.6290   79.9010  223.3820 C   0  0  0  0  0  0  0  0  0  0  0  0
  140.9890   81.1640  223.8250 C   0  0  0  0  0  0  0  0  0  0  0  0
  142.3450   81.4950  223.8700 C   0  0  0  0  0  0  0  0  0  0  0  0
  143.3260   80.6200  223.4920 C   0  0  0  0  0  0  0  0  0  0  0  0
  142.9510   79.3740  223.0550 C   0  0  0  0  0  0  0  0  0  0  0  0
  141.6210   79.0230  223.0020 C   0  0  0  0  0  0  0  0  0  0  0  0
  141.2790   77.8130  222.5780 N   0  0  0  0  0  0  0  0  0  0  0  0
  141.7690   75.5810  221.6660 H   0  0  0  0  0  0  0  0  0  0  0  0
  139.7660   73.3679  221.7492 H   0  0  0  0  0  0  0  0  0  0  0  0
  140.2063   73.9000  220.0732 H   0  0  0  0  0  0  0  0  0  0  0  0
  142.8367   71.7994  218.9150 H   0  0  0  0  0  0  0  0  0  0  0  0
  143.1587   73.3223  218.1794 H   0  0  0  0  0  0  0  0  0  0  0  0
  144.9013   71.7812  220.2522 H   0  0  0  0  0  0  0  0  0  0  0  0
  145.4505   72.3009  218.6876 H   0  0  0  0  0  0  0  0  0  0  0  0
  145.7223   73.8291  221.0010 H   0  0  0  0  0  0  0  0  0  0  0  0
  145.6098   74.5852  219.3979 H   0  0  0  0  0  0  0  0  0  0  0  0
  143.7157   74.9961  221.5168 H   0  0  0  0  0  0  0  0  0  0  0  0
  143.6101   76.5788  216.3424 H   0  0  0  0  0  0  0  0  0  0  0  0
  142.3294   78.4906  217.2759 H   0  0  0  0  0  0  0  0  0  0  0  0
  141.7023   78.5863  219.6788 H   0  0  0  0  0  0  0  0  0  0  0  0
  137.9468   77.8961  222.7976 H   0  0  0  0  0  0  0  0  0  0  0  0
  138.5051   80.1980  223.6156 H   0  0  0  0  0  0  0  0  0  0  0  0
  140.2230   81.8902  224.1345 H   0  0  0  0  0  0  0  0  0  0  0  0
  142.6347   82.4960  224.2223 H   0  0  0  0  0  0  0  0  0  0  0  0
  144.3869   80.9071  223.5370 H   0  0  0  0  0  0  0  0  0  0  0  0
  143.7192   78.6504  222.7447 H   0  0  0  0  0  0  0  0  0  0  0  0
  1  2  2  0
  2  3  1  0
  3  4  1  0
  4  5  1  0
  5  6  2  0
  5  7  1  0
  7  8  1  0
  8  9  1  0
  9 10  1  0
 10 11  1  0
 11 12  1  0
 12 13  2  0
 13 14  1  0
 14 15  2  0
 15 16  1  0
 16 17  2  0
  2 18  1  0
 18 19  2  0
 19 20  1  0
 20 21  2  0
 21 22  1  0
 22 23  2  0
 23 24  1  0
 24 25  2  0
 25 26  1  0
 26 27  2  0
 11  7  1  0
 17 12  1  0
 27 18  1  0
 26 21  1  0
  3 28  1  0
  4 29  1  0
  4 30  1  0
  8 31  1  0
  8 32  1  0
  9 33  1  0
  9 34  1  0
 10 35  1  0
 10 36  1  0
 11 37  1  1
 14 38  1  0
 15 39  1  0
 16 40  1  0
 19 41  1  0
 20 42  1  0
 22 43  1  0
 23 44  1  0
 24 45  1  0
 25 46  1  0
M  END
>  <smiles>  (5) 
O=C(NCC(=O)N1CCC[C@H]1c1ncccn1)c1ccc2ccccc2n1

>  <score_type>  (5) 
oracle

>  <origin>  (5) 
autodockgpu

>  <m_score__min__energy>  (5) 
-8.3499999999999996

>  <m_primary>  (5) 
energy

>  <rmsd>  (5) 
7.407294736816227

>  <m_score__min__rmsd>  (5) 
7.407294736816227

>  <meeko>  (5) 
{"free_energy": -6.87, "intermolecular_energy": -8.36, "internal_energy": -2.82, "cluster_size": 11, "cluster_id": 4, "rank_in_cluster": 2}

>  <energy>  (5) 
-8.19

>  <cluster_rmsd>  (5) 
1.08

>  <cluster>  (5) 
1

$$$$

     RDKit          3D

 46 49  0  0  0  0  0  0  0  0999 V2000
  141.4400   72.1150  221.5160 O   0  0  0  0  0  0  0  0  0  0  0  0
  140.6070   72.4790  222.3910 C   0  0  0  0  0  0  0  0  0  0  0  0
  139.9330   73.7310  222.3420 N   0  0  0  0  0  0  0  0  0  0  0  0
  140.1860   74.6560  221.2540 C   0  0  0  0  0  0  0  0  0  0  0  0
  139.6790   76.0120  221.5620 C   0  0  0  0  0  0  0  0  0  0  0  0
  138.7720   76.1800  222.4310 O   0  0  0  0  0  0  0  0  0  0  0  0
  140.2500   77.1000  220.8430 N   0  0  0  0  0  0  0  0  0  0  0  0
  139.6040   78.0370  219.9360 C   0  0  0  0  0  0  0  0  0  0  0  0
  140.5050   77.8420  218.7330 C   0  0  0  0  0  0  0  0  0  0  0  0
  141.8690   77.8740  219.3870 C   0  0  0  0  0  0  0  0  0  0  0  0
  141.6570   77.5320  220.8590 C   0  0  1  0  0  0  0  0  0  0  0  0
  141.8060   78.7540  221.7030 C   0  0  0  0  0  0  0  0  0  0  0  0
  141.9280   79.9840  221.1710 N   0  0  0  0  0  0  0  0  0  0  0  0
  142.0640   81.0910  221.9570 C   0  0  0  0  0  0  0  0  0  0  0  0
  142.0690   80.8940  223.3250 C   0  0  0  0  0  0  0  0  0  0  0  0
  141.9450   79.6460  223.9050 C   0  0  0  0  0  0  0  0  0  0  0  0
  141.8140   78.5910  223.0580 N   0  0  0  0  0  0  0  0  0  0  0  0
  140.3110   71.5760  223.5220 C   0  0  0  0  0  0  0  0  0  0  0  0
  139.6110   70.4060  223.3090 C   0  0  0  0  0  0  0  0  0  0  0  0
  139.3400   69.5620  224.3880 C   0  0  0  0  0  0  0  0  0  0  0  0
  139.7760   69.9150  225.6510 C   0  0  0  0  0  0  0  0  0  0  0  0
  139.5300   69.1130  226.7550 C   0  0  0  0  0  0  0  0  0  0  0  0
  140.0010   69.5300  228.0010 C   0  0  0  0  0  0  0  0  0  0  0  0
  140.6910   70.6990  228.1720 C   0  0  0  0  0  0  0  0  0  0  0  0
  140.9240   71.4810  227.0680 C   0  0  0  0  0  0  0  0  0  0  0  0
  140.4720   71.0920  225.8270 C   0  0  0  0  0  0  0  0  0  0  0  0
  140.7080   71.8620  224.7730 N   0  0  0  0  0  0  0  0  0  0  0  0
  139.2470   73.9560  223.1230 H   0  0  0  0  0  0  0  0  0  0  0  0
  141.2704   74.7119  221.0780 H   0  0  0  0  0  0  0  0  0  0  0  0
  139.6611   74.2875  220.3603 H   0  0  0  0  0  0  0  0  0  0  0  0
  138.5619   77.7564  219.7232 H   0  0  0  0  0  0  0  0  0  0  0  0
  139.5125   79.0703  220.3020 H   0  0  0  0  0  0  0  0  0  0  0  0
  140.3163   76.8775  218.2388 H   0  0  0  0  0  0  0  0  0  0  0  0
  140.3661   78.5876  217.9363 H   0  0  0  0  0  0  0  0  0  0  0  0
  142.5323   77.1328  218.9172 H   0  0  0  0  0  0  0  0  0  0  0  0
  142.3393   78.8620  219.2738 H   0  0  0  0  0  0  0  0  0  0  0  0
  142.3643   76.7929  221.2634 H   0  0  0  0  0  0  0  0  0  0  0  0
  142.1652   82.0959  221.5211 H   0  0  0  0  0  0  0  0  0  0  0  0
  142.1765   81.7700  223.9815 H   0  0  0  0  0  0  0  0  0  0  0  0
  141.9520   79.5130  224.9969 H   0  0  0  0  0  0  0  0  0  0  0  0
  139.2693   70.1404  222.2977 H   0  0  0  0  0  0  0  0  0  0  0  0
  138.7847   68.6250  224.2341 H   0  0  0  0  0  0  0  0  0  0  0  0
  138.9757   68.1686  226.6511 H   0  0  0  0  0  0  0  0  0  0  0  0
  139.8103   68.8948  228.8786 H   0  0  0  0  0  0  0  0  0  0  0  0
  141.0491   71.0038  229.1664 H   0  0  0  0  0  0  0  0  0  0  0  0
  141.4763   72.4261  227.1757 H   0  0  0  0  0  0  0  0  0  0  0  0
  1  2  2  0
  2  3  1  0
  3  4  1  0
  4  5  1  0
  5  6  2  0
  5  7  1  0
  7  8  1  0
  8  9  1  0
  9 10  1  0
 10 11  1  0
 11 12  1  0
 12 13  2  0
 13 14  1  0
 14 15  2  0
 15 16  1  0
 16 17  2  0
  2 18  1  0
 18 19  2  0
 19 20  1  0
 20 21  2  0
 21 22  1  0
 22 23  2  0
 23 24  1  0
 24 25  2  0
 25 26  1  0
 26 27  2  0
 11  7  1  0
 17 12  1  0
 27 18  1  0
 26 21  1  0
  3 28  1  0
  4 29  1  0
  4 30  1  0
  8 31  1  0
  8 32  1  0
  9 33  1  0
  9 34  1  0
 10 35  1  0
 10 36  1  0
 11 37  1  1
 14 38  1  0
 15 39  1  0
 16 40  1  0
 19 41  1  0
 20 42  1  0
 22 43  1  0
 23 44  1  0
 24 45  1  0
 25 46  1  0
M  END
>  <smiles>  (6) 
O=C(NCC(=O)N1CCC[C@H]1c1ncccn1)c1ccc2ccccc2n1

>  <score_type>  (6) 
oracle

>  <origin>  (6) 
autodockgpu

>  <m_score__min__energy>  (6) 
-8.3499999999999996

>  <m_primary>  (6) 
energy

>  <rmsd>  (6) 
2.2375978380177184

>  <m_score__min__rmsd>  (6) 
2.2375978380177184

>  <meeko>  (6) 
{"free_energy": -8.05, "intermolecular_energy": -9.54, "internal_energy": -1.63, "cluster_size": 23, "cluster_id": 1, "rank_in_cluster": 17}

>  <energy>  (6) 
-8.18

>  <cluster_rmsd>  (6) 
0.97

>  <cluster>  (6) 
1

$$$$

     RDKit          3D

 46 49  0  0  0  0  0  0  0  0999 V2000
  141.4560   72.1640  221.5260 O   0  0  0  0  0  0  0  0  0  0  0  0
  140.5980   72.5000  222.3880 C   0  0  0  0  0  0  0  0  0  0  0  0
  139.8910   73.7330  222.3350 N   0  0  0  0  0  0  0  0  0  0  0  0
  140.1390   74.6720  221.2580 C   0  0  0  0  0  0  0  0  0  0  0  0
  139.7430   76.0480  221.6320 C   0  0  0  0  0  0  0  0  0  0  0  0
  138.9390   76.2500  222.5900 O   0  0  0  0  0  0  0  0  0  0  0  0
  140.3010   77.1160  220.8730 N   0  0  0  0  0  0  0  0  0  0  0  0
  139.6490   77.9940  219.9120 C   0  0  0  0  0  0  0  0  0  0  0  0
  140.5760   77.7660  218.7350 C   0  0  0  0  0  0  0  0  0  0  0  0
  141.9260   77.8610  219.4090 C   0  0  0  0  0  0  0  0  0  0  0  0
  141.6970   77.5820  220.8920 C   0  0  1  0  0  0  0  0  0  0  0  0
  141.8020   78.8450  221.6800 C   0  0  0  0  0  0  0  0  0  0  0  0
  141.8140   80.0580  221.0970 N   0  0  0  0  0  0  0  0  0  0  0  0
  141.9110   81.2030  221.8320 C   0  0  0  0  0  0  0  0  0  0  0  0
  141.9960   81.0630  223.2050 C   0  0  0  0  0  0  0  0  0  0  0  0
  141.9860   79.8340  223.8370 C   0  0  0  0  0  0  0  0  0  0  0  0
  141.8870   78.7390  223.0380 N   0  0  0  0  0  0  0  0  0  0  0  0
  140.3060   71.5820  223.5080 C   0  0  0  0  0  0  0  0  0  0  0  0
  139.6180   70.4080  223.2790 C   0  0  0  0  0  0  0  0  0  0  0  0
  139.3510   69.5490  224.3480 C   0  0  0  0  0  0  0  0  0  0  0  0
  139.7790   69.8920  225.6160 C   0  0  0  0  0  0  0  0  0  0  0  0
  139.5370   69.0750  226.7100 C   0  0  0  0  0  0  0  0  0  0  0  0
  139.9990   69.4830  227.9630 C   0  0  0  0  0  0  0  0  0  0  0  0
  140.6780   70.6560  228.1490 C   0  0  0  0  0  0  0  0  0  0  0  0
  140.9070   71.4520  227.0550 C   0  0  0  0  0  0  0  0  0  0  0  0
  140.4630   71.0730  225.8090 C   0  0  0  0  0  0  0  0  0  0  0  0
  140.6960   71.8570  224.7640 N   0  0  0  0  0  0  0  0  0  0  0  0
  139.1860   73.9350  223.1050 H   0  0  0  0  0  0  0  0  0  0  0  0
  141.2121   74.6627  221.0165 H   0  0  0  0  0  0  0  0  0  0  0  0
  139.5378   74.3654  220.3894 H   0  0  0  0  0  0  0  0  0  0  0  0
  138.6180   77.6781  219.6949 H   0  0  0  0  0  0  0  0  0  0  0  0
  139.5261   79.0405  220.2277 H   0  0  0  0  0  0  0  0  0  0  0  0
  140.4189   76.7756  218.2829 H   0  0  0  0  0  0  0  0  0  0  0  0
  140.4340   78.4709  217.9025 H   0  0  0  0  0  0  0  0  0  0  0  0
  142.6146   77.1153  218.9850 H   0  0  0  0  0  0  0  0  0  0  0  0
  142.3743   78.8541  219.2581 H   0  0  0  0  0  0  0  0  0  0  0  0
  142.4144   76.8799  221.3418 H   0  0  0  0  0  0  0  0  0  0  0  0
  141.9211   82.1936  221.3538 H   0  0  0  0  0  0  0  0  0  0  0  0
  142.0751   81.9704  223.8218 H   0  0  0  0  0  0  0  0  0  0  0  0
  142.0547   79.7464  224.9314 H   0  0  0  0  0  0  0  0  0  0  0  0
  139.2826   70.1506  222.2635 H   0  0  0  0  0  0  0  0  0  0  0  0
  138.8052   68.6086  224.1817 H   0  0  0  0  0  0  0  0  0  0  0  0
  138.9929   68.1261  226.5933 H   0  0  0  0  0  0  0  0  0  0  0  0
  139.8099   68.8371  228.8331 H   0  0  0  0  0  0  0  0  0  0  0  0
  141.0306   70.9528  229.1478 H   0  0  0  0  0  0  0  0  0  0  0  0
  141.4501   72.4010  227.1751 H   0  0  0  0  0  0  0  0  0  0  0  0
  1  2  2  0
  2  3  1  0
  3  4  1  0
  4  5  1  0
  5  6  2  0
  5  7  1  0
  7  8  1  0
  8  9  1  0
  9 10  1  0
 10 11  1  0
 11 12  1  0
 12 13  2  0
 13 14  1  0
 14 15  2  0
 15 16  1  0
 16 17  2  0
  2 18  1  0
 18 19  2  0
 19 20  1  0
 20 21  2  0
 21 22  1  0
 22 23  2  0
 23 24  1  0
 24 25  2  0
 25 26  1  0
 26 27  2  0
 11  7  1  0
 17 12  1  0
 27 18  1  0
 26 21  1  0
  3 28  1  0
  4 29  1  0
  4 30  1  0
  8 31  1  0
  8 32  1  0
  9 33  1  0
  9 34  1  0
 10 35  1  0
 10 36  1  0
 11 37  1  1
 14 38  1  0
 15 39  1  0
 16 40  1  0
 19 41  1  0
 20 42  1  0
 22 43  1  0
 23 44  1  0
 24 45  1  0
 25 46  1  0
M  END
>  <smiles>  (7) 
O=C(NCC(=O)N1CCC[C@H]1c1ncccn1)c1ccc2ccccc2n1

>  <score_type>  (7) 
oracle

>  <origin>  (7) 
autodockgpu

>  <m_score__min__energy>  (7) 
-8.3499999999999996

>  <m_primary>  (7) 
energy

>  <rmsd>  (7) 
2.2192493539324922

>  <m_score__min__rmsd>  (7) 
2.2192493539324922

>  <meeko>  (7) 
{"free_energy": -8.08, "intermolecular_energy": -9.57, "internal_energy": -1.62, "cluster_size": 23, "cluster_id": 1, "rank_in_cluster": 13}

>  <energy>  (7) 
-8.17

>  <cluster_rmsd>  (7) 
0.37

>  <cluster>  (7) 
1

$$$$

     RDKit          3D

 46 49  0  0  0  0  0  0  0  0999 V2000
  141.1550   74.4550  221.3500 O   0  0  0  0  0  0  0  0  0  0  0  0
  140.1200   74.8510  221.9530 C   0  0  0  0  0  0  0  0  0  0  0  0
  139.0520   73.9810  222.3060 N   0  0  0  0  0  0  0  0  0  0  0  0
  139.1180   72.5700  221.9760 C   0  0  0  0  0  0  0  0  0  0  0  0
  139.7160   71.7800  223.0750 C   0  0  0  0  0  0  0  0  0  0  0  0
  140.6960   72.2340  223.7370 O   0  0  0  0  0  0  0  0  0  0  0  0
  139.1440   70.5040  223.3470 N   0  0  0  0  0  0  0  0  0  0  0  0
  139.1790   69.2950  222.5370 C   0  0  0  0  0  0  0  0  0  0  0  0
  137.6890   69.0330  222.4620 C   0  0  0  0  0  0  0  0  0  0  0  0
  137.2850   69.2500  223.9030 C   0  0  0  0  0  0  0  0  0  0  0  0
  138.3720   70.1140  224.5370 C   0  0  1  0  0  0  0  0  0  0  0  0
  139.2220   69.2930  225.4490 C   0  0  0  0  0  0  0  0  0  0  0  0
  139.0460   67.9670  225.5950 N   0  0  0  0  0  0  0  0  0  0  0  0
  139.8310   67.2310  226.4340 C   0  0  0  0  0  0  0  0  0  0  0  0
  140.8180   67.9080  227.1270 C   0  0  0  0  0  0  0  0  0  0  0  0
  141.0260   69.2680  227.0010 C   0  0  0  0  0  0  0  0  0  0  0  0
  140.2030   69.9340  226.1470 N   0  0  0  0  0  0  0  0  0  0  0  0
  139.9990   76.2780  222.3140 C   0  0  0  0  0  0  0  0  0  0  0  0
  138.7560   76.8750  222.3700 C   0  0  0  0  0  0  0  0  0  0  0  0
  138.6580   78.2250  222.7140 C   0  0  0  0  0  0  0  0  0  0  0  0
  139.8080   78.9400  222.9890 C   0  0  0  0  0  0  0  0  0  0  0  0
  139.7630   80.2820  223.3330 C   0  0  0  0  0  0  0  0  0  0  0  0
  140.9640   80.9430  223.6000 C   0  0  0  0  0  0  0  0  0  0  0  0
  142.1780   80.3160  223.5320 C   0  0  0  0  0  0  0  0  0  0  0  0
  142.2020   78.9870  223.1900 C   0  0  0  0  0  0  0  0  0  0  0  0
  141.0330   78.3120  222.9230 C   0  0  0  0  0  0  0  0  0  0  0  0
  141.0780   77.0280  222.5940 N   0  0  0  0  0  0  0  0  0  0  0  0
  138.2160   74.4000  222.8130 H   0  0  0  0  0  0  0  0  0  0  0  0
  138.0999   72.2005  221.7840 H   0  0  0  0  0  0  0  0  0  0  0  0
  139.7528   72.4548  221.0851 H   0  0  0  0  0  0  0  0  0  0  0  0
  139.6191   69.4733  221.5448 H   0  0  0  0  0  0  0  0  0  0  0  0
  139.7899   68.4710  222.9342 H   0  0  0  0  0  0  0  0  0  0  0  0
  137.1870   69.7448  221.7901 H   0  0  0  0  0  0  0  0  0  0  0  0
  137.4221   68.0444  222.0602 H   0  0  0  0  0  0  0  0  0  0  0  0
  136.3145   69.7655  223.9513 H   0  0  0  0  0  0  0  0  0  0  0  0
  137.1808   68.2921  224.4336 H   0  0  0  0  0  0  0  0  0  0  0  0
  137.9955   70.9525  225.1413 H   0  0  0  0  0  0  0  0  0  0  0  0
  139.6853   66.1473  226.5539 H   0  0  0  0  0  0  0  0  0  0  0  0
  141.4663   67.3382  227.8089 H   0  0  0  0  0  0  0  0  0  0  0  0
  141.8172   69.7860  227.5629 H   0  0  0  0  0  0  0  0  0  0  0  0
  137.8502   76.2926  222.1456 H   0  0  0  0  0  0  0  0  0  0  0  0
  137.6743   78.7146  222.7656 H   0  0  0  0  0  0  0  0  0  0  0  0
  138.8025   80.8147  223.3943 H   0  0  0  0  0  0  0  0  0  0  0  0
  140.9326   82.0075  223.8753 H   0  0  0  0  0  0  0  0  0  0  0  0
  143.1089   80.8617  223.7454 H   0  0  0  0  0  0  0  0  0  0  0  0
  143.1639   78.4569  223.1288 H   0  0  0  0  0  0  0  0  0  0  0  0
  1  2  2  0
  2  3  1  0
  3  4  1  0
  4  5  1  0
  5  6  2  0
  5  7  1  0
  7  8  1  0
  8  9  1  0
  9 10  1  0
 10 11  1  0
 11 12  1  0
 12 13  2  0
 13 14  1  0
 14 15  2  0
 15 16  1  0
 16 17  2  0
  2 18  1  0
 18 19  2  0
 19 20  1  0
 20 21  2  0
 21 22  1  0
 22 23  2  0
 23 24  1  0
 24 25  2  0
 25 26  1  0
 26 27  2  0
 11  7  1  0
 17 12  1  0
 27 18  1  0
 26 21  1  0
  3 28  1  0
  4 29  1  0
  4 30  1  0
  8 31  1  0
  8 32  1  0
  9 33  1  0
  9 34  1  0
 10 35  1  0
 10 36  1  0
 11 37  1  1
 14 38  1  0
 15 39  1  0
 16 40  1  0
 19 41  1  0
 20 42  1  0
 22 43  1  0
 23 44  1  0
 24 45  1  0
 25 46  1  0
M  END
>  <smiles>  (8) 
O=C(NCC(=O)N1CCC[C@H]1c1ncccn1)c1ccc2ccccc2n1

>  <score_type>  (8) 
oracle

>  <origin>  (8) 
autodockgpu

>  <m_score__min__energy>  (8) 
-8.3499999999999996

>  <m_primary>  (8) 
energy

>  <rmsd>  (8) 
9.08872400241643

>  <m_score__min__rmsd>  (8) 
9.08872400241643

>  <meeko>  (8) 
{"free_energy": -8.26, "intermolecular_energy": -9.76, "internal_energy": -1.22, "cluster_size": 2, "cluster_id": 2, "rank_in_cluster": 2}

>  <energy>  (8) 
-8.13

>  <cluster_rmsd>  (8) 
1.07

>  <cluster>  (8) 
1

$$$$

     RDKit          3D

 46 49  0  0  0  0  0  0  0  0999 V2000
  141.3570   72.4590  221.8490 O   0  0  0  0  0  0  0  0  0  0  0  0
  140.3220   72.5010  222.5680 C   0  0  0  0  0  0  0  0  0  0  0  0
  139.2640   73.4260  222.3470 N   0  0  0  0  0  0  0  0  0  0  0  0
  139.3410   74.3780  221.2560 C   0  0  0  0  0  0  0  0  0  0  0  0
  140.2970   75.4680  221.5510 C   0  0  0  0  0  0  0  0  0  0  0  0
  141.5190   75.2140  221.7670 O   0  0  0  0  0  0  0  0  0  0  0  0
  139.7830   76.7960  221.5780 N   0  0  0  0  0  0  0  0  0  0  0  0
  138.5920   77.3030  222.2430 C   0  0  0  0  0  0  0  0  0  0  0  0
  137.9230   77.9460  221.0460 C   0  0  0  0  0  0  0  0  0  0  0  0
  139.0920   78.6710  220.4180 C   0  0  0  0  0  0  0  0  0  0  0  0
  140.3570   77.9830  220.9230 C   0  0  1  0  0  0  0  0  0  0  0  0
  141.0470   78.8390  221.9320 C   0  0  0  0  0  0  0  0  0  0  0  0
  141.5010   80.0710  221.6400 N   0  0  0  0  0  0  0  0  0  0  0  0
  142.1300   80.8400  222.5740 C   0  0  0  0  0  0  0  0  0  0  0  0
  142.2800   80.2980  223.8370 C   0  0  0  0  0  0  0  0  0  0  0  0
  141.8250   79.0370  224.1720 C   0  0  0  0  0  0  0  0  0  0  0  0
  141.2090   78.3300  223.1880 N   0  0  0  0  0  0  0  0  0  0  0  0
  140.1910   71.5540  223.6940 C   0  0  0  0  0  0  0  0  0  0  0  0
  139.5770   70.3330  223.5040 C   0  0  0  0  0  0  0  0  0  0  0  0
  139.4610   69.4480  224.5790 C   0  0  0  0  0  0  0  0  0  0  0  0
  139.9620   69.8120  225.8140 C   0  0  0  0  0  0  0  0  0  0  0  0
  139.8710   68.9700  226.9120 C   0  0  0  0  0  0  0  0  0  0  0  0
  140.3990   69.4020  228.1300 C   0  0  0  0  0  0  0  0  0  0  0  0
  141.0010   70.6220  228.2780 C   0  0  0  0  0  0  0  0  0  0  0  0
  141.0810   71.4420  227.1810 C   0  0  0  0  0  0  0  0  0  0  0  0
  140.5690   71.0400  225.9680 C   0  0  0  0  0  0  0  0  0  0  0  0
  140.6570   71.8480  224.9190 N   0  0  0  0  0  0  0  0  0  0  0  0
  138.4280   73.3910  223.0040 H   0  0  0  0  0  0  0  0  0  0  0  0
  139.6679   73.8529  220.3464 H   0  0  0  0  0  0  0  0  0  0  0  0
  138.3446   74.8226  221.1162 H   0  0  0  0  0  0  0  0  0  0  0  0
  137.9824   76.4952  222.6741 H   0  0  0  0  0  0  0  0  0  0  0  0
  138.7704   77.9650  223.1032 H   0  0  0  0  0  0  0  0  0  0  0  0
  137.5021   77.1918  220.3648 H   0  0  0  0  0  0  0  0  0  0  0  0
  137.0694   78.5930  221.2965 H   0  0  0  0  0  0  0  0  0  0  0  0
  139.0355   78.6031  219.3216 H   0  0  0  0  0  0  0  0  0  0  0  0
  139.0871   79.7375  220.6873 H   0  0  0  0  0  0  0  0  0  0  0  0
  141.1030   77.7678  220.1438 H   0  0  0  0  0  0  0  0  0  0  0  0
  142.5016   81.8469  222.3333 H   0  0  0  0  0  0  0  0  0  0  0  0
  142.7840   80.8973  224.6096 H   0  0  0  0  0  0  0  0  0  0  0  0
  141.9548   78.6260  225.1840 H   0  0  0  0  0  0  0  0  0  0  0  0
  139.1822   70.0587  222.5146 H   0  0  0  0  0  0  0  0  0  0  0  0
  138.9752   68.4704  224.4432 H   0  0  0  0  0  0  0  0  0  0  0  0
  139.3931   67.9830  226.8252 H   0  0  0  0  0  0  0  0  0  0  0  0
  140.3285   68.7369  229.0033 H   0  0  0  0  0  0  0  0  0  0  0  0
  141.4095   70.9365  229.2497 H   0  0  0  0  0  0  0  0  0  0  0  0
  141.5582   72.4289  227.2714 H   0  0  0  0  0  0  0  0  0  0  0  0
  1  2  2  0
  2  3  1  0
  3  4  1  0
  4  5  1  0
  5  6  2  0
  5  7  1  0
  7  8  1  0
  8  9  1  0
  9 10  1  0
 10 11  1  0
 11 12  1  0
 12 13  2  0
 13 14  1  0
 14 15  2  0
 15 16  1  0
 16 17  2  0
  2 18  1  0
 18 19  2  0
 19 20  1  0
 20 21  2  0
 21 22  1  0
 22 23  2  0
 23 24  1  0
 24 25  2  0
 25 26  1  0
 26 27  2  0
 11  7  1  0
 17 12  1  0
 27 18  1  0
 26 21  1  0
  3 28  1  0
  4 29  1  0
  4 30  1  0
  8 31  1  0
  8 32  1  0
  9 33  1  0
  9 34  1  0
 10 35  1  0
 10 36  1  0
 11 37  1  6
 14 38  1  0
 15 39  1  0
 16 40  1  0
 19 41  1  0
 20 42  1  0
 22 43  1  0
 23 44  1  0
 24 45  1  0
 25 46  1  0
M  END
>  <smiles>  (9) 
O=C(NCC(=O)N1CCC[C@H]1c1ncccn1)c1ccc2ccccc2n1

>  <score_type>  (9) 
oracle

>  <origin>  (9) 
autodockgpu

>  <m_score__min__energy>  (9) 
-8.3499999999999996

>  <m_primary>  (9) 
energy

>  <rmsd>  (9) 
2.557846602059924

>  <m_score__min__rmsd>  (9) 
2.557846602059924

>  <meeko>  (9) 
{"free_energy": -8.29, "intermolecular_energy": -9.78, "internal_energy": -1.2, "cluster_size": 23, "cluster_id": 1, "rank_in_cluster": 2}

>  <energy>  (9) 
-8.12

>  <cluster_rmsd>  (9) 
0.97

>  <cluster>  (9) 
1

$$$$

     RDKit          3D

 46 49  0  0  0  0  0  0  0  0999 V2000
  141.3570   71.9870  221.6260 O   0  0  0  0  0  0  0  0  0  0  0  0
  140.4960   72.3500  222.4730 C   0  0  0  0  0  0  0  0  0  0  0  0
  139.7230   73.5360  222.3310 N   0  0  0  0  0  0  0  0  0  0  0  0
  139.9040   74.3920  221.1740 C   0  0  0  0  0  0  0  0  0  0  0  0
  139.3410   75.7410  221.4000 C   0  0  0  0  0  0  0  0  0  0  0  0
  138.2470   75.8880  222.0220 O   0  0  0  0  0  0  0  0  0  0  0  0
  140.0780   76.8490  220.8930 N   0  0  0  0  0  0  0  0  0  0  0  0
  139.6750   77.8430  219.9080 C   0  0  0  0  0  0  0  0  0  0  0  0
  140.8310   77.6830  218.9420 C   0  0  0  0  0  0  0  0  0  0  0  0
  142.0030   77.6520  219.8970 C   0  0  0  0  0  0  0  0  0  0  0  0
  141.4470   77.2460  221.2600 C   0  0  1  0  0  0  0  0  0  0  0  0
  141.4080   78.4230  222.1760 C   0  0  0  0  0  0  0  0  0  0  0  0
  140.3560   78.6770  222.9760 N   0  0  0  0  0  0  0  0  0  0  0  0
  140.3360   79.7580  223.8080 C   0  0  0  0  0  0  0  0  0  0  0  0
  141.4460   80.5830  223.7940 C   0  0  0  0  0  0  0  0  0  0  0  0
  142.5420   80.3520  222.9860 C   0  0  0  0  0  0  0  0  0  0  0  0
  142.4890   79.2560  222.1840 N   0  0  0  0  0  0  0  0  0  0  0  0
  140.2700   71.5160  223.6710 C   0  0  0  0  0  0  0  0  0  0  0  0
  139.5870   70.3220  223.5660 C   0  0  0  0  0  0  0  0  0  0  0  0
  139.3830   69.5440  224.7080 C   0  0  0  0  0  0  0  0  0  0  0  0
  139.8680   69.9860  225.9240 C   0  0  0  0  0  0  0  0  0  0  0  0
  139.6900   69.2510  227.0870 C   0  0  0  0  0  0  0  0  0  0  0  0
  140.2070   69.7570  228.2810 C   0  0  0  0  0  0  0  0  0  0  0  0
  140.8790   70.9470  228.3450 C   0  0  0  0  0  0  0  0  0  0  0  0
  141.0440   71.6600  227.1850 C   0  0  0  0  0  0  0  0  0  0  0  0
  140.5450   71.1840  225.9930 C   0  0  0  0  0  0  0  0  0  0  0  0
  140.7170   71.8890  224.8820 N   0  0  0  0  0  0  0  0  0  0  0  0
  139.0190   73.7650  223.0940 H   0  0  0  0  0  0  0  0  0  0  0  0
  140.9797   74.4850  220.9638 H   0  0  0  0  0  0  0  0  0  0  0  0
  139.3749   73.9369  220.3238 H   0  0  0  0  0  0  0  0  0  0  0  0
  138.7090   77.5975  219.4427 H   0  0  0  0  0  0  0  0  0  0  0  0
  139.5125   78.8600  220.2944 H   0  0  0  0  0  0  0  0  0  0  0  0
  140.7520   76.7474  218.3690 H   0  0  0  0  0  0  0  0  0  0  0  0
  140.8923   78.4684  218.1743 H   0  0  0  0  0  0  0  0  0  0  0  0
  142.7491   76.9183  219.5580 H   0  0  0  0  0  0  0  0  0  0  0  0
  142.4984   78.6328  219.9477 H   0  0  0  0  0  0  0  0  0  0  0  0
  142.0306   76.4723  221.7803 H   0  0  0  0  0  0  0  0  0  0  0  0
  139.4752   79.9643  224.4610 H   0  0  0  0  0  0  0  0  0  0  0  0
  141.4563   81.4618  224.4555 H   0  0  0  0  0  0  0  0  0  0  0  0
  143.4145   81.0218  222.9913 H   0  0  0  0  0  0  0  0  0  0  0  0
  139.2060   69.9853  222.5906 H   0  0  0  0  0  0  0  0  0  0  0  0
  138.8416   68.5889  224.6400 H   0  0  0  0  0  0  0  0  0  0  0  0
  139.1535   68.2909  227.0688 H   0  0  0  0  0  0  0  0  0  0  0  0
  140.0688   69.1769  229.2054 H   0  0  0  0  0  0  0  0  0  0  0  0
  141.2759   71.3215  229.3001 H   0  0  0  0  0  0  0  0  0  0  0  0
  141.5797   72.6205  227.2070 H   0  0  0  0  0  0  0  0  0  0  0  0
  1  2  2  0
  2  3  1  0
  3  4  1  0
  4  5  1  0
  5  6  2  0
  5  7  1  0
  7  8  1  0
  8  9  1  0
  9 10  1  0
 10 11  1  0
 11 12  1  0
 12 13  2  0
 13 14  1  0
 14 15  2  0
 15 16  1  0
 16 17  2  0
  2 18  1  0
 18 19  2  0
 19 20  1  0
 20 21  2  0
 21 22  1  0
 22 23  2  0
 23 24  1  0
 24 25  2  0
 25 26  1  0
 26 27  2  0
 11  7  1  0
 17 12  1  0
 27 18  1  0
 26 21  1  0
  3 28  1  0
  4 29  1  0
  4 30  1  0
  8 31  1  0
  8 32  1  0
  9 33  1  0
  9 34  1  0
 10 35  1  0
 10 36  1  0
 11 37  1  1
 14 38  1  0
 15 39  1  0
 16 40  1  0
 19 41  1  0
 20 42  1  0
 22 43  1  0
 23 44  1  0
 24 45  1  0
 25 46  1  0
M  END
>  <smiles>  (10) 
O=C(NCC(=O)N1CCC[C@H]1c1ncccn1)c1ccc2ccccc2n1

>  <score_type>  (10) 
oracle

>  <origin>  (10) 
autodockgpu

>  <m_score__min__energy>  (10) 
-8.3499999999999996

>  <m_primary>  (10) 
energy

>  <rmsd>  (10) 
2.0441292075488846

>  <m_score__min__rmsd>  (10) 
2.0441292075488846

>  <meeko>  (10) 
{"free_energy": -8.13, "intermolecular_energy": -9.62, "internal_energy": -1.51, "cluster_size": 23, "cluster_id": 1, "rank_in_cluster": 8}

>  <energy>  (10) 
-8.1

>  <cluster_rmsd>  (10) 
0.96

>  <cluster>  (10) 
1

$$$$

     RDKit          3D

 46 49  0  0  0  0  0  0  0  0999 V2000
  141.5030   72.0330  221.7130 O   0  0  0  0  0  0  0  0  0  0  0  0
  140.5220   72.3180  222.4510 C   0  0  0  0  0  0  0  0  0  0  0  0
  139.6380   73.3990  222.1790 N   0  0  0  0  0  0  0  0  0  0  0  0
  139.8410   74.2320  221.0090 C   0  0  0  0  0  0  0  0  0  0  0  0
  140.8050   75.3230  221.2760 C   0  0  0  0  0  0  0  0  0  0  0  0
  140.7450   75.9880  222.3530 O   0  0  0  0  0  0  0  0  0  0  0  0
  141.7880   75.5830  220.2790 N   0  0  0  0  0  0  0  0  0  0  0  0
  142.5600   76.7960  220.0490 C   0  0  0  0  0  0  0  0  0  0  0  0
  142.2100   77.0100  218.5900 C   0  0  0  0  0  0  0  0  0  0  0  0
  142.3780   75.6100  218.0450 C   0  0  0  0  0  0  0  0  0  0  0  0
  142.2570   74.6590  219.2330 C   0  0  1  0  0  0  0  0  0  0  0  0
  143.5960   74.1110  219.5990 C   0  0  0  0  0  0  0  0  0  0  0  0
  144.0890   74.1910  220.8490 N   0  0  0  0  0  0  0  0  0  0  0  0
  145.3150   73.6860  221.1660 C   0  0  0  0  0  0  0  0  0  0  0  0
  146.0310   73.0850  220.1460 C   0  0  0  0  0  0  0  0  0  0  0  0
  145.5550   72.9850  218.8530 C   0  0  0  0  0  0  0  0  0  0  0  0
  144.3250   73.5130  218.6130 N   0  0  0  0  0  0  0  0  0  0  0  0
  140.2680   71.5040  223.6570 C   0  0  0  0  0  0  0  0  0  0  0  0
  139.5540   70.3270  223.5600 C   0  0  0  0  0  0  0  0  0  0  0  0
  139.3230   69.5670  224.7090 C   0  0  0  0  0  0  0  0  0  0  0  0
  139.8120   70.0080  225.9230 C   0  0  0  0  0  0  0  0  0  0  0  0
  139.6090   69.2910  227.0920 C   0  0  0  0  0  0  0  0  0  0  0  0
  140.1320   69.7950  228.2840 C   0  0  0  0  0  0  0  0  0  0  0  0
  140.8360   70.9670  228.3390 C   0  0  0  0  0  0  0  0  0  0  0  0
  141.0260   71.6630  227.1730 C   0  0  0  0  0  0  0  0  0  0  0  0
  140.5220   71.1880  225.9840 C   0  0  0  0  0  0  0  0  0  0  0  0
  140.7180   71.8770  224.8660 N   0  0  0  0  0  0  0  0  0  0  0  0
  138.8360   73.5690  222.8560 H   0  0  0  0  0  0  0  0  0  0  0  0
  140.2266   73.6079  220.1893 H   0  0  0  0  0  0  0  0  0  0  0  0
  138.8759   74.6850  220.7382 H   0  0  0  0  0  0  0  0  0  0  0  0
  142.2222   77.6290  220.6830 H   0  0  0  0  0  0  0  0  0  0  0  0
  143.6338   76.7302  220.2785 H   0  0  0  0  0  0  0  0  0  0  0  0
  141.1770   77.3687  218.4707 H   0  0  0  0  0  0  0  0  0  0  0  0
  142.8225   77.7704  218.0835 H   0  0  0  0  0  0  0  0  0  0  0  0
  141.5928   75.3944  217.3054 H   0  0  0  0  0  0  0  0  0  0  0  0
  143.3503   75.4948  217.5435 H   0  0  0  0  0  0  0  0  0  0  0  0
  141.6083   73.7881  219.0580 H   0  0  0  0  0  0  0  0  0  0  0  0
  145.7172   73.7534  222.1876 H   0  0  0  0  0  0  0  0  0  0  0  0
  147.0231   72.6684  220.3747 H   0  0  0  0  0  0  0  0  0  0  0  0
  146.1416   72.5024  218.0574 H   0  0  0  0  0  0  0  0  0  0  0  0
  139.1699   69.9901  222.5858 H   0  0  0  0  0  0  0  0  0  0  0  0
  138.7568   68.6259  224.6475 H   0  0  0  0  0  0  0  0  0  0  0  0
  139.0477   68.3450  227.0805 H   0  0  0  0  0  0  0  0  0  0  0  0
  139.9723   69.2290  229.2136 H   0  0  0  0  0  0  0  0  0  0  0  0
  141.2384   71.3405  229.2922 H   0  0  0  0  0  0  0  0  0  0  0  0
  141.5863   72.6095  227.1882 H   0  0  0  0  0  0  0  0  0  0  0  0
  1  2  2  0
  2  3  1  0
  3  4  1  0
  4  5  1  0
  5  6  2  0
  5  7  1  0
  7  8  1  0
  8  9  1  0
  9 10  1  0
 10 11  1  0
 11 12  1  0
 12 13  2  0
 13 14  1  0
 14 15  2  0
 15 16  1  0
 16 17  2  0
  2 18  1  0
 18 19  2  0
 19 20  1  0
 20 21  2  0
 21 22  1  0
 22 23  2  0
 23 24  1  0
 24 25  2  0
 25 26  1  0
 26 27  2  0
 11  7  1  0
 17 12  1  0
 27 18  1  0
 26 21  1  0
  3 28  1  0
  4 29  1  0
  4 30  1  0
  8 31  1  0
  8 32  1  0
  9 33  1  0
  9 34  1  0
 10 35  1  0
 10 36  1  0
 11 37  1  6
 14 38  1  0
 15 39  1  0
 16 40  1  0
 19 41  1  0
 20 42  1  0
 22 43  1  0
 23 44  1  0
 24 45  1  0
 25 46  1  0
M  END
>  <smiles>  (11) 
O=C(NCC(=O)N1CCC[C@H]1c1ncccn1)c1ccc2ccccc2n1

>  <score_type>  (11) 
oracle

>  <origin>  (11) 
autodockgpu

>  <m_score__min__energy>  (11) 
-8.3499999999999996

>  <m_primary>  (11) 
energy

>  <rmsd>  (11) 
3.784269043234231

>  <m_score__min__rmsd>  (11) 
3.784269043234231

>  <meeko>  (11) 
{"free_energy": -8.02, "intermolecular_energy": -9.51, "internal_energy": -1.56, "cluster_size": 10, "cluster_id": 3, "rank_in_cluster": 5}

>  <energy>  (11) 
-8.09

>  <cluster_rmsd>  (11) 
0.96

>  <cluster>  (11) 
1

$$$$

     RDKit          3D

 46 49  0  0  0  0  0  0  0  0999 V2000
  141.1890   72.0680  221.3820 O   0  0  0  0  0  0  0  0  0  0  0  0
  140.4600   72.4610  222.3340 C   0  0  0  0  0  0  0  0  0  0  0  0
  139.8340   73.7380  222.3510 N   0  0  0  0  0  0  0  0  0  0  0  0
  140.0170   74.6570  221.2440 C   0  0  0  0  0  0  0  0  0  0  0  0
  139.6300   76.0370  221.6100 C   0  0  0  0  0  0  0  0  0  0  0  0
  138.8030   76.2480  222.5470 O   0  0  0  0  0  0  0  0  0  0  0  0
  140.2230   77.0990  220.8700 N   0  0  0  0  0  0  0  0  0  0  0  0
  139.5960   78.0320  219.9450 C   0  0  0  0  0  0  0  0  0  0  0  0
  140.4910   77.7940  218.7460 C   0  0  0  0  0  0  0  0  0  0  0  0
  141.8550   77.8110  219.3970 C   0  0  0  0  0  0  0  0  0  0  0  0
  141.6390   77.5020  220.8760 C   0  0  1  0  0  0  0  0  0  0  0  0
  141.8140   78.7370  221.6960 C   0  0  0  0  0  0  0  0  0  0  0  0
  141.9640   79.9530  221.1400 N   0  0  0  0  0  0  0  0  0  0  0  0
  142.1230   81.0720  221.9030 C   0  0  0  0  0  0  0  0  0  0  0  0
  142.1240   80.9020  223.2760 C   0  0  0  0  0  0  0  0  0  0  0  0
  141.9730   79.6690  223.8800 C   0  0  0  0  0  0  0  0  0  0  0  0
  141.8190   78.6000  223.0530 N   0  0  0  0  0  0  0  0  0  0  0  0
  140.2400   71.5660  223.4880 C   0  0  0  0  0  0  0  0  0  0  0  0
  139.5910   70.3600  223.3160 C   0  0  0  0  0  0  0  0  0  0  0  0
  139.3910   69.5240  224.4170 C   0  0  0  0  0  0  0  0  0  0  0  0
  139.8450   69.9210  225.6600 C   0  0  0  0  0  0  0  0  0  0  0  0
  139.6700   69.1280  226.7840 C   0  0  0  0  0  0  0  0  0  0  0  0
  140.1540   69.5910  228.0100 C   0  0  0  0  0  0  0  0  0  0  0  0
  140.7920   70.7940  228.1400 C   0  0  0  0  0  0  0  0  0  0  0  0
  140.9560   71.5660  227.0170 C   0  0  0  0  0  0  0  0  0  0  0  0
  140.4880   71.1330  225.7960 C   0  0  0  0  0  0  0  0  0  0  0  0
  140.6570   71.8930  224.7230 N   0  0  0  0  0  0  0  0  0  0  0  0
  139.2370   73.9880  223.1950 H   0  0  0  0  0  0  0  0  0  0  0  0
  141.0760   74.6506  220.9465 H   0  0  0  0  0  0  0  0  0  0  0  0
  139.3731   74.3283  220.4149 H   0  0  0  0  0  0  0  0  0  0  0  0
  138.5479   77.7698  219.7385 H   0  0  0  0  0  0  0  0  0  0  0  0
  139.5270   79.0740  220.2906 H   0  0  0  0  0  0  0  0  0  0  0  0
  140.2817   76.8238  218.2718 H   0  0  0  0  0  0  0  0  0  0  0  0
  140.3665   78.5261  217.9345 H   0  0  0  0  0  0  0  0  0  0  0  0
  142.5023   77.0475  218.9408 H   0  0  0  0  0  0  0  0  0  0  0  0
  142.3447   78.7870  219.2641 H   0  0  0  0  0  0  0  0  0  0  0  0
  142.3320   76.7568  221.2937 H   0  0  0  0  0  0  0  0  0  0  0  0
  142.2450   82.0656  221.4471 H   0  0  0  0  0  0  0  0  0  0  0  0
  142.2507   81.7883  223.9151 H   0  0  0  0  0  0  0  0  0  0  0  0
  141.9771   79.5572  224.9743 H   0  0  0  0  0  0  0  0  0  0  0  0
  139.2341   70.0596  222.3198 H   0  0  0  0  0  0  0  0  0  0  0  0
  138.8771   68.5590  224.2956 H   0  0  0  0  0  0  0  0  0  0  0  0
  139.1611   68.1555  226.7119 H   0  0  0  0  0  0  0  0  0  0  0  0
  140.0170   68.9649  228.9040 H   0  0  0  0  0  0  0  0  0  0  0  0
  141.1636   71.1335  229.1181 H   0  0  0  0  0  0  0  0  0  0  0  0
  141.4651   72.5381  227.0927 H   0  0  0  0  0  0  0  0  0  0  0  0
  1  2  2  0
  2  3  1  0
  3  4  1  0
  4  5  1  0
  5  6  2  0
  5  7  1  0
  7  8  1  0
  8  9  1  0
  9 10  1  0
 10 11  1  0
 11 12  1  0
 12 13  2  0
 13 14  1  0
 14 15  2  0
 15 16  1  0
 16 17  2  0
  2 18  1  0
 18 19  2  0
 19 20  1  0
 20 21  2  0
 21 22  1  0
 22 23  2  0
 23 24  1  0
 24 25  2  0
 25 26  1  0
 26 27  2  0
 11  7  1  0
 17 12  1  0
 27 18  1  0
 26 21  1  0
  3 28  1  0
  4 29  1  0
  4 30  1  0
  8 31  1  0
  8 32  1  0
  9 33  1  0
  9 34  1  0
 10 35  1  0
 10 36  1  0
 11 37  1  1
 14 38  1  0
 15 39  1  0
 16 40  1  0
 19 41  1  0
 20 42  1  0
 22 43  1  0
 23 44  1  0
 24 45  1  0
 25 46  1  0
M  END
>  <smiles>  (12) 
O=C(NCC(=O)N1CCC[C@H]1c1ncccn1)c1ccc2ccccc2n1

>  <score_type>  (12) 
oracle

>  <origin>  (12) 
autodockgpu

>  <m_score__min__energy>  (12) 
-8.3499999999999996

>  <m_primary>  (12) 
energy

>  <rmsd>  (12) 
2.199618558451549

>  <m_score__min__rmsd>  (12) 
2.199618558451549

>  <meeko>  (12) 
{"free_energy": -8.03, "intermolecular_energy": -9.52, "internal_energy": -1.64, "cluster_size": 23, "cluster_id": 1, "rank_in_cluster": 18}

>  <energy>  (12) 
-8.08

>  <cluster_rmsd>  (12) 
1.04

>  <cluster>  (12) 
1

$$$$

     RDKit          3D

 46 49  0  0  0  0  0  0  0  0999 V2000
  139.1730   74.9780  222.2200 O   0  0  0  0  0  0  0  0  0  0  0  0
  140.2460   75.6290  222.0950 C   0  0  0  0  0  0  0  0  0  0  0  0
  141.4430   75.0560  221.5800 N   0  0  0  0  0  0  0  0  0  0  0  0
  141.4690   73.6650  221.1690 C   0  0  0  0  0  0  0  0  0  0  0  0
  142.6320   73.3750  220.3010 C   0  0  0  0  0  0  0  0  0  0  0  0
  143.5350   72.5700  220.6790 O   0  0  0  0  0  0  0  0  0  0  0  0
  142.6850   74.0350  219.0400 N   0  0  0  0  0  0  0  0  0  0  0  0
  141.7790   73.9150  217.9060 C   0  0  0  0  0  0  0  0  0  0  0  0
  142.7990   73.5650  216.8420 C   0  0  0  0  0  0  0  0  0  0  0  0
  143.8850   74.5740  217.1410 C   0  0  0  0  0  0  0  0  0  0  0  0
  143.6910   75.0100  218.5910 C   0  0  1  0  0  0  0  0  0  0  0  0
  143.1250   76.3900  218.6470 C   0  0  0  0  0  0  0  0  0  0  0  0
  142.6100   76.9100  219.7750 N   0  0  0  0  0  0  0  0  0  0  0  0
  142.0960   78.1730  219.8090 C   0  0  0  0  0  0  0  0  0  0  0  0
  142.1280   78.8970  218.6310 C   0  0  0  0  0  0  0  0  0  0  0  0
  142.6490   78.3940  217.4550 C   0  0  0  0  0  0  0  0  0  0  0  0
  143.1430   77.1270  217.4990 N   0  0  0  0  0  0  0  0  0  0  0  0
  140.2770   77.0490  222.4990 C   0  0  0  0  0  0  0  0  0  0  0  0
  139.0980   77.7330  222.7150 C   0  0  0  0  0  0  0  0  0  0  0  0
  139.1430   79.0760  223.0980 C   0  0  0  0  0  0  0  0  0  0  0  0
  140.3680   79.6960  223.2520 C   0  0  0  0  0  0  0  0  0  0  0  0
  140.4660   81.0270  223.6280 C   0  0  0  0  0  0  0  0  0  0  0  0
  141.7370   81.5900  223.7660 C   0  0  0  0  0  0  0  0  0  0  0  0
  142.8830   80.8780  223.5420 C   0  0  0  0  0  0  0  0  0  0  0  0
  142.7660   79.5620  223.1690 C   0  0  0  0  0  0  0  0  0  0  0  0
  141.5260   78.9830  223.0270 C   0  0  0  0  0  0  0  0  0  0  0  0
  141.4350   77.7090  222.6660 N   0  0  0  0  0  0  0  0  0  0  0  0
  142.3020   75.6790  221.5110 H   0  0  0  0  0  0  0  0  0  0  0  0
  141.5248   73.0291  222.0648 H   0  0  0  0  0  0  0  0  0  0  0  0
  140.5526   73.4581  220.5968 H   0  0  0  0  0  0  0  0  0  0  0  0
  141.0383   73.1145  218.0498 H   0  0  0  0  0  0  0  0  0  0  0  0
  141.1538   74.7958  217.6980 H   0  0  0  0  0  0  0  0  0  0  0  0
  143.1636   72.5334  216.9555 H   0  0  0  0  0  0  0  0  0  0  0  0
  142.4130   73.6056  215.8127 H   0  0  0  0  0  0  0  0  0  0  0  0
  144.8758   74.1138  217.0128 H   0  0  0  0  0  0  0  0  0  0  0  0
  143.8253   75.4340  216.4577 H   0  0  0  0  0  0  0  0  0  0  0  0
  144.6136   75.0335  219.1895 H   0  0  0  0  0  0  0  0  0  0  0  0
  141.6747   78.5969  220.7325 H   0  0  0  0  0  0  0  0  0  0  0  0
  141.7205   79.9187  218.6307 H   0  0  0  0  0  0  0  0  0  0  0  0
  142.6638   78.9879  216.5292 H   0  0  0  0  0  0  0  0  0  0  0  0
  138.1308   77.2251  222.5867 H   0  0  0  0  0  0  0  0  0  0  0  0
  138.2119   79.6343  223.2752 H   0  0  0  0  0  0  0  0  0  0  0  0
  139.5626   81.6265  223.8136 H   0  0  0  0  0  0  0  0  0  0  0  0
  141.8191   82.6451  224.0660 H   0  0  0  0  0  0  0  0  0  0  0  0
  143.8713   81.3469  223.6575 H   0  0  0  0  0  0  0  0  0  0  0  0
  143.6711   78.9655  222.9821 H   0  0  0  0  0  0  0  0  0  0  0  0
  1  2  2  0
  2  3  1  0
  3  4  1  0
  4  5  1  0
  5  6  2  0
  5  7  1  0
  7  8  1  0
  8  9  1  0
  9 10  1  0
 10 11  1  0
 11 12  1  0
 12 13  2  0
 13 14  1  0
 14 15  2  0
 15 16  1  0
 16 17  2  0
  2 18  1  0
 18 19  2  0
 19 20  1  0
 20 21  2  0
 21 22  1  0
 22 23  2  0
 23 24  1  0
 24 25  2  0
 25 26  1  0
 26 27  2  0
 11  7  1  0
 17 12  1  0
 27 18  1  0
 26 21  1  0
  3 28  1  0
  4 29  1  0
  4 30  1  0
  8 31  1  0
  8 32  1  0
  9 33  1  0
  9 34  1  0
 10 35  1  0
 10 36  1  0
 11 37  1  1
 14 38  1  0
 15 39  1  0
 16 40  1  0
 19 41  1  0
 20 42  1  0
 22 43  1  0
 23 44  1  0
 24 45  1  0
 25 46  1  0
M  END
>  <smiles>  (13) 
O=C(NCC(=O)N1CCC[C@H]1c1ncccn1)c1ccc2ccccc2n1

>  <score_type>  (13) 
oracle

>  <origin>  (13) 
autodockgpu

>  <m_score__min__energy>  (13) 
-8.3499999999999996

>  <m_primary>  (13) 
energy

>  <rmsd>  (13) 
6.97396653513104

>  <m_score__min__rmsd>  (13) 
6.97396653513104

>  <meeko>  (13) 
{"free_energy": -6.37, "intermolecular_energy": -7.86, "internal_energy": -2.89, "cluster_size": 11, "cluster_id": 4, "rank_in_cluster": 11}

>  <energy>  (13) 
-8.08

>  <cluster_rmsd>  (13) 
1.04

>  <cluster>  (13) 
1

$$$$

     RDKit          3D

 46 49  0  0  0  0  0  0  0  0999 V2000
  141.2860   72.1640  221.3900 O   0  0  0  0  0  0  0  0  0  0  0  0
  140.5110   72.5170  222.3200 C   0  0  0  0  0  0  0  0  0  0  0  0
  139.8520   73.7770  222.3410 N   0  0  0  0  0  0  0  0  0  0  0  0
  140.0560   74.7260  221.2620 C   0  0  0  0  0  0  0  0  0  0  0  0
  139.7110   76.1040  221.6760 C   0  0  0  0  0  0  0  0  0  0  0  0
  138.9330   76.3090  222.6550 O   0  0  0  0  0  0  0  0  0  0  0  0
  140.2880   77.1720  220.9320 N   0  0  0  0  0  0  0  0  0  0  0  0
  139.6590   78.0520  219.9570 C   0  0  0  0  0  0  0  0  0  0  0  0
  140.6130   77.8230  218.8010 C   0  0  0  0  0  0  0  0  0  0  0  0
  141.9470   77.9170  219.5060 C   0  0  0  0  0  0  0  0  0  0  0  0
  141.6830   77.6370  220.9830 C   0  0  1  0  0  0  0  0  0  0  0  0
  141.7720   78.8990  221.7750 C   0  0  0  0  0  0  0  0  0  0  0  0
  141.8800   78.9010  223.1160 N   0  0  0  0  0  0  0  0  0  0  0  0
  141.9590   80.0640  223.8240 C   0  0  0  0  0  0  0  0  0  0  0  0
  141.9240   81.2430  223.1030 C   0  0  0  0  0  0  0  0  0  0  0  0
  141.8140   81.2780  221.7260 C   0  0  0  0  0  0  0  0  0  0  0  0
  141.7390   80.0790  221.0900 N   0  0  0  0  0  0  0  0  0  0  0  0
  140.2680   71.5900  223.4440 C   0  0  0  0  0  0  0  0  0  0  0  0
  139.6290   70.3860  223.2240 C   0  0  0  0  0  0  0  0  0  0  0  0
  139.4080   69.5200  224.2970 C   0  0  0  0  0  0  0  0  0  0  0  0
  139.8310   69.8850  225.5610 C   0  0  0  0  0  0  0  0  0  0  0  0
  139.6330   69.0610  226.6580 C   0  0  0  0  0  0  0  0  0  0  0  0
  140.0870   69.4920  227.9070 C   0  0  0  0  0  0  0  0  0  0  0  0
  140.7160   70.6940  228.0840 C   0  0  0  0  0  0  0  0  0  0  0  0
  140.9020   71.4960  226.9870 C   0  0  0  0  0  0  0  0  0  0  0  0
  140.4650   71.0950  225.7450 C   0  0  0  0  0  0  0  0  0  0  0  0
  140.6550   71.8850  224.6960 N   0  0  0  0  0  0  0  0  0  0  0  0
  139.2160   73.9920  223.1650 H   0  0  0  0  0  0  0  0  0  0  0  0
  141.1127   74.6987  220.9576 H   0  0  0  0  0  0  0  0  0  0  0  0
  139.3990   74.4432  220.4263 H   0  0  0  0  0  0  0  0  0  0  0  0
  138.6327   77.7378  219.7162 H   0  0  0  0  0  0  0  0  0  0  0  0
  139.5302   79.0985  220.2705 H   0  0  0  0  0  0  0  0  0  0  0  0
  140.4656   76.8327  218.3455 H   0  0  0  0  0  0  0  0  0  0  0  0
  140.4908   78.5278  217.9653 H   0  0  0  0  0  0  0  0  0  0  0  0
  142.6450   77.1713  219.0976 H   0  0  0  0  0  0  0  0  0  0  0  0
  142.3994   78.9098  219.3661 H   0  0  0  0  0  0  0  0  0  0  0  0
  142.3890   76.9335  221.4485 H   0  0  0  0  0  0  0  0  0  0  0  0
  142.0467   80.0639  224.9205 H   0  0  0  0  0  0  0  0  0  0  0  0
  141.9865   82.1955  223.6497 H   0  0  0  0  0  0  0  0  0  0  0  0
  141.7884   82.2282  221.1724 H   0  0  0  0  0  0  0  0  0  0  0  0
  139.2968   70.1112  222.2120 H   0  0  0  0  0  0  0  0  0  0  0  0
  138.9020   68.5564  224.1376 H   0  0  0  0  0  0  0  0  0  0  0  0
  139.1295   68.0892  226.5475 H   0  0  0  0  0  0  0  0  0  0  0  0
  139.9331   68.8410  228.7802 H   0  0  0  0  0  0  0  0  0  0  0  0
  141.0632   71.0087  229.0792 H   0  0  0  0  0  0  0  0  0  0  0  0
  141.4046   72.4678  227.1008 H   0  0  0  0  0  0  0  0  0  0  0  0
  1  2  2  0
  2  3  1  0
  3  4  1  0
  4  5  1  0
  5  6  2  0
  5  7  1  0
  7  8  1  0
  8  9  1  0
  9 10  1  0
 10 11  1  0
 11 12  1  0
 12 13  2  0
 13 14  1  0
 14 15  2  0
 15 16  1  0
 16 17  2  0
  2 18  1  0
 18 19  2  0
 19 20  1  0
 20 21  2  0
 21 22  1  0
 22 23  2  0
 23 24  1  0
 24 25  2  0
 25 26  1  0
 26 27  2  0
 11  7  1  0
 17 12  1  0
 27 18  1  0
 26 21  1  0
  3 28  1  0
  4 29  1  0
  4 30  1  0
  8 31  1  0
  8 32  1  0
  9 33  1  0
  9 34  1  0
 10 35  1  0
 10 36  1  0
 11 37  1  1
 14 38  1  0
 15 39  1  0
 16 40  1  0
 19 41  1  0
 20 42  1  0
 22 43  1  0
 23 44  1  0
 24 45  1  0
 25 46  1  0
M  END
>  <smiles>  (14) 
O=C(NCC(=O)N1CCC[C@H]1c1ncccn1)c1ccc2ccccc2n1

>  <score_type>  (14) 
oracle

>  <origin>  (14) 
autodockgpu

>  <m_score__min__energy>  (14) 
-8.3499999999999996

>  <m_primary>  (14) 
energy

>  <rmsd>  (14) 
1.9853408804395019

>  <m_score__min__rmsd>  (14) 
1.9853408804395019

>  <meeko>  (14) 
{"free_energy": -8.03, "intermolecular_energy": -9.52, "internal_energy": -1.61, "cluster_size": 23, "cluster_id": 1, "rank_in_cluster": 19}

>  <energy>  (14) 
-8.07

>  <cluster_rmsd>  (14) 
0.98

>  <cluster>  (14) 
1

$$$$

     RDKit          3D

 46 49  0  0  0  0  0  0  0  0999 V2000
  140.7870   71.4570  221.3150 O   0  0  0  0  0  0  0  0  0  0  0  0
  140.3100   72.0470  222.3220 C   0  0  0  0  0  0  0  0  0  0  0  0
  139.8680   73.3980  222.2900 N   0  0  0  0  0  0  0  0  0  0  0  0
  139.9540   74.1660  221.0620 C   0  0  0  0  0  0  0  0  0  0  0  0
  140.8080   75.3630  221.2260 C   0  0  0  0  0  0  0  0  0  0  0  0
  140.5860   76.1920  222.1580 O   0  0  0  0  0  0  0  0  0  0  0  0
  141.8750   75.5350  220.2980 N   0  0  0  0  0  0  0  0  0  0  0  0
  142.7120   76.7040  220.0730 C   0  0  0  0  0  0  0  0  0  0  0  0
  142.4850   76.8580  218.5830 C   0  0  0  0  0  0  0  0  0  0  0  0
  142.6350   75.4270  218.1190 C   0  0  0  0  0  0  0  0  0  0  0  0
  142.3820   74.5420  219.3370 C   0  0  1  0  0  0  0  0  0  0  0  0
  143.6650   73.9620  219.8330 C   0  0  0  0  0  0  0  0  0  0  0  0
  144.6150   74.7130  220.4180 N   0  0  0  0  0  0  0  0  0  0  0  0
  145.7820   74.1670  220.8650 C   0  0  0  0  0  0  0  0  0  0  0  0
  145.9460   72.8050  220.6910 C   0  0  0  0  0  0  0  0  0  0  0  0
  144.9920   72.0040  220.0940 C   0  0  0  0  0  0  0  0  0  0  0  0
  143.8550   72.6200  219.6740 N   0  0  0  0  0  0  0  0  0  0  0  0
  140.2000   71.3130  223.6000 C   0  0  0  0  0  0  0  0  0  0  0  0
  139.6260   70.0580  223.6300 C   0  0  0  0  0  0  0  0  0  0  0  0
  139.5310   69.3760  224.8460 C   0  0  0  0  0  0  0  0  0  0  0  0
  140.0120   69.9710  225.9960 C   0  0  0  0  0  0  0  0  0  0  0  0
  139.9390   69.3370  227.2270 C   0  0  0  0  0  0  0  0  0  0  0  0
  140.4450   69.9960  228.3490 C   0  0  0  0  0  0  0  0  0  0  0  0
  141.0070   71.2410  228.2770 C   0  0  0  0  0  0  0  0  0  0  0  0
  141.0700   71.8540  227.0510 C   0  0  0  0  0  0  0  0  0  0  0  0
  140.5790   71.2260  225.9290 C   0  0  0  0  0  0  0  0  0  0  0  0
  140.6490   71.8350  224.7530 N   0  0  0  0  0  0  0  0  0  0  0  0
  139.4800   73.8160  223.1880 H   0  0  0  0  0  0  0  0  0  0  0  0
  140.3795   73.5296  220.2722 H   0  0  0  0  0  0  0  0  0  0  0  0
  138.9409   74.5006  220.7942 H   0  0  0  0  0  0  0  0  0  0  0  0
  142.3615   77.5800  220.6385 H   0  0  0  0  0  0  0  0  0  0  0  0
  143.7612   76.6088  220.3894 H   0  0  0  0  0  0  0  0  0  0  0  0
  141.4804   77.2499  218.3658 H   0  0  0  0  0  0  0  0  0  0  0  0
  143.1665   77.5679  218.0914 H   0  0  0  0  0  0  0  0  0  0  0  0
  141.9010   75.2053  217.3303 H   0  0  0  0  0  0  0  0  0  0  0  0
  143.6373   75.2493  217.7021 H   0  0  0  0  0  0  0  0  0  0  0  0
  141.7117   73.6895  219.1526 H   0  0  0  0  0  0  0  0  0  0  0  0
  146.5583   74.7827  221.3428 H   0  0  0  0  0  0  0  0  0  0  0  0
  146.8777   72.3386  221.0437 H   0  0  0  0  0  0  0  0  0  0  0  0
  145.1445   70.9223  219.9649 H   0  0  0  0  0  0  0  0  0  0  0  0
  139.2468   69.5989  222.7051 H   0  0  0  0  0  0  0  0  0  0  0  0
  139.0774   68.3747  224.8870 H   0  0  0  0  0  0  0  0  0  0  0  0
  139.4919   68.3361  227.3176 H   0  0  0  0  0  0  0  0  0  0  0  0
  140.3897   69.4956  229.3270 H   0  0  0  0  0  0  0  0  0  0  0  0
  141.3978   71.7373  229.1775 H   0  0  0  0  0  0  0  0  0  0  0  0
  141.5166   72.8555  226.9642 H   0  0  0  0  0  0  0  0  0  0  0  0
  1  2  2  0
  2  3  1  0
  3  4  1  0
  4  5  1  0
  5  6  2  0
  5  7  1  0
  7  8  1  0
  8  9  1  0
  9 10  1  0
 10 11  1  0
 11 12  1  0
 12 13  2  0
 13 14  1  0
 14 15  2  0
 15 16  1  0
 16 17  2  0
  2 18  1  0
 18 19  2  0
 19 20  1  0
 20 21  2  0
 21 22  1  0
 22 23  2  0
 23 24  1  0
 24 25  2  0
 25 26  1  0
 26 27  2  0
 11  7  1  0
 17 12  1  0
 27 18  1  0
 26 21  1  0
  3 28  1  0
  4 29  1  0
  4 30  1  0
  8 31  1  0
  8 32  1  0
  9 33  1  0
  9 34  1  0
 10 35  1  0
 10 36  1  0
 11 37  1  6
 14 38  1  0
 15 39  1  0
 16 40  1  0
 19 41  1  0
 20 42  1  0
 22 43  1  0
 23 44  1  0
 24 45  1  0
 25 46  1  0
M  END
>  <smiles>  (15) 
O=C(NCC(=O)N1CCC[C@H]1c1ncccn1)c1ccc2ccccc2n1

>  <score_type>  (15) 
oracle

>  <origin>  (15) 
autodockgpu

>  <m_score__min__energy>  (15) 
-8.3499999999999996

>  <m_primary>  (15) 
energy

>  <rmsd>  (15) 
3.896527438496335

>  <m_score__min__rmsd>  (15) 
3.896527438496335

>  <meeko>  (15) 
{"free_energy": -8.13, "intermolecular_energy": -9.62, "internal_energy": -1.5, "cluster_size": 10, "cluster_id": 3, "rank_in_cluster": 2}

>  <energy>  (15) 
-8.07

>  <cluster_rmsd>  (15) 
1.06

>  <cluster>  (15) 
1

$$$$

     RDKit          3D

 46 49  0  0  0  0  0  0  0  0999 V2000
  138.4720   75.6150  222.2030 O   0  0  0  0  0  0  0  0  0  0  0  0
  139.6590   76.0310  222.1080 C   0  0  0  0  0  0  0  0  0  0  0  0
  140.7140   75.2400  221.5750 N   0  0  0  0  0  0  0  0  0  0  0  0
  140.4540   73.8910  221.1100 C   0  0  0  0  0  0  0  0  0  0  0  0
  141.6640   73.0430  221.1910 C   0  0  0  0  0  0  0  0  0  0  0  0
  141.7010   72.0430  221.9670 O   0  0  0  0  0  0  0  0  0  0  0  0
  142.7680   73.4020  220.3650 N   0  0  0  0  0  0  0  0  0  0  0  0
  143.2540   72.7550  219.1550 C   0  0  0  0  0  0  0  0  0  0  0  0
  144.6940   72.5450  219.5770 C   0  0  0  0  0  0  0  0  0  0  0  0
  145.0180   73.8940  220.1780 C   0  0  0  0  0  0  0  0  0  0  0  0
  143.6860   74.5370  220.5560 C   0  0  1  0  0  0  0  0  0  0  0  0
  143.3480   75.6320  219.5990 C   0  0  0  0  0  0  0  0  0  0  0  0
  142.7210   76.7570  219.9870 N   0  0  0  0  0  0  0  0  0  0  0  0
  142.4190   77.7480  219.1000 C   0  0  0  0  0  0  0  0  0  0  0  0
  142.7870   77.5460  217.7830 C   0  0  0  0  0  0  0  0  0  0  0  0
  143.4320   76.4040  217.3500 C   0  0  0  0  0  0  0  0  0  0  0  0
  143.6990   75.4600  218.2920 N   0  0  0  0  0  0  0  0  0  0  0  0
  139.9810   77.3970  222.5670 C   0  0  0  0  0  0  0  0  0  0  0  0
  138.9690   78.2620  222.9310 C   0  0  0  0  0  0  0  0  0  0  0  0
  139.2900   79.5510  223.3650 C   0  0  0  0  0  0  0  0  0  0  0  0
  140.6150   79.9370  223.4190 C   0  0  0  0  0  0  0  0  0  0  0  0
  140.9850   81.2060  223.8400 C   0  0  0  0  0  0  0  0  0  0  0  0
  142.3430   81.5290  223.8710 C   0  0  0  0  0  0  0  0  0  0  0  0
  143.3170   80.6430  223.5010 C   0  0  0  0  0  0  0  0  0  0  0  0
  142.9320   79.3930  223.0860 C   0  0  0  0  0  0  0  0  0  0  0  0
  141.6000   79.0480  223.0470 C   0  0  0  0  0  0  0  0  0  0  0  0
  141.2490   77.8340  222.6430 N   0  0  0  0  0  0  0  0  0  0  0  0
  141.6860   75.6710  221.5330 H   0  0  0  0  0  0  0  0  0  0  0  0
  139.6637   73.4453  221.7320 H   0  0  0  0  0  0  0  0  0  0  0  0
  140.1421   73.9449  220.0565 H   0  0  0  0  0  0  0  0  0  0  0  0
  142.7371   71.8044  218.9568 H   0  0  0  0  0  0  0  0  0  0  0  0
  143.1066   73.3162  218.2205 H   0  0  0  0  0  0  0  0  0  0  0  0
  144.7837   71.7394  220.3206 H   0  0  0  0  0  0  0  0  0  0  0  0
  145.3656   72.2388  218.7614 H   0  0  0  0  0  0  0  0  0  0  0  0
  145.6463   73.7696  221.0723 H   0  0  0  0  0  0  0  0  0  0  0  0
  145.5724   74.5220  219.4651 H   0  0  0  0  0  0  0  0  0  0  0  0
  143.6638   74.9887  221.5587 H   0  0  0  0  0  0  0  0  0  0  0  0
  141.9054   78.6671  219.4185 H   0  0  0  0  0  0  0  0  0  0  0  0
  142.5558   78.3299  217.0468 H   0  0  0  0  0  0  0  0  0  0  0  0
  143.7155   76.2650  216.2963 H   0  0  0  0  0  0  0  0  0  0  0  0
  137.9186   77.9395  222.8799 H   0  0  0  0  0  0  0  0  0  0  0  0
  138.4951   80.2514  223.6608 H   0  0  0  0  0  0  0  0  0  0  0  0
  140.2252   81.9416  224.1427 H   0  0  0  0  0  0  0  0  0  0  0  0
  142.6407   82.5337  224.2055 H   0  0  0  0  0  0  0  0  0  0  0  0
  144.3798   80.9247  223.5352 H   0  0  0  0  0  0  0  0  0  0  0  0
  143.6942   78.6605  222.7819 H   0  0  0  0  0  0  0  0  0  0  0  0
  1  2  2  0
  2  3  1  0
  3  4  1  0
  4  5  1  0
  5  6  2  0
  5  7  1  0
  7  8  1  0
  8  9  1  0
  9 10  1  0
 10 11  1  0
 11 12  1  0
 12 13  2  0
 13 14  1  0
 14 15  2  0
 15 16  1  0
 16 17  2  0
  2 18  1  0
 18 19  2  0
 19 20  1  0
 20 21  2  0
 21 22  1  0
 22 23  2  0
 23 24  1  0
 24 25  2  0
 25 26  1  0
 26 27  2  0
 11  7  1  0
 17 12  1  0
 27 18  1  0
 26 21  1  0
  3 28  1  0
  4 29  1  0
  4 30  1  0
  8 31  1  0
  8 32  1  0
  9 33  1  0
  9 34  1  0
 10 35  1  0
 10 36  1  0
 11 37  1  1
 14 38  1  0
 15 39  1  0
 16 40  1  0
 19 41  1  0
 20 42  1  0
 22 43  1  0
 23 44  1  0
 24 45  1  0
 25 46  1  0
M  END
>  <smiles>  (16) 
O=C(NCC(=O)N1CCC[C@H]1c1ncccn1)c1ccc2ccccc2n1

>  <score_type>  (16) 
oracle

>  <origin>  (16) 
autodockgpu

>  <m_score__min__energy>  (16) 
-8.3499999999999996

>  <m_primary>  (16) 
energy

>  <rmsd>  (16) 
7.3764201162911744

>  <m_score__min__rmsd>  (16) 
7.3764201162911744

>  <meeko>  (16) 
{"free_energy": -6.81, "intermolecular_energy": -8.31, "internal_energy": -2.72, "cluster_size": 11, "cluster_id": 4, "rank_in_cluster": 8}

>  <energy>  (16) 
-8.05

>  <cluster_rmsd>  (16) 
1.05

>  <cluster>  (16) 
1

$$$$

     RDKit          3D

 46 49  0  0  0  0  0  0  0  0999 V2000
  141.2120   72.1110  221.3850 O   0  0  0  0  0  0  0  0  0  0  0  0
  140.4610   72.4860  222.3270 C   0  0  0  0  0  0  0  0  0  0  0  0
  139.8100   73.7510  222.3390 N   0  0  0  0  0  0  0  0  0  0  0  0
  139.9920   74.6770  221.2380 C   0  0  0  0  0  0  0  0  0  0  0  0
  139.4710   76.0230  221.5650 C   0  0  0  0  0  0  0  0  0  0  0  0
  138.5060   76.1620  222.3750 O   0  0  0  0  0  0  0  0  0  0  0  0
  140.0980   77.1360  220.9360 N   0  0  0  0  0  0  0  0  0  0  0  0
  139.5010   78.1770  220.1120 C   0  0  0  0  0  0  0  0  0  0  0  0
  140.3900   78.0340  218.8930 C   0  0  0  0  0  0  0  0  0  0  0  0
  141.7530   77.9410  219.5390 C   0  0  0  0  0  0  0  0  0  0  0  0
  141.5260   77.4910  220.9790 C   0  0  1  0  0  0  0  0  0  0  0  0
  141.7390   78.6300  221.9200 C   0  0  0  0  0  0  0  0  0  0  0  0
  142.0640   79.8640  221.4920 N   0  0  0  0  0  0  0  0  0  0  0  0
  142.2560   80.8940  222.3650 C   0  0  0  0  0  0  0  0  0  0  0  0
  142.1020   80.6150  223.7110 C   0  0  0  0  0  0  0  0  0  0  0  0
  141.7690   79.3610  224.1840 C   0  0  0  0  0  0  0  0  0  0  0  0
  141.5940   78.3840  223.2540 N   0  0  0  0  0  0  0  0  0  0  0  0
  140.2400   71.5830  223.4740 C   0  0  0  0  0  0  0  0  0  0  0  0
  139.5880   70.3800  223.2940 C   0  0  0  0  0  0  0  0  0  0  0  0
  139.3880   69.5360  224.3890 C   0  0  0  0  0  0  0  0  0  0  0  0
  139.8450   69.9220  225.6340 C   0  0  0  0  0  0  0  0  0  0  0  0
  139.6700   69.1200  226.7520 C   0  0  0  0  0  0  0  0  0  0  0  0
  140.1580   69.5720  227.9800 C   0  0  0  0  0  0  0  0  0  0  0  0
  140.7990   70.7720  228.1190 C   0  0  0  0  0  0  0  0  0  0  0  0
  140.9630   71.5520  227.0010 C   0  0  0  0  0  0  0  0  0  0  0  0
  140.4920   71.1300  225.7790 C   0  0  0  0  0  0  0  0  0  0  0  0
  140.6610   71.8990  224.7110 N   0  0  0  0  0  0  0  0  0  0  0  0
  139.1950   73.9850  223.1740 H   0  0  0  0  0  0  0  0  0  0  0  0
  141.0656   74.7553  221.0115 H   0  0  0  0  0  0  0  0  0  0  0  0
  139.4339   74.2939  220.3710 H   0  0  0  0  0  0  0  0  0  0  0  0
  138.4455   77.9696  219.8821 H   0  0  0  0  0  0  0  0  0  0  0  0
  139.4637   79.1802  220.5616 H   0  0  0  0  0  0  0  0  0  0  0  0
  140.1504   77.1244  218.3228 H   0  0  0  0  0  0  0  0  0  0  0  0
  140.2900   78.8489  218.1609 H   0  0  0  0  0  0  0  0  0  0  0  0
  142.3757   77.2073  219.0062 H   0  0  0  0  0  0  0  0  0  0  0  0
  142.2740   78.9092  219.5045 H   0  0  0  0  0  0  0  0  0  0  0  0
  142.1949   76.6857  221.3168 H   0  0  0  0  0  0  0  0  0  0  0  0
  142.5216   81.9022  222.0142 H   0  0  0  0  0  0  0  0  0  0  0  0
  142.2514   81.4280  224.4368 H   0  0  0  0  0  0  0  0  0  0  0  0
  141.6511   79.1622  225.2594 H   0  0  0  0  0  0  0  0  0  0  0  0
  139.2287   70.0881  222.2962 H   0  0  0  0  0  0  0  0  0  0  0  0
  138.8715   68.5733  224.2610 H   0  0  0  0  0  0  0  0  0  0  0  0
  139.1582   68.1495  226.6732 H   0  0  0  0  0  0  0  0  0  0  0  0
  140.0216   68.9388  228.8691 H   0  0  0  0  0  0  0  0  0  0  0  0
  141.1728   71.1031  229.0991 H   0  0  0  0  0  0  0  0  0  0  0  0
  141.4751   72.5221  227.0829 H   0  0  0  0  0  0  0  0  0  0  0  0
  1  2  2  0
  2  3  1  0
  3  4  1  0
  4  5  1  0
  5  6  2  0
  5  7  1  0
  7  8  1  0
  8  9  1  0
  9 10  1  0
 10 11  1  0
 11 12  1  0
 12 13  2  0
 13 14  1  0
 14 15  2  0
 15 16  1  0
 16 17  2  0
  2 18  1  0
 18 19  2  0
 19 20  1  0
 20 21  2  0
 21 22  1  0
 22 23  2  0
 23 24  1  0
 24 25  2  0
 25 26  1  0
 26 27  2  0
 11  7  1  0
 17 12  1  0
 27 18  1  0
 26 21  1  0
  3 28  1  0
  4 29  1  0
  4 30  1  0
  8 31  1  0
  8 32  1  0
  9 33  1  0
  9 34  1  0
 10 35  1  0
 10 36  1  0
 11 37  1  1
 14 38  1  0
 15 39  1  0
 16 40  1  0
 19 41  1  0
 20 42  1  0
 22 43  1  0
 23 44  1  0
 24 45  1  0
 25 46  1  0
M  END
>  <smiles>  (17) 
O=C(NCC(=O)N1CCC[C@H]1c1ncccn1)c1ccc2ccccc2n1

>  <score_type>  (17) 
oracle

>  <origin>  (17) 
autodockgpu

>  <m_score__min__energy>  (17) 
-8.3499999999999996

>  <m_primary>  (17) 
energy

>  <rmsd>  (17) 
2.2791728173859824

>  <m_score__min__rmsd>  (17) 
2.2791728173859824

>  <meeko>  (17) 
{"free_energy": -8.07, "intermolecular_energy": -9.56, "internal_energy": -1.61, "cluster_size": 23, "cluster_id": 1, "rank_in_cluster": 14}

>  <energy>  (17) 
-8.05

>  <cluster_rmsd>  (17) 
1.03

>  <cluster>  (17) 
1

$$$$

     RDKit          3D

 46 49  0  0  0  0  0  0  0  0999 V2000
  138.5000   75.6550  221.9830 O   0  0  0  0  0  0  0  0  0  0  0  0
  139.7040   76.0330  222.0090 C   0  0  0  0  0  0  0  0  0  0  0  0
  140.7840   75.2020  221.6000 N   0  0  0  0  0  0  0  0  0  0  0  0
  140.5300   73.8560  221.1240 C   0  0  0  0  0  0  0  0  0  0  0  0
  141.7490   73.0190  221.1800 C   0  0  0  0  0  0  0  0  0  0  0  0
  141.8040   72.0090  221.9430 O   0  0  0  0  0  0  0  0  0  0  0  0
  142.8400   73.3990  220.3480 N   0  0  0  0  0  0  0  0  0  0  0  0
  143.3380   72.7560  219.1410 C   0  0  0  0  0  0  0  0  0  0  0  0
  144.7850   72.5850  219.5580 C   0  0  0  0  0  0  0  0  0  0  0  0
  145.0770   73.9460  220.1490 C   0  0  0  0  0  0  0  0  0  0  0  0
  143.7310   74.5580  220.5270 C   0  0  1  0  0  0  0  0  0  0  0  0
  143.3620   75.6370  219.5650 C   0  0  0  0  0  0  0  0  0  0  0  0
  143.6890   75.5810  218.2610 N   0  0  0  0  0  0  0  0  0  0  0  0
  143.3450   76.5760  217.3950 C   0  0  0  0  0  0  0  0  0  0  0  0
  142.6430   77.6480  217.9160 C   0  0  0  0  0  0  0  0  0  0  0  0
  142.2910   77.7390  219.2480 C   0  0  0  0  0  0  0  0  0  0  0  0
  142.6700   76.7080  220.0500 N   0  0  0  0  0  0  0  0  0  0  0  0
  140.0200   77.3950  222.4860 C   0  0  0  0  0  0  0  0  0  0  0  0
  139.0030   78.2520  222.8550 C   0  0  0  0  0  0  0  0  0  0  0  0
  139.3180   79.5370  223.3050 C   0  0  0  0  0  0  0  0  0  0  0  0
  140.6420   79.9260  223.3710 C   0  0  0  0  0  0  0  0  0  0  0  0
  141.0060   81.1900  223.8090 C   0  0  0  0  0  0  0  0  0  0  0  0
  142.3630   81.5170  223.8510 C   0  0  0  0  0  0  0  0  0  0  0  0
  143.3420   80.6380  223.4760 C   0  0  0  0  0  0  0  0  0  0  0  0
  142.9630   79.3920  223.0440 C   0  0  0  0  0  0  0  0  0  0  0  0
  141.6320   79.0440  222.9940 C   0  0  0  0  0  0  0  0  0  0  0  0
  141.2860   77.8340  222.5740 N   0  0  0  0  0  0  0  0  0  0  0  0
  141.7670   75.6020  221.6560 H   0  0  0  0  0  0  0  0  0  0  0  0
  139.7523   73.3963  221.7515 H   0  0  0  0  0  0  0  0  0  0  0  0
  140.2032   73.9180  220.0755 H   0  0  0  0  0  0  0  0  0  0  0  0
  142.8445   71.7913  218.9516 H   0  0  0  0  0  0  0  0  0  0  0  0
  143.1731   73.3071  218.2034 H   0  0  0  0  0  0  0  0  0  0  0  0
  144.8983   71.7868  220.3063 H   0  0  0  0  0  0  0  0  0  0  0  0
  145.4607   72.2904  218.7415 H   0  0  0  0  0  0  0  0  0  0  0  0
  145.7110   73.8434  221.0421 H   0  0  0  0  0  0  0  0  0  0  0  0
  145.6132   74.5828  219.4300 H   0  0  0  0  0  0  0  0  0  0  0  0
  143.7018   75.0161  221.5266 H   0  0  0  0  0  0  0  0  0  0  0  0
  143.6137   76.5285  216.3294 H   0  0  0  0  0  0  0  0  0  0  0  0
  142.3522   78.4646  217.2388 H   0  0  0  0  0  0  0  0  0  0  0  0
  141.7324   78.6015  219.6406 H   0  0  0  0  0  0  0  0  0  0  0  0
  137.9540   77.9265  222.7954 H   0  0  0  0  0  0  0  0  0  0  0  0
  138.5195   80.2320  223.6038 H   0  0  0  0  0  0  0  0  0  0  0  0
  140.2424   81.9195  224.1168 H   0  0  0  0  0  0  0  0  0  0  0  0
  142.6557   82.5188  224.1986 H   0  0  0  0  0  0  0  0  0  0  0  0
  144.4037   80.9223  223.5196 H   0  0  0  0  0  0  0  0  0  0  0  0
  143.7289   78.6653  222.7352 H   0  0  0  0  0  0  0  0  0  0  0  0
  1  2  2  0
  2  3  1  0
  3  4  1  0
  4  5  1  0
  5  6  2  0
  5  7  1  0
  7  8  1  0
  8  9  1  0
  9 10  1  0
 10 11  1  0
 11 12  1  0
 12 13  2  0
 13 14  1  0
 14 15  2  0
 15 16  1  0
 16 17  2  0
  2 18  1  0
 18 19  2  0
 19 20  1  0
 20 21  2  0
 21 22  1  0
 22 23  2  0
 23 24  1  0
 24 25  2  0
 25 26  1  0
 26 27  2  0
 11  7  1  0
 17 12  1  0
 27 18  1  0
 26 21  1  0
  3 28  1  0
  4 29  1  0
  4 30  1  0
  8 31  1  0
  8 32  1  0
  9 33  1  0
  9 34  1  0
 10 35  1  0
 10 36  1  0
 11 37  1  1
 14 38  1  0
 15 39  1  0
 16 40  1  0
 19 41  1  0
 20 42  1  0
 22 43  1  0
 23 44  1  0
 24 45  1  0
 25 46  1  0
M  END
>  <smiles>  (18) 
O=C(NCC(=O)N1CCC[C@H]1c1ncccn1)c1ccc2ccccc2n1

>  <score_type>  (18) 
oracle

>  <origin>  (18) 
autodockgpu

>  <m_score__min__energy>  (18) 
-8.3499999999999996

>  <m_primary>  (18) 
energy

>  <rmsd>  (18) 
7.425532791262637

>  <m_score__min__rmsd>  (18) 
7.425532791262637

>  <meeko>  (18) 
{"free_energy": -6.86, "intermolecular_energy": -8.35, "internal_energy": -2.81, "cluster_size": 11, "cluster_id": 4, "rank_in_cluster": 7}

>  <energy>  (18) 
-8.03

>  <cluster_rmsd>  (18) 
1.03

>  <cluster>  (18) 
1

$$$$

     RDKit          3D

 46 49  0  0  0  0  0  0  0  0999 V2000
  138.4870   75.6570  221.9420 O   0  0  0  0  0  0  0  0  0  0  0  0
  139.6930   76.0220  222.0000 C   0  0  0  0  0  0  0  0  0  0  0  0
  140.7750   75.1790  221.6220 N   0  0  0  0  0  0  0  0  0  0  0  0
  140.5200   73.8330  221.1440 C   0  0  0  0  0  0  0  0  0  0  0  0
  141.7410   72.9980  221.1880 C   0  0  0  0  0  0  0  0  0  0  0  0
  141.8000   71.9810  221.9400 O   0  0  0  0  0  0  0  0  0  0  0  0
  142.8280   73.3890  220.3560 N   0  0  0  0  0  0  0  0  0  0  0  0
  143.3210   72.7610  219.1380 C   0  0  0  0  0  0  0  0  0  0  0  0
  144.7690   72.5860  219.5480 C   0  0  0  0  0  0  0  0  0  0  0  0
  145.0630   73.9390  220.1530 C   0  0  0  0  0  0  0  0  0  0  0  0
  143.7190   74.5460  220.5450 C   0  0  1  0  0  0  0  0  0  0  0  0
  143.3450   75.6370  219.5970 C   0  0  0  0  0  0  0  0  0  0  0  0
  143.6780   75.6020  218.2940 N   0  0  0  0  0  0  0  0  0  0  0  0
  143.3300   76.6080  217.4410 C   0  0  0  0  0  0  0  0  0  0  0  0
  142.6170   77.6660  217.9750 C   0  0  0  0  0  0  0  0  0  0  0  0
  142.2580   77.7340  219.3070 C   0  0  0  0  0  0  0  0  0  0  0  0
  142.6420   76.6950  220.0950 N   0  0  0  0  0  0  0  0  0  0  0  0
  140.0110   77.3820  222.4800 C   0  0  0  0  0  0  0  0  0  0  0  0
  138.9960   78.2370  222.8610 C   0  0  0  0  0  0  0  0  0  0  0  0
  139.3130   79.5200  223.3140 C   0  0  0  0  0  0  0  0  0  0  0  0
  140.6360   79.9110  223.3710 C   0  0  0  0  0  0  0  0  0  0  0  0
  141.0020   81.1740  223.8110 C   0  0  0  0  0  0  0  0  0  0  0  0
  142.3590   81.5020  223.8440 C   0  0  0  0  0  0  0  0  0  0  0  0
  143.3360   80.6260  223.4570 C   0  0  0  0  0  0  0  0  0  0  0  0
  142.9550   79.3820  223.0240 C   0  0  0  0  0  0  0  0  0  0  0  0
  141.6240   79.0320  222.9820 C   0  0  0  0  0  0  0  0  0  0  0  0
  141.2770   77.8230  222.5600 N   0  0  0  0  0  0  0  0  0  0  0  0
  141.7610   75.5680  221.7030 H   0  0  0  0  0  0  0  0  0  0  0  0
  139.7481   73.3700  221.7763 H   0  0  0  0  0  0  0  0  0  0  0  0
  140.1851   73.8973  220.0982 H   0  0  0  0  0  0  0  0  0  0  0  0
  142.8272   71.7985  218.9385 H   0  0  0  0  0  0  0  0  0  0  0  0
  143.1518   73.3231  218.2077 H   0  0  0  0  0  0  0  0  0  0  0  0
  144.8850   71.7793  220.2868 H   0  0  0  0  0  0  0  0  0  0  0  0
  145.4418   72.3011  218.7257 H   0  0  0  0  0  0  0  0  0  0  0  0
  145.7015   73.8262  221.0416 H   0  0  0  0  0  0  0  0  0  0  0  0
  145.5952   74.5844  219.4387 H   0  0  0  0  0  0  0  0  0  0  0  0
  143.6942   74.9921  221.5502 H   0  0  0  0  0  0  0  0  0  0  0  0
  143.6042   76.5791  216.3761 H   0  0  0  0  0  0  0  0  0  0  0  0
  142.3226   78.4904  217.3089 H   0  0  0  0  0  0  0  0  0  0  0  0
  141.6902   78.5857  219.7097 H   0  0  0  0  0  0  0  0  0  0  0  0
  137.9468   77.9108  222.8083 H   0  0  0  0  0  0  0  0  0  0  0  0
  138.5159   80.2124  223.6225 H   0  0  0  0  0  0  0  0  0  0  0  0
  140.2401   81.9017  224.1272 H   0  0  0  0  0  0  0  0  0  0  0  0
  142.6534   82.5023  224.1943 H   0  0  0  0  0  0  0  0  0  0  0  0
  144.3977   80.9117  223.4922 H   0  0  0  0  0  0  0  0  0  0  0  0
  143.7195   78.6572  222.7074 H   0  0  0  0  0  0  0  0  0  0  0  0
  1  2  2  0
  2  3  1  0
  3  4  1  0
  4  5  1  0
  5  6  2  0
  5  7  1  0
  7  8  1  0
  8  9  1  0
  9 10  1  0
 10 11  1  0
 11 12  1  0
 12 13  2  0
 13 14  1  0
 14 15  2  0
 15 16  1  0
 16 17  2  0
  2 18  1  0
 18 19  2  0
 19 20  1  0
 20 21  2  0
 21 22  1  0
 22 23  2  0
 23 24  1  0
 24 25  2  0
 25 26  1  0
 26 27  2  0
 11  7  1  0
 17 12  1  0
 27 18  1  0
 26 21  1  0
  3 28  1  0
  4 29  1  0
  4 30  1  0
  8 31  1  0
  8 32  1  0
  9 33  1  0
  9 34  1  0
 10 35  1  0
 10 36  1  0
 11 37  1  1
 14 38  1  0
 15 39  1  0
 16 40  1  0
 19 41  1  0
 20 42  1  0
 22 43  1  0
 23 44  1  0
 24 45  1  0
 25 46  1  0
M  END
>  <smiles>  (19) 
O=C(NCC(=O)N1CCC[C@H]1c1ncccn1)c1ccc2ccccc2n1

>  <score_type>  (19) 
oracle

>  <origin>  (19) 
autodockgpu

>  <m_score__min__energy>  (19) 
-8.3499999999999996

>  <m_primary>  (19) 
energy

>  <rmsd>  (19) 
7.411949345359566

>  <m_score__min__rmsd>  (19) 
7.411949345359566

>  <meeko>  (19) 
{"free_energy": -6.86, "intermolecular_energy": -8.35, "internal_energy": -2.82, "cluster_size": 11, "cluster_id": 4, "rank_in_cluster": 6}

>  <energy>  (19) 
-8.03

>  <cluster_rmsd>  (19) 
1.05

>  <cluster>  (19) 
1

$$$$

     RDKit          3D

 46 49  0  0  0  0  0  0  0  0999 V2000
  141.3630   72.4160  221.8770 O   0  0  0  0  0  0  0  0  0  0  0  0
  140.3260   72.4940  222.5910 C   0  0  0  0  0  0  0  0  0  0  0  0
  139.2880   73.4360  222.3470 N   0  0  0  0  0  0  0  0  0  0  0  0
  139.3900   74.3640  221.2370 C   0  0  0  0  0  0  0  0  0  0  0  0
  140.3070   75.4840  221.5450 C   0  0  0  0  0  0  0  0  0  0  0  0
  141.5580   75.2940  221.6110 O   0  0  0  0  0  0  0  0  0  0  0  0
  139.7230   76.7650  221.7600 N   0  0  0  0  0  0  0  0  0  0  0  0
  138.6720   77.1460  222.6920 C   0  0  0  0  0  0  0  0  0  0  0  0
  137.7180   77.7870  221.7030 C   0  0  0  0  0  0  0  0  0  0  0  0
  138.6730   78.6290  220.8870 C   0  0  0  0  0  0  0  0  0  0  0  0
  140.0610   78.0200  221.0700 C   0  0  1  0  0  0  0  0  0  0  0  0
  140.8930   78.8830  221.9600 C   0  0  0  0  0  0  0  0  0  0  0  0
  141.4040   78.4360  223.1210 N   0  0  0  0  0  0  0  0  0  0  0  0
  142.1620   79.2370  223.9230 C   0  0  0  0  0  0  0  0  0  0  0  0
  142.3830   80.5320  223.4890 C   0  0  0  0  0  0  0  0  0  0  0  0
  141.8740   81.0230  222.3030 C   0  0  0  0  0  0  0  0  0  0  0  0
  141.1280   80.1650  221.5580 N   0  0  0  0  0  0  0  0  0  0  0  0
  140.1700   71.5730  223.7360 C   0  0  0  0  0  0  0  0  0  0  0  0
  139.5260   70.3640  223.5690 C   0  0  0  0  0  0  0  0  0  0  0  0
  139.3870   69.5040  224.6610 C   0  0  0  0  0  0  0  0  0  0  0  0
  139.8970   69.8800  225.8890 C   0  0  0  0  0  0  0  0  0  0  0  0
  139.7840   69.0620  227.0030 C   0  0  0  0  0  0  0  0  0  0  0  0
  140.3230   69.5040  228.2130 C   0  0  0  0  0  0  0  0  0  0  0  0
  140.9550   70.7110  228.3380 C   0  0  0  0  0  0  0  0  0  0  0  0
  141.0570   71.5070  227.2250 C   0  0  0  0  0  0  0  0  0  0  0  0
  140.5350   71.0950  226.0200 C   0  0  0  0  0  0  0  0  0  0  0  0
  140.6440   71.8790  224.9550 N   0  0  0  0  0  0  0  0  0  0  0  0
  138.4500   73.4320  223.0010 H   0  0  0  0  0  0  0  0  0  0  0  0
  139.7678   73.8256  220.3553 H   0  0  0  0  0  0  0  0  0  0  0  0
  138.3905   74.7810  221.0446 H   0  0  0  0  0  0  0  0  0  0  0  0
  138.2259   76.2742  223.1930 H   0  0  0  0  0  0  0  0  0  0  0  0
  138.9862   77.7809  223.5335 H   0  0  0  0  0  0  0  0  0  0  0  0
  137.2125   77.0327  221.0821 H   0  0  0  0  0  0  0  0  0  0  0  0
  136.8963   78.3528  222.1664 H   0  0  0  0  0  0  0  0  0  0  0  0
  138.3861   78.6064  219.8253 H   0  0  0  0  0  0  0  0  0  0  0  0
  138.6550   79.6786  221.2157 H   0  0  0  0  0  0  0  0  0  0  0  0
  140.6339   77.8978  220.1390 H   0  0  0  0  0  0  0  0  0  0  0  0
  142.5791   78.8700  224.8724 H   0  0  0  0  0  0  0  0  0  0  0  0
  142.9911   81.2001  224.1165 H   0  0  0  0  0  0  0  0  0  0  0  0
  142.0627   82.0566  221.9774 H   0  0  0  0  0  0  0  0  0  0  0  0
  139.1256   70.0800  222.5846 H   0  0  0  0  0  0  0  0  0  0  0  0
  138.8764   68.5367  224.5445 H   0  0  0  0  0  0  0  0  0  0  0  0
  139.2807   68.0862  226.9350 H   0  0  0  0  0  0  0  0  0  0  0  0
  140.2362   68.8576  229.0988 H   0  0  0  0  0  0  0  0  0  0  0  0
  141.3699   71.0344  229.3041 H   0  0  0  0  0  0  0  0  0  0  0  0
  141.5602   72.4826  227.2964 H   0  0  0  0  0  0  0  0  0  0  0  0
  1  2  2  0
  2  3  1  0
  3  4  1  0
  4  5  1  0
  5  6  2  0
  5  7  1  0
  7  8  1  0
  8  9  1  0
  9 10  1  0
 10 11  1  0
 11 12  1  0
 12 13  2  0
 13 14  1  0
 14 15  2  0
 15 16  1  0
 16 17  2  0
  2 18  1  0
 18 19  2  0
 19 20  1  0
 20 21  2  0
 21 22  1  0
 22 23  2  0
 23 24  1  0
 24 25  2  0
 25 26  1  0
 26 27  2  0
 11  7  1  0
 17 12  1  0
 27 18  1  0
 26 21  1  0
  3 28  1  0
  4 29  1  0
  4 30  1  0
  8 31  1  0
  8 32  1  0
  9 33  1  0
  9 34  1  0
 10 35  1  0
 10 36  1  0
 11 37  1  6
 14 38  1  0
 15 39  1  0
 16 40  1  0
 19 41  1  0
 20 42  1  0
 22 43  1  0
 23 44  1  0
 24 45  1  0
 25 46  1  0
M  END
>  <smiles>  (20) 
O=C(NCC(=O)N1CCC[C@H]1c1ncccn1)c1ccc2ccccc2n1

>  <score_type>  (20) 
oracle

>  <origin>  (20) 
autodockgpu

>  <m_score__min__energy>  (20) 
-8.3499999999999996

>  <m_primary>  (20) 
energy

>  <rmsd>  (20) 
2.5176496472515177

>  <m_score__min__rmsd>  (20) 
2.5176496472515177

>  <meeko>  (20) 
{"free_energy": -8.23, "intermolecular_energy": -9.72, "internal_energy": -1.24, "cluster_size": 23, "cluster_id": 1, "rank_in_cluster": 4}

>  <energy>  (20) 
-7.96

>  <cluster_rmsd>  (20) 
1.15

>  <cluster>  (20) 
1

$$$$

     RDKit          3D

 46 49  0  0  0  0  0  0  0  0999 V2000
  138.9780   71.0660  221.5340 O   0  0  0  0  0  0  0  0  0  0  0  0
  139.3500   71.6190  222.6040 C   0  0  0  0  0  0  0  0  0  0  0  0
  139.5920   73.0170  222.7080 N   0  0  0  0  0  0  0  0  0  0  0  0
  139.4130   73.8780  221.5540 C   0  0  0  0  0  0  0  0  0  0  0  0
  140.4490   74.9320  221.4940 C   0  0  0  0  0  0  0  0  0  0  0  0
  141.6790   74.6310  221.5350 O   0  0  0  0  0  0  0  0  0  0  0  0
  140.0020   76.2800  221.3890 N   0  0  0  0  0  0  0  0  0  0  0  0
  138.7520   76.8680  221.8490 C   0  0  0  0  0  0  0  0  0  0  0  0
  138.2970   77.4800  220.5400 C   0  0  0  0  0  0  0  0  0  0  0  0
  139.5790   78.1240  220.0620 C   0  0  0  0  0  0  0  0  0  0  0  0
  140.7220   77.4080  220.7770 C   0  0  1  0  0  0  0  0  0  0  0  0
  141.2980   78.2830  221.8400 C   0  0  0  0  0  0  0  0  0  0  0  0
  141.3010   77.9290  223.1380 N   0  0  0  0  0  0  0  0  0  0  0  0
  141.8320   78.7410  224.0980 C   0  0  0  0  0  0  0  0  0  0  0  0
  142.3680   79.9440  223.6780 C   0  0  0  0  0  0  0  0  0  0  0  0
  142.3810   80.3390  222.3540 C   0  0  0  0  0  0  0  0  0  0  0  0
  141.8340   79.4770  221.4550 N   0  0  0  0  0  0  0  0  0  0  0  0
  139.5490   70.7910  223.8110 C   0  0  0  0  0  0  0  0  0  0  0  0
  139.1930   69.4570  223.8020 C   0  0  0  0  0  0  0  0  0  0  0  0
  139.3890   68.6860  224.9500 C   0  0  0  0  0  0  0  0  0  0  0  0
  139.9340   69.2740  226.0760 C   0  0  0  0  0  0  0  0  0  0  0  0
  140.1460   68.5520  227.2410 C   0  0  0  0  0  0  0  0  0  0  0  0
  140.7020   69.2090  228.3410 C   0  0  0  0  0  0  0  0  0  0  0  0
  141.0410   70.5330  228.3100 C   0  0  0  0  0  0  0  0  0  0  0  0
  140.8230   71.2320  227.1490 C   0  0  0  0  0  0  0  0  0  0  0  0
  140.2780   70.6080  226.0500 C   0  0  0  0  0  0  0  0  0  0  0  0
  140.0750   71.3010  224.9370 N   0  0  0  0  0  0  0  0  0  0  0  0
  139.9050   73.3990  223.6500 H   0  0  0  0  0  0  0  0  0  0  0  0
  139.4717   73.2675  220.6408 H   0  0  0  0  0  0  0  0  0  0  0  0
  138.4308   74.3660  221.6384 H   0  0  0  0  0  0  0  0  0  0  0  0
  138.0476   76.1081  222.2183 H   0  0  0  0  0  0  0  0  0  0  0  0
  138.8346   77.5625  222.6980 H   0  0  0  0  0  0  0  0  0  0  0  0
  137.9438   76.7120  219.8361 H   0  0  0  0  0  0  0  0  0  0  0  0
  137.4486   78.1738  220.6343 H   0  0  0  0  0  0  0  0  0  0  0  0
  139.6797   78.0057  218.9730 H   0  0  0  0  0  0  0  0  0  0  0  0
  139.5871   79.2016  220.2829 H   0  0  0  0  0  0  0  0  0  0  0  0
  141.5621   77.1233  220.1265 H   0  0  0  0  0  0  0  0  0  0  0  0
  141.8334   78.4509  225.1591 H   0  0  0  0  0  0  0  0  0  0  0  0
  142.8036   80.6168  224.4314 H   0  0  0  0  0  0  0  0  0  0  0  0
  142.8119   81.3020  222.0426 H   0  0  0  0  0  0  0  0  0  0  0  0
  138.7585   69.0051  222.8981 H   0  0  0  0  0  0  0  0  0  0  0  0
  139.1124   67.6214  224.9580 H   0  0  0  0  0  0  0  0  0  0  0  0
  139.8821   67.4856  227.2974 H   0  0  0  0  0  0  0  0  0  0  0  0
  140.8735   68.6400  229.2666 H   0  0  0  0  0  0  0  0  0  0  0  0
  141.4769   71.0251  229.1920 H   0  0  0  0  0  0  0  0  0  0  0  0
  141.0858   72.2989  227.0966 H   0  0  0  0  0  0  0  0  0  0  0  0
  1  2  2  0
  2  3  1  0
  3  4  1  0
  4  5  1  0
  5  6  2  0
  5  7  1  0
  7  8  1  0
  8  9  1  0
  9 10  1  0
 10 11  1  0
 11 12  1  0
 12 13  2  0
 13 14  1  0
 14 15  2  0
 15 16  1  0
 16 17  2  0
  2 18  1  0
 18 19  2  0
 19 20  1  0
 20 21  2  0
 21 22  1  0
 22 23  2  0
 23 24  1  0
 24 25  2  0
 25 26  1  0
 26 27  2  0
 11  7  1  0
 17 12  1  0
 27 18  1  0
 26 21  1  0
  3 28  1  0
  4 29  1  0
  4 30  1  0
  8 31  1  0
  8 32  1  0
  9 33  1  0
  9 34  1  0
 10 35  1  0
 10 36  1  0
 11 37  1  6
 14 38  1  0
 15 39  1  0
 16 40  1  0
 19 41  1  0
 20 42  1  0
 22 43  1  0
 23 44  1  0
 24 45  1  0
 25 46  1  0
M  END
>  <smiles>  (21) 
O=C(NCC(=O)N1CCC[C@H]1c1ncccn1)c1ccc2ccccc2n1

>  <score_type>  (21) 
oracle

>  <origin>  (21) 
autodockgpu

>  <m_score__min__energy>  (21) 
-8.3499999999999996

>  <m_primary>  (21) 
energy

>  <rmsd>  (21) 
1.9894086582242871

>  <m_score__min__rmsd>  (21) 
1.9894086582242871

>  <meeko>  (21) 
{"free_energy": -7.79, "intermolecular_energy": -9.28, "internal_energy": -1.55, "cluster_size": 23, "cluster_id": 1, "rank_in_cluster": 23}

>  <energy>  (21) 
-7.91

>  <cluster_rmsd>  (21) 
0.8

>  <cluster>  (21) 
1

$$$$

     RDKit          3D

 46 49  0  0  0  0  0  0  0  0999 V2000
  141.2980   72.1140  221.6930 O   0  0  0  0  0  0  0  0  0  0  0  0
  140.3620   72.3720  222.4980 C   0  0  0  0  0  0  0  0  0  0  0  0
  139.4550   73.4520  222.3080 N   0  0  0  0  0  0  0  0  0  0  0  0
  139.5800   74.3160  221.1510 C   0  0  0  0  0  0  0  0  0  0  0  0
  140.4430   75.4840  221.4320 C   0  0  0  0  0  0  0  0  0  0  0  0
  141.7050   75.3680  221.4350 O   0  0  0  0  0  0  0  0  0  0  0  0
  139.7960   76.7250  221.6950 N   0  0  0  0  0  0  0  0  0  0  0  0
  138.7450   77.0230  222.6570 C   0  0  0  0  0  0  0  0  0  0  0  0
  137.7390   77.6390  221.7060 C   0  0  0  0  0  0  0  0  0  0  0  0
  138.6300   78.5540  220.8960 C   0  0  0  0  0  0  0  0  0  0  0  0
  140.0520   78.0160  221.0350 C   0  0  1  0  0  0  0  0  0  0  0  0
  140.8550   78.8970  221.9340 C   0  0  0  0  0  0  0  0  0  0  0  0
  141.0210   80.2100  221.6910 N   0  0  0  0  0  0  0  0  0  0  0  0
  141.7590   81.0010  222.5230 C   0  0  0  0  0  0  0  0  0  0  0  0
  142.3270   80.3940  223.6280 C   0  0  0  0  0  0  0  0  0  0  0  0
  142.1760   79.0500  223.9070 C   0  0  0  0  0  0  0  0  0  0  0  0
  141.4280   78.3260  223.0320 N   0  0  0  0  0  0  0  0  0  0  0  0
  140.1880   71.5240  223.6950 C   0  0  0  0  0  0  0  0  0  0  0  0
  139.5250   70.3180  223.6000 C   0  0  0  0  0  0  0  0  0  0  0  0
  139.3700   69.5270  224.7410 C   0  0  0  0  0  0  0  0  0  0  0  0
  139.8830   69.9680  225.9450 C   0  0  0  0  0  0  0  0  0  0  0  0
  139.7540   69.2210  227.1060 C   0  0  0  0  0  0  0  0  0  0  0  0
  140.2970   69.7270  228.2900 C   0  0  0  0  0  0  0  0  0  0  0  0
  140.9480   70.9290  228.3430 C   0  0  0  0  0  0  0  0  0  0  0  0
  141.0650   71.6550  227.1850 C   0  0  0  0  0  0  0  0  0  0  0  0
  140.5400   71.1790  226.0050 C   0  0  0  0  0  0  0  0  0  0  0  0
  140.6640   71.8960  224.8950 N   0  0  0  0  0  0  0  0  0  0  0  0
  138.6950   73.5970  223.0380 H   0  0  0  0  0  0  0  0  0  0  0  0
  140.0175   73.7406  220.3218 H   0  0  0  0  0  0  0  0  0  0  0  0
  138.5776   74.6851  220.8884 H   0  0  0  0  0  0  0  0  0  0  0  0
  138.3561   76.1148  223.1407 H   0  0  0  0  0  0  0  0  0  0  0  0
  139.0421   77.6502  223.5104 H   0  0  0  0  0  0  0  0  0  0  0  0
  137.2616   76.8762  221.0733 H   0  0  0  0  0  0  0  0  0  0  0  0
  136.8986   78.1469  222.2017 H   0  0  0  0  0  0  0  0  0  0  0  0
  138.3227   78.5451  219.8398 H   0  0  0  0  0  0  0  0  0  0  0  0
  138.5624   79.5917  221.2545 H   0  0  0  0  0  0  0  0  0  0  0  0
  140.6111   77.9513  220.0899 H   0  0  0  0  0  0  0  0  0  0  0  0
  141.8960   82.0740  222.3234 H   0  0  0  0  0  0  0  0  0  0  0  0
  142.9259   81.0093  224.3156 H   0  0  0  0  0  0  0  0  0  0  0  0
  142.6375   78.5883  224.7924 H   0  0  0  0  0  0  0  0  0  0  0  0
  139.1215   69.9818  222.6334 H   0  0  0  0  0  0  0  0  0  0  0  0
  138.8446   68.5625  224.6810 H   0  0  0  0  0  0  0  0  0  0  0  0
  139.2354   68.2510  227.0953 H   0  0  0  0  0  0  0  0  0  0  0  0
  140.1973   69.1372  229.2131 H   0  0  0  0  0  0  0  0  0  0  0  0
  141.3665   71.3033  229.2889 H   0  0  0  0  0  0  0  0  0  0  0  0
  141.5826   72.6255  227.1995 H   0  0  0  0  0  0  0  0  0  0  0  0
  1  2  2  0
  2  3  1  0
  3  4  1  0
  4  5  1  0
  5  6  2  0
  5  7  1  0
  7  8  1  0
  8  9  1  0
  9 10  1  0
 10 11  1  0
 11 12  1  0
 12 13  2  0
 13 14  1  0
 14 15  2  0
 15 16  1  0
 16 17  2  0
  2 18  1  0
 18 19  2  0
 19 20  1  0
 20 21  2  0
 21 22  1  0
 22 23  2  0
 23 24  1  0
 24 25  2  0
 25 26  1  0
 26 27  2  0
 11  7  1  0
 17 12  1  0
 27 18  1  0
 26 21  1  0
  3 28  1  0
  4 29  1  0
  4 30  1  0
  8 31  1  0
  8 32  1  0
  9 33  1  0
  9 34  1  0
 10 35  1  0
 10 36  1  0
 11 37  1  6
 14 38  1  0
 15 39  1  0
 16 40  1  0
 19 41  1  0
 20 42  1  0
 22 43  1  0
 23 44  1  0
 24 45  1  0
 25 46  1  0
M  END
>  <smiles>  (22) 
O=C(NCC(=O)N1CCC[C@H]1c1ncccn1)c1ccc2ccccc2n1

>  <score_type>  (22) 
oracle

>  <origin>  (22) 
autodockgpu

>  <m_score__min__energy>  (22) 
-8.3499999999999996

>  <m_primary>  (22) 
energy

>  <rmsd>  (22) 
2.6966129776804006

>  <m_score__min__rmsd>  (22) 
2.6966129776804006

>  <meeko>  (22) 
{"free_energy": -8.17, "intermolecular_energy": -9.66, "internal_energy": -1.26, "cluster_size": 23, "cluster_id": 1, "rank_in_cluster": 7}

>  <energy>  (22) 
-7.9

>  <cluster_rmsd>  (22) 
1.1

>  <cluster>  (22) 
1

$$$$

     RDKit          3D

 46 49  0  0  0  0  0  0  0  0999 V2000
  138.4850   75.6540  221.9570 O   0  0  0  0  0  0  0  0  0  0  0  0
  139.6880   76.0300  222.0000 C   0  0  0  0  0  0  0  0  0  0  0  0
  140.7730   75.1990  221.6030 N   0  0  0  0  0  0  0  0  0  0  0  0
  140.5240   73.8530  221.1220 C   0  0  0  0  0  0  0  0  0  0  0  0
  141.7490   73.0230  221.1660 C   0  0  0  0  0  0  0  0  0  0  0  0
  141.8130   72.0080  221.9220 O   0  0  0  0  0  0  0  0  0  0  0  0
  142.8330   73.4160  220.3310 N   0  0  0  0  0  0  0  0  0  0  0  0
  143.3200   72.7890  219.1100 C   0  0  0  0  0  0  0  0  0  0  0  0
  144.7710   72.6130  219.5130 C   0  0  0  0  0  0  0  0  0  0  0  0
  145.0670   73.9660  220.1200 C   0  0  0  0  0  0  0  0  0  0  0  0
  143.7240   74.5720  220.5180 C   0  0  1  0  0  0  0  0  0  0  0  0
  143.3470   75.6650  219.5740 C   0  0  0  0  0  0  0  0  0  0  0  0
  143.6760   75.6330  218.2700 N   0  0  0  0  0  0  0  0  0  0  0  0
  143.3240   76.6410  217.4210 C   0  0  0  0  0  0  0  0  0  0  0  0
  142.6120   77.6970  217.9580 C   0  0  0  0  0  0  0  0  0  0  0  0
  142.2570   77.7610  219.2920 C   0  0  0  0  0  0  0  0  0  0  0  0
  142.6430   76.7200  220.0770 N   0  0  0  0  0  0  0  0  0  0  0  0
  140.0000   77.3910  222.4830 C   0  0  0  0  0  0  0  0  0  0  0  0
  138.9800   78.2430  222.8550 C   0  0  0  0  0  0  0  0  0  0  0  0
  139.2910   79.5270  223.3110 C   0  0  0  0  0  0  0  0  0  0  0  0
  140.6130   79.9200  223.3780 C   0  0  0  0  0  0  0  0  0  0  0  0
  140.9730   81.1840  223.8220 C   0  0  0  0  0  0  0  0  0  0  0  0
  142.3290   81.5150  223.8650 C   0  0  0  0  0  0  0  0  0  0  0  0
  143.3100   80.6410  223.4870 C   0  0  0  0  0  0  0  0  0  0  0  0
  142.9360   79.3960  223.0500 C   0  0  0  0  0  0  0  0  0  0  0  0
  141.6060   79.0430  222.9980 C   0  0  0  0  0  0  0  0  0  0  0  0
  141.2650   77.8340  222.5730 N   0  0  0  0  0  0  0  0  0  0  0  0
  141.7560   75.5970  221.6730 H   0  0  0  0  0  0  0  0  0  0  0  0
  139.7533   73.3855  221.7524 H   0  0  0  0  0  0  0  0  0  0  0  0
  140.1899   73.9179  220.0760 H   0  0  0  0  0  0  0  0  0  0  0  0
  142.8250   71.8269  218.9119 H   0  0  0  0  0  0  0  0  0  0  0  0
  143.1465   73.3521  218.1811 H   0  0  0  0  0  0  0  0  0  0  0  0
  144.8907   71.8047  220.2495 H   0  0  0  0  0  0  0  0  0  0  0  0
  145.4402   72.3299  218.6872 H   0  0  0  0  0  0  0  0  0  0  0  0
  145.7087   73.8517  221.0061 H   0  0  0  0  0  0  0  0  0  0  0  0
  145.5964   74.6129  219.4050 H   0  0  0  0  0  0  0  0  0  0  0  0
  143.7024   75.0161  221.5241 H   0  0  0  0  0  0  0  0  0  0  0  0
  143.5950   76.6146  216.3552 H   0  0  0  0  0  0  0  0  0  0  0  0
  142.3149   78.5225  217.2945 H   0  0  0  0  0  0  0  0  0  0  0  0
  141.6904   78.6117  219.6986 H   0  0  0  0  0  0  0  0  0  0  0  0
  137.9320   77.9146  222.7932 H   0  0  0  0  0  0  0  0  0  0  0  0
  138.4903   80.2179  223.6136 H   0  0  0  0  0  0  0  0  0  0  0  0
  140.2072   81.9096  224.1334 H   0  0  0  0  0  0  0  0  0  0  0  0
  142.6186   82.5164  224.2161 H   0  0  0  0  0  0  0  0  0  0  0  0
  144.3708   80.9286  223.5322 H   0  0  0  0  0  0  0  0  0  0  0  0
  143.7047   78.6735  222.7385 H   0  0  0  0  0  0  0  0  0  0  0  0
  1  2  2  0
  2  3  1  0
  3  4  1  0
  4  5  1  0
  5  6  2  0
  5  7  1  0
  7  8  1  0
  8  9  1  0
  9 10  1  0
 10 11  1  0
 11 12  1  0
 12 13  2  0
 13 14  1  0
 14 15  2  0
 15 16  1  0
 16 17  2  0
  2 18  1  0
 18 19  2  0
 19 20  1  0
 20 21  2  0
 21 22  1  0
 22 23  2  0
 23 24  1  0
 24 25  2  0
 25 26  1  0
 26 27  2  0
 11  7  1  0
 17 12  1  0
 27 18  1  0
 26 21  1  0
  3 28  1  0
  4 29  1  0
  4 30  1  0
  8 31  1  0
  8 32  1  0
  9 33  1  0
  9 34  1  0
 10 35  1  0
 10 36  1  0
 11 37  1  1
 14 38  1  0
 15 39  1  0
 16 40  1  0
 19 41  1  0
 20 42  1  0
 22 43  1  0
 23 44  1  0
 24 45  1  0
 25 46  1  0
M  END
>  <smiles>  (23) 
O=C(NCC(=O)N1CCC[C@H]1c1ncccn1)c1ccc2ccccc2n1

>  <score_type>  (23) 
oracle

>  <origin>  (23) 
autodockgpu

>  <m_score__min__energy>  (23) 
-8.3499999999999996

>  <m_primary>  (23) 
energy

>  <rmsd>  (23) 
7.409255860283986

>  <m_score__min__rmsd>  (23) 
7.409255860283986

>  <meeko>  (23) 
{"free_energy": -6.86, "intermolecular_energy": -8.35, "internal_energy": -2.82, "cluster_size": 11, "cluster_id": 4, "rank_in_cluster": 4}

>  <energy>  (23) 
-7.79

>  <cluster_rmsd>  (23) 
0.81

>  <cluster>  (23) 
1

$$$$

     RDKit          3D

 46 49  0  0  0  0  0  0  0  0999 V2000
  138.4580   74.8880  222.2520 O   0  0  0  0  0  0  0  0  0  0  0  0
  139.5830   75.3920  221.9880 C   0  0  0  0  0  0  0  0  0  0  0  0
  139.8400   76.7890  222.0550 N   0  0  0  0  0  0  0  0  0  0  0  0
  138.7870   77.7080  222.4410 C   0  0  0  0  0  0  0  0  0  0  0  0
  139.3350   78.9690  222.9870 C   0  0  0  0  0  0  0  0  0  0  0  0
  138.6130   79.7360  223.6910 O   0  0  0  0  0  0  0  0  0  0  0  0
  140.6940   79.2730  222.6870 N   0  0  0  0  0  0  0  0  0  0  0  0
  141.9060   78.7350  223.2880 C   0  0  0  0  0  0  0  0  0  0  0  0
  142.5590   80.0440  223.6840 C   0  0  0  0  0  0  0  0  0  0  0  0
  142.3530   80.8600  222.4290 C   0  0  0  0  0  0  0  0  0  0  0  0
  141.1880   80.2220  221.6770 C   0  0  1  0  0  0  0  0  0  0  0  0
  141.6860   79.4810  220.4810 C   0  0  0  0  0  0  0  0  0  0  0  0
  141.7540   78.1370  220.4450 N   0  0  0  0  0  0  0  0  0  0  0  0
  142.2120   77.4750  219.3440 C   0  0  0  0  0  0  0  0  0  0  0  0
  142.6020   78.2460  218.2640 C   0  0  0  0  0  0  0  0  0  0  0  0
  142.5450   79.6260  218.2670 C   0  0  0  0  0  0  0  0  0  0  0  0
  142.0790   80.2150  219.4000 N   0  0  0  0  0  0  0  0  0  0  0  0
  140.6930   74.5020  221.5890 C   0  0  0  0  0  0  0  0  0  0  0  0
  140.5210   73.1330  221.6000 C   0  0  0  0  0  0  0  0  0  0  0  0
  141.5800   72.3050  221.2180 C   0  0  0  0  0  0  0  0  0  0  0  0
  142.7810   72.8720  220.8390 C   0  0  0  0  0  0  0  0  0  0  0  0
  143.8620   72.0940  220.4540 C   0  0  0  0  0  0  0  0  0  0  0  0
  145.0470   72.7330  220.0820 C   0  0  0  0  0  0  0  0  0  0  0  0
  145.1770   74.0950  220.0850 C   0  0  0  0  0  0  0  0  0  0  0  0
  144.0970   74.8490  220.4700 C   0  0  0  0  0  0  0  0  0  0  0  0
  142.9180   74.2440  220.8410 C   0  0  0  0  0  0  0  0  0  0  0  0
  141.8860   74.9910  221.2090 N   0  0  0  0  0  0  0  0  0  0  0  0
  140.8200   77.1270  221.8150 H   0  0  0  0  0  0  0  0  0  0  0  0
  138.1736   77.9388  221.5576 H   0  0  0  0  0  0  0  0  0  0  0  0
  138.1833   77.2282  223.2254 H   0  0  0  0  0  0  0  0  0  0  0  0
  141.6899   78.0992  224.1592 H   0  0  0  0  0  0  0  0  0  0  0  0
  142.5073   78.0763  222.6441 H   0  0  0  0  0  0  0  0  0  0  0  0
  142.0567   80.5004  224.5497 H   0  0  0  0  0  0  0  0  0  0  0  0
  143.6094   79.9504  223.9968 H   0  0  0  0  0  0  0  0  0  0  0  0
  142.1115   81.9011  222.6892 H   0  0  0  0  0  0  0  0  0  0  0  0
  143.2632   80.8724  221.8114 H   0  0  0  0  0  0  0  0  0  0  0  0
  140.4378   80.9351  221.3046 H   0  0  0  0  0  0  0  0  0  0  0  0
  142.2687   76.3768  219.3162 H   0  0  0  0  0  0  0  0  0  0  0  0
  142.9742   77.7374  217.3624 H   0  0  0  0  0  0  0  0  0  0  0  0
  142.8609   80.2189  217.3960 H   0  0  0  0  0  0  0  0  0  0  0  0
  139.5587   72.6972  221.9068 H   0  0  0  0  0  0  0  0  0  0  0  0
  141.4582   71.2118  221.2192 H   0  0  0  0  0  0  0  0  0  0  0  0
  143.7880   70.9966  220.4417 H   0  0  0  0  0  0  0  0  0  0  0  0
  145.9067   72.1191  219.7756 H   0  0  0  0  0  0  0  0  0  0  0  0
  146.1219   74.5728  219.7868 H   0  0  0  0  0  0  0  0  0  0  0  0
  144.1744   75.9462  220.4822 H   0  0  0  0  0  0  0  0  0  0  0  0
  1  2  2  0
  2  3  1  0
  3  4  1  0
  4  5  1  0
  5  6  2  0
  5  7  1  0
  7  8  1  0
  8  9  1  0
  9 10  1  0
 10 11  1  0
 11 12  1  0
 12 13  2  0
 13 14  1  0
 14 15  2  0
 15 16  1  0
 16 17  2  0
  2 18  1  0
 18 19  2  0
 19 20  1  0
 20 21  2  0
 21 22  1  0
 22 23  2  0
 23 24  1  0
 24 25  2  0
 25 26  1  0
 26 27  2  0
 11  7  1  0
 17 12  1  0
 27 18  1  0
 26 21  1  0
  3 28  1  0
  4 29  1  0
  4 30  1  0
  8 31  1  0
  8 32  1  0
  9 33  1  0
  9 34  1  0
 10 35  1  0
 10 36  1  0
 11 37  1  6
 14 38  1  0
 15 39  1  0
 16 40  1  0
 19 41  1  0
 20 42  1  0
 22 43  1  0
 23 44  1  0
 24 45  1  0
 25 46  1  0
M  END
>  <smiles>  (24) 
O=C(NCC(=O)N1CCC[C@H]1c1ncccn1)c1ccc2ccccc2n1

>  <score_type>  (24) 
oracle

>  <origin>  (24) 
autodockgpu

>  <m_score__min__energy>  (24) 
-8.3499999999999996

>  <m_primary>  (24) 
energy

>  <rmsd>  (24) 
6.001018141042886

>  <m_score__min__rmsd>  (24) 
6.001018141042886

>  <meeko>  (24) 
{"free_energy": -6.43, "intermolecular_energy": -7.92, "internal_energy": -2.87, "cluster_size": 4, "cluster_id": 5, "rank_in_cluster": 4}

>  <energy>  (24) 
-8.29

>  <cluster_rmsd>  (24) 
0.0

>  <cluster>  (24) 
2

$$$$

     RDKit          3D

 46 49  0  0  0  0  0  0  0  0999 V2000
  138.7250   74.8450  221.9500 O   0  0  0  0  0  0  0  0  0  0  0  0
  139.8960   75.2980  221.8280 C   0  0  0  0  0  0  0  0  0  0  0  0
  140.2170   76.6710  222.0110 N   0  0  0  0  0  0  0  0  0  0  0  0
  139.1790   77.6240  222.3560 C   0  0  0  0  0  0  0  0  0  0  0  0
  139.7260   78.7800  223.1020 C   0  0  0  0  0  0  0  0  0  0  0  0
  139.1110   79.2490  224.1050 O   0  0  0  0  0  0  0  0  0  0  0  0
  140.9570   79.3290  222.6430 N   0  0  0  0  0  0  0  0  0  0  0  0
  142.2990   79.1310  223.1710 C   0  0  0  0  0  0  0  0  0  0  0  0
  142.6750   80.5850  223.3760 C   0  0  0  0  0  0  0  0  0  0  0  0
  142.2010   81.1910  222.0750 C   0  0  0  0  0  0  0  0  0  0  0  0
  141.1520   80.2400  221.5040 C   0  0  1  0  0  0  0  0  0  0  0  0
  141.7110   79.4890  220.3410 C   0  0  0  0  0  0  0  0  0  0  0  0
  141.8600   78.1520  220.3530 N   0  0  0  0  0  0  0  0  0  0  0  0
  142.3730   77.4820  219.2810 C   0  0  0  0  0  0  0  0  0  0  0  0
  142.7330   78.2370  218.1800 C   0  0  0  0  0  0  0  0  0  0  0  0
  142.5930   79.6110  218.1340 C   0  0  0  0  0  0  0  0  0  0  0  0
  142.0750   80.2080  219.2400 N   0  0  0  0  0  0  0  0  0  0  0  0
  140.9920   74.3710  221.4770 C   0  0  0  0  0  0  0  0  0  0  0  0
  140.7830   73.0080  221.5080 C   0  0  0  0  0  0  0  0  0  0  0  0
  141.8290   72.1450  221.1730 C   0  0  0  0  0  0  0  0  0  0  0  0
  143.0550   72.6720  220.8180 C   0  0  0  0  0  0  0  0  0  0  0  0
  144.1250   71.8580  220.4780 C   0  0  0  0  0  0  0  0  0  0  0  0
  145.3360   72.4590  220.1280 C   0  0  0  0  0  0  0  0  0  0  0  0
  145.5040   73.8160  220.1100 C   0  0  0  0  0  0  0  0  0  0  0  0
  144.4340   74.6060  220.4500 C   0  0  0  0  0  0  0  0  0  0  0  0
  143.2290   74.0400  220.7980 C   0  0  0  0  0  0  0  0  0  0  0  0
  142.2070   74.8210  221.1220 N   0  0  0  0  0  0  0  0  0  0  0  0
  141.2310   76.9660  221.8880 H   0  0  0  0  0  0  0  0  0  0  0  0
  138.7063   77.9872  221.4315 H   0  0  0  0  0  0  0  0  0  0  0  0
  138.4454   77.1157  222.9991 H   0  0  0  0  0  0  0  0  0  0  0  0
  142.2940   78.5668  224.1153 H   0  0  0  0  0  0  0  0  0  0  0  0
  142.9809   78.5456  222.5367 H   0  0  0  0  0  0  0  0  0  0  0  0
  142.1503   81.0202  224.2393 H   0  0  0  0  0  0  0  0  0  0  0  0
  143.7405   80.7519  223.5926 H   0  0  0  0  0  0  0  0  0  0  0  0
  141.7563   82.1804  222.2575 H   0  0  0  0  0  0  0  0  0  0  0  0
  143.0374   81.3248  221.3731 H   0  0  0  0  0  0  0  0  0  0  0  0
  140.2374   80.7314  221.1406 H   0  0  0  0  0  0  0  0  0  0  0  0
  142.4949   76.3888  219.2921 H   0  0  0  0  0  0  0  0  0  0  0  0
  143.1492   77.7212  217.3021 H   0  0  0  0  0  0  0  0  0  0  0  0
  142.8859   80.1923  217.2473 H   0  0  0  0  0  0  0  0  0  0  0  0
  139.8007   72.6040  221.7941 H   0  0  0  0  0  0  0  0  0  0  0  0
  141.6775   71.0556  221.1918 H   0  0  0  0  0  0  0  0  0  0  0  0
  144.0221   70.7628  220.4839 H   0  0  0  0  0  0  0  0  0  0  0  0
  146.1867   71.8167  219.8566 H   0  0  0  0  0  0  0  0  0  0  0  0
  146.4699   74.2623  219.8308 H   0  0  0  0  0  0  0  0  0  0  0  0
  144.5408   75.7008  220.4442 H   0  0  0  0  0  0  0  0  0  0  0  0
  1  2  2  0
  2  3  1  0
  3  4  1  0
  4  5  1  0
  5  6  2  0
  5  7  1  0
  7  8  1  0
  8  9  1  0
  9 10  1  0
 10 11  1  0
 11 12  1  0
 12 13  2  0
 13 14  1  0
 14 15  2  0
 15 16  1  0
 16 17  2  0
  2 18  1  0
 18 19  2  0
 19 20  1  0
 20 21  2  0
 21 22  1  0
 22 23  2  0
 23 24  1  0
 24 25  2  0
 25 26  1  0
 26 27  2  0
 11  7  1  0
 17 12  1  0
 27 18  1  0
 26 21  1  0
  3 28  1  0
  4 29  1  0
  4 30  1  0
  8 31  1  0
  8 32  1  0
  9 33  1  0
  9 34  1  0
 10 35  1  0
 10 36  1  0
 11 37  1  6
 14 38  1  0
 15 39  1  0
 16 40  1  0
 19 41  1  0
 20 42  1  0
 22 43  1  0
 23 44  1  0
 24 45  1  0
 25 46  1  0
M  END
>  <smiles>  (25) 
O=C(NCC(=O)N1CCC[C@H]1c1ncccn1)c1ccc2ccccc2n1

>  <score_type>  (25) 
oracle

>  <origin>  (25) 
autodockgpu

>  <m_score__min__energy>  (25) 
-8.3499999999999996

>  <m_primary>  (25) 
energy

>  <rmsd>  (25) 
6.036708321122947

>  <m_score__min__rmsd>  (25) 
6.036708321122947

>  <meeko>  (25) 
{"free_energy": -6.59, "intermolecular_energy": -8.09, "internal_energy": -2.77, "cluster_size": 4, "cluster_id": 5, "rank_in_cluster": 1}

>  <energy>  (25) 
-8.26

>  <cluster_rmsd>  (25) 
0.13

>  <cluster>  (25) 
2

$$$$

     RDKit          3D

 46 49  0  0  0  0  0  0  0  0999 V2000
  141.2210   71.9540  221.5660 O   0  0  0  0  0  0  0  0  0  0  0  0
  140.3690   72.3000  222.4290 C   0  0  0  0  0  0  0  0  0  0  0  0
  139.5500   73.4550  222.2870 N   0  0  0  0  0  0  0  0  0  0  0  0
  139.6690   74.2960  221.1120 C   0  0  0  0  0  0  0  0  0  0  0  0
  140.6480   75.3860  221.3190 C   0  0  0  0  0  0  0  0  0  0  0  0
  141.8700   75.1250  221.5280 O   0  0  0  0  0  0  0  0  0  0  0  0
  140.1560   76.7220  221.2730 N   0  0  0  0  0  0  0  0  0  0  0  0
  138.8900   77.2480  221.7620 C   0  0  0  0  0  0  0  0  0  0  0  0
  138.4090   77.8990  220.4810 C   0  0  0  0  0  0  0  0  0  0  0  0
  139.6660   78.6040  220.0260 C   0  0  0  0  0  0  0  0  0  0  0  0
  140.8360   77.8980  220.7050 C   0  0  1  0  0  0  0  0  0  0  0  0
  141.3880   78.7460  221.8020 C   0  0  0  0  0  0  0  0  0  0  0  0
  141.8870   79.9750  221.5790 N   0  0  0  0  0  0  0  0  0  0  0  0
  142.3890   80.7370  222.5930 C   0  0  0  0  0  0  0  0  0  0  0  0
  142.3610   80.1910  223.8630 C   0  0  0  0  0  0  0  0  0  0  0  0
  141.8560   78.9330  224.1280 C   0  0  0  0  0  0  0  0  0  0  0  0
  141.3740   78.2330  223.0670 N   0  0  0  0  0  0  0  0  0  0  0  0
  140.2050   71.4800  223.6460 C   0  0  0  0  0  0  0  0  0  0  0  0
  139.5640   70.2600  223.5780 C   0  0  0  0  0  0  0  0  0  0  0  0
  139.4180   69.4950  224.7380 C   0  0  0  0  0  0  0  0  0  0  0  0
  139.9170   69.9750  225.9340 C   0  0  0  0  0  0  0  0  0  0  0  0
  139.7960   69.2550  227.1120 C   0  0  0  0  0  0  0  0  0  0  0  0
  140.3240   69.8000  228.2850 C   0  0  0  0  0  0  0  0  0  0  0  0
  140.9530   71.0140  228.3110 C   0  0  0  0  0  0  0  0  0  0  0  0
  141.0630   71.7130  227.1350 C   0  0  0  0  0  0  0  0  0  0  0  0
  140.5520   71.1980  225.9650 C   0  0  0  0  0  0  0  0  0  0  0  0
  140.6680   71.8890  224.8390 N   0  0  0  0  0  0  0  0  0  0  0  0
  138.8580   73.6710  223.0650 H   0  0  0  0  0  0  0  0  0  0  0  0
  139.9967   73.6784  220.2627 H   0  0  0  0  0  0  0  0  0  0  0  0
  138.6868   74.7492  220.9124 H   0  0  0  0  0  0  0  0  0  0  0  0
  138.2129   76.4503  222.1014 H   0  0  0  0  0  0  0  0  0  0  0  0
  138.9535   77.9084  222.6394 H   0  0  0  0  0  0  0  0  0  0  0  0
  138.0778   77.1498  219.7468 H   0  0  0  0  0  0  0  0  0  0  0  0
  137.5389   78.5600  220.6073 H   0  0  0  0  0  0  0  0  0  0  0  0
  139.7646   78.5349  218.9326 H   0  0  0  0  0  0  0  0  0  0  0  0
  139.6395   79.6709  220.2927 H   0  0  0  0  0  0  0  0  0  0  0  0
  141.6815   77.6694  220.0395 H   0  0  0  0  0  0  0  0  0  0  0  0
  142.7980   81.7413  222.4085 H   0  0  0  0  0  0  0  0  0  0  0  0
  142.7585   80.7848  224.6993 H   0  0  0  0  0  0  0  0  0  0  0  0
  141.8444   78.5182  225.1468 H   0  0  0  0  0  0  0  0  0  0  0  0
  139.1712   69.8927  222.6184 H   0  0  0  0  0  0  0  0  0  0  0  0
  138.9106   68.5198  224.6996 H   0  0  0  0  0  0  0  0  0  0  0  0
  139.2951   68.2757  227.1232 H   0  0  0  0  0  0  0  0  0  0  0  0
  140.2303   69.2317  229.2222 H   0  0  0  0  0  0  0  0  0  0  0  0
  141.3598   71.4194  229.2492 H   0  0  0  0  0  0  0  0  0  0  0  0
  141.5635   72.6925  227.1273 H   0  0  0  0  0  0  0  0  0  0  0  0
  1  2  2  0
  2  3  1  0
  3  4  1  0
  4  5  1  0
  5  6  2  0
  5  7  1  0
  7  8  1  0
  8  9  1  0
  9 10  1  0
 10 11  1  0
 11 12  1  0
 12 13  2  0
 13 14  1  0
 14 15  2  0
 15 16  1  0
 16 17  2  0
  2 18  1  0
 18 19  2  0
 19 20  1  0
 20 21  2  0
 21 22  1  0
 22 23  2  0
 23 24  1  0
 24 25  2  0
 25 26  1  0
 26 27  2  0
 11  7  1  0
 17 12  1  0
 27 18  1  0
 26 21  1  0
  3 28  1  0
  4 29  1  0
  4 30  1  0
  8 31  1  0
  8 32  1  0
  9 33  1  0
  9 34  1  0
 10 35  1  0
 10 36  1  0
 11 37  1  6
 14 38  1  0
 15 39  1  0
 16 40  1  0
 19 41  1  0
 20 42  1  0
 22 43  1  0
 23 44  1  0
 24 45  1  0
 25 46  1  0
M  END
>  <smiles>  (26) 
O=C(NCC(=O)N1CCC[C@H]1c1ncccn1)c1ccc2ccccc2n1

>  <score_type>  (26) 
oracle

>  <origin>  (26) 
autodockgpu

>  <m_score__min__energy>  (26) 
-8.3499999999999996

>  <m_primary>  (26) 
energy

>  <rmsd>  (26) 
2.399515973282595

>  <m_score__min__rmsd>  (26) 
2.399515973282595

>  <meeko>  (26) 
{"free_energy": -8.24, "intermolecular_energy": -9.73, "internal_energy": -1.24, "cluster_size": 23, "cluster_id": 1, "rank_in_cluster": 3}

>  <energy>  (26) 
-8.17

>  <cluster_rmsd>  (26) 
0.0

>  <cluster>  (26) 
3

$$$$

     RDKit          3D

 46 49  0  0  0  0  0  0  0  0999 V2000
  141.5230   72.2410  221.6240 O   0  0  0  0  0  0  0  0  0  0  0  0
  140.6060   72.5260  222.4430 C   0  0  0  0  0  0  0  0  0  0  0  0
  139.8220   73.7090  222.3430 N   0  0  0  0  0  0  0  0  0  0  0  0
  140.0550   74.6520  221.2670 C   0  0  0  0  0  0  0  0  0  0  0  0
  139.4320   75.9650  221.5480 C   0  0  0  0  0  0  0  0  0  0  0  0
  138.3990   76.0460  222.2770 O   0  0  0  0  0  0  0  0  0  0  0  0
  140.0420   77.1140  220.9680 N   0  0  0  0  0  0  0  0  0  0  0  0
  139.4230   78.2010  220.2230 C   0  0  0  0  0  0  0  0  0  0  0  0
  140.2780   78.1310  218.9740 C   0  0  0  0  0  0  0  0  0  0  0  0
  141.6590   78.0020  219.5760 C   0  0  0  0  0  0  0  0  0  0  0  0
  141.4710   77.4670  220.9930 C   0  0  1  0  0  0  0  0  0  0  0  0
  141.7100   78.5490  221.9930 C   0  0  0  0  0  0  0  0  0  0  0  0
  141.5890   78.3450  223.3170 N   0  0  0  0  0  0  0  0  0  0  0  0
  141.8120   79.3450  224.2170 C   0  0  0  0  0  0  0  0  0  0  0  0
  142.1680   80.5810  223.7090 C   0  0  0  0  0  0  0  0  0  0  0  0
  142.3010   80.8260  222.3560 C   0  0  0  0  0  0  0  0  0  0  0  0
  142.0630   79.7800  221.5200 N   0  0  0  0  0  0  0  0  0  0  0  0
  140.3260   71.6010  223.5590 C   0  0  0  0  0  0  0  0  0  0  0  0
  139.6470   70.4220  223.3280 C   0  0  0  0  0  0  0  0  0  0  0  0
  139.3900   69.5570  224.3940 C   0  0  0  0  0  0  0  0  0  0  0  0
  139.8200   69.8980  225.6620 C   0  0  0  0  0  0  0  0  0  0  0  0
  139.5890   69.0740  226.7530 C   0  0  0  0  0  0  0  0  0  0  0  0
  140.0530   69.4800  228.0070 C   0  0  0  0  0  0  0  0  0  0  0  0
  140.7230   70.6580  228.1950 C   0  0  0  0  0  0  0  0  0  0  0  0
  140.9410   71.4600  227.1040 C   0  0  0  0  0  0  0  0  0  0  0  0
  140.4960   71.0830  225.8570 C   0  0  0  0  0  0  0  0  0  0  0  0
  140.7180   71.8740  224.8150 N   0  0  0  0  0  0  0  0  0  0  0  0
  139.0700   73.8700  223.0780 H   0  0  0  0  0  0  0  0  0  0  0  0
  141.1391   74.7907  221.1425 H   0  0  0  0  0  0  0  0  0  0  0  0
  139.6027   74.2460  220.3501 H   0  0  0  0  0  0  0  0  0  0  0  0
  138.3615   78.0061  220.0103 H   0  0  0  0  0  0  0  0  0  0  0  0
  139.3985   79.1760  220.7316 H   0  0  0  0  0  0  0  0  0  0  0  0
  140.0225   77.2561  218.3582 H   0  0  0  0  0  0  0  0  0  0  0  0
  140.1581   78.9873  218.2941 H   0  0  0  0  0  0  0  0  0  0  0  0
  142.2669   77.3020  218.9840 H   0  0  0  0  0  0  0  0  0  0  0  0
  142.1792   78.9712  219.5846 H   0  0  0  0  0  0  0  0  0  0  0  0
  142.1482   76.6437  221.2643 H   0  0  0  0  0  0  0  0  0  0  0  0
  141.7130   79.1759  225.2994 H   0  0  0  0  0  0  0  0  0  0  0  0
  142.3534   81.4053  224.4133 H   0  0  0  0  0  0  0  0  0  0  0  0
  142.5852   81.8176  221.9739 H   0  0  0  0  0  0  0  0  0  0  0  0
  139.3109   70.1656  222.3125 H   0  0  0  0  0  0  0  0  0  0  0  0
  138.8504   68.6133  224.2257 H   0  0  0  0  0  0  0  0  0  0  0  0
  139.0521   68.1213  226.6340 H   0  0  0  0  0  0  0  0  0  0  0  0
  139.8729   68.8286  228.8749 H   0  0  0  0  0  0  0  0  0  0  0  0
  141.0771   70.9537  229.1936 H   0  0  0  0  0  0  0  0  0  0  0  0
  141.4763   72.4131  227.2265 H   0  0  0  0  0  0  0  0  0  0  0  0
  1  2  2  0
  2  3  1  0
  3  4  1  0
  4  5  1  0
  5  6  2  0
  5  7  1  0
  7  8  1  0
  8  9  1  0
  9 10  1  0
 10 11  1  0
 11 12  1  0
 12 13  2  0
 13 14  1  0
 14 15  2  0
 15 16  1  0
 16 17  2  0
  2 18  1  0
 18 19  2  0
 19 20  1  0
 20 21  2  0
 21 22  1  0
 22 23  2  0
 23 24  1  0
 24 25  2  0
 25 26  1  0
 26 27  2  0
 11  7  1  0
 17 12  1  0
 27 18  1  0
 26 21  1  0
  3 28  1  0
  4 29  1  0
  4 30  1  0
  8 31  1  0
  8 32  1  0
  9 33  1  0
  9 34  1  0
 10 35  1  0
 10 36  1  0
 11 37  1  1
 14 38  1  0
 15 39  1  0
 16 40  1  0
 19 41  1  0
 20 42  1  0
 22 43  1  0
 23 44  1  0
 24 45  1  0
 25 46  1  0
M  END
>  <smiles>  (27) 
O=C(NCC(=O)N1CCC[C@H]1c1ncccn1)c1ccc2ccccc2n1

>  <score_type>  (27) 
oracle

>  <origin>  (27) 
autodockgpu

>  <m_score__min__energy>  (27) 
-8.3499999999999996

>  <m_primary>  (27) 
energy

>  <rmsd>  (27) 
2.092680531580689

>  <m_score__min__rmsd>  (27) 
2.092680531580689

>  <meeko>  (27) 
{"free_energy": -8.09, "intermolecular_energy": -9.58, "internal_energy": -1.59, "cluster_size": 23, "cluster_id": 1, "rank_in_cluster": 11}

>  <energy>  (27) 
-8.13

>  <cluster_rmsd>  (27) 
0.28

>  <cluster>  (27) 
3

$$$$

     RDKit          3D

 46 49  0  0  0  0  0  0  0  0999 V2000
  141.4860   72.2880  221.6090 O   0  0  0  0  0  0  0  0  0  0  0  0
  140.5670   72.5630  222.4280 C   0  0  0  0  0  0  0  0  0  0  0  0
  139.7830   73.7470  222.3420 N   0  0  0  0  0  0  0  0  0  0  0  0
  140.0200   74.7040  221.2780 C   0  0  0  0  0  0  0  0  0  0  0  0
  139.4400   76.0280  221.5960 C   0  0  0  0  0  0  0  0  0  0  0  0
  138.4560   76.1280  222.3880 O   0  0  0  0  0  0  0  0  0  0  0  0
  140.0350   77.1650  220.9780 N   0  0  0  0  0  0  0  0  0  0  0  0
  139.3940   78.2470  220.2450 C   0  0  0  0  0  0  0  0  0  0  0  0
  140.1980   78.1560  218.9640 C   0  0  0  0  0  0  0  0  0  0  0  0
  141.6010   78.0260  219.5140 C   0  0  0  0  0  0  0  0  0  0  0  0
  141.4650   77.5090  220.9440 C   0  0  1  0  0  0  0  0  0  0  0  0
  141.7510   78.6020  221.9190 C   0  0  0  0  0  0  0  0  0  0  0  0
  142.1790   79.8180  221.5320 N   0  0  0  0  0  0  0  0  0  0  0  0
  142.4350   80.8050  222.4380 C   0  0  0  0  0  0  0  0  0  0  0  0
  142.2350   80.5030  223.7720 C   0  0  0  0  0  0  0  0  0  0  0  0
  141.7960   79.2660  224.2040 C   0  0  0  0  0  0  0  0  0  0  0  0
  141.5620   78.3330  223.2440 N   0  0  0  0  0  0  0  0  0  0  0  0
  140.2830   71.6240  223.5330 C   0  0  0  0  0  0  0  0  0  0  0  0
  139.5960   70.4530  223.2860 C   0  0  0  0  0  0  0  0  0  0  0  0
  139.3360   69.5740  224.3410 C   0  0  0  0  0  0  0  0  0  0  0  0
  139.7700   69.8950  225.6120 C   0  0  0  0  0  0  0  0  0  0  0  0
  139.5360   69.0570  226.6920 C   0  0  0  0  0  0  0  0  0  0  0  0
  140.0040   69.4430  227.9500 C   0  0  0  0  0  0  0  0  0  0  0  0
  140.6810   70.6140  228.1540 C   0  0  0  0  0  0  0  0  0  0  0  0
  140.9030   71.4300  227.0740 C   0  0  0  0  0  0  0  0  0  0  0  0
  140.4540   71.0730  225.8230 C   0  0  0  0  0  0  0  0  0  0  0  0
  140.6790   71.8770  224.7910 N   0  0  0  0  0  0  0  0  0  0  0  0
  139.0290   73.8990  223.0760 H   0  0  0  0  0  0  0  0  0  0  0  0
  141.1047   74.8151  221.1331 H   0  0  0  0  0  0  0  0  0  0  0  0
  139.5376   74.3280  220.3637 H   0  0  0  0  0  0  0  0  0  0  0  0
  138.3236   78.0570  220.0771 H   0  0  0  0  0  0  0  0  0  0  0  0
  139.3961   79.2283  220.7421 H   0  0  0  0  0  0  0  0  0  0  0  0
  139.9135   77.2750  218.3700 H   0  0  0  0  0  0  0  0  0  0  0  0
  140.0562   79.0040  218.2778 H   0  0  0  0  0  0  0  0  0  0  0  0
  142.1817   77.3154  218.9075 H   0  0  0  0  0  0  0  0  0  0  0  0
  142.1264   78.9921  219.4907 H   0  0  0  0  0  0  0  0  0  0  0  0
  142.1461   76.6841  221.2004 H   0  0  0  0  0  0  0  0  0  0  0  0
  142.7854   81.7983  222.1208 H   0  0  0  0  0  0  0  0  0  0  0  0
  142.4341   81.2818  224.5229 H   0  0  0  0  0  0  0  0  0  0  0  0
  141.6436   79.0475  225.2712 H   0  0  0  0  0  0  0  0  0  0  0  0
  139.2560   70.2135  222.2677 H   0  0  0  0  0  0  0  0  0  0  0  0
  138.7910   68.6357  224.1607 H   0  0  0  0  0  0  0  0  0  0  0  0
  138.9936   68.1090  226.5607 H   0  0  0  0  0  0  0  0  0  0  0  0
  139.8213   68.7805  228.8089 H   0  0  0  0  0  0  0  0  0  0  0  0
  141.0375   70.8935  229.1564 H   0  0  0  0  0  0  0  0  0  0  0  0
  141.4446   72.3779  227.2090 H   0  0  0  0  0  0  0  0  0  0  0  0
  1  2  2  0
  2  3  1  0
  3  4  1  0
  4  5  1  0
  5  6  2  0
  5  7  1  0
  7  8  1  0
  8  9  1  0
  9 10  1  0
 10 11  1  0
 11 12  1  0
 12 13  2  0
 13 14  1  0
 14 15  2  0
 15 16  1  0
 16 17  2  0
  2 18  1  0
 18 19  2  0
 19 20  1  0
 20 21  2  0
 21 22  1  0
 22 23  2  0
 23 24  1  0
 24 25  2  0
 25 26  1  0
 26 27  2  0
 11  7  1  0
 17 12  1  0
 27 18  1  0
 26 21  1  0
  3 28  1  0
  4 29  1  0
  4 30  1  0
  8 31  1  0
  8 32  1  0
  9 33  1  0
  9 34  1  0
 10 35  1  0
 10 36  1  0
 11 37  1  1
 14 38  1  0
 15 39  1  0
 16 40  1  0
 19 41  1  0
 20 42  1  0
 22 43  1  0
 23 44  1  0
 24 45  1  0
 25 46  1  0
M  END
>  <smiles>  (28) 
O=C(NCC(=O)N1CCC[C@H]1c1ncccn1)c1ccc2ccccc2n1

>  <score_type>  (28) 
oracle

>  <origin>  (28) 
autodockgpu

>  <m_score__min__energy>  (28) 
-8.3499999999999996

>  <m_primary>  (28) 
energy

>  <rmsd>  (28) 
2.3326165715166094

>  <m_score__min__rmsd>  (28) 
2.3326165715166094

>  <meeko>  (28) 
{"free_energy": -8.12, "intermolecular_energy": -9.61, "internal_energy": -1.62, "cluster_size": 23, "cluster_id": 1, "rank_in_cluster": 9}

>  <energy>  (28) 
-8.07

>  <cluster_rmsd>  (28) 
0.25

>  <cluster>  (28) 
3

$$$$

     RDKit          3D

 46 49  0  0  0  0  0  0  0  0999 V2000
  141.0970   74.4530  221.3870 O   0  0  0  0  0  0  0  0  0  0  0  0
  140.0540   74.8810  221.9530 C   0  0  0  0  0  0  0  0  0  0  0  0
  138.9390   74.0500  222.2520 N   0  0  0  0  0  0  0  0  0  0  0  0
  138.9640   72.6420  221.9070 C   0  0  0  0  0  0  0  0  0  0  0  0
  139.6640   71.8400  222.9340 C   0  0  0  0  0  0  0  0  0  0  0  0
  140.7000   72.2900  223.5090 O   0  0  0  0  0  0  0  0  0  0  0  0
  139.1250   70.5580  223.2400 N   0  0  0  0  0  0  0  0  0  0  0  0
  139.1950   69.3280  222.4660 C   0  0  0  0  0  0  0  0  0  0  0  0
  137.7110   69.0250  222.3930 C   0  0  0  0  0  0  0  0  0  0  0  0
  137.2970   69.2720  223.8260 C   0  0  0  0  0  0  0  0  0  0  0  0
  138.3580   70.1820  224.4390 C   0  0  1  0  0  0  0  0  0  0  0  0
  139.2250   69.4100  225.3770 C   0  0  0  0  0  0  0  0  0  0  0  0
  139.1120   68.0780  225.5290 N   0  0  0  0  0  0  0  0  0  0  0  0
  139.9120   67.3870  226.3910 C   0  0  0  0  0  0  0  0  0  0  0  0
  140.8460   68.1160  227.1030 C   0  0  0  0  0  0  0  0  0  0  0  0
  140.9900   69.4840  226.9720 C   0  0  0  0  0  0  0  0  0  0  0  0
  140.1570   70.1030  226.0940 N   0  0  0  0  0  0  0  0  0  0  0  0
  139.9750   76.3080  222.3270 C   0  0  0  0  0  0  0  0  0  0  0  0
  138.7460   76.9240  222.4500 C   0  0  0  0  0  0  0  0  0  0  0  0
  138.6870   78.2740  222.8050 C   0  0  0  0  0  0  0  0  0  0  0  0
  139.8600   78.9690  223.0260 C   0  0  0  0  0  0  0  0  0  0  0  0
  139.8550   80.3100  223.3790 C   0  0  0  0  0  0  0  0  0  0  0  0
  141.0790   80.9500  223.5880 C   0  0  0  0  0  0  0  0  0  0  0  0
  142.2770   80.3030  223.4560 C   0  0  0  0  0  0  0  0  0  0  0  0
  142.2620   78.9770  223.1050 C   0  0  0  0  0  0  0  0  0  0  0  0
  141.0710   78.3220  222.8940 C   0  0  0  0  0  0  0  0  0  0  0  0
  141.0780   77.0390  222.5560 N   0  0  0  0  0  0  0  0  0  0  0  0
  138.1010   74.4960  222.7310 H   0  0  0  0  0  0  0  0  0  0  0  0
  137.9297   72.2790  221.8149 H   0  0  0  0  0  0  0  0  0  0  0  0
  139.5065   72.5312  220.9565 H   0  0  0  0  0  0  0  0  0  0  0  0
  139.6348   69.4889  221.4707 H   0  0  0  0  0  0  0  0  0  0  0  0
  139.8253   68.5320  222.8892 H   0  0  0  0  0  0  0  0  0  0  0  0
  137.1933   69.7044  221.6998 H   0  0  0  0  0  0  0  0  0  0  0  0
  137.4708   68.0192  222.0179 H   0  0  0  0  0  0  0  0  0  0  0  0
  136.3130   69.7627  223.8570 H   0  0  0  0  0  0  0  0  0  0  0  0
  137.2170   68.3268  224.3830 H   0  0  0  0  0  0  0  0  0  0  0  0
  137.9573   71.0272  225.0178 H   0  0  0  0  0  0  0  0  0  0  0  0
  139.8181   66.2980  226.5141 H   0  0  0  0  0  0  0  0  0  0  0  0
  141.5040   67.5833  227.8053 H   0  0  0  0  0  0  0  0  0  0  0  0
  141.7408   70.0438  227.5490 H   0  0  0  0  0  0  0  0  0  0  0  0
  137.8208   76.3569  222.2701 H   0  0  0  0  0  0  0  0  0  0  0  0
  137.7151   78.7789  222.9076 H   0  0  0  0  0  0  0  0  0  0  0  0
  138.9078   80.8579  223.4920 H   0  0  0  0  0  0  0  0  0  0  0  0
  141.0795   82.0135  223.8691 H   0  0  0  0  0  0  0  0  0  0  0  0
  143.2264   80.8316  223.6266 H   0  0  0  0  0  0  0  0  0  0  0  0
  143.2110   78.4326  222.9912 H   0  0  0  0  0  0  0  0  0  0  0  0
  1  2  2  0
  2  3  1  0
  3  4  1  0
  4  5  1  0
  5  6  2  0
  5  7  1  0
  7  8  1  0
  8  9  1  0
  9 10  1  0
 10 11  1  0
 11 12  1  0
 12 13  2  0
 13 14  1  0
 14 15  2  0
 15 16  1  0
 16 17  2  0
  2 18  1  0
 18 19  2  0
 19 20  1  0
 20 21  2  0
 21 22  1  0
 22 23  2  0
 23 24  1  0
 24 25  2  0
 25 26  1  0
 26 27  2  0
 11  7  1  0
 17 12  1  0
 27 18  1  0
 26 21  1  0
  3 28  1  0
  4 29  1  0
  4 30  1  0
  8 31  1  0
  8 32  1  0
  9 33  1  0
  9 34  1  0
 10 35  1  0
 10 36  1  0
 11 37  1  1
 14 38  1  0
 15 39  1  0
 16 40  1  0
 19 41  1  0
 20 42  1  0
 22 43  1  0
 23 44  1  0
 24 45  1  0
 25 46  1  0
M  END
>  <smiles>  (29) 
O=C(NCC(=O)N1CCC[C@H]1c1ncccn1)c1ccc2ccccc2n1

>  <score_type>  (29) 
oracle

>  <origin>  (29) 
autodockgpu

>  <m_score__min__energy>  (29) 
-8.3499999999999996

>  <m_primary>  (29) 
energy

>  <rmsd>  (29) 
9.038637417838014

>  <m_score__min__rmsd>  (29) 
9.038637417838014

>  <meeko>  (29) 
{"free_energy": -8.29, "intermolecular_energy": -9.79, "internal_energy": -1.21, "cluster_size": 2, "cluster_id": 2, "rank_in_cluster": 1}

>  <energy>  (29) 
-8.03

>  <cluster_rmsd>  (29) 
0.36

>  <cluster>  (29) 
3

$$$$

     RDKit          3D

 46 49  0  0  0  0  0  0  0  0999 V2000
  141.4330   72.3200  221.6780 O   0  0  0  0  0  0  0  0  0  0  0  0
  140.4840   72.5470  222.4780 C   0  0  0  0  0  0  0  0  0  0  0  0
  139.6170   73.6670  222.3500 N   0  0  0  0  0  0  0  0  0  0  0  0
  139.7990   74.6120  221.2650 C   0  0  0  0  0  0  0  0  0  0  0  0
  139.3340   75.9670  221.6380 C   0  0  0  0  0  0  0  0  0  0  0  0
  138.3540   76.1190  222.4270 O   0  0  0  0  0  0  0  0  0  0  0  0
  140.0310   77.0730  221.0750 N   0  0  0  0  0  0  0  0  0  0  0  0
  139.5630   78.0510  220.1030 C   0  0  0  0  0  0  0  0  0  0  0  0
  140.6640   77.8870  219.0740 C   0  0  0  0  0  0  0  0  0  0  0  0
  141.8880   77.8790  219.9610 C   0  0  0  0  0  0  0  0  0  0  0  0
  141.4150   77.4860  221.3580 C   0  0  1  0  0  0  0  0  0  0  0  0
  141.4190   78.6750  222.2600 C   0  0  0  0  0  0  0  0  0  0  0  0
  140.3490   79.0190  223.0000 N   0  0  0  0  0  0  0  0  0  0  0  0
  140.3690   80.1090  223.8200 C   0  0  0  0  0  0  0  0  0  0  0  0
  141.5380   80.8460  223.8570 C   0  0  0  0  0  0  0  0  0  0  0  0
  142.6540   80.5220  223.1110 C   0  0  0  0  0  0  0  0  0  0  0  0
  142.5590   79.4220  222.3180 N   0  0  0  0  0  0  0  0  0  0  0  0
  140.2540   71.6170  223.6030 C   0  0  0  0  0  0  0  0  0  0  0  0
  139.5690   70.4370  223.3960 C   0  0  0  0  0  0  0  0  0  0  0  0
  139.3600   69.5680  224.4690 C   0  0  0  0  0  0  0  0  0  0  0  0
  139.8410   69.9060  225.7190 C   0  0  0  0  0  0  0  0  0  0  0  0
  139.6580   69.0780  226.8160 C   0  0  0  0  0  0  0  0  0  0  0  0
  140.1720   69.4820  228.0500 C   0  0  0  0  0  0  0  0  0  0  0  0
  140.8460   70.6610  228.2150 C   0  0  0  0  0  0  0  0  0  0  0  0
  141.0170   71.4670  227.1180 C   0  0  0  0  0  0  0  0  0  0  0  0
  140.5210   71.0930  225.8900 C   0  0  0  0  0  0  0  0  0  0  0  0
  140.6970   71.8870  224.8420 N   0  0  0  0  0  0  0  0  0  0  0  0
  138.8430   73.7810  223.0710 H   0  0  0  0  0  0  0  0  0  0  0  0
  140.8676   74.6594  221.0086 H   0  0  0  0  0  0  0  0  0  0  0  0
  139.2035   74.2684  220.4063 H   0  0  0  0  0  0  0  0  0  0  0  0
  138.5740   77.7919  219.6971 H   0  0  0  0  0  0  0  0  0  0  0  0
  139.4136   79.0716  220.4852 H   0  0  0  0  0  0  0  0  0  0  0  0
  140.5610   76.9429  218.5190 H   0  0  0  0  0  0  0  0  0  0  0  0
  140.6745   78.6619  218.2933 H   0  0  0  0  0  0  0  0  0  0  0  0
  142.6208   77.1477  219.5892 H   0  0  0  0  0  0  0  0  0  0  0  0
  142.3756   78.8650  219.9712 H   0  0  0  0  0  0  0  0  0  0  0  0
  142.0337   76.7236  221.8539 H   0  0  0  0  0  0  0  0  0  0  0  0
  139.4939   80.3890  224.4249 H   0  0  0  0  0  0  0  0  0  0  0  0
  141.5811   81.7302  224.5100 H   0  0  0  0  0  0  0  0  0  0  0  0
  143.5737   81.1238  223.1562 H   0  0  0  0  0  0  0  0  0  0  0  0
  139.1910   70.1832  222.3947 H   0  0  0  0  0  0  0  0  0  0  0  0
  138.8172   68.6229  224.3201 H   0  0  0  0  0  0  0  0  0  0  0  0
  139.1198   68.1238  226.7165 H   0  0  0  0  0  0  0  0  0  0  0  0
  140.0295   68.8274  228.9225 H   0  0  0  0  0  0  0  0  0  0  0  0
  141.2397   70.9545  229.1993 H   0  0  0  0  0  0  0  0  0  0  0  0
  141.5554   72.4207  227.2209 H   0  0  0  0  0  0  0  0  0  0  0  0
  1  2  2  0
  2  3  1  0
  3  4  1  0
  4  5  1  0
  5  6  2  0
  5  7  1  0
  7  8  1  0
  8  9  1  0
  9 10  1  0
 10 11  1  0
 11 12  1  0
 12 13  2  0
 13 14  1  0
 14 15  2  0
 15 16  1  0
 16 17  2  0
  2 18  1  0
 18 19  2  0
 19 20  1  0
 20 21  2  0
 21 22  1  0
 22 23  2  0
 23 24  1  0
 24 25  2  0
 25 26  1  0
 26 27  2  0
 11  7  1  0
 17 12  1  0
 27 18  1  0
 26 21  1  0
  3 28  1  0
  4 29  1  0
  4 30  1  0
  8 31  1  0
  8 32  1  0
  9 33  1  0
  9 34  1  0
 10 35  1  0
 10 36  1  0
 11 37  1  1
 14 38  1  0
 15 39  1  0
 16 40  1  0
 19 41  1  0
 20 42  1  0
 22 43  1  0
 23 44  1  0
 24 45  1  0
 25 46  1  0
M  END
>  <smiles>  (30) 
O=C(NCC(=O)N1CCC[C@H]1c1ncccn1)c1ccc2ccccc2n1

>  <score_type>  (30) 
oracle

>  <origin>  (30) 
autodockgpu

>  <m_score__min__energy>  (30) 
-8.3499999999999996

>  <m_primary>  (30) 
energy

>  <rmsd>  (30) 
2.1280692107945947

>  <m_score__min__rmsd>  (30) 
2.1280692107945947

>  <meeko>  (30) 
{"free_energy": -8.19, "intermolecular_energy": -9.68, "internal_energy": -1.52, "cluster_size": 23, "cluster_id": 1, "rank_in_cluster": 5}

>  <energy>  (30) 
-8.02

>  <cluster_rmsd>  (30) 
0.52

>  <cluster>  (30) 
3

$$$$

     RDKit          3D

 46 49  0  0  0  0  0  0  0  0999 V2000
  141.3970   72.1600  221.4620 O   0  0  0  0  0  0  0  0  0  0  0  0
  140.5750   72.5120  222.3530 C   0  0  0  0  0  0  0  0  0  0  0  0
  139.8930   73.7590  222.3260 N   0  0  0  0  0  0  0  0  0  0  0  0
  140.1240   74.6960  221.2430 C   0  0  0  0  0  0  0  0  0  0  0  0
  139.8200   76.0860  221.6490 C   0  0  0  0  0  0  0  0  0  0  0  0
  139.0890   76.3180  222.6580 O   0  0  0  0  0  0  0  0  0  0  0  0
  140.3810   77.1320  220.8630 N   0  0  0  0  0  0  0  0  0  0  0  0
  139.7420   77.9570  219.8480 C   0  0  0  0  0  0  0  0  0  0  0  0
  140.7070   77.6980  218.7090 C   0  0  0  0  0  0  0  0  0  0  0  0
  142.0350   77.8490  219.4170 C   0  0  0  0  0  0  0  0  0  0  0  0
  141.7670   77.6270  220.9030 C   0  0  1  0  0  0  0  0  0  0  0  0
  141.8240   78.9230  221.6400 C   0  0  0  0  0  0  0  0  0  0  0  0
  141.7930   80.1110  221.0090 N   0  0  0  0  0  0  0  0  0  0  0  0
  141.8470   81.2870  221.6980 C   0  0  0  0  0  0  0  0  0  0  0  0
  141.9350   81.2050  223.0760 C   0  0  0  0  0  0  0  0  0  0  0  0
  141.9690   80.0030  223.7560 C   0  0  0  0  0  0  0  0  0  0  0  0
  141.9120   78.8740  223.0010 N   0  0  0  0  0  0  0  0  0  0  0  0
  140.3020   71.5970  223.4800 C   0  0  0  0  0  0  0  0  0  0  0  0
  139.6270   70.4120  223.2630 C   0  0  0  0  0  0  0  0  0  0  0  0
  139.3770   69.5570  224.3390 C   0  0  0  0  0  0  0  0  0  0  0  0
  139.8080   69.9140  225.6020 C   0  0  0  0  0  0  0  0  0  0  0  0
  139.5830   69.1010  226.7020 C   0  0  0  0  0  0  0  0  0  0  0  0
  140.0470   69.5220  227.9500 C   0  0  0  0  0  0  0  0  0  0  0  0
  140.7120   70.7050  228.1250 C   0  0  0  0  0  0  0  0  0  0  0  0
  140.9250   71.4970  227.0240 C   0  0  0  0  0  0  0  0  0  0  0  0
  140.4790   71.1050  225.7830 C   0  0  0  0  0  0  0  0  0  0  0  0
  140.6950   71.8850  224.7320 N   0  0  0  0  0  0  0  0  0  0  0  0
  139.2180   73.9740  223.1190 H   0  0  0  0  0  0  0  0  0  0  0  0
  141.1793   74.6361  220.9385 H   0  0  0  0  0  0  0  0  0  0  0  0
  139.4579   74.4283  220.4095 H   0  0  0  0  0  0  0  0  0  0  0  0
  138.7236   77.6129  219.6149 H   0  0  0  0  0  0  0  0  0  0  0  0
  139.5912   79.0132  220.1159 H   0  0  0  0  0  0  0  0  0  0  0  0
  140.5821   76.6863  218.2957 H   0  0  0  0  0  0  0  0  0  0  0  0
  140.5761   78.3637  217.8431 H   0  0  0  0  0  0  0  0  0  0  0  0
  142.7504   77.1008  219.0448 H   0  0  0  0  0  0  0  0  0  0  0  0
  142.4685   78.8439  219.2373 H   0  0  0  0  0  0  0  0  0  0  0  0
  142.4840   76.9589  221.4025 H   0  0  0  0  0  0  0  0  0  0  0  0
  141.8217   82.2575  221.1808 H   0  0  0  0  0  0  0  0  0  0  0  0
  141.9799   82.1385  223.6562 H   0  0  0  0  0  0  0  0  0  0  0  0
  142.0387   79.9615  224.8530 H   0  0  0  0  0  0  0  0  0  0  0  0
  139.2890   70.1436  222.2512 H   0  0  0  0  0  0  0  0  0  0  0  0
  138.8421   68.6087  224.1822 H   0  0  0  0  0  0  0  0  0  0  0  0
  139.0503   68.1446  226.5941 H   0  0  0  0  0  0  0  0  0  0  0  0
  139.8714   68.8787  228.8249 H   0  0  0  0  0  0  0  0  0  0  0  0
  141.0660   71.0128  229.1200 H   0  0  0  0  0  0  0  0  0  0  0  0
  141.4569   72.4534  227.1351 H   0  0  0  0  0  0  0  0  0  0  0  0
  1  2  2  0
  2  3  1  0
  3  4  1  0
  4  5  1  0
  5  6  2  0
  5  7  1  0
  7  8  1  0
  8  9  1  0
  9 10  1  0
 10 11  1  0
 11 12  1  0
 12 13  2  0
 13 14  1  0
 14 15  2  0
 15 16  1  0
 16 17  2  0
  2 18  1  0
 18 19  2  0
 19 20  1  0
 20 21  2  0
 21 22  1  0
 22 23  2  0
 23 24  1  0
 24 25  2  0
 25 26  1  0
 26 27  2  0
 11  7  1  0
 17 12  1  0
 27 18  1  0
 26 21  1  0
  3 28  1  0
  4 29  1  0
  4 30  1  0
  8 31  1  0
  8 32  1  0
  9 33  1  0
  9 34  1  0
 10 35  1  0
 10 36  1  0
 11 37  1  1
 14 38  1  0
 15 39  1  0
 16 40  1  0
 19 41  1  0
 20 42  1  0
 22 43  1  0
 23 44  1  0
 24 45  1  0
 25 46  1  0
M  END
>  <smiles>  (31) 
O=C(NCC(=O)N1CCC[C@H]1c1ncccn1)c1ccc2ccccc2n1

>  <score_type>  (31) 
oracle

>  <origin>  (31) 
autodockgpu

>  <m_score__min__energy>  (31) 
-8.3499999999999996

>  <m_primary>  (31) 
energy

>  <rmsd>  (31) 
2.2090835634025336

>  <m_score__min__rmsd>  (31) 
2.2090835634025336

>  <meeko>  (31) 
{"free_energy": -8.07, "intermolecular_energy": -9.56, "internal_energy": -1.61, "cluster_size": 23, "cluster_id": 1, "rank_in_cluster": 15}

>  <energy>  (31) 
-7.99

>  <cluster_rmsd>  (31) 
0.41

>  <cluster>  (31) 
3

$$$$

     RDKit          3D

 46 49  0  0  0  0  0  0  0  0999 V2000
  138.4920   75.6560  221.9650 O   0  0  0  0  0  0  0  0  0  0  0  0
  139.6960   76.0290  222.0150 C   0  0  0  0  0  0  0  0  0  0  0  0
  140.7810   75.1910  221.6330 N   0  0  0  0  0  0  0  0  0  0  0  0
  140.5320   73.8440  221.1580 C   0  0  0  0  0  0  0  0  0  0  0  0
  141.7550   73.0120  221.2100 C   0  0  0  0  0  0  0  0  0  0  0  0
  141.8160   72.0020  221.9710 O   0  0  0  0  0  0  0  0  0  0  0  0
  142.8420   73.3990  220.3750 N   0  0  0  0  0  0  0  0  0  0  0  0
  143.3330   72.7630  219.1600 C   0  0  0  0  0  0  0  0  0  0  0  0
  144.7820   72.5900  219.5690 C   0  0  0  0  0  0  0  0  0  0  0  0
  145.0770   73.9470  220.1670 C   0  0  0  0  0  0  0  0  0  0  0  0
  143.7320   74.5560  220.5570 C   0  0  1  0  0  0  0  0  0  0  0  0
  143.3580   75.6420  219.6030 C   0  0  0  0  0  0  0  0  0  0  0  0
  143.7000   75.6050  218.3020 N   0  0  0  0  0  0  0  0  0  0  0  0
  143.3500   76.6070  217.4440 C   0  0  0  0  0  0  0  0  0  0  0  0
  142.6280   77.6620  217.9700 C   0  0  0  0  0  0  0  0  0  0  0  0
  142.2610   77.7320  219.3000 C   0  0  0  0  0  0  0  0  0  0  0  0
  142.6460   76.6970  220.0940 N   0  0  0  0  0  0  0  0  0  0  0  0
  140.0080   77.3910  222.4920 C   0  0  0  0  0  0  0  0  0  0  0  0
  138.9880   78.2520  222.8440 C   0  0  0  0  0  0  0  0  0  0  0  0
  139.2990   79.5380  223.2940 C   0  0  0  0  0  0  0  0  0  0  0  0
  140.6230   79.9250  223.3780 C   0  0  0  0  0  0  0  0  0  0  0  0
  140.9830   81.1890  223.8170 C   0  0  0  0  0  0  0  0  0  0  0  0
  142.3400   81.5140  223.8780 C   0  0  0  0  0  0  0  0  0  0  0  0
  143.3220   80.6310  223.5200 C   0  0  0  0  0  0  0  0  0  0  0  0
  142.9470   79.3840  223.0870 C   0  0  0  0  0  0  0  0  0  0  0  0
  141.6160   79.0390  223.0180 C   0  0  0  0  0  0  0  0  0  0  0  0
  141.2740   77.8280  222.5970 N   0  0  0  0  0  0  0  0  0  0  0  0
  141.7650   75.5870  221.7090 H   0  0  0  0  0  0  0  0  0  0  0  0
  139.7584   73.3808  221.7880 H   0  0  0  0  0  0  0  0  0  0  0  0
  140.2020   73.9046  220.1104 H   0  0  0  0  0  0  0  0  0  0  0  0
  142.8385   71.7995  218.9673 H   0  0  0  0  0  0  0  0  0  0  0  0
  143.1626   73.3193  218.2265 H   0  0  0  0  0  0  0  0  0  0  0  0
  144.8990   71.7871  220.3118 H   0  0  0  0  0  0  0  0  0  0  0  0
  145.4537   72.3009  218.7473 H   0  0  0  0  0  0  0  0  0  0  0  0
  145.7162   73.8389  221.0557 H   0  0  0  0  0  0  0  0  0  0  0  0
  145.6089   74.5888  219.4492 H   0  0  0  0  0  0  0  0  0  0  0  0
  143.7071   75.0072  221.5599 H   0  0  0  0  0  0  0  0  0  0  0  0
  143.6301   76.5764  216.3807 H   0  0  0  0  0  0  0  0  0  0  0  0
  142.3325   78.4825  217.2995 H   0  0  0  0  0  0  0  0  0  0  0  0
  141.6864   78.5819  219.6968 H   0  0  0  0  0  0  0  0  0  0  0  0
  137.9392   77.9286  222.7709 H   0  0  0  0  0  0  0  0  0  0  0  0
  138.4975   80.2356  223.5787 H   0  0  0  0  0  0  0  0  0  0  0  0
  140.2164   81.9209  224.1112 H   0  0  0  0  0  0  0  0  0  0  0  0
  142.6298   82.5163  224.2265 H   0  0  0  0  0  0  0  0  0  0  0  0
  144.3836   80.9132  223.5777 H   0  0  0  0  0  0  0  0  0  0  0  0
  143.7158   78.6544  222.7928 H   0  0  0  0  0  0  0  0  0  0  0  0
  1  2  2  0
  2  3  1  0
  3  4  1  0
  4  5  1  0
  5  6  2  0
  5  7  1  0
  7  8  1  0
  8  9  1  0
  9 10  1  0
 10 11  1  0
 11 12  1  0
 12 13  2  0
 13 14  1  0
 14 15  2  0
 15 16  1  0
 16 17  2  0
  2 18  1  0
 18 19  2  0
 19 20  1  0
 20 21  2  0
 21 22  1  0
 22 23  2  0
 23 24  1  0
 24 25  2  0
 25 26  1  0
 26 27  2  0
 11  7  1  0
 17 12  1  0
 27 18  1  0
 26 21  1  0
  3 28  1  0
  4 29  1  0
  4 30  1  0
  8 31  1  0
  8 32  1  0
  9 33  1  0
  9 34  1  0
 10 35  1  0
 10 36  1  0
 11 37  1  1
 14 38  1  0
 15 39  1  0
 16 40  1  0
 19 41  1  0
 20 42  1  0
 22 43  1  0
 23 44  1  0
 24 45  1  0
 25 46  1  0
M  END
>  <smiles>  (32) 
O=C(NCC(=O)N1CCC[C@H]1c1ncccn1)c1ccc2ccccc2n1

>  <score_type>  (32) 
oracle

>  <origin>  (32) 
autodockgpu

>  <m_score__min__energy>  (32) 
-8.3499999999999996

>  <m_primary>  (32) 
energy

>  <rmsd>  (32) 
7.415751215613551

>  <m_score__min__rmsd>  (32) 
7.415751215613551

>  <meeko>  (32) 
{"free_energy": -6.86, "intermolecular_energy": -8.35, "internal_energy": -2.82, "cluster_size": 11, "cluster_id": 4, "rank_in_cluster": 3}

>  <energy>  (32) 
-7.93

>  <cluster_rmsd>  (32) 
0.61

>  <cluster>  (32) 
3

$$$$

     RDKit          3D

 46 49  0  0  0  0  0  0  0  0999 V2000
  140.7520   71.4130  221.2960 O   0  0  0  0  0  0  0  0  0  0  0  0
  140.3180   72.0320  222.3060 C   0  0  0  0  0  0  0  0  0  0  0  0
  139.9290   73.4000  222.2670 N   0  0  0  0  0  0  0  0  0  0  0  0
  140.0210   74.1500  221.0290 C   0  0  0  0  0  0  0  0  0  0  0  0
  140.8130   75.3890  221.1990 C   0  0  0  0  0  0  0  0  0  0  0  0
  140.5810   76.1760  222.1640 O   0  0  0  0  0  0  0  0  0  0  0  0
  141.8330   75.6470  220.2390 N   0  0  0  0  0  0  0  0  0  0  0  0
  142.6360   76.8470  220.0580 C   0  0  0  0  0  0  0  0  0  0  0  0
  142.3380   77.0970  218.5930 C   0  0  0  0  0  0  0  0  0  0  0  0
  142.4950   75.7040  218.0260 C   0  0  0  0  0  0  0  0  0  0  0  0
  142.3150   74.7340  219.1910 C   0  0  1  0  0  0  0  0  0  0  0  0
  143.6310   74.1500  219.5880 C   0  0  0  0  0  0  0  0  0  0  0  0
  144.0680   74.1640  220.8610 N   0  0  0  0  0  0  0  0  0  0  0  0
  145.2730   73.6270  221.2070 C   0  0  0  0  0  0  0  0  0  0  0  0
  146.0260   73.0660  220.1920 C   0  0  0  0  0  0  0  0  0  0  0  0
  145.6080   73.0340  218.8760 C   0  0  0  0  0  0  0  0  0  0  0  0
  144.3960   73.5900  218.6080 N   0  0  0  0  0  0  0  0  0  0  0  0
  140.2050   71.3170  223.5940 C   0  0  0  0  0  0  0  0  0  0  0  0
  139.6250   70.0650  223.6420 C   0  0  0  0  0  0  0  0  0  0  0  0
  139.5270   69.4010  224.8670 C   0  0  0  0  0  0  0  0  0  0  0  0
  140.0090   70.0100  226.0090 C   0  0  0  0  0  0  0  0  0  0  0  0
  139.9340   69.3930  227.2490 C   0  0  0  0  0  0  0  0  0  0  0  0
  140.4420   70.0660  228.3620 C   0  0  0  0  0  0  0  0  0  0  0  0
  141.0100   71.3080  228.2720 C   0  0  0  0  0  0  0  0  0  0  0  0
  141.0750   71.9030  227.0380 C   0  0  0  0  0  0  0  0  0  0  0  0
  140.5820   71.2610  225.9240 C   0  0  0  0  0  0  0  0  0  0  0  0
  140.6550   71.8540  224.7400 N   0  0  0  0  0  0  0  0  0  0  0  0
  139.5750   73.8420  223.1670 H   0  0  0  0  0  0  0  0  0  0  0  0
  140.5021   73.5209  220.2656 H   0  0  0  0  0  0  0  0  0  0  0  0
  139.0032   74.4322  220.7217 H   0  0  0  0  0  0  0  0  0  0  0  0
  142.2949   77.6744  220.6975 H   0  0  0  0  0  0  0  0  0  0  0  0
  143.7002   76.7540  220.3202 H   0  0  0  0  0  0  0  0  0  0  0  0
  141.3170   77.4797  218.4478 H   0  0  0  0  0  0  0  0  0  0  0  0
  142.9819   77.8541  218.1216 H   0  0  0  0  0  0  0  0  0  0  0  0
  141.7304   75.5192  217.2571 H   0  0  0  0  0  0  0  0  0  0  0  0
  143.4805   75.5774  217.5540 H   0  0  0  0  0  0  0  0  0  0  0  0
  141.6532   73.8813  218.9790 H   0  0  0  0  0  0  0  0  0  0  0  0
  145.6300   73.6396  222.2474 H   0  0  0  0  0  0  0  0  0  0  0  0
  147.0019   72.6254  220.4440 H   0  0  0  0  0  0  0  0  0  0  0  0
  146.2240   72.5818  218.0848 H   0  0  0  0  0  0  0  0  0  0  0  0
  139.2435   69.5946  222.7238 H   0  0  0  0  0  0  0  0  0  0  0  0
  139.0700   68.4019  224.9216 H   0  0  0  0  0  0  0  0  0  0  0  0
  139.4839   68.3947  227.3534 H   0  0  0  0  0  0  0  0  0  0  0  0
  140.3836   69.5802  229.3472 H   0  0  0  0  0  0  0  0  0  0  0  0
  141.4037   71.8152  229.1652 H   0  0  0  0  0  0  0  0  0  0  0  0
  141.5249   72.9017  226.9373 H   0  0  0  0  0  0  0  0  0  0  0  0
  1  2  2  0
  2  3  1  0
  3  4  1  0
  4  5  1  0
  5  6  2  0
  5  7  1  0
  7  8  1  0
  8  9  1  0
  9 10  1  0
 10 11  1  0
 11 12  1  0
 12 13  2  0
 13 14  1  0
 14 15  2  0
 15 16  1  0
 16 17  2  0
  2 18  1  0
 18 19  2  0
 19 20  1  0
 20 21  2  0
 21 22  1  0
 22 23  2  0
 23 24  1  0
 24 25  2  0
 25 26  1  0
 26 27  2  0
 11  7  1  0
 17 12  1  0
 27 18  1  0
 26 21  1  0
  3 28  1  0
  4 29  1  0
  4 30  1  0
  8 31  1  0
  8 32  1  0
  9 33  1  0
  9 34  1  0
 10 35  1  0
 10 36  1  0
 11 37  1  6
 14 38  1  0
 15 39  1  0
 16 40  1  0
 19 41  1  0
 20 42  1  0
 22 43  1  0
 23 44  1  0
 24 45  1  0
 25 46  1  0
M  END
>  <smiles>  (33) 
O=C(NCC(=O)N1CCC[C@H]1c1ncccn1)c1ccc2ccccc2n1

>  <score_type>  (33) 
oracle

>  <origin>  (33) 
autodockgpu

>  <m_score__min__energy>  (33) 
-8.3499999999999996

>  <m_primary>  (33) 
energy

>  <rmsd>  (33) 
3.7879577772535433

>  <m_score__min__rmsd>  (33) 
3.7879577772535433

>  <meeko>  (33) 
{"free_energy": -7.92, "intermolecular_energy": -9.41, "internal_energy": -1.65, "cluster_size": 10, "cluster_id": 3, "rank_in_cluster": 8}

>  <energy>  (33) 
-7.92

>  <cluster_rmsd>  (33) 
0.6

>  <cluster>  (33) 
3

$$$$

     RDKit          3D

 46 49  0  0  0  0  0  0  0  0999 V2000
  138.4540   75.5960  222.1790 O   0  0  0  0  0  0  0  0  0  0  0  0
  139.6380   76.0160  222.0660 C   0  0  0  0  0  0  0  0  0  0  0  0
  140.6860   75.2310  221.5090 N   0  0  0  0  0  0  0  0  0  0  0  0
  140.4200   73.8850  221.0390 C   0  0  0  0  0  0  0  0  0  0  0  0
  141.6180   73.0220  221.1510 C   0  0  0  0  0  0  0  0  0  0  0  0
  141.6310   72.0380  221.9480 O   0  0  0  0  0  0  0  0  0  0  0  0
  142.7350   73.3490  220.3310 N   0  0  0  0  0  0  0  0  0  0  0  0
  143.2220   72.6740  219.1360 C   0  0  0  0  0  0  0  0  0  0  0  0
  144.6540   72.4460  219.5760 C   0  0  0  0  0  0  0  0  0  0  0  0
  144.9950   73.7990  220.1580 C   0  0  0  0  0  0  0  0  0  0  0  0
  143.6710   74.4700  220.5130 C   0  0  1  0  0  0  0  0  0  0  0  0
  143.3610   75.5550  219.5360 C   0  0  0  0  0  0  0  0  0  0  0  0
  142.7550   76.7000  219.9010 N   0  0  0  0  0  0  0  0  0  0  0  0
  142.4790   77.6820  218.9950 C   0  0  0  0  0  0  0  0  0  0  0  0
  142.8510   77.4500  217.6830 C   0  0  0  0  0  0  0  0  0  0  0  0
  143.4760   76.2870  217.2740 C   0  0  0  0  0  0  0  0  0  0  0  0
  143.7170   75.3550  218.2340 N   0  0  0  0  0  0  0  0  0  0  0  0
  139.9650   77.3790  222.5300 C   0  0  0  0  0  0  0  0  0  0  0  0
  138.9560   78.2480  222.8940 C   0  0  0  0  0  0  0  0  0  0  0  0
  139.2820   79.5340  223.3310 C   0  0  0  0  0  0  0  0  0  0  0  0
  140.6090   79.9140  223.3900 C   0  0  0  0  0  0  0  0  0  0  0  0
  140.9830   81.1800  223.8160 C   0  0  0  0  0  0  0  0  0  0  0  0
  142.3430   81.4970  223.8510 C   0  0  0  0  0  0  0  0  0  0  0  0
  143.3140   80.6070  223.4810 C   0  0  0  0  0  0  0  0  0  0  0  0
  142.9240   79.3600  223.0620 C   0  0  0  0  0  0  0  0  0  0  0  0
  141.5910   79.0210  223.0190 C   0  0  0  0  0  0  0  0  0  0  0  0
  141.2350   77.8100  222.6110 N   0  0  0  0  0  0  0  0  0  0  0  0
  141.6550   75.6650  221.4530 H   0  0  0  0  0  0  0  0  0  0  0  0
  139.6091   73.4501  221.6418 H   0  0  0  0  0  0  0  0  0  0  0  0
  140.1342   73.9411  219.9783 H   0  0  0  0  0  0  0  0  0  0  0  0
  142.6907   71.7294  218.9477 H   0  0  0  0  0  0  0  0  0  0  0  0
  143.0937   73.2226  218.1912 H   0  0  0  0  0  0  0  0  0  0  0  0
  144.7223   71.6514  220.3336 H   0  0  0  0  0  0  0  0  0  0  0  0
  145.3283   72.1147  218.7725 H   0  0  0  0  0  0  0  0  0  0  0  0
  145.6130   73.6788  221.0601 H   0  0  0  0  0  0  0  0  0  0  0  0
  145.5662   74.4060  219.4401 H   0  0  0  0  0  0  0  0  0  0  0  0
  143.6475   74.9373  221.5085 H   0  0  0  0  0  0  0  0  0  0  0  0
  141.9827   78.6168  219.2945 H   0  0  0  0  0  0  0  0  0  0  0  0
  142.6401   78.2255  216.9319 H   0  0  0  0  0  0  0  0  0  0  0  0
  143.7638   76.1238  216.2249 H   0  0  0  0  0  0  0  0  0  0  0  0
  137.9042   77.9304  222.8404 H   0  0  0  0  0  0  0  0  0  0  0  0
  138.4895   80.2377  223.6254 H   0  0  0  0  0  0  0  0  0  0  0  0
  140.2256   81.9178  224.1194 H   0  0  0  0  0  0  0  0  0  0  0  0
  142.6445   82.4996  224.1886 H   0  0  0  0  0  0  0  0  0  0  0  0
  144.3780   80.8835  223.5184 H   0  0  0  0  0  0  0  0  0  0  0  0
  143.6836   78.6248  222.7578 H   0  0  0  0  0  0  0  0  0  0  0  0
  1  2  2  0
  2  3  1  0
  3  4  1  0
  4  5  1  0
  5  6  2  0
  5  7  1  0
  7  8  1  0
  8  9  1  0
  9 10  1  0
 10 11  1  0
 11 12  1  0
 12 13  2  0
 13 14  1  0
 14 15  2  0
 15 16  1  0
 16 17  2  0
  2 18  1  0
 18 19  2  0
 19 20  1  0
 20 21  2  0
 21 22  1  0
 22 23  2  0
 23 24  1  0
 24 25  2  0
 25 26  1  0
 26 27  2  0
 11  7  1  0
 17 12  1  0
 27 18  1  0
 26 21  1  0
  3 28  1  0
  4 29  1  0
  4 30  1  0
  8 31  1  0
  8 32  1  0
  9 33  1  0
  9 34  1  0
 10 35  1  0
 10 36  1  0
 11 37  1  1
 14 38  1  0
 15 39  1  0
 16 40  1  0
 19 41  1  0
 20 42  1  0
 22 43  1  0
 23 44  1  0
 24 45  1  0
 25 46  1  0
M  END
>  <smiles>  (34) 
O=C(NCC(=O)N1CCC[C@H]1c1ncccn1)c1ccc2ccccc2n1

>  <score_type>  (34) 
oracle

>  <origin>  (34) 
autodockgpu

>  <m_score__min__energy>  (34) 
-8.3499999999999996

>  <m_primary>  (34) 
energy

>  <rmsd>  (34) 
7.382955965502679

>  <m_score__min__rmsd>  (34) 
7.382955965502679

>  <meeko>  (34) 
{"free_energy": -6.8, "intermolecular_energy": -8.29, "internal_energy": -2.7, "cluster_size": 11, "cluster_id": 4, "rank_in_cluster": 9}

>  <energy>  (34) 
-7.87

>  <cluster_rmsd>  (34) 
0.59

>  <cluster>  (34) 
3

$$$$

     RDKit          3D

 46 49  0  0  0  0  0  0  0  0999 V2000
  138.4860   75.6520  221.9690 O   0  0  0  0  0  0  0  0  0  0  0  0
  139.6890   76.0280  222.0090 C   0  0  0  0  0  0  0  0  0  0  0  0
  140.7730   75.1970  221.6110 N   0  0  0  0  0  0  0  0  0  0  0  0
  140.5240   73.8510  221.1310 C   0  0  0  0  0  0  0  0  0  0  0  0
  141.7470   73.0200  221.1780 C   0  0  0  0  0  0  0  0  0  0  0  0
  141.8140   72.0140  221.9460 O   0  0  0  0  0  0  0  0  0  0  0  0
  142.8270   73.4000  220.3310 N   0  0  0  0  0  0  0  0  0  0  0  0
  143.2980   72.7660  219.1080 C   0  0  0  0  0  0  0  0  0  0  0  0
  144.7500   72.5790  219.4990 C   0  0  0  0  0  0  0  0  0  0  0  0
  145.0640   73.9300  220.0990 C   0  0  0  0  0  0  0  0  0  0  0  0
  143.7300   74.5490  220.5080 C   0  0  1  0  0  0  0  0  0  0  0  0
  143.3540   75.6430  219.5640 C   0  0  0  0  0  0  0  0  0  0  0  0
  143.6820   75.6100  218.2590 N   0  0  0  0  0  0  0  0  0  0  0  0
  143.3310   76.6190  217.4100 C   0  0  0  0  0  0  0  0  0  0  0  0
  142.6220   77.6760  217.9490 C   0  0  0  0  0  0  0  0  0  0  0  0
  142.2680   77.7410  219.2830 C   0  0  0  0  0  0  0  0  0  0  0  0
  142.6540   76.7000  220.0670 N   0  0  0  0  0  0  0  0  0  0  0  0
  140.0010   77.3890  222.4900 C   0  0  0  0  0  0  0  0  0  0  0  0
  138.9820   78.2420  222.8660 C   0  0  0  0  0  0  0  0  0  0  0  0
  139.2940   79.5260  223.3190 C   0  0  0  0  0  0  0  0  0  0  0  0
  140.6160   79.9200  223.3830 C   0  0  0  0  0  0  0  0  0  0  0  0
  140.9760   81.1840  223.8240 C   0  0  0  0  0  0  0  0  0  0  0  0
  142.3320   81.5160  223.8630 C   0  0  0  0  0  0  0  0  0  0  0  0
  143.3130   80.6420  223.4820 C   0  0  0  0  0  0  0  0  0  0  0  0
  142.9380   79.3960  223.0470 C   0  0  0  0  0  0  0  0  0  0  0  0
  141.6080   79.0430  222.9990 C   0  0  0  0  0  0  0  0  0  0  0  0
  141.2660   77.8330  222.5760 N   0  0  0  0  0  0  0  0  0  0  0  0
  141.7560   75.5960  221.6780 H   0  0  0  0  0  0  0  0  0  0  0  0
  139.7516   73.3849  221.7604 H   0  0  0  0  0  0  0  0  0  0  0  0
  140.1924   73.9154  220.0842 H   0  0  0  0  0  0  0  0  0  0  0  0
  142.7932   71.8076  218.9167 H   0  0  0  0  0  0  0  0  0  0  0  0
  143.1213   73.3281  218.1791 H   0  0  0  0  0  0  0  0  0  0  0  0
  144.8688   71.7719  220.2369 H   0  0  0  0  0  0  0  0  0  0  0  0
  145.4093   72.2879  218.6679 H   0  0  0  0  0  0  0  0  0  0  0  0
  145.7130   73.8123  220.9793 H   0  0  0  0  0  0  0  0  0  0  0  0
  145.5926   74.5702  219.3774 H   0  0  0  0  0  0  0  0  0  0  0  0
  143.7214   74.9956  221.5132 H   0  0  0  0  0  0  0  0  0  0  0  0
  143.6004   76.5923  216.3438 H   0  0  0  0  0  0  0  0  0  0  0  0
  142.3263   78.5026  217.2862 H   0  0  0  0  0  0  0  0  0  0  0  0
  141.7024   78.5922  219.6899 H   0  0  0  0  0  0  0  0  0  0  0  0
  137.9338   77.9131  222.8092 H   0  0  0  0  0  0  0  0  0  0  0  0
  138.4937   80.2172  223.6221 H   0  0  0  0  0  0  0  0  0  0  0  0
  140.2105   81.9095  224.1364 H   0  0  0  0  0  0  0  0  0  0  0  0
  142.6220   82.5176  224.2132 H   0  0  0  0  0  0  0  0  0  0  0  0
  144.3737   80.9304  223.5233 H   0  0  0  0  0  0  0  0  0  0  0  0
  143.7060   78.6733  222.7341 H   0  0  0  0  0  0  0  0  0  0  0  0
  1  2  2  0
  2  3  1  0
  3  4  1  0
  4  5  1  0
  5  6  2  0
  5  7  1  0
  7  8  1  0
  8  9  1  0
  9 10  1  0
 10 11  1  0
 11 12  1  0
 12 13  2  0
 13 14  1  0
 14 15  2  0
 15 16  1  0
 16 17  2  0
  2 18  1  0
 18 19  2  0
 19 20  1  0
 20 21  2  0
 21 22  1  0
 22 23  2  0
 23 24  1  0
 24 25  2  0
 25 26  1  0
 26 27  2  0
 11  7  1  0
 17 12  1  0
 27 18  1  0
 26 21  1  0
  3 28  1  0
  4 29  1  0
  4 30  1  0
  8 31  1  0
  8 32  1  0
  9 33  1  0
  9 34  1  0
 10 35  1  0
 10 36  1  0
 11 37  1  1
 14 38  1  0
 15 39  1  0
 16 40  1  0
 19 41  1  0
 20 42  1  0
 22 43  1  0
 23 44  1  0
 24 45  1  0
 25 46  1  0
M  END
>  <smiles>  (35) 
O=C(NCC(=O)N1CCC[C@H]1c1ncccn1)c1ccc2ccccc2n1

>  <score_type>  (35) 
oracle

>  <origin>  (35) 
autodockgpu

>  <m_score__min__energy>  (35) 
-8.3499999999999996

>  <m_primary>  (35) 
energy

>  <rmsd>  (35) 
7.412219691073955

>  <m_score__min__rmsd>  (35) 
7.412219691073955

>  <meeko>  (35) 
{"free_energy": -6.87, "intermolecular_energy": -8.36, "internal_energy": -2.81, "cluster_size": 11, "cluster_id": 4, "rank_in_cluster": 1}

>  <energy>  (35) 
-7.67

>  <cluster_rmsd>  (35) 
0.98

>  <cluster>  (35) 
3

$$$$

     RDKit          3D

 46 49  0  0  0  0  0  0  0  0999 V2000
  140.1470   71.3090  221.2420 O   0  0  0  0  0  0  0  0  0  0  0  0
  139.9550   71.9460  222.3140 C   0  0  0  0  0  0  0  0  0  0  0  0
  139.7000   73.3450  222.3470 N   0  0  0  0  0  0  0  0  0  0  0  0
  139.6500   74.1070  221.1140 C   0  0  0  0  0  0  0  0  0  0  0  0
  140.3290   75.4150  221.2540 C   0  0  0  0  0  0  0  0  0  0  0  0
  139.9140   76.2720  222.0900 O   0  0  0  0  0  0  0  0  0  0  0  0
  141.4540   75.6580  220.4150 N   0  0  0  0  0  0  0  0  0  0  0  0
  142.2700   76.8580  220.3040 C   0  0  0  0  0  0  0  0  0  0  0  0
  142.1460   77.0760  218.8100 C   0  0  0  0  0  0  0  0  0  0  0  0
  142.3720   75.6720  218.2950 C   0  0  0  0  0  0  0  0  0  0  0  0
  142.0590   74.7260  219.4500 C   0  0  1  0  0  0  0  0  0  0  0  0
  143.3200   74.1570  220.0120 C   0  0  0  0  0  0  0  0  0  0  0  0
  144.4260   74.9010  220.1920 N   0  0  0  0  0  0  0  0  0  0  0  0
  145.5700   74.3650  220.7060 C   0  0  0  0  0  0  0  0  0  0  0  0
  145.5440   73.0230  221.0350 C   0  0  0  0  0  0  0  0  0  0  0  0
  144.4250   72.2300  220.8640 C   0  0  0  0  0  0  0  0  0  0  0  0
  143.3230   72.8340  220.3460 N   0  0  0  0  0  0  0  0  0  0  0  0
  139.9960   71.2190  223.5990 C   0  0  0  0  0  0  0  0  0  0  0  0
  139.5690   69.9080  223.6680 C   0  0  0  0  0  0  0  0  0  0  0  0
  139.6150   69.2340  224.8900 C   0  0  0  0  0  0  0  0  0  0  0  0
  140.0850   69.8930  226.0100 C   0  0  0  0  0  0  0  0  0  0  0  0
  140.1480   69.2680  227.2470 C   0  0  0  0  0  0  0  0  0  0  0  0
  140.6340   69.9930  228.3370 C   0  0  0  0  0  0  0  0  0  0  0  0
  141.0470   71.2930  228.2280 C   0  0  0  0  0  0  0  0  0  0  0  0
  140.9770   71.8940  226.9970 C   0  0  0  0  0  0  0  0  0  0  0  0
  140.5020   71.2020  225.9060 C   0  0  0  0  0  0  0  0  0  0  0  0
  140.4420   71.8020  224.7240 N   0  0  0  0  0  0  0  0  0  0  0  0
  139.5510   73.8010  223.2960 H   0  0  0  0  0  0  0  0  0  0  0  0
  140.1450   73.5312  220.3181 H   0  0  0  0  0  0  0  0  0  0  0  0
  138.5943   74.2920  220.8664 H   0  0  0  0  0  0  0  0  0  0  0  0
  141.8541   77.6969  220.8813 H   0  0  0  0  0  0  0  0  0  0  0  0
  143.2963   76.7755  220.6913 H   0  0  0  0  0  0  0  0  0  0  0  0
  141.1483   77.4507  218.5377 H   0  0  0  0  0  0  0  0  0  0  0  0
  142.8390   77.8263  218.4017 H   0  0  0  0  0  0  0  0  0  0  0  0
  141.7036   75.4675  217.4457 H   0  0  0  0  0  0  0  0  0  0  0  0
  143.4065   75.5406  217.9450 H   0  0  0  0  0  0  0  0  0  0  0  0
  141.4293   73.8658  219.1789 H   0  0  0  0  0  0  0  0  0  0  0  0
  146.4740   74.9744  220.8523 H   0  0  0  0  0  0  0  0  0  0  0  0
  146.4538   72.5659  221.4513 H   0  0  0  0  0  0  0  0  0  0  0  0
  144.4262   71.1636  221.1336 H   0  0  0  0  0  0  0  0  0  0  0  0
  139.1955   69.3984  222.7675 H   0  0  0  0  0  0  0  0  0  0  0  0
  139.2803   68.1885  224.9605 H   0  0  0  0  0  0  0  0  0  0  0  0
  139.8222   68.2242  227.3665 H   0  0  0  0  0  0  0  0  0  0  0  0
  140.6868   69.5010  229.3194 H   0  0  0  0  0  0  0  0  0  0  0  0
  141.4248   71.8411  229.1037 H   0  0  0  0  0  0  0  0  0  0  0  0
  141.3033   72.9380  226.8806 H   0  0  0  0  0  0  0  0  0  0  0  0
  1  2  2  0
  2  3  1  0
  3  4  1  0
  4  5  1  0
  5  6  2  0
  5  7  1  0
  7  8  1  0
  8  9  1  0
  9 10  1  0
 10 11  1  0
 11 12  1  0
 12 13  2  0
 13 14  1  0
 14 15  2  0
 15 16  1  0
 16 17  2  0
  2 18  1  0
 18 19  2  0
 19 20  1  0
 20 21  2  0
 21 22  1  0
 22 23  2  0
 23 24  1  0
 24 25  2  0
 25 26  1  0
 26 27  2  0
 11  7  1  0
 17 12  1  0
 27 18  1  0
 26 21  1  0
  3 28  1  0
  4 29  1  0
  4 30  1  0
  8 31  1  0
  8 32  1  0
  9 33  1  0
  9 34  1  0
 10 35  1  0
 10 36  1  0
 11 37  1  6
 14 38  1  0
 15 39  1  0
 16 40  1  0
 19 41  1  0
 20 42  1  0
 22 43  1  0
 23 44  1  0
 24 45  1  0
 25 46  1  0
M  END
>  <smiles>  (36) 
O=C(NCC(=O)N1CCC[C@H]1c1ncccn1)c1ccc2ccccc2n1

>  <score_type>  (36) 
oracle

>  <origin>  (36) 
autodockgpu

>  <m_score__min__energy>  (36) 
-8.3499999999999996

>  <m_primary>  (36) 
energy

>  <rmsd>  (36) 
3.7121893524266576

>  <m_score__min__rmsd>  (36) 
3.7121893524266576

>  <meeko>  (36) 
{"free_energy": -7.87, "intermolecular_energy": -9.36, "internal_energy": -1.71, "cluster_size": 10, "cluster_id": 3, "rank_in_cluster": 9}

>  <energy>  (36) 
-6.87

>  <cluster_rmsd>  (36) 
0.0

>  <cluster>  (36) 
4

$$$$

     RDKit          3D

 46 49  0  0  0  0  0  0  0  0999 V2000
  140.7850   71.9010  221.1380 O   0  0  0  0  0  0  0  0  0  0  0  0
  140.3090   72.3650  222.2100 C   0  0  0  0  0  0  0  0  0  0  0  0
  139.8840   73.7150  222.3460 N   0  0  0  0  0  0  0  0  0  0  0  0
  139.9850   74.6300  221.2250 C   0  0  0  0  0  0  0  0  0  0  0  0
  139.8320   76.0380  221.6540 C   0  0  0  0  0  0  0  0  0  0  0  0
  139.1870   76.3250  222.7060 O   0  0  0  0  0  0  0  0  0  0  0  0
  140.4350   77.0370  220.8390 N   0  0  0  0  0  0  0  0  0  0  0  0
  139.8560   77.7910  219.7360 C   0  0  0  0  0  0  0  0  0  0  0  0
  140.8920   77.4690  218.6770 C   0  0  0  0  0  0  0  0  0  0  0  0
  142.1720   77.6750  219.4550 C   0  0  0  0  0  0  0  0  0  0  0  0
  141.8130   77.5450  220.9330 C   0  0  1  0  0  0  0  0  0  0  0  0
  141.8190   78.8860  221.5880 C   0  0  0  0  0  0  0  0  0  0  0  0
  141.7620   80.0310  220.8830 N   0  0  0  0  0  0  0  0  0  0  0  0
  141.7690   81.2490  221.4980 C   0  0  0  0  0  0  0  0  0  0  0  0
  141.8350   81.2550  222.8790 C   0  0  0  0  0  0  0  0  0  0  0  0
  141.8940   80.1000  223.6340 C   0  0  0  0  0  0  0  0  0  0  0  0
  141.8840   78.9240  222.9500 N   0  0  0  0  0  0  0  0  0  0  0  0
  140.1830   71.4770  223.3840 C   0  0  0  0  0  0  0  0  0  0  0  0
  139.5990   70.2340  223.2530 C   0  0  0  0  0  0  0  0  0  0  0  0
  139.4880   69.4060  224.3720 C   0  0  0  0  0  0  0  0  0  0  0  0
  139.9640   69.8480  225.5920 C   0  0  0  0  0  0  0  0  0  0  0  0
  139.8760   69.0640  226.7330 C   0  0  0  0  0  0  0  0  0  0  0  0
  140.3780   69.5740  227.9320 C   0  0  0  0  0  0  0  0  0  0  0  0
  140.9500   70.8130  228.0210 C   0  0  0  0  0  0  0  0  0  0  0  0
  141.0280   71.5740  226.8820 C   0  0  0  0  0  0  0  0  0  0  0  0
  140.5410   71.0960  225.6870 C   0  0  0  0  0  0  0  0  0  0  0  0
  140.6260   71.8470  224.5970 N   0  0  0  0  0  0  0  0  0  0  0  0
  139.4950   74.0220  223.2870 H   0  0  0  0  0  0  0  0  0  0  0  0
  140.9700   74.5064  220.7513 H   0  0  0  0  0  0  0  0  0  0  0  0
  139.1759   74.3967  220.5172 H   0  0  0  0  0  0  0  0  0  0  0  0
  138.8557   77.4239  219.4627 H   0  0  0  0  0  0  0  0  0  0  0  0
  139.6835   78.8606  219.9265 H   0  0  0  0  0  0  0  0  0  0  0  0
  140.7976   76.4324  218.3213 H   0  0  0  0  0  0  0  0  0  0  0  0
  140.8126   78.0780  217.7644 H   0  0  0  0  0  0  0  0  0  0  0  0
  142.9123   76.9107  219.1761 H   0  0  0  0  0  0  0  0  0  0  0  0
  142.6115   78.6602  219.2398 H   0  0  0  0  0  0  0  0  0  0  0  0
  142.5001   76.9157  221.5177 H   0  0  0  0  0  0  0  0  0  0  0  0
  141.7241   82.1844  220.9208 H   0  0  0  0  0  0  0  0  0  0  0  0
  141.8408   82.2237  223.4001 H   0  0  0  0  0  0  0  0  0  0  0  0
  141.9464   80.1294  224.7324 H   0  0  0  0  0  0  0  0  0  0  0  0
  139.2238   69.8979  222.2751 H   0  0  0  0  0  0  0  0  0  0  0  0
  139.0262   68.4116  224.2833 H   0  0  0  0  0  0  0  0  0  0  0  0
  139.4211   68.0632  226.6941 H   0  0  0  0  0  0  0  0  0  0  0  0
  140.3108   68.9558  228.8393 H   0  0  0  0  0  0  0  0  0  0  0  0
  141.3370   71.1892  228.9795 H   0  0  0  0  0  0  0  0  0  0  0  0
  141.4835   72.5743  226.9244 H   0  0  0  0  0  0  0  0  0  0  0  0
  1  2  2  0
  2  3  1  0
  3  4  1  0
  4  5  1  0
  5  6  2  0
  5  7  1  0
  7  8  1  0
  8  9  1  0
  9 10  1  0
 10 11  1  0
 11 12  1  0
 12 13  2  0
 13 14  1  0
 14 15  2  0
 15 16  1  0
 16 17  2  0
  2 18  1  0
 18 19  2  0
 19 20  1  0
 20 21  2  0
 21 22  1  0
 22 23  2  0
 23 24  1  0
 24 25  2  0
 25 26  1  0
 26 27  2  0
 11  7  1  0
 17 12  1  0
 27 18  1  0
 26 21  1  0
  3 28  1  0
  4 29  1  0
  4 30  1  0
  8 31  1  0
  8 32  1  0
  9 33  1  0
  9 34  1  0
 10 35  1  0
 10 36  1  0
 11 37  1  1
 14 38  1  0
 15 39  1  0
 16 40  1  0
 19 41  1  0
 20 42  1  0
 22 43  1  0
 23 44  1  0
 24 45  1  0
 25 46  1  0
M  END
>  <smiles>  (37) 
O=C(NCC(=O)N1CCC[C@H]1c1ncccn1)c1ccc2ccccc2n1

>  <score_type>  (37) 
oracle

>  <origin>  (37) 
autodockgpu

>  <m_score__min__energy>  (37) 
-8.3499999999999996

>  <m_primary>  (37) 
energy

>  <rmsd>  (37) 
2.1062904993835905

>  <m_score__min__rmsd>  (37) 
2.1062904993835905

>  <meeko>  (37) 
{"free_energy": -7.9, "intermolecular_energy": -9.39, "internal_energy": -1.66, "cluster_size": 23, "cluster_id": 1, "rank_in_cluster": 22}

>  <energy>  (37) 
-6.87

>  <cluster_rmsd>  (37) 
0.02

>  <cluster>  (37) 
4

$$$$

     RDKit          3D

 46 49  0  0  0  0  0  0  0  0999 V2000
  141.3090   71.9470  221.5890 O   0  0  0  0  0  0  0  0  0  0  0  0
  140.4490   72.2960  222.4430 C   0  0  0  0  0  0  0  0  0  0  0  0
  139.6450   73.4610  222.2990 N   0  0  0  0  0  0  0  0  0  0  0  0
  139.7900   74.3100  221.1320 C   0  0  0  0  0  0  0  0  0  0  0  0
  140.8600   75.3140  221.3180 C   0  0  0  0  0  0  0  0  0  0  0  0
  140.8700   76.0650  222.3390 O   0  0  0  0  0  0  0  0  0  0  0  0
  141.8620   75.3940  220.3090 N   0  0  0  0  0  0  0  0  0  0  0  0
  142.7060   76.5230  219.9450 C   0  0  0  0  0  0  0  0  0  0  0  0
  142.3770   76.5810  218.4670 C   0  0  0  0  0  0  0  0  0  0  0  0
  142.4630   75.1180  218.0950 C   0  0  0  0  0  0  0  0  0  0  0  0
  142.2790   74.3260  219.3870 C   0  0  1  0  0  0  0  0  0  0  0  0
  143.5810   73.7470  219.8320 C   0  0  0  0  0  0  0  0  0  0  0  0
  143.8990   72.4550  219.6330 N   0  0  0  0  0  0  0  0  0  0  0  0
  145.0930   71.9420  220.0460 C   0  0  0  0  0  0  0  0  0  0  0  0
  145.9650   72.8100  220.6780 C   0  0  0  0  0  0  0  0  0  0  0  0
  145.6710   74.1420  220.8990 C   0  0  0  0  0  0  0  0  0  0  0  0
  144.4610   74.5800  220.4590 N   0  0  0  0  0  0  0  0  0  0  0  0
  140.2600   71.4690  223.6520 C   0  0  0  0  0  0  0  0  0  0  0  0
  139.6220   70.2480  223.5620 C   0  0  0  0  0  0  0  0  0  0  0  0
  139.4520   69.4760  224.7140 C   0  0  0  0  0  0  0  0  0  0  0  0
  139.9230   69.9500  225.9230 C   0  0  0  0  0  0  0  0  0  0  0  0
  139.7770   69.2230  227.0950 C   0  0  0  0  0  0  0  0  0  0  0  0
  140.2780   69.7620  228.2820 C   0  0  0  0  0  0  0  0  0  0  0  0
  140.9040   70.9770  228.3290 C   0  0  0  0  0  0  0  0  0  0  0  0
  141.0390   71.6830  227.1600 C   0  0  0  0  0  0  0  0  0  0  0  0
  140.5550   71.1740  225.9760 C   0  0  0  0  0  0  0  0  0  0  0  0
  140.6960   71.8720  224.8570 N   0  0  0  0  0  0  0  0  0  0  0  0
  138.9450   73.6790  223.0690 H   0  0  0  0  0  0  0  0  0  0  0  0
  140.0365   73.6827  220.2627 H   0  0  0  0  0  0  0  0  0  0  0  0
  138.8411   74.8439  220.9752 H   0  0  0  0  0  0  0  0  0  0  0  0
  142.4154   77.4444  220.4709 H   0  0  0  0  0  0  0  0  0  0  0  0
  143.7728   76.4220  220.1936 H   0  0  0  0  0  0  0  0  0  0  0  0
  141.3681   76.9835  218.2931 H   0  0  0  0  0  0  0  0  0  0  0  0
  143.0368   77.2376  217.8809 H   0  0  0  0  0  0  0  0  0  0  0  0
  141.6699   74.8620  217.3771 H   0  0  0  0  0  0  0  0  0  0  0  0
  143.4287   74.8857  217.6223 H   0  0  0  0  0  0  0  0  0  0  0  0
  141.5793   73.4807  219.3096 H   0  0  0  0  0  0  0  0  0  0  0  0
  145.3512   70.8851  219.8838 H   0  0  0  0  0  0  0  0  0  0  0  0
  146.9360   72.4226  221.0200 H   0  0  0  0  0  0  0  0  0  0  0  0
  146.3797   74.8140  221.4051 H   0  0  0  0  0  0  0  0  0  0  0  0
  139.2508   69.8861  222.5918 H   0  0  0  0  0  0  0  0  0  0  0  0
  138.9478   68.4999  224.6588 H   0  0  0  0  0  0  0  0  0  0  0  0
  139.2774   68.2430  227.0898 H   0  0  0  0  0  0  0  0  0  0  0  0
  140.1649   69.1881  229.2136 H   0  0  0  0  0  0  0  0  0  0  0  0
  141.2890   71.3776  229.2784 H   0  0  0  0  0  0  0  0  0  0  0  0
  141.5379   72.6633  227.1691 H   0  0  0  0  0  0  0  0  0  0  0  0
  1  2  2  0
  2  3  1  0
  3  4  1  0
  4  5  1  0
  5  6  2  0
  5  7  1  0
  7  8  1  0
  8  9  1  0
  9 10  1  0
 10 11  1  0
 11 12  1  0
 12 13  2  0
 13 14  1  0
 14 15  2  0
 15 16  1  0
 16 17  2  0
  2 18  1  0
 18 19  2  0
 19 20  1  0
 20 21  2  0
 21 22  1  0
 22 23  2  0
 23 24  1  0
 24 25  2  0
 25 26  1  0
 26 27  2  0
 11  7  1  0
 17 12  1  0
 27 18  1  0
 26 21  1  0
  3 28  1  0
  4 29  1  0
  4 30  1  0
  8 31  1  0
  8 32  1  0
  9 33  1  0
  9 34  1  0
 10 35  1  0
 10 36  1  0
 11 37  1  6
 14 38  1  0
 15 39  1  0
 16 40  1  0
 19 41  1  0
 20 42  1  0
 22 43  1  0
 23 44  1  0
 24 45  1  0
 25 46  1  0
M  END
>  <smiles>  (38) 
O=C(NCC(=O)N1CCC[C@H]1c1ncccn1)c1ccc2ccccc2n1

>  <score_type>  (38) 
oracle

>  <origin>  (38) 
autodockgpu

>  <m_score__min__energy>  (38) 
-8.3499999999999996

>  <m_primary>  (38) 
energy

>  <rmsd>  (38) 
3.9244860594562967

>  <m_score__min__rmsd>  (38) 
3.9244860594562967

>  <meeko>  (38) 
{"free_energy": -8.17, "intermolecular_energy": -9.67, "internal_energy": -1.32, "cluster_size": 10, "cluster_id": 3, "rank_in_cluster": 1}

>  <energy>  (38) 
-6.86

>  <cluster_rmsd>  (38) 
0.04

>  <cluster>  (38) 
4

$$$$

     RDKit          3D

 46 49  0  0  0  0  0  0  0  0999 V2000
  141.2470   72.1180  221.3940 O   0  0  0  0  0  0  0  0  0  0  0  0
  140.4830   72.4900  222.3250 C   0  0  0  0  0  0  0  0  0  0  0  0
  139.8350   73.7570  222.3340 N   0  0  0  0  0  0  0  0  0  0  0  0
  140.0370   74.6880  221.2410 C   0  0  0  0  0  0  0  0  0  0  0  0
  139.7550   76.0810  221.6530 C   0  0  0  0  0  0  0  0  0  0  0  0
  139.0200   76.3210  222.6570 O   0  0  0  0  0  0  0  0  0  0  0  0
  140.3400   77.1220  220.8770 N   0  0  0  0  0  0  0  0  0  0  0  0
  139.7280   77.9530  219.8510 C   0  0  0  0  0  0  0  0  0  0  0  0
  140.7120   77.6840  218.7290 C   0  0  0  0  0  0  0  0  0  0  0  0
  142.0280   77.8200  219.4610 C   0  0  0  0  0  0  0  0  0  0  0  0
  141.7300   77.6010  220.9420 C   0  0  1  0  0  0  0  0  0  0  0  0
  141.7890   78.8970  221.6800 C   0  0  0  0  0  0  0  0  0  0  0  0
  141.7810   80.0850  221.0490 N   0  0  0  0  0  0  0  0  0  0  0  0
  141.8350   81.2600  221.7390 C   0  0  0  0  0  0  0  0  0  0  0  0
  141.8980   81.1780  223.1180 C   0  0  0  0  0  0  0  0  0  0  0  0
  141.9080   79.9750  223.7980 C   0  0  0  0  0  0  0  0  0  0  0  0
  141.8520   78.8470  223.0430 N   0  0  0  0  0  0  0  0  0  0  0  0
  140.2430   71.5810  223.4650 C   0  0  0  0  0  0  0  0  0  0  0  0
  139.5930   70.3800  223.2670 C   0  0  0  0  0  0  0  0  0  0  0  0
  139.3740   69.5310  224.3550 C   0  0  0  0  0  0  0  0  0  0  0  0
  139.8110   69.9100  225.6090 C   0  0  0  0  0  0  0  0  0  0  0  0
  139.6170   69.1030  226.7200 C   0  0  0  0  0  0  0  0  0  0  0  0
  140.0850   69.5480  227.9580 C   0  0  0  0  0  0  0  0  0  0  0  0
  140.7250   70.7460  228.1130 C   0  0  0  0  0  0  0  0  0  0  0  0
  140.9080   71.5320  227.0030 C   0  0  0  0  0  0  0  0  0  0  0  0
  140.4570   71.1170  225.7700 C   0  0  0  0  0  0  0  0  0  0  0  0
  140.6440   71.8900  224.7090 N   0  0  0  0  0  0  0  0  0  0  0  0
  139.2080   73.9880  223.1620 H   0  0  0  0  0  0  0  0  0  0  0  0
  141.0815   74.6203  220.9028 H   0  0  0  0  0  0  0  0  0  0  0  0
  139.3434   74.4220  220.4297 H   0  0  0  0  0  0  0  0  0  0  0  0
  138.7106   77.6190  219.5992 H   0  0  0  0  0  0  0  0  0  0  0  0
  139.5827   79.0106  220.1162 H   0  0  0  0  0  0  0  0  0  0  0  0
  140.5838   76.6739  218.3127 H   0  0  0  0  0  0  0  0  0  0  0  0
  140.6044   78.3518  217.8615 H   0  0  0  0  0  0  0  0  0  0  0  0
  142.7416   77.0638  219.1019 H   0  0  0  0  0  0  0  0  0  0  0  0
  142.4761   78.8098  219.2894 H   0  0  0  0  0  0  0  0  0  0  0  0
  142.4297   76.9244  221.4546 H   0  0  0  0  0  0  0  0  0  0  0  0
  141.8287   82.2306  221.2213 H   0  0  0  0  0  0  0  0  0  0  0  0
  141.9421   82.1110  223.6990 H   0  0  0  0  0  0  0  0  0  0  0  0
  141.9588   79.9329  224.8960 H   0  0  0  0  0  0  0  0  0  0  0  0
  139.2504   70.0935  222.2617 H   0  0  0  0  0  0  0  0  0  0  0  0
  138.8583   68.5697  224.2140 H   0  0  0  0  0  0  0  0  0  0  0  0
  139.1056   68.1335  226.6280 H   0  0  0  0  0  0  0  0  0  0  0  0
  139.9330   68.9107  228.8416 H   0  0  0  0  0  0  0  0  0  0  0  0
  141.0836   71.0712  229.1008 H   0  0  0  0  0  0  0  0  0  0  0  0
  141.4191   72.5013  227.0991 H   0  0  0  0  0  0  0  0  0  0  0  0
  1  2  2  0
  2  3  1  0
  3  4  1  0
  4  5  1  0
  5  6  2  0
  5  7  1  0
  7  8  1  0
  8  9  1  0
  9 10  1  0
 10 11  1  0
 11 12  1  0
 12 13  2  0
 13 14  1  0
 14 15  2  0
 15 16  1  0
 16 17  2  0
  2 18  1  0
 18 19  2  0
 19 20  1  0
 20 21  2  0
 21 22  1  0
 22 23  2  0
 23 24  1  0
 24 25  2  0
 25 26  1  0
 26 27  2  0
 11  7  1  0
 17 12  1  0
 27 18  1  0
 26 21  1  0
  3 28  1  0
  4 29  1  0
  4 30  1  0
  8 31  1  0
  8 32  1  0
  9 33  1  0
  9 34  1  0
 10 35  1  0
 10 36  1  0
 11 37  1  1
 14 38  1  0
 15 39  1  0
 16 40  1  0
 19 41  1  0
 20 42  1  0
 22 43  1  0
 23 44  1  0
 24 45  1  0
 25 46  1  0
M  END
>  <smiles>  (39) 
O=C(NCC(=O)N1CCC[C@H]1c1ncccn1)c1ccc2ccccc2n1

>  <score_type>  (39) 
oracle

>  <origin>  (39) 
autodockgpu

>  <m_score__min__energy>  (39) 
-8.3499999999999996

>  <m_primary>  (39) 
energy

>  <rmsd>  (39) 
2.1894771626454324

>  <m_score__min__rmsd>  (39) 
2.1894771626454324

>  <meeko>  (39) 
{"free_energy": -8.05, "intermolecular_energy": -9.54, "internal_energy": -1.62, "cluster_size": 23, "cluster_id": 1, "rank_in_cluster": 16}

>  <energy>  (39) 
-6.86

>  <cluster_rmsd>  (39) 
0.02

>  <cluster>  (39) 
4

$$$$

     RDKit          3D

 46 49  0  0  0  0  0  0  0  0999 V2000
  140.8750   71.5530  221.3290 O   0  0  0  0  0  0  0  0  0  0  0  0
  140.3750   72.1310  222.3320 C   0  0  0  0  0  0  0  0  0  0  0  0
  139.9340   73.4830  222.3040 N   0  0  0  0  0  0  0  0  0  0  0  0
  140.0460   74.2640  221.0870 C   0  0  0  0  0  0  0  0  0  0  0  0
  141.0920   75.3040  221.2010 C   0  0  0  0  0  0  0  0  0  0  0  0
  141.1050   76.1020  222.1850 O   0  0  0  0  0  0  0  0  0  0  0  0
  142.0680   75.3630  220.1650 N   0  0  0  0  0  0  0  0  0  0  0  0
  142.9050   76.4830  219.7600 C   0  0  0  0  0  0  0  0  0  0  0  0
  142.5380   76.5160  218.2900 C   0  0  0  0  0  0  0  0  0  0  0  0
  142.6110   75.0470  217.9410 C   0  0  0  0  0  0  0  0  0  0  0  0
  142.4570   74.2780  219.2510 C   0  0  1  0  0  0  0  0  0  0  0  0
  143.7690   73.7030  219.6720 C   0  0  0  0  0  0  0  0  0  0  0  0
  144.3590   72.6930  219.0060 N   0  0  0  0  0  0  0  0  0  0  0  0
  145.5580   72.1790  219.4040 C   0  0  0  0  0  0  0  0  0  0  0  0
  146.1420   72.7420  220.5240 C   0  0  0  0  0  0  0  0  0  0  0  0
  145.5650   73.7790  221.2320 C   0  0  0  0  0  0  0  0  0  0  0  0
  144.3700   74.2380  220.7740 N   0  0  0  0  0  0  0  0  0  0  0  0
  140.2380   71.3840  223.5990 C   0  0  0  0  0  0  0  0  0  0  0  0
  139.6390   70.1400  223.6080 C   0  0  0  0  0  0  0  0  0  0  0  0
  139.5180   69.4460  224.8140 C   0  0  0  0  0  0  0  0  0  0  0  0
  139.9980   70.0170  225.9760 C   0  0  0  0  0  0  0  0  0  0  0  0
  139.9000   69.3680  227.1980 C   0  0  0  0  0  0  0  0  0  0  0  0
  140.4070   70.0040  228.3340 C   0  0  0  0  0  0  0  0  0  0  0  0
  140.9930   71.2390  228.2830 C   0  0  0  0  0  0  0  0  0  0  0  0
  141.0810   71.8650  227.0660 C   0  0  0  0  0  0  0  0  0  0  0  0
  140.5900   71.2610  225.9310 C   0  0  0  0  0  0  0  0  0  0  0  0
  140.6840   71.8830  224.7630 N   0  0  0  0  0  0  0  0  0  0  0  0
  139.5250   73.8910  223.1980 H   0  0  0  0  0  0  0  0  0  0  0  0
  140.3001   73.5921  220.2539 H   0  0  0  0  0  0  0  0  0  0  0  0
  139.0823   74.7637  220.9092 H   0  0  0  0  0  0  0  0  0  0  0  0
  142.6302   77.4142  220.2770 H   0  0  0  0  0  0  0  0  0  0  0  0
  143.9776   76.3835  219.9829 H   0  0  0  0  0  0  0  0  0  0  0  0
  141.5259   76.9181  218.1353 H   0  0  0  0  0  0  0  0  0  0  0  0
  143.1841   77.1605  217.6758 H   0  0  0  0  0  0  0  0  0  0  0  0
  141.7997   74.7811  217.2474 H   0  0  0  0  0  0  0  0  0  0  0  0
  143.5640   74.8037  217.4484 H   0  0  0  0  0  0  0  0  0  0  0  0
  141.7524   73.4345  219.2064 H   0  0  0  0  0  0  0  0  0  0  0  0
  146.0389   71.3536  218.8586 H   0  0  0  0  0  0  0  0  0  0  0  0
  147.1095   72.3465  220.8668 H   0  0  0  0  0  0  0  0  0  0  0  0
  146.0479   74.2111  222.1208 H   0  0  0  0  0  0  0  0  0  0  0  0
  139.2605   69.6995  222.6738 H   0  0  0  0  0  0  0  0  0  0  0  0
  139.0446   68.4534  224.8379 H   0  0  0  0  0  0  0  0  0  0  0  0
  139.4334   68.3745  227.2711 H   0  0  0  0  0  0  0  0  0  0  0  0
  140.3322   69.4928  229.3051 H   0  0  0  0  0  0  0  0  0  0  0  0
  141.3831   71.7171  229.1936 H   0  0  0  0  0  0  0  0  0  0  0  0
  141.5481   72.8585  226.9964 H   0  0  0  0  0  0  0  0  0  0  0  0
  1  2  2  0
  2  3  1  0
  3  4  1  0
  4  5  1  0
  5  6  2  0
  5  7  1  0
  7  8  1  0
  8  9  1  0
  9 10  1  0
 10 11  1  0
 11 12  1  0
 12 13  2  0
 13 14  1  0
 14 15  2  0
 15 16  1  0
 16 17  2  0
  2 18  1  0
 18 19  2  0
 19 20  1  0
 20 21  2  0
 21 22  1  0
 22 23  2  0
 23 24  1  0
 24 25  2  0
 25 26  1  0
 26 27  2  0
 11  7  1  0
 17 12  1  0
 27 18  1  0
 26 21  1  0
  3 28  1  0
  4 29  1  0
  4 30  1  0
  8 31  1  0
  8 32  1  0
  9 33  1  0
  9 34  1  0
 10 35  1  0
 10 36  1  0
 11 37  1  6
 14 38  1  0
 15 39  1  0
 16 40  1  0
 19 41  1  0
 20 42  1  0
 22 43  1  0
 23 44  1  0
 24 45  1  0
 25 46  1  0
M  END
>  <smiles>  (40) 
O=C(NCC(=O)N1CCC[C@H]1c1ncccn1)c1ccc2ccccc2n1

>  <score_type>  (40) 
oracle

>  <origin>  (40) 
autodockgpu

>  <m_score__min__energy>  (40) 
-8.3499999999999996

>  <m_primary>  (40) 
energy

>  <rmsd>  (40) 
4.048355579055681

>  <m_score__min__rmsd>  (40) 
4.048355579055681

>  <meeko>  (40) 
{"free_energy": -8.03, "intermolecular_energy": -9.53, "internal_energy": -1.56, "cluster_size": 10, "cluster_id": 3, "rank_in_cluster": 4}

>  <energy>  (40) 
-6.86

>  <cluster_rmsd>  (40) 
0.04

>  <cluster>  (40) 
4

$$$$

     RDKit          3D

 46 49  0  0  0  0  0  0  0  0999 V2000
  140.7780   71.3620  221.2680 O   0  0  0  0  0  0  0  0  0  0  0  0
  140.3140   71.9840  222.2620 C   0  0  0  0  0  0  0  0  0  0  0  0
  139.9100   73.3470  222.2010 N   0  0  0  0  0  0  0  0  0  0  0  0
  140.0220   74.0870  220.9590 C   0  0  0  0  0  0  0  0  0  0  0  0
  140.7520   75.3610  221.1460 C   0  0  0  0  0  0  0  0  0  0  0  0
  140.4520   76.1430  222.0970 O   0  0  0  0  0  0  0  0  0  0  0  0
  141.7910   75.6590  220.2190 N   0  0  0  0  0  0  0  0  0  0  0  0
  142.5820   76.8740  220.0920 C   0  0  0  0  0  0  0  0  0  0  0  0
  142.3160   77.1620  218.6280 C   0  0  0  0  0  0  0  0  0  0  0  0
  142.5050   75.7880  218.0250 C   0  0  0  0  0  0  0  0  0  0  0  0
  142.3100   74.7830  219.1570 C   0  0  1  0  0  0  0  0  0  0  0  0
  143.6230   74.2040  219.5690 C   0  0  0  0  0  0  0  0  0  0  0  0
  144.0640   74.2570  220.8390 N   0  0  0  0  0  0  0  0  0  0  0  0
  145.2670   73.7230  221.1990 C   0  0  0  0  0  0  0  0  0  0  0  0
  146.0140   73.1250  220.2010 C   0  0  0  0  0  0  0  0  0  0  0  0
  145.5910   73.0530  218.8870 C   0  0  0  0  0  0  0  0  0  0  0  0
  144.3820   73.6070  218.6050 N   0  0  0  0  0  0  0  0  0  0  0  0
  140.1790   71.2800  223.5530 C   0  0  0  0  0  0  0  0  0  0  0  0
  139.5710   70.0410  223.6060 C   0  0  0  0  0  0  0  0  0  0  0  0
  139.4520   69.3870  224.8350 C   0  0  0  0  0  0  0  0  0  0  0  0
  139.9440   69.9920  225.9750 C   0  0  0  0  0  0  0  0  0  0  0  0
  139.8490   69.3850  227.2180 C   0  0  0  0  0  0  0  0  0  0  0  0
  140.3670   70.0530  228.3290 C   0  0  0  0  0  0  0  0  0  0  0  0
  140.9620   71.2810  228.2350 C   0  0  0  0  0  0  0  0  0  0  0  0
  141.0470   71.8670  226.9980 C   0  0  0  0  0  0  0  0  0  0  0  0
  140.5440   71.2300  225.8860 C   0  0  0  0  0  0  0  0  0  0  0  0
  140.6360   71.8130  224.6980 N   0  0  0  0  0  0  0  0  0  0  0  0
  139.5310   73.7940  223.0890 H   0  0  0  0  0  0  0  0  0  0  0  0
  140.5616   73.4712  220.2243 H   0  0  0  0  0  0  0  0  0  0  0  0
  139.0068   74.3215  220.6063 H   0  0  0  0  0  0  0  0  0  0  0  0
  142.2145   77.6783  220.7462 H   0  0  0  0  0  0  0  0  0  0  0  0
  143.6408   76.7872  220.3774 H   0  0  0  0  0  0  0  0  0  0  0  0
  141.2938   77.5359  218.4690 H   0  0  0  0  0  0  0  0  0  0  0  0
  142.9611   77.9403  218.1943 H   0  0  0  0  0  0  0  0  0  0  0  0
  141.7616   75.6159  217.2327 H   0  0  0  0  0  0  0  0  0  0  0  0
  143.5030   75.6874  217.5734 H   0  0  0  0  0  0  0  0  0  0  0  0
  141.6645   73.9288  218.9044 H   0  0  0  0  0  0  0  0  0  0  0  0
  145.6267   73.7664  222.2376 H   0  0  0  0  0  0  0  0  0  0  0  0
  146.9881   72.6871  220.4643 H   0  0  0  0  0  0  0  0  0  0  0  0
  146.2017   72.5718  218.1089 H   0  0  0  0  0  0  0  0  0  0  0  0
  139.1839   69.5732  222.6888 H   0  0  0  0  0  0  0  0  0  0  0  0
  138.9710   68.3995  224.8941 H   0  0  0  0  0  0  0  0  0  0  0  0
  139.3755   68.3981  227.3264 H   0  0  0  0  0  0  0  0  0  0  0  0
  140.2940   69.5741  229.3166 H   0  0  0  0  0  0  0  0  0  0  0  0
  141.3615   71.7849  229.1274 H   0  0  0  0  0  0  0  0  0  0  0  0
  141.5210   72.8541  226.8935 H   0  0  0  0  0  0  0  0  0  0  0  0
  1  2  2  0
  2  3  1  0
  3  4  1  0
  4  5  1  0
  5  6  2  0
  5  7  1  0
  7  8  1  0
  8  9  1  0
  9 10  1  0
 10 11  1  0
 11 12  1  0
 12 13  2  0
 13 14  1  0
 14 15  2  0
 15 16  1  0
 16 17  2  0
  2 18  1  0
 18 19  2  0
 19 20  1  0
 20 21  2  0
 21 22  1  0
 22 23  2  0
 23 24  1  0
 24 25  2  0
 25 26  1  0
 26 27  2  0
 11  7  1  0
 17 12  1  0
 27 18  1  0
 26 21  1  0
  3 28  1  0
  4 29  1  0
  4 30  1  0
  8 31  1  0
  8 32  1  0
  9 33  1  0
  9 34  1  0
 10 35  1  0
 10 36  1  0
 11 37  1  6
 14 38  1  0
 15 39  1  0
 16 40  1  0
 19 41  1  0
 20 42  1  0
 22 43  1  0
 23 44  1  0
 24 45  1  0
 25 46  1  0
M  END
>  <smiles>  (41) 
O=C(NCC(=O)N1CCC[C@H]1c1ncccn1)c1ccc2ccccc2n1

>  <score_type>  (41) 
oracle

>  <origin>  (41) 
autodockgpu

>  <m_score__min__energy>  (41) 
-8.3499999999999996

>  <m_primary>  (41) 
energy

>  <rmsd>  (41) 
3.760649664875128

>  <m_score__min__rmsd>  (41) 
3.760649664875128

>  <meeko>  (41) 
{"free_energy": -7.93, "intermolecular_energy": -9.42, "internal_energy": -1.63, "cluster_size": 10, "cluster_id": 3, "rank_in_cluster": 7}

>  <energy>  (41) 
-6.86

>  <cluster_rmsd>  (41) 
0.03

>  <cluster>  (41) 
4

$$$$

     RDKit          3D

 46 49  0  0  0  0  0  0  0  0999 V2000
  140.8860   71.5420  221.3230 O   0  0  0  0  0  0  0  0  0  0  0  0
  140.3850   72.1300  222.3200 C   0  0  0  0  0  0  0  0  0  0  0  0
  139.9430   73.4820  222.2800 N   0  0  0  0  0  0  0  0  0  0  0  0
  140.0560   74.2510  221.0550 C   0  0  0  0  0  0  0  0  0  0  0  0
  141.0770   75.3160  221.1720 C   0  0  0  0  0  0  0  0  0  0  0  0
  141.0680   76.1130  222.1570 O   0  0  0  0  0  0  0  0  0  0  0  0
  142.0540   75.3980  220.1390 N   0  0  0  0  0  0  0  0  0  0  0  0
  142.9030   76.5220  219.7710 C   0  0  0  0  0  0  0  0  0  0  0  0
  142.5370   76.6060  218.3030 C   0  0  0  0  0  0  0  0  0  0  0  0
  142.5950   75.1480  217.9070 C   0  0  0  0  0  0  0  0  0  0  0  0
  142.4320   74.3390  219.1900 C   0  0  1  0  0  0  0  0  0  0  0  0
  143.7380   73.7370  219.5930 C   0  0  0  0  0  0  0  0  0  0  0  0
  144.3630   72.8090  218.8450 N   0  0  0  0  0  0  0  0  0  0  0  0
  145.5550   72.2690  219.2280 C   0  0  0  0  0  0  0  0  0  0  0  0
  146.0950   72.7170  220.4190 C   0  0  0  0  0  0  0  0  0  0  0  0
  145.4810   73.6670  221.2120 C   0  0  0  0  0  0  0  0  0  0  0  0
  144.2950   74.1590  220.7650 N   0  0  0  0  0  0  0  0  0  0  0  0
  140.2480   71.3940  223.5940 C   0  0  0  0  0  0  0  0  0  0  0  0
  139.6540   70.1480  223.6130 C   0  0  0  0  0  0  0  0  0  0  0  0
  139.5320   69.4650  224.8250 C   0  0  0  0  0  0  0  0  0  0  0  0
  140.0060   70.0490  225.9840 C   0  0  0  0  0  0  0  0  0  0  0  0
  139.9080   69.4120  227.2120 C   0  0  0  0  0  0  0  0  0  0  0  0
  140.4090   70.0610  228.3420 C   0  0  0  0  0  0  0  0  0  0  0  0
  140.9900   71.2980  228.2820 C   0  0  0  0  0  0  0  0  0  0  0  0
  141.0790   71.9130  227.0580 C   0  0  0  0  0  0  0  0  0  0  0  0
  140.5930   71.2950  225.9280 C   0  0  0  0  0  0  0  0  0  0  0  0
  140.6890   71.9070  224.7550 N   0  0  0  0  0  0  0  0  0  0  0  0
  139.5340   73.8980  223.1690 H   0  0  0  0  0  0  0  0  0  0  0  0
  140.3377   73.5752  220.2341 H   0  0  0  0  0  0  0  0  0  0  0  0
  139.0842   74.7266  220.8567 H   0  0  0  0  0  0  0  0  0  0  0  0
  142.6375   77.4388  220.3178 H   0  0  0  0  0  0  0  0  0  0  0  0
  143.9743   76.4046  219.9910 H   0  0  0  0  0  0  0  0  0  0  0  0
  141.5291   77.0233  218.1612 H   0  0  0  0  0  0  0  0  0  0  0  0
  143.1900   77.2632  217.7099 H   0  0  0  0  0  0  0  0  0  0  0  0
  141.7816   74.9132  217.2047 H   0  0  0  0  0  0  0  0  0  0  0  0
  143.5460   74.9109  217.4076 H   0  0  0  0  0  0  0  0  0  0  0  0
  141.7186   73.5049  219.1173 H   0  0  0  0  0  0  0  0  0  0  0  0
  146.0646   71.5101  218.6161 H   0  0  0  0  0  0  0  0  0  0  0  0
  147.0568   72.2983  220.7502 H   0  0  0  0  0  0  0  0  0  0  0  0
  145.9289   74.0081  222.1570 H   0  0  0  0  0  0  0  0  0  0  0  0
  139.2802   69.6972  222.6819 H   0  0  0  0  0  0  0  0  0  0  0  0
  139.0626   68.4707  224.8566 H   0  0  0  0  0  0  0  0  0  0  0  0
  139.4457   68.4172  227.2939 H   0  0  0  0  0  0  0  0  0  0  0  0
  140.3337   69.5586  229.3176 H   0  0  0  0  0  0  0  0  0  0  0  0
  141.3752   71.7863  229.1893 H   0  0  0  0  0  0  0  0  0  0  0  0
  141.5423   72.9076  226.9795 H   0  0  0  0  0  0  0  0  0  0  0  0
  1  2  2  0
  2  3  1  0
  3  4  1  0
  4  5  1  0
  5  6  2  0
  5  7  1  0
  7  8  1  0
  8  9  1  0
  9 10  1  0
 10 11  1  0
 11 12  1  0
 12 13  2  0
 13 14  1  0
 14 15  2  0
 15 16  1  0
 16 17  2  0
  2 18  1  0
 18 19  2  0
 19 20  1  0
 20 21  2  0
 21 22  1  0
 22 23  2  0
 23 24  1  0
 24 25  2  0
 25 26  1  0
 26 27  2  0
 11  7  1  0
 17 12  1  0
 27 18  1  0
 26 21  1  0
  3 28  1  0
  4 29  1  0
  4 30  1  0
  8 31  1  0
  8 32  1  0
  9 33  1  0
  9 34  1  0
 10 35  1  0
 10 36  1  0
 11 37  1  6
 14 38  1  0
 15 39  1  0
 16 40  1  0
 19 41  1  0
 20 42  1  0
 22 43  1  0
 23 44  1  0
 24 45  1  0
 25 46  1  0
M  END
>  <smiles>  (42) 
O=C(NCC(=O)N1CCC[C@H]1c1ncccn1)c1ccc2ccccc2n1

>  <score_type>  (42) 
oracle

>  <origin>  (42) 
autodockgpu

>  <m_score__min__energy>  (42) 
-8.3499999999999996

>  <m_primary>  (42) 
energy

>  <rmsd>  (42) 
4.053128661708708

>  <m_score__min__rmsd>  (42) 
4.053128661708708

>  <meeko>  (42) 
{"free_energy": -7.99, "intermolecular_energy": -9.49, "internal_energy": -1.59, "cluster_size": 10, "cluster_id": 3, "rank_in_cluster": 6}

>  <energy>  (42) 
-6.86

>  <cluster_rmsd>  (42) 
0.03

>  <cluster>  (42) 
4

$$$$

     RDKit          3D

 46 49  0  0  0  0  0  0  0  0999 V2000
  140.0100   71.0840  221.2410 O   0  0  0  0  0  0  0  0  0  0  0  0
  139.6490   71.7390  222.2570 C   0  0  0  0  0  0  0  0  0  0  0  0
  139.0400   73.0220  222.1730 N   0  0  0  0  0  0  0  0  0  0  0  0
  138.8060   73.6360  220.8800 C   0  0  0  0  0  0  0  0  0  0  0  0
  140.0290   73.6390  220.0480 C   0  0  0  0  0  0  0  0  0  0  0  0
  140.1500   72.8350  219.0760 O   0  0  0  0  0  0  0  0  0  0  0  0
  141.0480   74.5740  220.3880 N   0  0  0  0  0  0  0  0  0  0  0  0
  141.1880   75.3740  221.5960 C   0  0  0  0  0  0  0  0  0  0  0  0
  141.2940   76.7400  220.9490 C   0  0  0  0  0  0  0  0  0  0  0  0
  142.2700   76.4540  219.8300 C   0  0  0  0  0  0  0  0  0  0  0  0
  142.2140   74.9500  219.5740 C   0  0  1  0  0  0  0  0  0  0  0  0
  143.4420   74.2870  220.1050 C   0  0  0  0  0  0  0  0  0  0  0  0
  144.5830   74.9630  220.3300 N   0  0  0  0  0  0  0  0  0  0  0  0
  145.6960   74.3410  220.8150 C   0  0  0  0  0  0  0  0  0  0  0  0
  145.6000   72.9850  221.0670 C   0  0  0  0  0  0  0  0  0  0  0  0
  144.4440   72.2610  220.8470 C   0  0  0  0  0  0  0  0  0  0  0  0
  143.3760   72.9490  220.3620 N   0  0  0  0  0  0  0  0  0  0  0  0
  139.8640   71.1610  223.5990 C   0  0  0  0  0  0  0  0  0  0  0  0
  139.5140   69.8500  223.8530 C   0  0  0  0  0  0  0  0  0  0  0  0
  139.7240   69.3170  225.1270 C   0  0  0  0  0  0  0  0  0  0  0  0
  140.2770   70.1130  226.1110 C   0  0  0  0  0  0  0  0  0  0  0  0
  140.5040   69.6320  227.3920 C   0  0  0  0  0  0  0  0  0  0  0  0
  141.0670   70.4920  228.3380 C   0  0  0  0  0  0  0  0  0  0  0  0
  141.3990   71.7860  228.0470 C   0  0  0  0  0  0  0  0  0  0  0  0
  141.1670   72.2450  226.7750 C   0  0  0  0  0  0  0  0  0  0  0  0
  140.6140   71.4190  225.8230 C   0  0  0  0  0  0  0  0  0  0  0  0
  140.3970   71.8820  224.5990 N   0  0  0  0  0  0  0  0  0  0  0  0
  138.7680   73.5030  223.0810 H   0  0  0  0  0  0  0  0  0  0  0  0
  138.0191   73.0742  220.3555 H   0  0  0  0  0  0  0  0  0  0  0  0
  138.5006   74.6797  221.0455 H   0  0  0  0  0  0  0  0  0  0  0  0
  140.3082   75.2928  222.2513 H   0  0  0  0  0  0  0  0  0  0  0  0
  142.0186   75.0943  222.2608 H   0  0  0  0  0  0  0  0  0  0  0  0
  140.3225   77.0796  220.5608 H   0  0  0  0  0  0  0  0  0  0  0  0
  141.6097   77.5422  221.6322 H   0  0  0  0  0  0  0  0  0  0  0  0
  141.9790   77.0042  218.9230 H   0  0  0  0  0  0  0  0  0  0  0  0
  143.2876   76.7720  220.1011 H   0  0  0  0  0  0  0  0  0  0  0  0
  142.1486   74.6686  218.5126 H   0  0  0  0  0  0  0  0  0  0  0  0
  146.6291   74.8942  220.9976 H   0  0  0  0  0  0  0  0  0  0  0  0
  146.4828   72.4594  221.4599 H   0  0  0  0  0  0  0  0  0  0  0  0
  144.3902   71.1820  221.0538 H   0  0  0  0  0  0  0  0  0  0  0  0
  139.0733   69.2300  223.0584 H   0  0  0  0  0  0  0  0  0  0  0  0
  139.4516   68.2737  225.3444 H   0  0  0  0  0  0  0  0  0  0  0  0
  140.2463   68.5960  227.6572 H   0  0  0  0  0  0  0  0  0  0  0  0
  141.2500   70.1141  229.3547 H   0  0  0  0  0  0  0  0  0  0  0  0
  141.8403   72.4415  228.8122 H   0  0  0  0  0  0  0  0  0  0  0  0
  141.4252   73.2819  226.5138 H   0  0  0  0  0  0  0  0  0  0  0  0
  1  2  2  0
  2  3  1  0
  3  4  1  0
  4  5  1  0
  5  6  2  0
  5  7  1  0
  7  8  1  0
  8  9  1  0
  9 10  1  0
 10 11  1  0
 11 12  1  0
 12 13  2  0
 13 14  1  0
 14 15  2  0
 15 16  1  0
 16 17  2  0
  2 18  1  0
 18 19  2  0
 19 20  1  0
 20 21  2  0
 21 22  1  0
 22 23  2  0
 23 24  1  0
 24 25  2  0
 25 26  1  0
 26 27  2  0
 11  7  1  0
 17 12  1  0
 27 18  1  0
 26 21  1  0
  3 28  1  0
  4 29  1  0
  4 30  1  0
  8 31  1  0
  8 32  1  0
  9 33  1  0
  9 34  1  0
 10 35  1  0
 10 36  1  0
 11 37  1  6
 14 38  1  0
 15 39  1  0
 16 40  1  0
 19 41  1  0
 20 42  1  0
 22 43  1  0
 23 44  1  0
 24 45  1  0
 25 46  1  0
M  END
>  <smiles>  (43) 
O=C(NCC(=O)N1CCC[C@H]1c1ncccn1)c1ccc2ccccc2n1

>  <score_type>  (43) 
oracle

>  <origin>  (43) 
autodockgpu

>  <m_score__min__energy>  (43) 
-8.3499999999999996

>  <m_primary>  (43) 
energy

>  <rmsd>  (43) 
3.747838925206629

>  <m_score__min__rmsd>  (43) 
3.747838925206629

>  <meeko>  (43) 
{"free_energy": -7.67, "intermolecular_energy": -9.16, "internal_energy": -1.64, "cluster_size": 10, "cluster_id": 3, "rank_in_cluster": 10}

>  <energy>  (43) 
-6.81

>  <cluster_rmsd>  (43) 
0.12

>  <cluster>  (43) 
4

$$$$

     RDKit          3D

 46 49  0  0  0  0  0  0  0  0999 V2000
  141.5150   72.2600  221.6080 O   0  0  0  0  0  0  0  0  0  0  0  0
  140.6050   72.5450  222.4340 C   0  0  0  0  0  0  0  0  0  0  0  0
  139.8290   73.7340  222.3490 N   0  0  0  0  0  0  0  0  0  0  0  0
  140.0630   74.6850  221.2790 C   0  0  0  0  0  0  0  0  0  0  0  0
  139.4430   75.9970  221.5700 C   0  0  0  0  0  0  0  0  0  0  0  0
  138.4310   76.0780  222.3280 O   0  0  0  0  0  0  0  0  0  0  0  0
  140.0310   77.1440  220.9650 N   0  0  0  0  0  0  0  0  0  0  0  0
  139.3840   78.2310  220.2440 C   0  0  0  0  0  0  0  0  0  0  0  0
  140.1890   78.1590  218.9630 C   0  0  0  0  0  0  0  0  0  0  0  0
  141.5930   78.0300  219.5110 C   0  0  0  0  0  0  0  0  0  0  0  0
  141.4600   77.4960  220.9350 C   0  0  1  0  0  0  0  0  0  0  0  0
  141.7390   78.5790  221.9230 C   0  0  0  0  0  0  0  0  0  0  0  0
  142.1830   79.7940  221.5520 N   0  0  0  0  0  0  0  0  0  0  0  0
  142.4340   80.7720  222.4680 C   0  0  0  0  0  0  0  0  0  0  0  0
  142.2110   80.4620  223.7970 C   0  0  0  0  0  0  0  0  0  0  0  0
  141.7550   79.2260  224.2130 C   0  0  0  0  0  0  0  0  0  0  0  0
  141.5280   78.3010  223.2420 N   0  0  0  0  0  0  0  0  0  0  0  0
  140.3240   71.6120  223.5440 C   0  0  0  0  0  0  0  0  0  0  0  0
  139.6400   70.4370  223.3050 C   0  0  0  0  0  0  0  0  0  0  0  0
  139.3830   69.5650  224.3660 C   0  0  0  0  0  0  0  0  0  0  0  0
  139.8160   69.8950  225.6350 C   0  0  0  0  0  0  0  0  0  0  0  0
  139.5840   69.0640  226.7210 C   0  0  0  0  0  0  0  0  0  0  0  0
  140.0510   69.4590  227.9760 C   0  0  0  0  0  0  0  0  0  0  0  0
  140.7260   70.6330  228.1720 C   0  0  0  0  0  0  0  0  0  0  0  0
  140.9460   71.4430  227.0860 C   0  0  0  0  0  0  0  0  0  0  0  0
  140.4970   71.0770  225.8380 C   0  0  0  0  0  0  0  0  0  0  0  0
  140.7190   71.8740  224.8010 N   0  0  0  0  0  0  0  0  0  0  0  0
  139.0820   73.8940  223.0890 H   0  0  0  0  0  0  0  0  0  0  0  0
  141.1473   74.8224  221.1545 H   0  0  0  0  0  0  0  0  0  0  0  0
  139.6091   74.2866  220.3596 H   0  0  0  0  0  0  0  0  0  0  0  0
  138.3148   78.0369  220.0734 H   0  0  0  0  0  0  0  0  0  0  0  0
  139.3802   79.2065  220.7523 H   0  0  0  0  0  0  0  0  0  0  0  0
  139.9092   77.2834  218.3588 H   0  0  0  0  0  0  0  0  0  0  0  0
  140.0430   79.0145  218.2871 H   0  0  0  0  0  0  0  0  0  0  0  0
  142.1771   77.3294  218.8963 H   0  0  0  0  0  0  0  0  0  0  0  0
  142.1135   78.9990  219.4985 H   0  0  0  0  0  0  0  0  0  0  0  0
  142.1461   76.6723  221.1815 H   0  0  0  0  0  0  0  0  0  0  0  0
  142.7980   81.7643  222.1632 H   0  0  0  0  0  0  0  0  0  0  0  0
  142.4052   81.2336  224.5565 H   0  0  0  0  0  0  0  0  0  0  0  0
  141.5841   79.0012  225.2761 H   0  0  0  0  0  0  0  0  0  0  0  0
  139.3004   70.1895  222.2884 H   0  0  0  0  0  0  0  0  0  0  0  0
  138.8406   68.6240  224.1920 H   0  0  0  0  0  0  0  0  0  0  0  0
  139.0436   68.1141  226.5961 H   0  0  0  0  0  0  0  0  0  0  0  0
  139.8696   68.8020  228.8394 H   0  0  0  0  0  0  0  0  0  0  0  0
  141.0825   70.9197  229.1723 H   0  0  0  0  0  0  0  0  0  0  0  0
  141.4858   72.3928  227.2145 H   0  0  0  0  0  0  0  0  0  0  0  0
  1  2  2  0
  2  3  1  0
  3  4  1  0
  4  5  1  0
  5  6  2  0
  5  7  1  0
  7  8  1  0
  8  9  1  0
  9 10  1  0
 10 11  1  0
 11 12  1  0
 12 13  2  0
 13 14  1  0
 14 15  2  0
 15 16  1  0
 16 17  2  0
  2 18  1  0
 18 19  2  0
 19 20  1  0
 20 21  2  0
 21 22  1  0
 22 23  2  0
 23 24  1  0
 24 25  2  0
 25 26  1  0
 26 27  2  0
 11  7  1  0
 17 12  1  0
 27 18  1  0
 26 21  1  0
  3 28  1  0
  4 29  1  0
  4 30  1  0
  8 31  1  0
  8 32  1  0
  9 33  1  0
  9 34  1  0
 10 35  1  0
 10 36  1  0
 11 37  1  6
 14 38  1  0
 15 39  1  0
 16 40  1  0
 19 41  1  0
 20 42  1  0
 22 43  1  0
 23 44  1  0
 24 45  1  0
 25 46  1  0
M  END
>  <smiles>  (44) 
O=C(NCC(=O)N1CCC[C@H]1c1ncccn1)c1ccc2ccccc2n1

>  <score_type>  (44) 
oracle

>  <origin>  (44) 
autodockgpu

>  <m_score__min__energy>  (44) 
-8.3499999999999996

>  <m_primary>  (44) 
energy

>  <rmsd>  (44) 
2.3340408079636648

>  <m_score__min__rmsd>  (44) 
2.3340408079636648

>  <meeko>  (44) 
{"free_energy": -8.1, "intermolecular_energy": -9.6, "internal_energy": -1.62, "cluster_size": 23, "cluster_id": 1, "rank_in_cluster": 10}

>  <energy>  (44) 
-6.8

>  <cluster_rmsd>  (44) 
0.18

>  <cluster>  (44) 
4

$$$$

     RDKit          3D

 46 49  0  0  0  0  0  0  0  0999 V2000
  141.2790   72.0890  221.6760 O   0  0  0  0  0  0  0  0  0  0  0  0
  140.3460   72.3410  222.4860 C   0  0  0  0  0  0  0  0  0  0  0  0
  139.4220   73.4060  222.2950 N   0  0  0  0  0  0  0  0  0  0  0  0
  139.5250   74.2630  221.1290 C   0  0  0  0  0  0  0  0  0  0  0  0
  140.4890   75.3650  221.3460 C   0  0  0  0  0  0  0  0  0  0  0  0
  141.7330   75.1310  221.4100 O   0  0  0  0  0  0  0  0  0  0  0  0
  139.9570   76.6790  221.4750 N   0  0  0  0  0  0  0  0  0  0  0  0
  138.7670   77.1180  222.1900 C   0  0  0  0  0  0  0  0  0  0  0  0
  138.0750   77.8380  221.0500 C   0  0  0  0  0  0  0  0  0  0  0  0
  139.2260   78.6240  220.4640 C   0  0  0  0  0  0  0  0  0  0  0  0
  140.5060   77.9190  220.9020 C   0  0  1  0  0  0  0  0  0  0  0  0
  141.1970   78.7090  221.9640 C   0  0  0  0  0  0  0  0  0  0  0  0
  141.2000   78.3300  223.2550 N   0  0  0  0  0  0  0  0  0  0  0  0
  141.8350   79.0640  224.2130 C   0  0  0  0  0  0  0  0  0  0  0  0
  142.4780   80.2160  223.7980 C   0  0  0  0  0  0  0  0  0  0  0  0
  142.4950   80.6350  222.4820 C   0  0  0  0  0  0  0  0  0  0  0  0
  141.8400   79.8510  221.5850 N   0  0  0  0  0  0  0  0  0  0  0  0
  140.1940   71.5010  223.6910 C   0  0  0  0  0  0  0  0  0  0  0  0
  139.5580   70.2790  223.6080 C   0  0  0  0  0  0  0  0  0  0  0  0
  139.4230   69.4950  224.7570 C   0  0  0  0  0  0  0  0  0  0  0  0
  139.9280   69.9590  225.9570 C   0  0  0  0  0  0  0  0  0  0  0  0
  139.8190   69.2200  227.1250 C   0  0  0  0  0  0  0  0  0  0  0  0
  140.3530   69.7480  228.3020 C   0  0  0  0  0  0  0  0  0  0  0  0
  140.9770   70.9650  228.3430 C   0  0  0  0  0  0  0  0  0  0  0  0
  141.0750   71.6830  227.1780 C   0  0  0  0  0  0  0  0  0  0  0  0
  140.5580   71.1840  226.0030 C   0  0  0  0  0  0  0  0  0  0  0  0
  140.6640   71.8930  224.8870 N   0  0  0  0  0  0  0  0  0  0  0  0
  138.6660   73.5460  223.0300 H   0  0  0  0  0  0  0  0  0  0  0  0
  139.8589   73.6604  220.2715 H   0  0  0  0  0  0  0  0  0  0  0  0
  138.5356   74.7041  220.9378 H   0  0  0  0  0  0  0  0  0  0  0  0
  138.1739   76.2718  222.5670 H   0  0  0  0  0  0  0  0  0  0  0  0
  138.9464   77.7167  223.0952 H   0  0  0  0  0  0  0  0  0  0  0  0
  137.6563   77.1298  220.3199 H   0  0  0  0  0  0  0  0  0  0  0  0
  137.2159   78.4527  221.3569 H   0  0  0  0  0  0  0  0  0  0  0  0
  139.1566   78.6365  219.3663 H   0  0  0  0  0  0  0  0  0  0  0  0
  139.2102   79.6675  220.8115 H   0  0  0  0  0  0  0  0  0  0  0  0
  141.2446   77.7722  220.1001 H   0  0  0  0  0  0  0  0  0  0  0  0
  141.8358   78.7538  225.2683 H   0  0  0  0  0  0  0  0  0  0  0  0
  142.9995   80.8262  224.5501 H   0  0  0  0  0  0  0  0  0  0  0  0
  143.0122   81.5561  222.1753 H   0  0  0  0  0  0  0  0  0  0  0  0
  139.1606   69.9250  222.6453 H   0  0  0  0  0  0  0  0  0  0  0  0
  138.9198   68.5182  224.7068 H   0  0  0  0  0  0  0  0  0  0  0  0
  139.3223   68.2385  227.1244 H   0  0  0  0  0  0  0  0  0  0  0  0
  140.2690   69.1642  229.2305 H   0  0  0  0  0  0  0  0  0  0  0  0
  141.3890   71.3571  229.2846 H   0  0  0  0  0  0  0  0  0  0  0  0
  141.5705   72.6651  227.1824 H   0  0  0  0  0  0  0  0  0  0  0  0
  1  2  2  0
  2  3  1  0
  3  4  1  0
  4  5  1  0
  5  6  2  0
  5  7  1  0
  7  8  1  0
  8  9  1  0
  9 10  1  0
 10 11  1  0
 11 12  1  0
 12 13  2  0
 13 14  1  0
 14 15  2  0
 15 16  1  0
 16 17  2  0
  2 18  1  0
 18 19  2  0
 19 20  1  0
 20 21  2  0
 21 22  1  0
 22 23  2  0
 23 24  1  0
 24 25  2  0
 25 26  1  0
 26 27  2  0
 11  7  1  0
 17 12  1  0
 27 18  1  0
 26 21  1  0
  3 28  1  0
  4 29  1  0
  4 30  1  0
  8 31  1  0
  8 32  1  0
  9 33  1  0
  9 34  1  0
 10 35  1  0
 10 36  1  0
 11 37  1  6
 14 38  1  0
 15 39  1  0
 16 40  1  0
 19 41  1  0
 20 42  1  0
 22 43  1  0
 23 44  1  0
 24 45  1  0
 25 46  1  0
M  END
>  <smiles>  (45) 
O=C(NCC(=O)N1CCC[C@H]1c1ncccn1)c1ccc2ccccc2n1

>  <score_type>  (45) 
oracle

>  <origin>  (45) 
autodockgpu

>  <m_score__min__energy>  (45) 
-8.3499999999999996

>  <m_primary>  (45) 
energy

>  <rmsd>  (45) 
2.3267369155084334

>  <m_score__min__rmsd>  (45) 
2.3267369155084334

>  <meeko>  (45) 
{"free_energy": -8.35, "intermolecular_energy": -9.84, "internal_energy": -1.2, "cluster_size": 23, "cluster_id": 1, "rank_in_cluster": 1}

>  <energy>  (45) 
-6.8

>  <cluster_rmsd>  (45) 
0.06

>  <cluster>  (45) 
4

$$$$

     RDKit          3D

 46 49  0  0  0  0  0  0  0  0999 V2000
  140.0690   71.7150  221.0680 O   0  0  0  0  0  0  0  0  0  0  0  0
  139.9040   72.2610  222.1920 C   0  0  0  0  0  0  0  0  0  0  0  0
  139.6700   73.6560  222.3480 N   0  0  0  0  0  0  0  0  0  0  0  0
  139.6120   74.5210  221.1850 C   0  0  0  0  0  0  0  0  0  0  0  0
  140.8440   75.3290  221.0440 C   0  0  0  0  0  0  0  0  0  0  0  0
  141.9810   74.8150  221.2630 O   0  0  0  0  0  0  0  0  0  0  0  0
  140.6900   76.6900  220.6570 N   0  0  0  0  0  0  0  0  0  0  0  0
  139.4690   77.4240  220.3560 C   0  0  0  0  0  0  0  0  0  0  0  0
  139.8460   77.9310  218.9790 C   0  0  0  0  0  0  0  0  0  0  0  0
  141.2570   78.4140  219.2260 C   0  0  0  0  0  0  0  0  0  0  0  0
  141.7580   77.6860  220.4700 C   0  0  1  0  0  0  0  0  0  0  0  0
  141.7980   78.6160  221.6360 C   0  0  0  0  0  0  0  0  0  0  0  0
  142.1570   79.9070  221.5140 N   0  0  0  0  0  0  0  0  0  0  0  0
  142.1880   80.7450  222.5900 C   0  0  0  0  0  0  0  0  0  0  0  0
  141.8330   80.2090  223.8140 C   0  0  0  0  0  0  0  0  0  0  0  0
  141.4580   78.8890  223.9760 C   0  0  0  0  0  0  0  0  0  0  0  0
  141.4520   78.1150  222.8570 N   0  0  0  0  0  0  0  0  0  0  0  0
  139.9540   71.4280  223.4110 C   0  0  0  0  0  0  0  0  0  0  0  0
  139.5250   70.1170  223.3710 C   0  0  0  0  0  0  0  0  0  0  0  0
  139.5790   69.3410  224.5310 C   0  0  0  0  0  0  0  0  0  0  0  0
  140.0600   69.9010  225.6990 C   0  0  0  0  0  0  0  0  0  0  0  0
  140.1330   69.1730  226.8770 C   0  0  0  0  0  0  0  0  0  0  0  0
  140.6300   69.8020  228.0210 C   0  0  0  0  0  0  0  0  0  0  0  0
  141.0450   71.1050  228.0200 C   0  0  0  0  0  0  0  0  0  0  0  0
  140.9660   71.8100  226.8450 C   0  0  0  0  0  0  0  0  0  0  0  0
  140.4800   71.2140  225.7030 C   0  0  0  0  0  0  0  0  0  0  0  0
  140.4110   71.9120  224.5770 N   0  0  0  0  0  0  0  0  0  0  0  0
  139.5420   74.0320  223.3340 H   0  0  0  0  0  0  0  0  0  0  0  0
  139.4870   73.9010  220.2850 H   0  0  0  0  0  0  0  0  0  0  0  0
  138.7625   75.2085  221.3100 H   0  0  0  0  0  0  0  0  0  0  0  0
  138.5867   76.7676  220.3289 H   0  0  0  0  0  0  0  0  0  0  0  0
  139.1821   78.1944  221.0869 H   0  0  0  0  0  0  0  0  0  0  0  0
  139.8200   77.1252  218.2307 H   0  0  0  0  0  0  0  0  0  0  0  0
  139.1679   78.6981  218.5768 H   0  0  0  0  0  0  0  0  0  0  0  0
  141.8962   78.1745  218.3634 H   0  0  0  0  0  0  0  0  0  0  0  0
  141.2828   79.5045  219.3683 H   0  0  0  0  0  0  0  0  0  0  0  0
  142.7712   77.2677  220.3780 H   0  0  0  0  0  0  0  0  0  0  0  0
  142.4823   81.8000  222.4883 H   0  0  0  0  0  0  0  0  0  0  0  0
  141.8498   80.8627  224.6985 H   0  0  0  0  0  0  0  0  0  0  0  0
  141.1784   78.4844  224.9599 H   0  0  0  0  0  0  0  0  0  0  0  0
  139.1436   69.6867  222.4332 H   0  0  0  0  0  0  0  0  0  0  0  0
  139.2418   68.2941  224.5149 H   0  0  0  0  0  0  0  0  0  0  0  0
  139.8066   68.1230  226.9099 H   0  0  0  0  0  0  0  0  0  0  0  0
  140.6898   69.2279  228.9574 H   0  0  0  0  0  0  0  0  0  0  0  0
  141.4317   71.5754  228.9361 H   0  0  0  0  0  0  0  0  0  0  0  0
  141.2936   72.8597  226.8155 H   0  0  0  0  0  0  0  0  0  0  0  0
  1  2  2  0
  2  3  1  0
  3  4  1  0
  4  5  1  0
  5  6  2  0
  5  7  1  0
  7  8  1  0
  8  9  1  0
  9 10  1  0
 10 11  1  0
 11 12  1  0
 12 13  2  0
 13 14  1  0
 14 15  2  0
 15 16  1  0
 16 17  2  0
  2 18  1  0
 18 19  2  0
 19 20  1  0
 20 21  2  0
 21 22  1  0
 22 23  2  0
 23 24  1  0
 24 25  2  0
 25 26  1  0
 26 27  2  0
 11  7  1  0
 17 12  1  0
 27 18  1  0
 26 21  1  0
  3 28  1  0
  4 29  1  0
  4 30  1  0
  8 31  1  0
  8 32  1  0
  9 33  1  0
  9 34  1  0
 10 35  1  0
 10 36  1  0
 11 37  1  6
 14 38  1  0
 15 39  1  0
 16 40  1  0
 19 41  1  0
 20 42  1  0
 22 43  1  0
 23 44  1  0
 24 45  1  0
 25 46  1  0
M  END
>  <smiles>  (46) 
O=C(NCC(=O)N1CCC[C@H]1c1ncccn1)c1ccc2ccccc2n1

>  <score_type>  (46) 
oracle

>  <origin>  (46) 
autodockgpu

>  <m_score__min__energy>  (46) 
-8.3499999999999996

>  <m_primary>  (46) 
energy

>  <rmsd>  (46) 
2.0404783831844746

>  <m_score__min__rmsd>  (46) 
2.0404783831844746

>  <meeko>  (46) 
{"free_energy": -7.91, "intermolecular_energy": -9.4, "internal_energy": -1.48, "cluster_size": 23, "cluster_id": 1, "rank_in_cluster": 21}

>  <energy>  (46) 
-6.37

>  <cluster_rmsd>  (46) 
1.25

>  <cluster>  (46) 
4

$$$$

     RDKit          3D

 46 49  0  0  0  0  0  0  0  0999 V2000
  141.4610   72.2620  221.5220 O   0  0  0  0  0  0  0  0  0  0  0  0
  140.5860   72.5650  222.3790 C   0  0  0  0  0  0  0  0  0  0  0  0
  139.8450   73.7780  222.3320 N   0  0  0  0  0  0  0  0  0  0  0  0
  140.0770   74.7350  221.2680 C   0  0  0  0  0  0  0  0  0  0  0  0
  139.6970   76.1070  221.6740 C   0  0  0  0  0  0  0  0  0  0  0  0
  138.8970   76.2950  222.6400 O   0  0  0  0  0  0  0  0  0  0  0  0
  140.2640   77.1860  220.9390 N   0  0  0  0  0  0  0  0  0  0  0  0
  139.6200   78.0890  219.9960 C   0  0  0  0  0  0  0  0  0  0  0  0
  140.5470   77.8780  218.8160 C   0  0  0  0  0  0  0  0  0  0  0  0
  141.8970   77.9490  219.4930 C   0  0  0  0  0  0  0  0  0  0  0  0
  141.6630   77.6410  220.9700 C   0  0  1  0  0  0  0  0  0  0  0  0
  141.7770   78.8860  221.7840 C   0  0  0  0  0  0  0  0  0  0  0  0
  141.9080   78.8600  223.1230 N   0  0  0  0  0  0  0  0  0  0  0  0
  142.0100   80.0080  223.8530 C   0  0  0  0  0  0  0  0  0  0  0  0
  141.9740   81.2020  223.1560 C   0  0  0  0  0  0  0  0  0  0  0  0
  141.8400   81.2650  221.7820 C   0  0  0  0  0  0  0  0  0  0  0  0
  141.7430   80.0800  221.1230 N   0  0  0  0  0  0  0  0  0  0  0  0
  140.3090   71.6270  223.4860 C   0  0  0  0  0  0  0  0  0  0  0  0
  139.6370   70.4460  223.2420 C   0  0  0  0  0  0  0  0  0  0  0  0
  139.3830   69.5690  224.2990 C   0  0  0  0  0  0  0  0  0  0  0  0
  139.8100   69.9000  225.5710 C   0  0  0  0  0  0  0  0  0  0  0  0
  139.5810   69.0640  226.6540 C   0  0  0  0  0  0  0  0  0  0  0  0
  140.0410   69.4600  227.9120 C   0  0  0  0  0  0  0  0  0  0  0  0
  140.7040   70.6400  228.1130 C   0  0  0  0  0  0  0  0  0  0  0  0
  140.9200   71.4540  227.0300 C   0  0  0  0  0  0  0  0  0  0  0  0
  140.4780   71.0870  225.7790 C   0  0  0  0  0  0  0  0  0  0  0  0
  140.6980   71.8890  224.7450 N   0  0  0  0  0  0  0  0  0  0  0  0
  139.1270   73.9520  223.0970 H   0  0  0  0  0  0  0  0  0  0  0  0
  141.1450   74.7239  221.0050 H   0  0  0  0  0  0  0  0  0  0  0  0
  139.4562   74.4477  220.4066 H   0  0  0  0  0  0  0  0  0  0  0  0
  138.5868   77.7858  219.7711 H   0  0  0  0  0  0  0  0  0  0  0  0
  139.5045   79.1296  220.3332 H   0  0  0  0  0  0  0  0  0  0  0  0
  140.3830   76.8982  218.3437 H   0  0  0  0  0  0  0  0  0  0  0  0
  140.4114   78.6009  217.9981 H   0  0  0  0  0  0  0  0  0  0  0  0
  142.5806   77.2071  219.0546 H   0  0  0  0  0  0  0  0  0  0  0  0
  142.3535   78.9413  219.3629 H   0  0  0  0  0  0  0  0  0  0  0  0
  142.3740   76.9241  221.4066 H   0  0  0  0  0  0  0  0  0  0  0  0
  142.1162   79.9850  224.9476 H   0  0  0  0  0  0  0  0  0  0  0  0
  142.0556   82.1428  223.7201 H   0  0  0  0  0  0  0  0  0  0  0  0
  141.8132   82.2264  221.2481 H   0  0  0  0  0  0  0  0  0  0  0  0
  139.3043   70.1977  222.2234 H   0  0  0  0  0  0  0  0  0  0  0  0
  138.8484   68.6243  224.1208 H   0  0  0  0  0  0  0  0  0  0  0  0
  139.0487   68.1100  226.5249 H   0  0  0  0  0  0  0  0  0  0  0  0
  139.8637   68.7988  228.7730 H   0  0  0  0  0  0  0  0  0  0  0  0
  141.0541   70.9280  229.1153 H   0  0  0  0  0  0  0  0  0  0  0  0
  141.4510   72.4082  227.1624 H   0  0  0  0  0  0  0  0  0  0  0  0
  1  2  2  0
  2  3  1  0
  3  4  1  0
  4  5  1  0
  5  6  2  0
  5  7  1  0
  7  8  1  0
  8  9  1  0
  9 10  1  0
 10 11  1  0
 11 12  1  0
 12 13  2  0
 13 14  1  0
 14 15  2  0
 15 16  1  0
 16 17  2  0
  2 18  1  0
 18 19  2  0
 19 20  1  0
 20 21  2  0
 21 22  1  0
 22 23  2  0
 23 24  1  0
 24 25  2  0
 25 26  1  0
 26 27  2  0
 11  7  1  0
 17 12  1  0
 27 18  1  0
 26 21  1  0
  3 28  1  0
  4 29  1  0
  4 30  1  0
  8 31  1  0
  8 32  1  0
  9 33  1  0
  9 34  1  0
 10 35  1  0
 10 36  1  0
 11 37  1  1
 14 38  1  0
 15 39  1  0
 16 40  1  0
 19 41  1  0
 20 42  1  0
 22 43  1  0
 23 44  1  0
 24 45  1  0
 25 46  1  0
M  END
>  <smiles>  (47) 
O=C(NCC(=O)N1CCC[C@H]1c1ncccn1)c1ccc2ccccc2n1

>  <score_type>  (47) 
oracle

>  <origin>  (47) 
autodockgpu

>  <m_score__min__energy>  (47) 
-8.3499999999999996

>  <m_primary>  (47) 
energy

>  <rmsd>  (47) 
2.0167691781317716

>  <m_score__min__rmsd>  (47) 
2.0167691781317716

>  <meeko>  (47) 
{"free_energy": -8.08, "intermolecular_energy": -9.57, "internal_energy": -1.58, "cluster_size": 23, "cluster_id": 1, "rank_in_cluster": 12}

>  <energy>  (47) 
-6.59

>  <cluster_rmsd>  (47) 
0.0

>  <cluster>  (47) 
5

$$$$

     RDKit          3D

 46 49  0  0  0  0  0  0  0  0999 V2000
  138.6650   74.7850  222.0200 O   0  0  0  0  0  0  0  0  0  0  0  0
  139.8260   75.2530  221.8660 C   0  0  0  0  0  0  0  0  0  0  0  0
  140.1300   76.6330  222.0230 N   0  0  0  0  0  0  0  0  0  0  0  0
  139.0860   77.5760  222.3760 C   0  0  0  0  0  0  0  0  0  0  0  0
  139.6350   78.7630  223.0690 C   0  0  0  0  0  0  0  0  0  0  0  0
  138.9950   79.3110  224.0160 O   0  0  0  0  0  0  0  0  0  0  0  0
  140.8980   79.2500  222.6270 N   0  0  0  0  0  0  0  0  0  0  0  0
  142.2190   79.0070  223.1870 C   0  0  0  0  0  0  0  0  0  0  0  0
  142.6520   80.4470  223.3730 C   0  0  0  0  0  0  0  0  0  0  0  0
  142.2310   81.0480  222.0510 C   0  0  0  0  0  0  0  0  0  0  0  0
  141.1550   80.1300  221.4760 C   0  0  1  0  0  0  0  0  0  0  0  0
  141.7050   79.3350  220.3390 C   0  0  0  0  0  0  0  0  0  0  0  0
  141.8390   77.9970  220.3960 N   0  0  0  0  0  0  0  0  0  0  0  0
  142.3440   77.2860  219.3480 C   0  0  0  0  0  0  0  0  0  0  0  0
  142.7120   77.9990  218.2220 C   0  0  0  0  0  0  0  0  0  0  0  0
  142.5870   79.3720  218.1290 C   0  0  0  0  0  0  0  0  0  0  0  0
  142.0770   80.0130  219.2150 N   0  0  0  0  0  0  0  0  0  0  0  0
  140.9280   74.3370  221.5050 C   0  0  0  0  0  0  0  0  0  0  0  0
  140.7310   72.9720  221.5340 C   0  0  0  0  0  0  0  0  0  0  0  0
  141.7830   72.1190  221.1890 C   0  0  0  0  0  0  0  0  0  0  0  0
  143.0010   72.6590  220.8250 C   0  0  0  0  0  0  0  0  0  0  0  0
  144.0760   71.8560  220.4760 C   0  0  0  0  0  0  0  0  0  0  0  0
  145.2790   72.4680  220.1180 C   0  0  0  0  0  0  0  0  0  0  0  0
  145.4340   73.8270  220.1010 C   0  0  0  0  0  0  0  0  0  0  0  0
  144.3600   74.6060  220.4510 C   0  0  0  0  0  0  0  0  0  0  0  0
  143.1620   74.0280  220.8070 C   0  0  0  0  0  0  0  0  0  0  0  0
  142.1360   74.7990  221.1420 N   0  0  0  0  0  0  0  0  0  0  0  0
  141.1370   76.9410  221.8730 H   0  0  0  0  0  0  0  0  0  0  0  0
  138.5752   77.9030  221.4583 H   0  0  0  0  0  0  0  0  0  0  0  0
  138.3848   77.0732  223.0583 H   0  0  0  0  0  0  0  0  0  0  0  0
  142.1708   78.4621  224.1413 H   0  0  0  0  0  0  0  0  0  0  0  0
  142.8884   78.3816  222.5781 H   0  0  0  0  0  0  0  0  0  0  0  0
  142.1287   80.9204  224.2168 H   0  0  0  0  0  0  0  0  0  0  0  0
  143.7190   80.5728  223.6090 H   0  0  0  0  0  0  0  0  0  0  0  0
  141.8245   82.0583  222.2059 H   0  0  0  0  0  0  0  0  0  0  0  0
  143.0863   81.1343  221.3647 H   0  0  0  0  0  0  0  0  0  0  0  0
  140.2693   80.6519  221.0847 H   0  0  0  0  0  0  0  0  0  0  0  0
  142.4539   76.1926  219.3962 H   0  0  0  0  0  0  0  0  0  0  0  0
  143.1224   77.4490  217.3623 H   0  0  0  0  0  0  0  0  0  0  0  0
  142.8849   79.9191  217.2224 H   0  0  0  0  0  0  0  0  0  0  0  0
  139.7544   72.5585  221.8261 H   0  0  0  0  0  0  0  0  0  0  0  0
  141.6423   71.0282  221.2072 H   0  0  0  0  0  0  0  0  0  0  0  0
  143.9832   70.7599  220.4810 H   0  0  0  0  0  0  0  0  0  0  0  0
  146.1336   71.8339  219.8394 H   0  0  0  0  0  0  0  0  0  0  0  0
  146.3933   74.2828  219.8146 H   0  0  0  0  0  0  0  0  0  0  0  0
  144.4569   75.7017  220.4472 H   0  0  0  0  0  0  0  0  0  0  0  0
  1  2  2  0
  2  3  1  0
  3  4  1  0
  4  5  1  0
  5  6  2  0
  5  7  1  0
  7  8  1  0
  8  9  1  0
  9 10  1  0
 10 11  1  0
 11 12  1  0
 12 13  2  0
 13 14  1  0
 14 15  2  0
 15 16  1  0
 16 17  2  0
  2 18  1  0
 18 19  2  0
 19 20  1  0
 20 21  2  0
 21 22  1  0
 22 23  2  0
 23 24  1  0
 24 25  2  0
 25 26  1  0
 26 27  2  0
 11  7  1  0
 17 12  1  0
 27 18  1  0
 26 21  1  0
  3 28  1  0
  4 29  1  0
  4 30  1  0
  8 31  1  0
  8 32  1  0
  9 33  1  0
  9 34  1  0
 10 35  1  0
 10 36  1  0
 11 37  1  6
 14 38  1  0
 15 39  1  0
 16 40  1  0
 19 41  1  0
 20 42  1  0
 22 43  1  0
 23 44  1  0
 24 45  1  0
 25 46  1  0
M  END
>  <smiles>  (48) 
O=C(NCC(=O)N1CCC[C@H]1c1ncccn1)c1ccc2ccccc2n1

>  <score_type>  (48) 
oracle

>  <origin>  (48) 
autodockgpu

>  <m_score__min__energy>  (48) 
-8.3499999999999996

>  <m_primary>  (48) 
energy

>  <rmsd>  (48) 
5.99298947366977

>  <m_score__min__rmsd>  (48) 
5.99298947366977

>  <meeko>  (48) 
{"free_energy": -6.56, "intermolecular_energy": -8.06, "internal_energy": -2.81, "cluster_size": 4, "cluster_id": 5, "rank_in_cluster": 2}

>  <energy>  (48) 
-6.56

>  <cluster_rmsd>  (48) 
0.13

>  <cluster>  (48) 
5

$$$$

     RDKit          3D

 46 49  0  0  0  0  0  0  0  0999 V2000
  140.2310   71.5380  221.1880 O   0  0  0  0  0  0  0  0  0  0  0  0
  140.0110   72.1330  222.2780 C   0  0  0  0  0  0  0  0  0  0  0  0
  139.7420   73.5280  222.3570 N   0  0  0  0  0  0  0  0  0  0  0  0
  139.7090   74.3350  221.1520 C   0  0  0  0  0  0  0  0  0  0  0  0
  139.2670   75.7190  221.4350 C   0  0  0  0  0  0  0  0  0  0  0  0
  138.1990   75.9360  222.0820 O   0  0  0  0  0  0  0  0  0  0  0  0
  140.0870   76.7770  220.9500 N   0  0  0  0  0  0  0  0  0  0  0  0
  139.7940   77.7640  219.9210 C   0  0  0  0  0  0  0  0  0  0  0  0
  140.9990   77.5250  219.0330 C   0  0  0  0  0  0  0  0  0  0  0  0
  142.1060   77.4640  220.0610 C   0  0  0  0  0  0  0  0  0  0  0  0
  141.4480   77.1190  221.3940 C   0  0  1  0  0  0  0  0  0  0  0  0
  141.4090   78.3190  222.2800 C   0  0  0  0  0  0  0  0  0  0  0  0
  140.3350   78.6240  223.0320 N   0  0  0  0  0  0  0  0  0  0  0  0
  140.3160   79.7250  223.8360 C   0  0  0  0  0  0  0  0  0  0  0  0
  141.4500   80.5170  223.8460 C   0  0  0  0  0  0  0  0  0  0  0  0
  142.5700   80.2340  223.0870 C   0  0  0  0  0  0  0  0  0  0  0  0
  142.5140   79.1190  222.3100 N   0  0  0  0  0  0  0  0  0  0  0  0
  140.0330   71.3600  223.5370 C   0  0  0  0  0  0  0  0  0  0  0  0
  139.5660   70.0620  223.5600 C   0  0  0  0  0  0  0  0  0  0  0  0
  139.5950   69.3430  224.7580 C   0  0  0  0  0  0  0  0  0  0  0  0
  140.0880   69.9470  225.8980 C   0  0  0  0  0  0  0  0  0  0  0  0
  140.1360   69.2760  227.1110 C   0  0  0  0  0  0  0  0  0  0  0  0
  140.6480   69.9470  228.2240 C   0  0  0  0  0  0  0  0  0  0  0  0
  141.1010   71.2360  228.1610 C   0  0  0  0  0  0  0  0  0  0  0  0
  141.0450   71.8830  226.9520 C   0  0  0  0  0  0  0  0  0  0  0  0
  140.5460   71.2450  225.8390 C   0  0  0  0  0  0  0  0  0  0  0  0
  140.5010   71.8890  224.6800 N   0  0  0  0  0  0  0  0  0  0  0  0
  139.5690   73.9470  223.3190 H   0  0  0  0  0  0  0  0  0  0  0  0
  140.7179   74.3649  220.7146 H   0  0  0  0  0  0  0  0  0  0  0  0
  138.9912   73.8807  220.4532 H   0  0  0  0  0  0  0  0  0  0  0  0
  138.8476   77.5531  219.4015 H   0  0  0  0  0  0  0  0  0  0  0  0
  139.6574   78.7968  220.2740 H   0  0  0  0  0  0  0  0  0  0  0  0
  140.9106   76.5796  218.4777 H   0  0  0  0  0  0  0  0  0  0  0  0
  141.1458   78.2862  218.2526 H   0  0  0  0  0  0  0  0  0  0  0  0
  142.8359   76.6882  219.7865 H   0  0  0  0  0  0  0  0  0  0  0  0
  142.6433   78.4219  220.1212 H   0  0  0  0  0  0  0  0  0  0  0  0
  141.9603   76.3323  221.9672 H   0  0  0  0  0  0  0  0  0  0  0  0
  139.4374   79.9726  224.4498 H   0  0  0  0  0  0  0  0  0  0  0  0
  141.4610   81.4115  224.4862 H   0  0  0  0  0  0  0  0  0  0  0  0
  143.4615   80.8779  223.1102 H   0  0  0  0  0  0  0  0  0  0  0  0
  139.1742   69.5971  222.6433 H   0  0  0  0  0  0  0  0  0  0  0  0
  139.2288   68.3063  224.7927 H   0  0  0  0  0  0  0  0  0  0  0  0
  139.7790   68.2389  227.1946 H   0  0  0  0  0  0  0  0  0  0  0  0
  140.6884   69.4186  229.1879 H   0  0  0  0  0  0  0  0  0  0  0  0
  141.4990   71.7399  229.0542 H   0  0  0  0  0  0  0  0  0  0  0  0
  141.4019   72.9204  226.8717 H   0  0  0  0  0  0  0  0  0  0  0  0
  1  2  2  0
  2  3  1  0
  3  4  1  0
  4  5  1  0
  5  6  2  0
  5  7  1  0
  7  8  1  0
  8  9  1  0
  9 10  1  0
 10 11  1  0
 11 12  1  0
 12 13  2  0
 13 14  1  0
 14 15  2  0
 15 16  1  0
 16 17  2  0
  2 18  1  0
 18 19  2  0
 19 20  1  0
 20 21  2  0
 21 22  1  0
 22 23  2  0
 23 24  1  0
 24 25  2  0
 25 26  1  0
 26 27  2  0
 11  7  1  0
 17 12  1  0
 27 18  1  0
 26 21  1  0
  3 28  1  0
  4 29  1  0
  4 30  1  0
  8 31  1  0
  8 32  1  0
  9 33  1  0
  9 34  1  0
 10 35  1  0
 10 36  1  0
 11 37  1  1
 14 38  1  0
 15 39  1  0
 16 40  1  0
 19 41  1  0
 20 42  1  0
 22 43  1  0
 23 44  1  0
 24 45  1  0
 25 46  1  0
M  END
>  <smiles>  (49) 
O=C(NCC(=O)N1CCC[C@H]1c1ncccn1)c1ccc2ccccc2n1

>  <score_type>  (49) 
oracle

>  <origin>  (49) 
autodockgpu

>  <m_score__min__energy>  (49) 
-8.3499999999999996

>  <m_primary>  (49) 
energy

>  <rmsd>  (49) 
1.9980741086907134

>  <m_score__min__rmsd>  (49) 
1.9980741086907134

>  <meeko>  (49) 
{"free_energy": -7.96, "intermolecular_energy": -9.46, "internal_energy": -1.53, "cluster_size": 23, "cluster_id": 1, "rank_in_cluster": 20}

>  <energy>  (49) 
-6.5

>  <cluster_rmsd>  (49) 
0.24

>  <cluster>  (49) 
5

$$$$

     RDKit          3D

 46 49  0  0  0  0  0  0  0  0999 V2000
  138.4630   75.6490  222.0920 O   0  0  0  0  0  0  0  0  0  0  0  0
  139.6660   76.0290  222.0830 C   0  0  0  0  0  0  0  0  0  0  0  0
  140.7360   75.1970  221.6490 N   0  0  0  0  0  0  0  0  0  0  0  0
  140.4720   73.8480  221.1880 C   0  0  0  0  0  0  0  0  0  0  0  0
  141.6970   73.0190  221.1970 C   0  0  0  0  0  0  0  0  0  0  0  0
  141.7800   71.9970  221.9430 O   0  0  0  0  0  0  0  0  0  0  0  0
  142.7610   73.4190  220.3400 N   0  0  0  0  0  0  0  0  0  0  0  0
  143.2010   72.8220  219.0870 C   0  0  0  0  0  0  0  0  0  0  0  0
  144.6600   72.6120  219.4400 C   0  0  0  0  0  0  0  0  0  0  0  0
  144.9970   73.9410  220.0770 C   0  0  0  0  0  0  0  0  0  0  0  0
  143.6760   74.5550  220.5340 C   0  0  1  0  0  0  0  0  0  0  0  0
  143.2890   75.6820  219.6340 C   0  0  0  0  0  0  0  0  0  0  0  0
  142.5890   76.7440  220.0730 N   0  0  0  0  0  0  0  0  0  0  0  0
  142.2420   77.7650  219.2370 C   0  0  0  0  0  0  0  0  0  0  0  0
  142.6430   77.6610  217.9180 C   0  0  0  0  0  0  0  0  0  0  0  0
  143.3620   76.5850  217.4340 C   0  0  0  0  0  0  0  0  0  0  0  0
  143.6700   75.6070  218.3260 N   0  0  0  0  0  0  0  0  0  0  0  0
  139.9930   77.3940  222.5420 C   0  0  0  0  0  0  0  0  0  0  0  0
  138.9840   78.2610  222.9110 C   0  0  0  0  0  0  0  0  0  0  0  0
  139.3090   79.5480  223.3440 C   0  0  0  0  0  0  0  0  0  0  0  0
  140.6350   79.9320  223.3940 C   0  0  0  0  0  0  0  0  0  0  0  0
  141.0100   81.1990  223.8150 C   0  0  0  0  0  0  0  0  0  0  0  0
  142.3690   81.5200  223.8410 C   0  0  0  0  0  0  0  0  0  0  0  0
  143.3390   80.6320  223.4670 C   0  0  0  0  0  0  0  0  0  0  0  0
  142.9500   79.3830  223.0520 C   0  0  0  0  0  0  0  0  0  0  0  0
  141.6180   79.0410  223.0180 C   0  0  0  0  0  0  0  0  0  0  0  0
  141.2620   77.8280  222.6140 N   0  0  0  0  0  0  0  0  0  0  0  0
  141.7200   75.5990  221.6750 H   0  0  0  0  0  0  0  0  0  0  0  0
  139.7233   73.3855  221.8480 H   0  0  0  0  0  0  0  0  0  0  0  0
  140.1029   73.9045  220.1533 H   0  0  0  0  0  0  0  0  0  0  0  0
  142.6849   71.8739  218.8756 H   0  0  0  0  0  0  0  0  0  0  0  0
  143.0088   73.4155  218.1810 H   0  0  0  0  0  0  0  0  0  0  0  0
  144.7886   71.7804  220.1484 H   0  0  0  0  0  0  0  0  0  0  0  0
  145.2990   72.3436  218.5858 H   0  0  0  0  0  0  0  0  0  0  0  0
  145.6635   73.7903  220.9390 H   0  0  0  0  0  0  0  0  0  0  0  0
  145.5154   74.6009  219.3658 H   0  0  0  0  0  0  0  0  0  0  0  0
  143.6915   74.9685  221.5532 H   0  0  0  0  0  0  0  0  0  0  0  0
  141.6687   78.6322  219.5965 H   0  0  0  0  0  0  0  0  0  0  0  0
  142.3778   78.4711  217.2228 H   0  0  0  0  0  0  0  0  0  0  0  0
  143.6697   76.5230  216.3797 H   0  0  0  0  0  0  0  0  0  0  0  0
  137.9327   77.9405  222.8643 H   0  0  0  0  0  0  0  0  0  0  0  0
  138.5163   80.2498  223.6426 H   0  0  0  0  0  0  0  0  0  0  0  0
  140.2530   81.9357  224.1220 H   0  0  0  0  0  0  0  0  0  0  0  0
  142.6700   82.5240  224.1746 H   0  0  0  0  0  0  0  0  0  0  0  0
  144.4026   80.9111  223.4979 H   0  0  0  0  0  0  0  0  0  0  0  0
  143.7096   78.6494  222.7440 H   0  0  0  0  0  0  0  0  0  0  0  0
  1  2  2  0
  2  3  1  0
  3  4  1  0
  4  5  1  0
  5  6  2  0
  5  7  1  0
  7  8  1  0
  8  9  1  0
  9 10  1  0
 10 11  1  0
 11 12  1  0
 12 13  2  0
 13 14  1  0
 14 15  2  0
 15 16  1  0
 16 17  2  0
  2 18  1  0
 18 19  2  0
 19 20  1  0
 20 21  2  0
 21 22  1  0
 22 23  2  0
 23 24  1  0
 24 25  2  0
 25 26  1  0
 26 27  2  0
 11  7  1  0
 17 12  1  0
 27 18  1  0
 26 21  1  0
  3 28  1  0
  4 29  1  0
  4 30  1  0
  8 31  1  0
  8 32  1  0
  9 33  1  0
  9 34  1  0
 10 35  1  0
 10 36  1  0
 11 37  1  1
 14 38  1  0
 15 39  1  0
 16 40  1  0
 19 41  1  0
 20 42  1  0
 22 43  1  0
 23 44  1  0
 24 45  1  0
 25 46  1  0
M  END
>  <smiles>  (50) 
O=C(NCC(=O)N1CCC[C@H]1c1ncccn1)c1ccc2ccccc2n1

>  <score_type>  (50) 
oracle

>  <origin>  (50) 
autodockgpu

>  <m_score__min__energy>  (50) 
-8.3499999999999996

>  <m_primary>  (50) 
energy

>  <rmsd>  (50) 
7.3447447556698275

>  <m_score__min__rmsd>  (50) 
7.3447447556698275

>  <meeko>  (50) 
{"free_energy": -6.8, "intermolecular_energy": -8.29, "internal_energy": -2.79, "cluster_size": 11, "cluster_id": 4, "rank_in_cluster": 10}

>  <energy>  (50) 
-6.43

>  <cluster_rmsd>  (50) 
0.39

>  <cluster>  (50) 
5

$$$$
