
     RDKit          3D

 42 44  0  0  0  0  0  0  0  0999 V2000
  139.7510   73.6560  222.4010 O   0  0  0  0  0  0  0  0  0  0  0  0
  140.5030   72.6410  222.5290 C   0  0  0  0  0  0  0  0  0  0  0  0
  141.5610   72.4510  221.6040 N   0  0  0  0  0  0  0  0  0  0  0  0
  141.6820   73.4850  220.5550 C   0  0  0  0  0  0  0  0  0  0  0  0
  142.8990   73.2670  219.7650 C   0  0  0  0  0  0  0  0  0  0  0  0
  143.3090   74.2430  219.0550 O   0  0  0  0  0  0  0  0  0  0  0  0
  143.6710   72.0830  219.7020 N   0  0  0  0  0  0  0  0  0  0  0  0
  143.0480   70.8480  219.1590 C   0  0  0  0  0  0  0  0  0  0  0  0
  144.1120   69.8010  219.2630 C   0  0  0  0  0  0  0  0  0  0  0  0
  145.3950   70.6370  219.1730 C   0  0  0  0  0  0  0  0  0  0  0  0
  145.0260   71.7950  220.0850 C   0  0  1  0  0  0  0  0  0  0  0  0
  145.9910   72.9430  219.9150 C   0  0  0  0  0  0  0  0  0  0  0  0
  146.0450   73.3980  218.6130 O   0  0  0  0  0  0  0  0  0  0  0  0
  140.3070   71.6700  223.6000 C   0  0  0  0  0  0  0  0  0  0  0  0
  139.6470   70.4880  223.2960 C   0  0  0  0  0  0  0  0  0  0  0  0
  139.4260   69.5220  224.2600 C   0  0  0  0  0  0  0  0  0  0  0  0
  139.8760   69.7590  225.5260 C   0  0  0  0  0  0  0  0  0  0  0  0
  139.6650   68.8020  226.5130 C   0  0  0  0  0  0  0  0  0  0  0  0
  139.0200   67.6700  226.1730 F   0  0  0  0  0  0  0  0  0  0  0  0
  140.1180   69.0480  227.7720 C   0  0  0  0  0  0  0  0  0  0  0  0
  140.7730   70.2140  228.0830 C   0  0  0  0  0  0  0  0  0  0  0  0
  140.9680   71.1540  227.0750 C   0  0  0  0  0  0  0  0  0  0  0  0
  140.5280   70.9490  225.7830 C   0  0  0  0  0  0  0  0  0  0  0  0
  140.7390   71.8880  224.8330 N   0  0  0  0  0  0  0  0  0  0  0  0
  142.2260   71.6480  221.6320 H   0  0  0  0  0  0  0  0  0  0  0  0
  140.8052   73.4346  219.8926 H   0  0  0  0  0  0  0  0  0  0  0  0
  141.7368   74.4747  221.0319 H   0  0  0  0  0  0  0  0  0  0  0  0
  142.1674   70.5650  219.7543 H   0  0  0  0  0  0  0  0  0  0  0  0
  142.6986   70.9814  218.1245 H   0  0  0  0  0  0  0  0  0  0  0  0
  144.0516   69.2641  220.2212 H   0  0  0  0  0  0  0  0  0  0  0  0
  144.0391   69.0178  218.4940 H   0  0  0  0  0  0  0  0  0  0  0  0
  146.2685   70.0844  219.5493 H   0  0  0  0  0  0  0  0  0  0  0  0
  145.6856   70.9277  218.1527 H   0  0  0  0  0  0  0  0  0  0  0  0
  145.0926   71.5765  221.1610 H   0  0  0  0  0  0  0  0  0  0  0  0
  145.6727   73.7710  220.5654 H   0  0  0  0  0  0  0  0  0  0  0  0
  146.9938   72.5803  220.1848 H   0  0  0  0  0  0  0  0  0  0  0  0
  145.4060   74.1580  218.4590 H   0  0  0  0  0  0  0  0  0  0  0  0
  139.2930   70.3163  222.2688 H   0  0  0  0  0  0  0  0  0  0  0  0
  138.9013   68.5873  224.0129 H   0  0  0  0  0  0  0  0  0  0  0  0
  139.9559   68.2961  228.5583 H   0  0  0  0  0  0  0  0  0  0  0  0
  141.1351   70.4009  229.1047 H   0  0  0  0  0  0  0  0  0  0  0  0
  141.4903   72.0916  227.3162 H   0  0  0  0  0  0  0  0  0  0  0  0
  1  2  2  0
  2  3  1  0
  3  4  1  0
  4  5  1  0
  5  6  2  0
  5  7  1  0
  7  8  1  0
  8  9  1  0
  9 10  1  0
 10 11  1  0
 11 12  1  0
 12 13  1  0
  2 14  1  0
 14 15  2  0
 15 16  1  0
 16 17  2  0
 17 18  1  0
 18 19  1  0
 18 20  2  0
 20 21  1  0
 21 22  2  0
 22 23  1  0
 23 24  2  0
 11  7  1  0
 24 14  1  0
 23 17  1  0
  3 25  1  0
  4 26  1  0
  4 27  1  0
  8 28  1  0
  8 29  1  0
  9 30  1  0
  9 31  1  0
 10 32  1  0
 10 33  1  0
 11 34  1  1
 12 35  1  0
 12 36  1  0
 13 37  1  0
 15 38  1  0
 16 39  1  0
 20 40  1  0
 21 41  1  0
 22 42  1  0
M  END
>  <smiles>  (1) 
O=C(NCC(=O)N1CCC[C@H]1CO)c1ccc2c(F)cccc2n1

>  <score_type>  (1) 
oracle

>  <origin>  (1) 
autodockgpu

>  <m_score__min__energy>  (1) 
-7.0199999999999996

>  <m_primary>  (1) 
energy

>  <rmsd>  (1) 
4.524780877589546

>  <m_score__min__rmsd>  (1) 
4.524780877589546

>  <meeko>  (1) 
{"free_energy": -6.78, "intermolecular_energy": -8.57, "internal_energy": -1.68, "cluster_size": 4, "cluster_id": 2, "rank_in_cluster": 1}

>  <energy>  (1) 
-7.02

>  <cluster_rmsd>  (1) 
0.0

>  <cluster>  (1) 
1

$$$$

     RDKit          3D

 42 44  0  0  0  0  0  0  0  0999 V2000
  141.1600   71.9290  221.4370 O   0  0  0  0  0  0  0  0  0  0  0  0
  140.3200   72.2170  222.3440 C   0  0  0  0  0  0  0  0  0  0  0  0
  139.4610   73.3300  222.1540 N   0  0  0  0  0  0  0  0  0  0  0  0
  139.6400   74.0620  220.8830 C   0  0  0  0  0  0  0  0  0  0  0  0
  140.8690   74.8620  220.9260 C   0  0  0  0  0  0  0  0  0  0  0  0
  141.3510   75.1170  222.0780 O   0  0  0  0  0  0  0  0  0  0  0  0
  141.5800   75.3880  219.8220 N   0  0  0  0  0  0  0  0  0  0  0  0
  140.9880   76.5160  219.0580 C   0  0  0  0  0  0  0  0  0  0  0  0
  141.9690   76.7980  217.9640 C   0  0  0  0  0  0  0  0  0  0  0  0
  143.2910   76.3360  218.5900 C   0  0  0  0  0  0  0  0  0  0  0  0
  142.8440   75.0350  219.2330 C   0  0  1  0  0  0  0  0  0  0  0  0
  143.8790   74.5320  220.2080 C   0  0  0  0  0  0  0  0  0  0  0  0
  143.4800   73.3770  220.8520 O   0  0  0  0  0  0  0  0  0  0  0  0
  140.2150   71.4330  223.5710 C   0  0  0  0  0  0  0  0  0  0  0  0
  139.6130   70.1850  223.4970 C   0  0  0  0  0  0  0  0  0  0  0  0
  139.4800   69.3870  224.6180 C   0  0  0  0  0  0  0  0  0  0  0  0
  139.9570   69.8590  225.8060 C   0  0  0  0  0  0  0  0  0  0  0  0
  139.8340   69.0730  226.9480 C   0  0  0  0  0  0  0  0  0  0  0  0
  139.2430   67.8690  226.8300 F   0  0  0  0  0  0  0  0  0  0  0  0
  140.3130   69.5520  228.1280 C   0  0  0  0  0  0  0  0  0  0  0  0
  140.9100   70.7860  228.2100 C   0  0  0  0  0  0  0  0  0  0  0  0
  141.0180   71.5500  227.0520 C   0  0  0  0  0  0  0  0  0  0  0  0
  140.5480   71.1060  225.8320 C   0  0  0  0  0  0  0  0  0  0  0  0
  140.6750   71.8790  224.7300 N   0  0  0  0  0  0  0  0  0  0  0  0
  138.7420   73.6390  222.8440 H   0  0  0  0  0  0  0  0  0  0  0  0
  139.7049   73.3410  220.0548 H   0  0  0  0  0  0  0  0  0  0  0  0
  138.7812   74.7325  220.7317 H   0  0  0  0  0  0  0  0  0  0  0  0
  140.0124   76.2293  218.6384 H   0  0  0  0  0  0  0  0  0  0  0  0
  140.8107   77.3972  219.6920 H   0  0  0  0  0  0  0  0  0  0  0  0
  141.7332   76.2207  217.0578 H   0  0  0  0  0  0  0  0  0  0  0  0
  141.9775   77.8483  217.6374 H   0  0  0  0  0  0  0  0  0  0  0  0
  144.0661   76.1684  217.8277 H   0  0  0  0  0  0  0  0  0  0  0  0
  143.7513   77.0577  219.2808 H   0  0  0  0  0  0  0  0  0  0  0  0
  142.7320   74.1900  218.5377 H   0  0  0  0  0  0  0  0  0  0  0  0
  144.8102   74.3267  219.6597 H   0  0  0  0  0  0  0  0  0  0  0  0
  144.0239   75.3090  220.9730 H   0  0  0  0  0  0  0  0  0  0  0  0
  142.6260   73.5150  221.3630 H   0  0  0  0  0  0  0  0  0  0  0  0
  139.2349   69.8242  222.5291 H   0  0  0  0  0  0  0  0  0  0  0  0
  139.0025   68.3981  224.5539 H   0  0  0  0  0  0  0  0  0  0  0  0
  140.2201   68.9377  229.0357 H   0  0  0  0  0  0  0  0  0  0  0  0
  141.2942   71.1621  229.1697 H   0  0  0  0  0  0  0  0  0  0  0  0
  141.4934   72.5402  227.1105 H   0  0  0  0  0  0  0  0  0  0  0  0
  1  2  2  0
  2  3  1  0
  3  4  1  0
  4  5  1  0
  5  6  2  0
  5  7  1  0
  7  8  1  0
  8  9  1  0
  9 10  1  0
 10 11  1  0
 11 12  1  0
 12 13  1  0
  2 14  1  0
 14 15  2  0
 15 16  1  0
 16 17  2  0
 17 18  1  0
 18 19  1  0
 18 20  2  0
 20 21  1  0
 21 22  2  0
 22 23  1  0
 23 24  2  0
 11  7  1  0
 24 14  1  0
 23 17  1  0
  3 25  1  0
  4 26  1  0
  4 27  1  0
  8 28  1  0
  8 29  1  0
  9 30  1  0
  9 31  1  0
 10 32  1  0
 10 33  1  0
 11 34  1  6
 12 35  1  0
 12 36  1  0
 13 37  1  0
 15 38  1  0
 16 39  1  0
 20 40  1  0
 21 41  1  0
 22 42  1  0
M  END
>  <smiles>  (2) 
O=C(NCC(=O)N1CCC[C@H]1CO)c1ccc2c(F)cccc2n1

>  <score_type>  (2) 
oracle

>  <origin>  (2) 
autodockgpu

>  <m_score__min__energy>  (2) 
-7.0199999999999996

>  <m_primary>  (2) 
energy

>  <rmsd>  (2) 
1.9438320784384862

>  <m_score__min__rmsd>  (2) 
1.9438320784384862

>  <meeko>  (2) 
{"free_energy": -6.16, "intermolecular_energy": -7.95, "internal_energy": -2.38, "cluster_size": 34, "cluster_id": 1, "rank_in_cluster": 33}

>  <energy>  (2) 
-6.98

>  <cluster_rmsd>  (2) 
0.09

>  <cluster>  (2) 
1

$$$$

     RDKit          3D

 42 44  0  0  0  0  0  0  0  0999 V2000
  139.6120   74.5310  222.0380 O   0  0  0  0  0  0  0  0  0  0  0  0
  140.5510   75.3720  221.8850 C   0  0  0  0  0  0  0  0  0  0  0  0
  141.7630   74.9440  221.2860 N   0  0  0  0  0  0  0  0  0  0  0  0
  141.8100   73.5210  220.8910 C   0  0  0  0  0  0  0  0  0  0  0  0
  143.1520   73.1700  220.4150 C   0  0  0  0  0  0  0  0  0  0  0  0
  144.0290   74.0950  220.4250 O   0  0  0  0  0  0  0  0  0  0  0  0
  143.5830   71.9080  219.9400 N   0  0  0  0  0  0  0  0  0  0  0  0
  142.7020   70.7270  220.1390 C   0  0  0  0  0  0  0  0  0  0  0  0
  143.4620   69.5780  219.5560 C   0  0  0  0  0  0  0  0  0  0  0  0
  144.3210   70.2680  218.4890 C   0  0  0  0  0  0  0  0  0  0  0  0
  144.7800   71.4910  219.2620 C   0  0  1  0  0  0  0  0  0  0  0  0
  145.3770   72.5220  218.3360 C   0  0  0  0  0  0  0  0  0  0  0  0
  146.2990   73.3310  218.9710 O   0  0  0  0  0  0  0  0  0  0  0  0
  140.4140   76.7630  222.3070 C   0  0  0  0  0  0  0  0  0  0  0  0
  139.1530   77.2110  222.6710 C   0  0  0  0  0  0  0  0  0  0  0  0
  138.9480   78.5150  223.0820 C   0  0  0  0  0  0  0  0  0  0  0  0
  140.0220   79.3560  223.1220 C   0  0  0  0  0  0  0  0  0  0  0  0
  139.8400   80.6730  223.5310 C   0  0  0  0  0  0  0  0  0  0  0  0
  138.5990   81.0650  223.8760 F   0  0  0  0  0  0  0  0  0  0  0  0
  140.9170   81.5030  223.5670 C   0  0  0  0  0  0  0  0  0  0  0  0
  142.1690   81.0680  223.2090 C   0  0  0  0  0  0  0  0  0  0  0  0
  142.3210   79.7450  222.8020 C   0  0  0  0  0  0  0  0  0  0  0  0
  141.2580   78.8650  222.7500 C   0  0  0  0  0  0  0  0  0  0  0  0
  141.4480   77.5880  222.3500 N   0  0  0  0  0  0  0  0  0  0  0  0
  142.5860   75.5640  221.1210 H   0  0  0  0  0  0  0  0  0  0  0  0
  141.5574   72.8947  221.7593 H   0  0  0  0  0  0  0  0  0  0  0  0
  141.0863   73.3501  220.0804 H   0  0  0  0  0  0  0  0  0  0  0  0
  142.5119   70.5619  221.2098 H   0  0  0  0  0  0  0  0  0  0  0  0
  141.7193   70.8582  219.6625 H   0  0  0  0  0  0  0  0  0  0  0  0
  144.0877   69.0868  220.3157 H   0  0  0  0  0  0  0  0  0  0  0  0
  142.8192   68.7792  219.1576 H   0  0  0  0  0  0  0  0  0  0  0  0
  145.1692   69.6395  218.1800 H   0  0  0  0  0  0  0  0  0  0  0  0
  143.7975   70.4877  217.5469 H   0  0  0  0  0  0  0  0  0  0  0  0
  145.5938   71.3065  219.9787 H   0  0  0  0  0  0  0  0  0  0  0  0
  145.8763   72.0028  217.5047 H   0  0  0  0  0  0  0  0  0  0  0  0
  144.5588   73.1641  217.9779 H   0  0  0  0  0  0  0  0  0  0  0  0
  145.8780   74.1800  219.3050 H   0  0  0  0  0  0  0  0  0  0  0  0
  138.3008   76.5165  222.6320 H   0  0  0  0  0  0  0  0  0  0  0  0
  137.9456   78.8654  223.3692 H   0  0  0  0  0  0  0  0  0  0  0  0
  140.7819   82.5458  223.8901 H   0  0  0  0  0  0  0  0  0  0  0  0
  143.0322   81.7489  223.2429 H   0  0  0  0  0  0  0  0  0  0  0  0
  143.3207   79.3891  222.5124 H   0  0  0  0  0  0  0  0  0  0  0  0
  1  2  2  0
  2  3  1  0
  3  4  1  0
  4  5  1  0
  5  6  2  0
  5  7  1  0
  7  8  1  0
  8  9  1  0
  9 10  1  0
 10 11  1  0
 11 12  1  0
 12 13  1  0
  2 14  1  0
 14 15  2  0
 15 16  1  0
 16 17  2  0
 17 18  1  0
 18 19  1  0
 18 20  2  0
 20 21  1  0
 21 22  2  0
 22 23  1  0
 23 24  2  0
 11  7  1  0
 24 14  1  0
 23 17  1  0
  3 25  1  0
  4 26  1  0
  4 27  1  0
  8 28  1  0
  8 29  1  0
  9 30  1  0
  9 31  1  0
 10 32  1  0
 10 33  1  0
 11 34  1  1
 12 35  1  0
 12 36  1  0
 13 37  1  0
 15 38  1  0
 16 39  1  0
 20 40  1  0
 21 41  1  0
 22 42  1  0
M  END
>  <smiles>  (3) 
O=C(NCC(=O)N1CCC[C@H]1CO)c1ccc2c(F)cccc2n1

>  <score_type>  (3) 
oracle

>  <origin>  (3) 
autodockgpu

>  <m_score__min__energy>  (3) 
-7.0199999999999996

>  <m_primary>  (3) 
energy

>  <rmsd>  (3) 
7.820780043920624

>  <m_score__min__rmsd>  (3) 
7.820780043920624

>  <meeko>  (3) 
{"free_energy": -6.18, "intermolecular_energy": -7.97, "internal_energy": -2.27, "cluster_size": 7, "cluster_id": 5, "rank_in_cluster": 1}

>  <energy>  (3) 
-6.98

>  <cluster_rmsd>  (3) 
1.37

>  <cluster>  (3) 
1

$$$$

     RDKit          3D

 42 44  0  0  0  0  0  0  0  0999 V2000
  141.0840   71.8710  221.5020 O   0  0  0  0  0  0  0  0  0  0  0  0
  140.3540   72.2490  222.4700 C   0  0  0  0  0  0  0  0  0  0  0  0
  139.6270   73.4610  222.3470 N   0  0  0  0  0  0  0  0  0  0  0  0
  139.8010   74.1810  221.0690 C   0  0  0  0  0  0  0  0  0  0  0  0
  140.9890   75.0400  221.1270 C   0  0  0  0  0  0  0  0  0  0  0  0
  142.1200   74.4740  220.9670 O   0  0  0  0  0  0  0  0  0  0  0  0
  141.0170   76.4380  221.3450 N   0  0  0  0  0  0  0  0  0  0  0  0
  140.7270   76.9570  222.7080 C   0  0  0  0  0  0  0  0  0  0  0  0
  140.8120   78.4450  222.5780 C   0  0  0  0  0  0  0  0  0  0  0  0
  141.7990   78.6120  221.4150 C   0  0  0  0  0  0  0  0  0  0  0  0
  141.2790   77.5460  220.4670 C   0  0  1  0  0  0  0  0  0  0  0  0
  142.2780   77.2640  219.3720 C   0  0  0  0  0  0  0  0  0  0  0  0
  143.3620   76.5350  219.8220 O   0  0  0  0  0  0  0  0  0  0  0  0
  140.2430   71.4700  223.6990 C   0  0  0  0  0  0  0  0  0  0  0  0
  139.6400   70.2220  223.6260 C   0  0  0  0  0  0  0  0  0  0  0  0
  139.5010   69.4280  224.7500 C   0  0  0  0  0  0  0  0  0  0  0  0
  139.9750   69.9030  225.9380 C   0  0  0  0  0  0  0  0  0  0  0  0
  139.8460   69.1210  227.0820 C   0  0  0  0  0  0  0  0  0  0  0  0
  139.2540   67.9180  226.9660 F   0  0  0  0  0  0  0  0  0  0  0  0
  140.3220   69.6030  228.2620 C   0  0  0  0  0  0  0  0  0  0  0  0
  140.9200   70.8370  228.3430 C   0  0  0  0  0  0  0  0  0  0  0  0
  141.0340   71.5960  227.1820 C   0  0  0  0  0  0  0  0  0  0  0  0
  140.5680   71.1500  225.9620 C   0  0  0  0  0  0  0  0  0  0  0  0
  140.6990   71.9190  224.8580 N   0  0  0  0  0  0  0  0  0  0  0  0
  139.0040   73.8480  223.0900 H   0  0  0  0  0  0  0  0  0  0  0  0
  139.9201   73.4513  220.2545 H   0  0  0  0  0  0  0  0  0  0  0  0
  138.9150   74.8070  220.8871 H   0  0  0  0  0  0  0  0  0  0  0  0
  139.7206   76.6534  223.0319 H   0  0  0  0  0  0  0  0  0  0  0  0
  141.4292   76.5656  223.4588 H   0  0  0  0  0  0  0  0  0  0  0  0
  139.8317   78.8809  222.3351 H   0  0  0  0  0  0  0  0  0  0  0  0
  141.1277   78.9520  223.5018 H   0  0  0  0  0  0  0  0  0  0  0  0
  141.7392   79.6166  220.9709 H   0  0  0  0  0  0  0  0  0  0  0  0
  142.8589   78.5077  221.6904 H   0  0  0  0  0  0  0  0  0  0  0  0
  140.3748   77.8269  219.9070 H   0  0  0  0  0  0  0  0  0  0  0  0
  141.7768   76.6958  218.5745 H   0  0  0  0  0  0  0  0  0  0  0  0
  142.6535   78.2302  219.0040 H   0  0  0  0  0  0  0  0  0  0  0  0
  143.2650   76.2880  220.7910 H   0  0  0  0  0  0  0  0  0  0  0  0
  139.2662   69.8581  222.6576 H   0  0  0  0  0  0  0  0  0  0  0  0
  139.0212   68.4401  224.6878 H   0  0  0  0  0  0  0  0  0  0  0  0
  140.2259   68.9911  229.1710 H   0  0  0  0  0  0  0  0  0  0  0  0
  141.2999   71.2164  229.3031 H   0  0  0  0  0  0  0  0  0  0  0  0
  141.5119   72.5852  227.2388 H   0  0  0  0  0  0  0  0  0  0  0  0
  1  2  2  0
  2  3  1  0
  3  4  1  0
  4  5  1  0
  5  6  2  0
  5  7  1  0
  7  8  1  0
  8  9  1  0
  9 10  1  0
 10 11  1  0
 11 12  1  0
 12 13  1  0
  2 14  1  0
 14 15  2  0
 15 16  1  0
 16 17  2  0
 17 18  1  0
 18 19  1  0
 18 20  2  0
 20 21  1  0
 21 22  2  0
 22 23  1  0
 23 24  2  0
 11  7  1  0
 24 14  1  0
 23 17  1  0
  3 25  1  0
  4 26  1  0
  4 27  1  0
  8 28  1  0
  8 29  1  0
  9 30  1  0
  9 31  1  0
 10 32  1  0
 10 33  1  0
 11 34  1  6
 12 35  1  0
 12 36  1  0
 13 37  1  0
 15 38  1  0
 16 39  1  0
 20 40  1  0
 21 41  1  0
 22 42  1  0
M  END
>  <smiles>  (4) 
O=C(NCC(=O)N1CCC[C@H]1CO)c1ccc2c(F)cccc2n1

>  <score_type>  (4) 
oracle

>  <origin>  (4) 
autodockgpu

>  <m_score__min__energy>  (4) 
-7.0199999999999996

>  <m_primary>  (4) 
energy

>  <rmsd>  (4) 
2.7053221595644312

>  <m_score__min__rmsd>  (4) 
2.7053221595644312

>  <meeko>  (4) 
{"free_energy": -7.02, "intermolecular_energy": -8.8, "internal_energy": -1.65, "cluster_size": 34, "cluster_id": 1, "rank_in_cluster": 1}

>  <energy>  (4) 
-6.94

>  <cluster_rmsd>  (4) 
1.2

>  <cluster>  (4) 
1

$$$$

     RDKit          3D

 42 44  0  0  0  0  0  0  0  0999 V2000
  139.9140   74.1650  222.3400 O   0  0  0  0  0  0  0  0  0  0  0  0
  140.2730   75.1370  221.6060 C   0  0  0  0  0  0  0  0  0  0  0  0
  140.6530   74.8780  220.2650 N   0  0  0  0  0  0  0  0  0  0  0  0
  140.5920   73.4620  219.8480 C   0  0  0  0  0  0  0  0  0  0  0  0
  141.9400   72.9580  219.5620 C   0  0  0  0  0  0  0  0  0  0  0  0
  142.0400   72.0500  218.6720 O   0  0  0  0  0  0  0  0  0  0  0  0
  143.1480   73.3690  220.1720 N   0  0  0  0  0  0  0  0  0  0  0  0
  144.0790   72.3320  220.6920 C   0  0  0  0  0  0  0  0  0  0  0  0
  145.2180   73.1000  221.2850 C   0  0  0  0  0  0  0  0  0  0  0  0
  145.2010   74.3920  220.4570 C   0  0  0  0  0  0  0  0  0  0  0  0
  143.7090   74.6690  220.4210 C   0  0  1  0  0  0  0  0  0  0  0  0
  143.3790   75.7120  219.3810 C   0  0  0  0  0  0  0  0  0  0  0  0
  142.7270   76.8040  219.9180 O   0  0  0  0  0  0  0  0  0  0  0  0
  140.3020   76.5080  222.1060 C   0  0  0  0  0  0  0  0  0  0  0  0
  139.0980   77.0960  222.4650 C   0  0  0  0  0  0  0  0  0  0  0  0
  139.0490   78.3910  222.9460 C   0  0  0  0  0  0  0  0  0  0  0  0
  140.2200   79.0810  223.0630 C   0  0  0  0  0  0  0  0  0  0  0  0
  140.1960   80.3860  223.5450 C   0  0  0  0  0  0  0  0  0  0  0  0
  139.0050   80.9170  223.8800 F   0  0  0  0  0  0  0  0  0  0  0  0
  141.3690   81.0650  223.6570 C   0  0  0  0  0  0  0  0  0  0  0  0
  142.5660   80.4910  223.3040 C   0  0  0  0  0  0  0  0  0  0  0  0
  142.5590   79.1850  222.8240 C   0  0  0  0  0  0  0  0  0  0  0  0
  141.3950   78.4550  222.6940 C   0  0  0  0  0  0  0  0  0  0  0  0
  141.4320   77.1880  222.2240 N   0  0  0  0  0  0  0  0  0  0  0  0
  140.9610   75.6130  219.5910 H   0  0  0  0  0  0  0  0  0  0  0  0
  140.1448   72.8645  220.6561 H   0  0  0  0  0  0  0  0  0  0  0  0
  139.9792   73.3826  218.9380 H   0  0  0  0  0  0  0  0  0  0  0  0
  143.5849   71.7181  221.4595 H   0  0  0  0  0  0  0  0  0  0  0  0
  144.4114   71.6409  219.9034 H   0  0  0  0  0  0  0  0  0  0  0  0
  145.0473   73.3072  222.3517 H   0  0  0  0  0  0  0  0  0  0  0  0
  146.1783   72.5647  221.2499 H   0  0  0  0  0  0  0  0  0  0  0  0
  145.7538   75.2022  220.9550 H   0  0  0  0  0  0  0  0  0  0  0  0
  145.6794   74.3133  219.4696 H   0  0  0  0  0  0  0  0  0  0  0  0
  143.2975   75.1044  221.3435 H   0  0  0  0  0  0  0  0  0  0  0  0
  144.3147   76.0537  218.9144 H   0  0  0  0  0  0  0  0  0  0  0  0
  142.7061   75.2491  218.6441 H   0  0  0  0  0  0  0  0  0  0  0  0
  142.6280   76.7230  220.9150 H   0  0  0  0  0  0  0  0  0  0  0  0
  138.1654   76.5214  222.3651 H   0  0  0  0  0  0  0  0  0  0  0  0
  138.0911   78.8530  223.2270 H   0  0  0  0  0  0  0  0  0  0  0  0
  141.3590   82.0966  224.0387 H   0  0  0  0  0  0  0  0  0  0  0  0
  143.5082   81.0508  223.3986 H   0  0  0  0  0  0  0  0  0  0  0  0
  143.5135   78.7186  222.5385 H   0  0  0  0  0  0  0  0  0  0  0  0
  1  2  2  0
  2  3  1  0
  3  4  1  0
  4  5  1  0
  5  6  2  0
  5  7  1  0
  7  8  1  0
  8  9  1  0
  9 10  1  0
 10 11  1  0
 11 12  1  0
 12 13  1  0
  2 14  1  0
 14 15  2  0
 15 16  1  0
 16 17  2  0
 17 18  1  0
 18 19  1  0
 18 20  2  0
 20 21  1  0
 21 22  2  0
 22 23  1  0
 23 24  2  0
 11  7  1  0
 24 14  1  0
 23 17  1  0
  3 25  1  0
  4 26  1  0
  4 27  1  0
  8 28  1  0
  8 29  1  0
  9 30  1  0
  9 31  1  0
 10 32  1  0
 10 33  1  0
 11 34  1  1
 12 35  1  0
 12 36  1  0
 13 37  1  0
 15 38  1  0
 16 39  1  0
 20 40  1  0
 21 41  1  0
 22 42  1  0
M  END
>  <smiles>  (5) 
O=C(NCC(=O)N1CCC[C@H]1CO)c1ccc2c(F)cccc2n1

>  <score_type>  (5) 
oracle

>  <origin>  (5) 
autodockgpu

>  <m_score__min__energy>  (5) 
-7.0199999999999996

>  <m_primary>  (5) 
energy

>  <rmsd>  (5) 
7.209965753752637

>  <m_score__min__rmsd>  (5) 
7.209965753752637

>  <meeko>  (5) 
{"free_energy": -5.99, "intermolecular_energy": -7.78, "internal_energy": -2.63, "cluster_size": 7, "cluster_id": 5, "rank_in_cluster": 7}

>  <energy>  (5) 
-6.89

>  <cluster_rmsd>  (5) 
1.18

>  <cluster>  (5) 
1

$$$$

     RDKit          3D

 42 44  0  0  0  0  0  0  0  0999 V2000
  140.9770   71.5700  221.3620 O   0  0  0  0  0  0  0  0  0  0  0  0
  140.4450   72.0900  222.3900 C   0  0  0  0  0  0  0  0  0  0  0  0
  139.9990   73.4350  222.3260 N   0  0  0  0  0  0  0  0  0  0  0  0
  140.2080   74.1130  221.0290 C   0  0  0  0  0  0  0  0  0  0  0  0
  140.6130   75.5060  221.2440 C   0  0  0  0  0  0  0  0  0  0  0  0
  140.3420   76.0170  222.3800 O   0  0  0  0  0  0  0  0  0  0  0  0
  141.2750   76.3510  220.3230 N   0  0  0  0  0  0  0  0  0  0  0  0
  141.4350   75.8940  218.9170 C   0  0  0  0  0  0  0  0  0  0  0  0
  142.1880   76.9950  218.2380 C   0  0  0  0  0  0  0  0  0  0  0  0
  141.7770   78.2220  219.0610 C   0  0  0  0  0  0  0  0  0  0  0  0
  141.8750   77.6500  220.4640 C   0  0  1  0  0  0  0  0  0  0  0  0
  141.1990   78.5550  221.4640 C   0  0  0  0  0  0  0  0  0  0  0  0
  141.6030   78.3040  222.7600 O   0  0  0  0  0  0  0  0  0  0  0  0
  140.2790   71.3410  223.6320 C   0  0  0  0  0  0  0  0  0  0  0  0
  139.7300   70.0690  223.5560 C   0  0  0  0  0  0  0  0  0  0  0  0
  139.5440   69.3010  224.6910 C   0  0  0  0  0  0  0  0  0  0  0  0
  139.9170   69.8260  225.8940 C   0  0  0  0  0  0  0  0  0  0  0  0
  139.7390   69.0720  227.0490 C   0  0  0  0  0  0  0  0  0  0  0  0
  139.2020   67.8430  226.9300 F   0  0  0  0  0  0  0  0  0  0  0  0
  140.1120   69.6050  228.2440 C   0  0  0  0  0  0  0  0  0  0  0  0
  140.6570   70.8630  228.3280 C   0  0  0  0  0  0  0  0  0  0  0  0
  140.8220   71.5940  227.1560 C   0  0  0  0  0  0  0  0  0  0  0  0
  140.4580   71.0960  225.9210 C   0  0  0  0  0  0  0  0  0  0  0  0
  140.6360   71.8390  224.8050 N   0  0  0  0  0  0  0  0  0  0  0  0
  139.5510   73.9420  223.1200 H   0  0  0  0  0  0  0  0  0  0  0  0
  140.9952   73.5884  220.4677 H   0  0  0  0  0  0  0  0  0  0  0  0
  139.2665   74.0971  220.4604 H   0  0  0  0  0  0  0  0  0  0  0  0
  142.0049   74.9539  218.8780 H   0  0  0  0  0  0  0  0  0  0  0  0
  140.4673   75.6945  218.4336 H   0  0  0  0  0  0  0  0  0  0  0  0
  143.2738   76.8261  218.2885 H   0  0  0  0  0  0  0  0  0  0  0  0
  141.9644   77.0872  217.1649 H   0  0  0  0  0  0  0  0  0  0  0  0
  142.4716   79.0622  218.9142 H   0  0  0  0  0  0  0  0  0  0  0  0
  140.7943   78.6430  218.8021 H   0  0  0  0  0  0  0  0  0  0  0  0
  142.8983   77.5695  220.8594 H   0  0  0  0  0  0  0  0  0  0  0  0
  141.4403   79.5989  221.2149 H   0  0  0  0  0  0  0  0  0  0  0  0
  140.1167   78.3664  221.4082 H   0  0  0  0  0  0  0  0  0  0  0  0
  141.8930   77.3490  222.8790 H   0  0  0  0  0  0  0  0  0  0  0  0
  139.4376   69.6643  222.5758 H   0  0  0  0  0  0  0  0  0  0  0  0
  139.1070   68.2937  224.6257 H   0  0  0  0  0  0  0  0  0  0  0  0
  139.9741   69.0158  229.1626 H   0  0  0  0  0  0  0  0  0  0  0  0
  140.9561   71.2828  229.2997 H   0  0  0  0  0  0  0  0  0  0  0  0
  141.2571   72.6026  227.2153 H   0  0  0  0  0  0  0  0  0  0  0  0
  1  2  2  0
  2  3  1  0
  3  4  1  0
  4  5  1  0
  5  6  2  0
  5  7  1  0
  7  8  1  0
  8  9  1  0
  9 10  1  0
 10 11  1  0
 11 12  1  0
 12 13  1  0
  2 14  1  0
 14 15  2  0
 15 16  1  0
 16 17  2  0
 17 18  1  0
 18 19  1  0
 18 20  2  0
 20 21  1  0
 21 22  2  0
 22 23  1  0
 23 24  2  0
 11  7  1  0
 24 14  1  0
 23 17  1  0
  3 25  1  0
  4 26  1  0
  4 27  1  0
  8 28  1  0
  8 29  1  0
  9 30  1  0
  9 31  1  0
 10 32  1  0
 10 33  1  0
 11 34  1  1
 12 35  1  0
 12 36  1  0
 13 37  1  0
 15 38  1  0
 16 39  1  0
 20 40  1  0
 21 41  1  0
 22 42  1  0
M  END
>  <smiles>  (6) 
O=C(NCC(=O)N1CCC[C@H]1CO)c1ccc2c(F)cccc2n1

>  <score_type>  (6) 
oracle

>  <origin>  (6) 
autodockgpu

>  <m_score__min__energy>  (6) 
-7.0199999999999996

>  <m_primary>  (6) 
energy

>  <rmsd>  (6) 
1.7306234764431108

>  <m_score__min__rmsd>  (6) 
1.7306234764431108

>  <meeko>  (6) 
{"free_energy": -6.71, "intermolecular_energy": -8.5, "internal_energy": -1.95, "cluster_size": 34, "cluster_id": 1, "rank_in_cluster": 21}

>  <energy>  (6) 
-6.84

>  <cluster_rmsd>  (6) 
1.56

>  <cluster>  (6) 
1

$$$$

     RDKit          3D

 42 44  0  0  0  0  0  0  0  0999 V2000
  140.5310   71.2250  221.3440 O   0  0  0  0  0  0  0  0  0  0  0  0
  140.1890   71.7780  222.4350 C   0  0  0  0  0  0  0  0  0  0  0  0
  139.8620   73.1570  222.4300 N   0  0  0  0  0  0  0  0  0  0  0  0
  139.9580   73.8300  221.1170 C   0  0  0  0  0  0  0  0  0  0  0  0
  141.1380   74.7000  221.0780 C   0  0  0  0  0  0  0  0  0  0  0  0
  140.9810   75.9030  221.4680 O   0  0  0  0  0  0  0  0  0  0  0  0
  142.4400   74.3490  220.6490 N   0  0  0  0  0  0  0  0  0  0  0  0
  142.8810   72.9350  220.7780 C   0  0  0  0  0  0  0  0  0  0  0  0
  144.2880   72.9230  220.2690 C   0  0  0  0  0  0  0  0  0  0  0  0
  144.2810   74.0920  219.2750 C   0  0  0  0  0  0  0  0  0  0  0  0
  143.5090   75.1230  220.0790 C   0  0  1  0  0  0  0  0  0  0  0  0
  143.0650   76.2680  219.2020 C   0  0  0  0  0  0  0  0  0  0  0  0
  142.5740   77.3320  219.9330 O   0  0  0  0  0  0  0  0  0  0  0  0
  140.1220   71.0310  223.6870 C   0  0  0  0  0  0  0  0  0  0  0  0
  139.5530   69.7660  223.6610 C   0  0  0  0  0  0  0  0  0  0  0  0
  139.4560   69.0010  224.8090 C   0  0  0  0  0  0  0  0  0  0  0  0
  139.9380   69.5220  225.9740 C   0  0  0  0  0  0  0  0  0  0  0  0
  139.8510   68.7710  227.1420 C   0  0  0  0  0  0  0  0  0  0  0  0
  139.2910   67.5480  227.0710 F   0  0  0  0  0  0  0  0  0  0  0  0
  140.3330   69.2990  228.2990 C   0  0  0  0  0  0  0  0  0  0  0  0
  140.8990   70.5500  228.3340 C   0  0  0  0  0  0  0  0  0  0  0  0
  140.9710   71.2790  227.1500 C   0  0  0  0  0  0  0  0  0  0  0  0
  140.4960   70.7850  225.9520 C   0  0  0  0  0  0  0  0  0  0  0  0
  140.5860   71.5250  224.8240 N   0  0  0  0  0  0  0  0  0  0  0  0
  139.5710   73.6930  223.2770 H   0  0  0  0  0  0  0  0  0  0  0  0
  140.0400   73.0711  220.3250 H   0  0  0  0  0  0  0  0  0  0  0  0
  139.0567   74.4409  220.9605 H   0  0  0  0  0  0  0  0  0  0  0  0
  142.8469   72.6133  221.8294 H   0  0  0  0  0  0  0  0  0  0  0  0
  142.2319   72.2459  220.2178 H   0  0  0  0  0  0  0  0  0  0  0  0
  145.0082   73.0950  221.0824 H   0  0  0  0  0  0  0  0  0  0  0  0
  144.5884   71.9640  219.8218 H   0  0  0  0  0  0  0  0  0  0  0  0
  145.2998   74.4357  219.0430 H   0  0  0  0  0  0  0  0  0  0  0  0
  143.8506   73.8579  218.2901 H   0  0  0  0  0  0  0  0  0  0  0  0
  144.0911   75.6274  220.8643 H   0  0  0  0  0  0  0  0  0  0  0  0
  143.9252   76.6134  218.6098 H   0  0  0  0  0  0  0  0  0  0  0  0
  142.2528   75.9010  218.5573 H   0  0  0  0  0  0  0  0  0  0  0  0
  142.6190   77.1550  220.9210 H   0  0  0  0  0  0  0  0  0  0  0  0
  139.1722   69.3643  222.7104 H   0  0  0  0  0  0  0  0  0  0  0  0
  139.0023   67.9992  224.7834 H   0  0  0  0  0  0  0  0  0  0  0  0
  140.2681   68.7115  229.2267 H   0  0  0  0  0  0  0  0  0  0  0  0
  141.2864   70.9663  229.2756 H   0  0  0  0  0  0  0  0  0  0  0  0
  141.4215   72.2823  227.1700 H   0  0  0  0  0  0  0  0  0  0  0  0
  1  2  2  0
  2  3  1  0
  3  4  1  0
  4  5  1  0
  5  6  2  0
  5  7  1  0
  7  8  1  0
  8  9  1  0
  9 10  1  0
 10 11  1  0
 11 12  1  0
 12 13  1  0
  2 14  1  0
 14 15  2  0
 15 16  1  0
 16 17  2  0
 17 18  1  0
 18 19  1  0
 18 20  2  0
 20 21  1  0
 21 22  2  0
 22 23  1  0
 23 24  2  0
 11  7  1  0
 24 14  1  0
 23 17  1  0
  3 25  1  0
  4 26  1  0
  4 27  1  0
  8 28  1  0
  8 29  1  0
  9 30  1  0
  9 31  1  0
 10 32  1  0
 10 33  1  0
 11 34  1  1
 12 35  1  0
 12 36  1  0
 13 37  1  0
 15 38  1  0
 16 39  1  0
 20 40  1  0
 21 41  1  0
 22 42  1  0
M  END
>  <smiles>  (7) 
O=C(NCC(=O)N1CCC[C@H]1CO)c1ccc2c(F)cccc2n1

>  <score_type>  (7) 
oracle

>  <origin>  (7) 
autodockgpu

>  <m_score__min__energy>  (7) 
-7.0199999999999996

>  <m_primary>  (7) 
energy

>  <rmsd>  (7) 
2.9345944718161983

>  <m_score__min__rmsd>  (7) 
2.9345944718161983

>  <meeko>  (7) 
{"free_energy": -6.81, "intermolecular_energy": -8.6, "internal_energy": -1.78, "cluster_size": 34, "cluster_id": 1, "rank_in_cluster": 7}

>  <energy>  (7) 
-6.81

>  <cluster_rmsd>  (7) 
1.56

>  <cluster>  (7) 
1

$$$$

     RDKit          3D

 42 44  0  0  0  0  0  0  0  0999 V2000
  140.7150   71.5080  221.3360 O   0  0  0  0  0  0  0  0  0  0  0  0
  140.2980   72.0680  222.3960 C   0  0  0  0  0  0  0  0  0  0  0  0
  139.9020   73.4290  222.3420 N   0  0  0  0  0  0  0  0  0  0  0  0
  140.0210   74.0740  221.0170 C   0  0  0  0  0  0  0  0  0  0  0  0
  140.8410   75.2860  221.1150 C   0  0  0  0  0  0  0  0  0  0  0  0
  141.0750   75.7320  222.2860 O   0  0  0  0  0  0  0  0  0  0  0  0
  141.4020   76.0220  220.0450 N   0  0  0  0  0  0  0  0  0  0  0  0
  140.9880   77.4360  219.8510 C   0  0  0  0  0  0  0  0  0  0  0  0
  141.7360   77.8940  218.6380 C   0  0  0  0  0  0  0  0  0  0  0  0
  142.9850   77.0030  218.6750 C   0  0  0  0  0  0  0  0  0  0  0  0
  142.3520   75.6680  219.0250 C   0  0  1  0  0  0  0  0  0  0  0  0
  143.4000   74.6700  219.4530 C   0  0  0  0  0  0  0  0  0  0  0  0
  143.5640   74.6340  220.8240 O   0  0  0  0  0  0  0  0  0  0  0  0
  140.2140   71.3490  223.6630 C   0  0  0  0  0  0  0  0  0  0  0  0
  139.6260   70.0920  223.6610 C   0  0  0  0  0  0  0  0  0  0  0  0
  139.5130   69.3530  224.8240 C   0  0  0  0  0  0  0  0  0  0  0  0
  139.9970   69.8910  225.9810 C   0  0  0  0  0  0  0  0  0  0  0  0
  139.8940   69.1660  227.1630 C   0  0  0  0  0  0  0  0  0  0  0  0
  139.3150   67.9510  227.1150 F   0  0  0  0  0  0  0  0  0  0  0  0
  140.3790   69.7110  228.3110 C   0  0  0  0  0  0  0  0  0  0  0  0
  140.9630   70.9540  228.3230 C   0  0  0  0  0  0  0  0  0  0  0  0
  141.0510   71.6570  227.1250 C   0  0  0  0  0  0  0  0  0  0  0  0
  140.5740   71.1450  225.9350 C   0  0  0  0  0  0  0  0  0  0  0  0
  140.6800   71.8600  224.7920 N   0  0  0  0  0  0  0  0  0  0  0  0
  139.5470   73.9690  223.1610 H   0  0  0  0  0  0  0  0  0  0  0  0
  140.4921   73.3727  220.3126 H   0  0  0  0  0  0  0  0  0  0  0  0
  139.0173   74.3479  220.6599 H   0  0  0  0  0  0  0  0  0  0  0  0
  139.9027   77.5020  219.6841 H   0  0  0  0  0  0  0  0  0  0  0  0
  141.2088   78.0564  220.7321 H   0  0  0  0  0  0  0  0  0  0  0  0
  141.1520   77.7249  217.7213 H   0  0  0  0  0  0  0  0  0  0  0  0
  141.9604   78.9709  218.6368 H   0  0  0  0  0  0  0  0  0  0  0  0
  143.4914   76.9705  217.6990 H   0  0  0  0  0  0  0  0  0  0  0  0
  143.7702   77.3375  219.3689 H   0  0  0  0  0  0  0  0  0  0  0  0
  141.8561   75.1574  218.1863 H   0  0  0  0  0  0  0  0  0  0  0  0
  143.0981   73.6704  219.1070 H   0  0  0  0  0  0  0  0  0  0  0  0
  144.3579   74.9781  219.0086 H   0  0  0  0  0  0  0  0  0  0  0  0
  142.9760   75.3060  221.2850 H   0  0  0  0  0  0  0  0  0  0  0  0
  139.2430   69.6762  222.7174 H   0  0  0  0  0  0  0  0  0  0  0  0
  139.0452   68.3574  224.8169 H   0  0  0  0  0  0  0  0  0  0  0  0
  140.3018   69.1438  229.2503 H   0  0  0  0  0  0  0  0  0  0  0  0
  141.3522   71.3840  229.2577 H   0  0  0  0  0  0  0  0  0  0  0  0
  141.5161   72.6538  227.1264 H   0  0  0  0  0  0  0  0  0  0  0  0
  1  2  2  0
  2  3  1  0
  3  4  1  0
  4  5  1  0
  5  6  2  0
  5  7  1  0
  7  8  1  0
  8  9  1  0
  9 10  1  0
 10 11  1  0
 11 12  1  0
 12 13  1  0
  2 14  1  0
 14 15  2  0
 15 16  1  0
 16 17  2  0
 17 18  1  0
 18 19  1  0
 18 20  2  0
 20 21  1  0
 21 22  2  0
 22 23  1  0
 23 24  2  0
 11  7  1  0
 24 14  1  0
 23 17  1  0
  3 25  1  0
  4 26  1  0
  4 27  1  0
  8 28  1  0
  8 29  1  0
  9 30  1  0
  9 31  1  0
 10 32  1  0
 10 33  1  0
 11 34  1  6
 12 35  1  0
 12 36  1  0
 13 37  1  0
 15 38  1  0
 16 39  1  0
 20 40  1  0
 21 41  1  0
 22 42  1  0
M  END
>  <smiles>  (8) 
O=C(NCC(=O)N1CCC[C@H]1CO)c1ccc2c(F)cccc2n1

>  <score_type>  (8) 
oracle

>  <origin>  (8) 
autodockgpu

>  <m_score__min__energy>  (8) 
-7.0199999999999996

>  <m_primary>  (8) 
energy

>  <rmsd>  (8) 
2.0751108043717834

>  <m_score__min__rmsd>  (8) 
2.0751108043717834

>  <meeko>  (8) 
{"free_energy": -6.71, "intermolecular_energy": -8.5, "internal_energy": -1.89, "cluster_size": 34, "cluster_id": 1, "rank_in_cluster": 20}

>  <energy>  (8) 
-6.79

>  <cluster_rmsd>  (8) 
1.56

>  <cluster>  (8) 
1

$$$$

     RDKit          3D

 42 44  0  0  0  0  0  0  0  0999 V2000
  141.3820   71.3330  221.3600 O   0  0  0  0  0  0  0  0  0  0  0  0
  140.7410   72.2610  221.9420 C   0  0  0  0  0  0  0  0  0  0  0  0
  139.8000   71.9190  222.9460 N   0  0  0  0  0  0  0  0  0  0  0  0
  139.6570   70.4730  223.2170 C   0  0  0  0  0  0  0  0  0  0  0  0
  139.1450   70.2600  224.5760 C   0  0  0  0  0  0  0  0  0  0  0  0
  137.8860   70.1020  224.7000 O   0  0  0  0  0  0  0  0  0  0  0  0
  139.8990   70.2130  225.7710 N   0  0  0  0  0  0  0  0  0  0  0  0
  140.3170   71.4900  226.4080 C   0  0  0  0  0  0  0  0  0  0  0  0
  141.1060   71.0800  227.6110 C   0  0  0  0  0  0  0  0  0  0  0  0
  140.4940   69.7150  227.9490 C   0  0  0  0  0  0  0  0  0  0  0  0
  140.3910   69.1140  226.5580 C   0  0  1  0  0  0  0  0  0  0  0  0
  139.5070   67.8920  226.5630 C   0  0  0  0  0  0  0  0  0  0  0  0
  139.2150   67.4480  225.2880 O   0  0  0  0  0  0  0  0  0  0  0  0
  140.9500   73.6660  221.6060 C   0  0  0  0  0  0  0  0  0  0  0  0
  141.8850   73.9700  220.6270 C   0  0  0  0  0  0  0  0  0  0  0  0
  142.1350   75.2790  220.2580 C   0  0  0  0  0  0  0  0  0  0  0  0
  141.4350   76.2700  220.8800 C   0  0  0  0  0  0  0  0  0  0  0  0
  141.6690   77.5940  220.5250 C   0  0  0  0  0  0  0  0  0  0  0  0
  142.5860   77.8440  219.5710 F   0  0  0  0  0  0  0  0  0  0  0  0
  140.9660   78.5760  221.1520 C   0  0  0  0  0  0  0  0  0  0  0  0
  140.0380   78.2850  222.1210 C   0  0  0  0  0  0  0  0  0  0  0  0
  139.8260   76.9510  222.4570 C   0  0  0  0  0  0  0  0  0  0  0  0
  140.5140   75.9200  221.8480 C   0  0  0  0  0  0  0  0  0  0  0  0
  140.2770   74.6380  222.2030 N   0  0  0  0  0  0  0  0  0  0  0  0
  139.2300   72.6140  223.4750 H   0  0  0  0  0  0  0  0  0  0  0  0
  138.9555   70.0351  222.4917 H   0  0  0  0  0  0  0  0  0  0  0  0
  140.6417   69.9915  223.1250 H   0  0  0  0  0  0  0  0  0  0  0  0
  140.9396   72.0802  225.7196 H   0  0  0  0  0  0  0  0  0  0  0  0
  139.4563   72.1217  226.6729 H   0  0  0  0  0  0  0  0  0  0  0  0
  142.1764   70.9897  227.3743 H   0  0  0  0  0  0  0  0  0  0  0  0
  141.0577   71.8030  228.4386 H   0  0  0  0  0  0  0  0  0  0  0  0
  141.1535   69.1230  228.6006 H   0  0  0  0  0  0  0  0  0  0  0  0
  139.5450   69.7596  228.5035 H   0  0  0  0  0  0  0  0  0  0  0  0
  141.3370   68.7297  226.1489 H   0  0  0  0  0  0  0  0  0  0  0  0
  140.0207   67.0867  227.1085 H   0  0  0  0  0  0  0  0  0  0  0  0
  138.5586   68.1662  227.0480 H   0  0  0  0  0  0  0  0  0  0  0  0
  138.5660   68.0580  224.8230 H   0  0  0  0  0  0  0  0  0  0  0  0
  142.4372   73.1553  220.1357 H   0  0  0  0  0  0  0  0  0  0  0  0
  142.8791   75.5146  219.4829 H   0  0  0  0  0  0  0  0  0  0  0  0
  141.1451   79.6258  220.8765 H   0  0  0  0  0  0  0  0  0  0  0  0
  139.4751   79.0874  222.6202 H   0  0  0  0  0  0  0  0  0  0  0  0
  139.0855   76.7098  223.2338 H   0  0  0  0  0  0  0  0  0  0  0  0
  1  2  2  0
  2  3  1  0
  3  4  1  0
  4  5  1  0
  5  6  2  0
  5  7  1  0
  7  8  1  0
  8  9  1  0
  9 10  1  0
 10 11  1  0
 11 12  1  0
 12 13  1  0
  2 14  1  0
 14 15  2  0
 15 16  1  0
 16 17  2  0
 17 18  1  0
 18 19  1  0
 18 20  2  0
 20 21  1  0
 21 22  2  0
 22 23  1  0
 23 24  2  0
 11  7  1  0
 24 14  1  0
 23 17  1  0
  3 25  1  0
  4 26  1  0
  4 27  1  0
  8 28  1  0
  8 29  1  0
  9 30  1  0
  9 31  1  0
 10 32  1  0
 10 33  1  0
 11 34  1  6
 12 35  1  0
 12 36  1  0
 13 37  1  0
 15 38  1  0
 16 39  1  0
 20 40  1  0
 21 41  1  0
 22 42  1  0
M  END
>  <smiles>  (9) 
O=C(NCC(=O)N1CCC[C@H]1CO)c1ccc2c(F)cccc2n1

>  <score_type>  (9) 
oracle

>  <origin>  (9) 
autodockgpu

>  <m_score__min__energy>  (9) 
-7.0199999999999996

>  <m_primary>  (9) 
energy

>  <rmsd>  (9) 
8.354266106753045

>  <m_score__min__rmsd>  (9) 
8.354266106753045

>  <meeko>  (9) 
{"free_energy": -6.7, "intermolecular_energy": -8.49, "internal_energy": -1.8, "cluster_size": 3, "cluster_id": 4, "rank_in_cluster": 1}

>  <energy>  (9) 
-6.79

>  <cluster_rmsd>  (9) 
0.95

>  <cluster>  (9) 
1

$$$$

     RDKit          3D

 42 44  0  0  0  0  0  0  0  0999 V2000
  139.7940   73.6980  222.4250 O   0  0  0  0  0  0  0  0  0  0  0  0
  140.4870   72.6380  222.5090 C   0  0  0  0  0  0  0  0  0  0  0  0
  141.4860   72.3940  221.5320 N   0  0  0  0  0  0  0  0  0  0  0  0
  141.6200   73.4290  220.4870 C   0  0  0  0  0  0  0  0  0  0  0  0
  142.8780   73.2500  219.7540 C   0  0  0  0  0  0  0  0  0  0  0  0
  143.3310   74.2640  219.1280 O   0  0  0  0  0  0  0  0  0  0  0  0
  143.6480   72.0670  219.6620 N   0  0  0  0  0  0  0  0  0  0  0  0
  143.0440   70.8640  219.0310 C   0  0  0  0  0  0  0  0  0  0  0  0
  144.1000   69.8080  219.1260 C   0  0  0  0  0  0  0  0  0  0  0  0
  145.3880   70.6410  219.1320 C   0  0  0  0  0  0  0  0  0  0  0  0
  144.9860   71.7520  220.0850 C   0  0  1  0  0  0  0  0  0  0  0  0
  145.9600   72.9020  220.0150 C   0  0  0  0  0  0  0  0  0  0  0  0
  146.0800   73.4140  218.7380 O   0  0  0  0  0  0  0  0  0  0  0  0
  140.2820   71.6680  223.5810 C   0  0  0  0  0  0  0  0  0  0  0  0
  139.6390   70.4790  223.2700 C   0  0  0  0  0  0  0  0  0  0  0  0
  139.4110   69.5150  224.2340 C   0  0  0  0  0  0  0  0  0  0  0  0
  139.8380   69.7610  225.5060 C   0  0  0  0  0  0  0  0  0  0  0  0
  139.6200   68.8060  226.4940 C   0  0  0  0  0  0  0  0  0  0  0  0
  138.9920   67.6660  226.1480 F   0  0  0  0  0  0  0  0  0  0  0  0
  140.0500   69.0610  227.7590 C   0  0  0  0  0  0  0  0  0  0  0  0
  140.6880   70.2350  228.0760 C   0  0  0  0  0  0  0  0  0  0  0  0
  140.8910   71.1730  227.0680 C   0  0  0  0  0  0  0  0  0  0  0  0
  140.4740   70.9590  225.7690 C   0  0  0  0  0  0  0  0  0  0  0  0
  140.6920   71.8950  224.8190 N   0  0  0  0  0  0  0  0  0  0  0  0
  142.1010   71.5510  221.5220 H   0  0  0  0  0  0  0  0  0  0  0  0
  140.7764   73.3484  219.7857 H   0  0  0  0  0  0  0  0  0  0  0  0
  141.6201   74.4209  220.9626 H   0  0  0  0  0  0  0  0  0  0  0  0
  142.1384   70.5556  219.5740 H   0  0  0  0  0  0  0  0  0  0  0  0
  142.7382   71.0513  217.9911 H   0  0  0  0  0  0  0  0  0  0  0  0
  143.9981   69.2237  220.0524 H   0  0  0  0  0  0  0  0  0  0  0  0
  144.0572   69.0652  218.3158 H   0  0  0  0  0  0  0  0  0  0  0  0
  146.2435   70.0654  219.5152 H   0  0  0  0  0  0  0  0  0  0  0  0
  145.7212   70.9820  218.1407 H   0  0  0  0  0  0  0  0  0  0  0  0
  145.0079   71.4777  221.1500 H   0  0  0  0  0  0  0  0  0  0  0  0
  145.6109   73.7017  220.6848 H   0  0  0  0  0  0  0  0  0  0  0  0
  146.9474   72.5239  220.3186 H   0  0  0  0  0  0  0  0  0  0  0  0
  145.4410   74.1740  218.5830 H   0  0  0  0  0  0  0  0  0  0  0  0
  139.3045   70.3000  222.2375 H   0  0  0  0  0  0  0  0  0  0  0  0
  138.8989   68.5746  223.9822 H   0  0  0  0  0  0  0  0  0  0  0  0
  139.8830   68.3102  228.5454 H   0  0  0  0  0  0  0  0  0  0  0  0
  141.0307   70.4296  229.1030 H   0  0  0  0  0  0  0  0  0  0  0  0
  141.4006   72.1162  227.3142 H   0  0  0  0  0  0  0  0  0  0  0  0
  1  2  2  0
  2  3  1  0
  3  4  1  0
  4  5  1  0
  5  6  2  0
  5  7  1  0
  7  8  1  0
  8  9  1  0
  9 10  1  0
 10 11  1  0
 11 12  1  0
 12 13  1  0
  2 14  1  0
 14 15  2  0
 15 16  1  0
 16 17  2  0
 17 18  1  0
 18 19  1  0
 18 20  2  0
 20 21  1  0
 21 22  2  0
 22 23  1  0
 23 24  2  0
 11  7  1  0
 24 14  1  0
 23 17  1  0
  3 25  1  0
  4 26  1  0
  4 27  1  0
  8 28  1  0
  8 29  1  0
  9 30  1  0
  9 31  1  0
 10 32  1  0
 10 33  1  0
 11 34  1  1
 12 35  1  0
 12 36  1  0
 13 37  1  0
 15 38  1  0
 16 39  1  0
 20 40  1  0
 21 41  1  0
 22 42  1  0
M  END
>  <smiles>  (10) 
O=C(NCC(=O)N1CCC[C@H]1CO)c1ccc2c(F)cccc2n1

>  <score_type>  (10) 
oracle

>  <origin>  (10) 
autodockgpu

>  <m_score__min__energy>  (10) 
-7.0199999999999996

>  <m_primary>  (10) 
energy

>  <rmsd>  (10) 
4.5071430924942595

>  <m_score__min__rmsd>  (10) 
4.5071430924942595

>  <meeko>  (10) 
{"free_energy": -6.77, "intermolecular_energy": -8.56, "internal_energy": -1.67, "cluster_size": 4, "cluster_id": 2, "rank_in_cluster": 2}

>  <energy>  (10) 
-6.77

>  <cluster_rmsd>  (10) 
0.37

>  <cluster>  (10) 
1

$$$$

     RDKit          3D

 42 44  0  0  0  0  0  0  0  0999 V2000
  140.6270   71.2410  221.3490 O   0  0  0  0  0  0  0  0  0  0  0  0
  140.2460   71.8060  222.4200 C   0  0  0  0  0  0  0  0  0  0  0  0
  139.8800   73.1750  222.3790 N   0  0  0  0  0  0  0  0  0  0  0  0
  139.9850   73.8230  221.0550 C   0  0  0  0  0  0  0  0  0  0  0  0
  141.1540   74.7080  221.0140 C   0  0  0  0  0  0  0  0  0  0  0  0
  140.9700   75.9240  221.3500 O   0  0  0  0  0  0  0  0  0  0  0  0
  142.4730   74.3580  220.6370 N   0  0  0  0  0  0  0  0  0  0  0  0
  142.9160   72.9490  220.8010 C   0  0  0  0  0  0  0  0  0  0  0  0
  144.3400   72.9370  220.3440 C   0  0  0  0  0  0  0  0  0  0  0  0
  144.3640   74.0930  219.3360 C   0  0  0  0  0  0  0  0  0  0  0  0
  143.5580   75.1310  220.0970 C   0  0  1  0  0  0  0  0  0  0  0  0
  143.1410   76.2620  219.1890 C   0  0  0  0  0  0  0  0  0  0  0  0
  142.6110   77.3290  219.8870 O   0  0  0  0  0  0  0  0  0  0  0  0
  140.1730   71.0830  223.6860 C   0  0  0  0  0  0  0  0  0  0  0  0
  139.5790   69.8300  223.6870 C   0  0  0  0  0  0  0  0  0  0  0  0
  139.4750   69.0880  224.8490 C   0  0  0  0  0  0  0  0  0  0  0  0
  139.9760   69.6200  226.0010 C   0  0  0  0  0  0  0  0  0  0  0  0
  139.8830   68.8920  227.1830 C   0  0  0  0  0  0  0  0  0  0  0  0
  139.2980   67.6800  227.1390 F   0  0  0  0  0  0  0  0  0  0  0  0
  140.3850   69.4310  228.3270 C   0  0  0  0  0  0  0  0  0  0  0  0
  140.9760   70.6710  228.3350 C   0  0  0  0  0  0  0  0  0  0  0  0
  141.0540   71.3760  227.1380 C   0  0  0  0  0  0  0  0  0  0  0  0
  140.5590   70.8710  225.9520 C   0  0  0  0  0  0  0  0  0  0  0  0
  140.6560   71.5880  224.8110 N   0  0  0  0  0  0  0  0  0  0  0  0
  139.5560   73.7200  223.2080 H   0  0  0  0  0  0  0  0  0  0  0  0
  140.0876   73.0497  220.2794 H   0  0  0  0  0  0  0  0  0  0  0  0
  139.0780   74.4187  220.8746 H   0  0  0  0  0  0  0  0  0  0  0  0
  142.8452   72.6413  221.8547 H   0  0  0  0  0  0  0  0  0  0  0  0
  142.2911   72.2492  220.2267 H   0  0  0  0  0  0  0  0  0  0  0  0
  145.0294   73.1226  221.1808 H   0  0  0  0  0  0  0  0  0  0  0  0
  144.6607   71.9738  219.9204 H   0  0  0  0  0  0  0  0  0  0  0  0
  145.3891   74.4389  219.1373 H   0  0  0  0  0  0  0  0  0  0  0  0
  143.9709   73.8439  218.3393 H   0  0  0  0  0  0  0  0  0  0  0  0
  144.1079   75.6496  220.8962 H   0  0  0  0  0  0  0  0  0  0  0  0
  144.0221   76.6087  218.6291 H   0  0  0  0  0  0  0  0  0  0  0  0
  142.3597   75.8806  218.5151 H   0  0  0  0  0  0  0  0  0  0  0  0
  142.5850   77.1490  220.8750 H   0  0  0  0  0  0  0  0  0  0  0  0
  139.1834   69.4190  222.7465 H   0  0  0  0  0  0  0  0  0  0  0  0
  139.0010   68.0954  224.8447 H   0  0  0  0  0  0  0  0  0  0  0  0
  140.3161   68.8616  229.2656 H   0  0  0  0  0  0  0  0  0  0  0  0
  141.3782   71.0967  229.2661 H   0  0  0  0  0  0  0  0  0  0  0  0
  141.5261   72.3695  227.1364 H   0  0  0  0  0  0  0  0  0  0  0  0
  1  2  2  0
  2  3  1  0
  3  4  1  0
  4  5  1  0
  5  6  2  0
  5  7  1  0
  7  8  1  0
  8  9  1  0
  9 10  1  0
 10 11  1  0
 11 12  1  0
 12 13  1  0
  2 14  1  0
 14 15  2  0
 15 16  1  0
 16 17  2  0
 17 18  1  0
 18 19  1  0
 18 20  2  0
 20 21  1  0
 21 22  2  0
 22 23  1  0
 23 24  2  0
 11  7  1  0
 24 14  1  0
 23 17  1  0
  3 25  1  0
  4 26  1  0
  4 27  1  0
  8 28  1  0
  8 29  1  0
  9 30  1  0
  9 31  1  0
 10 32  1  0
 10 33  1  0
 11 34  1  1
 12 35  1  0
 12 36  1  0
 13 37  1  0
 15 38  1  0
 16 39  1  0
 20 40  1  0
 21 41  1  0
 22 42  1  0
M  END
>  <smiles>  (11) 
O=C(NCC(=O)N1CCC[C@H]1CO)c1ccc2c(F)cccc2n1

>  <score_type>  (11) 
oracle

>  <origin>  (11) 
autodockgpu

>  <m_score__min__energy>  (11) 
-7.0199999999999996

>  <m_primary>  (11) 
energy

>  <rmsd>  (11) 
2.9749400480374213

>  <m_score__min__rmsd>  (11) 
2.9749400480374213

>  <meeko>  (11) 
{"free_energy": -6.84, "intermolecular_energy": -8.63, "internal_energy": -1.76, "cluster_size": 34, "cluster_id": 1, "rank_in_cluster": 6}

>  <energy>  (11) 
-6.76

>  <cluster_rmsd>  (11) 
1.18

>  <cluster>  (11) 
1

$$$$

     RDKit          3D

 42 44  0  0  0  0  0  0  0  0999 V2000
  140.4890   71.2120  221.3780 O   0  0  0  0  0  0  0  0  0  0  0  0
  140.1630   71.7410  222.4850 C   0  0  0  0  0  0  0  0  0  0  0  0
  139.8490   73.1240  222.5170 N   0  0  0  0  0  0  0  0  0  0  0  0
  139.9400   73.8280  221.2210 C   0  0  0  0  0  0  0  0  0  0  0  0
  141.1260   74.6900  221.1930 C   0  0  0  0  0  0  0  0  0  0  0  0
  140.9930   75.8700  221.6560 O   0  0  0  0  0  0  0  0  0  0  0  0
  142.4110   74.3540  220.7040 N   0  0  0  0  0  0  0  0  0  0  0  0
  142.8630   72.9400  220.7860 C   0  0  0  0  0  0  0  0  0  0  0  0
  144.2470   72.9450  220.2200 C   0  0  0  0  0  0  0  0  0  0  0  0
  144.1950   74.1340  219.2520 C   0  0  0  0  0  0  0  0  0  0  0  0
  143.4520   75.1450  220.1070 C   0  0  1  0  0  0  0  0  0  0  0  0
  142.9690   76.3050  219.2730 C   0  0  0  0  0  0  0  0  0  0  0  0
  142.5640   77.3770  220.0450 O   0  0  0  0  0  0  0  0  0  0  0  0
  140.1000   70.9640  223.7190 C   0  0  0  0  0  0  0  0  0  0  0  0
  139.5110   69.7090  223.6690 C   0  0  0  0  0  0  0  0  0  0  0  0
  139.4160   68.9170  224.7980 C   0  0  0  0  0  0  0  0  0  0  0  0
  139.9200   69.4010  225.9700 C   0  0  0  0  0  0  0  0  0  0  0  0
  139.8370   68.6220  227.1190 C   0  0  0  0  0  0  0  0  0  0  0  0
  139.2570   67.4110  227.0250 F   0  0  0  0  0  0  0  0  0  0  0  0
  140.3420   69.1140  228.2830 C   0  0  0  0  0  0  0  0  0  0  0  0
  140.9270   70.3550  228.3420 C   0  0  0  0  0  0  0  0  0  0  0  0
  140.9960   71.1120  227.1760 C   0  0  0  0  0  0  0  0  0  0  0  0
  140.4980   70.6560  225.9720 C   0  0  0  0  0  0  0  0  0  0  0  0
  140.5850   71.4220  224.8620 N   0  0  0  0  0  0  0  0  0  0  0  0
  139.5710   73.6410  223.3800 H   0  0  0  0  0  0  0  0  0  0  0  0
  140.0098   73.0881  220.4101 H   0  0  0  0  0  0  0  0  0  0  0  0
  139.0423   74.4495  221.0873 H   0  0  0  0  0  0  0  0  0  0  0  0
  142.8735   72.5971  221.8311 H   0  0  0  0  0  0  0  0  0  0  0  0
  142.1944   72.2592  220.2389 H   0  0  0  0  0  0  0  0  0  0  0  0
  144.9994   73.1034  221.0067 H   0  0  0  0  0  0  0  0  0  0  0  0
  144.5323   71.9968  219.7409 H   0  0  0  0  0  0  0  0  0  0  0  0
  145.2023   74.4873  218.9863 H   0  0  0  0  0  0  0  0  0  0  0  0
  143.7258   73.9179  218.2808 H   0  0  0  0  0  0  0  0  0  0  0  0
  144.0629   75.6370  220.8782 H   0  0  0  0  0  0  0  0  0  0  0  0
  143.7880   76.6326  218.6157 H   0  0  0  0  0  0  0  0  0  0  0  0
  142.0993   75.9619  218.6935 H   0  0  0  0  0  0  0  0  0  0  0  0
  142.5910   77.1580  221.0250 H   0  0  0  0  0  0  0  0  0  0  0  0
  139.1123   69.3373  222.7136 H   0  0  0  0  0  0  0  0  0  0  0  0
  138.9467   67.9232  224.7528 H   0  0  0  0  0  0  0  0  0  0  0  0
  140.2802   68.5043  229.1965 H   0  0  0  0  0  0  0  0  0  0  0  0
  141.3317   70.7419  229.2888 H   0  0  0  0  0  0  0  0  0  0  0  0
  141.4631   72.1071  227.2153 H   0  0  0  0  0  0  0  0  0  0  0  0
  1  2  2  0
  2  3  1  0
  3  4  1  0
  4  5  1  0
  5  6  2  0
  5  7  1  0
  7  8  1  0
  8  9  1  0
  9 10  1  0
 10 11  1  0
 11 12  1  0
 12 13  1  0
  2 14  1  0
 14 15  2  0
 15 16  1  0
 16 17  2  0
 17 18  1  0
 18 19  1  0
 18 20  2  0
 20 21  1  0
 21 22  2  0
 22 23  1  0
 23 24  2  0
 11  7  1  0
 24 14  1  0
 23 17  1  0
  3 25  1  0
  4 26  1  0
  4 27  1  0
  8 28  1  0
  8 29  1  0
  9 30  1  0
  9 31  1  0
 10 32  1  0
 10 33  1  0
 11 34  1  1
 12 35  1  0
 12 36  1  0
 13 37  1  0
 15 38  1  0
 16 39  1  0
 20 40  1  0
 21 41  1  0
 22 42  1  0
M  END
>  <smiles>  (12) 
O=C(NCC(=O)N1CCC[C@H]1CO)c1ccc2c(F)cccc2n1

>  <score_type>  (12) 
oracle

>  <origin>  (12) 
autodockgpu

>  <m_score__min__energy>  (12) 
-7.0199999999999996

>  <m_primary>  (12) 
energy

>  <rmsd>  (12) 
2.898841266743813

>  <m_score__min__rmsd>  (12) 
2.898841266743813

>  <meeko>  (12) 
{"free_energy": -6.79, "intermolecular_energy": -8.58, "internal_energy": -1.81, "cluster_size": 34, "cluster_id": 1, "rank_in_cluster": 8}

>  <energy>  (12) 
-6.76

>  <cluster_rmsd>  (12) 
1.28

>  <cluster>  (12) 
1

$$$$

     RDKit          3D

 42 44  0  0  0  0  0  0  0  0999 V2000
  140.6470   71.4990  221.3320 O   0  0  0  0  0  0  0  0  0  0  0  0
  140.2370   72.0600  222.3950 C   0  0  0  0  0  0  0  0  0  0  0  0
  139.8450   73.4210  222.3440 N   0  0  0  0  0  0  0  0  0  0  0  0
  139.9590   74.0670  221.0200 C   0  0  0  0  0  0  0  0  0  0  0  0
  140.8120   75.2570  221.1070 C   0  0  0  0  0  0  0  0  0  0  0  0
  141.0780   75.6930  222.2750 O   0  0  0  0  0  0  0  0  0  0  0  0
  141.3750   75.9810  220.0290 N   0  0  0  0  0  0  0  0  0  0  0  0
  140.9520   77.3890  219.8120 C   0  0  0  0  0  0  0  0  0  0  0  0
  141.7040   77.8350  218.5980 C   0  0  0  0  0  0  0  0  0  0  0  0
  142.9590   76.9540  218.6550 C   0  0  0  0  0  0  0  0  0  0  0  0
  142.3340   75.6190  219.0210 C   0  0  1  0  0  0  0  0  0  0  0  0
  143.3870   74.6360  219.4710 C   0  0  0  0  0  0  0  0  0  0  0  0
  143.4930   74.5710  220.8460 O   0  0  0  0  0  0  0  0  0  0  0  0
  140.1580   71.3390  223.6620 C   0  0  0  0  0  0  0  0  0  0  0  0
  139.5780   70.0790  223.6590 C   0  0  0  0  0  0  0  0  0  0  0  0
  139.4690   69.3390  224.8220 C   0  0  0  0  0  0  0  0  0  0  0  0
  139.9510   69.8790  225.9790 C   0  0  0  0  0  0  0  0  0  0  0  0
  139.8520   69.1530  227.1610 C   0  0  0  0  0  0  0  0  0  0  0  0
  139.2810   67.9340  227.1130 F   0  0  0  0  0  0  0  0  0  0  0  0
  140.3350   69.7000  228.3090 C   0  0  0  0  0  0  0  0  0  0  0  0
  140.9120   70.9470  228.3210 C   0  0  0  0  0  0  0  0  0  0  0  0
  140.9950   71.6510  227.1230 C   0  0  0  0  0  0  0  0  0  0  0  0
  140.5200   71.1370  225.9330 C   0  0  0  0  0  0  0  0  0  0  0  0
  140.6220   71.8530  224.7910 N   0  0  0  0  0  0  0  0  0  0  0  0
  139.4960   73.9620  223.1660 H   0  0  0  0  0  0  0  0  0  0  0  0
  140.3997   73.3559  220.3058 H   0  0  0  0  0  0  0  0  0  0  0  0
  138.9569   74.3686  220.6811 H   0  0  0  0  0  0  0  0  0  0  0  0
  139.8674   77.4445  219.6373 H   0  0  0  0  0  0  0  0  0  0  0  0
  141.1626   78.0236  220.6855 H   0  0  0  0  0  0  0  0  0  0  0  0
  141.1269   77.6488  217.6802 H   0  0  0  0  0  0  0  0  0  0  0  0
  141.9208   78.9133  218.5833 H   0  0  0  0  0  0  0  0  0  0  0  0
  143.4711   76.9111  217.6824 H   0  0  0  0  0  0  0  0  0  0  0  0
  143.7376   77.3045  219.3485 H   0  0  0  0  0  0  0  0  0  0  0  0
  141.8477   75.0918  218.1870 H   0  0  0  0  0  0  0  0  0  0  0  0
  143.1249   73.6382  219.0893 H   0  0  0  0  0  0  0  0  0  0  0  0
  144.3551   74.9772  219.0757 H   0  0  0  0  0  0  0  0  0  0  0  0
  142.9810   75.3110  221.2930 H   0  0  0  0  0  0  0  0  0  0  0  0
  139.1981   69.6612  222.7150 H   0  0  0  0  0  0  0  0  0  0  0  0
  139.0059   68.3412  224.8148 H   0  0  0  0  0  0  0  0  0  0  0  0
  140.2621   69.1318  229.2480 H   0  0  0  0  0  0  0  0  0  0  0  0
  141.2993   71.3789  229.2556 H   0  0  0  0  0  0  0  0  0  0  0  0
  141.4545   72.6504  227.1245 H   0  0  0  0  0  0  0  0  0  0  0  0
  1  2  2  0
  2  3  1  0
  3  4  1  0
  4  5  1  0
  5  6  2  0
  5  7  1  0
  7  8  1  0
  8  9  1  0
  9 10  1  0
 10 11  1  0
 11 12  1  0
 12 13  1  0
  2 14  1  0
 14 15  2  0
 15 16  1  0
 16 17  2  0
 17 18  1  0
 18 19  1  0
 18 20  2  0
 20 21  1  0
 21 22  2  0
 22 23  1  0
 23 24  2  0
 11  7  1  0
 24 14  1  0
 23 17  1  0
  3 25  1  0
  4 26  1  0
  4 27  1  0
  8 28  1  0
  8 29  1  0
  9 30  1  0
  9 31  1  0
 10 32  1  0
 10 33  1  0
 11 34  1  6
 12 35  1  0
 12 36  1  0
 13 37  1  0
 15 38  1  0
 16 39  1  0
 20 40  1  0
 21 41  1  0
 22 42  1  0
M  END
>  <smiles>  (13) 
O=C(NCC(=O)N1CCC[C@H]1CO)c1ccc2c(F)cccc2n1

>  <score_type>  (13) 
oracle

>  <origin>  (13) 
autodockgpu

>  <m_score__min__energy>  (13) 
-7.0199999999999996

>  <m_primary>  (13) 
energy

>  <rmsd>  (13) 
2.0400059777269663

>  <m_score__min__rmsd>  (13) 
2.0400059777269663

>  <meeko>  (13) 
{"free_energy": -6.7, "intermolecular_energy": -8.49, "internal_energy": -1.89, "cluster_size": 34, "cluster_id": 1, "rank_in_cluster": 22}

>  <energy>  (13) 
-6.76

>  <cluster_rmsd>  (13) 
1.18

>  <cluster>  (13) 
1

$$$$

     RDKit          3D

 42 44  0  0  0  0  0  0  0  0999 V2000
  140.9310   71.4940  221.3730 O   0  0  0  0  0  0  0  0  0  0  0  0
  140.4230   72.0260  222.4070 C   0  0  0  0  0  0  0  0  0  0  0  0
  139.9910   73.3750  222.3420 N   0  0  0  0  0  0  0  0  0  0  0  0
  140.1840   74.0430  221.0380 C   0  0  0  0  0  0  0  0  0  0  0  0
  140.6560   75.4170  221.2370 C   0  0  0  0  0  0  0  0  0  0  0  0
  140.3840   75.9660  222.3550 O   0  0  0  0  0  0  0  0  0  0  0  0
  141.3840   76.2080  220.3170 N   0  0  0  0  0  0  0  0  0  0  0  0
  141.6320   75.6740  218.9510 C   0  0  0  0  0  0  0  0  0  0  0  0
  142.4380   76.7320  218.2650 C   0  0  0  0  0  0  0  0  0  0  0  0
  141.9860   78.0050  218.9930 C   0  0  0  0  0  0  0  0  0  0  0  0
  141.9860   77.5090  220.4280 C   0  0  1  0  0  0  0  0  0  0  0  0
  141.2550   78.4710  221.3310 C   0  0  0  0  0  0  0  0  0  0  0  0
  141.5840   78.2990  222.6610 O   0  0  0  0  0  0  0  0  0  0  0  0
  140.2710   71.2850  223.6560 C   0  0  0  0  0  0  0  0  0  0  0  0
  139.6990   70.0230  223.5990 C   0  0  0  0  0  0  0  0  0  0  0  0
  139.5240   69.2640  224.7420 C   0  0  0  0  0  0  0  0  0  0  0  0
  139.9310   69.7890  225.9340 C   0  0  0  0  0  0  0  0  0  0  0  0
  139.7650   69.0430  227.0960 C   0  0  0  0  0  0  0  0  0  0  0  0
  139.2050   67.8230  226.9950 F   0  0  0  0  0  0  0  0  0  0  0  0
  140.1730   69.5760  228.2800 C   0  0  0  0  0  0  0  0  0  0  0  0
  140.7400   70.8250  228.3460 C   0  0  0  0  0  0  0  0  0  0  0  0
  140.8930   71.5470  227.1660 C   0  0  0  0  0  0  0  0  0  0  0  0
  140.4950   71.0490  225.9420 C   0  0  0  0  0  0  0  0  0  0  0  0
  140.6610   71.7830  224.8190 N   0  0  0  0  0  0  0  0  0  0  0  0
  139.5630   73.8920  223.1410 H   0  0  0  0  0  0  0  0  0  0  0  0
  140.9279   73.4849  220.4506 H   0  0  0  0  0  0  0  0  0  0  0  0
  139.2237   74.0678  220.5021 H   0  0  0  0  0  0  0  0  0  0  0  0
  142.1946   74.7300  219.0006 H   0  0  0  0  0  0  0  0  0  0  0  0
  140.6964   75.4539  218.4160 H   0  0  0  0  0  0  0  0  0  0  0  0
  143.5165   76.5594  218.3954 H   0  0  0  0  0  0  0  0  0  0  0  0
  142.2854   76.7676  217.1762 H   0  0  0  0  0  0  0  0  0  0  0  0
  142.6971   78.8316  218.8477 H   0  0  0  0  0  0  0  0  0  0  0  0
  141.0266   78.4177  218.6477 H   0  0  0  0  0  0  0  0  0  0  0  0
  142.9801   77.4434  220.8943 H   0  0  0  0  0  0  0  0  0  0  0  0
  141.5115   79.4986  221.0338 H   0  0  0  0  0  0  0  0  0  0  0  0
  140.1774   78.2774  221.2246 H   0  0  0  0  0  0  0  0  0  0  0  0
  141.9010   77.3630  222.8470 H   0  0  0  0  0  0  0  0  0  0  0  0
  139.3788   69.6184  222.6275 H   0  0  0  0  0  0  0  0  0  0  0  0
  139.0689   68.2638  224.6915 H   0  0  0  0  0  0  0  0  0  0  0  0
  140.0458   68.9935  229.2044 H   0  0  0  0  0  0  0  0  0  0  0  0
  141.0657   71.2451  229.3091 H   0  0  0  0  0  0  0  0  0  0  0  0
  141.3464   72.5482  227.2105 H   0  0  0  0  0  0  0  0  0  0  0  0
  1  2  2  0
  2  3  1  0
  3  4  1  0
  4  5  1  0
  5  6  2  0
  5  7  1  0
  7  8  1  0
  8  9  1  0
  9 10  1  0
 10 11  1  0
 11 12  1  0
 12 13  1  0
  2 14  1  0
 14 15  2  0
 15 16  1  0
 16 17  2  0
 17 18  1  0
 18 19  1  0
 18 20  2  0
 20 21  1  0
 21 22  2  0
 22 23  1  0
 23 24  2  0
 11  7  1  0
 24 14  1  0
 23 17  1  0
  3 25  1  0
  4 26  1  0
  4 27  1  0
  8 28  1  0
  8 29  1  0
  9 30  1  0
  9 31  1  0
 10 32  1  0
 10 33  1  0
 11 34  1  1
 12 35  1  0
 12 36  1  0
 13 37  1  0
 15 38  1  0
 16 39  1  0
 20 40  1  0
 21 41  1  0
 22 42  1  0
M  END
>  <smiles>  (14) 
O=C(NCC(=O)N1CCC[C@H]1CO)c1ccc2c(F)cccc2n1

>  <score_type>  (14) 
oracle

>  <origin>  (14) 
autodockgpu

>  <m_score__min__energy>  (14) 
-7.0199999999999996

>  <m_primary>  (14) 
energy

>  <rmsd>  (14) 
1.7416827247248763

>  <m_score__min__rmsd>  (14) 
1.7416827247248763

>  <meeko>  (14) 
{"free_energy": -6.75, "intermolecular_energy": -8.54, "internal_energy": -1.93, "cluster_size": 34, "cluster_id": 1, "rank_in_cluster": 15}

>  <energy>  (14) 
-6.76

>  <cluster_rmsd>  (14) 
1.59

>  <cluster>  (14) 
1

$$$$

     RDKit          3D

 42 44  0  0  0  0  0  0  0  0999 V2000
  135.1520   68.5140  224.8530 O   0  0  0  0  0  0  0  0  0  0  0  0
  135.5680   69.7050  224.9960 C   0  0  0  0  0  0  0  0  0  0  0  0
  136.8900   70.0210  224.5920 N   0  0  0  0  0  0  0  0  0  0  0  0
  137.6700   68.8990  224.0310 C   0  0  0  0  0  0  0  0  0  0  0  0
  138.8100   68.5880  224.9010 C   0  0  0  0  0  0  0  0  0  0  0  0
  139.2340   67.3860  224.8910 O   0  0  0  0  0  0  0  0  0  0  0  0
  139.4940   69.4820  225.7590 N   0  0  0  0  0  0  0  0  0  0  0  0
  139.9790   68.9850  227.0730 C   0  0  0  0  0  0  0  0  0  0  0  0
  140.6180   70.1730  227.7220 C   0  0  0  0  0  0  0  0  0  0  0  0
  141.0680   70.9990  226.5100 C   0  0  0  0  0  0  0  0  0  0  0  0
  139.8400   70.8710  225.6250 C   0  0  1  0  0  0  0  0  0  0  0  0
  140.1420   71.3170  224.2160 C   0  0  0  0  0  0  0  0  0  0  0  0
  139.0020   71.6520  223.5140 O   0  0  0  0  0  0  0  0  0  0  0  0
  134.7230   70.7520  225.5610 C   0  0  0  0  0  0  0  0  0  0  0  0
  133.6690   70.3680  226.3780 C   0  0  0  0  0  0  0  0  0  0  0  0
  132.8270   71.3040  226.9480 C   0  0  0  0  0  0  0  0  0  0  0  0
  133.0590   72.6240  226.6880 C   0  0  0  0  0  0  0  0  0  0  0  0
  132.2250   73.5840  227.2510 C   0  0  0  0  0  0  0  0  0  0  0  0
  131.2150   73.1670  228.0370 F   0  0  0  0  0  0  0  0  0  0  0  0
  132.4640   74.8970  226.9850 C   0  0  0  0  0  0  0  0  0  0  0  0
  133.5040   75.2860  226.1780 C   0  0  0  0  0  0  0  0  0  0  0  0
  134.3220   74.3030  225.6280 C   0  0  0  0  0  0  0  0  0  0  0  0
  134.1190   72.9590  225.8690 C   0  0  0  0  0  0  0  0  0  0  0  0
  134.9370   72.0350  225.3160 N   0  0  0  0  0  0  0  0  0  0  0  0
  137.3150   70.9710  224.6710 H   0  0  0  0  0  0  0  0  0  0  0  0
  137.0236   68.0128  223.9486 H   0  0  0  0  0  0  0  0  0  0  0  0
  138.0450   69.1847  223.0371 H   0  0  0  0  0  0  0  0  0  0  0  0
  139.1397   68.6165  227.6811 H   0  0  0  0  0  0  0  0  0  0  0  0
  140.6808   68.1449  226.9646 H   0  0  0  0  0  0  0  0  0  0  0  0
  139.8951   70.7285  228.3375 H   0  0  0  0  0  0  0  0  0  0  0  0
  141.4367   69.9143  228.4096 H   0  0  0  0  0  0  0  0  0  0  0  0
  141.2666   72.0462  226.7819 H   0  0  0  0  0  0  0  0  0  0  0  0
  142.0073   70.6632  226.0464 H   0  0  0  0  0  0  0  0  0  0  0  0
  138.9953   71.5158  225.9091 H   0  0  0  0  0  0  0  0  0  0  0  0
  140.8022   72.1959  224.2576 H   0  0  0  0  0  0  0  0  0  0  0  0
  140.6222   70.4762  223.6940 H   0  0  0  0  0  0  0  0  0  0  0  0
  138.8740   72.6470  223.4680 H   0  0  0  0  0  0  0  0  0  0  0  0
  133.5007   69.2991  226.5755 H   0  0  0  0  0  0  0  0  0  0  0  0
  131.9923   70.9938  227.5938 H   0  0  0  0  0  0  0  0  0  0  0  0
  131.8096   75.6632  227.4262 H   0  0  0  0  0  0  0  0  0  0  0  0
  133.6869   76.3507  225.9705 H   0  0  0  0  0  0  0  0  0  0  0  0
  135.1574   74.6071  224.9802 H   0  0  0  0  0  0  0  0  0  0  0  0
  1  2  2  0
  2  3  1  0
  3  4  1  0
  4  5  1  0
  5  6  2  0
  5  7  1  0
  7  8  1  0
  8  9  1  0
  9 10  1  0
 10 11  1  0
 11 12  1  0
 12 13  1  0
  2 14  1  0
 14 15  2  0
 15 16  1  0
 16 17  2  0
 17 18  1  0
 18 19  1  0
 18 20  2  0
 20 21  1  0
 21 22  2  0
 22 23  1  0
 23 24  2  0
 11  7  1  0
 24 14  1  0
 23 17  1  0
  3 25  1  0
  4 26  1  0
  4 27  1  0
  8 28  1  0
  8 29  1  0
  9 30  1  0
  9 31  1  0
 10 32  1  0
 10 33  1  0
 11 34  1  1
 12 35  1  0
 12 36  1  0
 13 37  1  0
 15 38  1  0
 16 39  1  0
 20 40  1  0
 21 41  1  0
 22 42  1  0
M  END
>  <smiles>  (15) 
O=C(NCC(=O)N1CCC[C@H]1CO)c1ccc2c(F)cccc2n1

>  <score_type>  (15) 
oracle

>  <origin>  (15) 
autodockgpu

>  <m_score__min__energy>  (15) 
-7.0199999999999996

>  <m_primary>  (15) 
energy

>  <rmsd>  (15) 
8.149846548788421

>  <m_score__min__rmsd>  (15) 
8.149846548788421

>  <meeko>  (15) 
{"free_energy": -6.63, "intermolecular_energy": -8.42, "internal_energy": -1.9, "cluster_size": 2, "cluster_id": 3, "rank_in_cluster": 2}

>  <energy>  (15) 
-6.75

>  <cluster_rmsd>  (15) 
1.2

>  <cluster>  (15) 
1

$$$$

     RDKit          3D

 42 44  0  0  0  0  0  0  0  0999 V2000
  140.5420   71.4740  221.3280 O   0  0  0  0  0  0  0  0  0  0  0  0
  140.1830   72.0340  222.4090 C   0  0  0  0  0  0  0  0  0  0  0  0
  139.7880   73.3960  222.3760 N   0  0  0  0  0  0  0  0  0  0  0  0
  139.8390   74.0420  221.0480 C   0  0  0  0  0  0  0  0  0  0  0  0
  141.0120   74.9170  220.9540 C   0  0  0  0  0  0  0  0  0  0  0  0
  142.1470   74.3510  220.8280 O   0  0  0  0  0  0  0  0  0  0  0  0
  141.0230   76.3320  220.9900 N   0  0  0  0  0  0  0  0  0  0  0  0
  140.4530   77.0240  222.1750 C   0  0  0  0  0  0  0  0  0  0  0  0
  140.5970   78.4830  221.8760 C   0  0  0  0  0  0  0  0  0  0  0  0
  141.8170   78.5020  220.9470 C   0  0  0  0  0  0  0  0  0  0  0  0
  141.4950   77.3160  220.0540 C   0  0  1  0  0  0  0  0  0  0  0  0
  142.7030   76.9010  219.2520 C   0  0  0  0  0  0  0  0  0  0  0  0
  143.6970   76.3550  220.0410 O   0  0  0  0  0  0  0  0  0  0  0  0
  140.1640   71.3140  223.6780 C   0  0  0  0  0  0  0  0  0  0  0  0
  139.6360   70.0310  223.6910 C   0  0  0  0  0  0  0  0  0  0  0  0
  139.5870   69.2890  224.8570 C   0  0  0  0  0  0  0  0  0  0  0  0
  140.0720   69.8520  226.0010 C   0  0  0  0  0  0  0  0  0  0  0  0
  140.0330   69.1250  227.1870 C   0  0  0  0  0  0  0  0  0  0  0  0
  139.5120   67.8840  227.1540 F   0  0  0  0  0  0  0  0  0  0  0  0
  140.5190   69.6950  228.3220 C   0  0  0  0  0  0  0  0  0  0  0  0
  141.0430   70.9640  228.3190 C   0  0  0  0  0  0  0  0  0  0  0  0
  141.0690   71.6680  227.1180 C   0  0  0  0  0  0  0  0  0  0  0  0
  140.5880   71.1320  225.9400 C   0  0  0  0  0  0  0  0  0  0  0  0
  140.6330   71.8490  224.7960 N   0  0  0  0  0  0  0  0  0  0  0  0
  139.4790   73.9360  223.2140 H   0  0  0  0  0  0  0  0  0  0  0  0
  139.9005   73.2673  220.2695 H   0  0  0  0  0  0  0  0  0  0  0  0
  138.9298   74.6450  220.9076 H   0  0  0  0  0  0  0  0  0  0  0  0
  139.3935   76.7586  222.3055 H   0  0  0  0  0  0  0  0  0  0  0  0
  140.9652   76.7399  223.1061 H   0  0  0  0  0  0  0  0  0  0  0  0
  139.7034   78.8768  221.3696 H   0  0  0  0  0  0  0  0  0  0  0  0
  140.7140   79.1090  222.7729 H   0  0  0  0  0  0  0  0  0  0  0  0
  141.8777   79.4388  220.3737 H   0  0  0  0  0  0  0  0  0  0  0  0
  142.7881   78.4423  221.4602 H   0  0  0  0  0  0  0  0  0  0  0  0
  140.7422   77.5127  219.2765 H   0  0  0  0  0  0  0  0  0  0  0  0
  142.3927   76.1534  218.5071 H   0  0  0  0  0  0  0  0  0  0  0  0
  143.1127   77.8021  218.7723 H   0  0  0  0  0  0  0  0  0  0  0  0
  143.3180   75.9070  220.8570 H   0  0  0  0  0  0  0  0  0  0  0  0
  139.2495   69.5963  222.7573 H   0  0  0  0  0  0  0  0  0  0  0  0
  139.1681   68.2719  224.8618 H   0  0  0  0  0  0  0  0  0  0  0  0
  140.4917   69.1267  229.2634 H   0  0  0  0  0  0  0  0  0  0  0  0
  141.4332   71.4140  229.2438 H   0  0  0  0  0  0  0  0  0  0  0  0
  141.4868   72.6855  227.1073 H   0  0  0  0  0  0  0  0  0  0  0  0
  1  2  2  0
  2  3  1  0
  3  4  1  0
  4  5  1  0
  5  6  2  0
  5  7  1  0
  7  8  1  0
  8  9  1  0
  9 10  1  0
 10 11  1  0
 11 12  1  0
 12 13  1  0
  2 14  1  0
 14 15  2  0
 15 16  1  0
 16 17  2  0
 17 18  1  0
 18 19  1  0
 18 20  2  0
 20 21  1  0
 21 22  2  0
 22 23  1  0
 23 24  2  0
 11  7  1  0
 24 14  1  0
 23 17  1  0
  3 25  1  0
  4 26  1  0
  4 27  1  0
  8 28  1  0
  8 29  1  0
  9 30  1  0
  9 31  1  0
 10 32  1  0
 10 33  1  0
 11 34  1  6
 12 35  1  0
 12 36  1  0
 13 37  1  0
 15 38  1  0
 16 39  1  0
 20 40  1  0
 21 41  1  0
 22 42  1  0
M  END
>  <smiles>  (16) 
O=C(NCC(=O)N1CCC[C@H]1CO)c1ccc2c(F)cccc2n1

>  <score_type>  (16) 
oracle

>  <origin>  (16) 
autodockgpu

>  <m_score__min__energy>  (16) 
-7.0199999999999996

>  <m_primary>  (16) 
energy

>  <rmsd>  (16) 
2.465161105522093

>  <m_score__min__rmsd>  (16) 
2.465161105522093

>  <meeko>  (16) 
{"free_energy": -6.77, "intermolecular_energy": -8.56, "internal_energy": -1.69, "cluster_size": 34, "cluster_id": 1, "rank_in_cluster": 10}

>  <energy>  (16) 
-6.74

>  <cluster_rmsd>  (16) 
1.18

>  <cluster>  (16) 
1

$$$$

     RDKit          3D

 42 44  0  0  0  0  0  0  0  0999 V2000
  139.6970   73.6730  222.3790 O   0  0  0  0  0  0  0  0  0  0  0  0
  140.4530   72.6610  222.5100 C   0  0  0  0  0  0  0  0  0  0  0  0
  141.5270   72.4870  221.6020 N   0  0  0  0  0  0  0  0  0  0  0  0
  141.6590   73.5300  220.5640 C   0  0  0  0  0  0  0  0  0  0  0  0
  142.8730   73.3080  219.7710 C   0  0  0  0  0  0  0  0  0  0  0  0
  143.3340   74.3070  219.1280 O   0  0  0  0  0  0  0  0  0  0  0  0
  143.5920   72.0970  219.6390 N   0  0  0  0  0  0  0  0  0  0  0  0
  142.9500   70.9540  218.9390 C   0  0  0  0  0  0  0  0  0  0  0  0
  143.9570   69.8480  219.0040 C   0  0  0  0  0  0  0  0  0  0  0  0
  145.2800   70.6200  219.0770 C   0  0  0  0  0  0  0  0  0  0  0  0
  144.9050   71.7030  220.0740 C   0  0  1  0  0  0  0  0  0  0  0  0
  145.9300   72.8100  220.0800 C   0  0  0  0  0  0  0  0  0  0  0  0
  146.1030   73.3740  218.8310 O   0  0  0  0  0  0  0  0  0  0  0  0
  140.2450   71.6790  223.5700 C   0  0  0  0  0  0  0  0  0  0  0  0
  139.5710   70.5090  223.2500 C   0  0  0  0  0  0  0  0  0  0  0  0
  139.3390   69.5340  224.2030 C   0  0  0  0  0  0  0  0  0  0  0  0
  139.7920   69.7500  225.4710 C   0  0  0  0  0  0  0  0  0  0  0  0
  139.5700   68.7830  226.4460 C   0  0  0  0  0  0  0  0  0  0  0  0
  138.9110   67.6630  226.0930 F   0  0  0  0  0  0  0  0  0  0  0  0
  140.0250   69.0080  227.7090 C   0  0  0  0  0  0  0  0  0  0  0  0
  140.6930   70.1630  228.0340 C   0  0  0  0  0  0  0  0  0  0  0  0
  140.9000   71.1130  227.0380 C   0  0  0  0  0  0  0  0  0  0  0  0
  140.4570   70.9290  225.7430 C   0  0  0  0  0  0  0  0  0  0  0  0
  140.6800   71.8770  224.8050 N   0  0  0  0  0  0  0  0  0  0  0  0
  142.1970   71.6870  221.6330 H   0  0  0  0  0  0  0  0  0  0  0  0
  140.7815   73.4958  219.9015 H   0  0  0  0  0  0  0  0  0  0  0  0
  141.7249   74.5138  221.0515 H   0  0  0  0  0  0  0  0  0  0  0  0
  142.0200   70.6612  219.4483 H   0  0  0  0  0  0  0  0  0  0  0  0
  142.6754   71.2038  217.9035 H   0  0  0  0  0  0  0  0  0  0  0  0
  143.8085   69.2252  219.8985 H   0  0  0  0  0  0  0  0  0  0  0  0
  143.8999   69.1479  218.1575 H   0  0  0  0  0  0  0  0  0  0  0  0
  146.0999   69.9888  219.4504 H   0  0  0  0  0  0  0  0  0  0  0  0
  145.6513   70.9914  218.1104 H   0  0  0  0  0  0  0  0  0  0  0  0
  144.8903   71.3786  221.1250 H   0  0  0  0  0  0  0  0  0  0  0  0
  145.6002   73.5930  220.7786 H   0  0  0  0  0  0  0  0  0  0  0  0
  146.8922   72.3746  220.3877 H   0  0  0  0  0  0  0  0  0  0  0  0
  145.4570   74.1270  218.6720 H   0  0  0  0  0  0  0  0  0  0  0  0
  139.2151   70.3544  222.2207 H   0  0  0  0  0  0  0  0  0  0  0  0
  138.8032   68.6086  223.9450 H   0  0  0  0  0  0  0  0  0  0  0  0
  139.8539   68.2484  228.4860 H   0  0  0  0  0  0  0  0  0  0  0  0
  141.0562   70.3335  229.0582 H   0  0  0  0  0  0  0  0  0  0  0  0
  141.4340   72.0409  227.2907 H   0  0  0  0  0  0  0  0  0  0  0  0
  1  2  2  0
  2  3  1  0
  3  4  1  0
  4  5  1  0
  5  6  2  0
  5  7  1  0
  7  8  1  0
  8  9  1  0
  9 10  1  0
 10 11  1  0
 11 12  1  0
 12 13  1  0
  2 14  1  0
 14 15  2  0
 15 16  1  0
 16 17  2  0
 17 18  1  0
 18 19  1  0
 18 20  2  0
 20 21  1  0
 21 22  2  0
 22 23  1  0
 23 24  2  0
 11  7  1  0
 24 14  1  0
 23 17  1  0
  3 25  1  0
  4 26  1  0
  4 27  1  0
  8 28  1  0
  8 29  1  0
  9 30  1  0
  9 31  1  0
 10 32  1  0
 10 33  1  0
 11 34  1  1
 12 35  1  0
 12 36  1  0
 13 37  1  0
 15 38  1  0
 16 39  1  0
 20 40  1  0
 21 41  1  0
 22 42  1  0
M  END
>  <smiles>  (17) 
O=C(NCC(=O)N1CCC[C@H]1CO)c1ccc2c(F)cccc2n1

>  <score_type>  (17) 
oracle

>  <origin>  (17) 
autodockgpu

>  <m_score__min__energy>  (17) 
-7.0199999999999996

>  <m_primary>  (17) 
energy

>  <rmsd>  (17) 
4.471747078940561

>  <m_score__min__rmsd>  (17) 
4.471747078940561

>  <meeko>  (17) 
{"free_energy": -6.76, "intermolecular_energy": -8.55, "internal_energy": -1.68, "cluster_size": 4, "cluster_id": 2, "rank_in_cluster": 3}

>  <energy>  (17) 
-6.72

>  <cluster_rmsd>  (17) 
1.16

>  <cluster>  (17) 
1

$$$$

     RDKit          3D

 42 44  0  0  0  0  0  0  0  0999 V2000
  139.2320   71.1850  221.2930 O   0  0  0  0  0  0  0  0  0  0  0  0
  139.4840   71.8480  222.3470 C   0  0  0  0  0  0  0  0  0  0  0  0
  139.5350   73.2630  222.2690 N   0  0  0  0  0  0  0  0  0  0  0  0
  139.2850   73.8370  220.9310 C   0  0  0  0  0  0  0  0  0  0  0  0
  140.2750   73.3360  219.9700 C   0  0  0  0  0  0  0  0  0  0  0  0
  139.8260   72.7560  218.9280 O   0  0  0  0  0  0  0  0  0  0  0  0
  141.6830   73.4240  220.0760 N   0  0  0  0  0  0  0  0  0  0  0  0
  142.2960   74.7340  220.4200 C   0  0  0  0  0  0  0  0  0  0  0  0
  143.7710   74.4810  220.4190 C   0  0  0  0  0  0  0  0  0  0  0  0
  143.8420   72.9910  220.7790 C   0  0  0  0  0  0  0  0  0  0  0  0
  142.7260   72.4490  219.9040 C   0  0  1  0  0  0  0  0  0  0  0  0
  142.3550   71.0450  220.3110 C   0  0  0  0  0  0  0  0  0  0  0  0
  141.4060   70.4870  219.4770 O   0  0  0  0  0  0  0  0  0  0  0  0
  139.7180   71.1920  223.6300 C   0  0  0  0  0  0  0  0  0  0  0  0
  139.4110   69.8440  223.7370 C   0  0  0  0  0  0  0  0  0  0  0  0
  139.6070   69.1580  224.9220 C   0  0  0  0  0  0  0  0  0  0  0  0
  140.1130   69.8420  225.9880 C   0  0  0  0  0  0  0  0  0  0  0  0
  140.3190   69.1720  227.1900 C   0  0  0  0  0  0  0  0  0  0  0  0
  140.0070   67.8640  227.2500 F   0  0  0  0  0  0  0  0  0  0  0  0
  140.8240   69.8630  228.2470 C   0  0  0  0  0  0  0  0  0  0  0  0
  141.1320   71.1980  228.1490 C   0  0  0  0  0  0  0  0  0  0  0  0
  140.9140   71.8420  226.9350 C   0  0  0  0  0  0  0  0  0  0  0  0
  140.4040   71.1830  225.8340 C   0  0  0  0  0  0  0  0  0  0  0  0
  140.2090   71.8450  224.6720 N   0  0  0  0  0  0  0  0  0  0  0  0
  139.7340   73.8870  223.0820 H   0  0  0  0  0  0  0  0  0  0  0  0
  138.2769   73.5515  220.5960 H   0  0  0  0  0  0  0  0  0  0  0  0
  139.3656   74.9324  220.9902 H   0  0  0  0  0  0  0  0  0  0  0  0
  142.0331   75.4935  219.6689 H   0  0  0  0  0  0  0  0  0  0  0  0
  141.9419   75.1152  221.3892 H   0  0  0  0  0  0  0  0  0  0  0  0
  144.2085   74.6737  219.4283 H   0  0  0  0  0  0  0  0  0  0  0  0
  144.3317   75.1299  221.1078 H   0  0  0  0  0  0  0  0  0  0  0  0
  144.8161   72.5539  220.5141 H   0  0  0  0  0  0  0  0  0  0  0  0
  143.7358   72.7701  221.8514 H   0  0  0  0  0  0  0  0  0  0  0  0
  142.9859   72.3345  218.8413 H   0  0  0  0  0  0  0  0  0  0  0  0
  143.2594   70.4193  220.2851 H   0  0  0  0  0  0  0  0  0  0  0  0
  141.9254   71.0922  221.3226 H   0  0  0  0  0  0  0  0  0  0  0  0
  140.5130   70.9370  219.5800 H   0  0  0  0  0  0  0  0  0  0  0  0
  139.0047   69.3112  222.8647 H   0  0  0  0  0  0  0  0  0  0  0  0
  139.3612   68.0888  225.0025 H   0  0  0  0  0  0  0  0  0  0  0  0
  140.9894   69.3414  229.2012 H   0  0  0  0  0  0  0  0  0  0  0  0
  141.5417   71.7455  229.0106 H   0  0  0  0  0  0  0  0  0  0  0  0
  141.1560   72.9116  226.8495 H   0  0  0  0  0  0  0  0  0  0  0  0
  1  2  2  0
  2  3  1  0
  3  4  1  0
  4  5  1  0
  5  6  2  0
  5  7  1  0
  7  8  1  0
  8  9  1  0
  9 10  1  0
 10 11  1  0
 11 12  1  0
 12 13  1  0
  2 14  1  0
 14 15  2  0
 15 16  1  0
 16 17  2  0
 17 18  1  0
 18 19  1  0
 18 20  2  0
 20 21  1  0
 21 22  2  0
 22 23  1  0
 23 24  2  0
 11  7  1  0
 24 14  1  0
 23 17  1  0
  3 25  1  0
  4 26  1  0
  4 27  1  0
  8 28  1  0
  8 29  1  0
  9 30  1  0
  9 31  1  0
 10 32  1  0
 10 33  1  0
 11 34  1  6
 12 35  1  0
 12 36  1  0
 13 37  1  0
 15 38  1  0
 16 39  1  0
 20 40  1  0
 21 41  1  0
 22 42  1  0
M  END
>  <smiles>  (18) 
O=C(NCC(=O)N1CCC[C@H]1CO)c1ccc2c(F)cccc2n1

>  <score_type>  (18) 
oracle

>  <origin>  (18) 
autodockgpu

>  <m_score__min__energy>  (18) 
-7.0199999999999996

>  <m_primary>  (18) 
energy

>  <rmsd>  (18) 
3.1711960257838374

>  <m_score__min__rmsd>  (18) 
3.1711960257838374

>  <meeko>  (18) 
{"free_energy": -5.32, "intermolecular_energy": -7.11, "internal_energy": -2.73, "cluster_size": 34, "cluster_id": 1, "rank_in_cluster": 34}

>  <energy>  (18) 
-6.71

>  <cluster_rmsd>  (18) 
1.33

>  <cluster>  (18) 
1

$$$$

     RDKit          3D

 42 44  0  0  0  0  0  0  0  0999 V2000
  141.3880   72.2440  221.6910 O   0  0  0  0  0  0  0  0  0  0  0  0
  140.3940   72.3320  222.4770 C   0  0  0  0  0  0  0  0  0  0  0  0
  139.3710   73.2690  222.1850 N   0  0  0  0  0  0  0  0  0  0  0  0
  139.5740   74.0720  220.9610 C   0  0  0  0  0  0  0  0  0  0  0  0
  140.7010   74.9940  221.1390 C   0  0  0  0  0  0  0  0  0  0  0  0
  141.0120   75.3010  222.3360 O   0  0  0  0  0  0  0  0  0  0  0  0
  141.4850   75.5850  220.1210 N   0  0  0  0  0  0  0  0  0  0  0  0
  141.4170   77.0580  219.9270 C   0  0  0  0  0  0  0  0  0  0  0  0
  142.3280   77.3370  218.7730 C   0  0  0  0  0  0  0  0  0  0  0  0
  143.3370   76.1850  218.8730 C   0  0  0  0  0  0  0  0  0  0  0  0
  142.3960   75.0280  219.1580 C   0  0  1  0  0  0  0  0  0  0  0  0
  143.1590   73.8170  219.6340 C   0  0  0  0  0  0  0  0  0  0  0  0
  143.4490   73.8730  220.9830 O   0  0  0  0  0  0  0  0  0  0  0  0
  140.2790   71.4940  223.6660 C   0  0  0  0  0  0  0  0  0  0  0  0
  139.6690   70.2550  223.5340 C   0  0  0  0  0  0  0  0  0  0  0  0
  139.5250   69.4080  224.6170 C   0  0  0  0  0  0  0  0  0  0  0  0
  140.0010   69.8220  225.8270 C   0  0  0  0  0  0  0  0  0  0  0  0
  139.8680   68.9860  226.9310 C   0  0  0  0  0  0  0  0  0  0  0  0
  139.2680   67.7930  226.7570 F   0  0  0  0  0  0  0  0  0  0  0  0
  140.3460   69.4080  228.1340 C   0  0  0  0  0  0  0  0  0  0  0  0
  140.9510   70.6320  228.2740 C   0  0  0  0  0  0  0  0  0  0  0  0
  141.0700   71.4460  227.1520 C   0  0  0  0  0  0  0  0  0  0  0  0
  140.6010   71.0620  225.9110 C   0  0  0  0  0  0  0  0  0  0  0  0
  140.7380   71.8830  224.8460 N   0  0  0  0  0  0  0  0  0  0  0  0
  138.5200   73.4090  222.7720 H   0  0  0  0  0  0  0  0  0  0  0  0
  139.7851   73.3995  220.1165 H   0  0  0  0  0  0  0  0  0  0  0  0
  138.6630   74.6546  220.7597 H   0  0  0  0  0  0  0  0  0  0  0  0
  140.3887   77.3704  219.6926 H   0  0  0  0  0  0  0  0  0  0  0  0
  141.7141   77.6089  220.8316 H   0  0  0  0  0  0  0  0  0  0  0  0
  141.7828   77.3083  217.8181 H   0  0  0  0  0  0  0  0  0  0  0  0
  142.7908   78.3344  218.8059 H   0  0  0  0  0  0  0  0  0  0  0  0
  143.8859   76.0412  217.9307 H   0  0  0  0  0  0  0  0  0  0  0  0
  144.1302   76.3299  219.6212 H   0  0  0  0  0  0  0  0  0  0  0  0
  141.8543   74.6465  218.2799 H   0  0  0  0  0  0  0  0  0  0  0  0
  142.5534   72.9194  219.4400 H   0  0  0  0  0  0  0  0  0  0  0  0
  144.1130   73.7861  219.0873 H   0  0  0  0  0  0  0  0  0  0  0  0
  142.6240   74.0430  221.5320 H   0  0  0  0  0  0  0  0  0  0  0  0
  139.2929   69.9407  222.5492 H   0  0  0  0  0  0  0  0  0  0  0  0
  139.0399   68.4270  224.5064 H   0  0  0  0  0  0  0  0  0  0  0  0
  140.2451   68.7539  229.0126 H   0  0  0  0  0  0  0  0  0  0  0  0
  141.3332   70.9620  229.2513 H   0  0  0  0  0  0  0  0  0  0  0  0
  141.5538   72.4283  227.2568 H   0  0  0  0  0  0  0  0  0  0  0  0
  1  2  2  0
  2  3  1  0
  3  4  1  0
  4  5  1  0
  5  6  2  0
  5  7  1  0
  7  8  1  0
  8  9  1  0
  9 10  1  0
 10 11  1  0
 11 12  1  0
 12 13  1  0
  2 14  1  0
 14 15  2  0
 15 16  1  0
 16 17  2  0
 17 18  1  0
 18 19  1  0
 18 20  2  0
 20 21  1  0
 21 22  2  0
 22 23  1  0
 23 24  2  0
 11  7  1  0
 24 14  1  0
 23 17  1  0
  3 25  1  0
  4 26  1  0
  4 27  1  0
  8 28  1  0
  8 29  1  0
  9 30  1  0
  9 31  1  0
 10 32  1  0
 10 33  1  0
 11 34  1  6
 12 35  1  0
 12 36  1  0
 13 37  1  0
 15 38  1  0
 16 39  1  0
 20 40  1  0
 21 41  1  0
 22 42  1  0
M  END
>  <smiles>  (19) 
O=C(NCC(=O)N1CCC[C@H]1CO)c1ccc2c(F)cccc2n1

>  <score_type>  (19) 
oracle

>  <origin>  (19) 
autodockgpu

>  <m_score__min__energy>  (19) 
-7.0199999999999996

>  <m_primary>  (19) 
energy

>  <rmsd>  (19) 
2.1832965708975225

>  <m_score__min__rmsd>  (19) 
2.1832965708975225

>  <meeko>  (19) 
{"free_energy": -6.28, "intermolecular_energy": -8.07, "internal_energy": -2.32, "cluster_size": 34, "cluster_id": 1, "rank_in_cluster": 30}

>  <energy>  (19) 
-6.71

>  <cluster_rmsd>  (19) 
1.36

>  <cluster>  (19) 
1

$$$$

     RDKit          3D

 42 44  0  0  0  0  0  0  0  0999 V2000
  141.0790   72.0090  221.4910 O   0  0  0  0  0  0  0  0  0  0  0  0
  140.2900   72.2950  222.4440 C   0  0  0  0  0  0  0  0  0  0  0  0
  139.4640   73.4420  222.3290 N   0  0  0  0  0  0  0  0  0  0  0  0
  139.6120   74.2100  221.0750 C   0  0  0  0  0  0  0  0  0  0  0  0
  140.8100   75.0550  221.1360 C   0  0  0  0  0  0  0  0  0  0  0  0
  141.2350   75.3710  222.2960 O   0  0  0  0  0  0  0  0  0  0  0  0
  141.5480   75.5640  220.0420 N   0  0  0  0  0  0  0  0  0  0  0  0
  141.0370   76.7630  219.3270 C   0  0  0  0  0  0  0  0  0  0  0  0
  142.0260   77.0070  218.2300 C   0  0  0  0  0  0  0  0  0  0  0  0
  143.3140   76.4210  218.8200 C   0  0  0  0  0  0  0  0  0  0  0  0
  142.7730   75.1360  219.4230 C   0  0  1  0  0  0  0  0  0  0  0  0
  143.7770   74.5180  220.3640 C   0  0  0  0  0  0  0  0  0  0  0  0
  143.2590   73.4370  221.0510 O   0  0  0  0  0  0  0  0  0  0  0  0
  140.2110   71.4750  223.6490 C   0  0  0  0  0  0  0  0  0  0  0  0
  139.6170   70.2250  223.5480 C   0  0  0  0  0  0  0  0  0  0  0  0
  139.5080   69.3940  224.6470 C   0  0  0  0  0  0  0  0  0  0  0  0
  140.0020   69.8330  225.8410 C   0  0  0  0  0  0  0  0  0  0  0  0
  139.9030   69.0140  226.9600 C   0  0  0  0  0  0  0  0  0  0  0  0
  139.3190   67.8090  226.8170 F   0  0  0  0  0  0  0  0  0  0  0  0
  140.3980   69.4620  228.1460 C   0  0  0  0  0  0  0  0  0  0  0  0
  140.9880   70.6970  228.2550 C   0  0  0  0  0  0  0  0  0  0  0  0
  141.0720   71.4950  227.1180 C   0  0  0  0  0  0  0  0  0  0  0  0
  140.5840   71.0840  225.8930 C   0  0  0  0  0  0  0  0  0  0  0  0
  140.6870   71.8900  224.8130 N   0  0  0  0  0  0  0  0  0  0  0  0
  138.7870   73.7530  223.0600 H   0  0  0  0  0  0  0  0  0  0  0  0
  139.7027   73.5117  220.2299 H   0  0  0  0  0  0  0  0  0  0  0  0
  138.7279   74.8504  220.9402 H   0  0  0  0  0  0  0  0  0  0  0  0
  140.0374   76.5689  218.9109 H   0  0  0  0  0  0  0  0  0  0  0  0
  140.9357   77.6316  219.9943 H   0  0  0  0  0  0  0  0  0  0  0  0
  141.7356   76.4834  217.3072 H   0  0  0  0  0  0  0  0  0  0  0  0
  142.1136   78.0648  217.9412 H   0  0  0  0  0  0  0  0  0  0  0  0
  144.0647   76.2211  218.0413 H   0  0  0  0  0  0  0  0  0  0  0  0
  143.8377   77.0788  219.5292 H   0  0  0  0  0  0  0  0  0  0  0  0
  142.5863   74.3285  218.6997 H   0  0  0  0  0  0  0  0  0  0  0  0
  144.6473   74.1820  219.7811 H   0  0  0  0  0  0  0  0  0  0  0  0
  144.0580   75.2821  221.1037 H   0  0  0  0  0  0  0  0  0  0  0  0
  142.4510   73.6940  221.5910 H   0  0  0  0  0  0  0  0  0  0  0  0
  139.2260   69.8896  222.5761 H   0  0  0  0  0  0  0  0  0  0  0  0
  139.0353   68.4044  224.5615 H   0  0  0  0  0  0  0  0  0  0  0  0
  140.3238   68.8207  229.0366 H   0  0  0  0  0  0  0  0  0  0  0  0
  141.3852   71.0476  229.2190 H   0  0  0  0  0  0  0  0  0  0  0  0
  141.5427   72.4860  227.1975 H   0  0  0  0  0  0  0  0  0  0  0  0
  1  2  2  0
  2  3  1  0
  3  4  1  0
  4  5  1  0
  5  6  2  0
  5  7  1  0
  7  8  1  0
  8  9  1  0
  9 10  1  0
 10 11  1  0
 11 12  1  0
 12 13  1  0
  2 14  1  0
 14 15  2  0
 15 16  1  0
 16 17  2  0
 17 18  1  0
 18 19  1  0
 18 20  2  0
 20 21  1  0
 21 22  2  0
 22 23  1  0
 23 24  2  0
 11  7  1  0
 24 14  1  0
 23 17  1  0
  3 25  1  0
  4 26  1  0
  4 27  1  0
  8 28  1  0
  8 29  1  0
  9 30  1  0
  9 31  1  0
 10 32  1  0
 10 33  1  0
 11 34  1  6
 12 35  1  0
 12 36  1  0
 13 37  1  0
 15 38  1  0
 16 39  1  0
 20 40  1  0
 21 41  1  0
 22 42  1  0
M  END
>  <smiles>  (20) 
O=C(NCC(=O)N1CCC[C@H]1CO)c1ccc2c(F)cccc2n1

>  <score_type>  (20) 
oracle

>  <origin>  (20) 
autodockgpu

>  <m_score__min__energy>  (20) 
-7.0199999999999996

>  <m_primary>  (20) 
energy

>  <rmsd>  (20) 
1.9878701221541313

>  <m_score__min__rmsd>  (20) 
1.9878701221541313

>  <meeko>  (20) 
{"free_energy": -6.24, "intermolecular_energy": -8.03, "internal_energy": -2.34, "cluster_size": 34, "cluster_id": 1, "rank_in_cluster": 31}

>  <energy>  (20) 
-6.71

>  <cluster_rmsd>  (20) 
0.97

>  <cluster>  (20) 
1

$$$$

     RDKit          3D

 42 44  0  0  0  0  0  0  0  0999 V2000
  141.2380   71.9650  221.3850 O   0  0  0  0  0  0  0  0  0  0  0  0
  140.5520   72.3650  222.3750 C   0  0  0  0  0  0  0  0  0  0  0  0
  140.0070   73.6740  222.3470 N   0  0  0  0  0  0  0  0  0  0  0  0
  140.3050   74.4610  221.1330 C   0  0  0  0  0  0  0  0  0  0  0  0
  140.3920   75.8880  221.4610 C   0  0  0  0  0  0  0  0  0  0  0  0
  139.8740   76.2590  222.5650 O   0  0  0  0  0  0  0  0  0  0  0  0
  140.9920   76.9050  220.6820 N   0  0  0  0  0  0  0  0  0  0  0  0
  140.8630   76.8450  219.2020 C   0  0  0  0  0  0  0  0  0  0  0  0
  141.6230   78.0320  218.7000 C   0  0  0  0  0  0  0  0  0  0  0  0
  141.5050   79.0100  219.8760 C   0  0  0  0  0  0  0  0  0  0  0  0
  141.7610   78.0660  221.0380 C   0  0  1  0  0  0  0  0  0  0  0  0
  141.3730   78.7060  222.3480 C   0  0  0  0  0  0  0  0  0  0  0  0
  141.7130   77.9260  223.4360 O   0  0  0  0  0  0  0  0  0  0  0  0
  140.3090   71.5130  223.5360 C   0  0  0  0  0  0  0  0  0  0  0  0
  139.6830   70.2930  223.3290 C   0  0  0  0  0  0  0  0  0  0  0  0
  139.4210   69.4350  224.3810 C   0  0  0  0  0  0  0  0  0  0  0  0
  139.7960   69.8190  225.6350 C   0  0  0  0  0  0  0  0  0  0  0  0
  139.5430   68.9720  226.7090 C   0  0  0  0  0  0  0  0  0  0  0  0
  138.9330   67.7970  226.4630 F   0  0  0  0  0  0  0  0  0  0  0  0
  139.9200   69.3640  227.9560 C   0  0  0  0  0  0  0  0  0  0  0  0
  140.5410   70.5700  228.1710 C   0  0  0  0  0  0  0  0  0  0  0  0
  140.7800   71.3970  227.0770 C   0  0  0  0  0  0  0  0  0  0  0  0
  140.4160   71.0420  225.7930 C   0  0  0  0  0  0  0  0  0  0  0  0
  140.6680   71.8740  224.7580 N   0  0  0  0  0  0  0  0  0  0  0  0
  139.4320   74.0850  223.1140 H   0  0  0  0  0  0  0  0  0  0  0  0
  141.2637   74.1267  220.7099 H   0  0  0  0  0  0  0  0  0  0  0  0
  139.4976   74.3103  220.4013 H   0  0  0  0  0  0  0  0  0  0  0  0
  141.2997   75.9133  218.8131 H   0  0  0  0  0  0  0  0  0  0  0  0
  139.8121   76.8591  218.8774 H   0  0  0  0  0  0  0  0  0  0  0  0
  142.6735   77.7767  218.4968 H   0  0  0  0  0  0  0  0  0  0  0  0
  141.2398   78.4335  217.7503 H   0  0  0  0  0  0  0  0  0  0  0  0
  142.2634   79.8050  219.8223 H   0  0  0  0  0  0  0  0  0  0  0  0
  140.5519   79.5568  219.9273 H   0  0  0  0  0  0  0  0  0  0  0  0
  142.8175   77.8043  221.1968 H   0  0  0  0  0  0  0  0  0  0  0  0
  141.8866   79.6749  222.4336 H   0  0  0  0  0  0  0  0  0  0  0  0
  140.2798   78.8278  222.3511 H   0  0  0  0  0  0  0  0  0  0  0  0
  141.8270   76.9620  223.1790 H   0  0  0  0  0  0  0  0  0  0  0  0
  139.3896   70.0027  222.3094 H   0  0  0  0  0  0  0  0  0  0  0  0
  138.9235   68.4687  224.2113 H   0  0  0  0  0  0  0  0  0  0  0  0
  139.7231   68.7004  228.8109 H   0  0  0  0  0  0  0  0  0  0  0  0
  140.8424   70.8753  229.1839 H   0  0  0  0  0  0  0  0  0  0  0  0
  141.2753   72.3655  227.2407 H   0  0  0  0  0  0  0  0  0  0  0  0
  1  2  2  0
  2  3  1  0
  3  4  1  0
  4  5  1  0
  5  6  2  0
  5  7  1  0
  7  8  1  0
  8  9  1  0
  9 10  1  0
 10 11  1  0
 11 12  1  0
 12 13  1  0
  2 14  1  0
 14 15  2  0
 15 16  1  0
 16 17  2  0
 17 18  1  0
 18 19  1  0
 18 20  2  0
 20 21  1  0
 21 22  2  0
 22 23  1  0
 23 24  2  0
 11  7  1  0
 24 14  1  0
 23 17  1  0
  3 25  1  0
  4 26  1  0
  4 27  1  0
  8 28  1  0
  8 29  1  0
  9 30  1  0
  9 31  1  0
 10 32  1  0
 10 33  1  0
 11 34  1  1
 12 35  1  0
 12 36  1  0
 13 37  1  0
 15 38  1  0
 16 39  1  0
 20 40  1  0
 21 41  1  0
 22 42  1  0
M  END
>  <smiles>  (21) 
O=C(NCC(=O)N1CCC[C@H]1CO)c1ccc2c(F)cccc2n1

>  <score_type>  (21) 
oracle

>  <origin>  (21) 
autodockgpu

>  <m_score__min__energy>  (21) 
-7.0199999999999996

>  <m_primary>  (21) 
energy

>  <rmsd>  (21) 
1.9758156093183228

>  <m_score__min__rmsd>  (21) 
1.9758156093183228

>  <meeko>  (21) 
{"free_energy": -6.66, "intermolecular_energy": -8.45, "internal_energy": -1.98, "cluster_size": 34, "cluster_id": 1, "rank_in_cluster": 26}

>  <energy>  (21) 
-6.71

>  <cluster_rmsd>  (21) 
1.22

>  <cluster>  (21) 
1

$$$$

     RDKit          3D

 42 44  0  0  0  0  0  0  0  0999 V2000
  141.2150   72.0170  221.5980 O   0  0  0  0  0  0  0  0  0  0  0  0
  140.3650   72.2870  222.5020 C   0  0  0  0  0  0  0  0  0  0  0  0
  139.5130   73.4070  222.3280 N   0  0  0  0  0  0  0  0  0  0  0  0
  139.7080   74.1670  221.0760 C   0  0  0  0  0  0  0  0  0  0  0  0
  140.7830   75.1520  221.2420 C   0  0  0  0  0  0  0  0  0  0  0  0
  140.8010   75.8070  222.3350 O   0  0  0  0  0  0  0  0  0  0  0  0
  141.8070   75.4580  220.3150 N   0  0  0  0  0  0  0  0  0  0  0  0
  142.2730   74.3960  219.3850 C   0  0  0  0  0  0  0  0  0  0  0  0
  143.3590   75.0390  218.5810 C   0  0  0  0  0  0  0  0  0  0  0  0
  142.9480   76.5170  218.6060 C   0  0  0  0  0  0  0  0  0  0  0  0
  142.5530   76.6610  220.0660 C   0  0  1  0  0  0  0  0  0  0  0  0
  141.7880   77.9410  220.2930 C   0  0  0  0  0  0  0  0  0  0  0  0
  141.7160   78.2810  221.6300 O   0  0  0  0  0  0  0  0  0  0  0  0
  140.2430   71.4760  223.7100 C   0  0  0  0  0  0  0  0  0  0  0  0
  139.6350   70.2340  223.6010 C   0  0  0  0  0  0  0  0  0  0  0  0
  139.4860   69.4120  224.7020 C   0  0  0  0  0  0  0  0  0  0  0  0
  139.9550   69.8530  225.9060 C   0  0  0  0  0  0  0  0  0  0  0  0
  139.8150   69.0420  227.0280 C   0  0  0  0  0  0  0  0  0  0  0  0
  139.2180   67.8450  226.8770 F   0  0  0  0  0  0  0  0  0  0  0  0
  140.2850   69.4910  228.2230 C   0  0  0  0  0  0  0  0  0  0  0  0
  140.8890   70.7190  228.3400 C   0  0  0  0  0  0  0  0  0  0  0  0
  141.0140   71.5080  227.2000 C   0  0  0  0  0  0  0  0  0  0  0  0
  140.5530   71.0960  225.9660 C   0  0  0  0  0  0  0  0  0  0  0  0
  140.6940   71.8930  224.8830 N   0  0  0  0  0  0  0  0  0  0  0  0
  138.7870   73.7030  223.0170 H   0  0  0  0  0  0  0  0  0  0  0  0
  139.9746   73.4714  220.2667 H   0  0  0  0  0  0  0  0  0  0  0  0
  138.7747   74.6934  220.8272 H   0  0  0  0  0  0  0  0  0  0  0  0
  142.6647   73.5347  219.9459 H   0  0  0  0  0  0  0  0  0  0  0  0
  141.4592   74.0136  218.7514 H   0  0  0  0  0  0  0  0  0  0  0  0
  144.3432   74.8906  219.0492 H   0  0  0  0  0  0  0  0  0  0  0  0
  143.4614   74.6260  217.5666 H   0  0  0  0  0  0  0  0  0  0  0  0
  143.7874   77.1779  218.3439 H   0  0  0  0  0  0  0  0  0  0  0  0
  142.1623   76.7899  217.8861 H   0  0  0  0  0  0  0  0  0  0  0  0
  143.3958   76.7525  220.7669 H   0  0  0  0  0  0  0  0  0  0  0  0
  142.2901   78.7541  219.7482 H   0  0  0  0  0  0  0  0  0  0  0  0
  140.7610   77.7870  219.9301 H   0  0  0  0  0  0  0  0  0  0  0  0
  141.9660   77.5090  222.2230 H   0  0  0  0  0  0  0  0  0  0  0  0
  139.2650   69.8975  222.6213 H   0  0  0  0  0  0  0  0  0  0  0  0
  139.0022   68.4283  224.6107 H   0  0  0  0  0  0  0  0  0  0  0  0
  140.1790   68.8566  229.1153 H   0  0  0  0  0  0  0  0  0  0  0  0
  141.2652   71.0708  229.3119 H   0  0  0  0  0  0  0  0  0  0  0  0
  141.4964   72.4929  227.2855 H   0  0  0  0  0  0  0  0  0  0  0  0
  1  2  2  0
  2  3  1  0
  3  4  1  0
  4  5  1  0
  5  6  2  0
  5  7  1  0
  7  8  1  0
  8  9  1  0
  9 10  1  0
 10 11  1  0
 11 12  1  0
 12 13  1  0
  2 14  1  0
 14 15  2  0
 15 16  1  0
 16 17  2  0
 17 18  1  0
 18 19  1  0
 18 20  2  0
 20 21  1  0
 21 22  2  0
 22 23  1  0
 23 24  2  0
 11  7  1  0
 24 14  1  0
 23 17  1  0
  3 25  1  0
  4 26  1  0
  4 27  1  0
  8 28  1  0
  8 29  1  0
  9 30  1  0
  9 31  1  0
 10 32  1  0
 10 33  1  0
 11 34  1  1
 12 35  1  0
 12 36  1  0
 13 37  1  0
 15 38  1  0
 16 39  1  0
 20 40  1  0
 21 41  1  0
 22 42  1  0
M  END
>  <smiles>  (22) 
O=C(NCC(=O)N1CCC[C@H]1CO)c1ccc2c(F)cccc2n1

>  <score_type>  (22) 
oracle

>  <origin>  (22) 
autodockgpu

>  <m_score__min__energy>  (22) 
-7.0199999999999996

>  <m_primary>  (22) 
energy

>  <rmsd>  (22) 
1.9944384861505786

>  <m_score__min__rmsd>  (22) 
1.9944384861505786

>  <meeko>  (22) 
{"free_energy": -6.94, "intermolecular_energy": -8.73, "internal_energy": -1.74, "cluster_size": 34, "cluster_id": 1, "rank_in_cluster": 4}

>  <energy>  (22) 
-6.7

>  <cluster_rmsd>  (22) 
0.97

>  <cluster>  (22) 
1

$$$$

     RDKit          3D

 42 44  0  0  0  0  0  0  0  0999 V2000
  140.0450   74.3300  222.3190 O   0  0  0  0  0  0  0  0  0  0  0  0
  140.3270   75.3390  221.6000 C   0  0  0  0  0  0  0  0  0  0  0  0
  140.6470   75.1380  220.2340 N   0  0  0  0  0  0  0  0  0  0  0  0
  140.6190   73.7340  219.7730 C   0  0  0  0  0  0  0  0  0  0  0  0
  141.9590   73.3110  219.3530 C   0  0  0  0  0  0  0  0  0  0  0  0
  142.0440   72.6610  218.2600 O   0  0  0  0  0  0  0  0  0  0  0  0
  143.1770   73.5440  220.0350 N   0  0  0  0  0  0  0  0  0  0  0  0
  143.9770   72.3780  220.4940 C   0  0  0  0  0  0  0  0  0  0  0  0
  145.1620   72.9740  221.1870 C   0  0  0  0  0  0  0  0  0  0  0  0
  145.3090   74.3230  220.4730 C   0  0  0  0  0  0  0  0  0  0  0  0
  143.8540   74.7550  220.4120 C   0  0  1  0  0  0  0  0  0  0  0  0
  143.6730   75.9070  219.4550 C   0  0  0  0  0  0  0  0  0  0  0  0
  142.7840   76.8520  219.9290 O   0  0  0  0  0  0  0  0  0  0  0  0
  140.3290   76.6930  222.1440 C   0  0  0  0  0  0  0  0  0  0  0  0
  139.1170   77.2340  222.5480 C   0  0  0  0  0  0  0  0  0  0  0  0
  139.0430   78.5110  223.0730 C   0  0  0  0  0  0  0  0  0  0  0  0
  140.1970   79.2310  223.1860 C   0  0  0  0  0  0  0  0  0  0  0  0
  140.1460   80.5180  223.7110 C   0  0  0  0  0  0  0  0  0  0  0  0
  138.9490   81.0040  224.0900 F   0  0  0  0  0  0  0  0  0  0  0  0
  141.3020   81.2280  223.8200 C   0  0  0  0  0  0  0  0  0  0  0  0
  142.5060   80.7000  223.4230 C   0  0  0  0  0  0  0  0  0  0  0  0
  142.5250   79.4100  222.9000 C   0  0  0  0  0  0  0  0  0  0  0  0
  141.3790   78.6510  222.7710 C   0  0  0  0  0  0  0  0  0  0  0  0
  141.4420   77.4020  222.2590 N   0  0  0  0  0  0  0  0  0  0  0  0
  140.8910   75.9060  219.5700 H   0  0  0  0  0  0  0  0  0  0  0  0
  140.2754   73.0887  220.5949 H   0  0  0  0  0  0  0  0  0  0  0  0
  139.9324   73.6512  218.9176 H   0  0  0  0  0  0  0  0  0  0  0  0
  143.3931   71.7577  221.1899 H   0  0  0  0  0  0  0  0  0  0  0  0
  144.2705   71.7228  219.6606 H   0  0  0  0  0  0  0  0  0  0  0  0
  144.9691   73.1101  222.2614 H   0  0  0  0  0  0  0  0  0  0  0  0
  146.0645   72.3471  221.1373 H   0  0  0  0  0  0  0  0  0  0  0  0
  145.9192   75.0283  221.0563 H   0  0  0  0  0  0  0  0  0  0  0  0
  145.8176   74.2763  219.4988 H   0  0  0  0  0  0  0  0  0  0  0  0
  143.4503   75.1544  221.3541 H   0  0  0  0  0  0  0  0  0  0  0  0
  144.6486   76.3892  219.2945 H   0  0  0  0  0  0  0  0  0  0  0  0
  143.2635   75.5025  218.5176 H   0  0  0  0  0  0  0  0  0  0  0  0
  143.0470   77.1840  220.8400 H   0  0  0  0  0  0  0  0  0  0  0  0
  138.1988   76.6365  222.4489 H   0  0  0  0  0  0  0  0  0  0  0  0
  138.0794   78.9355  223.3912 H   0  0  0  0  0  0  0  0  0  0  0  0
  141.2713   82.2463  224.2349 H   0  0  0  0  0  0  0  0  0  0  0  0
  143.4341   81.2830  223.5161 H   0  0  0  0  0  0  0  0  0  0  0  0
  143.4855   78.9809  222.5787 H   0  0  0  0  0  0  0  0  0  0  0  0
  1  2  2  0
  2  3  1  0
  3  4  1  0
  4  5  1  0
  5  6  2  0
  5  7  1  0
  7  8  1  0
  8  9  1  0
  9 10  1  0
 10 11  1  0
 11 12  1  0
 12 13  1  0
  2 14  1  0
 14 15  2  0
 15 16  1  0
 16 17  2  0
 17 18  1  0
 18 19  1  0
 18 20  2  0
 20 21  1  0
 21 22  2  0
 22 23  1  0
 23 24  2  0
 11  7  1  0
 24 14  1  0
 23 17  1  0
  3 25  1  0
  4 26  1  0
  4 27  1  0
  8 28  1  0
  8 29  1  0
  9 30  1  0
  9 31  1  0
 10 32  1  0
 10 33  1  0
 11 34  1  1
 12 35  1  0
 12 36  1  0
 13 37  1  0
 15 38  1  0
 16 39  1  0
 20 40  1  0
 21 41  1  0
 22 42  1  0
M  END
>  <smiles>  (23) 
O=C(NCC(=O)N1CCC[C@H]1CO)c1ccc2c(F)cccc2n1

>  <score_type>  (23) 
oracle

>  <origin>  (23) 
autodockgpu

>  <m_score__min__energy>  (23) 
-7.0199999999999996

>  <m_primary>  (23) 
energy

>  <rmsd>  (23) 
7.283898917992105

>  <m_score__min__rmsd>  (23) 
7.283898917992105

>  <meeko>  (23) 
{"free_energy": -6.06, "intermolecular_energy": -7.85, "internal_energy": -2.65, "cluster_size": 7, "cluster_id": 5, "rank_in_cluster": 5}

>  <energy>  (23) 
-6.69

>  <cluster_rmsd>  (23) 
1.59

>  <cluster>  (23) 
1

$$$$

     RDKit          3D

 42 44  0  0  0  0  0  0  0  0999 V2000
  141.0530   71.7640  221.4410 O   0  0  0  0  0  0  0  0  0  0  0  0
  140.3580   72.1740  222.4220 C   0  0  0  0  0  0  0  0  0  0  0  0
  139.6590   73.4020  222.3000 N   0  0  0  0  0  0  0  0  0  0  0  0
  139.8180   74.0990  221.0070 C   0  0  0  0  0  0  0  0  0  0  0  0
  140.7700   75.2080  221.1420 C   0  0  0  0  0  0  0  0  0  0  0  0
  141.0850   75.5580  222.3260 O   0  0  0  0  0  0  0  0  0  0  0  0
  141.3790   75.9370  220.0940 N   0  0  0  0  0  0  0  0  0  0  0  0
  141.0370   77.3750  219.9270 C   0  0  0  0  0  0  0  0  0  0  0  0
  141.8200   77.8210  218.7330 C   0  0  0  0  0  0  0  0  0  0  0  0
  143.0230   76.8690  218.7620 C   0  0  0  0  0  0  0  0  0  0  0  0
  142.3210   75.5590  219.0760 C   0  0  1  0  0  0  0  0  0  0  0  0
  143.3140   74.5020  219.4930 C   0  0  0  0  0  0  0  0  0  0  0  0
  143.5810   74.5350  220.8470 O   0  0  0  0  0  0  0  0  0  0  0  0
  140.2590   71.4150  223.6650 C   0  0  0  0  0  0  0  0  0  0  0  0
  139.6680   70.1610  223.6160 C   0  0  0  0  0  0  0  0  0  0  0  0
  139.5410   69.3850  224.7540 C   0  0  0  0  0  0  0  0  0  0  0  0
  140.0150   69.8840  225.9320 C   0  0  0  0  0  0  0  0  0  0  0  0
  139.8980   69.1220  227.0890 C   0  0  0  0  0  0  0  0  0  0  0  0
  139.3160   67.9110  226.9970 F   0  0  0  0  0  0  0  0  0  0  0  0
  140.3730   69.6280  228.2590 C   0  0  0  0  0  0  0  0  0  0  0  0
  140.9610   70.8680  228.3160 C   0  0  0  0  0  0  0  0  0  0  0  0
  141.0630   71.6090  227.1420 C   0  0  0  0  0  0  0  0  0  0  0  0
  140.5960   71.1370  225.9320 C   0  0  0  0  0  0  0  0  0  0  0  0
  140.7160   71.8880  224.8140 N   0  0  0  0  0  0  0  0  0  0  0  0
  139.0650   73.8150  223.0530 H   0  0  0  0  0  0  0  0  0  0  0  0
  140.1921   73.3887  220.2550 H   0  0  0  0  0  0  0  0  0  0  0  0
  138.8428   74.4996  220.6932 H   0  0  0  0  0  0  0  0  0  0  0  0
  139.9583   77.4982  219.7504 H   0  0  0  0  0  0  0  0  0  0  0  0
  141.2778   77.9647  220.8238 H   0  0  0  0  0  0  0  0  0  0  0  0
  141.2385   77.7012  217.8070 H   0  0  0  0  0  0  0  0  0  0  0  0
  142.0976   78.8851  218.7586 H   0  0  0  0  0  0  0  0  0  0  0  0
  143.5376   76.8329  217.7904 H   0  0  0  0  0  0  0  0  0  0  0  0
  143.8163   77.1490  219.4707 H   0  0  0  0  0  0  0  0  0  0  0  0
  141.8100   75.0920  218.2211 H   0  0  0  0  0  0  0  0  0  0  0  0
  142.9054   73.5132  219.2376 H   0  0  0  0  0  0  0  0  0  0  0  0
  144.2563   74.6988  218.9607 H   0  0  0  0  0  0  0  0  0  0  0  0
  143.0090   75.2110  221.3220 H   0  0  0  0  0  0  0  0  0  0  0  0
  139.2938   69.7770  222.6555 H   0  0  0  0  0  0  0  0  0  0  0  0
  139.0703   68.3918  224.7103 H   0  0  0  0  0  0  0  0  0  0  0  0
  140.2843   69.0315  229.1789 H   0  0  0  0  0  0  0  0  0  0  0  0
  141.3426   71.2664  229.2676 H   0  0  0  0  0  0  0  0  0  0  0  0
  141.5313   72.6036  227.1799 H   0  0  0  0  0  0  0  0  0  0  0  0
  1  2  2  0
  2  3  1  0
  3  4  1  0
  4  5  1  0
  5  6  2  0
  5  7  1  0
  7  8  1  0
  8  9  1  0
  9 10  1  0
 10 11  1  0
 11 12  1  0
 12 13  1  0
  2 14  1  0
 14 15  2  0
 15 16  1  0
 16 17  2  0
 17 18  1  0
 18 19  1  0
 18 20  2  0
 20 21  1  0
 21 22  2  0
 22 23  1  0
 23 24  2  0
 11  7  1  0
 24 14  1  0
 23 17  1  0
  3 25  1  0
  4 26  1  0
  4 27  1  0
  8 28  1  0
  8 29  1  0
  9 30  1  0
  9 31  1  0
 10 32  1  0
 10 33  1  0
 11 34  1  6
 12 35  1  0
 12 36  1  0
 13 37  1  0
 15 38  1  0
 16 39  1  0
 20 40  1  0
 21 41  1  0
 22 42  1  0
M  END
>  <smiles>  (24) 
O=C(NCC(=O)N1CCC[C@H]1CO)c1ccc2c(F)cccc2n1

>  <score_type>  (24) 
oracle

>  <origin>  (24) 
autodockgpu

>  <m_score__min__energy>  (24) 
-7.0199999999999996

>  <m_primary>  (24) 
energy

>  <rmsd>  (24) 
2.0790715839460026

>  <m_score__min__rmsd>  (24) 
2.0790715839460026

>  <meeko>  (24) 
{"free_energy": -6.79, "intermolecular_energy": -8.58, "internal_energy": -1.81, "cluster_size": 34, "cluster_id": 1, "rank_in_cluster": 9}

>  <energy>  (24) 
-6.67

>  <cluster_rmsd>  (24) 
1.33

>  <cluster>  (24) 
1

$$$$

     RDKit          3D

 42 44  0  0  0  0  0  0  0  0999 V2000
  141.0850   71.8140  221.4630 O   0  0  0  0  0  0  0  0  0  0  0  0
  140.3980   72.2310  222.4460 C   0  0  0  0  0  0  0  0  0  0  0  0
  139.7390   73.4820  222.3400 N   0  0  0  0  0  0  0  0  0  0  0  0
  139.9280   74.1940  221.0590 C   0  0  0  0  0  0  0  0  0  0  0  0
  141.0790   75.0990  221.1460 C   0  0  0  0  0  0  0  0  0  0  0  0
  142.2350   74.5760  221.0320 O   0  0  0  0  0  0  0  0  0  0  0  0
  141.0460   76.5000  221.3450 N   0  0  0  0  0  0  0  0  0  0  0  0
  140.7610   77.0240  222.7060 C   0  0  0  0  0  0  0  0  0  0  0  0
  140.7730   78.5130  222.5560 C   0  0  0  0  0  0  0  0  0  0  0  0
  141.7250   78.7090  221.3690 C   0  0  0  0  0  0  0  0  0  0  0  0
  141.2360   77.6060  220.4470 C   0  0  1  0  0  0  0  0  0  0  0  0
  142.2240   77.3570  219.3340 C   0  0  0  0  0  0  0  0  0  0  0  0
  143.3520   76.6910  219.7700 O   0  0  0  0  0  0  0  0  0  0  0  0
  140.2680   71.4560  223.6760 C   0  0  0  0  0  0  0  0  0  0  0  0
  139.6700   70.2060  223.5980 C   0  0  0  0  0  0  0  0  0  0  0  0
  139.5140   69.4160  224.7230 C   0  0  0  0  0  0  0  0  0  0  0  0
  139.9650   69.8970  225.9170 C   0  0  0  0  0  0  0  0  0  0  0  0
  139.8190   69.1200  227.0610 C   0  0  0  0  0  0  0  0  0  0  0  0
  139.2320   67.9140  226.9400 F   0  0  0  0  0  0  0  0  0  0  0  0
  140.2720   69.6090  228.2480 C   0  0  0  0  0  0  0  0  0  0  0  0
  140.8650   70.8440  228.3340 C   0  0  0  0  0  0  0  0  0  0  0  0
  140.9970   71.5990  227.1720 C   0  0  0  0  0  0  0  0  0  0  0  0
  140.5540   71.1460  225.9460 C   0  0  0  0  0  0  0  0  0  0  0  0
  140.7020   71.9110  224.8410 N   0  0  0  0  0  0  0  0  0  0  0  0
  139.1550   73.9020  223.0950 H   0  0  0  0  0  0  0  0  0  0  0  0
  140.1026   73.4604  220.2582 H   0  0  0  0  0  0  0  0  0  0  0  0
  139.0250   74.7827  220.8396 H   0  0  0  0  0  0  0  0  0  0  0  0
  139.7770   76.6782  223.0556 H   0  0  0  0  0  0  0  0  0  0  0  0
  141.4971   76.6765  223.4459 H   0  0  0  0  0  0  0  0  0  0  0  0
  139.7683   78.8996  222.3300 H   0  0  0  0  0  0  0  0  0  0  0  0
  141.0845   79.0469  223.4659 H   0  0  0  0  0  0  0  0  0  0  0  0
  141.6080   79.7031  220.9128 H   0  0  0  0  0  0  0  0  0  0  0  0
  142.7943   78.6585  221.6220 H   0  0  0  0  0  0  0  0  0  0  0  0
  140.3074   77.8348  219.9035 H   0  0  0  0  0  0  0  0  0  0  0  0
  141.7349   76.7517  218.5565 H   0  0  0  0  0  0  0  0  0  0  0  0
  142.5422   78.3348  218.9434 H   0  0  0  0  0  0  0  0  0  0  0  0
  143.2820   76.4390  220.7400 H   0  0  0  0  0  0  0  0  0  0  0  0
  139.3139   69.8370  222.6249 H   0  0  0  0  0  0  0  0  0  0  0  0
  139.0388   68.4262  224.6563 H   0  0  0  0  0  0  0  0  0  0  0  0
  140.1604   69.0012  229.1580 H   0  0  0  0  0  0  0  0  0  0  0  0
  141.2275   71.2282  229.2989 H   0  0  0  0  0  0  0  0  0  0  0  0
  141.4703   72.5901  227.2330 H   0  0  0  0  0  0  0  0  0  0  0  0
  1  2  2  0
  2  3  1  0
  3  4  1  0
  4  5  1  0
  5  6  2  0
  5  7  1  0
  7  8  1  0
  8  9  1  0
  9 10  1  0
 10 11  1  0
 11 12  1  0
 12 13  1  0
  2 14  1  0
 14 15  2  0
 15 16  1  0
 16 17  2  0
 17 18  1  0
 18 19  1  0
 18 20  2  0
 20 21  1  0
 21 22  2  0
 22 23  1  0
 23 24  2  0
 11  7  1  0
 24 14  1  0
 23 17  1  0
  3 25  1  0
  4 26  1  0
  4 27  1  0
  8 28  1  0
  8 29  1  0
  9 30  1  0
  9 31  1  0
 10 32  1  0
 10 33  1  0
 11 34  1  6
 12 35  1  0
 12 36  1  0
 13 37  1  0
 15 38  1  0
 16 39  1  0
 20 40  1  0
 21 41  1  0
 22 42  1  0
M  END
>  <smiles>  (25) 
O=C(NCC(=O)N1CCC[C@H]1CO)c1ccc2c(F)cccc2n1

>  <score_type>  (25) 
oracle

>  <origin>  (25) 
autodockgpu

>  <m_score__min__energy>  (25) 
-7.0199999999999996

>  <m_primary>  (25) 
energy

>  <rmsd>  (25) 
2.7213553268078168

>  <m_score__min__rmsd>  (25) 
2.7213553268078168

>  <meeko>  (25) 
{"free_energy": -6.98, "intermolecular_energy": -8.77, "internal_energy": -1.67, "cluster_size": 34, "cluster_id": 1, "rank_in_cluster": 2}

>  <energy>  (25) 
-6.67

>  <cluster_rmsd>  (25) 
1.35

>  <cluster>  (25) 
1

$$$$

     RDKit          3D

 42 44  0  0  0  0  0  0  0  0999 V2000
  141.2430   71.7060  221.3550 O   0  0  0  0  0  0  0  0  0  0  0  0
  140.5670   72.1070  222.3520 C   0  0  0  0  0  0  0  0  0  0  0  0
  140.0410   73.4240  222.3390 N   0  0  0  0  0  0  0  0  0  0  0  0
  140.3450   74.2180  221.1300 C   0  0  0  0  0  0  0  0  0  0  0  0
  140.4360   75.6430  221.4680 C   0  0  0  0  0  0  0  0  0  0  0  0
  139.9930   75.9940  222.6110 O   0  0  0  0  0  0  0  0  0  0  0  0
  140.9630   76.6770  220.6600 N   0  0  0  0  0  0  0  0  0  0  0  0
  140.8540   76.5590  219.1820 C   0  0  0  0  0  0  0  0  0  0  0  0
  141.5260   77.7840  218.6470 C   0  0  0  0  0  0  0  0  0  0  0  0
  141.3220   78.7880  219.7890 C   0  0  0  0  0  0  0  0  0  0  0  0
  141.6380   77.9050  220.9830 C   0  0  1  0  0  0  0  0  0  0  0  0
  141.1900   78.5550  222.2680 C   0  0  0  0  0  0  0  0  0  0  0  0
  141.6520   77.8880  223.3860 O   0  0  0  0  0  0  0  0  0  0  0  0
  140.3170   71.2490  223.5060 C   0  0  0  0  0  0  0  0  0  0  0  0
  139.6670   70.0420  223.2910 C   0  0  0  0  0  0  0  0  0  0  0  0
  139.3970   69.1780  224.3360 C   0  0  0  0  0  0  0  0  0  0  0  0
  139.7890   69.5420  225.5920 C   0  0  0  0  0  0  0  0  0  0  0  0
  139.5280   68.6890  226.6590 C   0  0  0  0  0  0  0  0  0  0  0  0
  138.8940   67.5280  226.4050 F   0  0  0  0  0  0  0  0  0  0  0  0
  139.9220   69.0610  227.9070 C   0  0  0  0  0  0  0  0  0  0  0  0
  140.5670   70.2530  228.1290 C   0  0  0  0  0  0  0  0  0  0  0  0
  140.8130   71.0860  227.0420 C   0  0  0  0  0  0  0  0  0  0  0  0
  140.4330   70.7520  225.7570 C   0  0  0  0  0  0  0  0  0  0  0  0
  140.6920   71.5900  224.7290 N   0  0  0  0  0  0  0  0  0  0  0  0
  139.4750   73.8370  223.1120 H   0  0  0  0  0  0  0  0  0  0  0  0
  141.3037   73.8831  220.7072 H   0  0  0  0  0  0  0  0  0  0  0  0
  139.5392   74.0747  220.3950 H   0  0  0  0  0  0  0  0  0  0  0  0
  141.3647   75.6515  218.8276 H   0  0  0  0  0  0  0  0  0  0  0  0
  139.8085   76.4815  218.8489 H   0  0  0  0  0  0  0  0  0  0  0  0
  142.5949   77.6036  218.4603 H   0  0  0  0  0  0  0  0  0  0  0  0
  141.1226   78.1240  217.6818 H   0  0  0  0  0  0  0  0  0  0  0  0
  142.0178   79.6367  219.7145 H   0  0  0  0  0  0  0  0  0  0  0  0
  140.3295   79.2615  219.8152 H   0  0  0  0  0  0  0  0  0  0  0  0
  142.7099   77.7305  221.1578 H   0  0  0  0  0  0  0  0  0  0  0  0
  141.5681   79.5877  222.2917 H   0  0  0  0  0  0  0  0  0  0  0  0
  140.0906   78.5268  222.2919 H   0  0  0  0  0  0  0  0  0  0  0  0
  141.8540   76.9250  223.1850 H   0  0  0  0  0  0  0  0  0  0  0  0
  139.3610   69.7677  222.2706 H   0  0  0  0  0  0  0  0  0  0  0  0
  138.8802   68.2230  224.1601 H   0  0  0  0  0  0  0  0  0  0  0  0
  139.7195   68.3924  228.7567 H   0  0  0  0  0  0  0  0  0  0  0  0
  140.8818   70.5424  229.1425 H   0  0  0  0  0  0  0  0  0  0  0  0
  141.3277   72.0432  227.2120 H   0  0  0  0  0  0  0  0  0  0  0  0
  1  2  2  0
  2  3  1  0
  3  4  1  0
  4  5  1  0
  5  6  2  0
  5  7  1  0
  7  8  1  0
  8  9  1  0
  9 10  1  0
 10 11  1  0
 11 12  1  0
 12 13  1  0
  2 14  1  0
 14 15  2  0
 15 16  1  0
 16 17  2  0
 17 18  1  0
 18 19  1  0
 18 20  2  0
 20 21  1  0
 21 22  2  0
 22 23  1  0
 23 24  2  0
 11  7  1  0
 24 14  1  0
 23 17  1  0
  3 25  1  0
  4 26  1  0
  4 27  1  0
  8 28  1  0
  8 29  1  0
  9 30  1  0
  9 31  1  0
 10 32  1  0
 10 33  1  0
 11 34  1  1
 12 35  1  0
 12 36  1  0
 13 37  1  0
 15 38  1  0
 16 39  1  0
 20 40  1  0
 21 41  1  0
 22 42  1  0
M  END
>  <smiles>  (26) 
O=C(NCC(=O)N1CCC[C@H]1CO)c1ccc2c(F)cccc2n1

>  <score_type>  (26) 
oracle

>  <origin>  (26) 
autodockgpu

>  <m_score__min__energy>  (26) 
-7.0199999999999996

>  <m_primary>  (26) 
energy

>  <rmsd>  (26) 
1.8344654315032698

>  <m_score__min__rmsd>  (26) 
1.8344654315032698

>  <meeko>  (26) 
{"free_energy": -6.6, "intermolecular_energy": -8.39, "internal_energy": -1.99, "cluster_size": 34, "cluster_id": 1, "rank_in_cluster": 29}

>  <energy>  (26) 
-6.66

>  <cluster_rmsd>  (26) 
1.36

>  <cluster>  (26) 
1

$$$$

     RDKit          3D

 42 44  0  0  0  0  0  0  0  0999 V2000
  141.0900   71.7880  221.4040 O   0  0  0  0  0  0  0  0  0  0  0  0
  140.4630   72.2340  222.4130 C   0  0  0  0  0  0  0  0  0  0  0  0
  139.9120   73.5400  222.3550 N   0  0  0  0  0  0  0  0  0  0  0  0
  140.1340   74.2680  221.0890 C   0  0  0  0  0  0  0  0  0  0  0  0
  140.4590   75.6730  221.3610 C   0  0  0  0  0  0  0  0  0  0  0  0
  140.0880   76.1430  222.4860 O   0  0  0  0  0  0  0  0  0  0  0  0
  141.1410   76.5690  220.5050 N   0  0  0  0  0  0  0  0  0  0  0  0
  141.2450   76.2410  219.0580 C   0  0  0  0  0  0  0  0  0  0  0  0
  142.0370   77.3640  218.4650 C   0  0  0  0  0  0  0  0  0  0  0  0
  141.7080   78.5250  219.4110 C   0  0  0  0  0  0  0  0  0  0  0  0
  141.8100   77.8180  220.7510 C   0  0  1  0  0  0  0  0  0  0  0  0
  141.2040   78.6550  221.8500 C   0  0  0  0  0  0  0  0  0  0  0  0
  141.5540   78.2060  223.1090 O   0  0  0  0  0  0  0  0  0  0  0  0
  140.2920   71.4400  223.6260 C   0  0  0  0  0  0  0  0  0  0  0  0
  139.7300   70.1770  223.5030 C   0  0  0  0  0  0  0  0  0  0  0  0
  139.5390   69.3690  224.6090 C   0  0  0  0  0  0  0  0  0  0  0  0
  139.9200   69.8440  225.8300 C   0  0  0  0  0  0  0  0  0  0  0  0
  139.7370   69.0480  226.9560 C   0  0  0  0  0  0  0  0  0  0  0  0
  139.1870   67.8300  226.7910 F   0  0  0  0  0  0  0  0  0  0  0  0
  140.1200   69.5310  228.1690 C   0  0  0  0  0  0  0  0  0  0  0  0
  140.6780   70.7790  228.2990 C   0  0  0  0  0  0  0  0  0  0  0  0
  140.8470   71.5530  227.1550 C   0  0  0  0  0  0  0  0  0  0  0  0
  140.4750   71.1060  225.9030 C   0  0  0  0  0  0  0  0  0  0  0  0
  140.6580   71.8890  224.8160 N   0  0  0  0  0  0  0  0  0  0  0  0
  139.3820   73.9880  223.1350 H   0  0  0  0  0  0  0  0  0  0  0  0
  140.9675   73.8016  220.5433 H   0  0  0  0  0  0  0  0  0  0  0  0
  139.2163   74.2231  220.4842 H   0  0  0  0  0  0  0  0  0  0  0  0
  141.7653   75.2825  218.9148 H   0  0  0  0  0  0  0  0  0  0  0  0
  140.2574   76.1356  218.5851 H   0  0  0  0  0  0  0  0  0  0  0  0
  143.1137   77.1387  218.4690 H   0  0  0  0  0  0  0  0  0  0  0  0
  141.7936   77.5690  217.4120 H   0  0  0  0  0  0  0  0  0  0  0  0
  142.4404   79.3411  219.3243 H   0  0  0  0  0  0  0  0  0  0  0  0
  140.7419   79.0153  219.2207 H   0  0  0  0  0  0  0  0  0  0  0  0
  142.8369   77.6510  221.1083 H   0  0  0  0  0  0  0  0  0  0  0  0
  141.5512   79.6925  221.7360 H   0  0  0  0  0  0  0  0  0  0  0  0
  140.1099   78.5836  221.7610 H   0  0  0  0  0  0  0  0  0  0  0  0
  141.8380   77.2420  223.0920 H   0  0  0  0  0  0  0  0  0  0  0  0
  139.4314   69.8125  222.5090 H   0  0  0  0  0  0  0  0  0  0  0  0
  139.0915   68.3693  224.5070 H   0  0  0  0  0  0  0  0  0  0  0  0
  139.9796   68.9083  229.0649 H   0  0  0  0  0  0  0  0  0  0  0  0
  140.9844   71.1582  229.2850 H   0  0  0  0  0  0  0  0  0  0  0  0
  141.2918   72.5544  227.2515 H   0  0  0  0  0  0  0  0  0  0  0  0
  1  2  2  0
  2  3  1  0
  3  4  1  0
  4  5  1  0
  5  6  2  0
  5  7  1  0
  7  8  1  0
  8  9  1  0
  9 10  1  0
 10 11  1  0
 11 12  1  0
 12 13  1  0
  2 14  1  0
 14 15  2  0
 15 16  1  0
 16 17  2  0
 17 18  1  0
 18 19  1  0
 18 20  2  0
 20 21  1  0
 21 22  2  0
 22 23  1  0
 23 24  2  0
 11  7  1  0
 24 14  1  0
 23 17  1  0
  3 25  1  0
  4 26  1  0
  4 27  1  0
  8 28  1  0
  8 29  1  0
  9 30  1  0
  9 31  1  0
 10 32  1  0
 10 33  1  0
 11 34  1  1
 12 35  1  0
 12 36  1  0
 13 37  1  0
 15 38  1  0
 16 39  1  0
 20 40  1  0
 21 41  1  0
 22 42  1  0
M  END
>  <smiles>  (27) 
O=C(NCC(=O)N1CCC[C@H]1CO)c1ccc2c(F)cccc2n1

>  <score_type>  (27) 
oracle

>  <origin>  (27) 
autodockgpu

>  <m_score__min__energy>  (27) 
-7.0199999999999996

>  <m_primary>  (27) 
energy

>  <rmsd>  (27) 
1.802920135285168

>  <m_score__min__rmsd>  (27) 
1.802920135285168

>  <meeko>  (27) 
{"free_energy": -6.76, "intermolecular_energy": -8.55, "internal_energy": -1.89, "cluster_size": 34, "cluster_id": 1, "rank_in_cluster": 12}

>  <energy>  (27) 
-6.62

>  <cluster_rmsd>  (27) 
1.41

>  <cluster>  (27) 
1

$$$$

     RDKit          3D

 42 44  0  0  0  0  0  0  0  0999 V2000
  140.8020   71.4770  221.3460 O   0  0  0  0  0  0  0  0  0  0  0  0
  140.3460   72.0240  222.3970 C   0  0  0  0  0  0  0  0  0  0  0  0
  139.9600   73.3870  222.3460 N   0  0  0  0  0  0  0  0  0  0  0  0
  140.1350   74.0510  221.0380 C   0  0  0  0  0  0  0  0  0  0  0  0
  140.9610   75.2540  221.1850 C   0  0  0  0  0  0  0  0  0  0  0  0
  140.9640   75.8160  222.3290 O   0  0  0  0  0  0  0  0  0  0  0  0
  141.7580   75.8650  220.1890 N   0  0  0  0  0  0  0  0  0  0  0  0
  142.1640   75.0650  219.0030 C   0  0  0  0  0  0  0  0  0  0  0  0
  143.0060   75.9910  218.1830 C   0  0  0  0  0  0  0  0  0  0  0  0
  142.4430   77.3650  218.5680 C   0  0  0  0  0  0  0  0  0  0  0  0
  142.3070   77.1890  220.0700 C   0  0  1  0  0  0  0  0  0  0  0  0
  141.4570   78.2830  220.6670 C   0  0  0  0  0  0  0  0  0  0  0  0
  141.5650   78.3440  222.0420 O   0  0  0  0  0  0  0  0  0  0  0  0
  140.2080   71.2870  223.6490 C   0  0  0  0  0  0  0  0  0  0  0  0
  139.6480   70.0190  223.6000 C   0  0  0  0  0  0  0  0  0  0  0  0
  139.4870   69.2620  224.7460 C   0  0  0  0  0  0  0  0  0  0  0  0
  139.8950   69.7960  225.9340 C   0  0  0  0  0  0  0  0  0  0  0  0
  139.7420   69.0530  227.1000 C   0  0  0  0  0  0  0  0  0  0  0  0
  139.1940   67.8270  227.0060 F   0  0  0  0  0  0  0  0  0  0  0  0
  140.1510   69.5940  228.2800 C   0  0  0  0  0  0  0  0  0  0  0  0
  140.7070   70.8490  228.3380 C   0  0  0  0  0  0  0  0  0  0  0  0
  140.8460   71.5680  227.1550 C   0  0  0  0  0  0  0  0  0  0  0  0
  140.4460   71.0620  225.9340 C   0  0  0  0  0  0  0  0  0  0  0  0
  140.6000   71.7930  224.8080 N   0  0  0  0  0  0  0  0  0  0  0  0
  139.5750   73.9180  223.1590 H   0  0  0  0  0  0  0  0  0  0  0  0
  140.6264   73.3562  220.3410 H   0  0  0  0  0  0  0  0  0  0  0  0
  139.1478   74.3399  220.6482 H   0  0  0  0  0  0  0  0  0  0  0  0
  142.7458   74.1839  219.3114 H   0  0  0  0  0  0  0  0  0  0  0  0
  141.2965   74.6879  218.4415 H   0  0  0  0  0  0  0  0  0  0  0  0
  144.0695   75.9061  218.4510 H   0  0  0  0  0  0  0  0  0  0  0  0
  142.9676   75.7842  217.1033 H   0  0  0  0  0  0  0  0  0  0  0  0
  143.1408   78.1767  218.3145 H   0  0  0  0  0  0  0  0  0  0  0  0
  141.5134   77.6441  218.0503 H   0  0  0  0  0  0  0  0  0  0  0  0
  143.2485   77.2764  220.6320 H   0  0  0  0  0  0  0  0  0  0  0  0
  141.7754   79.2475  220.2448 H   0  0  0  0  0  0  0  0  0  0  0  0
  140.4074   78.0622  220.4231 H   0  0  0  0  0  0  0  0  0  0  0  0
  141.8990   77.4780  222.4260 H   0  0  0  0  0  0  0  0  0  0  0  0
  139.3260   69.6080  222.6318 H   0  0  0  0  0  0  0  0  0  0  0  0
  139.0423   68.2569  224.7014 H   0  0  0  0  0  0  0  0  0  0  0  0
  140.0339   69.0139  229.2072 H   0  0  0  0  0  0  0  0  0  0  0  0
  141.0347   71.2755  229.2975 H   0  0  0  0  0  0  0  0  0  0  0  0
  141.2896   72.5738  227.1936 H   0  0  0  0  0  0  0  0  0  0  0  0
  1  2  2  0
  2  3  1  0
  3  4  1  0
  4  5  1  0
  5  6  2  0
  5  7  1  0
  7  8  1  0
  8  9  1  0
  9 10  1  0
 10 11  1  0
 11 12  1  0
 12 13  1  0
  2 14  1  0
 14 15  2  0
 15 16  1  0
 16 17  2  0
 17 18  1  0
 18 19  1  0
 18 20  2  0
 20 21  1  0
 21 22  2  0
 22 23  1  0
 23 24  2  0
 11  7  1  0
 24 14  1  0
 23 17  1  0
  3 25  1  0
  4 26  1  0
  4 27  1  0
  8 28  1  0
  8 29  1  0
  9 30  1  0
  9 31  1  0
 10 32  1  0
 10 33  1  0
 11 34  1  1
 12 35  1  0
 12 36  1  0
 13 37  1  0
 15 38  1  0
 16 39  1  0
 20 40  1  0
 21 41  1  0
 22 42  1  0
M  END
>  <smiles>  (28) 
O=C(NCC(=O)N1CCC[C@H]1CO)c1ccc2c(F)cccc2n1

>  <score_type>  (28) 
oracle

>  <origin>  (28) 
autodockgpu

>  <m_score__min__energy>  (28) 
-7.0199999999999996

>  <m_primary>  (28) 
energy

>  <rmsd>  (28) 
1.8429479956253283

>  <m_score__min__rmsd>  (28) 
1.8429479956253283

>  <meeko>  (28) 
{"free_energy": -6.76, "intermolecular_energy": -8.55, "internal_energy": -1.9, "cluster_size": 34, "cluster_id": 1, "rank_in_cluster": 13}

>  <energy>  (28) 
-6.61

>  <cluster_rmsd>  (28) 
1.4

>  <cluster>  (28) 
1

$$$$

     RDKit          3D

 42 44  0  0  0  0  0  0  0  0999 V2000
  139.9710   74.3590  222.3430 O   0  0  0  0  0  0  0  0  0  0  0  0
  140.2860   75.3520  221.6170 C   0  0  0  0  0  0  0  0  0  0  0  0
  140.6270   75.1270  220.2590 N   0  0  0  0  0  0  0  0  0  0  0  0
  140.5800   73.7180  219.8160 C   0  0  0  0  0  0  0  0  0  0  0  0
  141.9080   73.2820  219.3680 C   0  0  0  0  0  0  0  0  0  0  0  0
  141.9680   72.6700  218.2520 O   0  0  0  0  0  0  0  0  0  0  0  0
  143.1360   73.4660  220.0450 N   0  0  0  0  0  0  0  0  0  0  0  0
  143.9090   72.2680  220.4680 C   0  0  0  0  0  0  0  0  0  0  0  0
  145.1150   72.8150  221.1660 C   0  0  0  0  0  0  0  0  0  0  0  0
  145.2910   74.1780  220.4850 C   0  0  0  0  0  0  0  0  0  0  0  0
  143.8480   74.6490  220.4470 C   0  0  1  0  0  0  0  0  0  0  0  0
  143.6900   75.8290  219.5220 C   0  0  0  0  0  0  0  0  0  0  0  0
  142.7970   76.7640  220.0070 O   0  0  0  0  0  0  0  0  0  0  0  0
  140.3050   76.7130  222.1440 C   0  0  0  0  0  0  0  0  0  0  0  0
  139.0930   77.2940  222.4890 C   0  0  0  0  0  0  0  0  0  0  0  0
  139.0340   78.5790  222.9940 C   0  0  0  0  0  0  0  0  0  0  0  0
  140.2020   79.2670  223.1470 C   0  0  0  0  0  0  0  0  0  0  0  0
  140.1670   80.5630  223.6530 C   0  0  0  0  0  0  0  0  0  0  0  0
  138.9690   81.0870  223.9750 F   0  0  0  0  0  0  0  0  0  0  0  0
  141.3370   81.2410  223.8010 C   0  0  0  0  0  0  0  0  0  0  0  0
  142.5410   80.6740  223.4620 C   0  0  0  0  0  0  0  0  0  0  0  0
  142.5450   79.3770  222.9570 C   0  0  0  0  0  0  0  0  0  0  0  0
  141.3840   78.6490  222.7900 C   0  0  0  0  0  0  0  0  0  0  0  0
  141.4310   77.3910  222.2970 N   0  0  0  0  0  0  0  0  0  0  0  0
  140.8980   75.8810  219.5910 H   0  0  0  0  0  0  0  0  0  0  0  0
  140.2533   73.0846  220.6539 H   0  0  0  0  0  0  0  0  0  0  0  0
  139.8720   73.6288  218.9788 H   0  0  0  0  0  0  0  0  0  0  0  0
  143.3144   71.6457  221.1529 H   0  0  0  0  0  0  0  0  0  0  0  0
  144.1788   71.6269  219.6158 H   0  0  0  0  0  0  0  0  0  0  0  0
  144.9344   72.9284  222.2451 H   0  0  0  0  0  0  0  0  0  0  0  0
  146.0005   72.1665  221.0927 H   0  0  0  0  0  0  0  0  0  0  0  0
  145.9239   74.8522  221.0808 H   0  0  0  0  0  0  0  0  0  0  0  0
  145.7904   74.1429  219.5055 H   0  0  0  0  0  0  0  0  0  0  0  0
  143.4623   75.0344  221.4024 H   0  0  0  0  0  0  0  0  0  0  0  0
  144.6706   76.3107  219.3938 H   0  0  0  0  0  0  0  0  0  0  0  0
  143.2959   75.4543  218.5658 H   0  0  0  0  0  0  0  0  0  0  0  0
  142.7240   76.7210  221.0090 H   0  0  0  0  0  0  0  0  0  0  0  0
  138.1628   76.7216  222.3582 H   0  0  0  0  0  0  0  0  0  0  0  0
  138.0705   79.0351  223.2655 H   0  0  0  0  0  0  0  0  0  0  0  0
  141.3183   82.2656  224.2008 H   0  0  0  0  0  0  0  0  0  0  0  0
  143.4807   81.2321  223.5867 H   0  0  0  0  0  0  0  0  0  0  0  0
  143.5054   78.9166  222.6818 H   0  0  0  0  0  0  0  0  0  0  0  0
  1  2  2  0
  2  3  1  0
  3  4  1  0
  4  5  1  0
  5  6  2  0
  5  7  1  0
  7  8  1  0
  8  9  1  0
  9 10  1  0
 10 11  1  0
 11 12  1  0
 12 13  1  0
  2 14  1  0
 14 15  2  0
 15 16  1  0
 16 17  2  0
 17 18  1  0
 18 19  1  0
 18 20  2  0
 20 21  1  0
 21 22  2  0
 22 23  1  0
 23 24  2  0
 11  7  1  0
 24 14  1  0
 23 17  1  0
  3 25  1  0
  4 26  1  0
  4 27  1  0
  8 28  1  0
  8 29  1  0
  9 30  1  0
  9 31  1  0
 10 32  1  0
 10 33  1  0
 11 34  1  1
 12 35  1  0
 12 36  1  0
 13 37  1  0
 15 38  1  0
 16 39  1  0
 20 40  1  0
 21 41  1  0
 22 42  1  0
M  END
>  <smiles>  (29) 
O=C(NCC(=O)N1CCC[C@H]1CO)c1ccc2c(F)cccc2n1

>  <score_type>  (29) 
oracle

>  <origin>  (29) 
autodockgpu

>  <m_score__min__energy>  (29) 
-7.0199999999999996

>  <m_primary>  (29) 
energy

>  <rmsd>  (29) 
7.296464110103384

>  <m_score__min__rmsd>  (29) 
7.296464110103384

>  <meeko>  (29) 
{"free_energy": -6.08, "intermolecular_energy": -7.87, "internal_energy": -2.65, "cluster_size": 7, "cluster_id": 5, "rank_in_cluster": 2}

>  <energy>  (29) 
-6.6

>  <cluster_rmsd>  (29) 
1.35

>  <cluster>  (29) 
1

$$$$

     RDKit          3D

 42 44  0  0  0  0  0  0  0  0999 V2000
  141.2780   71.9640  221.3990 O   0  0  0  0  0  0  0  0  0  0  0  0
  140.5830   72.3630  222.3840 C   0  0  0  0  0  0  0  0  0  0  0  0
  140.0240   73.6660  222.3450 N   0  0  0  0  0  0  0  0  0  0  0  0
  140.3190   74.4490  221.1270 C   0  0  0  0  0  0  0  0  0  0  0  0
  140.4040   75.8770  221.4500 C   0  0  0  0  0  0  0  0  0  0  0  0
  139.8840   76.2520  222.5520 O   0  0  0  0  0  0  0  0  0  0  0  0
  141.0020   76.8930  220.6670 N   0  0  0  0  0  0  0  0  0  0  0  0
  140.8710   76.8280  219.1870 C   0  0  0  0  0  0  0  0  0  0  0  0
  141.6290   78.0150  218.6820 C   0  0  0  0  0  0  0  0  0  0  0  0
  141.5130   78.9960  219.8550 C   0  0  0  0  0  0  0  0  0  0  0  0
  141.7710   78.0550  221.0190 C   0  0  1  0  0  0  0  0  0  0  0  0
  141.3850   78.6980  222.3280 C   0  0  0  0  0  0  0  0  0  0  0  0
  141.7480   77.9330  223.4190 O   0  0  0  0  0  0  0  0  0  0  0  0
  140.3440   71.5160  223.5480 C   0  0  0  0  0  0  0  0  0  0  0  0
  139.7320   70.2880  223.3450 C   0  0  0  0  0  0  0  0  0  0  0  0
  139.4750   69.4330  224.4010 C   0  0  0  0  0  0  0  0  0  0  0  0
  139.8400   69.8280  225.6550 C   0  0  0  0  0  0  0  0  0  0  0  0
  139.5910   68.9850  226.7330 C   0  0  0  0  0  0  0  0  0  0  0  0
  138.9940   67.8030  226.4910 F   0  0  0  0  0  0  0  0  0  0  0  0
  139.9580   69.3880  227.9800 C   0  0  0  0  0  0  0  0  0  0  0  0
  140.5650   70.6020  228.1900 C   0  0  0  0  0  0  0  0  0  0  0  0
  140.8010   71.4250  227.0920 C   0  0  0  0  0  0  0  0  0  0  0  0
  140.4460   71.0590  225.8090 C   0  0  0  0  0  0  0  0  0  0  0  0
  140.6940   71.8880  224.7700 N   0  0  0  0  0  0  0  0  0  0  0  0
  139.4410   74.0760  223.1070 H   0  0  0  0  0  0  0  0  0  0  0  0
  141.2777   74.1147  220.7037 H   0  0  0  0  0  0  0  0  0  0  0  0
  139.5111   74.2941  220.3968 H   0  0  0  0  0  0  0  0  0  0  0  0
  141.3086   75.8959  218.8001 H   0  0  0  0  0  0  0  0  0  0  0  0
  139.8199   76.8389  218.8630 H   0  0  0  0  0  0  0  0  0  0  0  0
  142.6793   77.7601  218.4776 H   0  0  0  0  0  0  0  0  0  0  0  0
  141.2430   78.4143  217.7325 H   0  0  0  0  0  0  0  0  0  0  0  0
  142.2713   79.7908  219.7979 H   0  0  0  0  0  0  0  0  0  0  0  0
  140.5601   79.5431  219.9064 H   0  0  0  0  0  0  0  0  0  0  0  0
  142.8279   77.7940  221.1770 H   0  0  0  0  0  0  0  0  0  0  0  0
  141.8830   79.6761  222.4013 H   0  0  0  0  0  0  0  0  0  0  0  0
  140.2899   78.8006  222.3405 H   0  0  0  0  0  0  0  0  0  0  0  0
  141.8280   76.9600  223.1780 H   0  0  0  0  0  0  0  0  0  0  0  0
  139.4460   69.9889  222.3258 H   0  0  0  0  0  0  0  0  0  0  0  0
  138.9892   68.4602  224.2345 H   0  0  0  0  0  0  0  0  0  0  0  0
  139.7643   68.7274  228.8380 H   0  0  0  0  0  0  0  0  0  0  0  0
  140.8580   70.9169  229.2024 H   0  0  0  0  0  0  0  0  0  0  0  0
  141.2864   72.3991  227.2521 H   0  0  0  0  0  0  0  0  0  0  0  0
  1  2  2  0
  2  3  1  0
  3  4  1  0
  4  5  1  0
  5  6  2  0
  5  7  1  0
  7  8  1  0
  8  9  1  0
  9 10  1  0
 10 11  1  0
 11 12  1  0
 12 13  1  0
  2 14  1  0
 14 15  2  0
 15 16  1  0
 16 17  2  0
 17 18  1  0
 18 19  1  0
 18 20  2  0
 20 21  1  0
 21 22  2  0
 22 23  1  0
 23 24  2  0
 11  7  1  0
 24 14  1  0
 23 17  1  0
  3 25  1  0
  4 26  1  0
  4 27  1  0
  8 28  1  0
  8 29  1  0
  9 30  1  0
  9 31  1  0
 10 32  1  0
 10 33  1  0
 11 34  1  1
 12 35  1  0
 12 36  1  0
 13 37  1  0
 15 38  1  0
 16 39  1  0
 20 40  1  0
 21 41  1  0
 22 42  1  0
M  END
>  <smiles>  (30) 
O=C(NCC(=O)N1CCC[C@H]1CO)c1ccc2c(F)cccc2n1

>  <score_type>  (30) 
oracle

>  <origin>  (30) 
autodockgpu

>  <m_score__min__energy>  (30) 
-7.0199999999999996

>  <m_primary>  (30) 
energy

>  <rmsd>  (30) 
1.9753023499047389

>  <m_score__min__rmsd>  (30) 
1.9753023499047389

>  <meeko>  (30) 
{"free_energy": -6.67, "intermolecular_energy": -8.45, "internal_energy": -1.99, "cluster_size": 34, "cluster_id": 1, "rank_in_cluster": 25}

>  <energy>  (30) 
-6.28

>  <cluster_rmsd>  (30) 
1.12

>  <cluster>  (30) 
1

$$$$

     RDKit          3D

 42 44  0  0  0  0  0  0  0  0999 V2000
  139.6220   74.4600  221.9840 O   0  0  0  0  0  0  0  0  0  0  0  0
  140.5600   75.3090  221.8740 C   0  0  0  0  0  0  0  0  0  0  0  0
  141.7840   74.9060  221.2830 N   0  0  0  0  0  0  0  0  0  0  0  0
  141.8450   73.4960  220.8450 C   0  0  0  0  0  0  0  0  0  0  0  0
  143.1560   73.2030  220.2560 C   0  0  0  0  0  0  0  0  0  0  0  0
  144.0770   74.0660  220.4390 O   0  0  0  0  0  0  0  0  0  0  0  0
  143.5140   72.0620  219.5000 N   0  0  0  0  0  0  0  0  0  0  0  0
  142.5330   71.5080  218.5300 C   0  0  0  0  0  0  0  0  0  0  0  0
  143.2100   70.3120  217.9380 C   0  0  0  0  0  0  0  0  0  0  0  0
  144.6920   70.6870  218.0640 C   0  0  0  0  0  0  0  0  0  0  0  0
  144.7060   71.2600  219.4700 C   0  0  1  0  0  0  0  0  0  0  0  0
  145.9860   72.0160  219.7310 C   0  0  0  0  0  0  0  0  0  0  0  0
  146.1880   73.0380  218.8250 O   0  0  0  0  0  0  0  0  0  0  0  0
  140.4080   76.6850  222.3370 C   0  0  0  0  0  0  0  0  0  0  0  0
  139.1260   77.1500  222.5880 C   0  0  0  0  0  0  0  0  0  0  0  0
  138.9060   78.4420  223.0290 C   0  0  0  0  0  0  0  0  0  0  0  0
  139.9870   79.2530  223.2140 C   0  0  0  0  0  0  0  0  0  0  0  0
  139.7910   80.5570  223.6580 C   0  0  0  0  0  0  0  0  0  0  0  0
  138.5290   80.9670  223.8880 F   0  0  0  0  0  0  0  0  0  0  0  0
  140.8750   81.3590  223.8390 C   0  0  0  0  0  0  0  0  0  0  0  0
  142.1490   80.9070  223.5940 C   0  0  0  0  0  0  0  0  0  0  0  0
  142.3140   79.5980  223.1510 C   0  0  0  0  0  0  0  0  0  0  0  0
  141.2450   78.7470  222.9520 C   0  0  0  0  0  0  0  0  0  0  0  0
  141.4490   77.4820  222.5210 N   0  0  0  0  0  0  0  0  0  0  0  0
  142.6070   75.5350  221.1520 H   0  0  0  0  0  0  0  0  0  0  0  0
  141.6816   72.8391  221.7121 H   0  0  0  0  0  0  0  0  0  0  0  0
  141.0655   73.3219  220.0886 H   0  0  0  0  0  0  0  0  0  0  0  0
  141.6057   71.2133  219.0430 H   0  0  0  0  0  0  0  0  0  0  0  0
  142.2477   72.2438  217.7637 H   0  0  0  0  0  0  0  0  0  0  0  0
  142.9791   69.3997  218.5076 H   0  0  0  0  0  0  0  0  0  0  0  0
  142.8955   70.0901  216.9075 H   0  0  0  0  0  0  0  0  0  0  0  0
  145.3441   69.8054  217.9769 H   0  0  0  0  0  0  0  0  0  0  0  0
  145.0632   71.3685  217.2844 H   0  0  0  0  0  0  0  0  0  0  0  0
  144.6957   70.5105  220.2751 H   0  0  0  0  0  0  0  0  0  0  0  0
  145.9429   72.4446  220.7431 H   0  0  0  0  0  0  0  0  0  0  0  0
  146.8209   71.3072  219.6285 H   0  0  0  0  0  0  0  0  0  0  0  0
  145.8230   73.9110  219.1640 H   0  0  0  0  0  0  0  0  0  0  0  0
  138.2683   76.4788  222.4335 H   0  0  0  0  0  0  0  0  0  0  0  0
  137.8867   78.8059  223.2253 H   0  0  0  0  0  0  0  0  0  0  0  0
  140.7282   82.3914  224.1890 H   0  0  0  0  0  0  0  0  0  0  0  0
  143.0182   81.5642  223.7444 H   0  0  0  0  0  0  0  0  0  0  0  0
  143.3310   79.2287  222.9526 H   0  0  0  0  0  0  0  0  0  0  0  0
  1  2  2  0
  2  3  1  0
  3  4  1  0
  4  5  1  0
  5  6  2  0
  5  7  1  0
  7  8  1  0
  8  9  1  0
  9 10  1  0
 10 11  1  0
 11 12  1  0
 12 13  1  0
  2 14  1  0
 14 15  2  0
 15 16  1  0
 16 17  2  0
 17 18  1  0
 18 19  1  0
 18 20  2  0
 20 21  1  0
 21 22  2  0
 22 23  1  0
 23 24  2  0
 11  7  1  0
 24 14  1  0
 23 17  1  0
  3 25  1  0
  4 26  1  0
  4 27  1  0
  8 28  1  0
  8 29  1  0
  9 30  1  0
  9 31  1  0
 10 32  1  0
 10 33  1  0
 11 34  1  1
 12 35  1  0
 12 36  1  0
 13 37  1  0
 15 38  1  0
 16 39  1  0
 20 40  1  0
 21 41  1  0
 22 42  1  0
M  END
>  <smiles>  (31) 
O=C(NCC(=O)N1CCC[C@H]1CO)c1ccc2c(F)cccc2n1

>  <score_type>  (31) 
oracle

>  <origin>  (31) 
autodockgpu

>  <m_score__min__energy>  (31) 
-7.0199999999999996

>  <m_primary>  (31) 
energy

>  <rmsd>  (31) 
7.608115007767586

>  <m_score__min__rmsd>  (31) 
7.608115007767586

>  <meeko>  (31) 
{"free_energy": -6.01, "intermolecular_energy": -7.8, "internal_energy": -2.28, "cluster_size": 7, "cluster_id": 5, "rank_in_cluster": 6}

>  <energy>  (31) 
-6.24

>  <cluster_rmsd>  (31) 
1.17

>  <cluster>  (31) 
1

$$$$

     RDKit          3D

 42 44  0  0  0  0  0  0  0  0999 V2000
  140.0030   74.3290  222.3440 O   0  0  0  0  0  0  0  0  0  0  0  0
  140.3090   75.3250  221.6190 C   0  0  0  0  0  0  0  0  0  0  0  0
  140.6400   75.1050  220.2580 N   0  0  0  0  0  0  0  0  0  0  0  0
  140.5940   73.6970  219.8110 C   0  0  0  0  0  0  0  0  0  0  0  0
  141.9250   73.2580  219.3780 C   0  0  0  0  0  0  0  0  0  0  0  0
  141.9940   72.6270  218.2720 O   0  0  0  0  0  0  0  0  0  0  0  0
  143.1500   73.4580  220.0580 N   0  0  0  0  0  0  0  0  0  0  0  0
  143.9220   72.2710  220.5090 C   0  0  0  0  0  0  0  0  0  0  0  0
  145.1220   72.8330  221.2030 C   0  0  0  0  0  0  0  0  0  0  0  0
  145.3010   74.1820  220.4960 C   0  0  0  0  0  0  0  0  0  0  0  0
  143.8570   74.6500  220.4400 C   0  0  1  0  0  0  0  0  0  0  0  0
  143.7030   75.8110  219.4890 C   0  0  0  0  0  0  0  0  0  0  0  0
  142.7960   76.7480  219.9440 O   0  0  0  0  0  0  0  0  0  0  0  0
  140.3270   76.6850  222.1490 C   0  0  0  0  0  0  0  0  0  0  0  0
  139.1210   77.2470  222.5400 C   0  0  0  0  0  0  0  0  0  0  0  0
  139.0620   78.5310  223.0520 C   0  0  0  0  0  0  0  0  0  0  0  0
  140.2250   79.2350  223.1640 C   0  0  0  0  0  0  0  0  0  0  0  0
  140.1900   80.5280  223.6760 C   0  0  0  0  0  0  0  0  0  0  0  0
  138.9980   81.0340  224.0430 F   0  0  0  0  0  0  0  0  0  0  0  0
  141.3550   81.2220  223.7840 C   0  0  0  0  0  0  0  0  0  0  0  0
  142.5540   80.6730  223.4000 C   0  0  0  0  0  0  0  0  0  0  0  0
  142.5580   79.3780  222.8910 C   0  0  0  0  0  0  0  0  0  0  0  0
  141.4020   78.6340  222.7630 C   0  0  0  0  0  0  0  0  0  0  0  0
  141.4490   77.3790  222.2640 N   0  0  0  0  0  0  0  0  0  0  0  0
  140.9030   75.8620  219.5890 H   0  0  0  0  0  0  0  0  0  0  0  0
  140.2554   73.0626  220.6434 H   0  0  0  0  0  0  0  0  0  0  0  0
  139.8958   73.6121  218.9652 H   0  0  0  0  0  0  0  0  0  0  0  0
  143.3242   71.6612  221.2024 H   0  0  0  0  0  0  0  0  0  0  0  0
  144.1982   71.6140  219.6711 H   0  0  0  0  0  0  0  0  0  0  0  0
  144.9343   72.9679  222.2785 H   0  0  0  0  0  0  0  0  0  0  0  0
  146.0086   72.1841  221.1484 H   0  0  0  0  0  0  0  0  0  0  0  0
  145.9294   74.8688  221.0820 H   0  0  0  0  0  0  0  0  0  0  0  0
  145.8067   74.1282  219.5206 H   0  0  0  0  0  0  0  0  0  0  0  0
  143.4647   75.0543  221.3848 H   0  0  0  0  0  0  0  0  0  0  0  0
  144.6815   76.2979  219.3647 H   0  0  0  0  0  0  0  0  0  0  0  0
  143.3256   75.4149  218.5347 H   0  0  0  0  0  0  0  0  0  0  0  0
  142.9600   76.9850  220.9070 H   0  0  0  0  0  0  0  0  0  0  0  0
  138.1949   76.6616  222.4413 H   0  0  0  0  0  0  0  0  0  0  0  0
  138.1028   78.9724  223.3605 H   0  0  0  0  0  0  0  0  0  0  0  0
  141.3364   82.2451  224.1876 H   0  0  0  0  0  0  0  0  0  0  0  0
  143.4896   81.2440  223.4927 H   0  0  0  0  0  0  0  0  0  0  0  0
  143.5143   78.9320  222.5802 H   0  0  0  0  0  0  0  0  0  0  0  0
  1  2  2  0
  2  3  1  0
  3  4  1  0
  4  5  1  0
  5  6  2  0
  5  7  1  0
  7  8  1  0
  8  9  1  0
  9 10  1  0
 10 11  1  0
 11 12  1  0
 12 13  1  0
  2 14  1  0
 14 15  2  0
 15 16  1  0
 16 17  2  0
 17 18  1  0
 18 19  1  0
 18 20  2  0
 20 21  1  0
 21 22  2  0
 22 23  1  0
 23 24  2  0
 11  7  1  0
 24 14  1  0
 23 17  1  0
  3 25  1  0
  4 26  1  0
  4 27  1  0
  8 28  1  0
  8 29  1  0
  9 30  1  0
  9 31  1  0
 10 32  1  0
 10 33  1  0
 11 34  1  1
 12 35  1  0
 12 36  1  0
 13 37  1  0
 15 38  1  0
 16 39  1  0
 20 40  1  0
 21 41  1  0
 22 42  1  0
M  END
>  <smiles>  (32) 
O=C(NCC(=O)N1CCC[C@H]1CO)c1ccc2c(F)cccc2n1

>  <score_type>  (32) 
oracle

>  <origin>  (32) 
autodockgpu

>  <m_score__min__energy>  (32) 
-7.0199999999999996

>  <m_primary>  (32) 
energy

>  <rmsd>  (32) 
7.293558018713432

>  <m_score__min__rmsd>  (32) 
7.293558018713432

>  <meeko>  (32) 
{"free_energy": -6.07, "intermolecular_energy": -7.86, "internal_energy": -2.65, "cluster_size": 7, "cluster_id": 5, "rank_in_cluster": 3}

>  <energy>  (32) 
-6.2

>  <cluster_rmsd>  (32) 
1.7

>  <cluster>  (32) 
1

$$$$

     RDKit          3D

 42 44  0  0  0  0  0  0  0  0999 V2000
  141.3110   72.0020  221.4280 O   0  0  0  0  0  0  0  0  0  0  0  0
  140.5760   72.3710  222.3950 C   0  0  0  0  0  0  0  0  0  0  0  0
  139.9750   73.6550  222.3470 N   0  0  0  0  0  0  0  0  0  0  0  0
  140.2760   74.4540  221.1410 C   0  0  0  0  0  0  0  0  0  0  0  0
  140.4010   75.8730  221.4900 C   0  0  0  0  0  0  0  0  0  0  0  0
  139.9130   76.2370  222.6110 O   0  0  0  0  0  0  0  0  0  0  0  0
  141.0040   76.8910  220.7140 N   0  0  0  0  0  0  0  0  0  0  0  0
  140.8900   76.8260  219.2330 C   0  0  0  0  0  0  0  0  0  0  0  0
  141.6510   78.0150  218.7370 C   0  0  0  0  0  0  0  0  0  0  0  0
  141.5170   78.9960  219.9090 C   0  0  0  0  0  0  0  0  0  0  0  0
  141.7660   78.0560  221.0750 C   0  0  1  0  0  0  0  0  0  0  0  0
  141.3630   78.6970  222.3800 C   0  0  0  0  0  0  0  0  0  0  0  0
  141.7300   77.9400  223.4750 O   0  0  0  0  0  0  0  0  0  0  0  0
  140.3340   71.5110  223.5490 C   0  0  0  0  0  0  0  0  0  0  0  0
  139.7110   70.2910  223.3310 C   0  0  0  0  0  0  0  0  0  0  0  0
  139.4500   69.4240  224.3770 C   0  0  0  0  0  0  0  0  0  0  0  0
  139.8230   69.7990  225.6340 C   0  0  0  0  0  0  0  0  0  0  0  0
  139.5710   68.9430  226.7020 C   0  0  0  0  0  0  0  0  0  0  0  0
  138.9630   67.7690  226.4450 F   0  0  0  0  0  0  0  0  0  0  0  0
  139.9460   69.3260  227.9520 C   0  0  0  0  0  0  0  0  0  0  0  0
  140.5640   70.5320  228.1760 C   0  0  0  0  0  0  0  0  0  0  0  0
  140.8030   71.3680  227.0890 C   0  0  0  0  0  0  0  0  0  0  0  0
  140.4400   71.0230  225.8030 C   0  0  0  0  0  0  0  0  0  0  0  0
  140.6910   71.8630  224.7740 N   0  0  0  0  0  0  0  0  0  0  0  0
  139.3570   74.0410  223.0940 H   0  0  0  0  0  0  0  0  0  0  0  0
  141.2210   74.1039  220.7001 H   0  0  0  0  0  0  0  0  0  0  0  0
  139.4560   74.3338  220.4177 H   0  0  0  0  0  0  0  0  0  0  0  0
  141.3342   75.8950  218.8509 H   0  0  0  0  0  0  0  0  0  0  0  0
  139.8426   76.8345  218.8970 H   0  0  0  0  0  0  0  0  0  0  0  0
  142.7046   77.7631  218.5459 H   0  0  0  0  0  0  0  0  0  0  0  0
  141.2762   78.4129  217.7824 H   0  0  0  0  0  0  0  0  0  0  0  0
  142.2722   79.7943  219.8606 H   0  0  0  0  0  0  0  0  0  0  0  0
  140.5612   79.5390  219.9496 H   0  0  0  0  0  0  0  0  0  0  0  0
  142.8221   77.7990  221.2443 H   0  0  0  0  0  0  0  0  0  0  0  0
  141.8469   79.6821  222.4537 H   0  0  0  0  0  0  0  0  0  0  0  0
  140.2665   78.7844  222.3856 H   0  0  0  0  0  0  0  0  0  0  0  0
  141.8370   76.9700  223.2350 H   0  0  0  0  0  0  0  0  0  0  0  0
  139.4194   70.0080  222.3088 H   0  0  0  0  0  0  0  0  0  0  0  0
  138.9548   68.4579  224.1995 H   0  0  0  0  0  0  0  0  0  0  0  0
  139.7502   68.6555  228.8018 H   0  0  0  0  0  0  0  0  0  0  0  0
  140.8633   70.8305  229.1915 H   0  0  0  0  0  0  0  0  0  0  0  0
  141.2975   72.3355  227.2607 H   0  0  0  0  0  0  0  0  0  0  0  0
  1  2  2  0
  2  3  1  0
  3  4  1  0
  4  5  1  0
  5  6  2  0
  5  7  1  0
  7  8  1  0
  8  9  1  0
  9 10  1  0
 10 11  1  0
 11 12  1  0
 12 13  1  0
  2 14  1  0
 14 15  2  0
 15 16  1  0
 16 17  2  0
 17 18  1  0
 18 19  1  0
 18 20  2  0
 20 21  1  0
 21 22  2  0
 22 23  1  0
 23 24  2  0
 11  7  1  0
 24 14  1  0
 23 17  1  0
  3 25  1  0
  4 26  1  0
  4 27  1  0
  8 28  1  0
  8 29  1  0
  9 30  1  0
  9 31  1  0
 10 32  1  0
 10 33  1  0
 11 34  1  1
 12 35  1  0
 12 36  1  0
 13 37  1  0
 15 38  1  0
 16 39  1  0
 20 40  1  0
 21 41  1  0
 22 42  1  0
M  END
>  <smiles>  (33) 
O=C(NCC(=O)N1CCC[C@H]1CO)c1ccc2c(F)cccc2n1

>  <score_type>  (33) 
oracle

>  <origin>  (33) 
autodockgpu

>  <m_score__min__energy>  (33) 
-7.0199999999999996

>  <m_primary>  (33) 
energy

>  <rmsd>  (33) 
1.9805988412313005

>  <m_score__min__rmsd>  (33) 
1.9805988412313005

>  <meeko>  (33) 
{"free_energy": -6.71, "intermolecular_energy": -8.5, "internal_energy": -1.94, "cluster_size": 34, "cluster_id": 1, "rank_in_cluster": 19}

>  <energy>  (33) 
-6.16

>  <cluster_rmsd>  (33) 
1.24

>  <cluster>  (33) 
1

$$$$

     RDKit          3D

 42 44  0  0  0  0  0  0  0  0999 V2000
  140.0540   70.7270  221.7690 O   0  0  0  0  0  0  0  0  0  0  0  0
  139.6390   71.8640  222.1530 C   0  0  0  0  0  0  0  0  0  0  0  0
  138.5650   71.9260  223.0770 N   0  0  0  0  0  0  0  0  0  0  0  0
  138.0220   70.6210  223.5100 C   0  0  0  0  0  0  0  0  0  0  0  0
  139.0860   69.7960  224.0930 C   0  0  0  0  0  0  0  0  0  0  0  0
  139.2710   68.6440  223.5790 O   0  0  0  0  0  0  0  0  0  0  0  0
  139.9350   70.1410  225.1710 N   0  0  0  0  0  0  0  0  0  0  0  0
  140.4290   71.5390  225.2770 C   0  0  0  0  0  0  0  0  0  0  0  0
  141.3060   71.5470  226.4900 C   0  0  0  0  0  0  0  0  0  0  0  0
  140.6950   70.4220  227.3360 C   0  0  0  0  0  0  0  0  0  0  0  0
  140.4670   69.3720  226.2630 C   0  0  1  0  0  0  0  0  0  0  0  0
  139.5610   68.2750  226.7670 C   0  0  0  0  0  0  0  0  0  0  0  0
  139.2590   67.3500  225.7870 O   0  0  0  0  0  0  0  0  0  0  0  0
  140.2390   73.1040  221.6700 C   0  0  0  0  0  0  0  0  0  0  0  0
  141.0310   73.0440  220.5330 C   0  0  0  0  0  0  0  0  0  0  0  0
  141.6310   74.1790  220.0180 C   0  0  0  0  0  0  0  0  0  0  0  0
  141.4230   75.3660  220.6580 C   0  0  0  0  0  0  0  0  0  0  0  0
  142.0160   76.5200  220.1580 C   0  0  0  0  0  0  0  0  0  0  0  0
  142.7780   76.4160  219.0520 F   0  0  0  0  0  0  0  0  0  0  0  0
  141.8030   77.6990  220.8030 C   0  0  0  0  0  0  0  0  0  0  0  0
  141.0200   77.7680  221.9290 C   0  0  0  0  0  0  0  0  0  0  0  0
  140.4400   76.5960  222.4070 C   0  0  0  0  0  0  0  0  0  0  0  0
  140.6270   75.3770  221.7860 C   0  0  0  0  0  0  0  0  0  0  0  0
  140.0440   74.2620  222.2820 N   0  0  0  0  0  0  0  0  0  0  0  0
  138.1600   72.8140  223.4460 H   0  0  0  0  0  0  0  0  0  0  0  0
  137.2370   70.7861  224.2626 H   0  0  0  0  0  0  0  0  0  0  0  0
  137.6025   70.1000  222.6367 H   0  0  0  0  0  0  0  0  0  0  0  0
  141.0049   71.8149  224.3813 H   0  0  0  0  0  0  0  0  0  0  0  0
  139.6056   72.2641  225.3567 H   0  0  0  0  0  0  0  0  0  0  0  0
  142.3515   71.3269  226.2283 H   0  0  0  0  0  0  0  0  0  0  0  0
  141.3408   72.5186  227.0045 H   0  0  0  0  0  0  0  0  0  0  0  0
  141.3929   70.0691  228.1096 H   0  0  0  0  0  0  0  0  0  0  0  0
  139.7954   70.7066  227.9015 H   0  0  0  0  0  0  0  0  0  0  0  0
  141.3686   68.8228  225.9541 H   0  0  0  0  0  0  0  0  0  0  0  0
  140.0615   67.7578  227.5988 H   0  0  0  0  0  0  0  0  0  0  0  0
  138.6184   68.7406  227.0907 H   0  0  0  0  0  0  0  0  0  0  0  0
  139.6770   67.5930  224.9060 H   0  0  0  0  0  0  0  0  0  0  0  0
  141.1847   72.0769  220.0320 H   0  0  0  0  0  0  0  0  0  0  0  0
  142.2591   74.1261  219.1165 H   0  0  0  0  0  0  0  0  0  0  0  0
  142.2681   78.6168  220.4140 H   0  0  0  0  0  0  0  0  0  0  0  0
  140.8548   78.7272  222.4415 H   0  0  0  0  0  0  0  0  0  0  0  0
  139.8122   76.6427  223.3090 H   0  0  0  0  0  0  0  0  0  0  0  0
  1  2  2  0
  2  3  1  0
  3  4  1  0
  4  5  1  0
  5  6  2  0
  5  7  1  0
  7  8  1  0
  8  9  1  0
  9 10  1  0
 10 11  1  0
 11 12  1  0
 12 13  1  0
  2 14  1  0
 14 15  2  0
 15 16  1  0
 16 17  2  0
 17 18  1  0
 18 19  1  0
 18 20  2  0
 20 21  1  0
 21 22  2  0
 22 23  1  0
 23 24  2  0
 11  7  1  0
 24 14  1  0
 23 17  1  0
  3 25  1  0
  4 26  1  0
  4 27  1  0
  8 28  1  0
  8 29  1  0
  9 30  1  0
  9 31  1  0
 10 32  1  0
 10 33  1  0
 11 34  1  6
 12 35  1  0
 12 36  1  0
 13 37  1  0
 15 38  1  0
 16 39  1  0
 20 40  1  0
 21 41  1  0
 22 42  1  0
M  END
>  <smiles>  (34) 
O=C(NCC(=O)N1CCC[C@H]1CO)c1ccc2c(F)cccc2n1

>  <score_type>  (34) 
oracle

>  <origin>  (34) 
autodockgpu

>  <m_score__min__energy>  (34) 
-7.0199999999999996

>  <m_primary>  (34) 
energy

>  <rmsd>  (34) 
7.763658282896249

>  <m_score__min__rmsd>  (34) 
7.763658282896249

>  <meeko>  (34) 
{"free_energy": -6.6, "intermolecular_energy": -8.39, "internal_energy": -1.77, "cluster_size": 3, "cluster_id": 4, "rank_in_cluster": 3}

>  <energy>  (34) 
-5.32

>  <cluster_rmsd>  (34) 
1.99

>  <cluster>  (34) 
1

$$$$

     RDKit          3D

 42 44  0  0  0  0  0  0  0  0999 V2000
  141.4430   72.2860  221.5090 O   0  0  0  0  0  0  0  0  0  0  0  0
  140.5850   72.5340  222.4120 C   0  0  0  0  0  0  0  0  0  0  0  0
  139.8610   73.7510  222.3520 N   0  0  0  0  0  0  0  0  0  0  0  0
  140.1900   74.6330  221.2130 C   0  0  0  0  0  0  0  0  0  0  0  0
  140.0390   76.0400  221.5990 C   0  0  0  0  0  0  0  0  0  0  0  0
  139.2130   76.2960  222.5350 O   0  0  0  0  0  0  0  0  0  0  0  0
  140.7130   77.1520  221.0410 N   0  0  0  0  0  0  0  0  0  0  0  0
  140.5870   77.4100  219.5820 C   0  0  0  0  0  0  0  0  0  0  0  0
  141.4320   78.6190  219.3300 C   0  0  0  0  0  0  0  0  0  0  0  0
  141.3790   79.3360  220.6850 C   0  0  0  0  0  0  0  0  0  0  0  0
  141.5620   78.1560  221.6220 C   0  0  1  0  0  0  0  0  0  0  0  0
  141.2160   78.5350  223.0410 C   0  0  0  0  0  0  0  0  0  0  0  0
  139.8760   78.8340  223.1940 O   0  0  0  0  0  0  0  0  0  0  0  0
  140.3260   71.6000  223.5030 C   0  0  0  0  0  0  0  0  0  0  0  0
  139.6890   70.4050  223.2010 C   0  0  0  0  0  0  0  0  0  0  0  0
  139.4120   69.4730  224.1840 C   0  0  0  0  0  0  0  0  0  0  0  0
  139.7830   69.7570  225.4660 C   0  0  0  0  0  0  0  0  0  0  0  0
  139.5140   68.8340  226.4710 C   0  0  0  0  0  0  0  0  0  0  0  0
  138.8940   67.6880  226.1330 F   0  0  0  0  0  0  0  0  0  0  0  0
  139.8870   69.1270  227.7460 C   0  0  0  0  0  0  0  0  0  0  0  0
  140.5180   70.3070  228.0550 C   0  0  0  0  0  0  0  0  0  0  0  0
  140.7730   71.2110  227.0280 C   0  0  0  0  0  0  0  0  0  0  0  0
  140.4140   70.9590  225.7190 C   0  0  0  0  0  0  0  0  0  0  0  0
  140.6810   71.8640  224.7510 N   0  0  0  0  0  0  0  0  0  0  0  0
  139.1380   74.0380  223.0490 H   0  0  0  0  0  0  0  0  0  0  0  0
  141.2294   74.4515  220.9018 H   0  0  0  0  0  0  0  0  0  0  0  0
  139.5042   74.4144  220.3812 H   0  0  0  0  0  0  0  0  0  0  0  0
  140.9582   76.5511  219.0037 H   0  0  0  0  0  0  0  0  0  0  0  0
  139.5413   77.5651  219.2779 H   0  0  0  0  0  0  0  0  0  0  0  0
  142.4625   78.3382  219.0669 H   0  0  0  0  0  0  0  0  0  0  0  0
  141.0826   79.2358  218.4889 H   0  0  0  0  0  0  0  0  0  0  0  0
  142.1923   80.0692  220.7898 H   0  0  0  0  0  0  0  0  0  0  0  0
  140.4669   79.9257  220.8591 H   0  0  0  0  0  0  0  0  0  0  0  0
  142.5965   77.7928  221.7112 H   0  0  0  0  0  0  0  0  0  0  0  0
  141.4681   77.6934  223.7030 H   0  0  0  0  0  0  0  0  0  0  0  0
  141.7923   79.4361  223.2977 H   0  0  0  0  0  0  0  0  0  0  0  0
  139.2910   78.1470  222.7530 H   0  0  0  0  0  0  0  0  0  0  0  0
  139.3991   70.1953  222.1608 H   0  0  0  0  0  0  0  0  0  0  0  0
  138.9059   68.5275  223.9390 H   0  0  0  0  0  0  0  0  0  0  0  0
  139.6786   68.4027  228.5472 H   0  0  0  0  0  0  0  0  0  0  0  0
  140.8149   70.5324  229.0899 H   0  0  0  0  0  0  0  0  0  0  0  0
  141.2778   72.1586  227.2675 H   0  0  0  0  0  0  0  0  0  0  0  0
  1  2  2  0
  2  3  1  0
  3  4  1  0
  4  5  1  0
  5  6  2  0
  5  7  1  0
  7  8  1  0
  8  9  1  0
  9 10  1  0
 10 11  1  0
 11 12  1  0
 12 13  1  0
  2 14  1  0
 14 15  2  0
 15 16  1  0
 16 17  2  0
 17 18  1  0
 18 19  1  0
 18 20  2  0
 20 21  1  0
 21 22  2  0
 22 23  1  0
 23 24  2  0
 11  7  1  0
 24 14  1  0
 23 17  1  0
  3 25  1  0
  4 26  1  0
  4 27  1  0
  8 28  1  0
  8 29  1  0
  9 30  1  0
  9 31  1  0
 10 32  1  0
 10 33  1  0
 11 34  1  1
 12 35  1  0
 12 36  1  0
 13 37  1  0
 15 38  1  0
 16 39  1  0
 20 40  1  0
 21 41  1  0
 22 42  1  0
M  END
>  <smiles>  (35) 
O=C(NCC(=O)N1CCC[C@H]1CO)c1ccc2c(F)cccc2n1

>  <score_type>  (35) 
oracle

>  <origin>  (35) 
autodockgpu

>  <m_score__min__energy>  (35) 
-7.0199999999999996

>  <m_primary>  (35) 
energy

>  <rmsd>  (35) 
2.245916629780678

>  <m_score__min__rmsd>  (35) 
2.245916629780678

>  <meeko>  (35) 
{"free_energy": -6.2, "intermolecular_energy": -7.99, "internal_energy": -2.06, "cluster_size": 34, "cluster_id": 1, "rank_in_cluster": 32}

>  <energy>  (35) 
-6.78

>  <cluster_rmsd>  (35) 
0.0

>  <cluster>  (35) 
2

$$$$

     RDKit          3D

 42 44  0  0  0  0  0  0  0  0999 V2000
  141.3500   72.0900  221.3690 O   0  0  0  0  0  0  0  0  0  0  0  0
  140.6240   72.4550  222.3450 C   0  0  0  0  0  0  0  0  0  0  0  0
  140.0670   73.7590  222.3350 N   0  0  0  0  0  0  0  0  0  0  0  0
  140.4000   74.5840  221.1550 C   0  0  0  0  0  0  0  0  0  0  0  0
  140.4140   76.0060  221.5170 C   0  0  0  0  0  0  0  0  0  0  0  0
  139.8680   76.3250  222.6240 O   0  0  0  0  0  0  0  0  0  0  0  0
  140.9690   77.0690  220.7670 N   0  0  0  0  0  0  0  0  0  0  0  0
  140.7540   77.0980  219.2960 C   0  0  0  0  0  0  0  0  0  0  0  0
  141.4850   78.3150  218.8240 C   0  0  0  0  0  0  0  0  0  0  0  0
  141.4380   79.2200  220.0620 C   0  0  0  0  0  0  0  0  0  0  0  0
  141.7600   78.2080  221.1470 C   0  0  1  0  0  0  0  0  0  0  0  0
  141.4500   78.7660  222.5140 C   0  0  0  0  0  0  0  0  0  0  0  0
  141.7860   77.8930  223.5290 O   0  0  0  0  0  0  0  0  0  0  0  0
  140.3490   71.5680  223.4710 C   0  0  0  0  0  0  0  0  0  0  0  0
  139.7110   70.3640  223.2110 C   0  0  0  0  0  0  0  0  0  0  0  0
  139.4190   69.4740  224.2280 C   0  0  0  0  0  0  0  0  0  0  0  0
  139.7760   69.8100  225.5010 C   0  0  0  0  0  0  0  0  0  0  0  0
  139.4910   68.9300  226.5410 C   0  0  0  0  0  0  0  0  0  0  0  0
  138.8710   67.7730  226.2430 F   0  0  0  0  0  0  0  0  0  0  0  0
  139.8500   69.2740  227.8070 C   0  0  0  0  0  0  0  0  0  0  0  0
  140.4820   70.4640  228.0750 C   0  0  0  0  0  0  0  0  0  0  0  0
  140.7520   71.3240  227.0140 C   0  0  0  0  0  0  0  0  0  0  0  0
  140.4080   71.0190  225.7130 C   0  0  0  0  0  0  0  0  0  0  0  0
  140.6900   71.8820  224.7110 N   0  0  0  0  0  0  0  0  0  0  0  0
  139.4600   74.1430  223.0920 H   0  0  0  0  0  0  0  0  0  0  0  0
  141.3924   74.2953  220.7785 H   0  0  0  0  0  0  0  0  0  0  0  0
  139.6401   74.4197  220.3768 H   0  0  0  0  0  0  0  0  0  0  0  0
  141.1663   76.1926  218.8267 H   0  0  0  0  0  0  0  0  0  0  0  0
  139.6861   77.1289  219.0341 H   0  0  0  0  0  0  0  0  0  0  0  0
  142.5214   78.0747  218.5445 H   0  0  0  0  0  0  0  0  0  0  0  0
  141.0470   78.7728  217.9248 H   0  0  0  0  0  0  0  0  0  0  0  0
  142.1934   80.0181  220.0121 H   0  0  0  0  0  0  0  0  0  0  0  0
  140.4906   79.7612  220.2022 H   0  0  0  0  0  0  0  0  0  0  0  0
  142.8237   77.9395  221.2271 H   0  0  0  0  0  0  0  0  0  0  0  0
  142.0149   79.7000  222.6504 H   0  0  0  0  0  0  0  0  0  0  0  0
  140.3649   78.9388  222.5667 H   0  0  0  0  0  0  0  0  0  0  0  0
  141.8790   76.9500  223.1910 H   0  0  0  0  0  0  0  0  0  0  0  0
  139.4323   70.1128  222.1770 H   0  0  0  0  0  0  0  0  0  0  0  0
  138.9125   68.5208  224.0163 H   0  0  0  0  0  0  0  0  0  0  0  0
  139.6294   68.5840  228.6348 H   0  0  0  0  0  0  0  0  0  0  0  0
  140.7678   70.7309  229.1031 H   0  0  0  0  0  0  0  0  0  0  0  0
  141.2569   72.2794  227.2199 H   0  0  0  0  0  0  0  0  0  0  0  0
  1  2  2  0
  2  3  1  0
  3  4  1  0
  4  5  1  0
  5  6  2  0
  5  7  1  0
  7  8  1  0
  8  9  1  0
  9 10  1  0
 10 11  1  0
 11 12  1  0
 12 13  1  0
  2 14  1  0
 14 15  2  0
 15 16  1  0
 16 17  2  0
 17 18  1  0
 18 19  1  0
 18 20  2  0
 20 21  1  0
 21 22  2  0
 22 23  1  0
 23 24  2  0
 11  7  1  0
 24 14  1  0
 23 17  1  0
  3 25  1  0
  4 26  1  0
  4 27  1  0
  8 28  1  0
  8 29  1  0
  9 30  1  0
  9 31  1  0
 10 32  1  0
 10 33  1  0
 11 34  1  1
 12 35  1  0
 12 36  1  0
 13 37  1  0
 15 38  1  0
 16 39  1  0
 20 40  1  0
 21 41  1  0
 22 42  1  0
M  END
>  <smiles>  (36) 
O=C(NCC(=O)N1CCC[C@H]1CO)c1ccc2c(F)cccc2n1

>  <score_type>  (36) 
oracle

>  <origin>  (36) 
autodockgpu

>  <m_score__min__energy>  (36) 
-7.0199999999999996

>  <m_primary>  (36) 
energy

>  <rmsd>  (36) 
2.0951059453473664

>  <m_score__min__rmsd>  (36) 
2.0951059453473664

>  <meeko>  (36) 
{"free_energy": -6.61, "intermolecular_energy": -8.4, "internal_energy": -2.0, "cluster_size": 34, "cluster_id": 1, "rank_in_cluster": 28}

>  <energy>  (36) 
-6.77

>  <cluster_rmsd>  (36) 
0.09

>  <cluster>  (36) 
2

$$$$

     RDKit          3D

 42 44  0  0  0  0  0  0  0  0999 V2000
  139.8610   74.4030  222.3530 O   0  0  0  0  0  0  0  0  0  0  0  0
  140.2410   75.3820  221.6380 C   0  0  0  0  0  0  0  0  0  0  0  0
  140.6430   75.1380  220.3010 N   0  0  0  0  0  0  0  0  0  0  0  0
  140.5770   73.7280  219.8630 C   0  0  0  0  0  0  0  0  0  0  0  0
  141.8920   73.2810  219.3920 C   0  0  0  0  0  0  0  0  0  0  0  0
  141.9270   72.6660  218.2760 O   0  0  0  0  0  0  0  0  0  0  0  0
  143.1350   73.4550  220.0460 N   0  0  0  0  0  0  0  0  0  0  0  0
  143.9100   72.2520  220.4470 C   0  0  0  0  0  0  0  0  0  0  0  0
  145.1310   72.7890  221.1250 C   0  0  0  0  0  0  0  0  0  0  0  0
  145.3010   74.1550  220.4490 C   0  0  0  0  0  0  0  0  0  0  0  0
  143.8590   74.6330  220.4410 C   0  0  1  0  0  0  0  0  0  0  0  0
  143.6890   75.8190  219.5250 C   0  0  0  0  0  0  0  0  0  0  0  0
  142.8370   76.7720  220.0490 O   0  0  0  0  0  0  0  0  0  0  0  0
  140.2720   76.7460  222.1570 C   0  0  0  0  0  0  0  0  0  0  0  0
  139.0640   77.3500  222.4730 C   0  0  0  0  0  0  0  0  0  0  0  0
  139.0180   78.6400  222.9700 C   0  0  0  0  0  0  0  0  0  0  0  0
  140.1950   79.3070  223.1440 C   0  0  0  0  0  0  0  0  0  0  0  0
  140.1720   80.6060  223.6430 C   0  0  0  0  0  0  0  0  0  0  0  0
  138.9780   81.1540  223.9350 F   0  0  0  0  0  0  0  0  0  0  0  0
  141.3510   81.2630  223.8130 C   0  0  0  0  0  0  0  0  0  0  0  0
  142.5520   80.6730  223.5030 C   0  0  0  0  0  0  0  0  0  0  0  0
  142.5430   79.3730  223.0050 C   0  0  0  0  0  0  0  0  0  0  0  0
  141.3730   78.6650  222.8160 C   0  0  0  0  0  0  0  0  0  0  0  0
  141.4080   77.4040  222.3320 N   0  0  0  0  0  0  0  0  0  0  0  0
  140.9690   75.8790  219.6420 H   0  0  0  0  0  0  0  0  0  0  0  0
  140.2612   73.0994  220.7087 H   0  0  0  0  0  0  0  0  0  0  0  0
  139.8529   73.6419  219.0395 H   0  0  0  0  0  0  0  0  0  0  0  0
  143.3256   71.6282  221.1394 H   0  0  0  0  0  0  0  0  0  0  0  0
  144.1608   71.6150  219.5860 H   0  0  0  0  0  0  0  0  0  0  0  0
  144.9712   72.8968  222.2080 H   0  0  0  0  0  0  0  0  0  0  0  0
  146.0117   72.1367  221.0312 H   0  0  0  0  0  0  0  0  0  0  0  0
  145.9481   74.8226  221.0368 H   0  0  0  0  0  0  0  0  0  0  0  0
  145.7819   74.1236  219.4602 H   0  0  0  0  0  0  0  0  0  0  0  0
  143.4928   75.0151  221.4053 H   0  0  0  0  0  0  0  0  0  0  0  0
  144.6737   76.2796  219.3572 H   0  0  0  0  0  0  0  0  0  0  0  0
  143.2481   75.4559  218.5849 H   0  0  0  0  0  0  0  0  0  0  0  0
  142.6850   76.6320  221.0330 H   0  0  0  0  0  0  0  0  0  0  0  0
  138.1266   76.7936  222.3259 H   0  0  0  0  0  0  0  0  0  0  0  0
  138.0576   79.1154  223.2184 H   0  0  0  0  0  0  0  0  0  0  0  0
  141.3423   82.2898  224.2076 H   0  0  0  0  0  0  0  0  0  0  0  0
  143.4987   81.2149  223.6449 H   0  0  0  0  0  0  0  0  0  0  0  0
  143.5006   78.8937  222.7536 H   0  0  0  0  0  0  0  0  0  0  0  0
  1  2  2  0
  2  3  1  0
  3  4  1  0
  4  5  1  0
  5  6  2  0
  5  7  1  0
  7  8  1  0
  8  9  1  0
  9 10  1  0
 10 11  1  0
 11 12  1  0
 12 13  1  0
  2 14  1  0
 14 15  2  0
 15 16  1  0
 16 17  2  0
 17 18  1  0
 18 19  1  0
 18 20  2  0
 20 21  1  0
 21 22  2  0
 22 23  1  0
 23 24  2  0
 11  7  1  0
 24 14  1  0
 23 17  1  0
  3 25  1  0
  4 26  1  0
  4 27  1  0
  8 28  1  0
  8 29  1  0
  9 30  1  0
  9 31  1  0
 10 32  1  0
 10 33  1  0
 11 34  1  1
 12 35  1  0
 12 36  1  0
 13 37  1  0
 15 38  1  0
 16 39  1  0
 20 40  1  0
 21 41  1  0
 22 42  1  0
M  END
>  <smiles>  (37) 
O=C(NCC(=O)N1CCC[C@H]1CO)c1ccc2c(F)cccc2n1

>  <score_type>  (37) 
oracle

>  <origin>  (37) 
autodockgpu

>  <m_score__min__energy>  (37) 
-7.0199999999999996

>  <m_primary>  (37) 
energy

>  <rmsd>  (37) 
7.307619536535389

>  <m_score__min__rmsd>  (37) 
7.307619536535389

>  <meeko>  (37) 
{"free_energy": -6.06, "intermolecular_energy": -7.85, "internal_energy": -2.64, "cluster_size": 7, "cluster_id": 5, "rank_in_cluster": 4}

>  <energy>  (37) 
-6.76

>  <cluster_rmsd>  (37) 
0.14

>  <cluster>  (37) 
2

$$$$

     RDKit          3D

 42 44  0  0  0  0  0  0  0  0999 V2000
  139.5110   71.1860  221.2910 O   0  0  0  0  0  0  0  0  0  0  0  0
  139.6790   71.8560  222.3560 C   0  0  0  0  0  0  0  0  0  0  0  0
  139.7080   73.2710  222.2780 N   0  0  0  0  0  0  0  0  0  0  0  0
  139.5380   73.8370  220.9230 C   0  0  0  0  0  0  0  0  0  0  0  0
  140.5620   73.3050  220.0180 C   0  0  0  0  0  0  0  0  0  0  0  0
  140.1550   72.6100  219.0300 O   0  0  0  0  0  0  0  0  0  0  0  0
  141.9620   73.4790  220.1220 N   0  0  0  0  0  0  0  0  0  0  0  0
  142.4970   74.8350  220.4140 C   0  0  0  0  0  0  0  0  0  0  0  0
  143.9840   74.6680  220.4260 C   0  0  0  0  0  0  0  0  0  0  0  0
  144.1400   73.2010  220.8450 C   0  0  0  0  0  0  0  0  0  0  0  0
  143.0610   72.5610  219.9900 C   0  0  1  0  0  0  0  0  0  0  0  0
  142.7700   71.1540  220.4520 C   0  0  0  0  0  0  0  0  0  0  0  0
  141.8530   70.5130  219.6430 O   0  0  0  0  0  0  0  0  0  0  0  0
  139.8390   71.2080  223.6540 C   0  0  0  0  0  0  0  0  0  0  0  0
  139.4760   69.8740  223.7650 C   0  0  0  0  0  0  0  0  0  0  0  0
  139.6010   69.1950  224.9630 C   0  0  0  0  0  0  0  0  0  0  0  0
  140.0930   69.8730  226.0400 C   0  0  0  0  0  0  0  0  0  0  0  0
  140.2270   69.2100  227.2570 C   0  0  0  0  0  0  0  0  0  0  0  0
  139.8630   67.9160  227.3190 F   0  0  0  0  0  0  0  0  0  0  0  0
  140.7180   69.8950  228.3250 C   0  0  0  0  0  0  0  0  0  0  0  0
  141.0800   71.2160  228.2240 C   0  0  0  0  0  0  0  0  0  0  0  0
  140.9340   71.8520  226.9950 C   0  0  0  0  0  0  0  0  0  0  0  0
  140.4410   71.2000  225.8830 C   0  0  0  0  0  0  0  0  0  0  0  0
  140.3160   71.8540  224.7070 N   0  0  0  0  0  0  0  0  0  0  0  0
  139.8400   73.9010  223.0990 H   0  0  0  0  0  0  0  0  0  0  0  0
  138.5416   73.5705  220.5406 H   0  0  0  0  0  0  0  0  0  0  0  0
  139.6404   74.9309  220.9763 H   0  0  0  0  0  0  0  0  0  0  0  0
  142.1938   75.5472  219.6324 H   0  0  0  0  0  0  0  0  0  0  0  0
  142.1174   75.2336  221.3664 H   0  0  0  0  0  0  0  0  0  0  0  0
  144.4137   74.8463  219.4292 H   0  0  0  0  0  0  0  0  0  0  0  0
  144.5031   75.3751  221.0897 H   0  0  0  0  0  0  0  0  0  0  0  0
  145.1389   72.8112  220.5995 H   0  0  0  0  0  0  0  0  0  0  0  0
  144.0425   73.0168  221.9251 H   0  0  0  0  0  0  0  0  0  0  0  0
  143.3319   72.4206  218.9332 H   0  0  0  0  0  0  0  0  0  0  0  0
  143.7080   70.5794  220.4467 H   0  0  0  0  0  0  0  0  0  0  0  0
  142.3402   71.2152  221.4627 H   0  0  0  0  0  0  0  0  0  0  0  0
  140.9370   70.9170  219.7290 H   0  0  0  0  0  0  0  0  0  0  0  0
  139.0815   69.3466  222.8840 H   0  0  0  0  0  0  0  0  0  0  0  0
  139.3116   68.1370  225.0455 H   0  0  0  0  0  0  0  0  0  0  0  0
  140.8275   69.3795  229.2906 H   0  0  0  0  0  0  0  0  0  0  0  0
  141.4763   71.7589  229.0948 H   0  0  0  0  0  0  0  0  0  0  0  0
  141.2212   72.9102  226.9068 H   0  0  0  0  0  0  0  0  0  0  0  0
  1  2  2  0
  2  3  1  0
  3  4  1  0
  4  5  1  0
  5  6  2  0
  5  7  1  0
  7  8  1  0
  8  9  1  0
  9 10  1  0
 10 11  1  0
 11 12  1  0
 12 13  1  0
  2 14  1  0
 14 15  2  0
 15 16  1  0
 16 17  2  0
 17 18  1  0
 18 19  1  0
 18 20  2  0
 20 21  1  0
 21 22  2  0
 22 23  1  0
 23 24  2  0
 11  7  1  0
 24 14  1  0
 23 17  1  0
  3 25  1  0
  4 26  1  0
  4 27  1  0
  8 28  1  0
  8 29  1  0
  9 30  1  0
  9 31  1  0
 10 32  1  0
 10 33  1  0
 11 34  1  6
 12 35  1  0
 12 36  1  0
 13 37  1  0
 15 38  1  0
 16 39  1  0
 20 40  1  0
 21 41  1  0
 22 42  1  0
M  END
>  <smiles>  (38) 
O=C(NCC(=O)N1CCC[C@H]1CO)c1ccc2c(F)cccc2n1

>  <score_type>  (38) 
oracle

>  <origin>  (38) 
autodockgpu

>  <m_score__min__energy>  (38) 
-7.0199999999999996

>  <m_primary>  (38) 
energy

>  <rmsd>  (38) 
3.228352212407814

>  <m_score__min__rmsd>  (38) 
3.228352212407814

>  <meeko>  (38) 
{"free_energy": -5.48, "intermolecular_energy": -7.27, "internal_energy": -2.64, "cluster_size": 4, "cluster_id": 2, "rank_in_cluster": 4}

>  <energy>  (38) 
-5.48

>  <cluster_rmsd>  (38) 
1.84

>  <cluster>  (38) 
2

$$$$

     RDKit          3D

 42 44  0  0  0  0  0  0  0  0999 V2000
  140.9500   71.5940  221.3250 O   0  0  0  0  0  0  0  0  0  0  0  0
  140.4380   72.1250  222.3590 C   0  0  0  0  0  0  0  0  0  0  0  0
  140.0060   73.4740  222.2930 N   0  0  0  0  0  0  0  0  0  0  0  0
  140.2030   74.1420  220.9900 C   0  0  0  0  0  0  0  0  0  0  0  0
  140.8680   75.4360  221.1790 C   0  0  0  0  0  0  0  0  0  0  0  0
  140.7830   75.9650  222.3360 O   0  0  0  0  0  0  0  0  0  0  0  0
  141.5960   76.1680  220.2120 N   0  0  0  0  0  0  0  0  0  0  0  0
  141.8990   75.5260  218.9050 C   0  0  0  0  0  0  0  0  0  0  0  0
  142.6890   76.5470  218.1490 C   0  0  0  0  0  0  0  0  0  0  0  0
  142.1760   77.8620  218.7500 C   0  0  0  0  0  0  0  0  0  0  0  0
  142.1530   77.4940  220.2230 C   0  0  1  0  0  0  0  0  0  0  0  0
  141.3660   78.5050  221.0190 C   0  0  0  0  0  0  0  0  0  0  0  0
  141.6280   78.4300  222.3730 O   0  0  0  0  0  0  0  0  0  0  0  0
  140.2820   71.3830  223.6060 C   0  0  0  0  0  0  0  0  0  0  0  0
  139.7210   70.1160  223.5450 C   0  0  0  0  0  0  0  0  0  0  0  0
  139.5430   69.3560  224.6860 C   0  0  0  0  0  0  0  0  0  0  0  0
  139.9360   69.8850  225.8810 C   0  0  0  0  0  0  0  0  0  0  0  0
  139.7670   69.1380  227.0430 C   0  0  0  0  0  0  0  0  0  0  0  0
  139.2170   67.9140  226.9380 F   0  0  0  0  0  0  0  0  0  0  0  0
  140.1620   69.6740  228.2300 C   0  0  0  0  0  0  0  0  0  0  0  0
  140.7190   70.9270  228.3000 C   0  0  0  0  0  0  0  0  0  0  0  0
  140.8750   71.6510  227.1210 C   0  0  0  0  0  0  0  0  0  0  0  0
  140.4900   71.1500  225.8940 C   0  0  0  0  0  0  0  0  0  0  0  0
  140.6600   71.8850  224.7720 N   0  0  0  0  0  0  0  0  0  0  0  0
  139.5740   73.9900  223.0910 H   0  0  0  0  0  0  0  0  0  0  0  0
  140.8257   73.5043  220.3453 H   0  0  0  0  0  0  0  0  0  0  0  0
  139.2224   74.3078  220.5200 H   0  0  0  0  0  0  0  0  0  0  0  0
  142.4901   74.6100  219.0515 H   0  0  0  0  0  0  0  0  0  0  0  0
  140.9862   75.2280  218.3684 H   0  0  0  0  0  0  0  0  0  0  0  0
  143.7684   76.4239  218.3211 H   0  0  0  0  0  0  0  0  0  0  0  0
  142.5659   76.4820  217.0578 H   0  0  0  0  0  0  0  0  0  0  0  0
  142.8634   78.6970  218.5495 H   0  0  0  0  0  0  0  0  0  0  0  0
  141.2134   78.2090  218.3463 H   0  0  0  0  0  0  0  0  0  0  0  0
  143.1355   77.5042  220.7176 H   0  0  0  0  0  0  0  0  0  0  0  0
  141.6260   79.5133  220.6644 H   0  0  0  0  0  0  0  0  0  0  0  0
  140.2976   78.2885  220.8722 H   0  0  0  0  0  0  0  0  0  0  0  0
  141.8960   77.5010  222.6470 H   0  0  0  0  0  0  0  0  0  0  0  0
  139.4121   69.7085  222.5711 H   0  0  0  0  0  0  0  0  0  0  0  0
  139.0967   68.3521  224.6321 H   0  0  0  0  0  0  0  0  0  0  0  0
  140.0322   69.0906  229.1535 H   0  0  0  0  0  0  0  0  0  0  0  0
  141.0347   71.3492  229.2654 H   0  0  0  0  0  0  0  0  0  0  0  0
  141.3200   72.6558  227.1691 H   0  0  0  0  0  0  0  0  0  0  0  0
  1  2  2  0
  2  3  1  0
  3  4  1  0
  4  5  1  0
  5  6  2  0
  5  7  1  0
  7  8  1  0
  8  9  1  0
  9 10  1  0
 10 11  1  0
 11 12  1  0
 12 13  1  0
  2 14  1  0
 14 15  2  0
 15 16  1  0
 16 17  2  0
 17 18  1  0
 18 19  1  0
 18 20  2  0
 20 21  1  0
 21 22  2  0
 22 23  1  0
 23 24  2  0
 11  7  1  0
 24 14  1  0
 23 17  1  0
  3 25  1  0
  4 26  1  0
  4 27  1  0
  8 28  1  0
  8 29  1  0
  9 30  1  0
  9 31  1  0
 10 32  1  0
 10 33  1  0
 11 34  1  1
 12 35  1  0
 12 36  1  0
 13 37  1  0
 15 38  1  0
 16 39  1  0
 20 40  1  0
 21 41  1  0
 22 42  1  0
M  END
>  <smiles>  (39) 
O=C(NCC(=O)N1CCC[C@H]1CO)c1ccc2c(F)cccc2n1

>  <score_type>  (39) 
oracle

>  <origin>  (39) 
autodockgpu

>  <m_score__min__energy>  (39) 
-7.0199999999999996

>  <m_primary>  (39) 
energy

>  <rmsd>  (39) 
1.8140623364917896

>  <m_score__min__rmsd>  (39) 
1.8140623364917896

>  <meeko>  (39) 
{"free_energy": -6.74, "intermolecular_energy": -8.53, "internal_energy": -1.9, "cluster_size": 34, "cluster_id": 1, "rank_in_cluster": 16}

>  <energy>  (39) 
-6.78

>  <cluster_rmsd>  (39) 
0.0

>  <cluster>  (39) 
3

$$$$

     RDKit          3D

 42 44  0  0  0  0  0  0  0  0999 V2000
  140.9550   71.5290  221.3590 O   0  0  0  0  0  0  0  0  0  0  0  0
  140.4460   72.0700  222.3890 C   0  0  0  0  0  0  0  0  0  0  0  0
  140.0180   73.4200  222.3120 N   0  0  0  0  0  0  0  0  0  0  0  0
  140.2150   74.0770  221.0030 C   0  0  0  0  0  0  0  0  0  0  0  0
  140.8210   75.4010  221.1860 C   0  0  0  0  0  0  0  0  0  0  0  0
  140.7340   75.9200  222.3470 O   0  0  0  0  0  0  0  0  0  0  0  0
  141.4930   76.1710  220.2080 N   0  0  0  0  0  0  0  0  0  0  0  0
  141.6960   75.5910  218.8540 C   0  0  0  0  0  0  0  0  0  0  0  0
  142.4500   76.6390  218.0960 C   0  0  0  0  0  0  0  0  0  0  0  0
  142.0000   77.9280  218.7950 C   0  0  0  0  0  0  0  0  0  0  0  0
  142.0710   77.4870  220.2460 C   0  0  1  0  0  0  0  0  0  0  0  0
  141.3560   78.4670  221.1430 C   0  0  0  0  0  0  0  0  0  0  0  0
  141.7320   78.3420  222.4660 O   0  0  0  0  0  0  0  0  0  0  0  0
  140.2890   71.3400  223.6430 C   0  0  0  0  0  0  0  0  0  0  0  0
  139.7210   70.0760  223.5940 C   0  0  0  0  0  0  0  0  0  0  0  0
  139.5430   69.3260  224.7420 C   0  0  0  0  0  0  0  0  0  0  0  0
  139.9420   69.8620  225.9320 C   0  0  0  0  0  0  0  0  0  0  0  0
  139.7720   69.1270  227.1000 C   0  0  0  0  0  0  0  0  0  0  0  0
  139.2160   67.9040  227.0060 F   0  0  0  0  0  0  0  0  0  0  0  0
  140.1720   69.6700  228.2810 C   0  0  0  0  0  0  0  0  0  0  0  0
  140.7360   70.9210  228.3390 C   0  0  0  0  0  0  0  0  0  0  0  0
  140.8920   71.6340  227.1540 C   0  0  0  0  0  0  0  0  0  0  0  0
  140.5020   71.1250  225.9320 C   0  0  0  0  0  0  0  0  0  0  0  0
  140.6730   71.8500  224.8040 N   0  0  0  0  0  0  0  0  0  0  0  0
  139.5890   73.9450  223.1060 H   0  0  0  0  0  0  0  0  0  0  0  0
  140.8777   73.4570  220.3814 H   0  0  0  0  0  0  0  0  0  0  0  0
  139.2387   74.1944  220.5100 H   0  0  0  0  0  0  0  0  0  0  0  0
  142.2807   74.6612  218.9148 H   0  0  0  0  0  0  0  0  0  0  0  0
  140.7442   75.3317  218.3673 H   0  0  0  0  0  0  0  0  0  0  0  0
  143.5365   76.4937  218.1874 H   0  0  0  0  0  0  0  0  0  0  0  0
  142.2525   76.6304  217.0139 H   0  0  0  0  0  0  0  0  0  0  0  0
  142.6854   78.7634  218.5893 H   0  0  0  0  0  0  0  0  0  0  0  0
  141.0178   78.3067  218.4758 H   0  0  0  0  0  0  0  0  0  0  0  0
  143.0848   77.4598  220.6719 H   0  0  0  0  0  0  0  0  0  0  0  0
  141.5868   79.4881  220.8053 H   0  0  0  0  0  0  0  0  0  0  0  0
  140.2785   78.2549  221.0794 H   0  0  0  0  0  0  0  0  0  0  0  0
  142.0460   77.4100  222.6750 H   0  0  0  0  0  0  0  0  0  0  0  0
  139.4063   69.6625  222.6245 H   0  0  0  0  0  0  0  0  0  0  0  0
  139.0917   68.3238  224.6973 H   0  0  0  0  0  0  0  0  0  0  0  0
  140.0410   69.0950  229.2096 H   0  0  0  0  0  0  0  0  0  0  0  0
  141.0570   71.3495  229.2999 H   0  0  0  0  0  0  0  0  0  0  0  0
  141.3414   72.6373  227.1928 H   0  0  0  0  0  0  0  0  0  0  0  0
  1  2  2  0
  2  3  1  0
  3  4  1  0
  4  5  1  0
  5  6  2  0
  5  7  1  0
  7  8  1  0
  8  9  1  0
  9 10  1  0
 10 11  1  0
 11 12  1  0
 12 13  1  0
  2 14  1  0
 14 15  2  0
 15 16  1  0
 16 17  2  0
 17 18  1  0
 18 19  1  0
 18 20  2  0
 20 21  1  0
 21 22  2  0
 22 23  1  0
 23 24  2  0
 11  7  1  0
 24 14  1  0
 23 17  1  0
  3 25  1  0
  4 26  1  0
  4 27  1  0
  8 28  1  0
  8 29  1  0
  9 30  1  0
  9 31  1  0
 10 32  1  0
 10 33  1  0
 11 34  1  1
 12 35  1  0
 12 36  1  0
 13 37  1  0
 15 38  1  0
 16 39  1  0
 20 40  1  0
 21 41  1  0
 22 42  1  0
M  END
>  <smiles>  (40) 
O=C(NCC(=O)N1CCC[C@H]1CO)c1ccc2c(F)cccc2n1

>  <score_type>  (40) 
oracle

>  <origin>  (40) 
autodockgpu

>  <m_score__min__energy>  (40) 
-7.0199999999999996

>  <m_primary>  (40) 
energy

>  <rmsd>  (40) 
1.7485536413780818

>  <m_score__min__rmsd>  (40) 
1.7485536413780818

>  <meeko>  (40) 
{"free_energy": -6.72, "intermolecular_energy": -8.51, "internal_energy": -1.9, "cluster_size": 34, "cluster_id": 1, "rank_in_cluster": 17}

>  <energy>  (40) 
-6.63

>  <cluster_rmsd>  (40) 
1.11

>  <cluster>  (40) 
3

$$$$

     RDKit          3D

 42 44  0  0  0  0  0  0  0  0999 V2000
  141.5600   71.5660  221.3580 O   0  0  0  0  0  0  0  0  0  0  0  0
  140.9190   72.4870  221.9530 C   0  0  0  0  0  0  0  0  0  0  0  0
  140.0360   72.1360  223.0060 N   0  0  0  0  0  0  0  0  0  0  0  0
  139.9500   70.6930  223.3100 C   0  0  0  0  0  0  0  0  0  0  0  0
  139.3400   70.4870  224.6280 C   0  0  0  0  0  0  0  0  0  0  0  0
  138.0660   70.4810  224.6800 O   0  0  0  0  0  0  0  0  0  0  0  0
  140.0140   70.2960  225.8570 N   0  0  0  0  0  0  0  0  0  0  0  0
  140.4220   71.4890  226.6450 C   0  0  0  0  0  0  0  0  0  0  0  0
  141.1220   70.9360  227.8470 C   0  0  0  0  0  0  0  0  0  0  0  0
  140.4540   69.5640  228.0050 C   0  0  0  0  0  0  0  0  0  0  0  0
  140.4260   69.1090  226.5560 C   0  0  1  0  0  0  0  0  0  0  0  0
  139.5130   67.9210  226.3820 C   0  0  0  0  0  0  0  0  0  0  0  0
  139.2010   67.6870  225.0570 O   0  0  0  0  0  0  0  0  0  0  0  0
  141.0690   73.8910  221.5820 C   0  0  0  0  0  0  0  0  0  0  0  0
  141.9300   74.2010  220.5400 C   0  0  0  0  0  0  0  0  0  0  0  0
  142.1220   75.5080  220.1340 C   0  0  0  0  0  0  0  0  0  0  0  0
  141.4380   76.4930  220.7860 C   0  0  0  0  0  0  0  0  0  0  0  0
  141.6150   77.8160  220.3950 C   0  0  0  0  0  0  0  0  0  0  0  0
  142.4610   78.0720  219.3800 F   0  0  0  0  0  0  0  0  0  0  0  0
  140.9290   78.7910  221.0520 C   0  0  0  0  0  0  0  0  0  0  0  0
  140.0740   78.4930  222.0840 C   0  0  0  0  0  0  0  0  0  0  0  0
  139.9180   77.1600  222.4540 C   0  0  0  0  0  0  0  0  0  0  0  0
  140.5910   76.1370  221.8180 C   0  0  0  0  0  0  0  0  0  0  0  0
  140.4110   74.8550  222.2070 N   0  0  0  0  0  0  0  0  0  0  0  0
  139.4700   72.8240  223.5490 H   0  0  0  0  0  0  0  0  0  0  0  0
  139.3360   70.1966  222.5441 H   0  0  0  0  0  0  0  0  0  0  0  0
  140.9640   70.2666  223.3139 H   0  0  0  0  0  0  0  0  0  0  0  0
  141.1022   72.1253  226.0597 H   0  0  0  0  0  0  0  0  0  0  0  0
  139.5621   72.1177  226.9195 H   0  0  0  0  0  0  0  0  0  0  0  0
  142.2028   70.8357  227.6687 H   0  0  0  0  0  0  0  0  0  0  0  0
  141.0397   71.5737  228.7395 H   0  0  0  0  0  0  0  0  0  0  0  0
  141.0542   68.8886  228.6324 H   0  0  0  0  0  0  0  0  0  0  0  0
  139.4724   69.5836  228.5011 H   0  0  0  0  0  0  0  0  0  0  0  0
  141.3863   68.7379  226.1685 H   0  0  0  0  0  0  0  0  0  0  0  0
  140.0114   67.0295  226.7904 H   0  0  0  0  0  0  0  0  0  0  0  0
  138.5751   68.1376  226.9145 H   0  0  0  0  0  0  0  0  0  0  0  0
  138.5380   68.3580  224.7090 H   0  0  0  0  0  0  0  0  0  0  0  0
  142.4701   73.3916  220.0271 H   0  0  0  0  0  0  0  0  0  0  0  0
  142.8074   75.7480  219.3078 H   0  0  0  0  0  0  0  0  0  0  0  0
  141.0625   79.8401  220.7496 H   0  0  0  0  0  0  0  0  0  0  0  0
  139.5245   79.2897  222.6068 H   0  0  0  0  0  0  0  0  0  0  0  0
  139.2355   76.9141  223.2809 H   0  0  0  0  0  0  0  0  0  0  0  0
  1  2  2  0
  2  3  1  0
  3  4  1  0
  4  5  1  0
  5  6  2  0
  5  7  1  0
  7  8  1  0
  8  9  1  0
  9 10  1  0
 10 11  1  0
 11 12  1  0
 12 13  1  0
  2 14  1  0
 14 15  2  0
 15 16  1  0
 16 17  2  0
 17 18  1  0
 18 19  1  0
 18 20  2  0
 20 21  1  0
 21 22  2  0
 22 23  1  0
 23 24  2  0
 11  7  1  0
 24 14  1  0
 23 17  1  0
  3 25  1  0
  4 26  1  0
  4 27  1  0
  8 28  1  0
  8 29  1  0
  9 30  1  0
  9 31  1  0
 10 32  1  0
 10 33  1  0
 11 34  1  6
 12 35  1  0
 12 36  1  0
 13 37  1  0
 15 38  1  0
 16 39  1  0
 20 40  1  0
 21 41  1  0
 22 42  1  0
M  END
>  <smiles>  (41) 
O=C(NCC(=O)N1CCC[C@H]1CO)c1ccc2c(F)cccc2n1

>  <score_type>  (41) 
oracle

>  <origin>  (41) 
autodockgpu

>  <m_score__min__energy>  (41) 
-7.0199999999999996

>  <m_primary>  (41) 
energy

>  <rmsd>  (41) 
8.49050995582929

>  <m_score__min__rmsd>  (41) 
8.49050995582929

>  <meeko>  (41) 
{"free_energy": -6.63, "intermolecular_energy": -8.42, "internal_energy": -1.76, "cluster_size": 3, "cluster_id": 4, "rank_in_cluster": 2}

>  <energy>  (41) 
-6.7

>  <cluster_rmsd>  (41) 
0.0

>  <cluster>  (41) 
4

$$$$

     RDKit          3D

 42 44  0  0  0  0  0  0  0  0999 V2000
  141.3940   72.5710  221.9480 O   0  0  0  0  0  0  0  0  0  0  0  0
  140.3410   72.4910  222.6530 C   0  0  0  0  0  0  0  0  0  0  0  0
  139.2620   73.3670  222.3750 N   0  0  0  0  0  0  0  0  0  0  0  0
  139.4810   74.3130  221.2610 C   0  0  0  0  0  0  0  0  0  0  0  0
  140.0400   75.5720  221.7670 C   0  0  0  0  0  0  0  0  0  0  0  0
  141.2990   75.6060  221.9640 O   0  0  0  0  0  0  0  0  0  0  0  0
  139.3300   76.7590  222.0630 N   0  0  0  0  0  0  0  0  0  0  0  0
  137.8770   76.6710  222.3640 C   0  0  0  0  0  0  0  0  0  0  0  0
  137.4450   78.0840  222.5980 C   0  0  0  0  0  0  0  0  0  0  0  0
  138.7380   78.7360  223.1050 C   0  0  0  0  0  0  0  0  0  0  0  0
  139.7400   78.1360  222.1350 C   0  0  1  0  0  0  0  0  0  0  0  0
  141.1530   78.3520  222.6170 C   0  0  0  0  0  0  0  0  0  0  0  0
  142.0770   78.2770  221.5920 O   0  0  0  0  0  0  0  0  0  0  0  0
  140.2150   71.5210  223.7370 C   0  0  0  0  0  0  0  0  0  0  0  0
  139.6110   70.3040  223.4540 C   0  0  0  0  0  0  0  0  0  0  0  0
  139.4580   69.3370  224.4310 C   0  0  0  0  0  0  0  0  0  0  0  0
  139.9170   69.6100  225.6860 C   0  0  0  0  0  0  0  0  0  0  0  0
  139.7730   68.6520  226.6850 C   0  0  0  0  0  0  0  0  0  0  0  0
  139.1820   67.4850  226.3670 F   0  0  0  0  0  0  0  0  0  0  0  0
  140.2350   68.9330  227.9340 C   0  0  0  0  0  0  0  0  0  0  0  0
  140.8330   70.1350  228.2230 C   0  0  0  0  0  0  0  0  0  0  0  0
  140.9630   71.0740  227.2030 C   0  0  0  0  0  0  0  0  0  0  0  0
  140.5110   70.8340  225.9210 C   0  0  0  0  0  0  0  0  0  0  0  0
  140.6570   71.7730  224.9590 N   0  0  0  0  0  0  0  0  0  0  0  0
  138.3610   73.3720  222.9020 H   0  0  0  0  0  0  0  0  0  0  0  0
  140.1821   73.8683  220.5394 H   0  0  0  0  0  0  0  0  0  0  0  0
  138.5180   74.5194  220.7711 H   0  0  0  0  0  0  0  0  0  0  0  0
  137.3315   76.2355  221.5138 H   0  0  0  0  0  0  0  0  0  0  0  0
  137.6726   76.0268  223.2319 H   0  0  0  0  0  0  0  0  0  0  0  0
  137.0991   78.5552  221.6662 H   0  0  0  0  0  0  0  0  0  0  0  0
  136.5991   78.1784  223.2949 H   0  0  0  0  0  0  0  0  0  0  0  0
  138.6999   79.8324  223.0250 H   0  0  0  0  0  0  0  0  0  0  0  0
  138.9596   78.5560  224.1673 H   0  0  0  0  0  0  0  0  0  0  0  0
  139.7491   78.5965  221.1361 H   0  0  0  0  0  0  0  0  0  0  0  0
  141.2198   79.3473  223.0806 H   0  0  0  0  0  0  0  0  0  0  0  0
  141.3868   77.5548  223.3380 H   0  0  0  0  0  0  0  0  0  0  0  0
  142.4870   77.3620  221.5300 H   0  0  0  0  0  0  0  0  0  0  0  0
  139.2476   70.1050  222.4350 H   0  0  0  0  0  0  0  0  0  0  0  0
  138.9790   68.3736  224.2020 H   0  0  0  0  0  0  0  0  0  0  0  0
  140.1270   68.1808  228.7294 H   0  0  0  0  0  0  0  0  0  0  0  0
  141.2008   70.3511  229.2369 H   0  0  0  0  0  0  0  0  0  0  0  0
  141.4417   72.0389  227.4262 H   0  0  0  0  0  0  0  0  0  0  0  0
  1  2  2  0
  2  3  1  0
  3  4  1  0
  4  5  1  0
  5  6  2  0
  5  7  1  0
  7  8  1  0
  8  9  1  0
  9 10  1  0
 10 11  1  0
 11 12  1  0
 12 13  1  0
  2 14  1  0
 14 15  2  0
 15 16  1  0
 16 17  2  0
 17 18  1  0
 18 19  1  0
 18 20  2  0
 20 21  1  0
 21 22  2  0
 22 23  1  0
 23 24  2  0
 11  7  1  0
 24 14  1  0
 23 17  1  0
  3 25  1  0
  4 26  1  0
  4 27  1  0
  8 28  1  0
  8 29  1  0
  9 30  1  0
  9 31  1  0
 10 32  1  0
 10 33  1  0
 11 34  1  6
 12 35  1  0
 12 36  1  0
 13 37  1  0
 15 38  1  0
 16 39  1  0
 20 40  1  0
 21 41  1  0
 22 42  1  0
M  END
>  <smiles>  (42) 
O=C(NCC(=O)N1CCC[C@H]1CO)c1ccc2c(F)cccc2n1

>  <score_type>  (42) 
oracle

>  <origin>  (42) 
autodockgpu

>  <m_score__min__energy>  (42) 
-7.0199999999999996

>  <m_primary>  (42) 
energy

>  <rmsd>  (42) 
2.977836479883744

>  <m_score__min__rmsd>  (42) 
2.977836479883744

>  <meeko>  (42) 
{"free_energy": -6.98, "intermolecular_energy": -8.77, "internal_energy": -1.51, "cluster_size": 34, "cluster_id": 1, "rank_in_cluster": 3}

>  <energy>  (42) 
-6.63

>  <cluster_rmsd>  (42) 
0.27

>  <cluster>  (42) 
4

$$$$

     RDKit          3D

 42 44  0  0  0  0  0  0  0  0999 V2000
  141.2090   71.8640  221.3780 O   0  0  0  0  0  0  0  0  0  0  0  0
  140.5610   72.2980  222.3800 C   0  0  0  0  0  0  0  0  0  0  0  0
  140.0480   73.6190  222.3440 N   0  0  0  0  0  0  0  0  0  0  0  0
  140.3300   74.3780  221.1080 C   0  0  0  0  0  0  0  0  0  0  0  0
  140.4300   75.8120  221.4030 C   0  0  0  0  0  0  0  0  0  0  0  0
  139.9090   76.2140  222.4950 O   0  0  0  0  0  0  0  0  0  0  0  0
  141.0440   76.8040  220.6040 N   0  0  0  0  0  0  0  0  0  0  0  0
  140.9630   76.6840  219.1240 C   0  0  0  0  0  0  0  0  0  0  0  0
  141.7270   77.8600  218.6010 C   0  0  0  0  0  0  0  0  0  0  0  0
  141.5600   78.8820  219.7330 C   0  0  0  0  0  0  0  0  0  0  0  0
  141.7890   77.9870  220.9380 C   0  0  1  0  0  0  0  0  0  0  0  0
  141.3520   78.6730  222.2090 C   0  0  0  0  0  0  0  0  0  0  0  0
  141.6490   77.9330  223.3360 O   0  0  0  0  0  0  0  0  0  0  0  0
  140.3310   71.4730  223.5620 C   0  0  0  0  0  0  0  0  0  0  0  0
  139.7460   70.2280  223.3820 C   0  0  0  0  0  0  0  0  0  0  0  0
  139.4990   69.3920  224.4560 C   0  0  0  0  0  0  0  0  0  0  0  0
  139.8460   69.8230  225.7030 C   0  0  0  0  0  0  0  0  0  0  0  0
  139.6060   69.0000  226.7980 C   0  0  0  0  0  0  0  0  0  0  0  0
  139.0370   67.7990  226.5790 F   0  0  0  0  0  0  0  0  0  0  0  0
  139.9560   69.4380  228.0380 C   0  0  0  0  0  0  0  0  0  0  0  0
  140.5350   70.6690  228.2240 C   0  0  0  0  0  0  0  0  0  0  0  0
  140.7620   71.4720  227.1100 C   0  0  0  0  0  0  0  0  0  0  0  0
  140.4250   71.0700  225.8330 C   0  0  0  0  0  0  0  0  0  0  0  0
  140.6640   71.8800  224.7770 N   0  0  0  0  0  0  0  0  0  0  0  0
  139.5050   74.0580  223.1190 H   0  0  0  0  0  0  0  0  0  0  0  0
  141.2798   74.0291  220.6766 H   0  0  0  0  0  0  0  0  0  0  0  0
  139.5096   74.2159  220.3933 H   0  0  0  0  0  0  0  0  0  0  0  0
  141.4216   75.7430  218.7861 H   0  0  0  0  0  0  0  0  0  0  0  0
  139.9232   76.6724  218.7653 H   0  0  0  0  0  0  0  0  0  0  0  0
  142.7863   77.6094  218.4426 H   0  0  0  0  0  0  0  0  0  0  0  0
  141.3711   78.2197  217.6243 H   0  0  0  0  0  0  0  0  0  0  0  0
  142.3107   79.6837  219.6723 H   0  0  0  0  0  0  0  0  0  0  0  0
  140.5999   79.4188  219.7324 H   0  0  0  0  0  0  0  0  0  0  0  0
  142.8427   77.7441  221.1399 H   0  0  0  0  0  0  0  0  0  0  0  0
  141.8631   79.6445  222.2796 H   0  0  0  0  0  0  0  0  0  0  0  0
  140.2595   78.7941  222.1659 H   0  0  0  0  0  0  0  0  0  0  0  0
  141.8350   76.9720  223.1100 H   0  0  0  0  0  0  0  0  0  0  0  0
  139.4739   69.9000  222.3679 H   0  0  0  0  0  0  0  0  0  0  0  0
  139.0350   68.4056  224.3085 H   0  0  0  0  0  0  0  0  0  0  0  0
  139.7712   68.7925  228.9093 H   0  0  0  0  0  0  0  0  0  0  0  0
  140.8133   71.0130  229.2311 H   0  0  0  0  0  0  0  0  0  0  0  0
  141.2252   72.4596  227.2518 H   0  0  0  0  0  0  0  0  0  0  0  0
  1  2  2  0
  2  3  1  0
  3  4  1  0
  4  5  1  0
  5  6  2  0
  5  7  1  0
  7  8  1  0
  8  9  1  0
  9 10  1  0
 10 11  1  0
 11 12  1  0
 12 13  1  0
  2 14  1  0
 14 15  2  0
 15 16  1  0
 16 17  2  0
 17 18  1  0
 18 19  1  0
 18 20  2  0
 20 21  1  0
 21 22  2  0
 22 23  1  0
 23 24  2  0
 11  7  1  0
 24 14  1  0
 23 17  1  0
  3 25  1  0
  4 26  1  0
  4 27  1  0
  8 28  1  0
  8 29  1  0
  9 30  1  0
  9 31  1  0
 10 32  1  0
 10 33  1  0
 11 34  1  1
 12 35  1  0
 12 36  1  0
 13 37  1  0
 15 38  1  0
 16 39  1  0
 20 40  1  0
 21 41  1  0
 22 42  1  0
M  END
>  <smiles>  (43) 
O=C(NCC(=O)N1CCC[C@H]1CO)c1ccc2c(F)cccc2n1

>  <score_type>  (43) 
oracle

>  <origin>  (43) 
autodockgpu

>  <m_score__min__energy>  (43) 
-7.0199999999999996

>  <m_primary>  (43) 
energy

>  <rmsd>  (43) 
1.927135015399504

>  <m_score__min__rmsd>  (43) 
1.927135015399504

>  <meeko>  (43) 
{"free_energy": -6.67, "intermolecular_energy": -8.46, "internal_energy": -1.99, "cluster_size": 34, "cluster_id": 1, "rank_in_cluster": 24}

>  <energy>  (43) 
-6.6

>  <cluster_rmsd>  (43) 
1.04

>  <cluster>  (43) 
4

$$$$

     RDKit          3D

 42 44  0  0  0  0  0  0  0  0999 V2000
  140.8780   71.5220  221.3590 O   0  0  0  0  0  0  0  0  0  0  0  0
  140.3970   72.0650  222.4000 C   0  0  0  0  0  0  0  0  0  0  0  0
  139.9800   73.4180  222.3370 N   0  0  0  0  0  0  0  0  0  0  0  0
  140.1550   74.0770  221.0260 C   0  0  0  0  0  0  0  0  0  0  0  0
  140.7860   75.3900  221.1980 C   0  0  0  0  0  0  0  0  0  0  0  0
  140.6220   75.9670  222.3230 O   0  0  0  0  0  0  0  0  0  0  0  0
  141.5600   76.0930  220.2450 N   0  0  0  0  0  0  0  0  0  0  0  0
  141.8540   75.4440  218.9400 C   0  0  0  0  0  0  0  0  0  0  0  0
  142.7010   76.4320  218.2010 C   0  0  0  0  0  0  0  0  0  0  0  0
  142.2380   77.7660  218.8000 C   0  0  0  0  0  0  0  0  0  0  0  0
  142.1750   77.3920  220.2710 C   0  0  1  0  0  0  0  0  0  0  0  0
  141.4230   78.4340  221.0600 C   0  0  0  0  0  0  0  0  0  0  0  0
  141.7120   78.3840  222.4100 O   0  0  0  0  0  0  0  0  0  0  0  0
  140.2620   71.3330  223.6560 C   0  0  0  0  0  0  0  0  0  0  0  0
  139.6970   70.0660  223.6130 C   0  0  0  0  0  0  0  0  0  0  0  0
  139.5370   69.3150  224.7630 C   0  0  0  0  0  0  0  0  0  0  0  0
  139.9520   69.8500  225.9470 C   0  0  0  0  0  0  0  0  0  0  0  0
  139.8020   69.1130  227.1170 C   0  0  0  0  0  0  0  0  0  0  0  0
  139.2480   67.8880  227.0300 F   0  0  0  0  0  0  0  0  0  0  0  0
  140.2180   69.6560  228.2930 C   0  0  0  0  0  0  0  0  0  0  0  0
  140.7790   70.9080  228.3440 C   0  0  0  0  0  0  0  0  0  0  0  0
  140.9160   71.6230  227.1580 C   0  0  0  0  0  0  0  0  0  0  0  0
  140.5090   71.1140  225.9410 C   0  0  0  0  0  0  0  0  0  0  0  0
  140.6610   71.8410  224.8120 N   0  0  0  0  0  0  0  0  0  0  0  0
  139.5730   73.9450  223.1410 H   0  0  0  0  0  0  0  0  0  0  0  0
  140.7922   73.4489  220.3860 H   0  0  0  0  0  0  0  0  0  0  0  0
  139.1686   74.2119  220.5581 H   0  0  0  0  0  0  0  0  0  0  0  0
  142.4010   74.5017  219.0909 H   0  0  0  0  0  0  0  0  0  0  0  0
  140.9371   75.1897  218.3880 H   0  0  0  0  0  0  0  0  0  0  0  0
  143.7710   76.2600  218.3894 H   0  0  0  0  0  0  0  0  0  0  0  0
  142.5923   76.3770  217.1078 H   0  0  0  0  0  0  0  0  0  0  0  0
  142.9653   78.5702  218.6148 H   0  0  0  0  0  0  0  0  0  0  0  0
  141.2988   78.1582  218.3828 H   0  0  0  0  0  0  0  0  0  0  0  0
  143.1491   77.3551  220.7807 H   0  0  0  0  0  0  0  0  0  0  0  0
  141.6933   79.4294  220.6777 H   0  0  0  0  0  0  0  0  0  0  0  0
  140.3481   78.2337  220.9400 H   0  0  0  0  0  0  0  0  0  0  0  0
  141.9160   77.4470  222.7100 H   0  0  0  0  0  0  0  0  0  0  0  0
  139.3709   69.6521  222.6474 H   0  0  0  0  0  0  0  0  0  0  0  0
  139.0867   68.3121  224.7239 H   0  0  0  0  0  0  0  0  0  0  0  0
  140.1024   69.0796  229.2228 H   0  0  0  0  0  0  0  0  0  0  0  0
  141.1127   71.3363  229.3007 H   0  0  0  0  0  0  0  0  0  0  0  0
  141.3635   72.6273  227.1914 H   0  0  0  0  0  0  0  0  0  0  0  0
  1  2  2  0
  2  3  1  0
  3  4  1  0
  4  5  1  0
  5  6  2  0
  5  7  1  0
  7  8  1  0
  8  9  1  0
  9 10  1  0
 10 11  1  0
 11 12  1  0
 12 13  1  0
  2 14  1  0
 14 15  2  0
 15 16  1  0
 16 17  2  0
 17 18  1  0
 18 19  1  0
 18 20  2  0
 20 21  1  0
 21 22  2  0
 22 23  1  0
 23 24  2  0
 11  7  1  0
 24 14  1  0
 23 17  1  0
  3 25  1  0
  4 26  1  0
  4 27  1  0
  8 28  1  0
  8 29  1  0
  9 30  1  0
  9 31  1  0
 10 32  1  0
 10 33  1  0
 11 34  1  1
 12 35  1  0
 12 36  1  0
 13 37  1  0
 15 38  1  0
 16 39  1  0
 20 40  1  0
 21 41  1  0
 22 42  1  0
M  END
>  <smiles>  (44) 
O=C(NCC(=O)N1CCC[C@H]1CO)c1ccc2c(F)cccc2n1

>  <score_type>  (44) 
oracle

>  <origin>  (44) 
autodockgpu

>  <m_score__min__energy>  (44) 
-7.0199999999999996

>  <m_primary>  (44) 
energy

>  <rmsd>  (44) 
1.7891283330675436

>  <m_score__min__rmsd>  (44) 
1.7891283330675436

>  <meeko>  (44) 
{"free_energy": -6.76, "intermolecular_energy": -8.55, "internal_energy": -1.91, "cluster_size": 34, "cluster_id": 1, "rank_in_cluster": 11}

>  <energy>  (44) 
-6.18

>  <cluster_rmsd>  (44) 
0.0

>  <cluster>  (44) 
5

$$$$

     RDKit          3D

 42 44  0  0  0  0  0  0  0  0999 V2000
  141.3840   72.1200  221.4130 O   0  0  0  0  0  0  0  0  0  0  0  0
  140.6090   72.4500  222.3630 C   0  0  0  0  0  0  0  0  0  0  0  0
  140.0010   73.7310  222.3380 N   0  0  0  0  0  0  0  0  0  0  0  0
  140.3450   74.5750  221.1750 C   0  0  0  0  0  0  0  0  0  0  0  0
  140.3700   75.9900  221.5640 C   0  0  0  0  0  0  0  0  0  0  0  0
  139.8180   76.2930  222.6720 O   0  0  0  0  0  0  0  0  0  0  0  0
  140.9420   77.0610  220.8380 N   0  0  0  0  0  0  0  0  0  0  0  0
  140.7220   77.1310  219.3690 C   0  0  0  0  0  0  0  0  0  0  0  0
  141.4740   78.3460  218.9250 C   0  0  0  0  0  0  0  0  0  0  0  0
  141.4470   79.2210  220.1850 C   0  0  0  0  0  0  0  0  0  0  0  0
  141.7540   78.1760  221.2440 C   0  0  1  0  0  0  0  0  0  0  0  0
  141.4590   78.7060  222.6250 C   0  0  0  0  0  0  0  0  0  0  0  0
  141.8110   77.8130  223.6190 O   0  0  0  0  0  0  0  0  0  0  0  0
  140.3270   71.5460  223.4740 C   0  0  0  0  0  0  0  0  0  0  0  0
  139.6540   70.3650  223.1980 C   0  0  0  0  0  0  0  0  0  0  0  0
  139.3540   69.4610  224.2000 C   0  0  0  0  0  0  0  0  0  0  0  0
  139.7370   69.7600  225.4750 C   0  0  0  0  0  0  0  0  0  0  0  0
  139.4450   68.8660  226.5000 C   0  0  0  0  0  0  0  0  0  0  0  0
  138.7910   67.7310  226.1870 F   0  0  0  0  0  0  0  0  0  0  0  0
  139.8310   69.1730  227.7680 C   0  0  0  0  0  0  0  0  0  0  0  0
  140.4980   70.3400  228.0500 C   0  0  0  0  0  0  0  0  0  0  0  0
  140.7750   71.2160  227.0050 C   0  0  0  0  0  0  0  0  0  0  0  0
  140.4040   70.9480  225.7020 C   0  0  0  0  0  0  0  0  0  0  0  0
  140.6940   71.8250  224.7150 N   0  0  0  0  0  0  0  0  0  0  0  0
  139.3520   74.0860  223.0730 H   0  0  0  0  0  0  0  0  0  0  0  0
  141.3362   74.2849  220.7963 H   0  0  0  0  0  0  0  0  0  0  0  0
  139.5864   74.4320  220.3914 H   0  0  0  0  0  0  0  0  0  0  0  0
  141.1156   76.2303  218.8753 H   0  0  0  0  0  0  0  0  0  0  0  0
  139.6539   77.1881  219.1123 H   0  0  0  0  0  0  0  0  0  0  0  0
  142.5051   78.0938  218.6364 H   0  0  0  0  0  0  0  0  0  0  0  0
  141.0419   78.8338  218.0388 H   0  0  0  0  0  0  0  0  0  0  0  0
  142.2166   80.0063  220.1523 H   0  0  0  0  0  0  0  0  0  0  0  0
  140.5101   79.7757  220.3418 H   0  0  0  0  0  0  0  0  0  0  0  0
  142.8127   77.8858  221.3143 H   0  0  0  0  0  0  0  0  0  0  0  0
  142.0224   79.6391  222.7729 H   0  0  0  0  0  0  0  0  0  0  0  0
  140.3742   78.8743  222.6946 H   0  0  0  0  0  0  0  0  0  0  0  0
  141.8360   76.8690  223.2760 H   0  0  0  0  0  0  0  0  0  0  0  0
  139.3536   70.1437  222.1632 H   0  0  0  0  0  0  0  0  0  0  0  0
  138.8207   68.5255  223.9753 H   0  0  0  0  0  0  0  0  0  0  0  0
  139.6041   68.4717  228.5846 H   0  0  0  0  0  0  0  0  0  0  0  0
  140.8064   70.5769  229.0790 H   0  0  0  0  0  0  0  0  0  0  0  0
  141.3073   72.1534  227.2241 H   0  0  0  0  0  0  0  0  0  0  0  0
  1  2  2  0
  2  3  1  0
  3  4  1  0
  4  5  1  0
  5  6  2  0
  5  7  1  0
  7  8  1  0
  8  9  1  0
  9 10  1  0
 10 11  1  0
 11 12  1  0
 12 13  1  0
  2 14  1  0
 14 15  2  0
 15 16  1  0
 16 17  2  0
 17 18  1  0
 18 19  1  0
 18 20  2  0
 20 21  1  0
 21 22  2  0
 22 23  1  0
 23 24  2  0
 11  7  1  0
 24 14  1  0
 23 17  1  0
  3 25  1  0
  4 26  1  0
  4 27  1  0
  8 28  1  0
  8 29  1  0
  9 30  1  0
  9 31  1  0
 10 32  1  0
 10 33  1  0
 11 34  1  1
 12 35  1  0
 12 36  1  0
 13 37  1  0
 15 38  1  0
 16 39  1  0
 20 40  1  0
 21 41  1  0
 22 42  1  0
M  END
>  <smiles>  (45) 
O=C(NCC(=O)N1CCC[C@H]1CO)c1ccc2c(F)cccc2n1

>  <score_type>  (45) 
oracle

>  <origin>  (45) 
autodockgpu

>  <m_score__min__energy>  (45) 
-7.0199999999999996

>  <m_primary>  (45) 
energy

>  <rmsd>  (45) 
2.1067238742935697

>  <m_score__min__rmsd>  (45) 
2.1067238742935697

>  <meeko>  (45) 
{"free_energy": -6.62, "intermolecular_energy": -8.41, "internal_energy": -1.98, "cluster_size": 34, "cluster_id": 1, "rank_in_cluster": 27}

>  <energy>  (45) 
-6.08

>  <cluster_rmsd>  (45) 
1.53

>  <cluster>  (45) 
5

$$$$

     RDKit          3D

 42 44  0  0  0  0  0  0  0  0999 V2000
  140.1480   71.1230  221.2610 O   0  0  0  0  0  0  0  0  0  0  0  0
  139.9970   71.7640  222.3460 C   0  0  0  0  0  0  0  0  0  0  0  0
  139.7800   73.1640  222.2900 N   0  0  0  0  0  0  0  0  0  0  0  0
  139.7520   73.7510  220.9340 C   0  0  0  0  0  0  0  0  0  0  0  0
  140.9400   74.5840  220.7170 C   0  0  0  0  0  0  0  0  0  0  0  0
  140.7550   75.8420  220.6350 O   0  0  0  0  0  0  0  0  0  0  0  0
  142.2770   74.1410  220.5840 N   0  0  0  0  0  0  0  0  0  0  0  0
  142.5770   72.6980  220.7780 C   0  0  0  0  0  0  0  0  0  0  0  0
  144.0580   72.5850  220.5980 C   0  0  0  0  0  0  0  0  0  0  0  0
  144.3580   73.7570  219.6540 C   0  0  0  0  0  0  0  0  0  0  0  0
  143.4980   74.8380  220.2860 C   0  0  1  0  0  0  0  0  0  0  0  0
  143.3460   76.0160  219.3570 C   0  0  0  0  0  0  0  0  0  0  0  0
  142.8890   77.1450  220.0080 O   0  0  0  0  0  0  0  0  0  0  0  0
  140.0400   71.0980  223.6440 C   0  0  0  0  0  0  0  0  0  0  0  0
  139.5630   69.7980  223.7250 C   0  0  0  0  0  0  0  0  0  0  0  0
  139.5730   69.1050  224.9210 C   0  0  0  0  0  0  0  0  0  0  0  0
  140.0670   69.7330  226.0270 C   0  0  0  0  0  0  0  0  0  0  0  0
  140.0870   69.0550  227.2420 C   0  0  0  0  0  0  0  0  0  0  0  0
  139.6130   67.7950  227.2750 F   0  0  0  0  0  0  0  0  0  0  0  0
  140.5820   69.6900  228.3390 C   0  0  0  0  0  0  0  0  0  0  0  0
  141.0570   70.9770  228.2680 C   0  0  0  0  0  0  0  0  0  0  0  0
  141.0230   71.6300  227.0390 C   0  0  0  0  0  0  0  0  0  0  0  0
  140.5320   71.0270  225.8990 C   0  0  0  0  0  0  0  0  0  0  0  0
  140.5180   71.6960  224.7250 N   0  0  0  0  0  0  0  0  0  0  0  0
  139.6460   73.7700  223.1300 H   0  0  0  0  0  0  0  0  0  0  0  0
  139.7343   72.9424  220.1885 H   0  0  0  0  0  0  0  0  0  0  0  0
  138.8525   74.3759  220.8323 H   0  0  0  0  0  0  0  0  0  0  0  0
  142.2840   72.3741  221.7876 H   0  0  0  0  0  0  0  0  0  0  0  0
  142.0243   72.0615  220.0713 H   0  0  0  0  0  0  0  0  0  0  0  0
  144.5864   72.6988  221.5561 H   0  0  0  0  0  0  0  0  0  0  0  0
  144.3831   71.6089  220.2086 H   0  0  0  0  0  0  0  0  0  0  0  0
  145.4244   74.0264  219.6651 H   0  0  0  0  0  0  0  0  0  0  0  0
  144.1461   73.5605  218.5926 H   0  0  0  0  0  0  0  0  0  0  0  0
  143.9206   75.2948  221.1930 H   0  0  0  0  0  0  0  0  0  0  0  0
  144.3246   76.2395  218.9071 H   0  0  0  0  0  0  0  0  0  0  0  0
  142.6027   75.7461  218.5924 H   0  0  0  0  0  0  0  0  0  0  0  0
  142.5960   76.9380  220.9470 H   0  0  0  0  0  0  0  0  0  0  0  0
  139.1697   69.3097  222.8212 H   0  0  0  0  0  0  0  0  0  0  0  0
  139.1927   68.0745  224.9796 H   0  0  0  0  0  0  0  0  0  0  0  0
  140.6022   69.1614  229.3034 H   0  0  0  0  0  0  0  0  0  0  0  0
  141.4551   71.4800  229.1616 H   0  0  0  0  0  0  0  0  0  0  0  0
  141.4002   72.6613  226.9744 H   0  0  0  0  0  0  0  0  0  0  0  0
  1  2  2  0
  2  3  1  0
  3  4  1  0
  4  5  1  0
  5  6  2  0
  5  7  1  0
  7  8  1  0
  8  9  1  0
  9 10  1  0
 10 11  1  0
 11 12  1  0
 12 13  1  0
  2 14  1  0
 14 15  2  0
 15 16  1  0
 16 17  2  0
 17 18  1  0
 18 19  1  0
 18 20  2  0
 20 21  1  0
 21 22  2  0
 22 23  1  0
 23 24  2  0
 11  7  1  0
 24 14  1  0
 23 17  1  0
  3 25  1  0
  4 26  1  0
  4 27  1  0
  8 28  1  0
  8 29  1  0
  9 30  1  0
  9 31  1  0
 10 32  1  0
 10 33  1  0
 11 34  1  1
 12 35  1  0
 12 36  1  0
 13 37  1  0
 15 38  1  0
 16 39  1  0
 20 40  1  0
 21 41  1  0
 22 42  1  0
M  END
>  <smiles>  (46) 
O=C(NCC(=O)N1CCC[C@H]1CO)c1ccc2c(F)cccc2n1

>  <score_type>  (46) 
oracle

>  <origin>  (46) 
autodockgpu

>  <m_score__min__energy>  (46) 
-7.0199999999999996

>  <m_primary>  (46) 
energy

>  <rmsd>  (46) 
3.004406418178675

>  <m_score__min__rmsd>  (46) 
3.004406418178675

>  <meeko>  (46) 
{"free_energy": -6.69, "intermolecular_energy": -8.48, "internal_energy": -1.72, "cluster_size": 34, "cluster_id": 1, "rank_in_cluster": 23}

>  <energy>  (46) 
-6.07

>  <cluster_rmsd>  (46) 
1.54

>  <cluster>  (46) 
5

$$$$

     RDKit          3D

 42 44  0  0  0  0  0  0  0  0999 V2000
  141.2910   71.9640  221.5880 O   0  0  0  0  0  0  0  0  0  0  0  0
  140.4200   72.2430  222.4690 C   0  0  0  0  0  0  0  0  0  0  0  0
  139.5690   73.3580  222.2610 N   0  0  0  0  0  0  0  0  0  0  0  0
  139.7910   74.1040  221.0050 C   0  0  0  0  0  0  0  0  0  0  0  0
  140.8340   75.1180  221.1940 C   0  0  0  0  0  0  0  0  0  0  0  0
  140.9060   75.6650  222.3430 O   0  0  0  0  0  0  0  0  0  0  0  0
  141.7730   75.5620  220.2330 N   0  0  0  0  0  0  0  0  0  0  0  0
  142.2250   74.6140  219.1810 C   0  0  0  0  0  0  0  0  0  0  0  0
  143.2170   75.3850  218.3690 C   0  0  0  0  0  0  0  0  0  0  0  0
  142.7350   76.8290  218.5560 C   0  0  0  0  0  0  0  0  0  0  0  0
  142.4380   76.8220  220.0460 C   0  0  1  0  0  0  0  0  0  0  0  0
  141.6270   78.0320  220.4390 C   0  0  0  0  0  0  0  0  0  0  0  0
  141.6330   78.2500  221.8030 O   0  0  0  0  0  0  0  0  0  0  0  0
  140.2730   71.4470  223.6830 C   0  0  0  0  0  0  0  0  0  0  0  0
  139.6710   70.2010  223.5760 C   0  0  0  0  0  0  0  0  0  0  0  0
  139.4990   69.3920  224.6830 C   0  0  0  0  0  0  0  0  0  0  0  0
  139.9380   69.8490  225.8910 C   0  0  0  0  0  0  0  0  0  0  0  0
  139.7750   69.0520  227.0200 C   0  0  0  0  0  0  0  0  0  0  0  0
  139.1860   67.8510  226.8700 F   0  0  0  0  0  0  0  0  0  0  0  0
  140.2160   69.5170  228.2200 C   0  0  0  0  0  0  0  0  0  0  0  0
  140.8130   70.7490  228.3360 C   0  0  0  0  0  0  0  0  0  0  0  0
  140.9610   71.5240  227.1890 C   0  0  0  0  0  0  0  0  0  0  0  0
  140.5310   71.0950  225.9500 C   0  0  0  0  0  0  0  0  0  0  0  0
  140.6950   71.8790  224.8610 N   0  0  0  0  0  0  0  0  0  0  0  0
  138.8270   73.6610  222.9300 H   0  0  0  0  0  0  0  0  0  0  0  0
  140.1043   73.4033  220.2171 H   0  0  0  0  0  0  0  0  0  0  0  0
  138.8547   74.6029  220.7143 H   0  0  0  0  0  0  0  0  0  0  0  0
  142.6986   73.7304  219.6338 H   0  0  0  0  0  0  0  0  0  0  0  0
  141.3885   74.2433  218.5703 H   0  0  0  0  0  0  0  0  0  0  0  0
  144.2383   75.2521  218.7554 H   0  0  0  0  0  0  0  0  0  0  0  0
  143.2677   75.0688  217.3166 H   0  0  0  0  0  0  0  0  0  0  0  0
  143.5192   77.5567  218.3002 H   0  0  0  0  0  0  0  0  0  0  0  0
  141.8873   77.1190  217.9177 H   0  0  0  0  0  0  0  0  0  0  0  0
  143.3229   76.8992  220.6948 H   0  0  0  0  0  0  0  0  0  0  0  0
  142.0471   78.9166  219.9381 H   0  0  0  0  0  0  0  0  0  0  0  0
  140.5860   77.8516  220.1329 H   0  0  0  0  0  0  0  0  0  0  0  0
  141.8530   77.4110  222.3110 H   0  0  0  0  0  0  0  0  0  0  0  0
  139.3246   69.8512  222.5923 H   0  0  0  0  0  0  0  0  0  0  0  0
  139.0207   68.4056  224.5925 H   0  0  0  0  0  0  0  0  0  0  0  0
  140.0919   68.8928  229.1172 H   0  0  0  0  0  0  0  0  0  0  0  0
  141.1656   71.1143  229.3118 H   0  0  0  0  0  0  0  0  0  0  0  0
  141.4370   72.5121  227.2733 H   0  0  0  0  0  0  0  0  0  0  0  0
  1  2  2  0
  2  3  1  0
  3  4  1  0
  4  5  1  0
  5  6  2  0
  5  7  1  0
  7  8  1  0
  8  9  1  0
  9 10  1  0
 10 11  1  0
 11 12  1  0
 12 13  1  0
  2 14  1  0
 14 15  2  0
 15 16  1  0
 16 17  2  0
 17 18  1  0
 18 19  1  0
 18 20  2  0
 20 21  1  0
 21 22  2  0
 22 23  1  0
 23 24  2  0
 11  7  1  0
 24 14  1  0
 23 17  1  0
  3 25  1  0
  4 26  1  0
  4 27  1  0
  8 28  1  0
  8 29  1  0
  9 30  1  0
  9 31  1  0
 10 32  1  0
 10 33  1  0
 11 34  1  1
 12 35  1  0
 12 36  1  0
 13 37  1  0
 15 38  1  0
 16 39  1  0
 20 40  1  0
 21 41  1  0
 22 42  1  0
M  END
>  <smiles>  (47) 
O=C(NCC(=O)N1CCC[C@H]1CO)c1ccc2c(F)cccc2n1

>  <score_type>  (47) 
oracle

>  <origin>  (47) 
autodockgpu

>  <m_score__min__energy>  (47) 
-7.0199999999999996

>  <m_primary>  (47) 
energy

>  <rmsd>  (47) 
1.9106625212114934

>  <m_score__min__rmsd>  (47) 
1.9106625212114934

>  <meeko>  (47) 
{"free_energy": -6.89, "intermolecular_energy": -8.68, "internal_energy": -1.74, "cluster_size": 34, "cluster_id": 1, "rank_in_cluster": 5}

>  <energy>  (47) 
-6.06

>  <cluster_rmsd>  (47) 
1.52

>  <cluster>  (47) 
5

$$$$

     RDKit          3D

 42 44  0  0  0  0  0  0  0  0999 V2000
  135.1420   68.5110  224.7410 O   0  0  0  0  0  0  0  0  0  0  0  0
  135.5590   69.6820  224.9980 C   0  0  0  0  0  0  0  0  0  0  0  0
  136.9150   70.0010  224.7320 N   0  0  0  0  0  0  0  0  0  0  0  0
  137.7280   68.9030  224.1690 C   0  0  0  0  0  0  0  0  0  0  0  0
  138.9180   68.6760  224.9960 C   0  0  0  0  0  0  0  0  0  0  0  0
  139.2140   67.4650  225.2610 O   0  0  0  0  0  0  0  0  0  0  0  0
  139.7780   69.6600  225.5370 N   0  0  0  0  0  0  0  0  0  0  0  0
  139.7820   71.0190  224.9340 C   0  0  0  0  0  0  0  0  0  0  0  0
  140.8060   71.7830  225.7130 C   0  0  0  0  0  0  0  0  0  0  0  0
  140.7710   71.0730  227.0730 C   0  0  0  0  0  0  0  0  0  0  0  0
  140.7230   69.6250  226.6190 C   0  0  1  0  0  0  0  0  0  0  0  0
  140.3460   68.7140  227.7610 C   0  0  0  0  0  0  0  0  0  0  0  0
  140.7420   67.4090  227.5480 O   0  0  0  0  0  0  0  0  0  0  0  0
  134.6800   70.7060  225.5560 C   0  0  0  0  0  0  0  0  0  0  0  0
  133.5970   70.2890  226.3160 C   0  0  0  0  0  0  0  0  0  0  0  0
  132.7220   71.2020  226.8770 C   0  0  0  0  0  0  0  0  0  0  0  0
  132.9520   72.5300  226.6630 C   0  0  0  0  0  0  0  0  0  0  0  0
  132.0850   73.4670  227.2170 C   0  0  0  0  0  0  0  0  0  0  0  0
  131.0470   73.0190  227.9480 F   0  0  0  0  0  0  0  0  0  0  0  0
  132.3220   74.7890  226.9980 C   0  0  0  0  0  0  0  0  0  0  0  0
  133.3920   75.2100  226.2470 C   0  0  0  0  0  0  0  0  0  0  0  0
  134.2410   74.2500  225.7050 C   0  0  0  0  0  0  0  0  0  0  0  0
  134.0420   72.8980  225.9000 C   0  0  0  0  0  0  0  0  0  0  0  0
  134.8920   71.9970  225.3570 N   0  0  0  0  0  0  0  0  0  0  0  0
  137.3430   70.9360  224.9120 H   0  0  0  0  0  0  0  0  0  0  0  0
  137.1254   67.9832  224.1398 H   0  0  0  0  0  0  0  0  0  0  0  0
  138.0455   69.1775  223.1522 H   0  0  0  0  0  0  0  0  0  0  0  0
  140.0615   70.9700  223.8712 H   0  0  0  0  0  0  0  0  0  0  0  0
  138.7906   71.4937  224.9764 H   0  0  0  0  0  0  0  0  0  0  0  0
  141.8000   71.7066  225.2482 H   0  0  0  0  0  0  0  0  0  0  0  0
  140.6025   72.8624  225.7719 H   0  0  0  0  0  0  0  0  0  0  0  0
  141.6729   71.2843  227.6662 H   0  0  0  0  0  0  0  0  0  0  0  0
  139.9442   71.3777  227.7314 H   0  0  0  0  0  0  0  0  0  0  0  0
  141.6869   69.2131  226.2855 H   0  0  0  0  0  0  0  0  0  0  0  0
  140.8254   69.0828  228.6798 H   0  0  0  0  0  0  0  0  0  0  0  0
  139.2494   68.7211  227.8467 H   0  0  0  0  0  0  0  0  0  0  0  0
  139.9880   66.8460  227.1920 H   0  0  0  0  0  0  0  0  0  0  0  0
  133.4310   69.2133  226.4754 H   0  0  0  0  0  0  0  0  0  0  0  0
  131.8645   70.8667  227.4790 H   0  0  0  0  0  0  0  0  0  0  0  0
  131.6418   75.5367  227.4319 H   0  0  0  0  0  0  0  0  0  0  0  0
  133.5737   76.2816  226.0778 H   0  0  0  0  0  0  0  0  0  0  0  0
  135.0993   74.5794  225.1010 H   0  0  0  0  0  0  0  0  0  0  0  0
  1  2  2  0
  2  3  1  0
  3  4  1  0
  4  5  1  0
  5  6  2  0
  5  7  1  0
  7  8  1  0
  8  9  1  0
  9 10  1  0
 10 11  1  0
 11 12  1  0
 12 13  1  0
  2 14  1  0
 14 15  2  0
 15 16  1  0
 16 17  2  0
 17 18  1  0
 18 19  1  0
 18 20  2  0
 20 21  1  0
 21 22  2  0
 22 23  1  0
 23 24  2  0
 11  7  1  0
 24 14  1  0
 23 17  1  0
  3 25  1  0
  4 26  1  0
  4 27  1  0
  8 28  1  0
  8 29  1  0
  9 30  1  0
  9 31  1  0
 10 32  1  0
 10 33  1  0
 11 34  1  6
 12 35  1  0
 12 36  1  0
 13 37  1  0
 15 38  1  0
 16 39  1  0
 20 40  1  0
 21 41  1  0
 22 42  1  0
M  END
>  <smiles>  (48) 
O=C(NCC(=O)N1CCC[C@H]1CO)c1ccc2c(F)cccc2n1

>  <score_type>  (48) 
oracle

>  <origin>  (48) 
autodockgpu

>  <m_score__min__energy>  (48) 
-7.0199999999999996

>  <m_primary>  (48) 
energy

>  <rmsd>  (48) 
7.9245892577715376

>  <m_score__min__rmsd>  (48) 
7.9245892577715376

>  <meeko>  (48) 
{"free_energy": -6.78, "intermolecular_energy": -8.57, "internal_energy": -1.75, "cluster_size": 2, "cluster_id": 3, "rank_in_cluster": 1}

>  <energy>  (48) 
-6.06

>  <cluster_rmsd>  (48) 
1.57

>  <cluster>  (48) 
5

$$$$

     RDKit          3D

 42 44  0  0  0  0  0  0  0  0999 V2000
  140.2790   71.1630  221.3070 O   0  0  0  0  0  0  0  0  0  0  0  0
  140.0400   71.7730  222.3950 C   0  0  0  0  0  0  0  0  0  0  0  0
  139.7910   73.1680  222.3570 N   0  0  0  0  0  0  0  0  0  0  0  0
  139.8390   73.7870  221.0160 C   0  0  0  0  0  0  0  0  0  0  0  0
  141.0390   74.6200  220.8840 C   0  0  0  0  0  0  0  0  0  0  0  0
  140.8860   75.8790  221.0150 O   0  0  0  0  0  0  0  0  0  0  0  0
  142.3570   74.1780  220.6220 N   0  0  0  0  0  0  0  0  0  0  0  0
  142.6850   72.7420  220.8240 C   0  0  0  0  0  0  0  0  0  0  0  0
  144.1390   72.6280  220.4910 C   0  0  0  0  0  0  0  0  0  0  0  0
  144.3310   73.7730  219.4880 C   0  0  0  0  0  0  0  0  0  0  0  0
  143.5360   74.8690  220.1770 C   0  0  1  0  0  0  0  0  0  0  0  0
  143.2790   76.0210  219.2370 C   0  0  0  0  0  0  0  0  0  0  0  0
  142.8200   77.1450  219.8940 O   0  0  0  0  0  0  0  0  0  0  0  0
  140.0130   71.0760  223.6770 C   0  0  0  0  0  0  0  0  0  0  0  0
  139.5260   69.7770  223.7020 C   0  0  0  0  0  0  0  0  0  0  0  0
  139.4710   69.0550  224.8800 C   0  0  0  0  0  0  0  0  0  0  0  0
  139.9110   69.6540  226.0250 C   0  0  0  0  0  0  0  0  0  0  0  0
  139.8650   68.9480  227.2220 C   0  0  0  0  0  0  0  0  0  0  0  0
  139.3850   67.6900  227.2000 F   0  0  0  0  0  0  0  0  0  0  0  0
  140.3050   69.5540  228.3580 C   0  0  0  0  0  0  0  0  0  0  0  0
  140.7880   70.8390  228.3430 C   0  0  0  0  0  0  0  0  0  0  0  0
  140.8210   71.5210  227.1300 C   0  0  0  0  0  0  0  0  0  0  0  0
  140.3860   70.9490  225.9520 C   0  0  0  0  0  0  0  0  0  0  0  0
  140.4360   71.6460  224.7950 N   0  0  0  0  0  0  0  0  0  0  0  0
  139.5860   73.7500  223.1990 H   0  0  0  0  0  0  0  0  0  0  0  0
  139.8600   72.9963  220.2516 H   0  0  0  0  0  0  0  0  0  0  0  0
  138.9481   74.4178  220.8803 H   0  0  0  0  0  0  0  0  0  0  0  0
  142.5028   72.4467  221.8678 H   0  0  0  0  0  0  0  0  0  0  0  0
  142.0643   72.0838  220.1983 H   0  0  0  0  0  0  0  0  0  0  0  0
  144.7653   72.7705  221.3840 H   0  0  0  0  0  0  0  0  0  0  0  0
  144.4263   71.6421  220.0968 H   0  0  0  0  0  0  0  0  0  0  0  0
  145.3911   74.0457  219.3788 H   0  0  0  0  0  0  0  0  0  0  0  0
  144.0097   73.5457  218.4608 H   0  0  0  0  0  0  0  0  0  0  0  0
  144.0503   75.3519  221.0210 H   0  0  0  0  0  0  0  0  0  0  0  0
  144.2176   76.2721  218.7213 H   0  0  0  0  0  0  0  0  0  0  0  0
  142.5000   75.7066  218.5268 H   0  0  0  0  0  0  0  0  0  0  0  0
  142.7160   76.9820  220.8800 H   0  0  0  0  0  0  0  0  0  0  0  0
  139.1773   69.3130  222.7676 H   0  0  0  0  0  0  0  0  0  0  0  0
  139.0831   68.0257  224.8941 H   0  0  0  0  0  0  0  0  0  0  0  0
  140.2730   69.0023  229.3091 H   0  0  0  0  0  0  0  0  0  0  0  0
  141.1407   71.3185  229.2680 H   0  0  0  0  0  0  0  0  0  0  0  0
  141.2069   72.5509  227.1098 H   0  0  0  0  0  0  0  0  0  0  0  0
  1  2  2  0
  2  3  1  0
  3  4  1  0
  4  5  1  0
  5  6  2  0
  5  7  1  0
  7  8  1  0
  8  9  1  0
  9 10  1  0
 10 11  1  0
 11 12  1  0
 12 13  1  0
  2 14  1  0
 14 15  2  0
 15 16  1  0
 16 17  2  0
 17 18  1  0
 18 19  1  0
 18 20  2  0
 20 21  1  0
 21 22  2  0
 22 23  1  0
 23 24  2  0
 11  7  1  0
 24 14  1  0
 23 17  1  0
  3 25  1  0
  4 26  1  0
  4 27  1  0
  8 28  1  0
  8 29  1  0
  9 30  1  0
  9 31  1  0
 10 32  1  0
 10 33  1  0
 11 34  1  1
 12 35  1  0
 12 36  1  0
 13 37  1  0
 15 38  1  0
 16 39  1  0
 20 40  1  0
 21 41  1  0
 22 42  1  0
M  END
>  <smiles>  (49) 
O=C(NCC(=O)N1CCC[C@H]1CO)c1ccc2c(F)cccc2n1

>  <score_type>  (49) 
oracle

>  <origin>  (49) 
autodockgpu

>  <m_score__min__energy>  (49) 
-7.0199999999999996

>  <m_primary>  (49) 
energy

>  <rmsd>  (49) 
3.001813601835551

>  <m_score__min__rmsd>  (49) 
3.001813601835551

>  <meeko>  (49) 
{"free_energy": -6.76, "intermolecular_energy": -8.55, "internal_energy": -1.75, "cluster_size": 34, "cluster_id": 1, "rank_in_cluster": 14}

>  <energy>  (49) 
-6.01

>  <cluster_rmsd>  (49) 
0.57

>  <cluster>  (49) 
5

$$$$

     RDKit          3D

 42 44  0  0  0  0  0  0  0  0999 V2000
  141.2300   71.9310  221.4160 O   0  0  0  0  0  0  0  0  0  0  0  0
  140.5310   72.3310  222.3970 C   0  0  0  0  0  0  0  0  0  0  0  0
  139.9570   73.6270  222.3450 N   0  0  0  0  0  0  0  0  0  0  0  0
  140.2440   74.4010  221.1200 C   0  0  0  0  0  0  0  0  0  0  0  0
  140.4140   75.8220  221.4450 C   0  0  0  0  0  0  0  0  0  0  0  0
  139.9500   76.2170  222.5640 O   0  0  0  0  0  0  0  0  0  0  0  0
  141.0380   76.8080  220.6460 N   0  0  0  0  0  0  0  0  0  0  0  0
  140.9670   76.6840  219.1660 C   0  0  0  0  0  0  0  0  0  0  0  0
  141.7400   77.8530  218.6430 C   0  0  0  0  0  0  0  0  0  0  0  0
  141.5720   78.8800  219.7710 C   0  0  0  0  0  0  0  0  0  0  0  0
  141.7880   77.9880  220.9810 C   0  0  1  0  0  0  0  0  0  0  0  0
  141.3470   78.6810  222.2460 C   0  0  0  0  0  0  0  0  0  0  0  0
  141.7090   77.9840  223.3820 O   0  0  0  0  0  0  0  0  0  0  0  0
  140.3010   71.4930  223.5700 C   0  0  0  0  0  0  0  0  0  0  0  0
  139.6930   70.2600  223.3800 C   0  0  0  0  0  0  0  0  0  0  0  0
  139.4450   69.4140  224.4450 C   0  0  0  0  0  0  0  0  0  0  0  0
  139.8150   69.8210  225.6930 C   0  0  0  0  0  0  0  0  0  0  0  0
  139.5750   68.9860  226.7800 C   0  0  0  0  0  0  0  0  0  0  0  0
  138.9820   67.7990  226.5500 F   0  0  0  0  0  0  0  0  0  0  0  0
  139.9470   69.4020  228.0210 C   0  0  0  0  0  0  0  0  0  0  0  0
  140.5490   70.6200  228.2170 C   0  0  0  0  0  0  0  0  0  0  0  0
  140.7750   71.4340  227.1120 C   0  0  0  0  0  0  0  0  0  0  0  0
  140.4160   71.0560  225.8340 C   0  0  0  0  0  0  0  0  0  0  0  0
  140.6550   71.8770  224.7860 N   0  0  0  0  0  0  0  0  0  0  0  0
  139.3690   74.0380  223.1030 H   0  0  0  0  0  0  0  0  0  0  0  0
  141.1674   74.0211  220.6584 H   0  0  0  0  0  0  0  0  0  0  0  0
  139.4015   74.2915  220.4213 H   0  0  0  0  0  0  0  0  0  0  0  0
  141.4229   75.7393  218.8347 H   0  0  0  0  0  0  0  0  0  0  0  0
  139.9294   76.6775  218.8008 H   0  0  0  0  0  0  0  0  0  0  0  0
  142.7988   77.5960  218.4914 H   0  0  0  0  0  0  0  0  0  0  0  0
  141.3919   78.2111  217.6629 H   0  0  0  0  0  0  0  0  0  0  0  0
  142.3279   79.6770  219.7123 H   0  0  0  0  0  0  0  0  0  0  0  0
  140.6150   79.4223  219.7625 H   0  0  0  0  0  0  0  0  0  0  0  0
  142.8388   77.7396  221.1909 H   0  0  0  0  0  0  0  0  0  0  0  0
  141.8088   79.6787  222.2816 H   0  0  0  0  0  0  0  0  0  0  0  0
  140.2490   78.7454  222.2278 H   0  0  0  0  0  0  0  0  0  0  0  0
  141.8530   77.0080  223.1880 H   0  0  0  0  0  0  0  0  0  0  0  0
  139.4035   69.9506  222.3649 H   0  0  0  0  0  0  0  0  0  0  0  0
  138.9619   68.4380  224.2898 H   0  0  0  0  0  0  0  0  0  0  0  0
  139.7613   68.7481  228.8859 H   0  0  0  0  0  0  0  0  0  0  0  0
  140.8459   70.9449  229.2251 H   0  0  0  0  0  0  0  0  0  0  0  0
  141.2560   72.4119  227.2617 H   0  0  0  0  0  0  0  0  0  0  0  0
  1  2  2  0
  2  3  1  0
  3  4  1  0
  4  5  1  0
  5  6  2  0
  5  7  1  0
  7  8  1  0
  8  9  1  0
  9 10  1  0
 10 11  1  0
 11 12  1  0
 12 13  1  0
  2 14  1  0
 14 15  2  0
 15 16  1  0
 16 17  2  0
 17 18  1  0
 18 19  1  0
 18 20  2  0
 20 21  1  0
 21 22  2  0
 22 23  1  0
 23 24  2  0
 11  7  1  0
 24 14  1  0
 23 17  1  0
  3 25  1  0
  4 26  1  0
  4 27  1  0
  8 28  1  0
  8 29  1  0
  9 30  1  0
  9 31  1  0
 10 32  1  0
 10 33  1  0
 11 34  1  1
 12 35  1  0
 12 36  1  0
 13 37  1  0
 15 38  1  0
 16 39  1  0
 20 40  1  0
 21 41  1  0
 22 42  1  0
M  END
>  <smiles>  (50) 
O=C(NCC(=O)N1CCC[C@H]1CO)c1ccc2c(F)cccc2n1

>  <score_type>  (50) 
oracle

>  <origin>  (50) 
autodockgpu

>  <m_score__min__energy>  (50) 
-7.0199999999999996

>  <m_primary>  (50) 
energy

>  <rmsd>  (50) 
1.9226651081215247

>  <m_score__min__rmsd>  (50) 
1.9226651081215247

>  <meeko>  (50) 
{"free_energy": -6.71, "intermolecular_energy": -8.5, "internal_energy": -1.94, "cluster_size": 34, "cluster_id": 1, "rank_in_cluster": 18}

>  <energy>  (50) 
-5.99

>  <cluster_rmsd>  (50) 
1.54

>  <cluster>  (50) 
5

$$$$
