
     RDKit          3D

 56 59  0  0  0  0  0  0  0  0999 V2000
  139.5680   74.1650  222.3930 O   0  0  0  0  0  0  0  0  0  0  0  0
  140.0740   75.1140  221.7090 C   0  0  0  0  0  0  0  0  0  0  0  0
  140.6940   74.8140  220.4640 N   0  0  0  0  0  0  0  0  0  0  0  0
  140.7770   73.4670  219.9320 C   0  0  0  0  0  0  0  0  0  0  0  0
  142.0120   72.8390  220.4470 C   0  0  0  0  0  0  0  0  0  0  0  0
  141.9030   71.8860  221.2580 O   0  0  0  0  0  0  0  0  0  0  0  0
  143.2510   73.3570  219.9920 N   0  0  0  0  0  0  0  0  0  0  0  0
  144.1940   72.8290  219.0260 C   0  0  0  0  0  0  0  0  0  0  0  0
  145.5520   73.2910  219.5710 C   0  0  2  0  0  0  0  0  0  0  0  0
  146.3230   72.1910  219.9440 O   0  0  0  0  0  0  0  0  0  0  0  0
  145.2040   74.1040  220.8060 C   0  0  0  0  0  0  0  0  0  0  0  0
  143.8820   74.6460  220.4420 C   0  0  1  0  0  0  0  0  0  0  0  0
  143.7260   75.6680  219.4020 C   0  0  0  0  0  0  0  0  0  0  0  0
  142.6910   76.5080  219.5400 O   0  0  0  0  0  0  0  0  0  0  0  0
  142.6060   77.6400  218.8080 C   0  0  0  0  0  0  0  0  0  0  0  0
  141.7650   78.6460  219.5980 C   0  0  0  0  0  0  0  0  0  0  0  0
  140.3390   78.1980  219.3580 C   0  0  0  0  0  0  0  0  0  0  0  0
  140.3860   77.1280  218.2860 C   0  0  0  0  0  0  0  0  0  0  0  0
  141.6910   77.4550  217.5900 C   0  0  0  0  0  0  0  0  0  0  0  0
  140.0120   76.4820  222.2060 C   0  0  0  0  0  0  0  0  0  0  0  0
  138.7800   77.0580  222.4750 C   0  0  0  0  0  0  0  0  0  0  0  0
  138.8050   78.3620  222.9450 C   0  0  0  0  0  0  0  0  0  0  0  0
  139.9810   79.0650  223.1390 C   0  0  0  0  0  0  0  0  0  0  0  0
  139.9660   80.3810  223.6160 C   0  0  0  0  0  0  0  0  0  0  0  0
  141.2200   80.9710  223.7660 C   0  0  0  0  0  0  0  0  0  0  0  0
  142.3920   80.3070  223.4670 C   0  0  0  0  0  0  0  0  0  0  0  0
  142.3680   79.0220  223.0040 C   0  0  0  0  0  0  0  0  0  0  0  0
  141.1510   78.4040  222.8420 C   0  0  0  0  0  0  0  0  0  0  0  0
  141.1300   77.1600  222.3940 N   0  0  0  0  0  0  0  0  0  0  0  0
  141.0940   75.6260  219.9410 H   0  0  0  0  0  0  0  0  0  0  0  0
  139.9013   72.8850  220.2552 H   0  0  0  0  0  0  0  0  0  0  0  0
  140.7964   73.4947  218.8325 H   0  0  0  0  0  0  0  0  0  0  0  0
  144.1398   71.7312  218.9816 H   0  0  0  0  0  0  0  0  0  0  0  0
  144.0004   73.1767  218.0005 H   0  0  0  0  0  0  0  0  0  0  0  0
  146.1278   73.8604  218.8265 H   0  0  0  0  0  0  0  0  0  0  0  0
  146.1040   71.8860  220.8640 H   0  0  0  0  0  0  0  0  0  0  0  0
  145.1442   73.4679  221.7015 H   0  0  0  0  0  0  0  0  0  0  0  0
  145.9484   74.8732  221.0595 H   0  0  0  0  0  0  0  0  0  0  0  0
  143.4734   75.2277  221.2814 H   0  0  0  0  0  0  0  0  0  0  0  0
  144.6459   76.2709  219.3852 H   0  0  0  0  0  0  0  0  0  0  0  0
  143.5277   75.1114  218.4741 H   0  0  0  0  0  0  0  0  0  0  0  0
  143.6376   77.9272  218.5562 H   0  0  0  0  0  0  0  0  0  0  0  0
  142.0123   78.6069  220.6691 H   0  0  0  0  0  0  0  0  0  0  0  0
  141.9413   79.6852  219.2836 H   0  0  0  0  0  0  0  0  0  0  0  0
  139.9112   77.7865  220.2841 H   0  0  0  0  0  0  0  0  0  0  0  0
  139.7096   79.0431  219.0422 H   0  0  0  0  0  0  0  0  0  0  0  0
  140.4065   76.1197  218.7253 H   0  0  0  0  0  0  0  0  0  0  0  0
  139.5112   77.1225  217.6192 H   0  0  0  0  0  0  0  0  0  0  0  0
  142.0290   76.6284  216.9477 H   0  0  0  0  0  0  0  0  0  0  0  0
  141.6482   78.3173  216.9084 H   0  0  0  0  0  0  0  0  0  0  0  0
  137.8371   76.5119  222.3242 H   0  0  0  0  0  0  0  0  0  0  0  0
  137.8503   78.8585  223.1732 H   0  0  0  0  0  0  0  0  0  0  0  0
  139.0323   80.9111  223.8551 H   0  0  0  0  0  0  0  0  0  0  0  0
  141.2774   82.0050  224.1368 H   0  0  0  0  0  0  0  0  0  0  0  0
  143.3565   80.8181  223.6030 H   0  0  0  0  0  0  0  0  0  0  0  0
  143.3027   78.4932  222.7659 H   0  0  0  0  0  0  0  0  0  0  0  0
  1  2  2  0
  2  3  1  0
  3  4  1  0
  4  5  1  0
  5  6  2  0
  5  7  1  0
  7  8  1  0
  8  9  1  0
  9 10  1  0
  9 11  1  0
 11 12  1  0
 12 13  1  0
 13 14  1  0
 14 15  1  0
 15 16  1  0
 16 17  1  0
 17 18  1  0
 18 19  1  0
  2 20  1  0
 20 21  2  0
 21 22  1  0
 22 23  2  0
 23 24  1  0
 24 25  2  0
 25 26  1  0
 26 27  2  0
 27 28  1  0
 28 29  2  0
 12  7  1  0
 19 15  1  0
 29 20  1  0
 28 23  1  0
  3 30  1  0
  4 31  1  0
  4 32  1  0
  8 33  1  0
  8 34  1  0
  9 35  1  6
 10 36  1  0
 11 37  1  0
 11 38  1  0
 12 39  1  1
 13 40  1  0
 13 41  1  0
 15 42  1  0
 16 43  1  0
 16 44  1  0
 17 45  1  0
 17 46  1  0
 18 47  1  0
 18 48  1  0
 19 49  1  0
 19 50  1  0
 21 51  1  0
 22 52  1  0
 24 53  1  0
 25 54  1  0
 26 55  1  0
 27 56  1  0
M  END
>  <smiles>  (1) 
O=C(NCC(=O)N1C[C@H](O)C[C@H]1COC1CCCC1)c1ccc2ccccc2n1

>  <score_type>  (1) 
oracle

>  <origin>  (1) 
autodockgpu

>  <m_score__min__energy>  (1) 
-8.5500000000000007

>  <m_primary>  (1) 
energy

>  <rmsd>  (1) 
7.342714634263968

>  <m_score__min__rmsd>  (1) 
7.342714634263968

>  <meeko>  (1) 
{"free_energy": -7.05, "intermolecular_energy": -9.43, "internal_energy": -3.58, "cluster_size": 33, "cluster_id": 4, "rank_in_cluster": 16}

>  <energy>  (1) 
-8.55

>  <cluster_rmsd>  (1) 
0.0

>  <cluster>  (1) 
1

$$$$

     RDKit          3D

 56 59  0  0  0  0  0  0  0  0999 V2000
  139.0870   74.8370  222.0790 O   0  0  0  0  0  0  0  0  0  0  0  0
  140.1880   75.4750  221.9910 C   0  0  0  0  0  0  0  0  0  0  0  0
  141.3590   74.7800  221.5820 N   0  0  0  0  0  0  0  0  0  0  0  0
  141.3600   73.3670  221.2550 C   0  0  0  0  0  0  0  0  0  0  0  0
  141.8120   73.2120  219.8570 C   0  0  0  0  0  0  0  0  0  0  0  0
  141.0200   72.7000  219.0270 O   0  0  0  0  0  0  0  0  0  0  0  0
  143.1210   73.6530  219.5370 N   0  0  0  0  0  0  0  0  0  0  0  0
  143.8970   73.4930  218.3230 C   0  0  0  0  0  0  0  0  0  0  0  0
  145.3380   73.3840  218.8390 C   0  0  2  0  0  0  0  0  0  0  0  0
  145.8590   72.1230  218.5570 O   0  0  0  0  0  0  0  0  0  0  0  0
  145.2130   73.5530  220.3420 C   0  0  0  0  0  0  0  0  0  0  0  0
  144.0330   74.4300  220.4460 C   0  0  1  0  0  0  0  0  0  0  0  0
  144.0760   75.8350  220.0260 C   0  0  0  0  0  0  0  0  0  0  0  0
  142.8960   76.4160  219.7640 O   0  0  0  0  0  0  0  0  0  0  0  0
  142.6920   77.0970  218.6150 C   0  0  0  0  0  0  0  0  0  0  0  0
  142.1660   78.4870  218.9830 C   0  0  0  0  0  0  0  0  0  0  0  0
  140.7020   78.2550  219.2880 C   0  0  0  0  0  0  0  0  0  0  0  0
  140.3850   76.8300  218.8740 C   0  0  0  0  0  0  0  0  0  0  0  0
  141.4710   76.5640  217.8530 C   0  0  0  0  0  0  0  0  0  0  0  0
  140.2310   76.8950  222.3100 C   0  0  0  0  0  0  0  0  0  0  0  0
  139.0460   77.5960  222.4820 C   0  0  0  0  0  0  0  0  0  0  0  0
  139.1720   78.9430  222.7830 C   0  0  0  0  0  0  0  0  0  0  0  0
  140.3980   79.5710  222.9090 C   0  0  0  0  0  0  0  0  0  0  0  0
  140.4840   80.9340  223.2150 C   0  0  0  0  0  0  0  0  0  0  0  0
  141.7800   81.4390  223.3130 C   0  0  0  0  0  0  0  0  0  0  0  0
  142.8970   80.6530  223.1220 C   0  0  0  0  0  0  0  0  0  0  0  0
  142.7740   79.3260  222.8250 C   0  0  0  0  0  0  0  0  0  0  0  0
  141.5140   78.7890  222.7200 C   0  0  0  0  0  0  0  0  0  0  0  0
  141.3980   77.5030  222.4320 N   0  0  0  0  0  0  0  0  0  0  0  0
  142.2360   75.3470  221.5260 H   0  0  0  0  0  0  0  0  0  0  0  0
  142.0445   72.8304  221.9284 H   0  0  0  0  0  0  0  0  0  0  0  0
  140.3486   72.9510  221.3735 H   0  0  0  0  0  0  0  0  0  0  0  0
  143.6014   72.5812  217.7833 H   0  0  0  0  0  0  0  0  0  0  0  0
  143.7559   74.3180  217.6092 H   0  0  0  0  0  0  0  0  0  0  0  0
  146.0035   74.1268  218.3748 H   0  0  0  0  0  0  0  0  0  0  0  0
  145.1400   71.4610  218.3780 H   0  0  0  0  0  0  0  0  0  0  0  0
  145.0409   72.5880  220.8412 H   0  0  0  0  0  0  0  0  0  0  0  0
  146.1153   73.9590  220.8226 H   0  0  0  0  0  0  0  0  0  0  0  0
  143.7869   74.5996  221.5046 H   0  0  0  0  0  0  0  0  0  0  0  0
  144.5608   76.4095  220.8290 H   0  0  0  0  0  0  0  0  0  0  0  0
  144.6212   75.8375  219.0706 H   0  0  0  0  0  0  0  0  0  0  0  0
  143.6335   77.0431  218.0488 H   0  0  0  0  0  0  0  0  0  0  0  0
  142.6912   78.8831  219.8647 H   0  0  0  0  0  0  0  0  0  0  0  0
  142.3200   79.2241  218.1811 H   0  0  0  0  0  0  0  0  0  0  0  0
  140.5144   78.3868  220.3638 H   0  0  0  0  0  0  0  0  0  0  0  0
  140.0687   78.9724  218.7455 H   0  0  0  0  0  0  0  0  0  0  0  0
  140.4567   76.1385  219.7264 H   0  0  0  0  0  0  0  0  0  0  0  0
  139.3638   76.6912  218.4893 H   0  0  0  0  0  0  0  0  0  0  0  0
  141.5663   75.4913  217.6289 H   0  0  0  0  0  0  0  0  0  0  0  0
  141.3030   77.0245  216.8683 H   0  0  0  0  0  0  0  0  0  0  0  0
  138.0636   77.1108  222.3851 H   0  0  0  0  0  0  0  0  0  0  0  0
  138.2582   79.5380  222.9279 H   0  0  0  0  0  0  0  0  0  0  0  0
  139.5935   81.5616  223.3672 H   0  0  0  0  0  0  0  0  0  0  0  0
  141.9166   82.5041  223.5516 H   0  0  0  0  0  0  0  0  0  0  0  0
  143.8982   81.1001  223.2099 H   0  0  0  0  0  0  0  0  0  0  0  0
  143.6655   78.6998  222.6729 H   0  0  0  0  0  0  0  0  0  0  0  0
  1  2  2  0
  2  3  1  0
  3  4  1  0
  4  5  1  0
  5  6  2  0
  5  7  1  0
  7  8  1  0
  8  9  1  0
  9 10  1  0
  9 11  1  0
 11 12  1  0
 12 13  1  0
 13 14  1  0
 14 15  1  0
 15 16  1  0
 16 17  1  0
 17 18  1  0
 18 19  1  0
  2 20  1  0
 20 21  2  0
 21 22  1  0
 22 23  2  0
 23 24  1  0
 24 25  2  0
 25 26  1  0
 26 27  2  0
 27 28  1  0
 28 29  2  0
 12  7  1  0
 19 15  1  0
 29 20  1  0
 28 23  1  0
  3 30  1  0
  4 31  1  0
  4 32  1  0
  8 33  1  0
  8 34  1  0
  9 35  1  6
 10 36  1  0
 11 37  1  0
 11 38  1  0
 12 39  1  1
 13 40  1  0
 13 41  1  0
 15 42  1  0
 16 43  1  0
 16 44  1  0
 17 45  1  0
 17 46  1  0
 18 47  1  0
 18 48  1  0
 19 49  1  0
 19 50  1  0
 21 51  1  0
 22 52  1  0
 24 53  1  0
 25 54  1  0
 26 55  1  0
 27 56  1  0
M  END
>  <smiles>  (2) 
O=C(NCC(=O)N1C[C@H](O)C[C@H]1COC1CCCC1)c1ccc2ccccc2n1

>  <score_type>  (2) 
oracle

>  <origin>  (2) 
autodockgpu

>  <m_score__min__energy>  (2) 
-8.5500000000000007

>  <m_primary>  (2) 
energy

>  <rmsd>  (2) 
7.6531473420257266

>  <m_score__min__rmsd>  (2) 
7.6531473420257266

>  <meeko>  (2) 
{"free_energy": -6.33, "intermolecular_energy": -8.71, "internal_energy": -3.97, "cluster_size": 33, "cluster_id": 4, "rank_in_cluster": 32}

>  <energy>  (2) 
-8.51

>  <cluster_rmsd>  (2) 
0.39

>  <cluster>  (2) 
1

$$$$

     RDKit          3D

 56 59  0  0  0  0  0  0  0  0999 V2000
  139.9290   73.6860  222.5480 O   0  0  0  0  0  0  0  0  0  0  0  0
  140.3320   72.4830  222.4090 C   0  0  0  0  0  0  0  0  0  0  0  0
  140.8890   72.0810  221.1640 N   0  0  0  0  0  0  0  0  0  0  0  0
  141.0210   72.9810  220.0340 C   0  0  0  0  0  0  0  0  0  0  0  0
  142.3440   73.6350  220.1130 C   0  0  0  0  0  0  0  0  0  0  0  0
  142.3860   74.8870  220.2010 O   0  0  0  0  0  0  0  0  0  0  0  0
  143.4910   72.8020  220.0800 N   0  0  0  0  0  0  0  0  0  0  0  0
  144.7240   72.8690  220.8400 C   0  0  0  0  0  0  0  0  0  0  0  0
  145.7750   72.3450  219.8520 C   0  0  2  0  0  0  0  0  0  0  0  0
  146.6850   73.3520  219.5340 O   0  0  0  0  0  0  0  0  0  0  0  0
  144.9760   71.9780  218.6140 C   0  0  0  0  0  0  0  0  0  0  0  0
  143.6780   71.5980  219.1990 C   0  0  1  0  0  0  0  0  0  0  0  0
  143.5160   70.3720  219.9880 C   0  0  0  0  0  0  0  0  0  0  0  0
  142.2710   69.8840  220.0850 O   0  0  0  0  0  0  0  0  0  0  0  0
  141.7130   69.1880  219.0710 C   0  0  0  0  0  0  0  0  0  0  0  0
  140.4040   69.8850  218.6900 C   0  0  0  0  0  0  0  0  0  0  0  0
  139.4250   69.4300  219.7500 C   0  0  0  0  0  0  0  0  0  0  0  0
  140.1120   68.3370  220.5460 C   0  0  0  0  0  0  0  0  0  0  0  0
  141.1460   67.8460  219.5540 C   0  0  0  0  0  0  0  0  0  0  0  0
  140.2170   71.5470  223.5180 C   0  0  0  0  0  0  0  0  0  0  0  0
  139.6300   70.3080  223.3100 C   0  0  0  0  0  0  0  0  0  0  0  0
  139.5580   69.4730  224.4150 C   0  0  0  0  0  0  0  0  0  0  0  0
  140.0370   69.8370  225.6600 C   0  0  0  0  0  0  0  0  0  0  0  0
  139.9470   68.9670  226.7530 C   0  0  0  0  0  0  0  0  0  0  0  0
  140.4700   69.4590  227.9480 C   0  0  0  0  0  0  0  0  0  0  0  0
  141.0350   70.7130  228.0480 C   0  0  0  0  0  0  0  0  0  0  0  0
  141.1060   71.5360  226.9600 C   0  0  0  0  0  0  0  0  0  0  0  0
  140.6020   71.0890  225.7630 C   0  0  0  0  0  0  0  0  0  0  0  0
  140.6720   71.8870  224.7110 N   0  0  0  0  0  0  0  0  0  0  0  0
  141.2040   71.0860  221.1000 H   0  0  0  0  0  0  0  0  0  0  0  0
  140.9424   72.4132  219.0952 H   0  0  0  0  0  0  0  0  0  0  0  0
  140.2226   73.7374  220.0569 H   0  0  0  0  0  0  0  0  0  0  0  0
  144.9464   73.9036  221.1403 H   0  0  0  0  0  0  0  0  0  0  0  0
  144.6858   72.2912  221.7752 H   0  0  0  0  0  0  0  0  0  0  0  0
  146.3483   71.5007  220.2625 H   0  0  0  0  0  0  0  0  0  0  0  0
  146.2260   74.2080  219.3270 H   0  0  0  0  0  0  0  0  0  0  0  0
  144.8735   72.8363  217.9337 H   0  0  0  0  0  0  0  0  0  0  0  0
  145.4380   71.1898  218.0014 H   0  0  0  0  0  0  0  0  0  0  0  0
  142.9657   71.3523  218.3976 H   0  0  0  0  0  0  0  0  0  0  0  0
  144.1452   69.5944  219.5305 H   0  0  0  0  0  0  0  0  0  0  0  0
  143.8025   70.6458  221.0141 H   0  0  0  0  0  0  0  0  0  0  0  0
  142.4855   69.0964  218.2933 H   0  0  0  0  0  0  0  0  0  0  0  0
  140.5228   70.9784  218.7109 H   0  0  0  0  0  0  0  0  0  0  0  0
  140.0719   69.6347  217.6716 H   0  0  0  0  0  0  0  0  0  0  0  0
  139.1640   70.2708  220.4095 H   0  0  0  0  0  0  0  0  0  0  0  0
  138.4955   69.0589  219.2935 H   0  0  0  0  0  0  0  0  0  0  0  0
  140.5852   68.7383  221.4543 H   0  0  0  0  0  0  0  0  0  0  0  0
  139.4323   67.5528  220.9107 H   0  0  0  0  0  0  0  0  0  0  0  0
  141.9163   67.2288  220.0395 H   0  0  0  0  0  0  0  0  0  0  0  0
  140.7519   67.1970  218.7581 H   0  0  0  0  0  0  0  0  0  0  0  0
  139.2439   70.0050  222.3256 H   0  0  0  0  0  0  0  0  0  0  0  0
  139.1007   68.4796  224.2960 H   0  0  0  0  0  0  0  0  0  0  0  0
  139.4959   67.9668  226.6746 H   0  0  0  0  0  0  0  0  0  0  0  0
  140.4305   68.8231  228.8447 H   0  0  0  0  0  0  0  0  0  0  0  0
  141.4331   71.0545  229.0149 H   0  0  0  0  0  0  0  0  0  0  0  0
  141.5574   72.5359  227.0408 H   0  0  0  0  0  0  0  0  0  0  0  0
  1  2  2  0
  2  3  1  0
  3  4  1  0
  4  5  1  0
  5  6  2  0
  5  7  1  0
  7  8  1  0
  8  9  1  0
  9 10  1  0
  9 11  1  0
 11 12  1  0
 12 13  1  0
 13 14  1  0
 14 15  1  0
 15 16  1  0
 16 17  1  0
 17 18  1  0
 18 19  1  0
  2 20  1  0
 20 21  2  0
 21 22  1  0
 22 23  2  0
 23 24  1  0
 24 25  2  0
 25 26  1  0
 26 27  2  0
 27 28  1  0
 28 29  2  0
 12  7  1  0
 19 15  1  0
 29 20  1  0
 28 23  1  0
  3 30  1  0
  4 31  1  0
  4 32  1  0
  8 33  1  0
  8 34  1  0
  9 35  1  1
 10 36  1  0
 11 37  1  0
 11 38  1  0
 12 39  1  6
 13 40  1  0
 13 41  1  0
 15 42  1  0
 16 43  1  0
 16 44  1  0
 17 45  1  0
 17 46  1  0
 18 47  1  0
 18 48  1  0
 19 49  1  0
 19 50  1  0
 21 51  1  0
 22 52  1  0
 24 53  1  0
 25 54  1  0
 26 55  1  0
 27 56  1  0
M  END
>  <smiles>  (3) 
O=C(NCC(=O)N1C[C@H](O)C[C@H]1COC1CCCC1)c1ccc2ccccc2n1

>  <score_type>  (3) 
oracle

>  <origin>  (3) 
autodockgpu

>  <m_score__min__energy>  (3) 
-8.5500000000000007

>  <m_primary>  (3) 
energy

>  <rmsd>  (3) 
4.206716978390629

>  <m_score__min__rmsd>  (3) 
4.206716978390629

>  <meeko>  (3) 
{"free_energy": -6.88, "intermolecular_energy": -9.26, "internal_energy": -2.94, "cluster_size": 1, "cluster_id": 5, "rank_in_cluster": 1}

>  <energy>  (3) 
-8.45

>  <cluster_rmsd>  (3) 
0.33

>  <cluster>  (3) 
1

$$$$

     RDKit          3D

 56 59  0  0  0  0  0  0  0  0999 V2000
  139.1120   74.8780  222.3310 O   0  0  0  0  0  0  0  0  0  0  0  0
  140.1830   75.5320  222.0990 C   0  0  0  0  0  0  0  0  0  0  0  0
  141.3090   74.8460  221.5650 N   0  0  0  0  0  0  0  0  0  0  0  0
  141.2960   73.4260  221.2690 C   0  0  0  0  0  0  0  0  0  0  0  0
  141.8300   73.2300  219.9050 C   0  0  0  0  0  0  0  0  0  0  0  0
  141.0760   72.7250  219.0360 O   0  0  0  0  0  0  0  0  0  0  0  0
  143.1700   73.6240  219.6620 N   0  0  0  0  0  0  0  0  0  0  0  0
  144.0890   73.2340  218.6100 C   0  0  0  0  0  0  0  0  0  0  0  0
  145.4550   73.2670  219.3080 C   0  0  2  0  0  0  0  0  0  0  0  0
  146.0030   71.9860  219.3610 O   0  0  0  0  0  0  0  0  0  0  0  0
  145.1460   73.7410  220.7170 C   0  0  0  0  0  0  0  0  0  0  0  0
  143.9660   74.5930  220.4920 C   0  0  1  0  0  0  0  0  0  0  0  0
  144.0640   75.8810  219.7960 C   0  0  0  0  0  0  0  0  0  0  0  0
  142.9330   76.5940  219.6950 O   0  0  0  0  0  0  0  0  0  0  0  0
  142.6410   77.2860  218.5730 C   0  0  0  0  0  0  0  0  0  0  0  0
  142.1580   78.6770  218.9950 C   0  0  0  0  0  0  0  0  0  0  0  0
  140.7230   78.4530  219.4180 C   0  0  0  0  0  0  0  0  0  0  0  0
  140.3600   77.0360  219.0190 C   0  0  0  0  0  0  0  0  0  0  0  0
  141.3570   76.7710  217.9100 C   0  0  0  0  0  0  0  0  0  0  0  0
  140.2380   76.9590  222.3820 C   0  0  0  0  0  0  0  0  0  0  0  0
  139.0590   77.6800  222.5060 C   0  0  0  0  0  0  0  0  0  0  0  0
  139.1970   79.0330  222.7750 C   0  0  0  0  0  0  0  0  0  0  0  0
  140.4280   79.6470  222.9150 C   0  0  0  0  0  0  0  0  0  0  0  0
  140.5260   81.0170  223.1870 C   0  0  0  0  0  0  0  0  0  0  0  0
  141.8260   81.5060  223.3040 C   0  0  0  0  0  0  0  0  0  0  0  0
  142.9370   80.7000  223.1610 C   0  0  0  0  0  0  0  0  0  0  0  0
  142.8030   79.3680  222.8960 C   0  0  0  0  0  0  0  0  0  0  0  0
  141.5380   78.8450  222.7730 C   0  0  0  0  0  0  0  0  0  0  0  0
  141.4100   77.5540  222.5160 N   0  0  0  0  0  0  0  0  0  0  0  0
  142.1620   75.4250  221.3930 H   0  0  0  0  0  0  0  0  0  0  0  0
  141.9245   72.8892  221.9949 H   0  0  0  0  0  0  0  0  0  0  0  0
  140.2697   73.0354  221.3333 H   0  0  0  0  0  0  0  0  0  0  0  0
  143.8594   72.2239  218.2400 H   0  0  0  0  0  0  0  0  0  0  0  0
  144.0390   73.8899  217.7284 H   0  0  0  0  0  0  0  0  0  0  0  0
  146.1748   73.9122  218.7830 H   0  0  0  0  0  0  0  0  0  0  0  0
  145.9400   71.5980  220.2730 H   0  0  0  0  0  0  0  0  0  0  0  0
  144.9104   72.8968  221.3817 H   0  0  0  0  0  0  0  0  0  0  0  0
  145.9834   74.2579  221.2085 H   0  0  0  0  0  0  0  0  0  0  0  0
  143.5928   74.9732  221.4544 H   0  0  0  0  0  0  0  0  0  0  0  0
  144.8001   76.4964  220.3340 H   0  0  0  0  0  0  0  0  0  0  0  0
  144.3448   75.6325  218.7619 H   0  0  0  0  0  0  0  0  0  0  0  0
  143.5323   77.2290  217.9309 H   0  0  0  0  0  0  0  0  0  0  0  0
  142.7574   79.0614  219.8334 H   0  0  0  0  0  0  0  0  0  0  0  0
  142.2509   79.4201  218.1893 H   0  0  0  0  0  0  0  0  0  0  0  0
  140.6265   78.5754  220.5069 H   0  0  0  0  0  0  0  0  0  0  0  0
  140.0533   79.1806  218.9362 H   0  0  0  0  0  0  0  0  0  0  0  0
  140.4946   76.3356  219.8564 H   0  0  0  0  0  0  0  0  0  0  0  0
  139.3096   76.9095  218.7180 H   0  0  0  0  0  0  0  0  0  0  0  0
  141.4239   75.6998  217.6693 H   0  0  0  0  0  0  0  0  0  0  0  0
  141.1130   77.2429  216.9468 H   0  0  0  0  0  0  0  0  0  0  0  0
  138.0725   77.2058  222.3972 H   0  0  0  0  0  0  0  0  0  0  0  0
  138.2886   79.6441  222.8816 H   0  0  0  0  0  0  0  0  0  0  0  0
  139.6412   81.6607  223.3001 H   0  0  0  0  0  0  0  0  0  0  0  0
  141.9719   82.5750  223.5185 H   0  0  0  0  0  0  0  0  0  0  0  0
  143.9418   81.1361  223.2617 H   0  0  0  0  0  0  0  0  0  0  0  0
  143.6892   78.7262  222.7832 H   0  0  0  0  0  0  0  0  0  0  0  0
  1  2  2  0
  2  3  1  0
  3  4  1  0
  4  5  1  0
  5  6  2  0
  5  7  1  0
  7  8  1  0
  8  9  1  0
  9 10  1  0
  9 11  1  0
 11 12  1  0
 12 13  1  0
 13 14  1  0
 14 15  1  0
 15 16  1  0
 16 17  1  0
 17 18  1  0
 18 19  1  0
  2 20  1  0
 20 21  2  0
 21 22  1  0
 22 23  2  0
 23 24  1  0
 24 25  2  0
 25 26  1  0
 26 27  2  0
 27 28  1  0
 28 29  2  0
 12  7  1  0
 19 15  1  0
 29 20  1  0
 28 23  1  0
  3 30  1  0
  4 31  1  0
  4 32  1  0
  8 33  1  0
  8 34  1  0
  9 35  1  6
 10 36  1  0
 11 37  1  0
 11 38  1  0
 12 39  1  1
 13 40  1  0
 13 41  1  0
 15 42  1  0
 16 43  1  0
 16 44  1  0
 17 45  1  0
 17 46  1  0
 18 47  1  0
 18 48  1  0
 19 49  1  0
 19 50  1  0
 21 51  1  0
 22 52  1  0
 24 53  1  0
 25 54  1  0
 26 55  1  0
 27 56  1  0
M  END
>  <smiles>  (4) 
O=C(NCC(=O)N1C[C@H](O)C[C@H]1COC1CCCC1)c1ccc2ccccc2n1

>  <score_type>  (4) 
oracle

>  <origin>  (4) 
autodockgpu

>  <m_score__min__energy>  (4) 
-8.5500000000000007

>  <m_primary>  (4) 
energy

>  <rmsd>  (4) 
7.710077337071052

>  <m_score__min__rmsd>  (4) 
7.710077337071052

>  <meeko>  (4) 
{"free_energy": -6.75, "intermolecular_energy": -9.13, "internal_energy": -3.77, "cluster_size": 33, "cluster_id": 4, "rank_in_cluster": 29}

>  <energy>  (4) 
-8.43

>  <cluster_rmsd>  (4) 
0.34

>  <cluster>  (4) 
1

$$$$

     RDKit          3D

 56 59  0  0  0  0  0  0  0  0999 V2000
  138.7350   75.3390  221.7890 O   0  0  0  0  0  0  0  0  0  0  0  0
  139.9030   75.8510  221.7770 C   0  0  0  0  0  0  0  0  0  0  0  0
  140.9810   75.1010  221.2290 N   0  0  0  0  0  0  0  0  0  0  0  0
  140.8120   73.7700  220.6780 C   0  0  0  0  0  0  0  0  0  0  0  0
  142.0500   73.0030  220.9280 C   0  0  0  0  0  0  0  0  0  0  0  0
  142.0060   72.0510  221.7470 O   0  0  0  0  0  0  0  0  0  0  0  0
  143.2180   73.3930  220.2250 N   0  0  0  0  0  0  0  0  0  0  0  0
  143.9580   72.7140  219.1800 C   0  0  0  0  0  0  0  0  0  0  0  0
  145.4090   73.1370  219.4450 C   0  0  2  0  0  0  0  0  0  0  0  0
  146.1780   72.0300  219.8010 O   0  0  0  0  0  0  0  0  0  0  0  0
  145.3140   74.0860  220.6260 C   0  0  0  0  0  0  0  0  0  0  0  0
  143.9780   74.6750  220.4280 C   0  0  1  0  0  0  0  0  0  0  0  0
  143.6970   75.6000  219.3240 C   0  0  0  0  0  0  0  0  0  0  0  0
  142.8100   76.5750  219.5720 O   0  0  0  0  0  0  0  0  0  0  0  0
  142.6840   77.6320  218.7420 C   0  0  0  0  0  0  0  0  0  0  0  0
  141.8210   78.6810  219.4500 C   0  0  0  0  0  0  0  0  0  0  0  0
  140.4080   78.1730  219.2700 C   0  0  0  0  0  0  0  0  0  0  0  0
  140.4760   77.0120  218.2970 C   0  0  0  0  0  0  0  0  0  0  0  0
  141.7630   77.3130  217.5580 C   0  0  0  0  0  0  0  0  0  0  0  0
  140.1160   77.1850  222.3200 C   0  0  0  0  0  0  0  0  0  0  0  0
  139.0300   77.9290  222.7560 C   0  0  0  0  0  0  0  0  0  0  0  0
  139.3160   79.1890  223.2600 C   0  0  0  0  0  0  0  0  0  0  0  0
  140.6020   79.6930  223.3300 C   0  0  0  0  0  0  0  0  0  0  0  0
  140.8520   80.9700  223.8460 C   0  0  0  0  0  0  0  0  0  0  0  0
  142.1920   81.3530  223.8590 C   0  0  0  0  0  0  0  0  0  0  0  0
  143.2010   80.5330  223.3980 C   0  0  0  0  0  0  0  0  0  0  0  0
  142.9200   79.2920  222.9020 C   0  0  0  0  0  0  0  0  0  0  0  0
  141.6110   78.8760  222.8710 C   0  0  0  0  0  0  0  0  0  0  0  0
  141.3420   77.6740  222.3900 N   0  0  0  0  0  0  0  0  0  0  0  0
  141.9180   75.5650  221.2430 H   0  0  0  0  0  0  0  0  0  0  0  0
  139.9609   73.2713  221.1648 H   0  0  0  0  0  0  0  0  0  0  0  0
  140.6151   73.8296  219.5974 H   0  0  0  0  0  0  0  0  0  0  0  0
  143.8442   71.6229  219.2615 H   0  0  0  0  0  0  0  0  0  0  0  0
  143.6114   72.9729  218.1686 H   0  0  0  0  0  0  0  0  0  0  0  0
  145.8780   73.5937  218.5610 H   0  0  0  0  0  0  0  0  0  0  0  0
  145.9750   71.7250  220.7250 H   0  0  0  0  0  0  0  0  0  0  0  0
  145.3761   73.5447  221.5816 H   0  0  0  0  0  0  0  0  0  0  0  0
  146.1265   74.8261  220.6711 H   0  0  0  0  0  0  0  0  0  0  0  0
  143.7468   75.3598  221.2572 H   0  0  0  0  0  0  0  0  0  0  0  0
  144.6461   76.0765  219.0373 H   0  0  0  0  0  0  0  0  0  0  0  0
  143.2395   74.9833  218.5364 H   0  0  0  0  0  0  0  0  0  0  0  0
  143.7040   77.9238  218.4514 H   0  0  0  0  0  0  0  0  0  0  0  0
  142.0805   78.7455  220.5170 H   0  0  0  0  0  0  0  0  0  0  0  0
  141.9629   79.6923  219.0413 H   0  0  0  0  0  0  0  0  0  0  0  0
  140.0024   77.8343  220.2348 H   0  0  0  0  0  0  0  0  0  0  0  0
  139.7503   78.9678  218.8882 H   0  0  0  0  0  0  0  0  0  0  0  0
  140.5314   76.0483  218.8244 H   0  0  0  0  0  0  0  0  0  0  0  0
  139.5949   76.9210  217.6448 H   0  0  0  0  0  0  0  0  0  0  0  0
  142.1189   76.4425  216.9874 H   0  0  0  0  0  0  0  0  0  0  0  0
  141.6875   78.1095  216.8031 H   0  0  0  0  0  0  0  0  0  0  0  0
  138.0015   77.5423  222.7051 H   0  0  0  0  0  0  0  0  0  0  0  0
  138.4850   79.8138  223.6192 H   0  0  0  0  0  0  0  0  0  0  0  0
  140.0484   81.6244  224.2148 H   0  0  0  0  0  0  0  0  0  0  0  0
  142.4549   82.3464  224.2516 H   0  0  0  0  0  0  0  0  0  0  0  0
  144.2435   80.8826  223.4303 H   0  0  0  0  0  0  0  0  0  0  0  0
  143.7253   78.6388  222.5348 H   0  0  0  0  0  0  0  0  0  0  0  0
  1  2  2  0
  2  3  1  0
  3  4  1  0
  4  5  1  0
  5  6  2  0
  5  7  1  0
  7  8  1  0
  8  9  1  0
  9 10  1  0
  9 11  1  0
 11 12  1  0
 12 13  1  0
 13 14  1  0
 14 15  1  0
 15 16  1  0
 16 17  1  0
 17 18  1  0
 18 19  1  0
  2 20  1  0
 20 21  2  0
 21 22  1  0
 22 23  2  0
 23 24  1  0
 24 25  2  0
 25 26  1  0
 26 27  2  0
 27 28  1  0
 28 29  2  0
 12  7  1  0
 19 15  1  0
 29 20  1  0
 28 23  1  0
  3 30  1  0
  4 31  1  0
  4 32  1  0
  8 33  1  0
  8 34  1  0
  9 35  1  6
 10 36  1  0
 11 37  1  0
 11 38  1  0
 12 39  1  1
 13 40  1  0
 13 41  1  0
 15 42  1  0
 16 43  1  0
 16 44  1  0
 17 45  1  0
 17 46  1  0
 18 47  1  0
 18 48  1  0
 19 49  1  0
 19 50  1  0
 21 51  1  0
 22 52  1  0
 24 53  1  0
 25 54  1  0
 26 55  1  0
 27 56  1  0
M  END
>  <smiles>  (5) 
O=C(NCC(=O)N1C[C@H](O)C[C@H]1COC1CCCC1)c1ccc2ccccc2n1

>  <score_type>  (5) 
oracle

>  <origin>  (5) 
autodockgpu

>  <m_score__min__energy>  (5) 
-8.5500000000000007

>  <m_primary>  (5) 
energy

>  <rmsd>  (5) 
7.661830803087824

>  <m_score__min__rmsd>  (5) 
7.661830803087824

>  <meeko>  (5) 
{"free_energy": -7.0, "intermolecular_energy": -9.39, "internal_energy": -3.64, "cluster_size": 33, "cluster_id": 4, "rank_in_cluster": 19}

>  <energy>  (5) 
-8.22

>  <cluster_rmsd>  (5) 
0.98

>  <cluster>  (5) 
1

$$$$

     RDKit          3D

 56 59  0  0  0  0  0  0  0  0999 V2000
  139.0830   74.8190  222.3130 O   0  0  0  0  0  0  0  0  0  0  0  0
  140.1380   75.4860  222.0510 C   0  0  0  0  0  0  0  0  0  0  0  0
  141.2390   74.8250  221.4380 N   0  0  0  0  0  0  0  0  0  0  0  0
  141.2180   73.4160  221.0950 C   0  0  0  0  0  0  0  0  0  0  0  0
  141.8210   73.2550  219.7560 C   0  0  0  0  0  0  0  0  0  0  0  0
  141.1110   72.7740  218.8360 O   0  0  0  0  0  0  0  0  0  0  0  0
  143.1720   73.6510  219.5910 N   0  0  0  0  0  0  0  0  0  0  0  0
  144.1520   73.2620  218.5960 C   0  0  0  0  0  0  0  0  0  0  0  0
  145.4750   73.2980  219.3730 C   0  0  2  0  0  0  0  0  0  0  0  0
  146.0210   72.0190  219.4580 O   0  0  0  0  0  0  0  0  0  0  0  0
  145.0820   73.7720  220.7610 C   0  0  0  0  0  0  0  0  0  0  0  0
  143.9150   74.6220  220.4660 C   0  0  1  0  0  0  0  0  0  0  0  0
  144.0520   75.9100  219.7780 C   0  0  0  0  0  0  0  0  0  0  0  0
  142.9310   76.6310  219.6310 O   0  0  0  0  0  0  0  0  0  0  0  0
  142.5610   77.1110  218.4240 C   0  0  0  0  0  0  0  0  0  0  0  0
  142.5250   78.6390  218.5190 C   0  0  0  0  0  0  0  0  0  0  0  0
  141.2110   78.9300  219.2110 C   0  0  0  0  0  0  0  0  0  0  0  0
  140.4480   77.6210  219.2800 C   0  0  0  0  0  0  0  0  0  0  0  0
  141.0760   76.8450  218.1420 C   0  0  0  0  0  0  0  0  0  0  0  0
  140.2010   76.9030  222.3790 C   0  0  0  0  0  0  0  0  0  0  0  0
  139.0300   77.6000  222.6370 C   0  0  0  0  0  0  0  0  0  0  0  0
  139.1750   78.9450  222.9420 C   0  0  0  0  0  0  0  0  0  0  0  0
  140.4060   79.5730  222.9900 C   0  0  0  0  0  0  0  0  0  0  0  0
  140.5120   80.9340  223.3030 C   0  0  0  0  0  0  0  0  0  0  0  0
  141.8100   81.4400  223.3170 C   0  0  0  0  0  0  0  0  0  0  0  0
  142.9130   80.6570  223.0440 C   0  0  0  0  0  0  0  0  0  0  0  0
  142.7720   79.3320  222.7430 C   0  0  0  0  0  0  0  0  0  0  0  0
  141.5080   78.7940  222.7180 C   0  0  0  0  0  0  0  0  0  0  0  0
  141.3730   77.5110  222.4270 N   0  0  0  0  0  0  0  0  0  0  0  0
  142.0800   75.4150  221.2440 H   0  0  0  0  0  0  0  0  0  0  0  0
  141.7975   72.8445  221.8350 H   0  0  0  0  0  0  0  0  0  0  0  0
  140.1834   73.0423  221.0919 H   0  0  0  0  0  0  0  0  0  0  0  0
  143.9463   72.2511  218.2141 H   0  0  0  0  0  0  0  0  0  0  0  0
  144.1529   73.9174  217.7126 H   0  0  0  0  0  0  0  0  0  0  0  0
  146.2237   73.9443  218.8915 H   0  0  0  0  0  0  0  0  0  0  0  0
  145.9520   71.6520  220.3790 H   0  0  0  0  0  0  0  0  0  0  0  0
  144.8092   72.9276  221.4110 H   0  0  0  0  0  0  0  0  0  0  0  0
  145.8878   74.2909  221.3009 H   0  0  0  0  0  0  0  0  0  0  0  0
  143.4837   75.0017  221.4040 H   0  0  0  0  0  0  0  0  0  0  0  0
  144.7690   76.5191  220.3481 H   0  0  0  0  0  0  0  0  0  0  0  0
  144.3752   75.6619  218.7562 H   0  0  0  0  0  0  0  0  0  0  0  0
  143.2450   76.6636  217.6878 H   0  0  0  0  0  0  0  0  0  0  0  0
  143.3715   79.0142  219.1128 H   0  0  0  0  0  0  0  0  0  0  0  0
  142.6040   79.1270  217.5364 H   0  0  0  0  0  0  0  0  0  0  0  0
  141.3949   79.3142  220.2252 H   0  0  0  0  0  0  0  0  0  0  0  0
  140.6374   79.6908  218.6613 H   0  0  0  0  0  0  0  0  0  0  0  0
  140.6033   77.1158  220.2447 H   0  0  0  0  0  0  0  0  0  0  0  0
  139.3568   77.7332  219.1978 H   0  0  0  0  0  0  0  0  0  0  0  0
  140.8358   75.7730  218.1976 H   0  0  0  0  0  0  0  0  0  0  0  0
  140.7356   77.1388  217.1381 H   0  0  0  0  0  0  0  0  0  0  0  0
  138.0437   77.1142  222.6017 H   0  0  0  0  0  0  0  0  0  0  0  0
  138.2728   79.5372  223.1547 H   0  0  0  0  0  0  0  0  0  0  0  0
  139.6334   81.5586  223.5220 H   0  0  0  0  0  0  0  0  0  0  0  0
  141.9612   82.5033  223.5545 H   0  0  0  0  0  0  0  0  0  0  0  0
  143.9173   81.1049  223.0691 H   0  0  0  0  0  0  0  0  0  0  0  0
  143.6519   78.7089  222.5252 H   0  0  0  0  0  0  0  0  0  0  0  0
  1  2  2  0
  2  3  1  0
  3  4  1  0
  4  5  1  0
  5  6  2  0
  5  7  1  0
  7  8  1  0
  8  9  1  0
  9 10  1  0
  9 11  1  0
 11 12  1  0
 12 13  1  0
 13 14  1  0
 14 15  1  0
 15 16  1  0
 16 17  1  0
 17 18  1  0
 18 19  1  0
  2 20  1  0
 20 21  2  0
 21 22  1  0
 22 23  2  0
 23 24  1  0
 24 25  2  0
 25 26  1  0
 26 27  2  0
 27 28  1  0
 28 29  2  0
 12  7  1  0
 19 15  1  0
 29 20  1  0
 28 23  1  0
  3 30  1  0
  4 31  1  0
  4 32  1  0
  8 33  1  0
  8 34  1  0
  9 35  1  6
 10 36  1  0
 11 37  1  0
 11 38  1  0
 12 39  1  1
 13 40  1  0
 13 41  1  0
 15 42  1  0
 16 43  1  0
 16 44  1  0
 17 45  1  0
 17 46  1  0
 18 47  1  0
 18 48  1  0
 19 49  1  0
 19 50  1  0
 21 51  1  0
 22 52  1  0
 24 53  1  0
 25 54  1  0
 26 55  1  0
 27 56  1  0
M  END
>  <smiles>  (6) 
O=C(NCC(=O)N1C[C@H](O)C[C@H]1COC1CCCC1)c1ccc2ccccc2n1

>  <score_type>  (6) 
oracle

>  <origin>  (6) 
autodockgpu

>  <m_score__min__energy>  (6) 
-8.5500000000000007

>  <m_primary>  (6) 
energy

>  <rmsd>  (6) 
7.673459650930436

>  <m_score__min__rmsd>  (6) 
7.673459650930436

>  <meeko>  (6) 
{"free_energy": -6.77, "intermolecular_energy": -9.15, "internal_energy": -3.69, "cluster_size": 33, "cluster_id": 4, "rank_in_cluster": 26}

>  <energy>  (6) 
-8.06

>  <cluster_rmsd>  (6) 
1.79

>  <cluster>  (6) 
1

$$$$

     RDKit          3D

 56 59  0  0  0  0  0  0  0  0999 V2000
  140.3330   71.3480  221.2740 O   0  0  0  0  0  0  0  0  0  0  0  0
  140.0690   71.9500  222.3670 C   0  0  0  0  0  0  0  0  0  0  0  0
  139.7890   73.3450  222.3370 N   0  0  0  0  0  0  0  0  0  0  0  0
  139.7890   74.1200  221.1110 C   0  0  0  0  0  0  0  0  0  0  0  0
  139.9750   75.5430  221.4610 C   0  0  0  0  0  0  0  0  0  0  0  0
  139.7570   75.9000  222.6460 O   0  0  0  0  0  0  0  0  0  0  0  0
  140.3880   76.4250  220.4300 N   0  0  0  0  0  0  0  0  0  0  0  0
  139.6380   77.0110  219.3370 C   0  0  0  0  0  0  0  0  0  0  0  0
  140.6760   77.1060  218.2100 C   0  0  2  0  0  0  0  0  0  0  0  0
  140.3140   76.2790  217.1480 O   0  0  0  0  0  0  0  0  0  0  0  0
  141.9590   76.5900  218.8360 C   0  0  0  0  0  0  0  0  0  0  0  0
  141.7760   76.9730  220.2470 C   0  0  1  0  0  0  0  0  0  0  0  0
  141.8190   78.3750  220.6780 C   0  0  0  0  0  0  0  0  0  0  0  0
  141.0020   78.7160  221.6860 O   0  0  0  0  0  0  0  0  0  0  0  0
  141.4480   78.7700  222.9590 C   0  0  0  0  0  0  0  0  0  0  0  0
  140.3730   79.4640  223.8010 C   0  0  0  0  0  0  0  0  0  0  0  0
  140.5710   80.9350  223.5040 C   0  0  0  0  0  0  0  0  0  0  0  0
  141.8580   81.0570  222.7120 C   0  0  0  0  0  0  0  0  0  0  0  0
  142.5830   79.7900  223.1170 C   0  0  0  0  0  0  0  0  0  0  0  0
  140.0580   71.2090  223.6200 C   0  0  0  0  0  0  0  0  0  0  0  0
  139.5550   69.9170  223.6480 C   0  0  0  0  0  0  0  0  0  0  0  0
  139.5790   69.2790  224.8790 C   0  0  0  0  0  0  0  0  0  0  0  0
  140.0710   69.8800  226.0230 C   0  0  0  0  0  0  0  0  0  0  0  0
  140.0790   69.2030  227.2490 C   0  0  0  0  0  0  0  0  0  0  0  0
  140.6020   69.9240  228.3210 C   0  0  0  0  0  0  0  0  0  0  0  0
  141.0780   71.2120  228.1860 C   0  0  0  0  0  0  0  0  0  0  0  0
  141.0540   71.8410  226.9740 C   0  0  0  0  0  0  0  0  0  0  0  0
  140.5460   71.1650  225.8910 C   0  0  0  0  0  0  0  0  0  0  0  0
  140.5250   71.7760  224.7190 N   0  0  0  0  0  0  0  0  0  0  0  0
  139.5780   73.7920  223.2580 H   0  0  0  0  0  0  0  0  0  0  0  0
  140.6109   73.7866  220.4604 H   0  0  0  0  0  0  0  0  0  0  0  0
  138.8376   73.9828  220.5762 H   0  0  0  0  0  0  0  0  0  0  0  0
  138.7968   76.3651  219.0450 H   0  0  0  0  0  0  0  0  0  0  0  0
  139.1898   77.9823  219.5935 H   0  0  0  0  0  0  0  0  0  0  0  0
  140.7691   78.1284  217.8149 H   0  0  0  0  0  0  0  0  0  0  0  0
  139.3870   76.4610  216.8420 H   0  0  0  0  0  0  0  0  0  0  0  0
  142.0494   75.4994  218.7247 H   0  0  0  0  0  0  0  0  0  0  0  0
  142.8740   76.9939  218.3780 H   0  0  0  0  0  0  0  0  0  0  0  0
  142.6244   76.6082  220.8446 H   0  0  0  0  0  0  0  0  0  0  0  0
  142.8493   78.5964  220.9932 H   0  0  0  0  0  0  0  0  0  0  0  0
  141.4716   78.9570  219.8116 H   0  0  0  0  0  0  0  0  0  0  0  0
  141.7267   77.7425  223.2357 H   0  0  0  0  0  0  0  0  0  0  0  0
  139.3673   79.1358  223.4994 H   0  0  0  0  0  0  0  0  0  0  0  0
  140.4588   79.2324  224.8729 H   0  0  0  0  0  0  0  0  0  0  0  0
  139.7260   81.3184  222.9133 H   0  0  0  0  0  0  0  0  0  0  0  0
  140.6250   81.5199  224.4341 H   0  0  0  0  0  0  0  0  0  0  0  0
  141.6631   81.0800  221.6296 H   0  0  0  0  0  0  0  0  0  0  0  0
  142.4220   81.9800  222.9121 H   0  0  0  0  0  0  0  0  0  0  0  0
  143.4259   79.5698  222.4454 H   0  0  0  0  0  0  0  0  0  0  0  0
  143.0433   79.8192  224.1156 H   0  0  0  0  0  0  0  0  0  0  0  0
  139.1599   69.4267  222.7461 H   0  0  0  0  0  0  0  0  0  0  0  0
  139.1905   68.2522  224.9483 H   0  0  0  0  0  0  0  0  0  0  0  0
  139.6998   68.1762  227.3580 H   0  0  0  0  0  0  0  0  0  0  0  0
  140.6366   69.4482  229.3122 H   0  0  0  0  0  0  0  0  0  0  0  0
  141.4812   71.7379  229.0640 H   0  0  0  0  0  0  0  0  0  0  0  0
  141.4336   72.8679  226.8670 H   0  0  0  0  0  0  0  0  0  0  0  0
  1  2  2  0
  2  3  1  0
  3  4  1  0
  4  5  1  0
  5  6  2  0
  5  7  1  0
  7  8  1  0
  8  9  1  0
  9 10  1  0
  9 11  1  0
 11 12  1  0
 12 13  1  0
 13 14  1  0
 14 15  1  0
 15 16  1  0
 16 17  1  0
 17 18  1  0
 18 19  1  0
  2 20  1  0
 20 21  2  0
 21 22  1  0
 22 23  2  0
 23 24  1  0
 24 25  2  0
 25 26  1  0
 26 27  2  0
 27 28  1  0
 28 29  2  0
 12  7  1  0
 19 15  1  0
 29 20  1  0
 28 23  1  0
  3 30  1  0
  4 31  1  0
  4 32  1  0
  8 33  1  0
  8 34  1  0
  9 35  1  6
 10 36  1  0
 11 37  1  0
 11 38  1  0
 12 39  1  1
 13 40  1  0
 13 41  1  0
 15 42  1  0
 16 43  1  0
 16 44  1  0
 17 45  1  0
 17 46  1  0
 18 47  1  0
 18 48  1  0
 19 49  1  0
 19 50  1  0
 21 51  1  0
 22 52  1  0
 24 53  1  0
 25 54  1  0
 26 55  1  0
 27 56  1  0
M  END
>  <smiles>  (7) 
O=C(NCC(=O)N1C[C@H](O)C[C@H]1COC1CCCC1)c1ccc2ccccc2n1

>  <score_type>  (7) 
oracle

>  <origin>  (7) 
autodockgpu

>  <m_score__min__energy>  (7) 
-8.5500000000000007

>  <m_primary>  (7) 
energy

>  <rmsd>  (7) 
1.5208641318111833

>  <m_score__min__rmsd>  (7) 
1.5208641318111833

>  <meeko>  (7) 
{"free_energy": -7.9, "intermolecular_energy": -10.29, "internal_energy": -2.21, "cluster_size": 14, "cluster_id": 1, "rank_in_cluster": 7}

>  <energy>  (7) 
-7.9

>  <cluster_rmsd>  (7) 
1.34

>  <cluster>  (7) 
1

$$$$

     RDKit          3D

 56 59  0  0  0  0  0  0  0  0999 V2000
  138.6620   75.3870  221.6820 O   0  0  0  0  0  0  0  0  0  0  0  0
  139.8480   75.8480  221.7660 C   0  0  0  0  0  0  0  0  0  0  0  0
  140.9340   75.0440  221.3210 N   0  0  0  0  0  0  0  0  0  0  0  0
  140.7540   73.7140  220.7710 C   0  0  0  0  0  0  0  0  0  0  0  0
  142.0000   72.9500  220.9840 C   0  0  0  0  0  0  0  0  0  0  0  0
  141.9770   71.9850  221.7900 O   0  0  0  0  0  0  0  0  0  0  0  0
  143.1520   73.3550  220.2640 N   0  0  0  0  0  0  0  0  0  0  0  0
  143.8040   72.7550  219.1180 C   0  0  0  0  0  0  0  0  0  0  0  0
  145.2870   73.0790  219.3470 C   0  0  2  0  0  0  0  0  0  0  0  0
  146.0130   71.9060  219.5480 O   0  0  0  0  0  0  0  0  0  0  0  0
  145.2980   73.9030  220.6220 C   0  0  0  0  0  0  0  0  0  0  0  0
  143.9860   74.5720  220.5560 C   0  0  1  0  0  0  0  0  0  0  0  0
  143.7030   75.6190  219.5680 C   0  0  0  0  0  0  0  0  0  0  0  0
  142.5980   76.3500  219.7730 O   0  0  0  0  0  0  0  0  0  0  0  0
  141.7550   76.6430  218.7600 C   0  0  0  0  0  0  0  0  0  0  0  0
  142.5650   77.3440  217.6650 C   0  0  0  0  0  0  0  0  0  0  0  0
  142.7040   78.7640  218.1670 C   0  0  0  0  0  0  0  0  0  0  0  0
  141.8020   78.8960  219.3790 C   0  0  0  0  0  0  0  0  0  0  0  0
  140.8010   77.7860  219.1310 C   0  0  0  0  0  0  0  0  0  0  0  0
  140.0730   77.1780  222.3130 C   0  0  0  0  0  0  0  0  0  0  0  0
  138.9950   77.9250  222.7650 C   0  0  0  0  0  0  0  0  0  0  0  0
  139.2920   79.1810  223.2710 C   0  0  0  0  0  0  0  0  0  0  0  0
  140.5810   79.6790  223.3290 C   0  0  0  0  0  0  0  0  0  0  0  0
  140.8420   80.9530  223.8480 C   0  0  0  0  0  0  0  0  0  0  0  0
  142.1840   81.3300  223.8480 C   0  0  0  0  0  0  0  0  0  0  0  0
  143.1840   80.5080  223.3720 C   0  0  0  0  0  0  0  0  0  0  0  0
  142.8930   79.2700  222.8730 C   0  0  0  0  0  0  0  0  0  0  0  0
  141.5820   78.8600  222.8550 C   0  0  0  0  0  0  0  0  0  0  0  0
  141.3010   77.6620  222.3720 N   0  0  0  0  0  0  0  0  0  0  0  0
  141.8870   75.4660  221.4120 H   0  0  0  0  0  0  0  0  0  0  0  0
  139.9182   73.2114  221.2798 H   0  0  0  0  0  0  0  0  0  0  0  0
  140.5274   73.7764  219.6964 H   0  0  0  0  0  0  0  0  0  0  0  0
  143.6371   71.6680  219.0939 H   0  0  0  0  0  0  0  0  0  0  0  0
  143.4233   73.1343  218.1582 H   0  0  0  0  0  0  0  0  0  0  0  0
  145.7365   73.6022  218.4901 H   0  0  0  0  0  0  0  0  0  0  0  0
  145.9010   71.5600  220.4720 H   0  0  0  0  0  0  0  0  0  0  0  0
  145.3773   73.2625  221.5128 H   0  0  0  0  0  0  0  0  0  0  0  0
  146.1492   74.5954  220.6992 H   0  0  0  0  0  0  0  0  0  0  0  0
  143.8291   75.1765  221.4615 H   0  0  0  0  0  0  0  0  0  0  0  0
  144.5613   76.3068  219.5543 H   0  0  0  0  0  0  0  0  0  0  0  0
  143.5296   75.0873  218.6208 H   0  0  0  0  0  0  0  0  0  0  0  0
  141.2482   75.7032  218.4956 H   0  0  0  0  0  0  0  0  0  0  0  0
  143.5518   76.8728  217.5459 H   0  0  0  0  0  0  0  0  0  0  0  0
  142.0813   77.2885  216.6786 H   0  0  0  0  0  0  0  0  0  0  0  0
  143.7481   78.9643  218.4495 H   0  0  0  0  0  0  0  0  0  0  0  0
  142.4211   79.4858  217.3866 H   0  0  0  0  0  0  0  0  0  0  0  0
  142.3585   78.7341  220.3139 H   0  0  0  0  0  0  0  0  0  0  0  0
  141.3489   79.8916  219.4953 H   0  0  0  0  0  0  0  0  0  0  0  0
  140.2175   77.5536  220.0340 H   0  0  0  0  0  0  0  0  0  0  0  0
  140.0354   78.0137  218.3747 H   0  0  0  0  0  0  0  0  0  0  0  0
  137.9643   77.5429  222.7243 H   0  0  0  0  0  0  0  0  0  0  0  0
  138.4678   79.8079  223.6420 H   0  0  0  0  0  0  0  0  0  0  0  0
  140.0453   81.6092  224.2284 H   0  0  0  0  0  0  0  0  0  0  0  0
  142.4557   82.3203  224.2425 H   0  0  0  0  0  0  0  0  0  0  0  0
  144.2282   80.8533  223.3944 H   0  0  0  0  0  0  0  0  0  0  0  0
  143.6915   78.6154  222.4937 H   0  0  0  0  0  0  0  0  0  0  0  0
  1  2  2  0
  2  3  1  0
  3  4  1  0
  4  5  1  0
  5  6  2  0
  5  7  1  0
  7  8  1  0
  8  9  1  0
  9 10  1  0
  9 11  1  0
 11 12  1  0
 12 13  1  0
 13 14  1  0
 14 15  1  0
 15 16  1  0
 16 17  1  0
 17 18  1  0
 18 19  1  0
  2 20  1  0
 20 21  2  0
 21 22  1  0
 22 23  2  0
 23 24  1  0
 24 25  2  0
 25 26  1  0
 26 27  2  0
 27 28  1  0
 28 29  2  0
 12  7  1  0
 19 15  1  0
 29 20  1  0
 28 23  1  0
  3 30  1  0
  4 31  1  0
  4 32  1  0
  8 33  1  0
  8 34  1  0
  9 35  1  6
 10 36  1  0
 11 37  1  0
 11 38  1  0
 12 39  1  1
 13 40  1  0
 13 41  1  0
 15 42  1  0
 16 43  1  0
 16 44  1  0
 17 45  1  0
 17 46  1  0
 18 47  1  0
 18 48  1  0
 19 49  1  0
 19 50  1  0
 21 51  1  0
 22 52  1  0
 24 53  1  0
 25 54  1  0
 26 55  1  0
 27 56  1  0
M  END
>  <smiles>  (8) 
O=C(NCC(=O)N1C[C@H](O)C[C@H]1COC1CCCC1)c1ccc2ccccc2n1

>  <score_type>  (8) 
oracle

>  <origin>  (8) 
autodockgpu

>  <m_score__min__energy>  (8) 
-8.5500000000000007

>  <m_primary>  (8) 
energy

>  <rmsd>  (8) 
7.642119787808386

>  <m_score__min__rmsd>  (8) 
7.642119787808386

>  <meeko>  (8) 
{"free_energy": -7.18, "intermolecular_energy": -9.56, "internal_energy": -3.55, "cluster_size": 33, "cluster_id": 4, "rank_in_cluster": 7}

>  <energy>  (8) 
-7.9

>  <cluster_rmsd>  (8) 
1.42

>  <cluster>  (8) 
1

$$$$

     RDKit          3D

 56 59  0  0  0  0  0  0  0  0999 V2000
  139.5980   73.6750  222.3610 O   0  0  0  0  0  0  0  0  0  0  0  0
  140.3270   72.6290  222.3470 C   0  0  0  0  0  0  0  0  0  0  0  0
  141.2450   72.4410  221.2770 N   0  0  0  0  0  0  0  0  0  0  0  0
  141.3930   73.3920  220.1920 C   0  0  0  0  0  0  0  0  0  0  0  0
  142.1290   74.5680  220.7010 C   0  0  0  0  0  0  0  0  0  0  0  0
  143.3810   74.4980  220.7830 O   0  0  0  0  0  0  0  0  0  0  0  0
  141.3720   75.7080  221.0710 N   0  0  0  0  0  0  0  0  0  0  0  0
  141.0050   76.2090  222.3810 C   0  0  0  0  0  0  0  0  0  0  0  0
  139.6260   76.8400  222.1420 C   0  0  2  0  0  0  0  0  0  0  0  0
  138.6490   76.1490  222.8560 O   0  0  0  0  0  0  0  0  0  0  0  0
  139.3840   76.6610  220.6540 C   0  0  0  0  0  0  0  0  0  0  0  0
  140.7580   76.7000  220.1220 C   0  0  1  0  0  0  0  0  0  0  0  0
  141.5480   77.9360  220.1130 C   0  0  0  0  0  0  0  0  0  0  0  0
  141.0230   78.9850  220.7640 O   0  0  0  0  0  0  0  0  0  0  0  0
  141.8130   79.9440  221.2940 C   0  0  0  0  0  0  0  0  0  0  0  0
  142.5760   79.3250  222.4690 C   0  0  0  0  0  0  0  0  0  0  0  0
  141.5660   79.3140  223.5950 C   0  0  0  0  0  0  0  0  0  0  0  0
  140.3670   80.1140  223.1220 C   0  0  0  0  0  0  0  0  0  0  0  0
  140.9920   80.9920  222.0580 C   0  0  0  0  0  0  0  0  0  0  0  0
  140.2100   71.6480  223.4170 C   0  0  0  0  0  0  0  0  0  0  0  0
  139.6260   70.4170  223.1570 C   0  0  0  0  0  0  0  0  0  0  0  0
  139.5520   69.5380  224.2280 C   0  0  0  0  0  0  0  0  0  0  0  0
  140.0260   69.8530  225.4880 C   0  0  0  0  0  0  0  0  0  0  0  0
  139.9340   68.9390  226.5450 C   0  0  0  0  0  0  0  0  0  0  0  0
  140.4510   69.3840  227.7600 C   0  0  0  0  0  0  0  0  0  0  0  0
  141.0130   70.6350  227.9130 C   0  0  0  0  0  0  0  0  0  0  0  0
  141.0860   71.5000  226.8590 C   0  0  0  0  0  0  0  0  0  0  0  0
  140.5880   71.1000  225.6430 C   0  0  0  0  0  0  0  0  0  0  0  0
  140.6600   71.9400  224.6240 N   0  0  0  0  0  0  0  0  0  0  0  0
  141.8190   71.5680  221.3100 H   0  0  0  0  0  0  0  0  0  0  0  0
  141.9552   72.9301  219.3670 H   0  0  0  0  0  0  0  0  0  0  0  0
  140.4043   73.6969  219.8186 H   0  0  0  0  0  0  0  0  0  0  0  0
  140.9426   75.3903  223.1131 H   0  0  0  0  0  0  0  0  0  0  0  0
  141.7383   76.9182  222.7924 H   0  0  0  0  0  0  0  0  0  0  0  0
  139.5873   77.8916  222.4623 H   0  0  0  0  0  0  0  0  0  0  0  0
  138.9270   75.2150  223.0470 H   0  0  0  0  0  0  0  0  0  0  0  0
  138.8980   75.6977  220.4396 H   0  0  0  0  0  0  0  0  0  0  0  0
  138.7137   77.4154  220.2163 H   0  0  0  0  0  0  0  0  0  0  0  0
  140.7419   76.5276  219.0357 H   0  0  0  0  0  0  0  0  0  0  0  0
  142.5235   77.7129  220.5698 H   0  0  0  0  0  0  0  0  0  0  0  0
  141.5982   78.2427  219.0578 H   0  0  0  0  0  0  0  0  0  0  0  0
  142.4050   80.3548  220.4629 H   0  0  0  0  0  0  0  0  0  0  0  0
  142.9038   78.3031  222.2276 H   0  0  0  0  0  0  0  0  0  0  0  0
  143.4883   79.8844  222.7236 H   0  0  0  0  0  0  0  0  0  0  0  0
  141.2650   78.2808  223.8226 H   0  0  0  0  0  0  0  0  0  0  0  0
  141.9930   79.7501  224.5101 H   0  0  0  0  0  0  0  0  0  0  0  0
  139.5896   79.4609  222.6987 H   0  0  0  0  0  0  0  0  0  0  0  0
  139.8558   80.6714  223.9207 H   0  0  0  0  0  0  0  0  0  0  0  0
  140.2309   81.4606  221.4169 H   0  0  0  0  0  0  0  0  0  0  0  0
  141.5721   81.8437  222.4429 H   0  0  0  0  0  0  0  0  0  0  0  0
  139.2438   70.1530  222.1599 H   0  0  0  0  0  0  0  0  0  0  0  0
  139.0972   68.5493  224.0679 H   0  0  0  0  0  0  0  0  0  0  0  0
  139.4859   67.9416  226.4248 H   0  0  0  0  0  0  0  0  0  0  0  0
  140.4096   68.7126  228.6303 H   0  0  0  0  0  0  0  0  0  0  0  0
  141.4063   70.9386  228.8944 H   0  0  0  0  0  0  0  0  0  0  0  0
  141.5345   72.4969  226.9812 H   0  0  0  0  0  0  0  0  0  0  0  0
  1  2  2  0
  2  3  1  0
  3  4  1  0
  4  5  1  0
  5  6  2  0
  5  7  1  0
  7  8  1  0
  8  9  1  0
  9 10  1  0
  9 11  1  0
 11 12  1  0
 12 13  1  0
 13 14  1  0
 14 15  1  0
 15 16  1  0
 16 17  1  0
 17 18  1  0
 18 19  1  0
  2 20  1  0
 20 21  2  0
 21 22  1  0
 22 23  2  0
 23 24  1  0
 24 25  2  0
 25 26  1  0
 26 27  2  0
 27 28  1  0
 28 29  2  0
 12  7  1  0
 19 15  1  0
 29 20  1  0
 28 23  1  0
  3 30  1  0
  4 31  1  0
  4 32  1  0
  8 33  1  0
  8 34  1  0
  9 35  1  6
 10 36  1  0
 11 37  1  0
 11 38  1  0
 12 39  1  6
 13 40  1  0
 13 41  1  0
 15 42  1  0
 16 43  1  0
 16 44  1  0
 17 45  1  0
 17 46  1  0
 18 47  1  0
 18 48  1  0
 19 49  1  0
 19 50  1  0
 21 51  1  0
 22 52  1  0
 24 53  1  0
 25 54  1  0
 26 55  1  0
 27 56  1  0
M  END
>  <smiles>  (9) 
O=C(NCC(=O)N1C[C@H](O)C[C@H]1COC1CCCC1)c1ccc2ccccc2n1

>  <score_type>  (9) 
oracle

>  <origin>  (9) 
autodockgpu

>  <m_score__min__energy>  (9) 
-8.5500000000000007

>  <m_primary>  (9) 
energy

>  <rmsd>  (9) 
2.7752171343227277

>  <m_score__min__rmsd>  (9) 
2.7752171343227277

>  <meeko>  (9) 
{"free_energy": -7.9, "intermolecular_energy": -10.28, "internal_energy": -2.56, "cluster_size": 14, "cluster_id": 1, "rank_in_cluster": 8}

>  <energy>  (9) 
-7.83

>  <cluster_rmsd>  (9) 
1.38

>  <cluster>  (9) 
1

$$$$

     RDKit          3D

 56 59  0  0  0  0  0  0  0  0999 V2000
  139.1010   74.5950  222.2870 O   0  0  0  0  0  0  0  0  0  0  0  0
  140.0970   75.3260  221.9730 C   0  0  0  0  0  0  0  0  0  0  0  0
  141.1800   74.7470  221.2560 N   0  0  0  0  0  0  0  0  0  0  0  0
  141.2050   73.3510  220.8610 C   0  0  0  0  0  0  0  0  0  0  0  0
  141.7300   73.2670  219.4820 C   0  0  0  0  0  0  0  0  0  0  0  0
  140.9690   72.8340  218.5800 O   0  0  0  0  0  0  0  0  0  0  0  0
  143.0680   73.6800  219.2620 N   0  0  0  0  0  0  0  0  0  0  0  0
  143.8730   73.6550  218.0570 C   0  0  0  0  0  0  0  0  0  0  0  0
  145.2900   73.3990  218.5870 C   0  0  2  0  0  0  0  0  0  0  0  0
  145.7590   72.1660  218.1390 O   0  0  0  0  0  0  0  0  0  0  0  0
  145.1250   73.3580  220.0960 C   0  0  0  0  0  0  0  0  0  0  0  0
  143.9860   74.2710  220.2950 C   0  0  1  0  0  0  0  0  0  0  0  0
  144.1090   75.7180  220.0840 C   0  0  0  0  0  0  0  0  0  0  0  0
  142.9710   76.3860  219.8470 O   0  0  0  0  0  0  0  0  0  0  0  0
  142.8310   77.1620  218.7510 C   0  0  0  0  0  0  0  0  0  0  0  0
  142.0810   78.4300  219.1680 C   0  0  0  0  0  0  0  0  0  0  0  0
  140.6340   77.9920  219.2350 C   0  0  0  0  0  0  0  0  0  0  0  0
  140.5660   76.5960  218.6470 C   0  0  0  0  0  0  0  0  0  0  0  0
  141.8030   76.5770  217.7730 C   0  0  0  0  0  0  0  0  0  0  0  0
  140.1130   76.7330  222.3500 C   0  0  0  0  0  0  0  0  0  0  0  0
  138.9190   77.3810  222.6280 C   0  0  0  0  0  0  0  0  0  0  0  0
  139.0180   78.7190  222.9790 C   0  0  0  0  0  0  0  0  0  0  0  0
  140.2280   79.3850  223.0520 C   0  0  0  0  0  0  0  0  0  0  0  0
  140.2880   80.7370  223.4110 C   0  0  0  0  0  0  0  0  0  0  0  0
  141.5690   81.2850  223.4470 C   0  0  0  0  0  0  0  0  0  0  0  0
  142.6980   80.5490  223.1500 C   0  0  0  0  0  0  0  0  0  0  0  0
  142.6010   79.2320  222.8040 C   0  0  0  0  0  0  0  0  0  0  0  0
  141.3560   78.6530  222.7570 C   0  0  0  0  0  0  0  0  0  0  0  0
  141.2640   77.3770  222.4220 N   0  0  0  0  0  0  0  0  0  0  0  0
  141.9730   75.3870  221.0230 H   0  0  0  0  0  0  0  0  0  0  0  0
  141.8564   72.7836  221.5420 H   0  0  0  0  0  0  0  0  0  0  0  0
  140.1912   72.9266  220.9065 H   0  0  0  0  0  0  0  0  0  0  0  0
  143.5513   72.8461  217.3845 H   0  0  0  0  0  0  0  0  0  0  0  0
  143.7940   74.5795  217.4663 H   0  0  0  0  0  0  0  0  0  0  0  0
  146.0047   74.1648  218.2512 H   0  0  0  0  0  0  0  0  0  0  0  0
  145.0140   71.5700  217.8610 H   0  0  0  0  0  0  0  0  0  0  0  0
  144.8909   72.3420  220.4466 H   0  0  0  0  0  0  0  0  0  0  0  0
  146.0297   73.6436  220.6527 H   0  0  0  0  0  0  0  0  0  0  0  0
  143.7145   74.3006  221.3606 H   0  0  0  0  0  0  0  0  0  0  0  0
  144.5685   76.1495  220.9855 H   0  0  0  0  0  0  0  0  0  0  0  0
  144.7084   75.8292  219.1684 H   0  0  0  0  0  0  0  0  0  0  0  0
  143.8378   77.2838  218.3250 H   0  0  0  0  0  0  0  0  0  0  0  0
  142.4282   78.7851  220.1495 H   0  0  0  0  0  0  0  0  0  0  0  0
  142.2393   79.2653  218.4700 H   0  0  0  0  0  0  0  0  0  0  0  0
  140.2912   77.9788  220.2802 H   0  0  0  0  0  0  0  0  0  0  0  0
  139.9877   78.6852  218.6767 H   0  0  0  0  0  0  0  0  0  0  0  0
  140.6162   75.8265  219.4314 H   0  0  0  0  0  0  0  0  0  0  0  0
  139.6318   76.3812  218.1074 H   0  0  0  0  0  0  0  0  0  0  0  0
  142.0689   75.5552  217.4644 H   0  0  0  0  0  0  0  0  0  0  0  0
  141.7064   77.1219  216.8223 H   0  0  0  0  0  0  0  0  0  0  0  0
  137.9497   76.8638  222.5733 H   0  0  0  0  0  0  0  0  0  0  0  0
  138.0962   79.2735  223.2088 H   0  0  0  0  0  0  0  0  0  0  0  0
  139.3887   81.3245  223.6476 H   0  0  0  0  0  0  0  0  0  0  0  0
  141.6844   82.3437  223.7225 H   0  0  0  0  0  0  0  0  0  0  0  0
  143.6869   81.0288  223.1925 H   0  0  0  0  0  0  0  0  0  0  0  0
  143.5015   78.6462  222.5676 H   0  0  0  0  0  0  0  0  0  0  0  0
  1  2  2  0
  2  3  1  0
  3  4  1  0
  4  5  1  0
  5  6  2  0
  5  7  1  0
  7  8  1  0
  8  9  1  0
  9 10  1  0
  9 11  1  0
 11 12  1  0
 12 13  1  0
 13 14  1  0
 14 15  1  0
 15 16  1  0
 16 17  1  0
 17 18  1  0
 18 19  1  0
  2 20  1  0
 20 21  2  0
 21 22  1  0
 22 23  2  0
 23 24  1  0
 24 25  2  0
 25 26  1  0
 26 27  2  0
 27 28  1  0
 28 29  2  0
 12  7  1  0
 19 15  1  0
 29 20  1  0
 28 23  1  0
  3 30  1  0
  4 31  1  0
  4 32  1  0
  8 33  1  0
  8 34  1  0
  9 35  1  1
 10 36  1  0
 11 37  1  0
 11 38  1  0
 12 39  1  1
 13 40  1  0
 13 41  1  0
 15 42  1  0
 16 43  1  0
 16 44  1  0
 17 45  1  0
 17 46  1  0
 18 47  1  0
 18 48  1  0
 19 49  1  0
 19 50  1  0
 21 51  1  0
 22 52  1  0
 24 53  1  0
 25 54  1  0
 26 55  1  0
 27 56  1  0
M  END
>  <smiles>  (10) 
O=C(NCC(=O)N1C[C@H](O)C[C@H]1COC1CCCC1)c1ccc2ccccc2n1

>  <score_type>  (10) 
oracle

>  <origin>  (10) 
autodockgpu

>  <m_score__min__energy>  (10) 
-8.5500000000000007

>  <m_primary>  (10) 
energy

>  <rmsd>  (10) 
7.532226254828592

>  <m_score__min__rmsd>  (10) 
7.532226254828592

>  <meeko>  (10) 
{"free_energy": -6.05, "intermolecular_energy": -8.44, "internal_energy": -4.0, "cluster_size": 33, "cluster_id": 4, "rank_in_cluster": 33}

>  <energy>  (10) 
-7.64

>  <cluster_rmsd>  (10) 
1.65

>  <cluster>  (10) 
1

$$$$

     RDKit          3D

 56 59  0  0  0  0  0  0  0  0999 V2000
  139.0910   74.9010  222.2720 O   0  0  0  0  0  0  0  0  0  0  0  0
  140.1740   75.5440  222.0770 C   0  0  0  0  0  0  0  0  0  0  0  0
  141.3040   74.8540  221.5570 N   0  0  0  0  0  0  0  0  0  0  0  0
  141.2800   73.4400  221.2350 C   0  0  0  0  0  0  0  0  0  0  0  0
  141.8150   73.2650  219.8690 C   0  0  0  0  0  0  0  0  0  0  0  0
  141.0560   72.7880  218.9880 O   0  0  0  0  0  0  0  0  0  0  0  0
  143.1610   73.6460  219.6360 N   0  0  0  0  0  0  0  0  0  0  0  0
  144.0910   73.2290  218.6050 C   0  0  0  0  0  0  0  0  0  0  0  0
  145.4480   73.2680  219.3210 C   0  0  2  0  0  0  0  0  0  0  0  0
  145.9870   71.9850  219.4070 O   0  0  0  0  0  0  0  0  0  0  0  0
  145.1230   73.7720  220.7160 C   0  0  0  0  0  0  0  0  0  0  0  0
  143.9500   74.6270  220.4570 C   0  0  1  0  0  0  0  0  0  0  0  0
  144.0660   75.9000  219.7380 C   0  0  0  0  0  0  0  0  0  0  0  0
  142.9970   76.7090  219.7780 O   0  0  0  0  0  0  0  0  0  0  0  0
  142.7000   77.5260  218.7450 C   0  0  0  0  0  0  0  0  0  0  0  0
  141.8260   78.6620  219.2840 C   0  0  0  0  0  0  0  0  0  0  0  0
  140.4500   78.0420  219.3940 C   0  0  0  0  0  0  0  0  0  0  0  0
  140.5190   76.6870  218.7170 C   0  0  0  0  0  0  0  0  0  0  0  0
  141.6960   76.8770  217.7830 C   0  0  0  0  0  0  0  0  0  0  0  0
  140.2400   76.9660  222.3880 C   0  0  0  0  0  0  0  0  0  0  0  0
  139.0690   77.6740  222.6100 C   0  0  0  0  0  0  0  0  0  0  0  0
  139.2160   79.0220  222.8990 C   0  0  0  0  0  0  0  0  0  0  0  0
  140.4510   79.6420  222.9660 C   0  0  0  0  0  0  0  0  0  0  0  0
  140.5590   81.0060  223.2620 C   0  0  0  0  0  0  0  0  0  0  0  0
  141.8610   81.5030  223.2980 C   0  0  0  0  0  0  0  0  0  0  0  0
  142.9640   80.7090  223.0590 C   0  0  0  0  0  0  0  0  0  0  0  0
  142.8200   79.3820  222.7740 C   0  0  0  0  0  0  0  0  0  0  0  0
  141.5530   78.8520  222.7290 C   0  0  0  0  0  0  0  0  0  0  0  0
  141.4150   77.5660  222.4530 N   0  0  0  0  0  0  0  0  0  0  0  0
  142.1680   75.4250  221.4160 H   0  0  0  0  0  0  0  0  0  0  0  0
  141.9026   72.8848  221.9520 H   0  0  0  0  0  0  0  0  0  0  0  0
  140.2504   73.0566  221.2903 H   0  0  0  0  0  0  0  0  0  0  0  0
  143.8599   72.2129  218.2527 H   0  0  0  0  0  0  0  0  0  0  0  0
  144.0570   73.8668  217.7095 H   0  0  0  0  0  0  0  0  0  0  0  0
  146.1789   73.8983  218.7932 H   0  0  0  0  0  0  0  0  0  0  0  0
  145.9370   71.6290  220.3330 H   0  0  0  0  0  0  0  0  0  0  0  0
  144.8733   72.9428  221.3943 H   0  0  0  0  0  0  0  0  0  0  0  0
  145.9567   74.2937  221.2087 H   0  0  0  0  0  0  0  0  0  0  0  0
  143.5646   75.0288  221.4057 H   0  0  0  0  0  0  0  0  0  0  0  0
  144.9172   76.4495  220.1663 H   0  0  0  0  0  0  0  0  0  0  0  0
  144.1851   75.6267  218.6792 H   0  0  0  0  0  0  0  0  0  0  0  0
  143.6578   77.7988  218.2778 H   0  0  0  0  0  0  0  0  0  0  0  0
  142.1838   78.9977  220.2685 H   0  0  0  0  0  0  0  0  0  0  0  0
  141.8399   79.5515  218.6370 H   0  0  0  0  0  0  0  0  0  0  0  0
  140.1731   77.9221  220.4518 H   0  0  0  0  0  0  0  0  0  0  0  0
  139.6922   78.6810  218.9171 H   0  0  0  0  0  0  0  0  0  0  0  0
  140.7083   75.8835  219.4440 H   0  0  0  0  0  0  0  0  0  0  0  0
  139.5883   76.3897  218.2116 H   0  0  0  0  0  0  0  0  0  0  0  0
  142.0664   75.9174  217.3931 H   0  0  0  0  0  0  0  0  0  0  0  0
  141.4782   77.4624  216.8775 H   0  0  0  0  0  0  0  0  0  0  0  0
  138.0805   77.1941  222.5598 H   0  0  0  0  0  0  0  0  0  0  0  0
  138.3134   79.6234  223.0826 H   0  0  0  0  0  0  0  0  0  0  0  0
  139.6802   81.6397  223.4524 H   0  0  0  0  0  0  0  0  0  0  0  0
  142.0148   82.5682  223.5255 H   0  0  0  0  0  0  0  0  0  0  0  0
  143.9707   81.1505  223.0986 H   0  0  0  0  0  0  0  0  0  0  0  0
  143.7000   78.7499  222.5843 H   0  0  0  0  0  0  0  0  0  0  0  0
  1  2  2  0
  2  3  1  0
  3  4  1  0
  4  5  1  0
  5  6  2  0
  5  7  1  0
  7  8  1  0
  8  9  1  0
  9 10  1  0
  9 11  1  0
 11 12  1  0
 12 13  1  0
 13 14  1  0
 14 15  1  0
 15 16  1  0
 16 17  1  0
 17 18  1  0
 18 19  1  0
  2 20  1  0
 20 21  2  0
 21 22  1  0
 22 23  2  0
 23 24  1  0
 24 25  2  0
 25 26  1  0
 26 27  2  0
 27 28  1  0
 28 29  2  0
 12  7  1  0
 19 15  1  0
 29 20  1  0
 28 23  1  0
  3 30  1  0
  4 31  1  0
  4 32  1  0
  8 33  1  0
  8 34  1  0
  9 35  1  6
 10 36  1  0
 11 37  1  0
 11 38  1  0
 12 39  1  1
 13 40  1  0
 13 41  1  0
 15 42  1  0
 16 43  1  0
 16 44  1  0
 17 45  1  0
 17 46  1  0
 18 47  1  0
 18 48  1  0
 19 49  1  0
 19 50  1  0
 21 51  1  0
 22 52  1  0
 24 53  1  0
 25 54  1  0
 26 55  1  0
 27 56  1  0
M  END
>  <smiles>  (11) 
O=C(NCC(=O)N1C[C@H](O)C[C@H]1COC1CCCC1)c1ccc2ccccc2n1

>  <score_type>  (11) 
oracle

>  <origin>  (11) 
autodockgpu

>  <m_score__min__energy>  (11) 
-8.5500000000000007

>  <m_primary>  (11) 
energy

>  <rmsd>  (11) 
7.710371798906458

>  <m_score__min__rmsd>  (11) 
7.710371798906458

>  <meeko>  (11) 
{"free_energy": -6.76, "intermolecular_energy": -9.14, "internal_energy": -3.77, "cluster_size": 33, "cluster_id": 4, "rank_in_cluster": 28}

>  <energy>  (11) 
-7.62

>  <cluster_rmsd>  (11) 
1.69

>  <cluster>  (11) 
1

$$$$

     RDKit          3D

 56 59  0  0  0  0  0  0  0  0999 V2000
  139.0790   74.7450  222.3760 O   0  0  0  0  0  0  0  0  0  0  0  0
  139.9630   75.5200  221.8820 C   0  0  0  0  0  0  0  0  0  0  0  0
  140.8430   75.0170  220.8840 N   0  0  0  0  0  0  0  0  0  0  0  0
  140.7820   73.6520  220.3990 C   0  0  0  0  0  0  0  0  0  0  0  0
  142.0470   72.9740  220.7530 C   0  0  0  0  0  0  0  0  0  0  0  0
  142.0080   72.0390  221.5910 O   0  0  0  0  0  0  0  0  0  0  0  0
  143.2340   73.4270  220.1230 N   0  0  0  0  0  0  0  0  0  0  0  0
  144.0200   72.8320  219.0610 C   0  0  0  0  0  0  0  0  0  0  0  0
  145.4540   73.2520  219.4080 C   0  0  2  0  0  0  0  0  0  0  0  0
  146.2260   72.1330  219.7130 O   0  0  0  0  0  0  0  0  0  0  0  0
  145.3030   74.1140  220.6480 C   0  0  0  0  0  0  0  0  0  0  0  0
  143.9670   74.7000  220.4430 C   0  0  1  0  0  0  0  0  0  0  0  0
  143.7130   75.6970  219.3980 C   0  0  0  0  0  0  0  0  0  0  0  0
  142.6680   76.5150  219.5930 O   0  0  0  0  0  0  0  0  0  0  0  0
  141.8420   76.8470  218.5770 C   0  0  0  0  0  0  0  0  0  0  0  0
  142.6110   77.7760  217.6340 C   0  0  0  0  0  0  0  0  0  0  0  0
  142.5590   79.1220  218.3240 C   0  0  0  0  0  0  0  0  0  0  0  0
  141.5950   78.9860  219.4860 C   0  0  0  0  0  0  0  0  0  0  0  0
  140.7440   77.8160  219.0370 C   0  0  0  0  0  0  0  0  0  0  0  0
  140.0590   76.8990  222.3410 C   0  0  0  0  0  0  0  0  0  0  0  0
  138.9050   77.5910  222.6780 C   0  0  0  0  0  0  0  0  0  0  0  0
  139.0810   78.8980  223.1060 C   0  0  0  0  0  0  0  0  0  0  0  0
  140.3250   79.4950  223.1970 C   0  0  0  0  0  0  0  0  0  0  0  0
  140.4620   80.8180  223.6350 C   0  0  0  0  0  0  0  0  0  0  0  0
  141.7710   81.2950  223.6800 C   0  0  0  0  0  0  0  0  0  0  0  0
  142.8540   80.5200  223.3200 C   0  0  0  0  0  0  0  0  0  0  0  0
  142.6830   79.2330  222.8990 C   0  0  0  0  0  0  0  0  0  0  0  0
  141.4080   78.7240  222.8390 C   0  0  0  0  0  0  0  0  0  0  0  0
  141.2440   77.4770  222.4310 N   0  0  0  0  0  0  0  0  0  0  0  0
  141.5500   75.6910  220.5110 H   0  0  0  0  0  0  0  0  0  0  0  0
  139.9360   73.1285  220.8682 H   0  0  0  0  0  0  0  0  0  0  0  0
  140.6417   73.6445  219.3080 H   0  0  0  0  0  0  0  0  0  0  0  0
  143.9188   71.7367  219.0617 H   0  0  0  0  0  0  0  0  0  0  0  0
  143.7062   73.1573  218.0582 H   0  0  0  0  0  0  0  0  0  0  0  0
  145.9476   73.7752  218.5757 H   0  0  0  0  0  0  0  0  0  0  0  0
  145.9770   71.7460  220.5940 H   0  0  0  0  0  0  0  0  0  0  0  0
  145.3384   73.5073  221.5649 H   0  0  0  0  0  0  0  0  0  0  0  0
  146.1027   74.8586  220.7745 H   0  0  0  0  0  0  0  0  0  0  0  0
  143.6960   75.3219  221.3089 H   0  0  0  0  0  0  0  0  0  0  0  0
  144.6138   76.3216  219.3059 H   0  0  0  0  0  0  0  0  0  0  0  0
  143.4650   75.1174  218.4966 H   0  0  0  0  0  0  0  0  0  0  0  0
  141.4624   75.9017  218.1618 H   0  0  0  0  0  0  0  0  0  0  0  0
  143.6509   77.4379  217.5140 H   0  0  0  0  0  0  0  0  0  0  0  0
  142.1813   77.8021  216.6217 H   0  0  0  0  0  0  0  0  0  0  0  0
  143.5584   79.3969  218.6922 H   0  0  0  0  0  0  0  0  0  0  0  0
  142.2282   79.9076  217.6287 H   0  0  0  0  0  0  0  0  0  0  0  0
  142.1248   78.7612  220.4234 H   0  0  0  0  0  0  0  0  0  0  0  0
  141.0225   79.8998  219.7031 H   0  0  0  0  0  0  0  0  0  0  0  0
  140.1532   77.3993  219.8661 H   0  0  0  0  0  0  0  0  0  0  0  0
  139.9906   78.0580  218.2730 H   0  0  0  0  0  0  0  0  0  0  0  0
  137.9087   77.1299  222.6097 H   0  0  0  0  0  0  0  0  0  0  0  0
  138.1935   79.4849  223.3850 H   0  0  0  0  0  0  0  0  0  0  0  0
  139.5989   81.4362  223.9228 H   0  0  0  0  0  0  0  0  0  0  0  0
  141.9470   82.3279  224.0150 H   0  0  0  0  0  0  0  0  0  0  0  0
  143.8675   80.9443  223.3729 H   0  0  0  0  0  0  0  0  0  0  0  0
  143.5478   78.6160  222.6137 H   0  0  0  0  0  0  0  0  0  0  0  0
  1  2  2  0
  2  3  1  0
  3  4  1  0
  4  5  1  0
  5  6  2  0
  5  7  1  0
  7  8  1  0
  8  9  1  0
  9 10  1  0
  9 11  1  0
 11 12  1  0
 12 13  1  0
 13 14  1  0
 14 15  1  0
 15 16  1  0
 16 17  1  0
 17 18  1  0
 18 19  1  0
  2 20  1  0
 20 21  2  0
 21 22  1  0
 22 23  2  0
 23 24  1  0
 24 25  2  0
 25 26  1  0
 26 27  2  0
 27 28  1  0
 28 29  2  0
 12  7  1  0
 19 15  1  0
 29 20  1  0
 28 23  1  0
  3 30  1  0
  4 31  1  0
  4 32  1  0
  8 33  1  0
  8 34  1  0
  9 35  1  6
 10 36  1  0
 11 37  1  0
 11 38  1  0
 12 39  1  1
 13 40  1  0
 13 41  1  0
 15 42  1  0
 16 43  1  0
 16 44  1  0
 17 45  1  0
 17 46  1  0
 18 47  1  0
 18 48  1  0
 19 49  1  0
 19 50  1  0
 21 51  1  0
 22 52  1  0
 24 53  1  0
 25 54  1  0
 26 55  1  0
 27 56  1  0
M  END
>  <smiles>  (12) 
O=C(NCC(=O)N1C[C@H](O)C[C@H]1COC1CCCC1)c1ccc2ccccc2n1

>  <score_type>  (12) 
oracle

>  <origin>  (12) 
autodockgpu

>  <m_score__min__energy>  (12) 
-8.5500000000000007

>  <m_primary>  (12) 
energy

>  <rmsd>  (12) 
7.556563863076951

>  <m_score__min__rmsd>  (12) 
7.556563863076951

>  <meeko>  (12) 
{"free_energy": -7.3, "intermolecular_energy": -9.69, "internal_energy": -3.5, "cluster_size": 33, "cluster_id": 4, "rank_in_cluster": 2}

>  <energy>  (12) 
-7.54

>  <cluster_rmsd>  (12) 
1.65

>  <cluster>  (12) 
1

$$$$

     RDKit          3D

 56 59  0  0  0  0  0  0  0  0999 V2000
  139.0800   74.7840  222.3480 O   0  0  0  0  0  0  0  0  0  0  0  0
  140.0240   75.5150  221.9010 C   0  0  0  0  0  0  0  0  0  0  0  0
  140.9470   74.9590  220.9720 N   0  0  0  0  0  0  0  0  0  0  0  0
  140.8640   73.5880  220.5070 C   0  0  0  0  0  0  0  0  0  0  0  0
  142.1370   72.9100  220.8260 C   0  0  0  0  0  0  0  0  0  0  0  0
  142.1150   71.9490  221.6360 O   0  0  0  0  0  0  0  0  0  0  0  0
  143.3140   73.3890  220.1970 N   0  0  0  0  0  0  0  0  0  0  0  0
  144.1520   72.7830  219.1810 C   0  0  0  0  0  0  0  0  0  0  0  0
  145.5560   73.2920  219.5340 C   0  0  2  0  0  0  0  0  0  0  0  0
  146.3750   72.2290  219.9120 O   0  0  0  0  0  0  0  0  0  0  0  0
  145.3350   74.2060  220.7260 C   0  0  0  0  0  0  0  0  0  0  0  0
  143.9760   74.7120  220.4650 C   0  0  1  0  0  0  0  0  0  0  0  0
  143.6960   75.6420  219.3650 C   0  0  0  0  0  0  0  0  0  0  0  0
  142.6200   76.4290  219.5080 O   0  0  0  0  0  0  0  0  0  0  0  0
  141.8960   76.8240  218.4380 C   0  0  0  0  0  0  0  0  0  0  0  0
  142.8090   77.6640  217.5400 C   0  0  0  0  0  0  0  0  0  0  0  0
  142.8390   79.0180  218.2150 C   0  0  0  0  0  0  0  0  0  0  0  0
  141.7930   78.9880  219.3130 C   0  0  0  0  0  0  0  0  0  0  0  0
  140.8670   77.8970  218.8170 C   0  0  0  0  0  0  0  0  0  0  0  0
  140.1440   76.8970  222.3420 C   0  0  0  0  0  0  0  0  0  0  0  0
  139.0060   77.6020  222.7060 C   0  0  0  0  0  0  0  0  0  0  0  0
  139.2040   78.9120  223.1150 C   0  0  0  0  0  0  0  0  0  0  0  0
  140.4550   79.5000  223.1630 C   0  0  0  0  0  0  0  0  0  0  0  0
  140.6150   80.8260  223.5820 C   0  0  0  0  0  0  0  0  0  0  0  0
  141.9290   81.2930  223.5830 C   0  0  0  0  0  0  0  0  0  0  0  0
  142.9950   80.5060  223.2000 C   0  0  0  0  0  0  0  0  0  0  0  0
  142.8010   79.2160  222.7970 C   0  0  0  0  0  0  0  0  0  0  0  0
  141.5210   78.7170  222.7810 C   0  0  0  0  0  0  0  0  0  0  0  0
  141.3360   77.4670  222.3910 N   0  0  0  0  0  0  0  0  0  0  0  0
  141.7030   75.5980  220.6350 H   0  0  0  0  0  0  0  0  0  0  0  0
  140.0327   73.0741  221.0118 H   0  0  0  0  0  0  0  0  0  0  0  0
  140.6860   73.5669  219.4217 H   0  0  0  0  0  0  0  0  0  0  0  0
  144.1055   71.6853  219.2347 H   0  0  0  0  0  0  0  0  0  0  0  0
  143.8442   73.0424  218.1573 H   0  0  0  0  0  0  0  0  0  0  0  0
  146.0415   73.7971  218.6860 H   0  0  0  0  0  0  0  0  0  0  0  0
  146.1320   71.8810  220.8100 H   0  0  0  0  0  0  0  0  0  0  0  0
  145.3804   73.6483  221.6730 H   0  0  0  0  0  0  0  0  0  0  0  0
  146.0936   74.9957  220.8305 H   0  0  0  0  0  0  0  0  0  0  0  0
  143.6550   75.3619  221.2924 H   0  0  0  0  0  0  0  0  0  0  0  0
  144.5740   76.2940  219.2466 H   0  0  0  0  0  0  0  0  0  0  0  0
  143.4790   75.0065  218.4937 H   0  0  0  0  0  0  0  0  0  0  0  0
  141.4561   75.9129  218.0063 H   0  0  0  0  0  0  0  0  0  0  0  0
  143.8180   77.2286  217.4914 H   0  0  0  0  0  0  0  0  0  0  0  0
  142.4506   77.7160  216.5013 H   0  0  0  0  0  0  0  0  0  0  0  0
  143.8340   79.2036  218.6458 H   0  0  0  0  0  0  0  0  0  0  0  0
  142.6288   79.8215  217.4937 H   0  0  0  0  0  0  0  0  0  0  0  0
  142.2376   78.7269  220.2847 H   0  0  0  0  0  0  0  0  0  0  0  0
  141.2962   79.9540  219.4861 H   0  0  0  0  0  0  0  0  0  0  0  0
  140.1866   77.5485  219.6080 H   0  0  0  0  0  0  0  0  0  0  0  0
  140.1913   78.1982  218.0029 H   0  0  0  0  0  0  0  0  0  0  0  0
  138.0046   77.1481  222.6721 H   0  0  0  0  0  0  0  0  0  0  0  0
  138.3295   79.5086  223.4138 H   0  0  0  0  0  0  0  0  0  0  0  0
  139.7656   81.4542  223.8884 H   0  0  0  0  0  0  0  0  0  0  0  0
  142.1226   82.3280  223.9012 H   0  0  0  0  0  0  0  0  0  0  0  0
  144.0130   80.9224  223.2195 H   0  0  0  0  0  0  0  0  0  0  0  0
  143.6518   78.5893  222.4915 H   0  0  0  0  0  0  0  0  0  0  0  0
  1  2  2  0
  2  3  1  0
  3  4  1  0
  4  5  1  0
  5  6  2  0
  5  7  1  0
  7  8  1  0
  8  9  1  0
  9 10  1  0
  9 11  1  0
 11 12  1  0
 12 13  1  0
 13 14  1  0
 14 15  1  0
 15 16  1  0
 16 17  1  0
 17 18  1  0
 18 19  1  0
  2 20  1  0
 20 21  2  0
 21 22  1  0
 22 23  2  0
 23 24  1  0
 24 25  2  0
 25 26  1  0
 26 27  2  0
 27 28  1  0
 28 29  2  0
 12  7  1  0
 19 15  1  0
 29 20  1  0
 28 23  1  0
  3 30  1  0
  4 31  1  0
  4 32  1  0
  8 33  1  0
  8 34  1  0
  9 35  1  6
 10 36  1  0
 11 37  1  0
 11 38  1  0
 12 39  1  1
 13 40  1  0
 13 41  1  0
 15 42  1  0
 16 43  1  0
 16 44  1  0
 17 45  1  0
 17 46  1  0
 18 47  1  0
 18 48  1  0
 19 49  1  0
 19 50  1  0
 21 51  1  0
 22 52  1  0
 24 53  1  0
 25 54  1  0
 26 55  1  0
 27 56  1  0
M  END
>  <smiles>  (13) 
O=C(NCC(=O)N1C[C@H](O)C[C@H]1COC1CCCC1)c1ccc2ccccc2n1

>  <score_type>  (13) 
oracle

>  <origin>  (13) 
autodockgpu

>  <m_score__min__energy>  (13) 
-8.5500000000000007

>  <m_primary>  (13) 
energy

>  <rmsd>  (13) 
7.596100524352113

>  <m_score__min__rmsd>  (13) 
7.596100524352113

>  <meeko>  (13) 
{"free_energy": -7.23, "intermolecular_energy": -9.61, "internal_energy": -3.51, "cluster_size": 33, "cluster_id": 4, "rank_in_cluster": 6}

>  <energy>  (13) 
-7.37

>  <cluster_rmsd>  (13) 
1.37

>  <cluster>  (13) 
1

$$$$

     RDKit          3D

 56 59  0  0  0  0  0  0  0  0999 V2000
  140.2870   73.9400  222.3420 O   0  0  0  0  0  0  0  0  0  0  0  0
  140.2990   74.9300  221.5390 C   0  0  0  0  0  0  0  0  0  0  0  0
  140.5070   74.6910  220.1520 N   0  0  0  0  0  0  0  0  0  0  0  0
  140.7070   73.3630  219.6040 C   0  0  0  0  0  0  0  0  0  0  0  0
  141.9140   72.7800  220.2250 C   0  0  0  0  0  0  0  0  0  0  0  0
  141.7690   71.8370  221.0430 O   0  0  0  0  0  0  0  0  0  0  0  0
  143.1700   73.3270  219.8600 N   0  0  0  0  0  0  0  0  0  0  0  0
  144.1190   72.9090  218.8470 C   0  0  0  0  0  0  0  0  0  0  0  0
  145.4760   73.2680  219.4670 C   0  0  2  0  0  0  0  0  0  0  0  0
  146.2200   72.1140  219.7060 O   0  0  0  0  0  0  0  0  0  0  0  0
  145.1220   73.9220  220.7910 C   0  0  0  0  0  0  0  0  0  0  0  0
  143.8180   74.5330  220.4820 C   0  0  1  0  0  0  0  0  0  0  0  0
  143.6980   75.6840  219.5800 C   0  0  0  0  0  0  0  0  0  0  0  0
  142.4600   76.1550  219.3730 O   0  0  0  0  0  0  0  0  0  0  0  0
  142.1230   76.7450  218.2060 C   0  0  0  0  0  0  0  0  0  0  0  0
  142.9210   78.0470  218.0930 C   0  0  0  0  0  0  0  0  0  0  0  0
  142.1680   79.0140  218.9800 C   0  0  0  0  0  0  0  0  0  0  0  0
  140.8720   78.3340  219.3780 C   0  0  0  0  0  0  0  0  0  0  0  0
  140.7040   77.3280  218.2580 C   0  0  0  0  0  0  0  0  0  0  0  0
  140.1030   76.2800  222.0470 C   0  0  0  0  0  0  0  0  0  0  0  0
  138.8170   76.7460  222.2760 C   0  0  0  0  0  0  0  0  0  0  0  0
  138.7130   78.0410  222.7590 C   0  0  0  0  0  0  0  0  0  0  0  0
  139.8170   78.8390  223.0040 C   0  0  0  0  0  0  0  0  0  0  0  0
  139.6720   80.1430  223.4930 C   0  0  0  0  0  0  0  0  0  0  0  0
  140.8650   80.8350  223.6950 C   0  0  0  0  0  0  0  0  0  0  0  0
  142.0990   80.2770  223.4330 C   0  0  0  0  0  0  0  0  0  0  0  0
  142.2020   79.0020  222.9570 C   0  0  0  0  0  0  0  0  0  0  0  0
  141.0500   78.2840  222.7440 C   0  0  0  0  0  0  0  0  0  0  0  0
  141.1510   77.0490  222.2820 N   0  0  0  0  0  0  0  0  0  0  0  0
  140.5090   75.5350  219.5340 H   0  0  0  0  0  0  0  0  0  0  0  0
  139.8331   72.7333  219.8273 H   0  0  0  0  0  0  0  0  0  0  0  0
  140.8327   73.4191  218.5126 H   0  0  0  0  0  0  0  0  0  0  0  0
  144.0449   71.8276  218.6595 H   0  0  0  0  0  0  0  0  0  0  0  0
  143.9494   73.3905  217.8726 H   0  0  0  0  0  0  0  0  0  0  0  0
  146.0752   73.9162  218.8106 H   0  0  0  0  0  0  0  0  0  0  0  0
  146.0010   71.7130  220.5880 H   0  0  0  0  0  0  0  0  0  0  0  0
  145.0353   73.1772  221.5958 H   0  0  0  0  0  0  0  0  0  0  0  0
  145.8761   74.6368  221.1521 H   0  0  0  0  0  0  0  0  0  0  0  0
  143.4072   75.0096  221.3843 H   0  0  0  0  0  0  0  0  0  0  0  0
  144.3010   76.5023  220.0003 H   0  0  0  0  0  0  0  0  0  0  0  0
  144.0397   75.3221  218.5990 H   0  0  0  0  0  0  0  0  0  0  0  0
  142.2695   75.9891  217.4204 H   0  0  0  0  0  0  0  0  0  0  0  0
  143.9511   77.9070  218.4527 H   0  0  0  0  0  0  0  0  0  0  0  0
  143.0076   78.4026  217.0557 H   0  0  0  0  0  0  0  0  0  0  0  0
  142.7629   79.2468  219.8755 H   0  0  0  0  0  0  0  0  0  0  0  0
  141.9696   79.9581  218.4516 H   0  0  0  0  0  0  0  0  0  0  0  0
  140.9625   77.8366  220.3550 H   0  0  0  0  0  0  0  0  0  0  0  0
  140.0216   79.0218  219.4950 H   0  0  0  0  0  0  0  0  0  0  0  0
  139.9565   76.5606  218.5077 H   0  0  0  0  0  0  0  0  0  0  0  0
  140.3417   77.7489  217.3085 H   0  0  0  0  0  0  0  0  0  0  0  0
  137.9303   76.1235  222.0852 H   0  0  0  0  0  0  0  0  0  0  0  0
  137.7116   78.4515  222.9558 H   0  0  0  0  0  0  0  0  0  0  0  0
  138.6884   80.5888  223.7024 H   0  0  0  0  0  0  0  0  0  0  0  0
  140.8207   81.8652  224.0779 H   0  0  0  0  0  0  0  0  0  0  0  0
  143.0107   80.8665  223.6098 H   0  0  0  0  0  0  0  0  0  0  0  0
  143.1867   78.5585  222.7482 H   0  0  0  0  0  0  0  0  0  0  0  0
  1  2  2  0
  2  3  1  0
  3  4  1  0
  4  5  1  0
  5  6  2  0
  5  7  1  0
  7  8  1  0
  8  9  1  0
  9 10  1  0
  9 11  1  0
 11 12  1  0
 12 13  1  0
 13 14  1  0
 14 15  1  0
 15 16  1  0
 16 17  1  0
 17 18  1  0
 18 19  1  0
  2 20  1  0
 20 21  2  0
 21 22  1  0
 22 23  2  0
 23 24  1  0
 24 25  2  0
 25 26  1  0
 26 27  2  0
 27 28  1  0
 28 29  2  0
 12  7  1  0
 19 15  1  0
 29 20  1  0
 28 23  1  0
  3 30  1  0
  4 31  1  0
  4 32  1  0
  8 33  1  0
  8 34  1  0
  9 35  1  6
 10 36  1  0
 11 37  1  0
 11 38  1  0
 12 39  1  1
 13 40  1  0
 13 41  1  0
 15 42  1  0
 16 43  1  0
 16 44  1  0
 17 45  1  0
 17 46  1  0
 18 47  1  0
 18 48  1  0
 19 49  1  0
 19 50  1  0
 21 51  1  0
 22 52  1  0
 24 53  1  0
 25 54  1  0
 26 55  1  0
 27 56  1  0
M  END
>  <smiles>  (14) 
O=C(NCC(=O)N1C[C@H](O)C[C@H]1COC1CCCC1)c1ccc2ccccc2n1

>  <score_type>  (14) 
oracle

>  <origin>  (14) 
autodockgpu

>  <m_score__min__energy>  (14) 
-8.5500000000000007

>  <m_primary>  (14) 
energy

>  <rmsd>  (14) 
7.244427022875949

>  <m_score__min__rmsd>  (14) 
7.244427022875949

>  <meeko>  (14) 
{"free_energy": -7.05, "intermolecular_energy": -9.44, "internal_energy": -3.39, "cluster_size": 33, "cluster_id": 4, "rank_in_cluster": 15}

>  <energy>  (14) 
-6.87

>  <cluster_rmsd>  (14) 
1.8

>  <cluster>  (14) 
1

$$$$

     RDKit          3D

 56 59  0  0  0  0  0  0  0  0999 V2000
  140.6770   71.5190  221.3440 O   0  0  0  0  0  0  0  0  0  0  0  0
  140.2550   72.0950  222.4010 C   0  0  0  0  0  0  0  0  0  0  0  0
  139.8910   73.4690  222.3400 N   0  0  0  0  0  0  0  0  0  0  0  0
  139.9760   74.2510  221.1210 C   0  0  0  0  0  0  0  0  0  0  0  0
  139.9910   75.6830  221.4870 C   0  0  0  0  0  0  0  0  0  0  0  0
  139.9050   75.9880  222.7030 O   0  0  0  0  0  0  0  0  0  0  0  0
  140.0990   76.6290  220.4370 N   0  0  0  0  0  0  0  0  0  0  0  0
  139.0870   77.4510  219.8040 C   0  0  0  0  0  0  0  0  0  0  0  0
  139.5740   77.5530  218.3520 C   0  0  2  0  0  0  0  0  0  0  0  0
  138.6690   76.9310  217.4940 O   0  0  0  0  0  0  0  0  0  0  0  0
  140.8860   76.7880  218.3420 C   0  0  0  0  0  0  0  0  0  0  0  0
  141.3660   77.0020  219.7180 C   0  0  1  0  0  0  0  0  0  0  0  0
  141.8310   78.3150  220.1790 C   0  0  0  0  0  0  0  0  0  0  0  0
  141.0790   78.9240  221.1070 O   0  0  0  0  0  0  0  0  0  0  0  0
  141.5250   80.0190  221.7590 C   0  0  0  0  0  0  0  0  0  0  0  0
  142.5790   79.5630  222.7730 C   0  0  0  0  0  0  0  0  0  0  0  0
  141.7640   79.0160  223.9250 C   0  0  0  0  0  0  0  0  0  0  0  0
  140.3160   79.3760  223.6530 C   0  0  0  0  0  0  0  0  0  0  0  0
  140.4700   80.5670  222.7290 C   0  0  0  0  0  0  0  0  0  0  0  0
  140.1550   71.3470  223.6460 C   0  0  0  0  0  0  0  0  0  0  0  0
  139.5740   70.0870  223.6430 C   0  0  0  0  0  0  0  0  0  0  0  0
  139.5150   69.4390  224.8680 C   0  0  0  0  0  0  0  0  0  0  0  0
  140.0010   70.0000  226.0350 C   0  0  0  0  0  0  0  0  0  0  0  0
  139.9250   69.3140  227.2530 C   0  0  0  0  0  0  0  0  0  0  0  0
  140.4530   69.9930  228.3500 C   0  0  0  0  0  0  0  0  0  0  0  0
  141.0100   71.2510  228.2440 C   0  0  0  0  0  0  0  0  0  0  0  0
  141.0680   71.8900  227.0390 C   0  0  0  0  0  0  0  0  0  0  0  0
  140.5590   71.2540  225.9320 C   0  0  0  0  0  0  0  0  0  0  0  0
  140.6160   71.8750  224.7650 N   0  0  0  0  0  0  0  0  0  0  0  0
  139.5520   73.8960  223.2320 H   0  0  0  0  0  0  0  0  0  0  0  0
  140.8988   73.9961  220.5794 H   0  0  0  0  0  0  0  0  0  0  0  0
  139.1145   74.0352  220.4720 H   0  0  0  0  0  0  0  0  0  0  0  0
  138.0992   76.9697  219.8556 H   0  0  0  0  0  0  0  0  0  0  0  0
  138.9641   78.4315  220.2872 H   0  0  0  0  0  0  0  0  0  0  0  0
  139.6796   78.5963  218.0197 H   0  0  0  0  0  0  0  0  0  0  0  0
  138.4180   76.0270  217.8190 H   0  0  0  0  0  0  0  0  0  0  0  0
  140.7258   75.7197  218.1346 H   0  0  0  0  0  0  0  0  0  0  0  0
  141.5912   77.1204  217.5660 H   0  0  0  0  0  0  0  0  0  0  0  0
  142.3042   76.4494  219.8743 H   0  0  0  0  0  0  0  0  0  0  0  0
  142.8391   78.1839  220.5991 H   0  0  0  0  0  0  0  0  0  0  0  0
  141.7860   78.9669  219.2941 H   0  0  0  0  0  0  0  0  0  0  0  0
  141.8395   80.7354  220.9857 H   0  0  0  0  0  0  0  0  0  0  0  0
  143.2229   78.7814  222.3434 H   0  0  0  0  0  0  0  0  0  0  0  0
  143.2528   80.3768  223.0791 H   0  0  0  0  0  0  0  0  0  0  0  0
  141.8773   77.9234  223.9829 H   0  0  0  0  0  0  0  0  0  0  0  0
  142.1015   79.4411  224.8818 H   0  0  0  0  0  0  0  0  0  0  0  0
  139.7825   78.5505  223.1591 H   0  0  0  0  0  0  0  0  0  0  0  0
  139.7275   79.5839  224.5588 H   0  0  0  0  0  0  0  0  0  0  0  0
  139.5284   80.8082  222.2140 H   0  0  0  0  0  0  0  0  0  0  0  0
  140.7449   81.5077  223.2285 H   0  0  0  0  0  0  0  0  0  0  0  0
  139.1829   69.6286  222.7227 H   0  0  0  0  0  0  0  0  0  0  0  0
  139.0628   68.4372  224.9132 H   0  0  0  0  0  0  0  0  0  0  0  0
  139.4806   68.3114  227.3383 H   0  0  0  0  0  0  0  0  0  0  0  0
  140.4246   69.5079  229.3369 H   0  0  0  0  0  0  0  0  0  0  0  0
  141.4120   71.7448  229.1410 H   0  0  0  0  0  0  0  0  0  0  0  0
  141.5127   72.8927  226.9558 H   0  0  0  0  0  0  0  0  0  0  0  0
  1  2  2  0
  2  3  1  0
  3  4  1  0
  4  5  1  0
  5  6  2  0
  5  7  1  0
  7  8  1  0
  8  9  1  0
  9 10  1  0
  9 11  1  0
 11 12  1  0
 12 13  1  0
 13 14  1  0
 14 15  1  0
 15 16  1  0
 16 17  1  0
 17 18  1  0
 18 19  1  0
  2 20  1  0
 20 21  2  0
 21 22  1  0
 22 23  2  0
 23 24  1  0
 24 25  2  0
 25 26  1  0
 26 27  2  0
 27 28  1  0
 28 29  2  0
 12  7  1  0
 19 15  1  0
 29 20  1  0
 28 23  1  0
  3 30  1  0
  4 31  1  0
  4 32  1  0
  8 33  1  0
  8 34  1  0
  9 35  1  6
 10 36  1  0
 11 37  1  0
 11 38  1  0
 12 39  1  1
 13 40  1  0
 13 41  1  0
 15 42  1  0
 16 43  1  0
 16 44  1  0
 17 45  1  0
 17 46  1  0
 18 47  1  0
 18 48  1  0
 19 49  1  0
 19 50  1  0
 21 51  1  0
 22 52  1  0
 24 53  1  0
 25 54  1  0
 26 55  1  0
 27 56  1  0
M  END
>  <smiles>  (15) 
O=C(NCC(=O)N1C[C@H](O)C[C@H]1COC1CCCC1)c1ccc2ccccc2n1

>  <score_type>  (15) 
oracle

>  <origin>  (15) 
autodockgpu

>  <m_score__min__energy>  (15) 
-8.5500000000000007

>  <m_primary>  (15) 
energy

>  <rmsd>  (15) 
1.67628058294188

>  <m_score__min__rmsd>  (15) 
1.67628058294188

>  <meeko>  (15) 
{"free_energy": -7.54, "intermolecular_energy": -9.93, "internal_energy": -2.29, "cluster_size": 14, "cluster_id": 1, "rank_in_cluster": 12}

>  <energy>  (15) 
-7.62

>  <cluster_rmsd>  (15) 
0.0

>  <cluster>  (15) 
2

$$$$

     RDKit          3D

 56 59  0  0  0  0  0  0  0  0999 V2000
  139.1560   74.5240  222.3640 O   0  0  0  0  0  0  0  0  0  0  0  0
  140.0330   75.2980  221.8550 C   0  0  0  0  0  0  0  0  0  0  0  0
  140.9060   74.7870  220.8550 N   0  0  0  0  0  0  0  0  0  0  0  0
  140.8450   73.4170  220.3830 C   0  0  0  0  0  0  0  0  0  0  0  0
  142.1180   72.7490  220.7280 C   0  0  0  0  0  0  0  0  0  0  0  0
  142.0800   71.7540  221.4930 O   0  0  0  0  0  0  0  0  0  0  0  0
  143.3100   73.2790  220.1720 N   0  0  0  0  0  0  0  0  0  0  0  0
  144.1300   72.8000  219.0770 C   0  0  0  0  0  0  0  0  0  0  0  0
  145.5490   73.2080  219.4960 C   0  0  2  0  0  0  0  0  0  0  0  0
  146.3330   72.0770  219.7130 O   0  0  0  0  0  0  0  0  0  0  0  0
  145.3550   73.9460  220.8090 C   0  0  0  0  0  0  0  0  0  0  0  0
  144.0130   74.5270  220.6280 C   0  0  1  0  0  0  0  0  0  0  0  0
  143.7640   75.6150  219.6760 C   0  0  0  0  0  0  0  0  0  0  0  0
  142.6050   75.5680  219.0040 O   0  0  0  0  0  0  0  0  0  0  0  0
  142.3730   76.3820  217.9510 C   0  0  0  0  0  0  0  0  0  0  0  0
  142.9550   77.7580  218.2880 C   0  0  0  0  0  0  0  0  0  0  0  0
  141.9170   78.3800  219.1970 C   0  0  0  0  0  0  0  0  0  0  0  0
  140.7030   77.4720  219.1690 C   0  0  0  0  0  0  0  0  0  0  0  0
  140.8900   76.7600  217.8460 C   0  0  0  0  0  0  0  0  0  0  0  0
  140.1280   76.6810  222.3010 C   0  0  0  0  0  0  0  0  0  0  0  0
  138.9820   77.3530  222.6980 C   0  0  0  0  0  0  0  0  0  0  0  0
  139.1560   78.6660  223.1080 C   0  0  0  0  0  0  0  0  0  0  0  0
  140.3920   79.2870  223.1260 C   0  0  0  0  0  0  0  0  0  0  0  0
  140.5280   80.6150  223.5470 C   0  0  0  0  0  0  0  0  0  0  0  0
  141.8280   81.1170  223.5160 C   0  0  0  0  0  0  0  0  0  0  0  0
  142.9040   80.3600  223.1000 C   0  0  0  0  0  0  0  0  0  0  0  0
  142.7330   79.0670  222.6960 C   0  0  0  0  0  0  0  0  0  0  0  0
  141.4670   78.5340  222.7120 C   0  0  0  0  0  0  0  0  0  0  0  0
  141.3040   77.2820  222.3200 N   0  0  0  0  0  0  0  0  0  0  0  0
  141.6080   75.4600  220.4700 H   0  0  0  0  0  0  0  0  0  0  0  0
  140.0074   72.8938  220.8675 H   0  0  0  0  0  0  0  0  0  0  0  0
  140.6906   73.3983  219.2940 H   0  0  0  0  0  0  0  0  0  0  0  0
  144.0486   71.7081  218.9717 H   0  0  0  0  0  0  0  0  0  0  0  0
  143.8324   73.2142  218.1024 H   0  0  0  0  0  0  0  0  0  0  0  0
  146.0515   73.8154  218.7288 H   0  0  0  0  0  0  0  0  0  0  0  0
  146.1060   71.6330  220.5720 H   0  0  0  0  0  0  0  0  0  0  0  0
  145.3812   73.2556  221.6650 H   0  0  0  0  0  0  0  0  0  0  0  0
  146.1380   74.6879  221.0248 H   0  0  0  0  0  0  0  0  0  0  0  0
  143.7117   75.0592  221.5423 H   0  0  0  0  0  0  0  0  0  0  0  0
  143.7873   76.5613  220.2363 H   0  0  0  0  0  0  0  0  0  0  0  0
  144.5484   75.5177  218.9109 H   0  0  0  0  0  0  0  0  0  0  0  0
  142.7684   75.8653  217.0640 H   0  0  0  0  0  0  0  0  0  0  0  0
  143.9200   77.6584  218.8066 H   0  0  0  0  0  0  0  0  0  0  0  0
  143.1532   78.3655  217.3926 H   0  0  0  0  0  0  0  0  0  0  0  0
  142.3089   78.4554  220.2221 H   0  0  0  0  0  0  0  0  0  0  0  0
  141.6568   79.3942  218.8600 H   0  0  0  0  0  0  0  0  0  0  0  0
  140.7109   76.7642  220.0110 H   0  0  0  0  0  0  0  0  0  0  0  0
  139.7437   78.0023  219.2616 H   0  0  0  0  0  0  0  0  0  0  0  0
  140.2472   75.8709  217.7670 H   0  0  0  0  0  0  0  0  0  0  0  0
  140.6263   77.3553  216.9594 H   0  0  0  0  0  0  0  0  0  0  0  0
  137.9925   76.8725  222.6882 H   0  0  0  0  0  0  0  0  0  0  0  0
  138.2742   79.2379  223.4326 H   0  0  0  0  0  0  0  0  0  0  0  0
  139.6706   81.2191  223.8785 H   0  0  0  0  0  0  0  0  0  0  0  0
  142.0026   82.1551  223.8350 H   0  0  0  0  0  0  0  0  0  0  0  0
  143.9108   80.8031  223.0938 H   0  0  0  0  0  0  0  0  0  0  0  0
  143.5915   78.4644  222.3645 H   0  0  0  0  0  0  0  0  0  0  0  0
  1  2  2  0
  2  3  1  0
  3  4  1  0
  4  5  1  0
  5  6  2  0
  5  7  1  0
  7  8  1  0
  8  9  1  0
  9 10  1  0
  9 11  1  0
 11 12  1  0
 12 13  1  0
 13 14  1  0
 14 15  1  0
 15 16  1  0
 16 17  1  0
 17 18  1  0
 18 19  1  0
  2 20  1  0
 20 21  2  0
 21 22  1  0
 22 23  2  0
 23 24  1  0
 24 25  2  0
 25 26  1  0
 26 27  2  0
 27 28  1  0
 28 29  2  0
 12  7  1  0
 19 15  1  0
 29 20  1  0
 28 23  1  0
  3 30  1  0
  4 31  1  0
  4 32  1  0
  8 33  1  0
  8 34  1  0
  9 35  1  6
 10 36  1  0
 11 37  1  0
 11 38  1  0
 12 39  1  1
 13 40  1  0
 13 41  1  0
 15 42  1  0
 16 43  1  0
 16 44  1  0
 17 45  1  0
 17 46  1  0
 18 47  1  0
 18 48  1  0
 19 49  1  0
 19 50  1  0
 21 51  1  0
 22 52  1  0
 24 53  1  0
 25 54  1  0
 26 55  1  0
 27 56  1  0
M  END
>  <smiles>  (16) 
O=C(NCC(=O)N1C[C@H](O)C[C@H]1COC1CCCC1)c1ccc2ccccc2n1

>  <score_type>  (16) 
oracle

>  <origin>  (16) 
autodockgpu

>  <m_score__min__energy>  (16) 
-8.5500000000000007

>  <m_primary>  (16) 
energy

>  <rmsd>  (16) 
7.510040368647965

>  <m_score__min__rmsd>  (16) 
7.510040368647965

>  <meeko>  (16) 
{"free_energy": -6.9, "intermolecular_energy": -9.29, "internal_energy": -3.6, "cluster_size": 33, "cluster_id": 4, "rank_in_cluster": 24}

>  <energy>  (16) 
-7.55

>  <cluster_rmsd>  (16) 
0.0

>  <cluster>  (16) 
3

$$$$

     RDKit          3D

 56 59  0  0  0  0  0  0  0  0999 V2000
  139.1870   74.5670  222.3720 O   0  0  0  0  0  0  0  0  0  0  0  0
  140.0010   75.3890  221.8330 C   0  0  0  0  0  0  0  0  0  0  0  0
  140.8490   74.9340  220.7860 N   0  0  0  0  0  0  0  0  0  0  0  0
  140.8330   73.5680  220.2980 C   0  0  0  0  0  0  0  0  0  0  0  0
  142.0870   72.9090  220.7170 C   0  0  0  0  0  0  0  0  0  0  0  0
  142.0200   71.9790  221.5590 O   0  0  0  0  0  0  0  0  0  0  0  0
  143.2970   73.3730  220.1400 N   0  0  0  0  0  0  0  0  0  0  0  0
  144.1510   72.7700  219.1360 C   0  0  0  0  0  0  0  0  0  0  0  0
  145.5560   73.2290  219.5490 C   0  0  2  0  0  0  0  0  0  0  0  0
  146.3330   72.1340  219.9230 O   0  0  0  0  0  0  0  0  0  0  0  0
  145.3210   74.1170  220.7580 C   0  0  0  0  0  0  0  0  0  0  0  0
  143.9860   74.6680  220.4680 C   0  0  1  0  0  0  0  0  0  0  0  0
  143.7690   75.6360  219.3860 C   0  0  0  0  0  0  0  0  0  0  0  0
  142.8840   76.6130  219.6280 O   0  0  0  0  0  0  0  0  0  0  0  0
  142.7160   77.6350  218.7600 C   0  0  0  0  0  0  0  0  0  0  0  0
  141.8230   78.6800  219.4350 C   0  0  0  0  0  0  0  0  0  0  0  0
  140.4270   78.1180  219.2860 C   0  0  0  0  0  0  0  0  0  0  0  0
  140.5270   76.9240  218.3560 C   0  0  0  0  0  0  0  0  0  0  0  0
  141.7970   77.2400  217.5960 C   0  0  0  0  0  0  0  0  0  0  0  0
  140.0500   76.7700  222.2930 C   0  0  0  0  0  0  0  0  0  0  0  0
  138.8750   77.4160  222.6480 C   0  0  0  0  0  0  0  0  0  0  0  0
  139.0060   78.7290  223.0760 C   0  0  0  0  0  0  0  0  0  0  0  0
  140.2270   79.3730  223.1490 C   0  0  0  0  0  0  0  0  0  0  0  0
  140.3190   80.7000  223.5870 C   0  0  0  0  0  0  0  0  0  0  0  0
  141.6090   81.2280  223.6130 C   0  0  0  0  0  0  0  0  0  0  0  0
  142.7160   80.4960  223.2360 C   0  0  0  0  0  0  0  0  0  0  0  0
  142.5880   79.2030  222.8160 C   0  0  0  0  0  0  0  0  0  0  0  0
  141.3340   78.6460  222.7740 C   0  0  0  0  0  0  0  0  0  0  0  0
  141.2120   77.3930  222.3660 N   0  0  0  0  0  0  0  0  0  0  0  0
  141.4980   75.6450  220.3770 H   0  0  0  0  0  0  0  0  0  0  0  0
  139.9715   73.0318  220.7227 H   0  0  0  0  0  0  0  0  0  0  0  0
  140.7493   73.5592  219.2012 H   0  0  0  0  0  0  0  0  0  0  0  0
  144.0720   71.6731  219.1582 H   0  0  0  0  0  0  0  0  0  0  0  0
  143.8851   73.0647  218.1101 H   0  0  0  0  0  0  0  0  0  0  0  0
  146.0830   73.7427  218.7315 H   0  0  0  0  0  0  0  0  0  0  0  0
  146.1680   71.8740  220.8670 H   0  0  0  0  0  0  0  0  0  0  0  0
  145.3201   73.5332  221.6903 H   0  0  0  0  0  0  0  0  0  0  0  0
  146.0971   74.8819  220.9081 H   0  0  0  0  0  0  0  0  0  0  0  0
  143.6555   75.3027  221.3034 H   0  0  0  0  0  0  0  0  0  0  0  0
  144.7364   76.1090  219.1614 H   0  0  0  0  0  0  0  0  0  0  0  0
  143.3419   75.0546  218.5556 H   0  0  0  0  0  0  0  0  0  0  0  0
  143.7234   77.9505  218.4507 H   0  0  0  0  0  0  0  0  0  0  0  0
  142.0877   78.7937  220.4966 H   0  0  0  0  0  0  0  0  0  0  0  0
  141.9275   79.6794  218.9874 H   0  0  0  0  0  0  0  0  0  0  0  0
  140.0402   77.8022  220.2661 H   0  0  0  0  0  0  0  0  0  0  0  0
  139.7400   78.8753  218.8803 H   0  0  0  0  0  0  0  0  0  0  0  0
  140.6187   75.9831  218.9184 H   0  0  0  0  0  0  0  0  0  0  0  0
  139.6447   76.7792  217.7152 H   0  0  0  0  0  0  0  0  0  0  0  0
  142.1782   76.3610  217.0556 H   0  0  0  0  0  0  0  0  0  0  0  0
  141.6888   78.0044  216.8124 H   0  0  0  0  0  0  0  0  0  0  0  0
  137.8965   76.9164  222.5933 H   0  0  0  0  0  0  0  0  0  0  0  0
  138.1007   79.2806  223.3695 H   0  0  0  0  0  0  0  0  0  0  0  0
  139.4369   81.2837  223.8888 H   0  0  0  0  0  0  0  0  0  0  0  0
  141.7494   82.2668  223.9465 H   0  0  0  0  0  0  0  0  0  0  0  0
  143.7130   80.9592  223.2742 H   0  0  0  0  0  0  0  0  0  0  0  0
  143.4715   78.6197  222.5174 H   0  0  0  0  0  0  0  0  0  0  0  0
  1  2  2  0
  2  3  1  0
  3  4  1  0
  4  5  1  0
  5  6  2  0
  5  7  1  0
  7  8  1  0
  8  9  1  0
  9 10  1  0
  9 11  1  0
 11 12  1  0
 12 13  1  0
 13 14  1  0
 14 15  1  0
 15 16  1  0
 16 17  1  0
 17 18  1  0
 18 19  1  0
  2 20  1  0
 20 21  2  0
 21 22  1  0
 22 23  2  0
 23 24  1  0
 24 25  2  0
 25 26  1  0
 26 27  2  0
 27 28  1  0
 28 29  2  0
 12  7  1  0
 19 15  1  0
 29 20  1  0
 28 23  1  0
  3 30  1  0
  4 31  1  0
  4 32  1  0
  8 33  1  0
  8 34  1  0
  9 35  1  6
 10 36  1  0
 11 37  1  0
 11 38  1  0
 12 39  1  1
 13 40  1  0
 13 41  1  0
 15 42  1  0
 16 43  1  0
 16 44  1  0
 17 45  1  0
 17 46  1  0
 18 47  1  0
 18 48  1  0
 19 49  1  0
 19 50  1  0
 21 51  1  0
 22 52  1  0
 24 53  1  0
 25 54  1  0
 26 55  1  0
 27 56  1  0
M  END
>  <smiles>  (17) 
O=C(NCC(=O)N1C[C@H](O)C[C@H]1COC1CCCC1)c1ccc2ccccc2n1

>  <score_type>  (17) 
oracle

>  <origin>  (17) 
autodockgpu

>  <m_score__min__energy>  (17) 
-8.5500000000000007

>  <m_primary>  (17) 
energy

>  <rmsd>  (17) 
7.528658191990506

>  <m_score__min__rmsd>  (17) 
7.528658191990506

>  <meeko>  (17) 
{"free_energy": -7.08, "intermolecular_energy": -9.47, "internal_energy": -3.65, "cluster_size": 33, "cluster_id": 4, "rank_in_cluster": 13}

>  <energy>  (17) 
-7.31

>  <cluster_rmsd>  (17) 
0.0

>  <cluster>  (17) 
4

$$$$

     RDKit          3D

 56 59  0  0  0  0  0  0  0  0999 V2000
  138.7070   75.4200  221.7280 O   0  0  0  0  0  0  0  0  0  0  0  0
  139.8870   75.9020  221.7640 C   0  0  0  0  0  0  0  0  0  0  0  0
  140.9660   75.1220  221.2640 N   0  0  0  0  0  0  0  0  0  0  0  0
  140.7860   73.7940  220.7100 C   0  0  0  0  0  0  0  0  0  0  0  0
  142.0260   73.0220  220.9370 C   0  0  0  0  0  0  0  0  0  0  0  0
  141.9910   72.0630  221.7470 O   0  0  0  0  0  0  0  0  0  0  0  0
  143.1850   73.4180  220.2230 N   0  0  0  0  0  0  0  0  0  0  0  0
  143.8840   72.7700  219.1310 C   0  0  0  0  0  0  0  0  0  0  0  0
  145.3500   73.1480  219.3780 C   0  0  2  0  0  0  0  0  0  0  0  0
  146.1020   72.0100  219.6650 O   0  0  0  0  0  0  0  0  0  0  0  0
  145.3060   74.0450  220.6020 C   0  0  0  0  0  0  0  0  0  0  0  0
  143.9790   74.6720  220.4630 C   0  0  1  0  0  0  0  0  0  0  0  0
  143.6940   75.6520  219.4090 C   0  0  0  0  0  0  0  0  0  0  0  0
  142.9170   76.6890  219.7520 O   0  0  0  0  0  0  0  0  0  0  0  0
  141.7580   76.9380  219.1040 C   0  0  0  0  0  0  0  0  0  0  0  0
  142.0460   76.8960  217.6000 C   0  0  0  0  0  0  0  0  0  0  0  0
  142.6790   78.2400  217.3110 C   0  0  0  0  0  0  0  0  0  0  0  0
  142.5270   79.0790  218.5660 C   0  0  0  0  0  0  0  0  0  0  0  0
  141.3440   78.4100  219.2340 C   0  0  0  0  0  0  0  0  0  0  0  0
  140.1120   77.2320  222.3120 C   0  0  0  0  0  0  0  0  0  0  0  0
  139.0320   77.9870  222.7440 C   0  0  0  0  0  0  0  0  0  0  0  0
  139.3300   79.2420  223.2530 C   0  0  0  0  0  0  0  0  0  0  0  0
  140.6210   79.7310  223.3310 C   0  0  0  0  0  0  0  0  0  0  0  0
  140.8820   81.0040  223.8520 C   0  0  0  0  0  0  0  0  0  0  0  0
  142.2270   81.3720  223.8740 C   0  0  0  0  0  0  0  0  0  0  0  0
  143.2290   80.5420  223.4160 C   0  0  0  0  0  0  0  0  0  0  0  0
  142.9370   79.3050  222.9150 C   0  0  0  0  0  0  0  0  0  0  0  0
  141.6240   78.9050  222.8760 C   0  0  0  0  0  0  0  0  0  0  0  0
  141.3430   77.7070  222.3900 N   0  0  0  0  0  0  0  0  0  0  0  0
  141.9140   75.5600  221.3160 H   0  0  0  0  0  0  0  0  0  0  0  0
  139.9414   73.2951  221.2077 H   0  0  0  0  0  0  0  0  0  0  0  0
  140.5732   73.8594  219.6328 H   0  0  0  0  0  0  0  0  0  0  0  0
  143.7467   71.6792  219.1671 H   0  0  0  0  0  0  0  0  0  0  0  0
  143.5196   73.0816  218.1410 H   0  0  0  0  0  0  0  0  0  0  0  0
  145.8076   73.6331  218.5032 H   0  0  0  0  0  0  0  0  0  0  0  0
  145.9680   71.7100  220.6030 H   0  0  0  0  0  0  0  0  0  0  0  0
  145.3783   73.4602  221.5309 H   0  0  0  0  0  0  0  0  0  0  0  0
  146.1366   74.7639  220.6599 H   0  0  0  0  0  0  0  0  0  0  0  0
  143.7830   75.3240  221.3270 H   0  0  0  0  0  0  0  0  0  0  0  0
  144.6555   76.0559  219.0591 H   0  0  0  0  0  0  0  0  0  0  0  0
  143.1252   75.1016  218.6452 H   0  0  0  0  0  0  0  0  0  0  0  0
  141.0192   76.2265  219.5014 H   0  0  0  0  0  0  0  0  0  0  0  0
  142.7391   76.0770  217.3573 H   0  0  0  0  0  0  0  0  0  0  0  0
  141.1414   76.7163  217.0005 H   0  0  0  0  0  0  0  0  0  0  0  0
  143.7443   78.1119  217.0686 H   0  0  0  0  0  0  0  0  0  0  0  0
  142.1943   78.7264  216.4517 H   0  0  0  0  0  0  0  0  0  0  0  0
  143.4271   79.0264  219.1961 H   0  0  0  0  0  0  0  0  0  0  0  0
  142.3856   80.1528  218.3736 H   0  0  0  0  0  0  0  0  0  0  0  0
  141.2443   78.7141  220.2864 H   0  0  0  0  0  0  0  0  0  0  0  0
  140.3657   78.6555  218.7950 H   0  0  0  0  0  0  0  0  0  0  0  0
  137.9994   77.6123  222.6863 H   0  0  0  0  0  0  0  0  0  0  0  0
  138.5044   79.8753  223.6098 H   0  0  0  0  0  0  0  0  0  0  0  0
  140.0836   81.6663  224.2177 H   0  0  0  0  0  0  0  0  0  0  0  0
  142.4989   82.3610  224.2714 H   0  0  0  0  0  0  0  0  0  0  0  0
  144.2751   80.8799  223.4546 H   0  0  0  0  0  0  0  0  0  0  0  0
  143.7367   78.6435  222.5506 H   0  0  0  0  0  0  0  0  0  0  0  0
  1  2  2  0
  2  3  1  0
  3  4  1  0
  4  5  1  0
  5  6  2  0
  5  7  1  0
  7  8  1  0
  8  9  1  0
  9 10  1  0
  9 11  1  0
 11 12  1  0
 12 13  1  0
 13 14  1  0
 14 15  1  0
 15 16  1  0
 16 17  1  0
 17 18  1  0
 18 19  1  0
  2 20  1  0
 20 21  2  0
 21 22  1  0
 22 23  2  0
 23 24  1  0
 24 25  2  0
 25 26  1  0
 26 27  2  0
 27 28  1  0
 28 29  2  0
 12  7  1  0
 19 15  1  0
 29 20  1  0
 28 23  1  0
  3 30  1  0
  4 31  1  0
  4 32  1  0
  8 33  1  0
  8 34  1  0
  9 35  1  6
 10 36  1  0
 11 37  1  0
 11 38  1  0
 12 39  1  1
 13 40  1  0
 13 41  1  0
 15 42  1  0
 16 43  1  0
 16 44  1  0
 17 45  1  0
 17 46  1  0
 18 47  1  0
 18 48  1  0
 19 49  1  0
 19 50  1  0
 21 51  1  0
 22 52  1  0
 24 53  1  0
 25 54  1  0
 26 55  1  0
 27 56  1  0
M  END
>  <smiles>  (18) 
O=C(NCC(=O)N1C[C@H](O)C[C@H]1COC1CCCC1)c1ccc2ccccc2n1

>  <score_type>  (18) 
oracle

>  <origin>  (18) 
autodockgpu

>  <m_score__min__energy>  (18) 
-8.5500000000000007

>  <m_primary>  (18) 
energy

>  <rmsd>  (18) 
7.670353934138361

>  <m_score__min__rmsd>  (18) 
7.670353934138361

>  <meeko>  (18) 
{"free_energy": -7.23, "intermolecular_energy": -9.61, "internal_energy": -3.42, "cluster_size": 33, "cluster_id": 4, "rank_in_cluster": 5}

>  <energy>  (18) 
-7.3

>  <cluster_rmsd>  (18) 
0.31

>  <cluster>  (18) 
4

$$$$

     RDKit          3D

 56 59  0  0  0  0  0  0  0  0999 V2000
  139.1940   74.5570  222.3490 O   0  0  0  0  0  0  0  0  0  0  0  0
  139.9700   75.4010  221.7900 C   0  0  0  0  0  0  0  0  0  0  0  0
  140.7820   74.9780  220.7020 N   0  0  0  0  0  0  0  0  0  0  0  0
  140.7690   73.6190  220.1930 C   0  0  0  0  0  0  0  0  0  0  0  0
  142.0110   72.9480  220.6290 C   0  0  0  0  0  0  0  0  0  0  0  0
  141.9210   72.0020  221.4510 O   0  0  0  0  0  0  0  0  0  0  0  0
  143.2360   73.4170  220.0900 N   0  0  0  0  0  0  0  0  0  0  0  0
  144.1150   72.8270  219.1010 C   0  0  0  0  0  0  0  0  0  0  0  0
  145.5100   73.2790  219.5560 C   0  0  2  0  0  0  0  0  0  0  0  0
  146.2750   72.1770  219.9350 O   0  0  0  0  0  0  0  0  0  0  0  0
  145.2440   74.1500  220.7710 C   0  0  0  0  0  0  0  0  0  0  0  0
  143.9170   74.7070  220.4540 C   0  0  1  0  0  0  0  0  0  0  0  0
  143.7300   75.6890  219.3800 C   0  0  0  0  0  0  0  0  0  0  0  0
  142.7870   76.6210  219.5810 O   0  0  0  0  0  0  0  0  0  0  0  0
  142.6440   77.6650  218.7360 C   0  0  0  0  0  0  0  0  0  0  0  0
  141.7930   78.7250  219.4410 C   0  0  0  0  0  0  0  0  0  0  0  0
  140.3770   78.2120  219.2960 C   0  0  0  0  0  0  0  0  0  0  0  0
  140.4290   77.0350  218.3410 C   0  0  0  0  0  0  0  0  0  0  0  0
  141.7020   77.3250  217.5740 C   0  0  0  0  0  0  0  0  0  0  0  0
  140.0130   76.7750  222.2700 C   0  0  0  0  0  0  0  0  0  0  0  0
  138.8360   77.4140  222.6280 C   0  0  0  0  0  0  0  0  0  0  0  0
  138.9610   78.7210  223.0740 C   0  0  0  0  0  0  0  0  0  0  0  0
  140.1810   79.3670  223.1630 C   0  0  0  0  0  0  0  0  0  0  0  0
  140.2680   80.6880  223.6190 C   0  0  0  0  0  0  0  0  0  0  0  0
  141.5570   81.2170  223.6600 C   0  0  0  0  0  0  0  0  0  0  0  0
  142.6670   80.4940  223.2780 C   0  0  0  0  0  0  0  0  0  0  0  0
  142.5440   79.2070  222.8390 C   0  0  0  0  0  0  0  0  0  0  0  0
  141.2910   78.6470  222.7830 C   0  0  0  0  0  0  0  0  0  0  0  0
  141.1740   77.4000  222.3570 N   0  0  0  0  0  0  0  0  0  0  0  0
  141.4010   75.7060  220.2780 H   0  0  0  0  0  0  0  0  0  0  0  0
  139.8961   73.0810  220.5913 H   0  0  0  0  0  0  0  0  0  0  0  0
  140.7079   73.6264  219.0947 H   0  0  0  0  0  0  0  0  0  0  0  0
  144.0347   71.7300  219.1065 H   0  0  0  0  0  0  0  0  0  0  0  0
  143.8759   73.1360  218.0727 H   0  0  0  0  0  0  0  0  0  0  0  0
  146.0589   73.8036  218.7601 H   0  0  0  0  0  0  0  0  0  0  0  0
  146.0600   71.8820  220.8590 H   0  0  0  0  0  0  0  0  0  0  0  0
  145.2182   73.5530  221.6945 H   0  0  0  0  0  0  0  0  0  0  0  0
  146.0165   74.9118  220.9523 H   0  0  0  0  0  0  0  0  0  0  0  0
  143.5649   75.3305  221.2890 H   0  0  0  0  0  0  0  0  0  0  0  0
  144.6879   76.2089  219.2316 H   0  0  0  0  0  0  0  0  0  0  0  0
  143.3865   75.1090  218.5107 H   0  0  0  0  0  0  0  0  0  0  0  0
  143.6583   77.9532  218.4228 H   0  0  0  0  0  0  0  0  0  0  0  0
  142.0721   78.8086  220.5017 H   0  0  0  0  0  0  0  0  0  0  0  0
  141.9259   79.7292  219.0120 H   0  0  0  0  0  0  0  0  0  0  0  0
  139.9901   77.8887  220.2737 H   0  0  0  0  0  0  0  0  0  0  0  0
  139.7108   78.9994  218.9137 H   0  0  0  0  0  0  0  0  0  0  0  0
  140.4951   76.0802  218.8832 H   0  0  0  0  0  0  0  0  0  0  0  0
  139.5364   76.9324  217.7064 H   0  0  0  0  0  0  0  0  0  0  0  0
  142.0488   76.4454  217.0118 H   0  0  0  0  0  0  0  0  0  0  0  0
  141.6117   78.1086  216.8073 H   0  0  0  0  0  0  0  0  0  0  0  0
  137.8590   76.9130  222.5621 H   0  0  0  0  0  0  0  0  0  0  0  0
  138.0526   79.2666  223.3692 H   0  0  0  0  0  0  0  0  0  0  0  0
  139.3831   81.2665  223.9229 H   0  0  0  0  0  0  0  0  0  0  0  0
  141.6938   82.2507  224.0105 H   0  0  0  0  0  0  0  0  0  0  0  0
  143.6626   80.9591  223.3274 H   0  0  0  0  0  0  0  0  0  0  0  0
  143.4304   78.6303  222.5363 H   0  0  0  0  0  0  0  0  0  0  0  0
  1  2  2  0
  2  3  1  0
  3  4  1  0
  4  5  1  0
  5  6  2  0
  5  7  1  0
  7  8  1  0
  8  9  1  0
  9 10  1  0
  9 11  1  0
 11 12  1  0
 12 13  1  0
 13 14  1  0
 14 15  1  0
 15 16  1  0
 16 17  1  0
 17 18  1  0
 18 19  1  0
  2 20  1  0
 20 21  2  0
 21 22  1  0
 22 23  2  0
 23 24  1  0
 24 25  2  0
 25 26  1  0
 26 27  2  0
 27 28  1  0
 28 29  2  0
 12  7  1  0
 19 15  1  0
 29 20  1  0
 28 23  1  0
  3 30  1  0
  4 31  1  0
  4 32  1  0
  8 33  1  0
  8 34  1  0
  9 35  1  6
 10 36  1  0
 11 37  1  0
 11 38  1  0
 12 39  1  1
 13 40  1  0
 13 41  1  0
 15 42  1  0
 16 43  1  0
 16 44  1  0
 17 45  1  0
 17 46  1  0
 18 47  1  0
 18 48  1  0
 19 49  1  0
 19 50  1  0
 21 51  1  0
 22 52  1  0
 24 53  1  0
 25 54  1  0
 26 55  1  0
 27 56  1  0
M  END
>  <smiles>  (19) 
O=C(NCC(=O)N1C[C@H](O)C[C@H]1COC1CCCC1)c1ccc2ccccc2n1

>  <score_type>  (19) 
oracle

>  <origin>  (19) 
autodockgpu

>  <m_score__min__energy>  (19) 
-8.5500000000000007

>  <m_primary>  (19) 
energy

>  <rmsd>  (19) 
7.504676999488446

>  <m_score__min__rmsd>  (19) 
7.504676999488446

>  <meeko>  (19) 
{"free_energy": -7.07, "intermolecular_energy": -9.46, "internal_energy": -3.64, "cluster_size": 33, "cluster_id": 4, "rank_in_cluster": 14}

>  <energy>  (19) 
-7.24

>  <cluster_rmsd>  (19) 
0.27

>  <cluster>  (19) 
4

$$$$

     RDKit          3D

 56 59  0  0  0  0  0  0  0  0999 V2000
  138.7860   75.1390  222.0070 O   0  0  0  0  0  0  0  0  0  0  0  0
  139.9000   75.7370  221.8390 C   0  0  0  0  0  0  0  0  0  0  0  0
  140.9420   75.0710  221.1350 N   0  0  0  0  0  0  0  0  0  0  0  0
  140.7940   73.7320  220.5960 C   0  0  0  0  0  0  0  0  0  0  0  0
  142.0350   72.9790  220.8730 C   0  0  0  0  0  0  0  0  0  0  0  0
  141.9800   72.0130  221.6740 O   0  0  0  0  0  0  0  0  0  0  0  0
  143.2200   73.3990  220.2160 N   0  0  0  0  0  0  0  0  0  0  0  0
  144.0060   72.7460  219.1880 C   0  0  0  0  0  0  0  0  0  0  0  0
  145.4400   73.1910  219.5080 C   0  0  2  0  0  0  0  0  0  0  0  0
  146.2160   72.0930  219.8770 O   0  0  0  0  0  0  0  0  0  0  0  0
  145.2880   74.1220  220.6980 C   0  0  0  0  0  0  0  0  0  0  0  0
  143.9490   74.6900  220.4610 C   0  0  1  0  0  0  0  0  0  0  0  0
  143.6900   75.6250  219.3600 C   0  0  0  0  0  0  0  0  0  0  0  0
  142.8590   76.6440  219.6240 O   0  0  0  0  0  0  0  0  0  0  0  0
  142.6720   77.6420  218.7330 C   0  0  0  0  0  0  0  0  0  0  0  0
  141.8120   78.7150  219.4080 C   0  0  0  0  0  0  0  0  0  0  0  0
  140.4060   78.1630  219.3220 C   0  0  0  0  0  0  0  0  0  0  0  0
  140.4630   76.9430  218.4240 C   0  0  0  0  0  0  0  0  0  0  0  0
  141.7110   77.2240  217.6120 C   0  0  0  0  0  0  0  0  0  0  0  0
  140.0910   77.0810  222.3640 C   0  0  0  0  0  0  0  0  0  0  0  0
  138.9940   77.8030  222.8130 C   0  0  0  0  0  0  0  0  0  0  0  0
  139.2580   79.0750  223.2980 C   0  0  0  0  0  0  0  0  0  0  0  0
  140.5330   79.6100  223.3400 C   0  0  0  0  0  0  0  0  0  0  0  0
  140.7600   80.8990  223.8390 C   0  0  0  0  0  0  0  0  0  0  0  0
  142.0900   81.3140  223.8240 C   0  0  0  0  0  0  0  0  0  0  0  0
  143.1110   80.5140  223.3530 C   0  0  0  0  0  0  0  0  0  0  0  0
  142.8520   79.2620  222.8750 C   0  0  0  0  0  0  0  0  0  0  0  0
  141.5530   78.8140  222.8710 C   0  0  0  0  0  0  0  0  0  0  0  0
  141.3050   77.6010  222.4080 N   0  0  0  0  0  0  0  0  0  0  0  0
  141.8360   75.6020  221.0230 H   0  0  0  0  0  0  0  0  0  0  0  0
  139.9402   73.2307  221.0753 H   0  0  0  0  0  0  0  0  0  0  0  0
  140.6135   73.7783  219.5119 H   0  0  0  0  0  0  0  0  0  0  0  0
  143.9087   71.6522  219.2521 H   0  0  0  0  0  0  0  0  0  0  0  0
  143.6891   73.0113  218.1686 H   0  0  0  0  0  0  0  0  0  0  0  0
  145.9301   73.6674  218.6461 H   0  0  0  0  0  0  0  0  0  0  0  0
  146.0520   71.8290  220.8210 H   0  0  0  0  0  0  0  0  0  0  0  0
  145.3269   73.5688  221.6480 H   0  0  0  0  0  0  0  0  0  0  0  0
  146.0852   74.8753  220.7814 H   0  0  0  0  0  0  0  0  0  0  0  0
  143.6768   75.3594  221.2903 H   0  0  0  0  0  0  0  0  0  0  0  0
  144.6551   76.0523  219.0503 H   0  0  0  0  0  0  0  0  0  0  0  0
  143.1845   75.0299  218.5852 H   0  0  0  0  0  0  0  0  0  0  0  0
  143.6712   77.9379  218.3809 H   0  0  0  0  0  0  0  0  0  0  0  0
  142.1136   78.8557  220.4565 H   0  0  0  0  0  0  0  0  0  0  0  0
  141.9105   79.7003  218.9291 H   0  0  0  0  0  0  0  0  0  0  0  0
  140.0498   77.8788  220.3232 H   0  0  0  0  0  0  0  0  0  0  0  0
  139.7128   78.9156  218.9182 H   0  0  0  0  0  0  0  0  0  0  0  0
  140.5645   76.0174  219.0096 H   0  0  0  0  0  0  0  0  0  0  0  0
  139.5582   76.7898  217.8175 H   0  0  0  0  0  0  0  0  0  0  0  0
  142.0653   76.3260  217.0846 H   0  0  0  0  0  0  0  0  0  0  0  0
  141.5840   77.9667  216.8106 H   0  0  0  0  0  0  0  0  0  0  0  0
  137.9747   77.3903  222.7857 H   0  0  0  0  0  0  0  0  0  0  0  0
  138.4185   79.6840  223.6646 H   0  0  0  0  0  0  0  0  0  0  0  0
  139.9471   81.5374  224.2155 H   0  0  0  0  0  0  0  0  0  0  0  0
  142.3355   82.3174  224.2020 H   0  0  0  0  0  0  0  0  0  0  0  0
  144.1449   80.8894  223.3629 H   0  0  0  0  0  0  0  0  0  0  0  0
  143.6666   78.6246  222.5006 H   0  0  0  0  0  0  0  0  0  0  0  0
  1  2  2  0
  2  3  1  0
  3  4  1  0
  4  5  1  0
  5  6  2  0
  5  7  1  0
  7  8  1  0
  8  9  1  0
  9 10  1  0
  9 11  1  0
 11 12  1  0
 12 13  1  0
 13 14  1  0
 14 15  1  0
 15 16  1  0
 16 17  1  0
 17 18  1  0
 18 19  1  0
  2 20  1  0
 20 21  2  0
 21 22  1  0
 22 23  2  0
 23 24  1  0
 24 25  2  0
 25 26  1  0
 26 27  2  0
 27 28  1  0
 28 29  2  0
 12  7  1  0
 19 15  1  0
 29 20  1  0
 28 23  1  0
  3 30  1  0
  4 31  1  0
  4 32  1  0
  8 33  1  0
  8 34  1  0
  9 35  1  6
 10 36  1  0
 11 37  1  0
 11 38  1  0
 12 39  1  1
 13 40  1  0
 13 41  1  0
 15 42  1  0
 16 43  1  0
 16 44  1  0
 17 45  1  0
 17 46  1  0
 18 47  1  0
 18 48  1  0
 19 49  1  0
 19 50  1  0
 21 51  1  0
 22 52  1  0
 24 53  1  0
 25 54  1  0
 26 55  1  0
 27 56  1  0
M  END
>  <smiles>  (20) 
O=C(NCC(=O)N1C[C@H](O)C[C@H]1COC1CCCC1)c1ccc2ccccc2n1

>  <score_type>  (20) 
oracle

>  <origin>  (20) 
autodockgpu

>  <m_score__min__energy>  (20) 
-8.5500000000000007

>  <m_primary>  (20) 
energy

>  <rmsd>  (20) 
7.619585443512748

>  <m_score__min__rmsd>  (20) 
7.619585443512748

>  <meeko>  (20) 
{"free_energy": -6.97, "intermolecular_energy": -9.36, "internal_energy": -3.68, "cluster_size": 33, "cluster_id": 4, "rank_in_cluster": 22}

>  <energy>  (20) 
-7.24

>  <cluster_rmsd>  (20) 
0.29

>  <cluster>  (20) 
4

$$$$

     RDKit          3D

 56 59  0  0  0  0  0  0  0  0999 V2000
  139.1060   74.6640  222.2740 O   0  0  0  0  0  0  0  0  0  0  0  0
  140.1460   75.3590  222.0280 C   0  0  0  0  0  0  0  0  0  0  0  0
  141.2750   74.7270  221.4370 N   0  0  0  0  0  0  0  0  0  0  0  0
  141.2990   73.3170  221.0980 C   0  0  0  0  0  0  0  0  0  0  0  0
  141.9180   73.1690  219.7640 C   0  0  0  0  0  0  0  0  0  0  0  0
  141.2290   72.6690  218.8390 O   0  0  0  0  0  0  0  0  0  0  0  0
  143.2600   73.6010  219.6110 N   0  0  0  0  0  0  0  0  0  0  0  0
  144.2650   73.2190  218.6400 C   0  0  0  0  0  0  0  0  0  0  0  0
  145.5740   73.3100  219.4350 C   0  0  2  0  0  0  0  0  0  0  0  0
  146.1550   72.0490  219.5570 O   0  0  0  0  0  0  0  0  0  0  0  0
  145.1470   73.8030  220.8060 C   0  0  0  0  0  0  0  0  0  0  0  0
  143.9610   74.6120  220.4750 C   0  0  1  0  0  0  0  0  0  0  0  0
  144.0710   75.8880  219.7600 C   0  0  0  0  0  0  0  0  0  0  0  0
  143.0350   76.7310  219.8780 O   0  0  0  0  0  0  0  0  0  0  0  0
  142.0880   76.8110  218.9180 C   0  0  0  0  0  0  0  0  0  0  0  0
  142.6850   77.5810  217.7360 C   0  0  0  0  0  0  0  0  0  0  0  0
  142.5980   79.0300  218.1630 C   0  0  0  0  0  0  0  0  0  0  0  0
  141.7680   79.0680  219.4320 C   0  0  0  0  0  0  0  0  0  0  0  0
  140.9700   77.7870  219.3090 C   0  0  0  0  0  0  0  0  0  0  0  0
  140.1650   76.7780  222.3530 C   0  0  0  0  0  0  0  0  0  0  0  0
  138.9680   77.4630  222.5010 C   0  0  0  0  0  0  0  0  0  0  0  0
  139.0710   78.8110  222.8100 C   0  0  0  0  0  0  0  0  0  0  0  0
  140.2860   79.4530  222.9650 C   0  0  0  0  0  0  0  0  0  0  0  0
  140.3490   80.8160  223.2780 C   0  0  0  0  0  0  0  0  0  0  0  0
  141.6360   81.3360  223.4060 C   0  0  0  0  0  0  0  0  0  0  0  0
  142.7670   80.5640  223.2380 C   0  0  0  0  0  0  0  0  0  0  0  0
  142.6670   79.2370  222.9330 C   0  0  0  0  0  0  0  0  0  0  0  0
  141.4160   78.6850  222.7980 C   0  0  0  0  0  0  0  0  0  0  0  0
  141.3220   77.3990  222.5030 N   0  0  0  0  0  0  0  0  0  0  0  0
  142.1030   75.3390  221.2550 H   0  0  0  0  0  0  0  0  0  0  0  0
  141.8889   72.7653  221.8447 H   0  0  0  0  0  0  0  0  0  0  0  0
  140.2759   72.9132  221.0871 H   0  0  0  0  0  0  0  0  0  0  0  0
  144.0940   72.1945  218.2778 H   0  0  0  0  0  0  0  0  0  0  0  0
  144.2607   73.8547  217.7423 H   0  0  0  0  0  0  0  0  0  0  0  0
  146.3111   73.9667  218.9498 H   0  0  0  0  0  0  0  0  0  0  0  0
  145.9860   71.6530  220.4520 H   0  0  0  0  0  0  0  0  0  0  0  0
  144.8887   72.9657  221.4709 H   0  0  0  0  0  0  0  0  0  0  0  0
  145.9294   74.3567  221.3456 H   0  0  0  0  0  0  0  0  0  0  0  0
  143.5051   74.9996  221.3980 H   0  0  0  0  0  0  0  0  0  0  0  0
  144.9668   76.4049  220.1346 H   0  0  0  0  0  0  0  0  0  0  0  0
  144.1097   75.6217  218.6934 H   0  0  0  0  0  0  0  0  0  0  0  0
  141.7429   75.7830  218.7334 H   0  0  0  0  0  0  0  0  0  0  0  0
  143.7307   77.2857  217.5649 H   0  0  0  0  0  0  0  0  0  0  0  0
  142.1558   77.3849  216.7918 H   0  0  0  0  0  0  0  0  0  0  0  0
  143.6049   79.4277  218.3579 H   0  0  0  0  0  0  0  0  0  0  0  0
  142.1394   79.6452  217.3748 H   0  0  0  0  0  0  0  0  0  0  0  0
  142.4047   79.0603  220.3290 H   0  0  0  0  0  0  0  0  0  0  0  0
  141.1510   79.9725  219.5375 H   0  0  0  0  0  0  0  0  0  0  0  0
  140.4988   77.5067  220.2627 H   0  0  0  0  0  0  0  0  0  0  0  0
  140.1278   77.8326  218.6029 H   0  0  0  0  0  0  0  0  0  0  0  0
  137.9941   76.9661  222.3804 H   0  0  0  0  0  0  0  0  0  0  0  0
  138.1471   79.3943  222.9372 H   0  0  0  0  0  0  0  0  0  0  0  0
  139.4479   81.4322  223.4132 H   0  0  0  0  0  0  0  0  0  0  0  0
  141.7543   82.4020  223.6502 H   0  0  0  0  0  0  0  0  0  0  0  0
  143.7604   81.0227  223.3511 H   0  0  0  0  0  0  0  0  0  0  0  0
  143.5693   78.6225  222.7981 H   0  0  0  0  0  0  0  0  0  0  0  0
  1  2  2  0
  2  3  1  0
  3  4  1  0
  4  5  1  0
  5  6  2  0
  5  7  1  0
  7  8  1  0
  8  9  1  0
  9 10  1  0
  9 11  1  0
 11 12  1  0
 12 13  1  0
 13 14  1  0
 14 15  1  0
 15 16  1  0
 16 17  1  0
 17 18  1  0
 18 19  1  0
  2 20  1  0
 20 21  2  0
 21 22  1  0
 22 23  2  0
 23 24  1  0
 24 25  2  0
 25 26  1  0
 26 27  2  0
 27 28  1  0
 28 29  2  0
 12  7  1  0
 19 15  1  0
 29 20  1  0
 28 23  1  0
  3 30  1  0
  4 31  1  0
  4 32  1  0
  8 33  1  0
  8 34  1  0
  9 35  1  6
 10 36  1  0
 11 37  1  0
 11 38  1  0
 12 39  1  1
 13 40  1  0
 13 41  1  0
 15 42  1  0
 16 43  1  0
 16 44  1  0
 17 45  1  0
 17 46  1  0
 18 47  1  0
 18 48  1  0
 19 49  1  0
 19 50  1  0
 21 51  1  0
 22 52  1  0
 24 53  1  0
 25 54  1  0
 26 55  1  0
 27 56  1  0
M  END
>  <smiles>  (21) 
O=C(NCC(=O)N1C[C@H](O)C[C@H]1COC1CCCC1)c1ccc2ccccc2n1

>  <score_type>  (21) 
oracle

>  <origin>  (21) 
autodockgpu

>  <m_score__min__energy>  (21) 
-8.5500000000000007

>  <m_primary>  (21) 
energy

>  <rmsd>  (21) 
7.611952099175077

>  <m_score__min__rmsd>  (21) 
7.611952099175077

>  <meeko>  (21) 
{"free_energy": -7.08, "intermolecular_energy": -9.47, "internal_energy": -3.54, "cluster_size": 33, "cluster_id": 4, "rank_in_cluster": 12}

>  <energy>  (21) 
-7.23

>  <cluster_rmsd>  (21) 
0.27

>  <cluster>  (21) 
4

$$$$

     RDKit          3D

 56 59  0  0  0  0  0  0  0  0999 V2000
  138.7710   75.2350  221.8460 O   0  0  0  0  0  0  0  0  0  0  0  0
  139.9210   75.7800  221.7680 C   0  0  0  0  0  0  0  0  0  0  0  0
  140.9860   75.0610  221.1580 N   0  0  0  0  0  0  0  0  0  0  0  0
  140.8230   73.7250  220.6160 C   0  0  0  0  0  0  0  0  0  0  0  0
  142.0650   72.9650  220.8710 C   0  0  0  0  0  0  0  0  0  0  0  0
  142.0060   71.9650  221.6290 O   0  0  0  0  0  0  0  0  0  0  0  0
  143.2530   73.4170  220.2430 N   0  0  0  0  0  0  0  0  0  0  0  0
  144.1030   72.7700  219.2640 C   0  0  0  0  0  0  0  0  0  0  0  0
  145.5040   73.2860  219.6200 C   0  0  2  0  0  0  0  0  0  0  0  0
  146.3130   72.2350  220.0490 O   0  0  0  0  0  0  0  0  0  0  0  0
  145.2690   74.2450  220.7740 C   0  0  0  0  0  0  0  0  0  0  0  0
  143.9170   74.7460  220.4730 C   0  0  1  0  0  0  0  0  0  0  0  0
  143.6580   75.6360  219.3360 C   0  0  0  0  0  0  0  0  0  0  0  0
  142.5670   76.4110  219.4190 O   0  0  0  0  0  0  0  0  0  0  0  0
  141.9380   76.8540  218.3090 C   0  0  0  0  0  0  0  0  0  0  0  0
  142.8120   77.9410  217.6790 C   0  0  0  0  0  0  0  0  0  0  0  0
  142.5300   79.1680  218.5180 C   0  0  0  0  0  0  0  0  0  0  0  0
  141.3670   78.8250  219.4270 C   0  0  0  0  0  0  0  0  0  0  0  0
  140.7060   77.6990  218.6590 C   0  0  0  0  0  0  0  0  0  0  0  0
  140.1270   77.1200  222.2990 C   0  0  0  0  0  0  0  0  0  0  0  0
  139.0380   77.8590  222.7370 C   0  0  0  0  0  0  0  0  0  0  0  0
  139.3180   79.1250  223.2290 C   0  0  0  0  0  0  0  0  0  0  0  0
  140.6000   79.6390  223.2860 C   0  0  0  0  0  0  0  0  0  0  0  0
  140.8430   80.9220  223.7910 C   0  0  0  0  0  0  0  0  0  0  0  0
  142.1800   81.3160  223.7920 C   0  0  0  0  0  0  0  0  0  0  0  0
  143.1920   80.5000  223.3310 C   0  0  0  0  0  0  0  0  0  0  0  0
  142.9180   79.2530  222.8460 C   0  0  0  0  0  0  0  0  0  0  0  0
  141.6120   78.8270  222.8270 C   0  0  0  0  0  0  0  0  0  0  0  0
  141.3490   77.6190  222.3570 N   0  0  0  0  0  0  0  0  0  0  0  0
  141.9090   75.5500  221.1180 H   0  0  0  0  0  0  0  0  0  0  0  0
  139.9743   73.2258  221.1064 H   0  0  0  0  0  0  0  0  0  0  0  0
  140.6258   73.7764  219.5350 H   0  0  0  0  0  0  0  0  0  0  0  0
  144.0502   71.6753  219.3579 H   0  0  0  0  0  0  0  0  0  0  0  0
  143.8123   72.9920  218.2266 H   0  0  0  0  0  0  0  0  0  0  0  0
  146.0046   73.7573  218.7613 H   0  0  0  0  0  0  0  0  0  0  0  0
  145.9580   71.8140  220.8770 H   0  0  0  0  0  0  0  0  0  0  0  0
  145.2972   73.7229  221.7418 H   0  0  0  0  0  0  0  0  0  0  0  0
  146.0296   75.0349  220.8610 H   0  0  0  0  0  0  0  0  0  0  0  0
  143.5865   75.4270  221.2712 H   0  0  0  0  0  0  0  0  0  0  0  0
  144.5299   76.2973  219.2239 H   0  0  0  0  0  0  0  0  0  0  0  0
  143.4769   74.9693  218.4800 H   0  0  0  0  0  0  0  0  0  0  0  0
  141.7152   75.9650  217.7007 H   0  0  0  0  0  0  0  0  0  0  0  0
  143.8760   77.6670  217.7320 H   0  0  0  0  0  0  0  0  0  0  0  0
  142.5914   78.0970  216.6127 H   0  0  0  0  0  0  0  0  0  0  0  0
  143.4149   79.4270  219.1180 H   0  0  0  0  0  0  0  0  0  0  0  0
  142.2893   80.0322  217.8814 H   0  0  0  0  0  0  0  0  0  0  0  0
  141.7147   78.4879  220.4147 H   0  0  0  0  0  0  0  0  0  0  0  0
  140.7004   79.6731  219.6422 H   0  0  0  0  0  0  0  0  0  0  0  0
  139.9934   77.1417  219.2847 H   0  0  0  0  0  0  0  0  0  0  0  0
  140.1038   78.0188  217.7958 H   0  0  0  0  0  0  0  0  0  0  0  0
  138.0122   77.4640  222.6965 H   0  0  0  0  0  0  0  0  0  0  0  0
  138.4848   79.7464  223.5891 H   0  0  0  0  0  0  0  0  0  0  0  0
  140.0366   81.5725  224.1605 H   0  0  0  0  0  0  0  0  0  0  0  0
  142.4376   82.3146  224.1746 H   0  0  0  0  0  0  0  0  0  0  0  0
  144.2319   80.8578  223.3542 H   0  0  0  0  0  0  0  0  0  0  0  0
  143.7260   78.6034  222.4783 H   0  0  0  0  0  0  0  0  0  0  0  0
  1  2  2  0
  2  3  1  0
  3  4  1  0
  4  5  1  0
  5  6  2  0
  5  7  1  0
  7  8  1  0
  8  9  1  0
  9 10  1  0
  9 11  1  0
 11 12  1  0
 12 13  1  0
 13 14  1  0
 14 15  1  0
 15 16  1  0
 16 17  1  0
 17 18  1  0
 18 19  1  0
  2 20  1  0
 20 21  2  0
 21 22  1  0
 22 23  2  0
 23 24  1  0
 24 25  2  0
 25 26  1  0
 26 27  2  0
 27 28  1  0
 28 29  2  0
 12  7  1  0
 19 15  1  0
 29 20  1  0
 28 23  1  0
  3 30  1  0
  4 31  1  0
  4 32  1  0
  8 33  1  0
  8 34  1  0
  9 35  1  6
 10 36  1  0
 11 37  1  0
 11 38  1  0
 12 39  1  1
 13 40  1  0
 13 41  1  0
 15 42  1  0
 16 43  1  0
 16 44  1  0
 17 45  1  0
 17 46  1  0
 18 47  1  0
 18 48  1  0
 19 49  1  0
 19 50  1  0
 21 51  1  0
 22 52  1  0
 24 53  1  0
 25 54  1  0
 26 55  1  0
 27 56  1  0
M  END
>  <smiles>  (22) 
O=C(NCC(=O)N1C[C@H](O)C[C@H]1COC1CCCC1)c1ccc2ccccc2n1

>  <score_type>  (22) 
oracle

>  <origin>  (22) 
autodockgpu

>  <m_score__min__energy>  (22) 
-8.5500000000000007

>  <m_primary>  (22) 
energy

>  <rmsd>  (22) 
7.647523836996208

>  <m_score__min__rmsd>  (22) 
7.647523836996208

>  <meeko>  (22) 
{"free_energy": -7.12, "intermolecular_energy": -9.51, "internal_energy": -3.52, "cluster_size": 33, "cluster_id": 4, "rank_in_cluster": 10}

>  <energy>  (22) 
-7.23

>  <cluster_rmsd>  (22) 
0.29

>  <cluster>  (22) 
4

$$$$

     RDKit          3D

 56 59  0  0  0  0  0  0  0  0999 V2000
  139.2380   74.5690  222.3690 O   0  0  0  0  0  0  0  0  0  0  0  0
  140.0060   75.4180  221.8070 C   0  0  0  0  0  0  0  0  0  0  0  0
  140.8060   75.0040  220.7070 N   0  0  0  0  0  0  0  0  0  0  0  0
  140.7900   73.6490  220.1890 C   0  0  0  0  0  0  0  0  0  0  0  0
  142.0330   72.9730  220.6150 C   0  0  0  0  0  0  0  0  0  0  0  0
  141.9440   72.0180  221.4270 O   0  0  0  0  0  0  0  0  0  0  0  0
  143.2570   73.4480  220.0790 N   0  0  0  0  0  0  0  0  0  0  0  0
  144.1540   72.8520  219.1090 C   0  0  0  0  0  0  0  0  0  0  0  0
  145.5370   73.3300  219.5690 C   0  0  2  0  0  0  0  0  0  0  0  0
  146.3130   72.2470  219.9770 O   0  0  0  0  0  0  0  0  0  0  0  0
  145.2480   74.2210  220.7640 C   0  0  0  0  0  0  0  0  0  0  0  0
  143.9170   74.7540  220.4230 C   0  0  1  0  0  0  0  0  0  0  0  0
  143.7270   75.7130  219.3290 C   0  0  0  0  0  0  0  0  0  0  0  0
  142.5920   76.4270  219.3510 O   0  0  0  0  0  0  0  0  0  0  0  0
  142.1220   77.0270  218.2360 C   0  0  0  0  0  0  0  0  0  0  0  0
  142.7030   78.4430  218.1860 C   0  0  0  0  0  0  0  0  0  0  0  0
  141.8440   79.2240  219.1570 C   0  0  0  0  0  0  0  0  0  0  0  0
  140.6860   78.3240  219.5460 C   0  0  0  0  0  0  0  0  0  0  0  0
  140.6340   77.3750  218.3670 C   0  0  0  0  0  0  0  0  0  0  0  0
  140.0530   76.7890  222.2960 C   0  0  0  0  0  0  0  0  0  0  0  0
  138.8750   77.4310  222.6500 C   0  0  0  0  0  0  0  0  0  0  0  0
  139.0040   78.7350  223.1060 C   0  0  0  0  0  0  0  0  0  0  0  0
  140.2260   79.3740  223.2070 C   0  0  0  0  0  0  0  0  0  0  0  0
  140.3160   80.6920  223.6730 C   0  0  0  0  0  0  0  0  0  0  0  0
  141.6070   81.2150  223.7260 C   0  0  0  0  0  0  0  0  0  0  0  0
  142.7170   80.4880  223.3480 C   0  0  0  0  0  0  0  0  0  0  0  0
  142.5910   79.2040  222.8990 C   0  0  0  0  0  0  0  0  0  0  0  0
  141.3360   78.6510  222.8310 C   0  0  0  0  0  0  0  0  0  0  0  0
  141.2160   77.4080  222.3960 N   0  0  0  0  0  0  0  0  0  0  0  0
  141.4190   75.7370  220.2820 H   0  0  0  0  0  0  0  0  0  0  0  0
  139.9182   73.1092  220.5871 H   0  0  0  0  0  0  0  0  0  0  0  0
  140.7250   73.6645  219.0910 H   0  0  0  0  0  0  0  0  0  0  0  0
  144.0880   71.7542  219.1333 H   0  0  0  0  0  0  0  0  0  0  0  0
  143.9212   73.1395  218.0731 H   0  0  0  0  0  0  0  0  0  0  0  0
  146.0866   73.8457  218.7678 H   0  0  0  0  0  0  0  0  0  0  0  0
  146.0000   71.8780  220.8450 H   0  0  0  0  0  0  0  0  0  0  0  0
  145.2208   73.6420  221.6989 H   0  0  0  0  0  0  0  0  0  0  0  0
  146.0088   74.9962  220.9379 H   0  0  0  0  0  0  0  0  0  0  0  0
  143.5484   75.3895  221.2417 H   0  0  0  0  0  0  0  0  0  0  0  0
  144.5682   76.4213  219.3552 H   0  0  0  0  0  0  0  0  0  0  0  0
  143.6712   75.1046  218.4142 H   0  0  0  0  0  0  0  0  0  0  0  0
  142.3535   76.3525  217.3984 H   0  0  0  0  0  0  0  0  0  0  0  0
  143.7556   78.4455  218.5053 H   0  0  0  0  0  0  0  0  0  0  0  0
  142.6925   78.8701  217.1723 H   0  0  0  0  0  0  0  0  0  0  0  0
  142.4299   79.4927  220.0484 H   0  0  0  0  0  0  0  0  0  0  0  0
  141.4809   80.1558  218.6989 H   0  0  0  0  0  0  0  0  0  0  0  0
  140.8908   77.7883  220.4846 H   0  0  0  0  0  0  0  0  0  0  0  0
  139.7438   78.8600  219.7330 H   0  0  0  0  0  0  0  0  0  0  0  0
  140.0249   76.4856  218.5860 H   0  0  0  0  0  0  0  0  0  0  0  0
  140.1748   77.7914  217.4583 H   0  0  0  0  0  0  0  0  0  0  0  0
  137.8961   76.9351  222.5736 H   0  0  0  0  0  0  0  0  0  0  0  0
  138.0965   79.2832  223.3993 H   0  0  0  0  0  0  0  0  0  0  0  0
  139.4318   81.2723  223.9753 H   0  0  0  0  0  0  0  0  0  0  0  0
  141.7460   82.2462  224.0826 H   0  0  0  0  0  0  0  0  0  0  0  0
  143.7146   80.9474  223.4089 H   0  0  0  0  0  0  0  0  0  0  0  0
  143.4766   78.6251  222.5981 H   0  0  0  0  0  0  0  0  0  0  0  0
  1  2  2  0
  2  3  1  0
  3  4  1  0
  4  5  1  0
  5  6  2  0
  5  7  1  0
  7  8  1  0
  8  9  1  0
  9 10  1  0
  9 11  1  0
 11 12  1  0
 12 13  1  0
 13 14  1  0
 14 15  1  0
 15 16  1  0
 16 17  1  0
 17 18  1  0
 18 19  1  0
  2 20  1  0
 20 21  2  0
 21 22  1  0
 22 23  2  0
 23 24  1  0
 24 25  2  0
 25 26  1  0
 26 27  2  0
 27 28  1  0
 28 29  2  0
 12  7  1  0
 19 15  1  0
 29 20  1  0
 28 23  1  0
  3 30  1  0
  4 31  1  0
  4 32  1  0
  8 33  1  0
  8 34  1  0
  9 35  1  6
 10 36  1  0
 11 37  1  0
 11 38  1  0
 12 39  1  1
 13 40  1  0
 13 41  1  0
 15 42  1  0
 16 43  1  0
 16 44  1  0
 17 45  1  0
 17 46  1  0
 18 47  1  0
 18 48  1  0
 19 49  1  0
 19 50  1  0
 21 51  1  0
 22 52  1  0
 24 53  1  0
 25 54  1  0
 26 55  1  0
 27 56  1  0
M  END
>  <smiles>  (23) 
O=C(NCC(=O)N1C[C@H](O)C[C@H]1COC1CCCC1)c1ccc2ccccc2n1

>  <score_type>  (23) 
oracle

>  <origin>  (23) 
autodockgpu

>  <m_score__min__energy>  (23) 
-8.5500000000000007

>  <m_primary>  (23) 
energy

>  <rmsd>  (23) 
7.502495810903885

>  <m_score__min__rmsd>  (23) 
7.502495810903885

>  <meeko>  (23) 
{"free_energy": -7.17, "intermolecular_energy": -9.55, "internal_energy": -3.52, "cluster_size": 33, "cluster_id": 4, "rank_in_cluster": 8}

>  <energy>  (23) 
-7.18

>  <cluster_rmsd>  (23) 
0.2

>  <cluster>  (23) 
4

$$$$

     RDKit          3D

 56 59  0  0  0  0  0  0  0  0999 V2000
  140.6830   71.2550  221.2980 O   0  0  0  0  0  0  0  0  0  0  0  0
  140.2690   71.8980  222.3190 C   0  0  0  0  0  0  0  0  0  0  0  0
  139.9600   73.2800  222.1860 N   0  0  0  0  0  0  0  0  0  0  0  0
  140.0950   73.9980  220.9330 C   0  0  0  0  0  0  0  0  0  0  0  0
  140.6850   75.3230  221.2170 C   0  0  0  0  0  0  0  0  0  0  0  0
  140.5910   75.7800  222.3840 O   0  0  0  0  0  0  0  0  0  0  0  0
  141.3210   76.0020  220.1470 N   0  0  0  0  0  0  0  0  0  0  0  0
  141.3410   75.7110  218.7270 C   0  0  0  0  0  0  0  0  0  0  0  0
  142.7350   76.1830  218.2920 C   0  0  2  0  0  0  0  0  0  0  0  0
  143.4980   75.1010  217.8570 O   0  0  0  0  0  0  0  0  0  0  0  0
  143.3490   76.7570  219.5560 C   0  0  0  0  0  0  0  0  0  0  0  0
  142.1570   77.2460  220.2700 C   0  0  1  0  0  0  0  0  0  0  0  0
  141.3950   78.4070  219.7980 C   0  0  0  0  0  0  0  0  0  0  0  0
  141.4630   79.5140  220.5520 O   0  0  0  0  0  0  0  0  0  0  0  0
  140.6600   79.6780  221.6250 C   0  0  0  0  0  0  0  0  0  0  0  0
  140.9230   81.0750  222.1960 C   0  0  0  0  0  0  0  0  0  0  0  0
  142.2040   80.9130  222.9830 C   0  0  0  0  0  0  0  0  0  0  0  0
  142.5050   79.4270  223.0360 C   0  0  0  0  0  0  0  0  0  0  0  0
  141.1300   78.8330  222.8160 C   0  0  0  0  0  0  0  0  0  0  0  0
  140.1200   71.2150  223.5960 C   0  0  0  0  0  0  0  0  0  0  0  0
  139.4870   69.9820  223.6440 C   0  0  0  0  0  0  0  0  0  0  0  0
  139.3840   69.3970  224.8970 C   0  0  0  0  0  0  0  0  0  0  0  0
  139.8770   69.9930  226.0440 C   0  0  0  0  0  0  0  0  0  0  0  0
  139.7550   69.3700  227.2920 C   0  0  0  0  0  0  0  0  0  0  0  0
  140.2950   70.0790  228.3630 C   0  0  0  0  0  0  0  0  0  0  0  0
  140.9060   71.3060  228.2070 C   0  0  0  0  0  0  0  0  0  0  0  0
  141.0070   71.8830  226.9740 C   0  0  0  0  0  0  0  0  0  0  0  0
  140.4880   71.2170  225.8900 C   0  0  0  0  0  0  0  0  0  0  0  0
  140.5870   71.7770  224.6970 N   0  0  0  0  0  0  0  0  0  0  0  0
  139.6250   73.7630  223.0510 H   0  0  0  0  0  0  0  0  0  0  0  0
  140.7518   73.4369  220.2520 H   0  0  0  0  0  0  0  0  0  0  0  0
  139.1105   74.1164  220.4568 H   0  0  0  0  0  0  0  0  0  0  0  0
  141.2141   74.6339  218.5433 H   0  0  0  0  0  0  0  0  0  0  0  0
  140.5270   76.2029  218.1743 H   0  0  0  0  0  0  0  0  0  0  0  0
  142.6901   76.9081  217.4660 H   0  0  0  0  0  0  0  0  0  0  0  0
  144.4700   75.3040  217.8850 H   0  0  0  0  0  0  0  0  0  0  0  0
  143.8737   75.9825  220.1347 H   0  0  0  0  0  0  0  0  0  0  0  0
  144.1089   77.5309  219.3723 H   0  0  0  0  0  0  0  0  0  0  0  0
  142.4505   77.6514  221.2495 H   0  0  0  0  0  0  0  0  0  0  0  0
  141.7641   78.6633  218.7940 H   0  0  0  0  0  0  0  0  0  0  0  0
  140.3403   78.0962  219.8315 H   0  0  0  0  0  0  0  0  0  0  0  0
  139.6383   79.4498  221.2875 H   0  0  0  0  0  0  0  0  0  0  0  0
  141.0509   81.8101  221.3877 H   0  0  0  0  0  0  0  0  0  0  0  0
  140.0905   81.4438  222.8132 H   0  0  0  0  0  0  0  0  0  0  0  0
  143.0251   81.4475  222.4829 H   0  0  0  0  0  0  0  0  0  0  0  0
  142.0987   81.3293  223.9957 H   0  0  0  0  0  0  0  0  0  0  0  0
  143.2033   79.1297  222.2398 H   0  0  0  0  0  0  0  0  0  0  0  0
  142.9910   79.1006  223.9673 H   0  0  0  0  0  0  0  0  0  0  0  0
  141.1833   77.7641  222.5620 H   0  0  0  0  0  0  0  0  0  0  0  0
  140.4677   78.8621  223.6938 H   0  0  0  0  0  0  0  0  0  0  0  0
  139.0897   69.4963  222.7406 H   0  0  0  0  0  0  0  0  0  0  0  0
  138.8896   68.4181  224.9825 H   0  0  0  0  0  0  0  0  0  0  0  0
  139.2681   68.3917  227.4178 H   0  0  0  0  0  0  0  0  0  0  0  0
  140.2317   69.6438  229.3713 H   0  0  0  0  0  0  0  0  0  0  0  0
  141.3163   71.8251  229.0858 H   0  0  0  0  0  0  0  0  0  0  0  0
  141.4941   72.8615  226.8507 H   0  0  0  0  0  0  0  0  0  0  0  0
  1  2  2  0
  2  3  1  0
  3  4  1  0
  4  5  1  0
  5  6  2  0
  5  7  1  0
  7  8  1  0
  8  9  1  0
  9 10  1  0
  9 11  1  0
 11 12  1  0
 12 13  1  0
 13 14  1  0
 14 15  1  0
 15 16  1  0
 16 17  1  0
 17 18  1  0
 18 19  1  0
  2 20  1  0
 20 21  2  0
 21 22  1  0
 22 23  2  0
 23 24  1  0
 24 25  2  0
 25 26  1  0
 26 27  2  0
 27 28  1  0
 28 29  2  0
 12  7  1  0
 19 15  1  0
 29 20  1  0
 28 23  1  0
  3 30  1  0
  4 31  1  0
  4 32  1  0
  8 33  1  0
  8 34  1  0
  9 35  1  6
 10 36  1  0
 11 37  1  0
 11 38  1  0
 12 39  1  1
 13 40  1  0
 13 41  1  0
 15 42  1  0
 16 43  1  0
 16 44  1  0
 17 45  1  0
 17 46  1  0
 18 47  1  0
 18 48  1  0
 19 49  1  0
 19 50  1  0
 21 51  1  0
 22 52  1  0
 24 53  1  0
 25 54  1  0
 26 55  1  0
 27 56  1  0
M  END
>  <smiles>  (24) 
O=C(NCC(=O)N1C[C@H](O)C[C@H]1COC1CCCC1)c1ccc2ccccc2n1

>  <score_type>  (24) 
oracle

>  <origin>  (24) 
autodockgpu

>  <m_score__min__energy>  (24) 
-8.5500000000000007

>  <m_primary>  (24) 
energy

>  <rmsd>  (24) 
1.808812387927857

>  <m_score__min__rmsd>  (24) 
1.808812387927857

>  <meeko>  (24) 
{"free_energy": -8.45, "intermolecular_energy": -10.84, "internal_energy": -1.98, "cluster_size": 14, "cluster_id": 1, "rank_in_cluster": 3}

>  <energy>  (24) 
-7.17

>  <cluster_rmsd>  (24) 
0.5

>  <cluster>  (24) 
4

$$$$

     RDKit          3D

 56 59  0  0  0  0  0  0  0  0999 V2000
  137.2240   76.2040  222.4450 O   0  0  0  0  0  0  0  0  0  0  0  0
  138.4900   76.3600  222.4510 C   0  0  0  0  0  0  0  0  0  0  0  0
  139.3250   75.2370  222.1960 N   0  0  0  0  0  0  0  0  0  0  0  0
  138.8000   73.9120  221.9270 C   0  0  0  0  0  0  0  0  0  0  0  0
  139.8510   72.9220  222.2390 C   0  0  0  0  0  0  0  0  0  0  0  0
  141.0480   73.3030  222.2380 O   0  0  0  0  0  0  0  0  0  0  0  0
  139.4410   71.5940  222.5190 N   0  0  0  0  0  0  0  0  0  0  0  0
  139.8160   70.3420  221.8930 C   0  0  0  0  0  0  0  0  0  0  0  0
  138.5380   69.4990  222.0010 C   0  0  2  0  0  0  0  0  0  0  0  0
  138.0310   69.2250  220.7320 O   0  0  0  0  0  0  0  0  0  0  0  0
  137.5640   70.3880  222.7520 C   0  0  0  0  0  0  0  0  0  0  0  0
  138.4750   71.1820  223.5950 C   0  0  1  0  0  0  0  0  0  0  0  0
  139.2050   70.5840  224.7190 C   0  0  0  0  0  0  0  0  0  0  0  0
  139.8280   71.4360  225.5470 O   0  0  0  0  0  0  0  0  0  0  0  0
  141.0740   71.1830  226.0000 C   0  0  0  0  0  0  0  0  0  0  0  0
  141.0580   69.8050  226.6680 C   0  0  0  0  0  0  0  0  0  0  0  0
  140.4470   70.0650  228.0270 C   0  0  0  0  0  0  0  0  0  0  0  0
  140.3500   71.5690  228.1880 C   0  0  0  0  0  0  0  0  0  0  0  0
  141.4150   72.0450  227.2230 C   0  0  0  0  0  0  0  0  0  0  0  0
  139.0590   77.6730  222.7180 C   0  0  0  0  0  0  0  0  0  0  0  0
  138.2180   78.7600  222.9040 C   0  0  0  0  0  0  0  0  0  0  0  0
  138.8370   79.9760  223.1530 C   0  0  0  0  0  0  0  0  0  0  0  0
  140.2110   80.1170  223.2150 C   0  0  0  0  0  0  0  0  0  0  0  0
  140.7990   81.3620  223.4690 C   0  0  0  0  0  0  0  0  0  0  0  0
  142.1930   81.3620  223.5060 C   0  0  0  0  0  0  0  0  0  0  0  0
  142.9390   80.2200  223.3060 C   0  0  0  0  0  0  0  0  0  0  0  0
  142.3310   79.0220  223.0600 C   0  0  0  0  0  0  0  0  0  0  0  0
  140.9590   78.9780  223.0160 C   0  0  0  0  0  0  0  0  0  0  0  0
  140.3710   77.8170  222.7780 N   0  0  0  0  0  0  0  0  0  0  0  0
  140.3550   75.4150  222.2130 H   0  0  0  0  0  0  0  0  0  0  0  0
  137.9170   73.7274  222.5565 H   0  0  0  0  0  0  0  0  0  0  0  0
  138.5048   73.8297  220.8706 H   0  0  0  0  0  0  0  0  0  0  0  0
  140.0991   70.4961  220.8413 H   0  0  0  0  0  0  0  0  0  0  0  0
  140.6874   69.8668  222.3671 H   0  0  0  0  0  0  0  0  0  0  0  0
  138.7156   68.5350  222.5002 H   0  0  0  0  0  0  0  0  0  0  0  0
  137.5230   69.9960  220.3660 H   0  0  0  0  0  0  0  0  0  0  0  0
  136.9933   71.0289  222.0638 H   0  0  0  0  0  0  0  0  0  0  0  0
  136.7993   69.8354  223.3176 H   0  0  0  0  0  0  0  0  0  0  0  0
  137.9002   71.9229  224.1701 H   0  0  0  0  0  0  0  0  0  0  0  0
  138.4849   70.0044  225.3152 H   0  0  0  0  0  0  0  0  0  0  0  0
  140.0053   69.9839  224.2613 H   0  0  0  0  0  0  0  0  0  0  0  0
  141.7515   71.3265  225.1453 H   0  0  0  0  0  0  0  0  0  0  0  0
  140.4433   69.0980  226.0916 H   0  0  0  0  0  0  0  0  0  0  0  0
  142.0592   69.3540  226.7329 H   0  0  0  0  0  0  0  0  0  0  0  0
  139.4455   69.6135  228.0837 H   0  0  0  0  0  0  0  0  0  0  0  0
  141.0617   69.6233  228.8251 H   0  0  0  0  0  0  0  0  0  0  0  0
  139.3546   71.9403  227.9030 H   0  0  0  0  0  0  0  0  0  0  0  0
  140.4916   71.9196  229.2210 H   0  0  0  0  0  0  0  0  0  0  0  0
  141.3175   73.1188  227.0052 H   0  0  0  0  0  0  0  0  0  0  0  0
  142.4480   71.9431  227.5872 H   0  0  0  0  0  0  0  0  0  0  0  0
  137.1233   78.6634  222.8568 H   0  0  0  0  0  0  0  0  0  0  0  0
  138.2085   80.8654  223.3076 H   0  0  0  0  0  0  0  0  0  0  0  0
  140.2046   82.2738  223.6278 H   0  0  0  0  0  0  0  0  0  0  0  0
  142.7172   82.3090  223.7022 H   0  0  0  0  0  0  0  0  0  0  0  0
  144.0370   80.2743  223.3450 H   0  0  0  0  0  0  0  0  0  0  0  0
  142.9275   78.1117  222.9005 H   0  0  0  0  0  0  0  0  0  0  0  0
  1  2  2  0
  2  3  1  0
  3  4  1  0
  4  5  1  0
  5  6  2  0
  5  7  1  0
  7  8  1  0
  8  9  1  0
  9 10  1  0
  9 11  1  0
 11 12  1  0
 12 13  1  0
 13 14  1  0
 14 15  1  0
 15 16  1  0
 16 17  1  0
 17 18  1  0
 18 19  1  0
  2 20  1  0
 20 21  2  0
 21 22  1  0
 22 23  2  0
 23 24  1  0
 24 25  2  0
 25 26  1  0
 26 27  2  0
 27 28  1  0
 28 29  2  0
 12  7  1  0
 19 15  1  0
 29 20  1  0
 28 23  1  0
  3 30  1  0
  4 31  1  0
  4 32  1  0
  8 33  1  0
  8 34  1  0
  9 35  1  1
 10 36  1  0
 11 37  1  0
 11 38  1  0
 12 39  1  1
 13 40  1  0
 13 41  1  0
 15 42  1  0
 16 43  1  0
 16 44  1  0
 17 45  1  0
 17 46  1  0
 18 47  1  0
 18 48  1  0
 19 49  1  0
 19 50  1  0
 21 51  1  0
 22 52  1  0
 24 53  1  0
 25 54  1  0
 26 55  1  0
 27 56  1  0
M  END
>  <smiles>  (25) 
O=C(NCC(=O)N1C[C@H](O)C[C@H]1COC1CCCC1)c1ccc2ccccc2n1

>  <score_type>  (25) 
oracle

>  <origin>  (25) 
autodockgpu

>  <m_score__min__energy>  (25) 
-8.5500000000000007

>  <m_primary>  (25) 
energy

>  <rmsd>  (25) 
8.384055033696113

>  <m_score__min__rmsd>  (25) 
8.384055033696113

>  <meeko>  (25) 
{"free_energy": -7.55, "intermolecular_energy": -9.94, "internal_energy": -2.27, "cluster_size": 1, "cluster_id": 3, "rank_in_cluster": 1}

>  <energy>  (25) 
-7.16

>  <cluster_rmsd>  (25) 
0.49

>  <cluster>  (25) 
4

$$$$

     RDKit          3D

 56 59  0  0  0  0  0  0  0  0999 V2000
  139.1240   73.0780  221.5900 O   0  0  0  0  0  0  0  0  0  0  0  0
  140.1340   72.5190  222.1320 C   0  0  0  0  0  0  0  0  0  0  0  0
  141.4090   72.6460  221.5130 N   0  0  0  0  0  0  0  0  0  0  0  0
  141.6150   73.3890  220.2840 C   0  0  0  0  0  0  0  0  0  0  0  0
  142.2070   74.6990  220.6270 C   0  0  0  0  0  0  0  0  0  0  0  0
  143.4550   74.8280  220.5500 O   0  0  0  0  0  0  0  0  0  0  0  0
  141.3260   75.7350  221.0260 N   0  0  0  0  0  0  0  0  0  0  0  0
  140.8380   76.1000  222.3420 C   0  0  0  0  0  0  0  0  0  0  0  0
  139.4220   76.6190  222.0600 C   0  0  2  0  0  0  0  0  0  0  0  0
  138.4750   75.7900  222.6600 O   0  0  0  0  0  0  0  0  0  0  0  0
  139.2830   76.5320  220.5500 C   0  0  0  0  0  0  0  0  0  0  0  0
  140.6750   76.7350  220.1120 C   0  0  1  0  0  0  0  0  0  0  0  0
  141.3430   78.0350  220.2400 C   0  0  0  0  0  0  0  0  0  0  0  0
  140.8330   78.8820  221.1460 O   0  0  0  0  0  0  0  0  0  0  0  0
  141.5540   79.9260  221.6110 C   0  0  0  0  0  0  0  0  0  0  0  0
  142.5850   79.3770  222.6010 C   0  0  0  0  0  0  0  0  0  0  0  0
  141.7910   79.1570  223.8710 C   0  0  0  0  0  0  0  0  0  0  0  0
  140.4280   79.7840  223.6540 C   0  0  0  0  0  0  0  0  0  0  0  0
  140.7310   80.7970  222.5700 C   0  0  0  0  0  0  0  0  0  0  0  0
  139.9710   71.7630  223.3650 C   0  0  0  0  0  0  0  0  0  0  0  0
  139.1300   70.6600  223.3870 C   0  0  0  0  0  0  0  0  0  0  0  0
  139.0280   69.9940  224.5990 C   0  0  0  0  0  0  0  0  0  0  0  0
  139.7150   70.3910  225.7310 C   0  0  0  0  0  0  0  0  0  0  0  0
  139.5870   69.6930  226.9380 C   0  0  0  0  0  0  0  0  0  0  0  0
  140.3350   70.2000  227.9990 C   0  0  0  0  0  0  0  0  0  0  0  0
  141.1440   71.3100  227.8710 C   0  0  0  0  0  0  0  0  0  0  0  0
  141.2450   71.9660  226.6780 C   0  0  0  0  0  0  0  0  0  0  0  0
  140.5240   71.4990  225.6070 C   0  0  0  0  0  0  0  0  0  0  0  0
  140.6230   72.1360  224.4520 N   0  0  0  0  0  0  0  0  0  0  0  0
  142.2040   72.1690  221.9950 H   0  0  0  0  0  0  0  0  0  0  0  0
  142.2976   72.8338  219.6238 H   0  0  0  0  0  0  0  0  0  0  0  0
  140.6572   73.5311  219.7621 H   0  0  0  0  0  0  0  0  0  0  0  0
  140.8120   75.2259  223.0093 H   0  0  0  0  0  0  0  0  0  0  0  0
  141.4755   76.8398  222.8483 H   0  0  0  0  0  0  0  0  0  0  0  0
  139.2657   77.6355  222.4502 H   0  0  0  0  0  0  0  0  0  0  0  0
  138.8150   74.8630  222.7670 H   0  0  0  0  0  0  0  0  0  0  0  0
  138.9035   75.5478  220.2379 H   0  0  0  0  0  0  0  0  0  0  0  0
  138.5702   77.2534  220.1240 H   0  0  0  0  0  0  0  0  0  0  0  0
  140.7372   76.6435  219.0176 H   0  0  0  0  0  0  0  0  0  0  0  0
  142.3921   77.8466  220.5117 H   0  0  0  0  0  0  0  0  0  0  0  0
  141.2055   78.5306  219.2676 H   0  0  0  0  0  0  0  0  0  0  0  0
  141.9315   80.4627  220.7281 H   0  0  0  0  0  0  0  0  0  0  0  0
  143.0112   78.4304  222.2372 H   0  0  0  0  0  0  0  0  0  0  0  0
  143.4369   80.0575  222.7464 H   0  0  0  0  0  0  0  0  0  0  0  0
  141.6846   78.0801  224.0686 H   0  0  0  0  0  0  0  0  0  0  0  0
  142.2988   79.6095  224.7355 H   0  0  0  0  0  0  0  0  0  0  0  0
  139.6927   79.0397  223.3143 H   0  0  0  0  0  0  0  0  0  0  0  0
  139.9842   80.2180  224.5621 H   0  0  0  0  0  0  0  0  0  0  0  0
  139.8129   81.1722  222.0942 H   0  0  0  0  0  0  0  0  0  0  0  0
  141.2386   81.7088  222.9178 H   0  0  0  0  0  0  0  0  0  0  0  0
  138.5762   70.3327  222.4947 H   0  0  0  0  0  0  0  0  0  0  0  0
  138.3728   69.1127  224.6623 H   0  0  0  0  0  0  0  0  0  0  0  0
  138.9422   68.8078  227.0414 H   0  0  0  0  0  0  0  0  0  0  0  0
  140.2782   69.6961  228.9751 H   0  0  0  0  0  0  0  0  0  0  0  0
  141.7141   71.6706  228.7399 H   0  0  0  0  0  0  0  0  0  0  0  0
  141.8909   72.8507  226.5769 H   0  0  0  0  0  0  0  0  0  0  0  0
  1  2  2  0
  2  3  1  0
  3  4  1  0
  4  5  1  0
  5  6  2  0
  5  7  1  0
  7  8  1  0
  8  9  1  0
  9 10  1  0
  9 11  1  0
 11 12  1  0
 12 13  1  0
 13 14  1  0
 14 15  1  0
 15 16  1  0
 16 17  1  0
 17 18  1  0
 18 19  1  0
  2 20  1  0
 20 21  2  0
 21 22  1  0
 22 23  2  0
 23 24  1  0
 24 25  2  0
 25 26  1  0
 26 27  2  0
 27 28  1  0
 28 29  2  0
 12  7  1  0
 19 15  1  0
 29 20  1  0
 28 23  1  0
  3 30  1  0
  4 31  1  0
  4 32  1  0
  8 33  1  0
  8 34  1  0
  9 35  1  1
 10 36  1  0
 11 37  1  0
 11 38  1  0
 12 39  1  6
 13 40  1  0
 13 41  1  0
 15 42  1  0
 16 43  1  0
 16 44  1  0
 17 45  1  0
 17 46  1  0
 18 47  1  0
 18 48  1  0
 19 49  1  0
 19 50  1  0
 21 51  1  0
 22 52  1  0
 24 53  1  0
 25 54  1  0
 26 55  1  0
 27 56  1  0
M  END
>  <smiles>  (26) 
O=C(NCC(=O)N1C[C@H](O)C[C@H]1COC1CCCC1)c1ccc2ccccc2n1

>  <score_type>  (26) 
oracle

>  <origin>  (26) 
autodockgpu

>  <m_score__min__energy>  (26) 
-8.5500000000000007

>  <m_primary>  (26) 
energy

>  <rmsd>  (26) 
2.8056847816453114

>  <m_score__min__rmsd>  (26) 
2.8056847816453114

>  <meeko>  (26) 
{"free_energy": -7.37, "intermolecular_energy": -9.75, "internal_energy": -2.68, "cluster_size": 14, "cluster_id": 1, "rank_in_cluster": 13}

>  <energy>  (26) 
-7.12

>  <cluster_rmsd>  (26) 
0.23

>  <cluster>  (26) 
4

$$$$

     RDKit          3D

 56 59  0  0  0  0  0  0  0  0999 V2000
  140.6600   71.2530  221.2860 O   0  0  0  0  0  0  0  0  0  0  0  0
  140.2950   71.8970  222.3240 C   0  0  0  0  0  0  0  0  0  0  0  0
  140.0130   73.2870  222.2110 N   0  0  0  0  0  0  0  0  0  0  0  0
  140.1230   74.0120  220.9600 C   0  0  0  0  0  0  0  0  0  0  0  0
  140.5920   75.3810  221.2550 C   0  0  0  0  0  0  0  0  0  0  0  0
  140.3490   75.8630  222.3900 O   0  0  0  0  0  0  0  0  0  0  0  0
  141.2900   76.0720  220.2320 N   0  0  0  0  0  0  0  0  0  0  0  0
  141.3210   75.8500  218.8000 C   0  0  0  0  0  0  0  0  0  0  0  0
  142.7490   76.2570  218.4130 C   0  0  2  0  0  0  0  0  0  0  0  0
  143.4550   75.1530  217.9370 O   0  0  0  0  0  0  0  0  0  0  0  0
  143.3710   76.7300  219.7140 C   0  0  0  0  0  0  0  0  0  0  0  0
  142.1960   77.2550  220.4320 C   0  0  1  0  0  0  0  0  0  0  0  0
  141.5150   78.4820  220.0050 C   0  0  0  0  0  0  0  0  0  0  0  0
  141.0070   79.2530  220.9770 O   0  0  0  0  0  0  0  0  0  0  0  0
  141.7780   80.1460  221.6360 C   0  0  0  0  0  0  0  0  0  0  0  0
  142.5440   79.3890  222.7250 C   0  0  0  0  0  0  0  0  0  0  0  0
  141.5270   79.2140  223.8310 C   0  0  0  0  0  0  0  0  0  0  0  0
  140.3190   80.0510  223.4590 C   0  0  0  0  0  0  0  0  0  0  0  0
  140.9350   81.0710  222.5240 C   0  0  0  0  0  0  0  0  0  0  0  0
  140.1720   71.2070  223.6010 C   0  0  0  0  0  0  0  0  0  0  0  0
  139.5630   69.9620  223.6510 C   0  0  0  0  0  0  0  0  0  0  0  0
  139.4850   69.3710  224.9030 C   0  0  0  0  0  0  0  0  0  0  0  0
  139.9780   69.9730  226.0460 C   0  0  0  0  0  0  0  0  0  0  0  0
  139.8810   69.3440  227.2940 C   0  0  0  0  0  0  0  0  0  0  0  0
  140.4180   70.0600  228.3620 C   0  0  0  0  0  0  0  0  0  0  0  0
  141.0040   71.2990  228.2030 C   0  0  0  0  0  0  0  0  0  0  0  0
  141.0810   71.8820  226.9710 C   0  0  0  0  0  0  0  0  0  0  0  0
  140.5630   71.2090  225.8910 C   0  0  0  0  0  0  0  0  0  0  0  0
  140.6390   71.7750  224.6980 N   0  0  0  0  0  0  0  0  0  0  0  0
  139.7180   73.7700  223.0900 H   0  0  0  0  0  0  0  0  0  0  0  0
  140.8432   73.5067  220.2997 H   0  0  0  0  0  0  0  0  0  0  0  0
  139.1458   74.0473  220.4562 H   0  0  0  0  0  0  0  0  0  0  0  0
  141.1335   74.7929  218.5606 H   0  0  0  0  0  0  0  0  0  0  0  0
  140.5492   76.4169  218.2588 H   0  0  0  0  0  0  0  0  0  0  0  0
  142.7638   77.0230  217.6237 H   0  0  0  0  0  0  0  0  0  0  0  0
  144.4350   75.3110  217.9520 H   0  0  0  0  0  0  0  0  0  0  0  0
  143.8370   75.8977  220.2618 H   0  0  0  0  0  0  0  0  0  0  0  0
  144.1792   77.4645  219.5820 H   0  0  0  0  0  0  0  0  0  0  0  0
  142.4929   77.5927  221.4359 H   0  0  0  0  0  0  0  0  0  0  0  0
  142.2401   79.0881  219.4421 H   0  0  0  0  0  0  0  0  0  0  0  0
  140.6482   78.1448  219.4177 H   0  0  0  0  0  0  0  0  0  0  0  0
  142.3686   80.6723  220.8717 H   0  0  0  0  0  0  0  0  0  0  0  0
  142.8900   78.4131  222.3536 H   0  0  0  0  0  0  0  0  0  0  0  0
  143.4456   79.9235  223.0587 H   0  0  0  0  0  0  0  0  0  0  0  0
  141.2410   78.1553  223.9171 H   0  0  0  0  0  0  0  0  0  0  0  0
  141.9414   79.5316  224.7992 H   0  0  0  0  0  0  0  0  0  0  0  0
  139.5541   79.4478  222.9480 H   0  0  0  0  0  0  0  0  0  0  0  0
  139.7955   80.4909  224.3207 H   0  0  0  0  0  0  0  0  0  0  0  0
  140.1696   81.6072  221.9438 H   0  0  0  0  0  0  0  0  0  0  0  0
  141.4983   81.8741  223.0217 H   0  0  0  0  0  0  0  0  0  0  0  0
  139.1651   69.4720  222.7501 H   0  0  0  0  0  0  0  0  0  0  0  0
  139.0112   68.3821  224.9905 H   0  0  0  0  0  0  0  0  0  0  0  0
  139.4145   68.3560  227.4217 H   0  0  0  0  0  0  0  0  0  0  0  0
  140.3731   69.6210  229.3696 H   0  0  0  0  0  0  0  0  0  0  0  0
  141.4138   71.8230  229.0790 H   0  0  0  0  0  0  0  0  0  0  0  0
  141.5480   72.8700  226.8456 H   0  0  0  0  0  0  0  0  0  0  0  0
  1  2  2  0
  2  3  1  0
  3  4  1  0
  4  5  1  0
  5  6  2  0
  5  7  1  0
  7  8  1  0
  8  9  1  0
  9 10  1  0
  9 11  1  0
 11 12  1  0
 12 13  1  0
 13 14  1  0
 14 15  1  0
 15 16  1  0
 16 17  1  0
 17 18  1  0
 18 19  1  0
  2 20  1  0
 20 21  2  0
 21 22  1  0
 22 23  2  0
 23 24  1  0
 24 25  2  0
 25 26  1  0
 26 27  2  0
 27 28  1  0
 28 29  2  0
 12  7  1  0
 19 15  1  0
 29 20  1  0
 28 23  1  0
  3 30  1  0
  4 31  1  0
  4 32  1  0
  8 33  1  0
  8 34  1  0
  9 35  1  6
 10 36  1  0
 11 37  1  0
 11 38  1  0
 12 39  1  1
 13 40  1  0
 13 41  1  0
 15 42  1  0
 16 43  1  0
 16 44  1  0
 17 45  1  0
 17 46  1  0
 18 47  1  0
 18 48  1  0
 19 49  1  0
 19 50  1  0
 21 51  1  0
 22 52  1  0
 24 53  1  0
 25 54  1  0
 26 55  1  0
 27 56  1  0
M  END
>  <smiles>  (27) 
O=C(NCC(=O)N1C[C@H](O)C[C@H]1COC1CCCC1)c1ccc2ccccc2n1

>  <score_type>  (27) 
oracle

>  <origin>  (27) 
autodockgpu

>  <m_score__min__energy>  (27) 
-8.5500000000000007

>  <m_primary>  (27) 
energy

>  <rmsd>  (27) 
1.8522003067392918

>  <m_score__min__rmsd>  (27) 
1.8522003067392918

>  <meeko>  (27) 
{"free_energy": -8.51, "intermolecular_energy": -10.9, "internal_energy": -2.01, "cluster_size": 14, "cluster_id": 1, "rank_in_cluster": 2}

>  <energy>  (27) 
-7.11

>  <cluster_rmsd>  (27) 
0.69

>  <cluster>  (27) 
4

$$$$

     RDKit          3D

 56 59  0  0  0  0  0  0  0  0999 V2000
  138.8350   75.1960  221.9590 O   0  0  0  0  0  0  0  0  0  0  0  0
  139.9640   75.7710  221.8140 C   0  0  0  0  0  0  0  0  0  0  0  0
  141.0080   75.0800  221.1400 N   0  0  0  0  0  0  0  0  0  0  0  0
  140.8480   73.7420  220.6040 C   0  0  0  0  0  0  0  0  0  0  0  0
  142.0890   72.9840  220.8660 C   0  0  0  0  0  0  0  0  0  0  0  0
  142.0330   71.9970  221.6420 O   0  0  0  0  0  0  0  0  0  0  0  0
  143.2750   73.4230  220.2240 N   0  0  0  0  0  0  0  0  0  0  0  0
  144.1040   72.7670  219.2320 C   0  0  0  0  0  0  0  0  0  0  0  0
  145.5160   73.2650  219.5710 C   0  0  2  0  0  0  0  0  0  0  0  0
  146.3170   72.2030  219.9870 O   0  0  0  0  0  0  0  0  0  0  0  0
  145.3080   74.2230  220.7300 C   0  0  0  0  0  0  0  0  0  0  0  0
  143.9590   74.7430  220.4480 C   0  0  1  0  0  0  0  0  0  0  0  0
  143.6960   75.6390  219.3160 C   0  0  0  0  0  0  0  0  0  0  0  0
  142.9210   76.7040  219.5650 O   0  0  0  0  0  0  0  0  0  0  0  0
  142.7060   77.6470  218.6220 C   0  0  0  0  0  0  0  0  0  0  0  0
  141.9250   78.7910  219.2750 C   0  0  0  0  0  0  0  0  0  0  0  0
  140.5000   78.2840  219.3150 C   0  0  0  0  0  0  0  0  0  0  0  0
  140.4630   77.0050  218.5000 C   0  0  0  0  0  0  0  0  0  0  0  0
  141.6620   77.1900  217.5950 C   0  0  0  0  0  0  0  0  0  0  0  0
  140.1670   77.1150  222.3370 C   0  0  0  0  0  0  0  0  0  0  0  0
  139.0770   77.8520  222.7750 C   0  0  0  0  0  0  0  0  0  0  0  0
  139.3540   79.1220  223.2580 C   0  0  0  0  0  0  0  0  0  0  0  0
  140.6350   79.6420  223.3070 C   0  0  0  0  0  0  0  0  0  0  0  0
  140.8740   80.9290  223.8020 C   0  0  0  0  0  0  0  0  0  0  0  0
  142.2100   81.3270  223.7950 C   0  0  0  0  0  0  0  0  0  0  0  0
  143.2240   80.5130  223.3340 C   0  0  0  0  0  0  0  0  0  0  0  0
  142.9520   79.2620  222.8580 C   0  0  0  0  0  0  0  0  0  0  0  0
  141.6480   78.8310  222.8470 C   0  0  0  0  0  0  0  0  0  0  0  0
  141.3870   77.6190  222.3860 N   0  0  0  0  0  0  0  0  0  0  0  0
  141.9150   75.5940  221.0460 H   0  0  0  0  0  0  0  0  0  0  0  0
  139.9982   73.2445  221.0941 H   0  0  0  0  0  0  0  0  0  0  0  0
  140.6544   73.7885  219.5222 H   0  0  0  0  0  0  0  0  0  0  0  0
  144.0388   71.6728  219.3244 H   0  0  0  0  0  0  0  0  0  0  0  0
  143.8025   72.9945  218.1989 H   0  0  0  0  0  0  0  0  0  0  0  0
  146.0111   73.7326  218.7071 H   0  0  0  0  0  0  0  0  0  0  0  0
  145.9970   71.8170  220.8450 H   0  0  0  0  0  0  0  0  0  0  0  0
  145.3416   73.6975  221.6958 H   0  0  0  0  0  0  0  0  0  0  0  0
  146.0799   75.0027  220.8094 H   0  0  0  0  0  0  0  0  0  0  0  0
  143.6485   75.4269  221.2516 H   0  0  0  0  0  0  0  0  0  0  0  0
  144.6652   76.0089  218.9501 H   0  0  0  0  0  0  0  0  0  0  0  0
  143.1348   75.0335  218.5891 H   0  0  0  0  0  0  0  0  0  0  0  0
  143.6887   77.8842  218.1884 H   0  0  0  0  0  0  0  0  0  0  0  0
  142.2982   78.9897  220.2905 H   0  0  0  0  0  0  0  0  0  0  0  0
  142.0223   79.7386  218.7250 H   0  0  0  0  0  0  0  0  0  0  0  0
  140.2006   78.0793  220.3535 H   0  0  0  0  0  0  0  0  0  0  0  0
  139.8050   79.0317  218.9052 H   0  0  0  0  0  0  0  0  0  0  0  0
  140.5755   76.1173  219.1398 H   0  0  0  0  0  0  0  0  0  0  0  0
  139.5167   76.8419  217.9635 H   0  0  0  0  0  0  0  0  0  0  0  0
  141.9544   76.2482  217.1077 H   0  0  0  0  0  0  0  0  0  0  0  0
  141.5050   77.8831  216.7554 H   0  0  0  0  0  0  0  0  0  0  0  0
  138.0526   77.4526  222.7412 H   0  0  0  0  0  0  0  0  0  0  0  0
  138.5197   79.7423  223.6174 H   0  0  0  0  0  0  0  0  0  0  0  0
  140.0665   81.5792  224.1698 H   0  0  0  0  0  0  0  0  0  0  0  0
  142.4655   82.3285  224.1715 H   0  0  0  0  0  0  0  0  0  0  0  0
  144.2625   80.8753  223.3499 H   0  0  0  0  0  0  0  0  0  0  0  0
  143.7608   78.6130  222.4910 H   0  0  0  0  0  0  0  0  0  0  0  0
  1  2  2  0
  2  3  1  0
  3  4  1  0
  4  5  1  0
  5  6  2  0
  5  7  1  0
  7  8  1  0
  8  9  1  0
  9 10  1  0
  9 11  1  0
 11 12  1  0
 12 13  1  0
 13 14  1  0
 14 15  1  0
 15 16  1  0
 16 17  1  0
 17 18  1  0
 18 19  1  0
  2 20  1  0
 20 21  2  0
 21 22  1  0
 22 23  2  0
 23 24  1  0
 24 25  2  0
 25 26  1  0
 26 27  2  0
 27 28  1  0
 28 29  2  0
 12  7  1  0
 19 15  1  0
 29 20  1  0
 28 23  1  0
  3 30  1  0
  4 31  1  0
  4 32  1  0
  8 33  1  0
  8 34  1  0
  9 35  1  6
 10 36  1  0
 11 37  1  0
 11 38  1  0
 12 39  1  1
 13 40  1  0
 13 41  1  0
 15 42  1  0
 16 43  1  0
 16 44  1  0
 17 45  1  0
 17 46  1  0
 18 47  1  0
 18 48  1  0
 19 49  1  0
 19 50  1  0
 21 51  1  0
 22 52  1  0
 24 53  1  0
 25 54  1  0
 26 55  1  0
 27 56  1  0
M  END
>  <smiles>  (28) 
O=C(NCC(=O)N1C[C@H](O)C[C@H]1COC1CCCC1)c1ccc2ccccc2n1

>  <score_type>  (28) 
oracle

>  <origin>  (28) 
autodockgpu

>  <m_score__min__energy>  (28) 
-8.5500000000000007

>  <m_primary>  (28) 
energy

>  <rmsd>  (28) 
7.654742406578957

>  <m_score__min__rmsd>  (28) 
7.654742406578957

>  <meeko>  (28) 
{"free_energy": -6.99, "intermolecular_energy": -9.38, "internal_energy": -3.67, "cluster_size": 33, "cluster_id": 4, "rank_in_cluster": 20}

>  <energy>  (28) 
-7.08

>  <cluster_rmsd>  (28) 
0.74

>  <cluster>  (28) 
4

$$$$

     RDKit          3D

 56 59  0  0  0  0  0  0  0  0999 V2000
  138.9660   74.8820  222.1620 O   0  0  0  0  0  0  0  0  0  0  0  0
  140.0640   75.5140  222.0220 C   0  0  0  0  0  0  0  0  0  0  0  0
  141.2090   74.8150  221.5500 N   0  0  0  0  0  0  0  0  0  0  0  0
  141.1850   73.4030  221.2160 C   0  0  0  0  0  0  0  0  0  0  0  0
  141.7870   73.2320  219.8770 C   0  0  0  0  0  0  0  0  0  0  0  0
  141.0720   72.7600  218.9580 O   0  0  0  0  0  0  0  0  0  0  0  0
  143.1440   73.6090  219.7130 N   0  0  0  0  0  0  0  0  0  0  0  0
  144.0970   73.2640  218.6780 C   0  0  0  0  0  0  0  0  0  0  0  0
  145.4340   73.2220  219.4310 C   0  0  2  0  0  0  0  0  0  0  0  0
  145.9520   71.9290  219.4250 O   0  0  0  0  0  0  0  0  0  0  0  0
  145.0750   73.6150  220.8540 C   0  0  0  0  0  0  0  0  0  0  0  0
  143.9230   74.5060  220.6350 C   0  0  1  0  0  0  0  0  0  0  0  0
  144.0760   75.8330  220.0270 C   0  0  0  0  0  0  0  0  0  0  0  0
  142.9510   76.5370  219.8370 O   0  0  0  0  0  0  0  0  0  0  0  0
  142.7260   77.1950  218.6790 C   0  0  0  0  0  0  0  0  0  0  0  0
  142.1230   78.5590  219.0260 C   0  0  0  0  0  0  0  0  0  0  0  0
  140.6700   78.2520  219.3170 C   0  0  0  0  0  0  0  0  0  0  0  0
  140.4330   76.8100  218.9140 C   0  0  0  0  0  0  0  0  0  0  0  0
  141.5440   76.5910  217.9080 C   0  0  0  0  0  0  0  0  0  0  0  0
  140.1320   76.9320  222.3470 C   0  0  0  0  0  0  0  0  0  0  0  0
  138.9610   77.6420  222.5660 C   0  0  0  0  0  0  0  0  0  0  0  0
  139.1100   78.9870  222.8690 C   0  0  0  0  0  0  0  0  0  0  0  0
  140.3460   79.6030  222.9520 C   0  0  0  0  0  0  0  0  0  0  0  0
  140.4560   80.9640  223.2620 C   0  0  0  0  0  0  0  0  0  0  0  0
  141.7590   81.4570  223.3130 C   0  0  0  0  0  0  0  0  0  0  0  0
  142.8610   80.6610  223.0770 C   0  0  0  0  0  0  0  0  0  0  0  0
  142.7150   79.3370  222.7780 C   0  0  0  0  0  0  0  0  0  0  0  0
  141.4470   78.8120  222.7170 C   0  0  0  0  0  0  0  0  0  0  0  0
  141.3080   77.5290  222.4270 N   0  0  0  0  0  0  0  0  0  0  0  0
  142.0850   75.3770  221.4530 H   0  0  0  0  0  0  0  0  0  0  0  0
  141.7639   72.8352  221.9593 H   0  0  0  0  0  0  0  0  0  0  0  0
  140.1497   73.0313  221.2161 H   0  0  0  0  0  0  0  0  0  0  0  0
  143.8622   72.2842  218.2365 H   0  0  0  0  0  0  0  0  0  0  0  0
  144.0974   73.9745  217.8382 H   0  0  0  0  0  0  0  0  0  0  0  0
  146.1889   73.8812  218.9775 H   0  0  0  0  0  0  0  0  0  0  0  0
  145.9280   71.5200  220.3300 H   0  0  0  0  0  0  0  0  0  0  0  0
  144.7945   72.7368  221.4541 H   0  0  0  0  0  0  0  0  0  0  0  0
  145.9011   74.0813  221.4108 H   0  0  0  0  0  0  0  0  0  0  0  0
  143.5169   74.8337  221.6034 H   0  0  0  0  0  0  0  0  0  0  0  0
  144.7349   76.4254  220.6789 H   0  0  0  0  0  0  0  0  0  0  0  0
  144.4770   75.6473  219.0196 H   0  0  0  0  0  0  0  0  0  0  0  0
  143.6761   77.1853  218.1248 H   0  0  0  0  0  0  0  0  0  0  0  0
  142.6160   78.9915  219.9091 H   0  0  0  0  0  0  0  0  0  0  0  0
  142.2472   79.2953  218.2183 H   0  0  0  0  0  0  0  0  0  0  0  0
  140.4634   78.3835  220.3894 H   0  0  0  0  0  0  0  0  0  0  0  0
  140.0062   78.9297  218.7601 H   0  0  0  0  0  0  0  0  0  0  0  0
  140.5302   76.1312  219.7741 H   0  0  0  0  0  0  0  0  0  0  0  0
  139.4252   76.6146  218.5188 H   0  0  0  0  0  0  0  0  0  0  0  0
  141.6981   75.5226  217.6963 H   0  0  0  0  0  0  0  0  0  0  0  0
  141.3642   77.0320  216.9165 H   0  0  0  0  0  0  0  0  0  0  0  0
  137.9714   77.1659  222.5030 H   0  0  0  0  0  0  0  0  0  0  0  0
  138.2077   79.5893  223.0510 H   0  0  0  0  0  0  0  0  0  0  0  0
  139.5776   81.5984  223.4516 H   0  0  0  0  0  0  0  0  0  0  0  0
  141.9143   82.5198  223.5502 H   0  0  0  0  0  0  0  0  0  0  0  0
  143.8689   81.0983  223.1304 H   0  0  0  0  0  0  0  0  0  0  0  0
  143.5945   78.7037  222.5898 H   0  0  0  0  0  0  0  0  0  0  0  0
  1  2  2  0
  2  3  1  0
  3  4  1  0
  4  5  1  0
  5  6  2  0
  5  7  1  0
  7  8  1  0
  8  9  1  0
  9 10  1  0
  9 11  1  0
 11 12  1  0
 12 13  1  0
 13 14  1  0
 14 15  1  0
 15 16  1  0
 16 17  1  0
 17 18  1  0
 18 19  1  0
  2 20  1  0
 20 21  2  0
 21 22  1  0
 22 23  2  0
 23 24  1  0
 24 25  2  0
 25 26  1  0
 26 27  2  0
 27 28  1  0
 28 29  2  0
 12  7  1  0
 19 15  1  0
 29 20  1  0
 28 23  1  0
  3 30  1  0
  4 31  1  0
  4 32  1  0
  8 33  1  0
  8 34  1  0
  9 35  1  6
 10 36  1  0
 11 37  1  0
 11 38  1  0
 12 39  1  1
 13 40  1  0
 13 41  1  0
 15 42  1  0
 16 43  1  0
 16 44  1  0
 17 45  1  0
 17 46  1  0
 18 47  1  0
 18 48  1  0
 19 49  1  0
 19 50  1  0
 21 51  1  0
 22 52  1  0
 24 53  1  0
 25 54  1  0
 26 55  1  0
 27 56  1  0
M  END
>  <smiles>  (29) 
O=C(NCC(=O)N1C[C@H](O)C[C@H]1COC1CCCC1)c1ccc2ccccc2n1

>  <score_type>  (29) 
oracle

>  <origin>  (29) 
autodockgpu

>  <m_score__min__energy>  (29) 
-8.5500000000000007

>  <m_primary>  (29) 
energy

>  <rmsd>  (29) 
7.68936297073676

>  <m_score__min__rmsd>  (29) 
7.68936297073676

>  <meeko>  (29) 
{"free_energy": -6.58, "intermolecular_energy": -8.97, "internal_energy": -3.87, "cluster_size": 33, "cluster_id": 4, "rank_in_cluster": 30}

>  <energy>  (29) 
-7.08

>  <cluster_rmsd>  (29) 
0.54

>  <cluster>  (29) 
4

$$$$

     RDKit          3D

 56 59  0  0  0  0  0  0  0  0999 V2000
  139.0670   74.9050  222.2370 O   0  0  0  0  0  0  0  0  0  0  0  0
  140.1520   75.5490  222.0520 C   0  0  0  0  0  0  0  0  0  0  0  0
  141.2910   74.8560  221.5570 N   0  0  0  0  0  0  0  0  0  0  0  0
  141.2760   73.4390  221.2490 C   0  0  0  0  0  0  0  0  0  0  0  0
  141.8140   73.2530  219.8860 C   0  0  0  0  0  0  0  0  0  0  0  0
  141.0570   72.7700  219.0070 O   0  0  0  0  0  0  0  0  0  0  0  0
  143.1610   73.6300  219.6530 N   0  0  0  0  0  0  0  0  0  0  0  0
  144.0940   73.2030  218.6290 C   0  0  0  0  0  0  0  0  0  0  0  0
  145.4490   73.2470  219.3480 C   0  0  2  0  0  0  0  0  0  0  0  0
  145.9860   71.9650  219.4470 O   0  0  0  0  0  0  0  0  0  0  0  0
  145.1200   73.7640  220.7380 C   0  0  0  0  0  0  0  0  0  0  0  0
  143.9490   74.6170  220.4690 C   0  0  1  0  0  0  0  0  0  0  0  0
  144.0690   75.8840  219.7380 C   0  0  0  0  0  0  0  0  0  0  0  0
  143.0030   76.6970  219.7730 O   0  0  0  0  0  0  0  0  0  0  0  0
  142.7070   77.5060  218.7330 C   0  0  0  0  0  0  0  0  0  0  0  0
  141.7900   78.6180  219.2520 C   0  0  0  0  0  0  0  0  0  0  0  0
  140.4290   77.9620  219.3320 C   0  0  0  0  0  0  0  0  0  0  0  0
  140.5500   76.6090  218.6570 C   0  0  0  0  0  0  0  0  0  0  0  0
  141.7420   76.8300  217.7500 C   0  0  0  0  0  0  0  0  0  0  0  0
  140.2110   76.9740  222.3490 C   0  0  0  0  0  0  0  0  0  0  0  0
  139.0340   77.6850  222.5320 C   0  0  0  0  0  0  0  0  0  0  0  0
  139.1740   79.0360  222.8100 C   0  0  0  0  0  0  0  0  0  0  0  0
  140.4060   79.6570  222.9030 C   0  0  0  0  0  0  0  0  0  0  0  0
  140.5070   81.0240  223.1870 C   0  0  0  0  0  0  0  0  0  0  0  0
  141.8070   81.5220  223.2520 C   0  0  0  0  0  0  0  0  0  0  0  0
  142.9160   80.7250  223.0510 C   0  0  0  0  0  0  0  0  0  0  0  0
  142.7790   79.3950  222.7770 C   0  0  0  0  0  0  0  0  0  0  0  0
  141.5140   78.8650  222.7040 C   0  0  0  0  0  0  0  0  0  0  0  0
  141.3830   77.5750  222.4380 N   0  0  0  0  0  0  0  0  0  0  0  0
  142.1560   75.4280  221.4230 H   0  0  0  0  0  0  0  0  0  0  0  0
  141.9007   72.8948  221.9726 H   0  0  0  0  0  0  0  0  0  0  0  0
  140.2485   73.0504  221.3063 H   0  0  0  0  0  0  0  0  0  0  0  0
  143.8629   72.1840  218.2851 H   0  0  0  0  0  0  0  0  0  0  0  0
  144.0634   73.8332  217.7280 H   0  0  0  0  0  0  0  0  0  0  0  0
  146.1822   73.8716  218.8167 H   0  0  0  0  0  0  0  0  0  0  0  0
  145.9370   71.6180  220.3770 H   0  0  0  0  0  0  0  0  0  0  0  0
  144.8679   72.9409  221.4229 H   0  0  0  0  0  0  0  0  0  0  0  0
  145.9528   74.2897  221.2280 H   0  0  0  0  0  0  0  0  0  0  0  0
  143.5612   75.0264  221.4134 H   0  0  0  0  0  0  0  0  0  0  0  0
  144.9231   76.4340  220.1600 H   0  0  0  0  0  0  0  0  0  0  0  0
  144.1856   75.6012  218.6814 H   0  0  0  0  0  0  0  0  0  0  0  0
  143.6672   77.8047  218.2871 H   0  0  0  0  0  0  0  0  0  0  0  0
  142.1167   78.9631  220.2440 H   0  0  0  0  0  0  0  0  0  0  0  0
  141.7942   79.5072  218.6044 H   0  0  0  0  0  0  0  0  0  0  0  0
  140.1320   77.8347  220.3835 H   0  0  0  0  0  0  0  0  0  0  0  0
  139.6648   78.5805  218.8386 H   0  0  0  0  0  0  0  0  0  0  0  0
  140.7442   75.8108  219.3886 H   0  0  0  0  0  0  0  0  0  0  0  0
  139.6393   76.2873  218.1306 H   0  0  0  0  0  0  0  0  0  0  0  0
  142.1464   75.8804  217.3695 H   0  0  0  0  0  0  0  0  0  0  0  0
  141.5288   77.4093  216.8395 H   0  0  0  0  0  0  0  0  0  0  0  0
  138.0469   77.2048  222.4607 H   0  0  0  0  0  0  0  0  0  0  0  0
  138.2670   79.6392  222.9630 H   0  0  0  0  0  0  0  0  0  0  0  0
  139.6236   81.6596  223.3474 H   0  0  0  0  0  0  0  0  0  0  0  0
  141.9548   82.5897  223.4716 H   0  0  0  0  0  0  0  0  0  0  0  0
  143.9215   81.1668  223.1123 H   0  0  0  0  0  0  0  0  0  0  0  0
  143.6635   78.7606  222.6179 H   0  0  0  0  0  0  0  0  0  0  0  0
  1  2  2  0
  2  3  1  0
  3  4  1  0
  4  5  1  0
  5  6  2  0
  5  7  1  0
  7  8  1  0
  8  9  1  0
  9 10  1  0
  9 11  1  0
 11 12  1  0
 12 13  1  0
 13 14  1  0
 14 15  1  0
 15 16  1  0
 16 17  1  0
 17 18  1  0
 18 19  1  0
  2 20  1  0
 20 21  2  0
 21 22  1  0
 22 23  2  0
 23 24  1  0
 24 25  2  0
 25 26  1  0
 26 27  2  0
 27 28  1  0
 28 29  2  0
 12  7  1  0
 19 15  1  0
 29 20  1  0
 28 23  1  0
  3 30  1  0
  4 31  1  0
  4 32  1  0
  8 33  1  0
  8 34  1  0
  9 35  1  6
 10 36  1  0
 11 37  1  0
 11 38  1  0
 12 39  1  1
 13 40  1  0
 13 41  1  0
 15 42  1  0
 16 43  1  0
 16 44  1  0
 17 45  1  0
 17 46  1  0
 18 47  1  0
 18 48  1  0
 19 49  1  0
 19 50  1  0
 21 51  1  0
 22 52  1  0
 24 53  1  0
 25 54  1  0
 26 55  1  0
 27 56  1  0
M  END
>  <smiles>  (30) 
O=C(NCC(=O)N1C[C@H](O)C[C@H]1COC1CCCC1)c1ccc2ccccc2n1

>  <score_type>  (30) 
oracle

>  <origin>  (30) 
autodockgpu

>  <m_score__min__energy>  (30) 
-8.5500000000000007

>  <m_primary>  (30) 
energy

>  <rmsd>  (30) 
7.722465974543259

>  <m_score__min__rmsd>  (30) 
7.722465974543259

>  <meeko>  (30) 
{"free_energy": -6.76, "intermolecular_energy": -9.15, "internal_energy": -3.76, "cluster_size": 33, "cluster_id": 4, "rank_in_cluster": 27}

>  <energy>  (30) 
-7.07

>  <cluster_rmsd>  (30) 
0.57

>  <cluster>  (30) 
4

$$$$

     RDKit          3D

 56 59  0  0  0  0  0  0  0  0999 V2000
  139.9090   71.0160  221.2480 O   0  0  0  0  0  0  0  0  0  0  0  0
  139.7620   71.6790  222.3280 C   0  0  0  0  0  0  0  0  0  0  0  0
  139.5170   73.0780  222.2520 N   0  0  0  0  0  0  0  0  0  0  0  0
  139.4250   73.7920  220.9920 C   0  0  0  0  0  0  0  0  0  0  0  0
  140.3280   74.9600  221.0530 C   0  0  0  0  0  0  0  0  0  0  0  0
  141.4250   74.8980  220.4440 O   0  0  0  0  0  0  0  0  0  0  0  0
  139.8970   76.0850  221.8010 N   0  0  0  0  0  0  0  0  0  0  0  0
  138.7650   76.2450  222.6910 C   0  0  0  0  0  0  0  0  0  0  0  0
  138.3660   77.7140  222.4920 C   0  0  2  0  0  0  0  0  0  0  0  0
  137.0950   77.7970  221.9250 O   0  0  0  0  0  0  0  0  0  0  0  0
  139.3920   78.2510  221.5100 C   0  0  0  0  0  0  0  0  0  0  0  0
  140.5710   77.4290  221.8310 C   0  0  1  0  0  0  0  0  0  0  0  0
  141.3040   77.5900  223.0920 C   0  0  0  0  0  0  0  0  0  0  0  0
  141.5800   78.8480  223.4660 O   0  0  0  0  0  0  0  0  0  0  0  0
  142.5600   79.5570  222.8660 C   0  0  0  0  0  0  0  0  0  0  0  0
  143.1390   80.5250  223.9030 C   0  0  0  0  0  0  0  0  0  0  0  0
  142.1350   81.6550  223.9480 C   0  0  0  0  0  0  0  0  0  0  0  0
  141.1620   81.4290  222.8070 C   0  0  0  0  0  0  0  0  0  0  0  0
  141.9900   80.5750  221.8690 C   0  0  0  0  0  0  0  0  0  0  0  0
  139.8480   71.0010  223.6140 C   0  0  0  0  0  0  0  0  0  0  0  0
  139.4220   69.6860  223.7250 C   0  0  0  0  0  0  0  0  0  0  0  0
  139.5360   69.1110  224.9820 C   0  0  0  0  0  0  0  0  0  0  0  0
  140.0400   69.7940  226.0730 C   0  0  0  0  0  0  0  0  0  0  0  0
  140.1400   69.1790  227.3270 C   0  0  0  0  0  0  0  0  0  0  0  0
  140.6670   69.9800  228.3400 C   0  0  0  0  0  0  0  0  0  0  0  0
  141.0610   71.2840  228.1230 C   0  0  0  0  0  0  0  0  0  0  0  0
  140.9500   71.8500  226.8860 C   0  0  0  0  0  0  0  0  0  0  0  0
  140.4360   71.0950  225.8600 C   0  0  0  0  0  0  0  0  0  0  0  0
  140.3280   71.6460  224.6620 N   0  0  0  0  0  0  0  0  0  0  0  0
  139.4050   73.5760  223.1640 H   0  0  0  0  0  0  0  0  0  0  0  0
  139.7278   73.1306  220.1668 H   0  0  0  0  0  0  0  0  0  0  0  0
  138.3901   74.1220  220.8183 H   0  0  0  0  0  0  0  0  0  0  0  0
  137.9427   75.5713  222.4081 H   0  0  0  0  0  0  0  0  0  0  0  0
  139.0013   76.0005  223.7371 H   0  0  0  0  0  0  0  0  0  0  0  0
  138.3414   78.2718  223.4398 H   0  0  0  0  0  0  0  0  0  0  0  0
  136.8260   78.7400  221.7680 H   0  0  0  0  0  0  0  0  0  0  0  0
  139.0688   78.0996  220.4695 H   0  0  0  0  0  0  0  0  0  0  0  0
  139.5663   79.3339  221.5937 H   0  0  0  0  0  0  0  0  0  0  0  0
  141.3958   77.6776  221.1469 H   0  0  0  0  0  0  0  0  0  0  0  0
  140.7032   77.1282  223.8894 H   0  0  0  0  0  0  0  0  0  0  0  0
  142.2816   77.1145  222.9239 H   0  0  0  0  0  0  0  0  0  0  0  0
  143.2454   78.8233  222.4167 H   0  0  0  0  0  0  0  0  0  0  0  0
  143.2255   80.0392  224.8861 H   0  0  0  0  0  0  0  0  0  0  0  0
  144.1515   80.8679  223.6437 H   0  0  0  0  0  0  0  0  0  0  0  0
  141.5993   81.6464  224.9087 H   0  0  0  0  0  0  0  0  0  0  0  0
  142.6359   82.6294  223.8497 H   0  0  0  0  0  0  0  0  0  0  0  0
  140.2615   80.8961  223.1463 H   0  0  0  0  0  0  0  0  0  0  0  0
  140.7813   82.3553  222.3520 H   0  0  0  0  0  0  0  0  0  0  0  0
  141.3679   80.0905  221.1020 H   0  0  0  0  0  0  0  0  0  0  0  0
  142.7443   81.1248  221.2870 H   0  0  0  0  0  0  0  0  0  0  0  0
  139.0171   69.1311  222.8659 H   0  0  0  0  0  0  0  0  0  0  0  0
  139.2120   68.0684  225.1163 H   0  0  0  0  0  0  0  0  0  0  0  0
  139.8256   68.1393  227.5007 H   0  0  0  0  0  0  0  0  0  0  0  0
  140.7724   69.5560  229.3495 H   0  0  0  0  0  0  0  0  0  0  0  0
  141.4693   71.8745  228.9564 H   0  0  0  0  0  0  0  0  0  0  0  0
  141.2657   72.8896  226.7142 H   0  0  0  0  0  0  0  0  0  0  0  0
  1  2  2  0
  2  3  1  0
  3  4  1  0
  4  5  1  0
  5  6  2  0
  5  7  1  0
  7  8  1  0
  8  9  1  0
  9 10  1  0
  9 11  1  0
 11 12  1  0
 12 13  1  0
 13 14  1  0
 14 15  1  0
 15 16  1  0
 16 17  1  0
 17 18  1  0
 18 19  1  0
  2 20  1  0
 20 21  2  0
 21 22  1  0
 22 23  2  0
 23 24  1  0
 24 25  2  0
 25 26  1  0
 26 27  2  0
 27 28  1  0
 28 29  2  0
 12  7  1  0
 19 15  1  0
 29 20  1  0
 28 23  1  0
  3 30  1  0
  4 31  1  0
  4 32  1  0
  8 33  1  0
  8 34  1  0
  9 35  1  1
 10 36  1  0
 11 37  1  0
 11 38  1  0
 12 39  1  6
 13 40  1  0
 13 41  1  0
 15 42  1  0
 16 43  1  0
 16 44  1  0
 17 45  1  0
 17 46  1  0
 18 47  1  0
 18 48  1  0
 19 49  1  0
 19 50  1  0
 21 51  1  0
 22 52  1  0
 24 53  1  0
 25 54  1  0
 26 55  1  0
 27 56  1  0
M  END
>  <smiles>  (31) 
O=C(NCC(=O)N1C[C@H](O)C[C@H]1COC1CCCC1)c1ccc2ccccc2n1

>  <score_type>  (31) 
oracle

>  <origin>  (31) 
autodockgpu

>  <m_score__min__energy>  (31) 
-8.5500000000000007

>  <m_primary>  (31) 
energy

>  <rmsd>  (31) 
2.5456871821986695

>  <m_score__min__rmsd>  (31) 
2.5456871821986695

>  <meeko>  (31) 
{"free_energy": -8.06, "intermolecular_energy": -10.45, "internal_energy": -1.58, "cluster_size": 14, "cluster_id": 1, "rank_in_cluster": 6}

>  <energy>  (31) 
-7.05

>  <cluster_rmsd>  (31) 
0.88

>  <cluster>  (31) 
4

$$$$

     RDKit          3D

 56 59  0  0  0  0  0  0  0  0999 V2000
  139.0590   74.8260  222.3380 O   0  0  0  0  0  0  0  0  0  0  0  0
  140.0110   75.5540  221.9020 C   0  0  0  0  0  0  0  0  0  0  0  0
  140.9330   75.0010  220.9700 N   0  0  0  0  0  0  0  0  0  0  0  0
  140.8390   73.6370  220.4880 C   0  0  0  0  0  0  0  0  0  0  0  0
  142.0950   72.9360  220.8260 C   0  0  0  0  0  0  0  0  0  0  0  0
  142.0470   71.9910  221.6530 O   0  0  0  0  0  0  0  0  0  0  0  0
  143.2850   73.3790  220.1940 N   0  0  0  0  0  0  0  0  0  0  0  0
  144.1200   72.7310  219.2020 C   0  0  0  0  0  0  0  0  0  0  0  0
  145.5300   73.2250  219.5530 C   0  0  2  0  0  0  0  0  0  0  0  0
  146.3270   72.1580  219.9650 O   0  0  0  0  0  0  0  0  0  0  0  0
  145.3160   74.1730  220.7200 C   0  0  0  0  0  0  0  0  0  0  0  0
  143.9690   74.6960  220.4350 C   0  0  1  0  0  0  0  0  0  0  0  0
  143.7140   75.6020  219.3090 C   0  0  0  0  0  0  0  0  0  0  0  0
  142.6980   76.4650  219.4550 O   0  0  0  0  0  0  0  0  0  0  0  0
  141.9890   76.8960  218.3890 C   0  0  0  0  0  0  0  0  0  0  0  0
  142.8100   77.9830  217.6890 C   0  0  0  0  0  0  0  0  0  0  0  0
  142.5820   79.2150  218.5370 C   0  0  0  0  0  0  0  0  0  0  0  0
  141.4870   78.8730  219.5290 C   0  0  0  0  0  0  0  0  0  0  0  0
  140.7800   77.7380  218.8180 C   0  0  0  0  0  0  0  0  0  0  0  0
  140.1420   76.9300  222.3610 C   0  0  0  0  0  0  0  0  0  0  0  0
  139.0080   77.6420  222.7260 C   0  0  0  0  0  0  0  0  0  0  0  0
  139.2170   78.9450  223.1510 C   0  0  0  0  0  0  0  0  0  0  0  0
  140.4730   79.5200  223.2130 C   0  0  0  0  0  0  0  0  0  0  0  0
  140.6430   80.8400  223.6490 C   0  0  0  0  0  0  0  0  0  0  0  0
  141.9610   81.2940  223.6630 C   0  0  0  0  0  0  0  0  0  0  0  0
  143.0220   80.5010  223.2770 C   0  0  0  0  0  0  0  0  0  0  0  0
  142.8180   79.2180  222.8580 C   0  0  0  0  0  0  0  0  0  0  0  0
  141.5330   78.7310  222.8290 C   0  0  0  0  0  0  0  0  0  0  0  0
  141.3380   77.4880  222.4230 N   0  0  0  0  0  0  0  0  0  0  0  0
  141.6950   75.6380  220.6430 H   0  0  0  0  0  0  0  0  0  0  0  0
  139.9895   73.1304  220.9695 H   0  0  0  0  0  0  0  0  0  0  0  0
  140.6835   73.6305  219.3991 H   0  0  0  0  0  0  0  0  0  0  0  0
  144.0537   71.6362  219.2851 H   0  0  0  0  0  0  0  0  0  0  0  0
  143.8249   72.9676  218.1691 H   0  0  0  0  0  0  0  0  0  0  0  0
  146.0305   73.6999  218.6963 H   0  0  0  0  0  0  0  0  0  0  0  0
  146.0460   71.8120  220.8520 H   0  0  0  0  0  0  0  0  0  0  0  0
  145.3439   73.6388  221.6812 H   0  0  0  0  0  0  0  0  0  0  0  0
  146.0878   74.9515  220.8109 H   0  0  0  0  0  0  0  0  0  0  0  0
  143.6541   75.3720  221.2436 H   0  0  0  0  0  0  0  0  0  0  0  0
  144.6288   76.1883  219.1377 H   0  0  0  0  0  0  0  0  0  0  0  0
  143.4256   74.9511  218.4705 H   0  0  0  0  0  0  0  0  0  0  0  0
  141.7287   76.0004  217.8059 H   0  0  0  0  0  0  0  0  0  0  0  0
  143.8766   77.7148  217.6674 H   0  0  0  0  0  0  0  0  0  0  0  0
  142.5127   78.1294  216.6401 H   0  0  0  0  0  0  0  0  0  0  0  0
  143.5057   79.4824  219.0711 H   0  0  0  0  0  0  0  0  0  0  0  0
  142.2928   80.0735  217.9130 H   0  0  0  0  0  0  0  0  0  0  0  0
  141.9052   78.5454  220.4922 H   0  0  0  0  0  0  0  0  0  0  0  0
  140.8325   79.7194  219.7844 H   0  0  0  0  0  0  0  0  0  0  0  0
  140.1159   77.1823  219.4964 H   0  0  0  0  0  0  0  0  0  0  0  0
  140.1172   78.0480  217.9967 H   0  0  0  0  0  0  0  0  0  0  0  0
  138.0024   77.1985  222.6807 H   0  0  0  0  0  0  0  0  0  0  0  0
  138.3468   79.5469  223.4516 H   0  0  0  0  0  0  0  0  0  0  0  0
  139.7979   81.4726  223.9580 H   0  0  0  0  0  0  0  0  0  0  0  0
  142.1627   82.3233  223.9943 H   0  0  0  0  0  0  0  0  0  0  0  0
  144.0438   80.9072  223.3072 H   0  0  0  0  0  0  0  0  0  0  0  0
  143.6646   78.5868  222.5499 H   0  0  0  0  0  0  0  0  0  0  0  0
  1  2  2  0
  2  3  1  0
  3  4  1  0
  4  5  1  0
  5  6  2  0
  5  7  1  0
  7  8  1  0
  8  9  1  0
  9 10  1  0
  9 11  1  0
 11 12  1  0
 12 13  1  0
 13 14  1  0
 14 15  1  0
 15 16  1  0
 16 17  1  0
 17 18  1  0
 18 19  1  0
  2 20  1  0
 20 21  2  0
 21 22  1  0
 22 23  2  0
 23 24  1  0
 24 25  2  0
 25 26  1  0
 26 27  2  0
 27 28  1  0
 28 29  2  0
 12  7  1  0
 19 15  1  0
 29 20  1  0
 28 23  1  0
  3 30  1  0
  4 31  1  0
  4 32  1  0
  8 33  1  0
  8 34  1  0
  9 35  1  6
 10 36  1  0
 11 37  1  0
 11 38  1  0
 12 39  1  1
 13 40  1  0
 13 41  1  0
 15 42  1  0
 16 43  1  0
 16 44  1  0
 17 45  1  0
 17 46  1  0
 18 47  1  0
 18 48  1  0
 19 49  1  0
 19 50  1  0
 21 51  1  0
 22 52  1  0
 24 53  1  0
 25 54  1  0
 26 55  1  0
 27 56  1  0
M  END
>  <smiles>  (32) 
O=C(NCC(=O)N1C[C@H](O)C[C@H]1COC1CCCC1)c1ccc2ccccc2n1

>  <score_type>  (32) 
oracle

>  <origin>  (32) 
autodockgpu

>  <m_score__min__energy>  (32) 
-8.5500000000000007

>  <m_primary>  (32) 
energy

>  <rmsd>  (32) 
7.597494426384784

>  <m_score__min__rmsd>  (32) 
7.597494426384784

>  <meeko>  (32) 
{"free_energy": -7.24, "intermolecular_energy": -9.63, "internal_energy": -3.53, "cluster_size": 33, "cluster_id": 4, "rank_in_cluster": 4}

>  <energy>  (32) 
-7.05

>  <cluster_rmsd>  (32) 
0.72

>  <cluster>  (32) 
4

$$$$

     RDKit          3D

 56 59  0  0  0  0  0  0  0  0999 V2000
  140.6930   73.0790  222.6290 O   0  0  0  0  0  0  0  0  0  0  0  0
  139.8200   72.2530  223.0540 C   0  0  0  0  0  0  0  0  0  0  0  0
  138.5700   72.1600  222.3810 N   0  0  0  0  0  0  0  0  0  0  0  0
  138.2400   72.9680  221.2220 C   0  0  0  0  0  0  0  0  0  0  0  0
  138.1130   74.3740  221.6570 C   0  0  0  0  0  0  0  0  0  0  0  0
  137.0600   74.7230  222.2470 O   0  0  0  0  0  0  0  0  0  0  0  0
  139.1930   75.2490  221.3760 N   0  0  0  0  0  0  0  0  0  0  0  0
  140.1100   75.2820  220.2540 C   0  0  0  0  0  0  0  0  0  0  0  0
  141.4170   75.7830  220.8830 C   0  0  2  0  0  0  0  0  0  0  0  0
  142.3980   74.7960  220.8120 O   0  0  0  0  0  0  0  0  0  0  0  0
  141.0610   76.0360  222.3370 C   0  0  0  0  0  0  0  0  0  0  0  0
  139.6370   76.4000  222.2360 C   0  0  1  0  0  0  0  0  0  0  0  0
  139.2040   77.6670  221.6360 C   0  0  0  0  0  0  0  0  0  0  0  0
  139.7080   78.7860  222.1750 O   0  0  0  0  0  0  0  0  0  0  0  0
  140.6570   79.5040  221.5370 C   0  0  0  0  0  0  0  0  0  0  0  0
  142.0210   79.0480  222.0640 C   0  0  0  0  0  0  0  0  0  0  0  0
  142.1550   79.7600  223.3930 C   0  0  0  0  0  0  0  0  0  0  0  0
  141.0120   80.7520  223.4800 C   0  0  0  0  0  0  0  0  0  0  0  0
  140.6810   80.9610  222.0170 C   0  0  0  0  0  0  0  0  0  0  0  0
  140.1100   71.4220  224.2150 C   0  0  0  0  0  0  0  0  0  0  0  0
  141.0180   71.8660  225.1650 C   0  0  0  0  0  0  0  0  0  0  0  0
  141.2400   71.0180  226.2400 C   0  0  0  0  0  0  0  0  0  0  0  0
  140.6050   69.7970  226.3730 C   0  0  0  0  0  0  0  0  0  0  0  0
  140.8550   68.9680  227.4730 C   0  0  0  0  0  0  0  0  0  0  0  0
  140.1480   67.7670  227.4830 C   0  0  0  0  0  0  0  0  0  0  0  0
  139.2660   67.4190  226.4820 C   0  0  0  0  0  0  0  0  0  0  0  0
  139.0460   68.2530  225.4240 C   0  0  0  0  0  0  0  0  0  0  0  0
  139.7230   69.4470  225.3760 C   0  0  0  0  0  0  0  0  0  0  0  0
  139.5090   70.2540  224.3500 N   0  0  0  0  0  0  0  0  0  0  0  0
  137.8890   71.4680  222.7680 H   0  0  0  0  0  0  0  0  0  0  0  0
  139.0378   72.8822  220.4695 H   0  0  0  0  0  0  0  0  0  0  0  0
  137.2956   72.6227  220.7761 H   0  0  0  0  0  0  0  0  0  0  0  0
  140.2398   74.2791  219.8212 H   0  0  0  0  0  0  0  0  0  0  0  0
  139.7578   75.9173  219.4280 H   0  0  0  0  0  0  0  0  0  0  0  0
  141.8096   76.6748  220.3726 H   0  0  0  0  0  0  0  0  0  0  0  0
  142.1340   73.9800  221.3130 H   0  0  0  0  0  0  0  0  0  0  0  0
  141.2016   75.1319  222.9476 H   0  0  0  0  0  0  0  0  0  0  0  0
  141.6844   76.8009  222.8231 H   0  0  0  0  0  0  0  0  0  0  0  0
  139.2223   76.5641  223.2415 H   0  0  0  0  0  0  0  0  0  0  0  0
  139.4901   77.6491  220.5740 H   0  0  0  0  0  0  0  0  0  0  0  0
  138.1200   77.7193  221.8157 H   0  0  0  0  0  0  0  0  0  0  0  0
  140.4632   79.3894  220.4603 H   0  0  0  0  0  0  0  0  0  0  0  0
  142.0427   77.9568  222.2008 H   0  0  0  0  0  0  0  0  0  0  0  0
  142.8431   79.2834  221.3721 H   0  0  0  0  0  0  0  0  0  0  0  0
  142.0904   79.0355  224.2182 H   0  0  0  0  0  0  0  0  0  0  0  0
  143.1260   80.2713  223.4689 H   0  0  0  0  0  0  0  0  0  0  0  0
  140.1565   80.3321  224.0294 H   0  0  0  0  0  0  0  0  0  0  0  0
  141.2616   81.6774  224.0198 H   0  0  0  0  0  0  0  0  0  0  0  0
  139.7045   81.4500  221.8854 H   0  0  0  0  0  0  0  0  0  0  0  0
  141.3782   81.6158  221.4737 H   0  0  0  0  0  0  0  0  0  0  0  0
  141.5320   72.8340  225.0713 H   0  0  0  0  0  0  0  0  0  0  0  0
  141.9510   71.3299  227.0193 H   0  0  0  0  0  0  0  0  0  0  0  0
  141.5587   69.2446  228.2719 H   0  0  0  0  0  0  0  0  0  0  0  0
  140.2993   67.0706  228.3209 H   0  0  0  0  0  0  0  0  0  0  0  0
  138.7334   66.4581  226.5366 H   0  0  0  0  0  0  0  0  0  0  0  0
  138.3413   67.9746  224.6266 H   0  0  0  0  0  0  0  0  0  0  0  0
  1  2  2  0
  2  3  1  0
  3  4  1  0
  4  5  1  0
  5  6  2  0
  5  7  1  0
  7  8  1  0
  8  9  1  0
  9 10  1  0
  9 11  1  0
 11 12  1  0
 12 13  1  0
 13 14  1  0
 14 15  1  0
 15 16  1  0
 16 17  1  0
 17 18  1  0
 18 19  1  0
  2 20  1  0
 20 21  2  0
 21 22  1  0
 22 23  2  0
 23 24  1  0
 24 25  2  0
 25 26  1  0
 26 27  2  0
 27 28  1  0
 28 29  2  0
 12  7  1  0
 19 15  1  0
 29 20  1  0
 28 23  1  0
  3 30  1  0
  4 31  1  0
  4 32  1  0
  8 33  1  0
  8 34  1  0
  9 35  1  6
 10 36  1  0
 11 37  1  0
 11 38  1  0
 12 39  1  1
 13 40  1  0
 13 41  1  0
 15 42  1  0
 16 43  1  0
 16 44  1  0
 17 45  1  0
 17 46  1  0
 18 47  1  0
 18 48  1  0
 19 49  1  0
 19 50  1  0
 21 51  1  0
 22 52  1  0
 24 53  1  0
 25 54  1  0
 26 55  1  0
 27 56  1  0
M  END
>  <smiles>  (33) 
O=C(NCC(=O)N1C[C@H](O)C[C@H]1COC1CCCC1)c1ccc2ccccc2n1

>  <score_type>  (33) 
oracle

>  <origin>  (33) 
autodockgpu

>  <m_score__min__energy>  (33) 
-8.5500000000000007

>  <m_primary>  (33) 
energy

>  <rmsd>  (33) 
3.1976043092409285

>  <m_score__min__rmsd>  (33) 
3.1976043092409285

>  <meeko>  (33) 
{"free_energy": -6.87, "intermolecular_energy": -9.25, "internal_energy": -2.57, "cluster_size": 14, "cluster_id": 1, "rank_in_cluster": 14}

>  <energy>  (33) 
-7.04

>  <cluster_rmsd>  (33) 
0.59

>  <cluster>  (33) 
4

$$$$

     RDKit          3D

 56 59  0  0  0  0  0  0  0  0999 V2000
  140.6370   71.2290  221.2710 O   0  0  0  0  0  0  0  0  0  0  0  0
  140.2870   71.8810  222.3100 C   0  0  0  0  0  0  0  0  0  0  0  0
  140.0250   73.2740  222.1950 N   0  0  0  0  0  0  0  0  0  0  0  0
  140.1380   73.9940  220.9410 C   0  0  0  0  0  0  0  0  0  0  0  0
  140.5520   75.3820  221.2370 C   0  0  0  0  0  0  0  0  0  0  0  0
  140.2470   75.8690  222.3550 O   0  0  0  0  0  0  0  0  0  0  0  0
  141.2700   76.0820  220.2350 N   0  0  0  0  0  0  0  0  0  0  0  0
  141.3120   75.8870  218.7990 C   0  0  0  0  0  0  0  0  0  0  0  0
  142.7490   76.2800  218.4330 C   0  0  2  0  0  0  0  0  0  0  0  0
  143.4440   75.1760  217.9430 O   0  0  0  0  0  0  0  0  0  0  0  0
  143.3650   76.7190  219.7500 C   0  0  0  0  0  0  0  0  0  0  0  0
  142.1910   77.2470  220.4660 C   0  0  1  0  0  0  0  0  0  0  0  0
  141.5310   78.4920  220.0560 C   0  0  0  0  0  0  0  0  0  0  0  0
  141.4940   79.4760  220.9670 O   0  0  0  0  0  0  0  0  0  0  0  0
  141.0160   79.2590  222.2110 C   0  0  0  0  0  0  0  0  0  0  0  0
  140.5180   80.5990  222.7610 C   0  0  0  0  0  0  0  0  0  0  0  0
  141.7820   81.3050  223.2000 C   0  0  0  0  0  0  0  0  0  0  0  0
  142.9080   80.2940  223.1120 C   0  0  0  0  0  0  0  0  0  0  0  0
  142.1480   78.9880  223.2110 C   0  0  0  0  0  0  0  0  0  0  0  0
  140.1610   71.1960  223.5890 C   0  0  0  0  0  0  0  0  0  0  0  0
  139.5430   69.9550  223.6440 C   0  0  0  0  0  0  0  0  0  0  0  0
  139.4630   69.3690  224.8980 C   0  0  0  0  0  0  0  0  0  0  0  0
  139.9630   69.9700  226.0390 C   0  0  0  0  0  0  0  0  0  0  0  0
  139.8630   69.3460  227.2880 C   0  0  0  0  0  0  0  0  0  0  0  0
  140.4080   70.0620  228.3530 C   0  0  0  0  0  0  0  0  0  0  0  0
  141.0030   71.2950  228.1890 C   0  0  0  0  0  0  0  0  0  0  0  0
  141.0830   71.8740  226.9550 C   0  0  0  0  0  0  0  0  0  0  0  0
  140.5570   71.2020  225.8780 C   0  0  0  0  0  0  0  0  0  0  0  0
  140.6350   71.7630  224.6830 N   0  0  0  0  0  0  0  0  0  0  0  0
  139.7410   73.7630  223.0750 H   0  0  0  0  0  0  0  0  0  0  0  0
  140.8905   73.5101  220.3010 H   0  0  0  0  0  0  0  0  0  0  0  0
  139.1721   73.9912  220.4146 H   0  0  0  0  0  0  0  0  0  0  0  0
  141.1115   74.8375  218.5375 H   0  0  0  0  0  0  0  0  0  0  0  0
  140.5539   76.4757  218.2617 H   0  0  0  0  0  0  0  0  0  0  0  0
  142.7823   77.0602  217.6582 H   0  0  0  0  0  0  0  0  0  0  0  0
  144.4250   75.3300  217.9450 H   0  0  0  0  0  0  0  0  0  0  0  0
  143.8133   75.8695  220.2861 H   0  0  0  0  0  0  0  0  0  0  0  0
  144.1850   77.4439  219.6403 H   0  0  0  0  0  0  0  0  0  0  0  0
  142.4835   77.5613  221.4787 H   0  0  0  0  0  0  0  0  0  0  0  0
  142.0599   78.8752  219.1709 H   0  0  0  0  0  0  0  0  0  0  0  0
  140.4803   78.2202  219.8770 H   0  0  0  0  0  0  0  0  0  0  0  0
  140.2858   78.4408  222.1258 H   0  0  0  0  0  0  0  0  0  0  0  0
  139.9997   81.1743  221.9797 H   0  0  0  0  0  0  0  0  0  0  0  0
  139.7935   80.4783  223.5798 H   0  0  0  0  0  0  0  0  0  0  0  0
  141.9878   82.1582  222.5370 H   0  0  0  0  0  0  0  0  0  0  0  0
  141.6802   81.6908  224.2251 H   0  0  0  0  0  0  0  0  0  0  0  0
  143.4466   80.3743  222.1562 H   0  0  0  0  0  0  0  0  0  0  0  0
  143.6856   80.4202  223.8797 H   0  0  0  0  0  0  0  0  0  0  0  0
  142.7668   78.1318  222.9043 H   0  0  0  0  0  0  0  0  0  0  0  0
  141.8152   78.7225  224.2253 H   0  0  0  0  0  0  0  0  0  0  0  0
  139.1402   69.4648  222.7454 H   0  0  0  0  0  0  0  0  0  0  0  0
  138.9814   68.3843  224.9893 H   0  0  0  0  0  0  0  0  0  0  0  0
  139.3889   68.3622  227.4197 H   0  0  0  0  0  0  0  0  0  0  0  0
  140.3616   69.6268  229.3622 H   0  0  0  0  0  0  0  0  0  0  0  0
  141.4182   71.8185  229.0628 H   0  0  0  0  0  0  0  0  0  0  0  0
  141.5584   72.8575  226.8258 H   0  0  0  0  0  0  0  0  0  0  0  0
  1  2  2  0
  2  3  1  0
  3  4  1  0
  4  5  1  0
  5  6  2  0
  5  7  1  0
  7  8  1  0
  8  9  1  0
  9 10  1  0
  9 11  1  0
 11 12  1  0
 12 13  1  0
 13 14  1  0
 14 15  1  0
 15 16  1  0
 16 17  1  0
 17 18  1  0
 18 19  1  0
  2 20  1  0
 20 21  2  0
 21 22  1  0
 22 23  2  0
 23 24  1  0
 24 25  2  0
 25 26  1  0
 26 27  2  0
 27 28  1  0
 28 29  2  0
 12  7  1  0
 19 15  1  0
 29 20  1  0
 28 23  1  0
  3 30  1  0
  4 31  1  0
  4 32  1  0
  8 33  1  0
  8 34  1  0
  9 35  1  6
 10 36  1  0
 11 37  1  0
 11 38  1  0
 12 39  1  1
 13 40  1  0
 13 41  1  0
 15 42  1  0
 16 43  1  0
 16 44  1  0
 17 45  1  0
 17 46  1  0
 18 47  1  0
 18 48  1  0
 19 49  1  0
 19 50  1  0
 21 51  1  0
 22 52  1  0
 24 53  1  0
 25 54  1  0
 26 55  1  0
 27 56  1  0
M  END
>  <smiles>  (34) 
O=C(NCC(=O)N1C[C@H](O)C[C@H]1COC1CCCC1)c1ccc2ccccc2n1

>  <score_type>  (34) 
oracle

>  <origin>  (34) 
autodockgpu

>  <m_score__min__energy>  (34) 
-8.5500000000000007

>  <m_primary>  (34) 
energy

>  <rmsd>  (34) 
1.8576288354981731

>  <m_score__min__rmsd>  (34) 
1.8576288354981731

>  <meeko>  (34) 
{"free_energy": -8.55, "intermolecular_energy": -10.94, "internal_energy": -2.03, "cluster_size": 14, "cluster_id": 1, "rank_in_cluster": 1}

>  <energy>  (34) 
-7.02

>  <cluster_rmsd>  (34) 
0.38

>  <cluster>  (34) 
4

$$$$

     RDKit          3D

 56 59  0  0  0  0  0  0  0  0999 V2000
  138.7730   75.2150  221.8090 O   0  0  0  0  0  0  0  0  0  0  0  0
  139.9300   75.7510  221.7740 C   0  0  0  0  0  0  0  0  0  0  0  0
  141.0100   75.0230  221.2020 N   0  0  0  0  0  0  0  0  0  0  0  0
  140.8560   73.6900  220.6520 C   0  0  0  0  0  0  0  0  0  0  0  0
  142.1020   72.9360  220.9030 C   0  0  0  0  0  0  0  0  0  0  0  0
  142.0570   71.9550  221.6880 O   0  0  0  0  0  0  0  0  0  0  0  0
  143.2780   73.3710  220.2420 N   0  0  0  0  0  0  0  0  0  0  0  0
  144.0770   72.7220  219.2220 C   0  0  0  0  0  0  0  0  0  0  0  0
  145.5020   73.1970  219.5370 C   0  0  2  0  0  0  0  0  0  0  0  0
  146.2990   72.1190  219.9170 O   0  0  0  0  0  0  0  0  0  0  0  0
  145.3320   74.1390  220.7160 C   0  0  0  0  0  0  0  0  0  0  0  0
  143.9820   74.6790  220.4730 C   0  0  1  0  0  0  0  0  0  0  0  0
  143.7060   75.5960  219.3620 C   0  0  0  0  0  0  0  0  0  0  0  0
  142.9180   76.6460  219.6350 O   0  0  0  0  0  0  0  0  0  0  0  0
  142.7320   77.6340  218.7330 C   0  0  0  0  0  0  0  0  0  0  0  0
  141.8230   78.6870  219.3740 C   0  0  0  0  0  0  0  0  0  0  0  0
  140.4360   78.0970  219.2470 C   0  0  0  0  0  0  0  0  0  0  0  0
  140.5550   76.8740  218.3590 C   0  0  0  0  0  0  0  0  0  0  0  0
  141.8190   77.1850  217.5850 C   0  0  0  0  0  0  0  0  0  0  0  0
  140.1280   77.0880  222.3150 C   0  0  0  0  0  0  0  0  0  0  0  0
  139.0370   77.8090  222.7780 C   0  0  0  0  0  0  0  0  0  0  0  0
  139.3090   79.0740  223.2780 C   0  0  0  0  0  0  0  0  0  0  0  0
  140.5860   79.6030  223.3200 C   0  0  0  0  0  0  0  0  0  0  0  0
  140.8210   80.8840  223.8320 C   0  0  0  0  0  0  0  0  0  0  0  0
  142.1530   81.2940  223.8160 C   0  0  0  0  0  0  0  0  0  0  0  0
  143.1680   80.4960  223.3300 C   0  0  0  0  0  0  0  0  0  0  0  0
  142.9010   79.2510  222.8380 C   0  0  0  0  0  0  0  0  0  0  0  0
  141.6010   78.8080  222.8360 C   0  0  0  0  0  0  0  0  0  0  0  0
  141.3450   77.6020  222.3580 N   0  0  0  0  0  0  0  0  0  0  0  0
  141.9380   75.5050  221.1970 H   0  0  0  0  0  0  0  0  0  0  0  0
  140.0101   73.1826  221.1387 H   0  0  0  0  0  0  0  0  0  0  0  0
  140.6595   73.7470  219.5712 H   0  0  0  0  0  0  0  0  0  0  0  0
  144.0003   71.6273  219.2982 H   0  0  0  0  0  0  0  0  0  0  0  0
  143.7558   72.9705  218.1997 H   0  0  0  0  0  0  0  0  0  0  0  0
  145.9834   73.6726  218.6698 H   0  0  0  0  0  0  0  0  0  0  0  0
  146.0960   71.8240  220.8440 H   0  0  0  0  0  0  0  0  0  0  0  0
  145.3815   73.5978  221.6724 H   0  0  0  0  0  0  0  0  0  0  0  0
  146.1147   74.9084  220.7900 H   0  0  0  0  0  0  0  0  0  0  0  0
  143.6964   75.3521  221.2948 H   0  0  0  0  0  0  0  0  0  0  0  0
  144.6699   75.9859  219.0030 H   0  0  0  0  0  0  0  0  0  0  0  0
  143.1509   74.9995  218.6230 H   0  0  0  0  0  0  0  0  0  0  0  0
  143.7336   77.9549  218.4109 H   0  0  0  0  0  0  0  0  0  0  0  0
  142.0874   78.8412  220.4306 H   0  0  0  0  0  0  0  0  0  0  0  0
  141.9104   79.6722  218.8926 H   0  0  0  0  0  0  0  0  0  0  0  0
  140.0557   77.8088  220.2381 H   0  0  0  0  0  0  0  0  0  0  0  0
  139.7359   78.8283  218.8168 H   0  0  0  0  0  0  0  0  0  0  0  0
  140.6636   75.9548  218.9534 H   0  0  0  0  0  0  0  0  0  0  0  0
  139.6743   76.6922  217.7254 H   0  0  0  0  0  0  0  0  0  0  0  0
  142.2140   76.2946  217.0739 H   0  0  0  0  0  0  0  0  0  0  0  0
  141.6972   77.9201  216.7758 H   0  0  0  0  0  0  0  0  0  0  0  0
  138.0157   77.4013  222.7502 H   0  0  0  0  0  0  0  0  0  0  0  0
  138.4741   79.6817  223.6569 H   0  0  0  0  0  0  0  0  0  0  0  0
  140.0126   81.5215  224.2193 H   0  0  0  0  0  0  0  0  0  0  0  0
  142.4044   82.2915  224.2056 H   0  0  0  0  0  0  0  0  0  0  0  0
  144.2035   80.8669  223.3391 H   0  0  0  0  0  0  0  0  0  0  0  0
  143.7109   78.6152  222.4509 H   0  0  0  0  0  0  0  0  0  0  0  0
  1  2  2  0
  2  3  1  0
  3  4  1  0
  4  5  1  0
  5  6  2  0
  5  7  1  0
  7  8  1  0
  8  9  1  0
  9 10  1  0
  9 11  1  0
 11 12  1  0
 12 13  1  0
 13 14  1  0
 14 15  1  0
 15 16  1  0
 16 17  1  0
 17 18  1  0
 18 19  1  0
  2 20  1  0
 20 21  2  0
 21 22  1  0
 22 23  2  0
 23 24  1  0
 24 25  2  0
 25 26  1  0
 26 27  2  0
 27 28  1  0
 28 29  2  0
 12  7  1  0
 19 15  1  0
 29 20  1  0
 28 23  1  0
  3 30  1  0
  4 31  1  0
  4 32  1  0
  8 33  1  0
  8 34  1  0
  9 35  1  6
 10 36  1  0
 11 37  1  0
 11 38  1  0
 12 39  1  1
 13 40  1  0
 13 41  1  0
 15 42  1  0
 16 43  1  0
 16 44  1  0
 17 45  1  0
 17 46  1  0
 18 47  1  0
 18 48  1  0
 19 49  1  0
 19 50  1  0
 21 51  1  0
 22 52  1  0
 24 53  1  0
 25 54  1  0
 26 55  1  0
 27 56  1  0
M  END
>  <smiles>  (35) 
O=C(NCC(=O)N1C[C@H](O)C[C@H]1COC1CCCC1)c1ccc2ccccc2n1

>  <score_type>  (35) 
oracle

>  <origin>  (35) 
autodockgpu

>  <m_score__min__energy>  (35) 
-8.5500000000000007

>  <m_primary>  (35) 
energy

>  <rmsd>  (35) 
7.6362368657745

>  <m_score__min__rmsd>  (35) 
7.6362368657745

>  <meeko>  (35) 
{"free_energy": -7.02, "intermolecular_energy": -9.41, "internal_energy": -3.67, "cluster_size": 33, "cluster_id": 4, "rank_in_cluster": 18}

>  <energy>  (35) 
-7.0

>  <cluster_rmsd>  (35) 
0.38

>  <cluster>  (35) 
4

$$$$

     RDKit          3D

 56 59  0  0  0  0  0  0  0  0999 V2000
  139.5140   74.5120  222.6050 O   0  0  0  0  0  0  0  0  0  0  0  0
  140.0930   75.4020  221.8970 C   0  0  0  0  0  0  0  0  0  0  0  0
  140.7160   75.0170  220.6780 N   0  0  0  0  0  0  0  0  0  0  0  0
  140.7240   73.6480  220.1980 C   0  0  0  0  0  0  0  0  0  0  0  0
  141.9660   72.9980  220.6650 C   0  0  0  0  0  0  0  0  0  0  0  0
  141.8750   72.0870  221.5250 O   0  0  0  0  0  0  0  0  0  0  0  0
  143.1920   73.4480  220.1120 N   0  0  0  0  0  0  0  0  0  0  0  0
  144.0500   72.8440  219.1120 C   0  0  0  0  0  0  0  0  0  0  0  0
  145.4570   73.2740  219.5510 C   0  0  2  0  0  0  0  0  0  0  0  0
  146.2090   72.1600  219.9220 O   0  0  0  0  0  0  0  0  0  0  0  0
  145.2190   74.1490  220.7690 C   0  0  0  0  0  0  0  0  0  0  0  0
  143.8980   74.7270  220.4660 C   0  0  1  0  0  0  0  0  0  0  0  0
  143.7130   75.7120  219.3940 C   0  0  0  0  0  0  0  0  0  0  0  0
  142.7200   76.5970  219.5610 O   0  0  0  0  0  0  0  0  0  0  0  0
  142.6160   77.6880  218.7720 C   0  0  0  0  0  0  0  0  0  0  0  0
  141.7950   78.7360  219.5280 C   0  0  0  0  0  0  0  0  0  0  0  0
  140.3640   78.2780  219.3500 C   0  0  0  0  0  0  0  0  0  0  0  0
  140.3840   77.1520  218.3350 C   0  0  0  0  0  0  0  0  0  0  0  0
  141.6700   77.4410  217.5890 C   0  0  0  0  0  0  0  0  0  0  0  0
  140.1080   76.7880  222.3430 C   0  0  0  0  0  0  0  0  0  0  0  0
  138.9130   77.4210  222.6520 C   0  0  0  0  0  0  0  0  0  0  0  0
  139.0120   78.7400  223.0690 C   0  0  0  0  0  0  0  0  0  0  0  0
  140.2210   79.4030  223.1750 C   0  0  0  0  0  0  0  0  0  0  0  0
  140.2810   80.7360  223.6000 C   0  0  0  0  0  0  0  0  0  0  0  0
  141.5620   81.2810  223.6630 C   0  0  0  0  0  0  0  0  0  0  0  0
  142.6910   80.5610  223.3300 C   0  0  0  0  0  0  0  0  0  0  0  0
  142.5950   79.2630  222.9200 C   0  0  0  0  0  0  0  0  0  0  0  0
  141.3490   78.6870  222.8440 C   0  0  0  0  0  0  0  0  0  0  0  0
  141.2590   77.4290  222.4470 N   0  0  0  0  0  0  0  0  0  0  0  0
  141.1770   75.7820  220.1340 H   0  0  0  0  0  0  0  0  0  0  0  0
  139.8508   73.1098  220.5953 H   0  0  0  0  0  0  0  0  0  0  0  0
  140.6790   73.6322  219.0990 H   0  0  0  0  0  0  0  0  0  0  0  0
  143.9524   71.7484  219.1183 H   0  0  0  0  0  0  0  0  0  0  0  0
  143.8037   73.1567  218.0865 H   0  0  0  0  0  0  0  0  0  0  0  0
  146.0046   73.7898  218.7485 H   0  0  0  0  0  0  0  0  0  0  0  0
  146.0250   71.8900  220.8600 H   0  0  0  0  0  0  0  0  0  0  0  0
  145.1936   73.5525  221.6928 H   0  0  0  0  0  0  0  0  0  0  0  0
  146.0058   74.8980  220.9422 H   0  0  0  0  0  0  0  0  0  0  0  0
  143.5664   75.3575  221.3042 H   0  0  0  0  0  0  0  0  0  0  0  0
  144.6513   76.2772  219.2936 H   0  0  0  0  0  0  0  0  0  0  0  0
  143.4355   75.1267  218.5049 H   0  0  0  0  0  0  0  0  0  0  0  0
  143.6411   77.9590  218.4792 H   0  0  0  0  0  0  0  0  0  0  0  0
  142.0700   78.7545  220.5929 H   0  0  0  0  0  0  0  0  0  0  0  0
  141.9627   79.7564  219.1530 H   0  0  0  0  0  0  0  0  0  0  0  0
  139.9607   77.9168  220.3076 H   0  0  0  0  0  0  0  0  0  0  0  0
  139.7259   79.1057  219.0068 H   0  0  0  0  0  0  0  0  0  0  0  0
  140.4169   76.1685  218.8265 H   0  0  0  0  0  0  0  0  0  0  0  0
  139.4921   77.1114  217.6925 H   0  0  0  0  0  0  0  0  0  0  0  0
  141.9915   76.5818  216.9820 H   0  0  0  0  0  0  0  0  0  0  0  0
  141.6094   78.2666  216.8646 H   0  0  0  0  0  0  0  0  0  0  0  0
  137.9438   76.9070  222.5710 H   0  0  0  0  0  0  0  0  0  0  0  0
  138.0899   79.2817  223.3263 H   0  0  0  0  0  0  0  0  0  0  0  0
  139.3818   81.3114  223.8650 H   0  0  0  0  0  0  0  0  0  0  0  0
  141.6775   82.3247  223.9906 H   0  0  0  0  0  0  0  0  0  0  0  0
  143.6796   81.0388  223.3958 H   0  0  0  0  0  0  0  0  0  0  0  0
  143.4957   78.6895  222.6558 H   0  0  0  0  0  0  0  0  0  0  0  0
  1  2  2  0
  2  3  1  0
  3  4  1  0
  4  5  1  0
  5  6  2  0
  5  7  1  0
  7  8  1  0
  8  9  1  0
  9 10  1  0
  9 11  1  0
 11 12  1  0
 12 13  1  0
 13 14  1  0
 14 15  1  0
 15 16  1  0
 16 17  1  0
 17 18  1  0
 18 19  1  0
  2 20  1  0
 20 21  2  0
 21 22  1  0
 22 23  2  0
 23 24  1  0
 24 25  2  0
 25 26  1  0
 26 27  2  0
 27 28  1  0
 28 29  2  0
 12  7  1  0
 19 15  1  0
 29 20  1  0
 28 23  1  0
  3 30  1  0
  4 31  1  0
  4 32  1  0
  8 33  1  0
  8 34  1  0
  9 35  1  6
 10 36  1  0
 11 37  1  0
 11 38  1  0
 12 39  1  1
 13 40  1  0
 13 41  1  0
 15 42  1  0
 16 43  1  0
 16 44  1  0
 17 45  1  0
 17 46  1  0
 18 47  1  0
 18 48  1  0
 19 49  1  0
 19 50  1  0
 21 51  1  0
 22 52  1  0
 24 53  1  0
 25 54  1  0
 26 55  1  0
 27 56  1  0
M  END
>  <smiles>  (36) 
O=C(NCC(=O)N1C[C@H](O)C[C@H]1COC1CCCC1)c1ccc2ccccc2n1

>  <score_type>  (36) 
oracle

>  <origin>  (36) 
autodockgpu

>  <m_score__min__energy>  (36) 
-8.5500000000000007

>  <m_primary>  (36) 
energy

>  <rmsd>  (36) 
7.511317740590812

>  <m_score__min__rmsd>  (36) 
7.511317740590812

>  <meeko>  (36) 
{"free_energy": -7.04, "intermolecular_energy": -9.43, "internal_energy": -3.59, "cluster_size": 33, "cluster_id": 4, "rank_in_cluster": 17}

>  <energy>  (36) 
-6.99

>  <cluster_rmsd>  (36) 
0.37

>  <cluster>  (36) 
4

$$$$

     RDKit          3D

 56 59  0  0  0  0  0  0  0  0999 V2000
  139.5640   74.6840  222.6160 O   0  0  0  0  0  0  0  0  0  0  0  0
  140.1750   75.5480  221.9050 C   0  0  0  0  0  0  0  0  0  0  0  0
  140.7910   75.1340  220.6920 N   0  0  0  0  0  0  0  0  0  0  0  0
  140.7560   73.7620  220.2220 C   0  0  0  0  0  0  0  0  0  0  0  0
  141.9980   73.0890  220.6570 C   0  0  0  0  0  0  0  0  0  0  0  0
  141.9190   72.2140  221.5550 O   0  0  0  0  0  0  0  0  0  0  0  0
  143.2100   73.4780  220.0320 N   0  0  0  0  0  0  0  0  0  0  0  0
  144.0520   72.7680  219.0900 C   0  0  0  0  0  0  0  0  0  0  0  0
  145.4640   73.2480  219.4490 C   0  0  2  0  0  0  0  0  0  0  0  0
  146.2300   72.1860  219.9270 O   0  0  0  0  0  0  0  0  0  0  0  0
  145.2460   74.2550  220.5650 C   0  0  0  0  0  0  0  0  0  0  0  0
  143.9160   74.7910  220.2260 C   0  0  1  0  0  0  0  0  0  0  0  0
  143.7050   75.6480  219.0540 C   0  0  0  0  0  0  0  0  0  0  0  0
  142.8270   76.6520  219.1990 O   0  0  0  0  0  0  0  0  0  0  0  0
  142.3190   77.2950  218.1260 C   0  0  0  0  0  0  0  0  0  0  0  0
  142.7590   78.7600  218.2070 C   0  0  0  0  0  0  0  0  0  0  0  0
  141.8130   79.3700  219.2180 C   0  0  0  0  0  0  0  0  0  0  0  0
  140.7430   78.3340  219.5030 C   0  0  0  0  0  0  0  0  0  0  0  0
  140.8010   77.4870  218.2500 C   0  0  0  0  0  0  0  0  0  0  0  0
  140.2340   76.9370  222.3400 C   0  0  0  0  0  0  0  0  0  0  0  0
  139.0620   77.6020  222.6690 C   0  0  0  0  0  0  0  0  0  0  0  0
  139.2030   78.9210  223.0740 C   0  0  0  0  0  0  0  0  0  0  0  0
  140.4300   79.5540  223.1500 C   0  0  0  0  0  0  0  0  0  0  0  0
  140.5310   80.8880  223.5640 C   0  0  0  0  0  0  0  0  0  0  0  0
  141.8270   81.4010  223.5970 C   0  0  0  0  0  0  0  0  0  0  0  0
  142.9300   80.6510  223.2460 C   0  0  0  0  0  0  0  0  0  0  0  0
  142.7930   79.3520  222.8480 C   0  0  0  0  0  0  0  0  0  0  0  0
  141.5330   78.8070  222.8020 C   0  0  0  0  0  0  0  0  0  0  0  0
  141.4020   77.5490  222.4150 N   0  0  0  0  0  0  0  0  0  0  0  0
  141.2800   75.8790  220.1440 H   0  0  0  0  0  0  0  0  0  0  0  0
  139.8840   73.2450  220.6490 H   0  0  0  0  0  0  0  0  0  0  0  0
  140.6779   73.7397  219.1250 H   0  0  0  0  0  0  0  0  0  0  0  0
  143.9602   71.6798  219.2216 H   0  0  0  0  0  0  0  0  0  0  0  0
  143.7844   72.9629  218.0410 H   0  0  0  0  0  0  0  0  0  0  0  0
  145.9927   73.6712  218.5821 H   0  0  0  0  0  0  0  0  0  0  0  0
  145.9550   71.9200  220.8440 H   0  0  0  0  0  0  0  0  0  0  0  0
  145.2426   73.7670  221.5508 H   0  0  0  0  0  0  0  0  0  0  0  0
  146.0321   75.0212  220.6358 H   0  0  0  0  0  0  0  0  0  0  0  0
  143.5974   75.5104  220.9947 H   0  0  0  0  0  0  0  0  0  0  0  0
  144.6756   76.0889  218.7828 H   0  0  0  0  0  0  0  0  0  0  0  0
  143.2724   74.9905  218.2855 H   0  0  0  0  0  0  0  0  0  0  0  0
  142.6289   76.7186  217.2418 H   0  0  0  0  0  0  0  0  0  0  0  0
  143.8012   78.8370  218.5504 H   0  0  0  0  0  0  0  0  0  0  0  0
  142.7223   79.2680  217.2320 H   0  0  0  0  0  0  0  0  0  0  0  0
  142.3556   79.6172  220.1424 H   0  0  0  0  0  0  0  0  0  0  0  0
  141.3682   80.2983  218.8301 H   0  0  0  0  0  0  0  0  0  0  0  0
  140.9844   77.7431  220.3989 H   0  0  0  0  0  0  0  0  0  0  0  0
  139.7503   78.7601  219.7105 H   0  0  0  0  0  0  0  0  0  0  0  0
  140.2779   76.5283  218.3811 H   0  0  0  0  0  0  0  0  0  0  0  0
  140.3173   77.9320  217.3679 H   0  0  0  0  0  0  0  0  0  0  0  0
  138.0787   77.1121  222.6121 H   0  0  0  0  0  0  0  0  0  0  0  0
  138.3004   79.4876  223.3463 H   0  0  0  0  0  0  0  0  0  0  0  0
  139.6519   81.4874  223.8428 H   0  0  0  0  0  0  0  0  0  0  0  0
  141.9754   82.4435  223.9151 H   0  0  0  0  0  0  0  0  0  0  0  0
  143.9314   81.1044  223.2871 H   0  0  0  0  0  0  0  0  0  0  0  0
  143.6736   78.7543  222.5700 H   0  0  0  0  0  0  0  0  0  0  0  0
  1  2  2  0
  2  3  1  0
  3  4  1  0
  4  5  1  0
  5  6  2  0
  5  7  1  0
  7  8  1  0
  8  9  1  0
  9 10  1  0
  9 11  1  0
 11 12  1  0
 12 13  1  0
 13 14  1  0
 14 15  1  0
 15 16  1  0
 16 17  1  0
 17 18  1  0
 18 19  1  0
  2 20  1  0
 20 21  2  0
 21 22  1  0
 22 23  2  0
 23 24  1  0
 24 25  2  0
 25 26  1  0
 26 27  2  0
 27 28  1  0
 28 29  2  0
 12  7  1  0
 19 15  1  0
 29 20  1  0
 28 23  1  0
  3 30  1  0
  4 31  1  0
  4 32  1  0
  8 33  1  0
  8 34  1  0
  9 35  1  6
 10 36  1  0
 11 37  1  0
 11 38  1  0
 12 39  1  1
 13 40  1  0
 13 41  1  0
 15 42  1  0
 16 43  1  0
 16 44  1  0
 17 45  1  0
 17 46  1  0
 18 47  1  0
 18 48  1  0
 19 49  1  0
 19 50  1  0
 21 51  1  0
 22 52  1  0
 24 53  1  0
 25 54  1  0
 26 55  1  0
 27 56  1  0
M  END
>  <smiles>  (37) 
O=C(NCC(=O)N1C[C@H](O)C[C@H]1COC1CCCC1)c1ccc2ccccc2n1

>  <score_type>  (37) 
oracle

>  <origin>  (37) 
autodockgpu

>  <m_score__min__energy>  (37) 
-8.5500000000000007

>  <m_primary>  (37) 
energy

>  <rmsd>  (37) 
7.603630910059911

>  <m_score__min__rmsd>  (37) 
7.603630910059911

>  <meeko>  (37) 
{"free_energy": -7.16, "intermolecular_energy": -9.55, "internal_energy": -3.45, "cluster_size": 33, "cluster_id": 4, "rank_in_cluster": 9}

>  <energy>  (37) 
-6.99

>  <cluster_rmsd>  (37) 
0.59

>  <cluster>  (37) 
4

$$$$

     RDKit          3D

 56 59  0  0  0  0  0  0  0  0999 V2000
  138.7880   75.2400  221.8680 O   0  0  0  0  0  0  0  0  0  0  0  0
  139.9380   75.7860  221.7980 C   0  0  0  0  0  0  0  0  0  0  0  0
  141.0090   75.0670  221.1990 N   0  0  0  0  0  0  0  0  0  0  0  0
  140.8530   73.7300  220.6580 C   0  0  0  0  0  0  0  0  0  0  0  0
  142.1110   72.9870  220.8820 C   0  0  0  0  0  0  0  0  0  0  0  0
  142.0920   72.0050  221.6650 O   0  0  0  0  0  0  0  0  0  0  0  0
  143.2690   73.4340  220.1970 N   0  0  0  0  0  0  0  0  0  0  0  0
  144.0260   72.8160  219.1270 C   0  0  0  0  0  0  0  0  0  0  0  0
  145.4660   73.2640  219.4100 C   0  0  2  0  0  0  0  0  0  0  0  0
  146.2620   72.1640  219.7240 O   0  0  0  0  0  0  0  0  0  0  0  0
  145.3460   74.1630  220.6280 C   0  0  0  0  0  0  0  0  0  0  0  0
  143.9960   74.7260  220.4520 C   0  0  1  0  0  0  0  0  0  0  0  0
  143.6930   75.6870  219.3850 C   0  0  0  0  0  0  0  0  0  0  0  0
  143.0030   76.7790  219.7440 O   0  0  0  0  0  0  0  0  0  0  0  0
  141.7950   77.0510  219.2050 C   0  0  0  0  0  0  0  0  0  0  0  0
  141.8920   76.8110  217.6950 C   0  0  0  0  0  0  0  0  0  0  0  0
  142.5800   78.0530  217.1710 C   0  0  0  0  0  0  0  0  0  0  0  0
  142.6450   79.0410  218.3200 C   0  0  0  0  0  0  0  0  0  0  0  0
  141.5080   78.5590  219.1960 C   0  0  0  0  0  0  0  0  0  0  0  0
  140.1390   77.1270  222.3290 C   0  0  0  0  0  0  0  0  0  0  0  0
  139.0470   77.8580  222.7740 C   0  0  0  0  0  0  0  0  0  0  0  0
  139.3210   79.1260  223.2650 C   0  0  0  0  0  0  0  0  0  0  0  0
  140.6000   79.6490  223.3150 C   0  0  0  0  0  0  0  0  0  0  0  0
  140.8370   80.9330  223.8180 C   0  0  0  0  0  0  0  0  0  0  0  0
  142.1720   81.3360  223.8120 C   0  0  0  0  0  0  0  0  0  0  0  0
  143.1870   80.5280  223.3430 C   0  0  0  0  0  0  0  0  0  0  0  0
  142.9180   79.2790  222.8600 C   0  0  0  0  0  0  0  0  0  0  0  0
  141.6150   78.8440  222.8490 C   0  0  0  0  0  0  0  0  0  0  0  0
  141.3580   77.6340  222.3800 N   0  0  0  0  0  0  0  0  0  0  0  0
  141.9320   75.5570  221.1660 H   0  0  0  0  0  0  0  0  0  0  0  0
  140.0232   73.2177  221.1669 H   0  0  0  0  0  0  0  0  0  0  0  0
  140.6303   73.7810  219.5820 H   0  0  0  0  0  0  0  0  0  0  0  0
  143.9395   71.7201  219.1649 H   0  0  0  0  0  0  0  0  0  0  0  0
  143.6733   73.1064  218.1264 H   0  0  0  0  0  0  0  0  0  0  0  0
  145.9240   73.7661  218.5450 H   0  0  0  0  0  0  0  0  0  0  0  0
  146.0170   71.7730  220.6030 H   0  0  0  0  0  0  0  0  0  0  0  0
  145.4211   73.5858  221.5614 H   0  0  0  0  0  0  0  0  0  0  0  0
  146.1395   74.9210  220.7034 H   0  0  0  0  0  0  0  0  0  0  0  0
  143.7466   75.3712  221.3073 H   0  0  0  0  0  0  0  0  0  0  0  0
  144.6485   76.0214  218.9547 H   0  0  0  0  0  0  0  0  0  0  0  0
  143.0408   75.1473  218.6826 H   0  0  0  0  0  0  0  0  0  0  0  0
  141.0611   76.4566  219.7690 H   0  0  0  0  0  0  0  0  0  0  0  0
  142.4891   75.9127  217.4793 H   0  0  0  0  0  0  0  0  0  0  0  0
  140.9100   76.6421  217.2290 H   0  0  0  0  0  0  0  0  0  0  0  0
  143.5952   77.8060  216.8270 H   0  0  0  0  0  0  0  0  0  0  0  0
  142.0292   78.4773  216.3186 H   0  0  0  0  0  0  0  0  0  0  0  0
  143.6096   78.9834  218.8456 H   0  0  0  0  0  0  0  0  0  0  0  0
  142.5594   80.0936  218.0123 H   0  0  0  0  0  0  0  0  0  0  0  0
  141.5609   78.9901  220.2066 H   0  0  0  0  0  0  0  0  0  0  0  0
  140.5035   78.8361  218.8435 H   0  0  0  0  0  0  0  0  0  0  0  0
  138.0238   77.4556  222.7395 H   0  0  0  0  0  0  0  0  0  0  0  0
  138.4855   79.7415  223.6300 H   0  0  0  0  0  0  0  0  0  0  0  0
  140.0282   81.5783  224.1914 H   0  0  0  0  0  0  0  0  0  0  0  0
  142.4251   82.3354  224.1955 H   0  0  0  0  0  0  0  0  0  0  0  0
  144.2244   80.8936  223.3582 H   0  0  0  0  0  0  0  0  0  0  0  0
  143.7280   78.6347  222.4875 H   0  0  0  0  0  0  0  0  0  0  0  0
  1  2  2  0
  2  3  1  0
  3  4  1  0
  4  5  1  0
  5  6  2  0
  5  7  1  0
  7  8  1  0
  8  9  1  0
  9 10  1  0
  9 11  1  0
 11 12  1  0
 12 13  1  0
 13 14  1  0
 14 15  1  0
 15 16  1  0
 16 17  1  0
 17 18  1  0
 18 19  1  0
  2 20  1  0
 20 21  2  0
 21 22  1  0
 22 23  2  0
 23 24  1  0
 24 25  2  0
 25 26  1  0
 26 27  2  0
 27 28  1  0
 28 29  2  0
 12  7  1  0
 19 15  1  0
 29 20  1  0
 28 23  1  0
  3 30  1  0
  4 31  1  0
  4 32  1  0
  8 33  1  0
  8 34  1  0
  9 35  1  6
 10 36  1  0
 11 37  1  0
 11 38  1  0
 12 39  1  1
 13 40  1  0
 13 41  1  0
 15 42  1  0
 16 43  1  0
 16 44  1  0
 17 45  1  0
 17 46  1  0
 18 47  1  0
 18 48  1  0
 19 49  1  0
 19 50  1  0
 21 51  1  0
 22 52  1  0
 24 53  1  0
 25 54  1  0
 26 55  1  0
 27 56  1  0
M  END
>  <smiles>  (38) 
O=C(NCC(=O)N1C[C@H](O)C[C@H]1COC1CCCC1)c1ccc2ccccc2n1

>  <score_type>  (38) 
oracle

>  <origin>  (38) 
autodockgpu

>  <m_score__min__energy>  (38) 
-8.5500000000000007

>  <m_primary>  (38) 
energy

>  <rmsd>  (38) 
7.645622493147733

>  <m_score__min__rmsd>  (38) 
7.645622493147733

>  <meeko>  (38) 
{"free_energy": -7.24, "intermolecular_energy": -9.63, "internal_energy": -3.4, "cluster_size": 33, "cluster_id": 4, "rank_in_cluster": 3}

>  <energy>  (38) 
-6.97

>  <cluster_rmsd>  (38) 
0.39

>  <cluster>  (38) 
4

$$$$

     RDKit          3D

 56 59  0  0  0  0  0  0  0  0999 V2000
  140.3260   71.3540  221.2790 O   0  0  0  0  0  0  0  0  0  0  0  0
  140.0610   71.9540  222.3720 C   0  0  0  0  0  0  0  0  0  0  0  0
  139.7760   73.3470  222.3440 N   0  0  0  0  0  0  0  0  0  0  0  0
  139.7720   74.1240  221.1190 C   0  0  0  0  0  0  0  0  0  0  0  0
  139.8730   75.5540  221.4750 C   0  0  0  0  0  0  0  0  0  0  0  0
  139.5870   75.8990  222.6490 O   0  0  0  0  0  0  0  0  0  0  0  0
  140.2870   76.4560  220.4610 N   0  0  0  0  0  0  0  0  0  0  0  0
  139.5170   77.1410  219.4410 C   0  0  0  0  0  0  0  0  0  0  0  0
  140.4940   77.2230  218.2610 C   0  0  2  0  0  0  0  0  0  0  0  0
  140.0190   76.4740  217.1860 O   0  0  0  0  0  0  0  0  0  0  0  0
  141.7730   76.5960  218.7870 C   0  0  0  0  0  0  0  0  0  0  0  0
  141.6960   76.9220  220.2220 C   0  0  1  0  0  0  0  0  0  0  0  0
  141.8570   78.2950  220.7110 C   0  0  0  0  0  0  0  0  0  0  0  0
  140.9990   78.6960  221.6610 O   0  0  0  0  0  0  0  0  0  0  0  0
  141.3480   78.6920  222.9650 C   0  0  0  0  0  0  0  0  0  0  0  0
  140.2890   79.4860  223.7360 C   0  0  0  0  0  0  0  0  0  0  0  0
  140.6580   80.9310  223.4790 C   0  0  0  0  0  0  0  0  0  0  0  0
  142.0080   80.9270  222.7890 C   0  0  0  0  0  0  0  0  0  0  0  0
  142.5660   79.5890  223.2260 C   0  0  0  0  0  0  0  0  0  0  0  0
  140.0540   71.2120  223.6250 C   0  0  0  0  0  0  0  0  0  0  0  0
  139.5670   69.9130  223.6500 C   0  0  0  0  0  0  0  0  0  0  0  0
  139.5940   69.2740  224.8800 C   0  0  0  0  0  0  0  0  0  0  0  0
  140.0730   69.8800  226.0270 C   0  0  0  0  0  0  0  0  0  0  0  0
  140.0850   69.2020  227.2520 C   0  0  0  0  0  0  0  0  0  0  0  0
  140.5950   69.9280  228.3270 C   0  0  0  0  0  0  0  0  0  0  0  0
  141.0540   71.2220  228.1950 C   0  0  0  0  0  0  0  0  0  0  0  0
  141.0280   71.8520  226.9840 C   0  0  0  0  0  0  0  0  0  0  0  0
  140.5330   71.1710  225.8980 C   0  0  0  0  0  0  0  0  0  0  0  0
  140.5090   71.7830  224.7260 N   0  0  0  0  0  0  0  0  0  0  0  0
  139.5650   73.7930  223.2660 H   0  0  0  0  0  0  0  0  0  0  0  0
  140.6292   73.8354  220.4929 H   0  0  0  0  0  0  0  0  0  0  0  0
  138.8452   73.9386  220.5563 H   0  0  0  0  0  0  0  0  0  0  0  0
  138.6196   76.5651  219.1709 H   0  0  0  0  0  0  0  0  0  0  0  0
  139.1493   78.1254  219.7661 H   0  0  0  0  0  0  0  0  0  0  0  0
  140.6332   78.2552  217.9071 H   0  0  0  0  0  0  0  0  0  0  0  0
  139.3500   75.8000  217.4780 H   0  0  0  0  0  0  0  0  0  0  0  0
  141.7837   75.5084  218.6227 H   0  0  0  0  0  0  0  0  0  0  0  0
  142.6857   76.9617  218.2939 H   0  0  0  0  0  0  0  0  0  0  0  0
  142.5502   76.4757  220.7523 H   0  0  0  0  0  0  0  0  0  0  0  0
  142.8744   78.3875  221.1188 H   0  0  0  0  0  0  0  0  0  0  0  0
  141.6526   78.9392  219.8431 H   0  0  0  0  0  0  0  0  0  0  0  0
  141.4971   77.6384  223.2438 H   0  0  0  0  0  0  0  0  0  0  0  0
  139.2808   79.2660  223.3551 H   0  0  0  0  0  0  0  0  0  0  0  0
  140.2694   79.2375  224.8074 H   0  0  0  0  0  0  0  0  0  0  0  0
  139.9045   81.4042  222.8323 H   0  0  0  0  0  0  0  0  0  0  0  0
  140.6994   81.4992  224.4200 H   0  0  0  0  0  0  0  0  0  0  0  0
  141.9006   80.9799  221.6955 H   0  0  0  0  0  0  0  0  0  0  0  0
  142.6462   81.7850  223.0469 H   0  0  0  0  0  0  0  0  0  0  0  0
  143.4314   79.2893  222.6167 H   0  0  0  0  0  0  0  0  0  0  0  0
  142.9482   79.5617  224.2571 H   0  0  0  0  0  0  0  0  0  0  0  0
  139.1817   69.4187  222.7460 H   0  0  0  0  0  0  0  0  0  0  0  0
  139.2188   68.2421  224.9463 H   0  0  0  0  0  0  0  0  0  0  0  0
  139.7183   68.1704  227.3584 H   0  0  0  0  0  0  0  0  0  0  0  0
  140.6328   69.4512  229.3176 H   0  0  0  0  0  0  0  0  0  0  0  0
  141.4455   71.7525  229.0755 H   0  0  0  0  0  0  0  0  0  0  0  0
  141.3957   72.8835  226.8798 H   0  0  0  0  0  0  0  0  0  0  0  0
  1  2  2  0
  2  3  1  0
  3  4  1  0
  4  5  1  0
  5  6  2  0
  5  7  1  0
  7  8  1  0
  8  9  1  0
  9 10  1  0
  9 11  1  0
 11 12  1  0
 12 13  1  0
 13 14  1  0
 14 15  1  0
 15 16  1  0
 16 17  1  0
 17 18  1  0
 18 19  1  0
  2 20  1  0
 20 21  2  0
 21 22  1  0
 22 23  2  0
 23 24  1  0
 24 25  2  0
 25 26  1  0
 26 27  2  0
 27 28  1  0
 28 29  2  0
 12  7  1  0
 19 15  1  0
 29 20  1  0
 28 23  1  0
  3 30  1  0
  4 31  1  0
  4 32  1  0
  8 33  1  0
  8 34  1  0
  9 35  1  6
 10 36  1  0
 11 37  1  0
 11 38  1  0
 12 39  1  1
 13 40  1  0
 13 41  1  0
 15 42  1  0
 16 43  1  0
 16 44  1  0
 17 45  1  0
 17 46  1  0
 18 47  1  0
 18 48  1  0
 19 49  1  0
 19 50  1  0
 21 51  1  0
 22 52  1  0
 24 53  1  0
 25 54  1  0
 26 55  1  0
 27 56  1  0
M  END
>  <smiles>  (39) 
O=C(NCC(=O)N1C[C@H](O)C[C@H]1COC1CCCC1)c1ccc2ccccc2n1

>  <score_type>  (39) 
oracle

>  <origin>  (39) 
autodockgpu

>  <m_score__min__energy>  (39) 
-8.5500000000000007

>  <m_primary>  (39) 
energy

>  <rmsd>  (39) 
1.5381076284859379

>  <m_score__min__rmsd>  (39) 
1.5381076284859379

>  <meeko>  (39) 
{"free_energy": -7.83, "intermolecular_energy": -10.21, "internal_energy": -2.24, "cluster_size": 14, "cluster_id": 1, "rank_in_cluster": 9}

>  <energy>  (39) 
-6.97

>  <cluster_rmsd>  (39) 
0.61

>  <cluster>  (39) 
4

$$$$

     RDKit          3D

 56 59  0  0  0  0  0  0  0  0999 V2000
  140.9520   71.5570  221.4090 O   0  0  0  0  0  0  0  0  0  0  0  0
  140.4100   72.1180  222.4180 C   0  0  0  0  0  0  0  0  0  0  0  0
  140.0010   73.4770  222.3150 N   0  0  0  0  0  0  0  0  0  0  0  0
  140.1730   74.2600  221.1060 C   0  0  0  0  0  0  0  0  0  0  0  0
  140.2640   75.6860  221.4850 C   0  0  0  0  0  0  0  0  0  0  0  0
  140.0140   76.0040  222.6740 O   0  0  0  0  0  0  0  0  0  0  0  0
  140.6280   76.6120  220.4740 N   0  0  0  0  0  0  0  0  0  0  0  0
  139.9900   76.9240  219.2110 C   0  0  0  0  0  0  0  0  0  0  0  0
  141.1730   77.2690  218.2960 C   0  0  2  0  0  0  0  0  0  0  0  0
  141.2750   76.3380  217.2650 O   0  0  0  0  0  0  0  0  0  0  0  0
  142.3890   77.1580  219.1980 C   0  0  0  0  0  0  0  0  0  0  0  0
  141.8230   77.5230  220.5080 C   0  0  1  0  0  0  0  0  0  0  0  0
  141.3960   78.8940  220.8100 C   0  0  0  0  0  0  0  0  0  0  0  0
  142.2530   79.6440  221.5180 O   0  0  0  0  0  0  0  0  0  0  0  0
  142.5740   79.3260  222.7910 C   0  0  0  0  0  0  0  0  0  0  0  0
  141.3010   78.8330  223.4850 C   0  0  0  0  0  0  0  0  0  0  0  0
  140.5560   80.1050  223.8260 C   0  0  0  0  0  0  0  0  0  0  0  0
  141.4970   81.2590  223.5400 C   0  0  0  0  0  0  0  0  0  0  0  0
  142.8460   80.5780  223.6340 C   0  0  0  0  0  0  0  0  0  0  0  0
  140.2180   71.3680  223.6510 C   0  0  0  0  0  0  0  0  0  0  0  0
  139.5690   70.1430  223.6140 C   0  0  0  0  0  0  0  0  0  0  0  0
  139.4260   69.4910  224.8290 C   0  0  0  0  0  0  0  0  0  0  0  0
  139.8960   70.0150  226.0190 C   0  0  0  0  0  0  0  0  0  0  0  0
  139.7330   69.3270  227.2270 C   0  0  0  0  0  0  0  0  0  0  0  0
  140.2540   69.9680  228.3500 C   0  0  0  0  0  0  0  0  0  0  0  0
  140.8840   71.1930  228.2780 C   0  0  0  0  0  0  0  0  0  0  0  0
  141.0250   71.8350  227.0820 C   0  0  0  0  0  0  0  0  0  0  0  0
  140.5260   71.2370  225.9500 C   0  0  0  0  0  0  0  0  0  0  0  0
  140.6640   71.8620  224.7920 N   0  0  0  0  0  0  0  0  0  0  0  0
  139.5630   73.8920  223.1690 H   0  0  0  0  0  0  0  0  0  0  0  0
  141.0954   73.9523  220.5918 H   0  0  0  0  0  0  0  0  0  0  0  0
  139.3214   74.1019  220.4279 H   0  0  0  0  0  0  0  0  0  0  0  0
  139.4331   76.0572  218.8257 H   0  0  0  0  0  0  0  0  0  0  0  0
  139.2537   77.7374  219.2891 H   0  0  0  0  0  0  0  0  0  0  0  0
  141.0667   78.2615  217.8337 H   0  0  0  0  0  0  0  0  0  0  0  0
  141.3760   75.4140  217.6150 H   0  0  0  0  0  0  0  0  0  0  0  0
  142.7904   76.1339  219.2058 H   0  0  0  0  0  0  0  0  0  0  0  0
  143.2355   77.7875  218.8861 H   0  0  0  0  0  0  0  0  0  0  0  0
  142.5959   77.4344  221.2857 H   0  0  0  0  0  0  0  0  0  0  0  0
  141.2146   79.4062  219.8536 H   0  0  0  0  0  0  0  0  0  0  0  0
  140.5054   78.7886  221.4470 H   0  0  0  0  0  0  0  0  0  0  0  0
  143.4240   78.6302  222.7334 H   0  0  0  0  0  0  0  0  0  0  0  0
  140.7066   78.2007  222.8090 H   0  0  0  0  0  0  0  0  0  0  0  0
  141.5127   78.2153  224.3702 H   0  0  0  0  0  0  0  0  0  0  0  0
  139.6521   80.1916  223.2051 H   0  0  0  0  0  0  0  0  0  0  0  0
  140.2421   80.1059  224.8803 H   0  0  0  0  0  0  0  0  0  0  0  0
  141.3269   81.6772  222.5369 H   0  0  0  0  0  0  0  0  0  0  0  0
  141.3778   82.1146  224.2210 H   0  0  0  0  0  0  0  0  0  0  0  0
  143.6460   81.1959  223.2002 H   0  0  0  0  0  0  0  0  0  0  0  0
  143.1933   80.3792  224.6586 H   0  0  0  0  0  0  0  0  0  0  0  0
  139.1897   69.7136  222.6750 H   0  0  0  0  0  0  0  0  0  0  0  0
  138.9173   68.5159  224.8471 H   0  0  0  0  0  0  0  0  0  0  0  0
  139.2299   68.3506  227.2860 H   0  0  0  0  0  0  0  0  0  0  0  0
  140.1591   69.4785  229.3305 H   0  0  0  0  0  0  0  0  0  0  0  0
  141.2770   71.6574  229.1945 H   0  0  0  0  0  0  0  0  0  0  0  0
  141.5280   72.8116  227.0254 H   0  0  0  0  0  0  0  0  0  0  0  0
  1  2  2  0
  2  3  1  0
  3  4  1  0
  4  5  1  0
  5  6  2  0
  5  7  1  0
  7  8  1  0
  8  9  1  0
  9 10  1  0
  9 11  1  0
 11 12  1  0
 12 13  1  0
 13 14  1  0
 14 15  1  0
 15 16  1  0
 16 17  1  0
 17 18  1  0
 18 19  1  0
  2 20  1  0
 20 21  2  0
 21 22  1  0
 22 23  2  0
 23 24  1  0
 24 25  2  0
 25 26  1  0
 26 27  2  0
 27 28  1  0
 28 29  2  0
 12  7  1  0
 19 15  1  0
 29 20  1  0
 28 23  1  0
  3 30  1  0
  4 31  1  0
  4 32  1  0
  8 33  1  0
  8 34  1  0
  9 35  1  6
 10 36  1  0
 11 37  1  0
 11 38  1  0
 12 39  1  1
 13 40  1  0
 13 41  1  0
 15 42  1  0
 16 43  1  0
 16 44  1  0
 17 45  1  0
 17 46  1  0
 18 47  1  0
 18 48  1  0
 19 49  1  0
 19 50  1  0
 21 51  1  0
 22 52  1  0
 24 53  1  0
 25 54  1  0
 26 55  1  0
 27 56  1  0
M  END
>  <smiles>  (40) 
O=C(NCC(=O)N1C[C@H](O)C[C@H]1COC1CCCC1)c1ccc2ccccc2n1

>  <score_type>  (40) 
oracle

>  <origin>  (40) 
autodockgpu

>  <m_score__min__energy>  (40) 
-8.5500000000000007

>  <m_primary>  (40) 
energy

>  <rmsd>  (40) 
1.7046177413192842

>  <m_score__min__rmsd>  (40) 
1.7046177413192842

>  <meeko>  (40) 
{"free_energy": -8.22, "intermolecular_energy": -10.61, "internal_energy": -2.05, "cluster_size": 14, "cluster_id": 1, "rank_in_cluster": 5}

>  <energy>  (40) 
-6.9

>  <cluster_rmsd>  (40) 
0.59

>  <cluster>  (40) 
4

$$$$

     RDKit          3D

 56 59  0  0  0  0  0  0  0  0999 V2000
  140.5760   71.0840  221.2480 O   0  0  0  0  0  0  0  0  0  0  0  0
  140.2780   71.7550  222.2900 C   0  0  0  0  0  0  0  0  0  0  0  0
  140.0990   73.1620  222.1770 N   0  0  0  0  0  0  0  0  0  0  0  0
  140.2390   73.8740  220.9220 C   0  0  0  0  0  0  0  0  0  0  0  0
  140.5880   75.2790  221.2200 C   0  0  0  0  0  0  0  0  0  0  0  0
  140.2620   75.7490  222.3380 O   0  0  0  0  0  0  0  0  0  0  0  0
  141.2700   76.0130  220.2170 N   0  0  0  0  0  0  0  0  0  0  0  0
  141.2780   75.8550  218.7770 C   0  0  0  0  0  0  0  0  0  0  0  0
  142.7000   76.2780  218.3850 C   0  0  2  0  0  0  0  0  0  0  0  0
  143.3970   75.1960  217.8500 O   0  0  0  0  0  0  0  0  0  0  0  0
  143.3440   76.6930  219.6960 C   0  0  0  0  0  0  0  0  0  0  0  0
  142.1810   77.1860  220.4550 C   0  0  1  0  0  0  0  0  0  0  0  0
  141.4950   78.4310  220.0940 C   0  0  0  0  0  0  0  0  0  0  0  0
  141.4720   79.3930  221.0280 O   0  0  0  0  0  0  0  0  0  0  0  0
  142.0060   79.1920  222.2520 C   0  0  0  0  0  0  0  0  0  0  0  0
  140.8510   79.0200  223.2430 C   0  0  0  0  0  0  0  0  0  0  0  0
  140.3840   80.4350  223.5070 C   0  0  0  0  0  0  0  0  0  0  0  0
  141.3980   81.3630  222.8670 C   0  0  0  0  0  0  0  0  0  0  0  0
  142.6260   80.4780  222.8150 C   0  0  0  0  0  0  0  0  0  0  0  0
  140.1280   71.0790  223.5710 C   0  0  0  0  0  0  0  0  0  0  0  0
  139.5230   69.8320  223.6210 C   0  0  0  0  0  0  0  0  0  0  0  0
  139.4170   69.2550  224.8780 C   0  0  0  0  0  0  0  0  0  0  0  0
  139.8800   69.8720  226.0260 C   0  0  0  0  0  0  0  0  0  0  0  0
  139.7550   69.2570  227.2770 C   0  0  0  0  0  0  0  0  0  0  0  0
  140.2640   69.9870  228.3500 C   0  0  0  0  0  0  0  0  0  0  0  0
  140.8470   71.2270  228.1910 C   0  0  0  0  0  0  0  0  0  0  0  0
  140.9520   71.7960  226.9540 C   0  0  0  0  0  0  0  0  0  0  0  0
  140.4630   71.1090  225.8700 C   0  0  0  0  0  0  0  0  0  0  0  0
  140.5660   71.6620  224.6730 N   0  0  0  0  0  0  0  0  0  0  0  0
  139.8560   73.6670  223.0600 H   0  0  0  0  0  0  0  0  0  0  0  0
  141.0358   73.4128  220.3199 H   0  0  0  0  0  0  0  0  0  0  0  0
  139.2973   73.8302  220.3552 H   0  0  0  0  0  0  0  0  0  0  0  0
  141.0854   74.8096  218.4939 H   0  0  0  0  0  0  0  0  0  0  0  0
  140.4984   76.4460  218.2741 H   0  0  0  0  0  0  0  0  0  0  0  0
  142.7026   77.0779  217.6299 H   0  0  0  0  0  0  0  0  0  0  0  0
  144.3790   75.3330  217.8970 H   0  0  0  0  0  0  0  0  0  0  0  0
  143.8179   75.8372  220.1989 H   0  0  0  0  0  0  0  0  0  0  0  0
  144.1509   77.4322  219.5837 H   0  0  0  0  0  0  0  0  0  0  0  0
  142.4942   77.4785  221.4681 H   0  0  0  0  0  0  0  0  0  0  0  0
  141.9935   78.8414  219.2035 H   0  0  0  0  0  0  0  0  0  0  0  0
  140.4429   78.1498  219.9391 H   0  0  0  0  0  0  0  0  0  0  0  0
  142.7165   78.3586  222.1495 H   0  0  0  0  0  0  0  0  0  0  0  0
  140.0434   78.4172  222.8020 H   0  0  0  0  0  0  0  0  0  0  0  0
  141.1543   78.4952  224.1609 H   0  0  0  0  0  0  0  0  0  0  0  0
  139.3913   80.5947  223.0608 H   0  0  0  0  0  0  0  0  0  0  0  0
  140.3033   80.6267  224.5872 H   0  0  0  0  0  0  0  0  0  0  0  0
  141.0814   81.6707  221.8595 H   0  0  0  0  0  0  0  0  0  0  0  0
  141.5481   82.3072  223.4110 H   0  0  0  0  0  0  0  0  0  0  0  0
  143.3958   80.8874  222.1443 H   0  0  0  0  0  0  0  0  0  0  0  0
  143.1504   80.3573  223.7744 H   0  0  0  0  0  0  0  0  0  0  0  0
  139.1490   69.3298  222.7166 H   0  0  0  0  0  0  0  0  0  0  0  0
  138.9450   68.2653  224.9654 H   0  0  0  0  0  0  0  0  0  0  0  0
  139.2887   68.2689  227.4043 H   0  0  0  0  0  0  0  0  0  0  0  0
  140.1983   69.5583  229.3609 H   0  0  0  0  0  0  0  0  0  0  0  0
  141.2318   71.7637  229.0707 H   0  0  0  0  0  0  0  0  0  0  0  0
  141.4186   72.7842  226.8284 H   0  0  0  0  0  0  0  0  0  0  0  0
  1  2  2  0
  2  3  1  0
  3  4  1  0
  4  5  1  0
  5  6  2  0
  5  7  1  0
  7  8  1  0
  8  9  1  0
  9 10  1  0
  9 11  1  0
 11 12  1  0
 12 13  1  0
 13 14  1  0
 14 15  1  0
 15 16  1  0
 16 17  1  0
 17 18  1  0
 18 19  1  0
  2 20  1  0
 20 21  2  0
 21 22  1  0
 22 23  2  0
 23 24  1  0
 24 25  2  0
 25 26  1  0
 26 27  2  0
 27 28  1  0
 28 29  2  0
 12  7  1  0
 19 15  1  0
 29 20  1  0
 28 23  1  0
  3 30  1  0
  4 31  1  0
  4 32  1  0
  8 33  1  0
  8 34  1  0
  9 35  1  6
 10 36  1  0
 11 37  1  0
 11 38  1  0
 12 39  1  1
 13 40  1  0
 13 41  1  0
 15 42  1  0
 16 43  1  0
 16 44  1  0
 17 45  1  0
 17 46  1  0
 18 47  1  0
 18 48  1  0
 19 49  1  0
 19 50  1  0
 21 51  1  0
 22 52  1  0
 24 53  1  0
 25 54  1  0
 26 55  1  0
 27 56  1  0
M  END
>  <smiles>  (41) 
O=C(NCC(=O)N1C[C@H](O)C[C@H]1COC1CCCC1)c1ccc2ccccc2n1

>  <score_type>  (41) 
oracle

>  <origin>  (41) 
autodockgpu

>  <m_score__min__energy>  (41) 
-8.5500000000000007

>  <m_primary>  (41) 
energy

>  <rmsd>  (41) 
1.824347436867632

>  <m_score__min__rmsd>  (41) 
1.824347436867632

>  <meeko>  (41) 
{"free_energy": -8.43, "intermolecular_energy": -10.81, "internal_energy": -2.1, "cluster_size": 14, "cluster_id": 1, "rank_in_cluster": 4}

>  <energy>  (41) 
-6.85

>  <cluster_rmsd>  (41) 
0.89

>  <cluster>  (41) 
4

$$$$

     RDKit          3D

 56 59  0  0  0  0  0  0  0  0999 V2000
  139.0800   74.8850  222.2610 O   0  0  0  0  0  0  0  0  0  0  0  0
  140.1640   75.5310  222.0790 C   0  0  0  0  0  0  0  0  0  0  0  0
  141.3190   74.8310  221.6330 N   0  0  0  0  0  0  0  0  0  0  0  0
  141.3220   73.4040  221.3740 C   0  0  0  0  0  0  0  0  0  0  0  0
  141.8270   73.1800  220.0040 C   0  0  0  0  0  0  0  0  0  0  0  0
  141.0680   72.6230  219.1720 O   0  0  0  0  0  0  0  0  0  0  0  0
  143.1470   73.6090  219.7120 N   0  0  0  0  0  0  0  0  0  0  0  0
  144.0630   73.1910  218.6700 C   0  0  0  0  0  0  0  0  0  0  0  0
  145.4380   73.3180  219.3380 C   0  0  2  0  0  0  0  0  0  0  0  0
  146.0360   72.0640  219.4580 O   0  0  0  0  0  0  0  0  0  0  0  0
  145.1340   73.8640  220.7220 C   0  0  0  0  0  0  0  0  0  0  0  0
  143.9170   74.6560  220.4680 C   0  0  1  0  0  0  0  0  0  0  0  0
  143.9540   75.9030  219.6950 C   0  0  0  0  0  0  0  0  0  0  0  0
  142.9140   76.7340  219.8520 O   0  0  0  0  0  0  0  0  0  0  0  0
  141.9770   76.8700  218.8880 C   0  0  0  0  0  0  0  0  0  0  0  0
  142.6220   77.6040  217.7090 C   0  0  0  0  0  0  0  0  0  0  0  0
  142.6180   79.0550  218.1370 C   0  0  0  0  0  0  0  0  0  0  0  0
  141.7870   79.1420  219.4030 C   0  0  0  0  0  0  0  0  0  0  0  0
  140.9160   77.9090  219.2760 C   0  0  0  0  0  0  0  0  0  0  0  0
  140.2060   76.9660  222.3280 C   0  0  0  0  0  0  0  0  0  0  0  0
  139.0240   77.6910  222.3510 C   0  0  0  0  0  0  0  0  0  0  0  0
  139.1480   79.0510  222.5940 C   0  0  0  0  0  0  0  0  0  0  0  0
  140.3690   79.6660  222.8020 C   0  0  0  0  0  0  0  0  0  0  0  0
  140.4530   81.0420  223.0440 C   0  0  0  0  0  0  0  0  0  0  0  0
  141.7440   81.5320  223.2370 C   0  0  0  0  0  0  0  0  0  0  0  0
  142.8580   80.7210  223.1920 C   0  0  0  0  0  0  0  0  0  0  0  0
  142.7380   79.3820  222.9530 C   0  0  0  0  0  0  0  0  0  0  0  0
  141.4830   78.8580  222.7580 C   0  0  0  0  0  0  0  0  0  0  0  0
  141.3680   77.5610  222.5260 N   0  0  0  0  0  0  0  0  0  0  0  0
  142.1830   75.4050  221.4990 H   0  0  0  0  0  0  0  0  0  0  0  0
  141.9756   72.8963  222.0985 H   0  0  0  0  0  0  0  0  0  0  0  0
  140.3037   72.9998  221.4723 H   0  0  0  0  0  0  0  0  0  0  0  0
  143.8668   72.1522  218.3662 H   0  0  0  0  0  0  0  0  0  0  0  0
  143.9732   73.7901  217.7518 H   0  0  0  0  0  0  0  0  0  0  0  0
  146.1232   73.9568  218.7614 H   0  0  0  0  0  0  0  0  0  0  0  0
  145.9490   71.7030  220.3790 H   0  0  0  0  0  0  0  0  0  0  0  0
  144.9425   73.0531  221.4402 H   0  0  0  0  0  0  0  0  0  0  0  0
  145.9585   74.4409  221.1663 H   0  0  0  0  0  0  0  0  0  0  0  0
  143.5439   75.0790  221.4124 H   0  0  0  0  0  0  0  0  0  0  0  0
  144.8645   76.4485  219.9837 H   0  0  0  0  0  0  0  0  0  0  0  0
  143.9229   75.5931  218.6400 H   0  0  0  0  0  0  0  0  0  0  0  0
  141.5735   75.8639  218.7009 H   0  0  0  0  0  0  0  0  0  0  0  0
  143.6493   77.2483  217.5414 H   0  0  0  0  0  0  0  0  0  0  0  0
  142.0859   77.4396  216.7626 H   0  0  0  0  0  0  0  0  0  0  0  0
  143.6457   79.3930  218.3358 H   0  0  0  0  0  0  0  0  0  0  0  0
  142.1986   79.6959  217.3475 H   0  0  0  0  0  0  0  0  0  0  0  0
  142.4187   79.0972  220.3024 H   0  0  0  0  0  0  0  0  0  0  0  0
  141.2236   80.0811  219.5068 H   0  0  0  0  0  0  0  0  0  0  0  0
  140.4260   77.6559  220.2277 H   0  0  0  0  0  0  0  0  0  0  0  0
  140.0803   78.0039  218.5671 H   0  0  0  0  0  0  0  0  0  0  0  0
  138.0458   77.2156  222.1863 H   0  0  0  0  0  0  0  0  0  0  0  0
  138.2366   79.6663  222.6224 H   0  0  0  0  0  0  0  0  0  0  0  0
  139.5648   81.6899  223.0794 H   0  0  0  0  0  0  0  0  0  0  0  0
  141.8788   82.6061  223.4325 H   0  0  0  0  0  0  0  0  0  0  0  0
  143.8551   81.1577  223.3505 H   0  0  0  0  0  0  0  0  0  0  0  0
  143.6278   78.7362  222.9173 H   0  0  0  0  0  0  0  0  0  0  0  0
  1  2  2  0
  2  3  1  0
  3  4  1  0
  4  5  1  0
  5  6  2  0
  5  7  1  0
  7  8  1  0
  8  9  1  0
  9 10  1  0
  9 11  1  0
 11 12  1  0
 12 13  1  0
 13 14  1  0
 14 15  1  0
 15 16  1  0
 16 17  1  0
 17 18  1  0
 18 19  1  0
  2 20  1  0
 20 21  2  0
 21 22  1  0
 22 23  2  0
 23 24  1  0
 24 25  2  0
 25 26  1  0
 26 27  2  0
 27 28  1  0
 28 29  2  0
 12  7  1  0
 19 15  1  0
 29 20  1  0
 28 23  1  0
  3 30  1  0
  4 31  1  0
  4 32  1  0
  8 33  1  0
  8 34  1  0
  9 35  1  6
 10 36  1  0
 11 37  1  0
 11 38  1  0
 12 39  1  1
 13 40  1  0
 13 41  1  0
 15 42  1  0
 16 43  1  0
 16 44  1  0
 17 45  1  0
 17 46  1  0
 18 47  1  0
 18 48  1  0
 19 49  1  0
 19 50  1  0
 21 51  1  0
 22 52  1  0
 24 53  1  0
 25 54  1  0
 26 55  1  0
 27 56  1  0
M  END
>  <smiles>  (42) 
O=C(NCC(=O)N1C[C@H](O)C[C@H]1COC1CCCC1)c1ccc2ccccc2n1

>  <score_type>  (42) 
oracle

>  <origin>  (42) 
autodockgpu

>  <m_score__min__energy>  (42) 
-8.5500000000000007

>  <m_primary>  (42) 
energy

>  <rmsd>  (42) 
7.710182286211511

>  <m_score__min__rmsd>  (42) 
7.710182286211511

>  <meeko>  (42) 
{"free_energy": -7.11, "intermolecular_energy": -9.49, "internal_energy": -3.51, "cluster_size": 33, "cluster_id": 4, "rank_in_cluster": 11}

>  <energy>  (42) 
-6.77

>  <cluster_rmsd>  (42) 
0.77

>  <cluster>  (42) 
4

$$$$

     RDKit          3D

 56 59  0  0  0  0  0  0  0  0999 V2000
  139.1880   74.5190  222.3520 O   0  0  0  0  0  0  0  0  0  0  0  0
  140.0470   75.3180  221.8520 C   0  0  0  0  0  0  0  0  0  0  0  0
  140.9440   74.8350  220.8600 N   0  0  0  0  0  0  0  0  0  0  0  0
  140.9260   73.4650  220.3850 C   0  0  0  0  0  0  0  0  0  0  0  0
  142.1870   72.8140  220.7970 C   0  0  0  0  0  0  0  0  0  0  0  0
  142.1290   71.8790  221.6360 O   0  0  0  0  0  0  0  0  0  0  0  0
  143.3920   73.2890  220.2200 N   0  0  0  0  0  0  0  0  0  0  0  0
  144.1390   72.8080  219.0750 C   0  0  0  0  0  0  0  0  0  0  0  0
  145.5960   73.1020  219.4580 C   0  0  2  0  0  0  0  0  0  0  0  0
  146.3090   71.9130  219.5940 O   0  0  0  0  0  0  0  0  0  0  0  0
  145.4980   73.7890  220.8080 C   0  0  0  0  0  0  0  0  0  0  0  0
  144.1930   74.4650  220.7040 C   0  0  1  0  0  0  0  0  0  0  0  0
  143.9850   75.6110  219.8110 C   0  0  0  0  0  0  0  0  0  0  0  0
  142.7570   75.7470  219.2900 O   0  0  0  0  0  0  0  0  0  0  0  0
  142.5540   76.4530  218.1560 C   0  0  0  0  0  0  0  0  0  0  0  0
  142.9400   77.9080  218.4360 C   0  0  0  0  0  0  0  0  0  0  0  0
  141.7480   78.4650  219.1830 C   0  0  0  0  0  0  0  0  0  0  0  0
  140.6510   77.4200  219.1080 C   0  0  0  0  0  0  0  0  0  0  0  0
  141.0580   76.6450  217.8730 C   0  0  0  0  0  0  0  0  0  0  0  0
  140.0980   76.7030  222.3010 C   0  0  0  0  0  0  0  0  0  0  0  0
  138.9260   77.3510  222.6600 C   0  0  0  0  0  0  0  0  0  0  0  0
  139.0590   78.6670  223.0750 C   0  0  0  0  0  0  0  0  0  0  0  0
  140.2800   79.3140  223.1350 C   0  0  0  0  0  0  0  0  0  0  0  0
  140.3740   80.6440  223.5600 C   0  0  0  0  0  0  0  0  0  0  0  0
  141.6640   81.1730  223.5730 C   0  0  0  0  0  0  0  0  0  0  0  0
  142.7690   80.4390  223.1930 C   0  0  0  0  0  0  0  0  0  0  0  0
  142.6390   79.1430  222.7840 C   0  0  0  0  0  0  0  0  0  0  0  0
  141.3840   78.5840  222.7570 C   0  0  0  0  0  0  0  0  0  0  0  0
  141.2610   77.3280  222.3600 N   0  0  0  0  0  0  0  0  0  0  0  0
  141.6290   75.5290  220.4810 H   0  0  0  0  0  0  0  0  0  0  0  0
  140.0708   72.9304  220.8241 H   0  0  0  0  0  0  0  0  0  0  0  0
  140.8298   73.4452  219.2894 H   0  0  0  0  0  0  0  0  0  0  0  0
  143.9804   71.7298  218.9252 H   0  0  0  0  0  0  0  0  0  0  0  0
  143.8364   73.2851  218.1312 H   0  0  0  0  0  0  0  0  0  0  0  0
  146.1116   73.7106  218.7005 H   0  0  0  0  0  0  0  0  0  0  0  0
  146.1920   71.5170  220.4980 H   0  0  0  0  0  0  0  0  0  0  0  0
  145.5073   73.0593  221.6311 H   0  0  0  0  0  0  0  0  0  0  0  0
  146.3363   74.4669  221.0264 H   0  0  0  0  0  0  0  0  0  0  0  0
  143.9604   74.9725  221.6518 H   0  0  0  0  0  0  0  0  0  0  0  0
  144.2093   76.5244  220.3814 H   0  0  0  0  0  0  0  0  0  0  0  0
  144.6487   75.4353  218.9515 H   0  0  0  0  0  0  0  0  0  0  0  0
  143.0990   75.9267  217.3585 H   0  0  0  0  0  0  0  0  0  0  0  0
  143.8482   77.9596  219.0545 H   0  0  0  0  0  0  0  0  0  0  0  0
  143.1653   78.4707  217.5181 H   0  0  0  0  0  0  0  0  0  0  0  0
  142.0158   78.6572  220.2325 H   0  0  0  0  0  0  0  0  0  0  0  0
  141.4160   79.4157  218.7403 H   0  0  0  0  0  0  0  0  0  0  0  0
  140.6452   76.7784  220.0015 H   0  0  0  0  0  0  0  0  0  0  0  0
  139.6348   77.8385  219.0608 H   0  0  0  0  0  0  0  0  0  0  0  0
  140.5295   75.6828  217.8029 H   0  0  0  0  0  0  0  0  0  0  0  0
  140.8282   77.1420  216.9190 H   0  0  0  0  0  0  0  0  0  0  0  0
  137.9476   76.8500  222.6180 H   0  0  0  0  0  0  0  0  0  0  0  0
  138.1549   79.2203  223.3691 H   0  0  0  0  0  0  0  0  0  0  0  0
  139.4935   81.2300  223.8621 H   0  0  0  0  0  0  0  0  0  0  0  0
  141.8061   82.2141  223.8983 H   0  0  0  0  0  0  0  0  0  0  0  0
  143.7658   80.9034  223.2199 H   0  0  0  0  0  0  0  0  0  0  0  0
  143.5206   78.5584  222.4823 H   0  0  0  0  0  0  0  0  0  0  0  0
  1  2  2  0
  2  3  1  0
  3  4  1  0
  4  5  1  0
  5  6  2  0
  5  7  1  0
  7  8  1  0
  8  9  1  0
  9 10  1  0
  9 11  1  0
 11 12  1  0
 12 13  1  0
 13 14  1  0
 14 15  1  0
 15 16  1  0
 16 17  1  0
 17 18  1  0
 18 19  1  0
  2 20  1  0
 20 21  2  0
 21 22  1  0
 22 23  2  0
 23 24  1  0
 24 25  2  0
 25 26  1  0
 26 27  2  0
 27 28  1  0
 28 29  2  0
 12  7  1  0
 19 15  1  0
 29 20  1  0
 28 23  1  0
  3 30  1  0
  4 31  1  0
  4 32  1  0
  8 33  1  0
  8 34  1  0
  9 35  1  6
 10 36  1  0
 11 37  1  0
 11 38  1  0
 12 39  1  1
 13 40  1  0
 13 41  1  0
 15 42  1  0
 16 43  1  0
 16 44  1  0
 17 45  1  0
 17 46  1  0
 18 47  1  0
 18 48  1  0
 19 49  1  0
 19 50  1  0
 21 51  1  0
 22 52  1  0
 24 53  1  0
 25 54  1  0
 26 55  1  0
 27 56  1  0
M  END
>  <smiles>  (43) 
O=C(NCC(=O)N1C[C@H](O)C[C@H]1COC1CCCC1)c1ccc2ccccc2n1

>  <score_type>  (43) 
oracle

>  <origin>  (43) 
autodockgpu

>  <m_score__min__energy>  (43) 
-8.5500000000000007

>  <m_primary>  (43) 
energy

>  <rmsd>  (43) 
7.54362422879979

>  <m_score__min__rmsd>  (43) 
7.54362422879979

>  <meeko>  (43) 
{"free_energy": -6.99, "intermolecular_energy": -9.38, "internal_energy": -3.62, "cluster_size": 33, "cluster_id": 4, "rank_in_cluster": 21}

>  <energy>  (43) 
-6.76

>  <cluster_rmsd>  (43) 
0.79

>  <cluster>  (43) 
4

$$$$

     RDKit          3D

 56 59  0  0  0  0  0  0  0  0999 V2000
  140.8220   71.5190  221.3660 O   0  0  0  0  0  0  0  0  0  0  0  0
  140.3330   72.0760  222.4040 C   0  0  0  0  0  0  0  0  0  0  0  0
  139.9170   73.4340  222.3290 N   0  0  0  0  0  0  0  0  0  0  0  0
  140.0230   74.2220  221.1150 C   0  0  0  0  0  0  0  0  0  0  0  0
  139.9010   75.6500  221.4750 C   0  0  0  0  0  0  0  0  0  0  0  0
  139.6910   75.9450  222.6790 O   0  0  0  0  0  0  0  0  0  0  0  0
  140.0280   76.6030  220.4340 N   0  0  0  0  0  0  0  0  0  0  0  0
  139.0700   77.5570  219.9110 C   0  0  0  0  0  0  0  0  0  0  0  0
  139.4340   77.6390  218.4220 C   0  0  2  0  0  0  0  0  0  0  0  0
  138.3870   77.1520  217.6410 O   0  0  0  0  0  0  0  0  0  0  0  0
  140.6370   76.7230  218.2780 C   0  0  0  0  0  0  0  0  0  0  0  0
  141.2610   76.8420  219.6070 C   0  0  1  0  0  0  0  0  0  0  0  0
  141.9220   78.0780  220.0430 C   0  0  0  0  0  0  0  0  0  0  0  0
  141.8230   78.3810  221.3450 O   0  0  0  0  0  0  0  0  0  0  0  0
  141.1570   79.4820  221.7580 C   0  0  0  0  0  0  0  0  0  0  0  0
  142.1950   80.5550  222.0970 C   0  0  0  0  0  0  0  0  0  0  0  0
  142.7000   80.1560  223.4660 C   0  0  0  0  0  0  0  0  0  0  0  0
  141.8020   79.0380  223.9600 C   0  0  0  0  0  0  0  0  0  0  0  0
  140.5460   79.2810  223.1510 C   0  0  0  0  0  0  0  0  0  0  0  0
  140.2100   71.3210  223.6430 C   0  0  0  0  0  0  0  0  0  0  0  0
  139.6150   70.0680  223.6260 C   0  0  0  0  0  0  0  0  0  0  0  0
  139.5350   69.4130  224.8450 C   0  0  0  0  0  0  0  0  0  0  0  0
  140.0140   69.9610  226.0210 C   0  0  0  0  0  0  0  0  0  0  0  0
  139.9160   69.2690  227.2340 C   0  0  0  0  0  0  0  0  0  0  0  0
  140.4380   69.9350  228.3420 C   0  0  0  0  0  0  0  0  0  0  0  0
  141.0110   71.1870  228.2500 C   0  0  0  0  0  0  0  0  0  0  0  0
  141.0900   71.8330  227.0490 C   0  0  0  0  0  0  0  0  0  0  0  0
  140.5860   71.2100  225.9330 C   0  0  0  0  0  0  0  0  0  0  0  0
  140.6640   71.8370  224.7710 N   0  0  0  0  0  0  0  0  0  0  0  0
  139.5240   73.8450  223.2060 H   0  0  0  0  0  0  0  0  0  0  0  0
  140.9976   74.0408  220.6382 H   0  0  0  0  0  0  0  0  0  0  0  0
  139.2269   73.9401  220.4102 H   0  0  0  0  0  0  0  0  0  0  0  0
  138.0398   77.1958  220.0459 H   0  0  0  0  0  0  0  0  0  0  0  0
  139.1103   78.5317  220.4193 H   0  0  0  0  0  0  0  0  0  0  0  0
  139.6353   78.6710  218.0988 H   0  0  0  0  0  0  0  0  0  0  0  0
  137.7250   76.6500  218.1870 H   0  0  0  0  0  0  0  0  0  0  0  0
  140.3302   75.6873  218.0699 H   0  0  0  0  0  0  0  0  0  0  0  0
  141.3044   76.9887  217.4450 H   0  0  0  0  0  0  0  0  0  0  0  0
  142.1357   76.1778  219.6679 H   0  0  0  0  0  0  0  0  0  0  0  0
  142.9913   77.9887  219.8008 H   0  0  0  0  0  0  0  0  0  0  0  0
  141.4006   78.8896  219.5143 H   0  0  0  0  0  0  0  0  0  0  0  0
  140.4215   79.7150  220.9739 H   0  0  0  0  0  0  0  0  0  0  0  0
  143.0137   80.5530  221.3623 H   0  0  0  0  0  0  0  0  0  0  0  0
  141.7743   81.5712  222.0805 H   0  0  0  0  0  0  0  0  0  0  0  0
  143.7397   79.8034  223.3974 H   0  0  0  0  0  0  0  0  0  0  0  0
  142.6792   81.0114  224.1573 H   0  0  0  0  0  0  0  0  0  0  0  0
  142.2344   78.0499  223.7439 H   0  0  0  0  0  0  0  0  0  0  0  0
  141.6420   79.0386  225.0483 H   0  0  0  0  0  0  0  0  0  0  0  0
  139.8695   78.4141  223.1782 H   0  0  0  0  0  0  0  0  0  0  0  0
  139.9215   80.1140  223.5062 H   0  0  0  0  0  0  0  0  0  0  0  0
  139.2289   69.6200  222.6985 H   0  0  0  0  0  0  0  0  0  0  0  0
  139.0713   68.4161  224.8784 H   0  0  0  0  0  0  0  0  0  0  0  0
  139.4596   68.2709  227.3076 H   0  0  0  0  0  0  0  0  0  0  0  0
  140.3914   69.4445  229.3255 H   0  0  0  0  0  0  0  0  0  0  0  0
  141.4088   71.6705  229.1544 H   0  0  0  0  0  0  0  0  0  0  0  0
  141.5474   72.8308  226.9769 H   0  0  0  0  0  0  0  0  0  0  0  0
  1  2  2  0
  2  3  1  0
  3  4  1  0
  4  5  1  0
  5  6  2  0
  5  7  1  0
  7  8  1  0
  8  9  1  0
  9 10  1  0
  9 11  1  0
 11 12  1  0
 12 13  1  0
 13 14  1  0
 14 15  1  0
 15 16  1  0
 16 17  1  0
 17 18  1  0
 18 19  1  0
  2 20  1  0
 20 21  2  0
 21 22  1  0
 22 23  2  0
 23 24  1  0
 24 25  2  0
 25 26  1  0
 26 27  2  0
 27 28  1  0
 28 29  2  0
 12  7  1  0
 19 15  1  0
 29 20  1  0
 28 23  1  0
  3 30  1  0
  4 31  1  0
  4 32  1  0
  8 33  1  0
  8 34  1  0
  9 35  1  6
 10 36  1  0
 11 37  1  0
 11 38  1  0
 12 39  1  6
 13 40  1  0
 13 41  1  0
 15 42  1  0
 16 43  1  0
 16 44  1  0
 17 45  1  0
 17 46  1  0
 18 47  1  0
 18 48  1  0
 19 49  1  0
 19 50  1  0
 21 51  1  0
 22 52  1  0
 24 53  1  0
 25 54  1  0
 26 55  1  0
 27 56  1  0
M  END
>  <smiles>  (44) 
O=C(NCC(=O)N1C[C@H](O)C[C@H]1COC1CCCC1)c1ccc2ccccc2n1

>  <score_type>  (44) 
oracle

>  <origin>  (44) 
autodockgpu

>  <m_score__min__energy>  (44) 
-8.5500000000000007

>  <m_primary>  (44) 
energy

>  <rmsd>  (44) 
1.7315890135841931

>  <m_score__min__rmsd>  (44) 
1.7315890135841931

>  <meeko>  (44) 
{"free_energy": -7.62, "intermolecular_energy": -10.0, "internal_energy": -2.29, "cluster_size": 14, "cluster_id": 1, "rank_in_cluster": 11}

>  <energy>  (44) 
-6.76

>  <cluster_rmsd>  (44) 
0.79

>  <cluster>  (44) 
4

$$$$

     RDKit          3D

 56 59  0  0  0  0  0  0  0  0999 V2000
  138.7560   75.2790  221.8520 O   0  0  0  0  0  0  0  0  0  0  0  0
  139.9100   75.8180  221.7910 C   0  0  0  0  0  0  0  0  0  0  0  0
  140.9810   75.0920  221.1990 N   0  0  0  0  0  0  0  0  0  0  0  0
  140.8200   73.7560  220.6570 C   0  0  0  0  0  0  0  0  0  0  0  0
  142.0690   73.0030  220.8960 C   0  0  0  0  0  0  0  0  0  0  0  0
  142.0370   72.0330  221.6940 O   0  0  0  0  0  0  0  0  0  0  0  0
  143.2330   73.4260  220.2070 N   0  0  0  0  0  0  0  0  0  0  0  0
  143.9810   72.7870  219.1430 C   0  0  0  0  0  0  0  0  0  0  0  0
  145.4270   73.2160  219.4220 C   0  0  2  0  0  0  0  0  0  0  0  0
  146.2070   72.1070  219.7460 O   0  0  0  0  0  0  0  0  0  0  0  0
  145.3210   74.1280  220.6320 C   0  0  0  0  0  0  0  0  0  0  0  0
  143.9800   74.7090  220.4500 C   0  0  1  0  0  0  0  0  0  0  0  0
  143.6910   75.6640  219.3740 C   0  0  0  0  0  0  0  0  0  0  0  0
  142.7460   76.5810  219.6270 O   0  0  0  0  0  0  0  0  0  0  0  0
  141.8090   76.8920  218.7050 C   0  0  0  0  0  0  0  0  0  0  0  0
  142.4910   77.7050  217.6010 C   0  0  0  0  0  0  0  0  0  0  0  0
  142.6000   79.0960  218.1880 C   0  0  0  0  0  0  0  0  0  0  0  0
  141.7940   79.0990  219.4730 C   0  0  0  0  0  0  0  0  0  0  0  0
  140.8340   77.9540  219.2280 C   0  0  0  0  0  0  0  0  0  0  0  0
  140.1160   77.1570  222.3230 C   0  0  0  0  0  0  0  0  0  0  0  0
  139.0230   77.9070  222.7340 C   0  0  0  0  0  0  0  0  0  0  0  0
  139.3020   79.1720  223.2290 C   0  0  0  0  0  0  0  0  0  0  0  0
  140.5870   79.6750  223.3150 C   0  0  0  0  0  0  0  0  0  0  0  0
  140.8280   80.9580  223.8210 C   0  0  0  0  0  0  0  0  0  0  0  0
  142.1690   81.3400  223.8530 C   0  0  0  0  0  0  0  0  0  0  0  0
  143.1840   80.5150  223.4170 C   0  0  0  0  0  0  0  0  0  0  0  0
  142.9110   79.2690  222.9290 C   0  0  0  0  0  0  0  0  0  0  0  0
  141.6030   78.8530  222.8810 C   0  0  0  0  0  0  0  0  0  0  0  0
  141.3400   77.6460  222.4090 N   0  0  0  0  0  0  0  0  0  0  0  0
  141.9070   75.5760  221.1730 H   0  0  0  0  0  0  0  0  0  0  0  0
  139.9801   73.2509  221.1566 H   0  0  0  0  0  0  0  0  0  0  0  0
  140.6101   73.8080  219.5785 H   0  0  0  0  0  0  0  0  0  0  0  0
  143.8783   71.6929  219.1911 H   0  0  0  0  0  0  0  0  0  0  0  0
  143.6328   73.0734  218.1397 H   0  0  0  0  0  0  0  0  0  0  0  0
  145.8920   73.7034  218.5524 H   0  0  0  0  0  0  0  0  0  0  0  0
  146.0470   71.8070  220.6790 H   0  0  0  0  0  0  0  0  0  0  0  0
  145.3874   73.5584  221.5707 H   0  0  0  0  0  0  0  0  0  0  0  0
  146.1260   74.8745  220.7010 H   0  0  0  0  0  0  0  0  0  0  0  0
  143.7410   75.3659  221.2993 H   0  0  0  0  0  0  0  0  0  0  0  0
  144.6235   76.1998  219.1430 H   0  0  0  0  0  0  0  0  0  0  0  0
  143.2953   75.0585  218.5452 H   0  0  0  0  0  0  0  0  0  0  0  0
  141.3292   75.9451  218.4165 H   0  0  0  0  0  0  0  0  0  0  0  0
  143.4869   77.2972  217.3730 H   0  0  0  0  0  0  0  0  0  0  0  0
  141.9320   77.6868  216.6538 H   0  0  0  0  0  0  0  0  0  0  0  0
  143.6524   79.3346  218.4015 H   0  0  0  0  0  0  0  0  0  0  0  0
  142.2192   79.8504  217.4838 H   0  0  0  0  0  0  0  0  0  0  0  0
  142.4322   78.9083  220.3484 H   0  0  0  0  0  0  0  0  0  0  0  0
  141.3023   80.0582  219.6925 H   0  0  0  0  0  0  0  0  0  0  0  0
  140.3390   77.6314  220.1558 H   0  0  0  0  0  0  0  0  0  0  0  0
  139.9989   78.1879  218.5513 H   0  0  0  0  0  0  0  0  0  0  0  0
  137.9951   77.5205  222.6708 H   0  0  0  0  0  0  0  0  0  0  0  0
  138.4659   79.8016  223.5674 H   0  0  0  0  0  0  0  0  0  0  0  0
  140.0185   81.6169  224.1681 H   0  0  0  0  0  0  0  0  0  0  0  0
  142.4265   82.3367  224.2406 H   0  0  0  0  0  0  0  0  0  0  0  0
  144.2260   80.8645  223.4628 H   0  0  0  0  0  0  0  0  0  0  0  0
  143.7220   78.6121  222.5815 H   0  0  0  0  0  0  0  0  0  0  0  0
  1  2  2  0
  2  3  1  0
  3  4  1  0
  4  5  1  0
  5  6  2  0
  5  7  1  0
  7  8  1  0
  8  9  1  0
  9 10  1  0
  9 11  1  0
 11 12  1  0
 12 13  1  0
 13 14  1  0
 14 15  1  0
 15 16  1  0
 16 17  1  0
 17 18  1  0
 18 19  1  0
  2 20  1  0
 20 21  2  0
 21 22  1  0
 22 23  2  0
 23 24  1  0
 24 25  2  0
 25 26  1  0
 26 27  2  0
 27 28  1  0
 28 29  2  0
 12  7  1  0
 19 15  1  0
 29 20  1  0
 28 23  1  0
  3 30  1  0
  4 31  1  0
  4 32  1  0
  8 33  1  0
  8 34  1  0
  9 35  1  6
 10 36  1  0
 11 37  1  0
 11 38  1  0
 12 39  1  1
 13 40  1  0
 13 41  1  0
 15 42  1  0
 16 43  1  0
 16 44  1  0
 17 45  1  0
 17 46  1  0
 18 47  1  0
 18 48  1  0
 19 49  1  0
 19 50  1  0
 21 51  1  0
 22 52  1  0
 24 53  1  0
 25 54  1  0
 26 55  1  0
 27 56  1  0
M  END
>  <smiles>  (45) 
O=C(NCC(=O)N1C[C@H](O)C[C@H]1COC1CCCC1)c1ccc2ccccc2n1

>  <score_type>  (45) 
oracle

>  <origin>  (45) 
autodockgpu

>  <m_score__min__energy>  (45) 
-8.5500000000000007

>  <m_primary>  (45) 
energy

>  <rmsd>  (45) 
7.647114086647491

>  <m_score__min__rmsd>  (45) 
7.647114086647491

>  <meeko>  (45) 
{"free_energy": -7.31, "intermolecular_energy": -9.69, "internal_energy": -3.54, "cluster_size": 33, "cluster_id": 4, "rank_in_cluster": 1}

>  <energy>  (45) 
-6.75

>  <cluster_rmsd>  (45) 
0.78

>  <cluster>  (45) 
4

$$$$

     RDKit          3D

 56 59  0  0  0  0  0  0  0  0999 V2000
  139.8600   74.1420  222.3340 O   0  0  0  0  0  0  0  0  0  0  0  0
  140.2970   75.0960  221.6090 C   0  0  0  0  0  0  0  0  0  0  0  0
  140.8420   74.7980  220.3300 N   0  0  0  0  0  0  0  0  0  0  0  0
  140.9250   73.4480  219.8060 C   0  0  0  0  0  0  0  0  0  0  0  0
  142.1030   72.7870  220.4060 C   0  0  0  0  0  0  0  0  0  0  0  0
  141.9110   71.8260  221.1920 O   0  0  0  0  0  0  0  0  0  0  0  0
  143.3840   73.2840  220.0580 N   0  0  0  0  0  0  0  0  0  0  0  0
  144.2550   72.9460  218.9500 C   0  0  0  0  0  0  0  0  0  0  0  0
  145.6600   73.1080  219.5450 C   0  0  2  0  0  0  0  0  0  0  0  0
  146.3150   71.8790  219.5800 O   0  0  0  0  0  0  0  0  0  0  0  0
  145.4140   73.5890  220.9640 C   0  0  0  0  0  0  0  0  0  0  0  0
  144.1520   74.3350  220.8110 C   0  0  1  0  0  0  0  0  0  0  0  0
  144.0920   75.6100  220.0880 C   0  0  0  0  0  0  0  0  0  0  0  0
  143.1920   75.6940  219.0980 O   0  0  0  0  0  0  0  0  0  0  0  0
  143.2970   76.6350  218.1350 C   0  0  0  0  0  0  0  0  0  0  0  0
  142.6190   77.9080  218.6490 C   0  0  0  0  0  0  0  0  0  0  0  0
  141.1440   77.6430  218.4470 C   0  0  0  0  0  0  0  0  0  0  0  0
  141.0300   76.3680  217.6340 C   0  0  0  0  0  0  0  0  0  0  0  0
  142.3780   76.3290  216.9450 C   0  0  0  0  0  0  0  0  0  0  0  0
  140.2330   76.4670  222.0970 C   0  0  0  0  0  0  0  0  0  0  0  0
  139.0080   77.0090  222.4560 C   0  0  0  0  0  0  0  0  0  0  0  0
  139.0310   78.3190  222.9110 C   0  0  0  0  0  0  0  0  0  0  0  0
  140.1960   79.0580  223.0050 C   0  0  0  0  0  0  0  0  0  0  0  0
  140.1790   80.3790  223.4700 C   0  0  0  0  0  0  0  0  0  0  0  0
  141.4220   81.0080  223.5160 C   0  0  0  0  0  0  0  0  0  0  0  0
  142.5860   80.3750  223.1320 C   0  0  0  0  0  0  0  0  0  0  0  0
  142.5650   79.0850  222.6840 C   0  0  0  0  0  0  0  0  0  0  0  0
  141.3590   78.4290  222.6230 C   0  0  0  0  0  0  0  0  0  0  0  0
  141.3410   77.1800  222.1900 N   0  0  0  0  0  0  0  0  0  0  0  0
  141.1870   75.6140  219.7740 H   0  0  0  0  0  0  0  0  0  0  0  0
  140.0131   72.8912  220.0674 H   0  0  0  0  0  0  0  0  0  0  0  0
  141.0223   73.4728  218.7106 H   0  0  0  0  0  0  0  0  0  0  0  0
  144.0851   71.9117  218.6162 H   0  0  0  0  0  0  0  0  0  0  0  0
  144.0876   73.5745  218.0629 H   0  0  0  0  0  0  0  0  0  0  0  0
  146.2841   73.7974  218.9575 H   0  0  0  0  0  0  0  0  0  0  0  0
  146.3420   71.5040  220.4990 H   0  0  0  0  0  0  0  0  0  0  0  0
  145.2991   72.7446  221.6595 H   0  0  0  0  0  0  0  0  0  0  0  0
  146.2378   74.1855  221.3829 H   0  0  0  0  0  0  0  0  0  0  0  0
  143.8165   74.7049  221.7911 H   0  0  0  0  0  0  0  0  0  0  0  0
  143.8593   76.3982  220.8191 H   0  0  0  0  0  0  0  0  0  0  0  0
  145.0723   75.7147  219.6001 H   0  0  0  0  0  0  0  0  0  0  0  0
  144.3639   76.6968  217.8746 H   0  0  0  0  0  0  0  0  0  0  0  0
  142.8453   78.0692  219.7133 H   0  0  0  0  0  0  0  0  0  0  0  0
  142.9627   78.8122  218.1252 H   0  0  0  0  0  0  0  0  0  0  0  0
  140.6462   77.5166  219.4197 H   0  0  0  0  0  0  0  0  0  0  0  0
  140.6615   78.4842  217.9278 H   0  0  0  0  0  0  0  0  0  0  0  0
  140.8836   75.4905  218.2809 H   0  0  0  0  0  0  0  0  0  0  0  0
  140.1729   76.3502  216.9448 H   0  0  0  0  0  0  0  0  0  0  0  0
  142.5865   75.3393  216.5126 H   0  0  0  0  0  0  0  0  0  0  0  0
  142.4815   77.0160  216.0922 H   0  0  0  0  0  0  0  0  0  0  0  0
  138.0731   76.4338  222.3841 H   0  0  0  0  0  0  0  0  0  0  0  0
  138.0828   78.7898  223.2096 H   0  0  0  0  0  0  0  0  0  0  0  0
  139.2512   80.8839  223.7769 H   0  0  0  0  0  0  0  0  0  0  0  0
  141.4768   82.0475  223.8716 H   0  0  0  0  0  0  0  0  0  0  0  0
  143.5424   80.9156  223.1873 H   0  0  0  0  0  0  0  0  0  0  0  0
  143.4941   78.5816  222.3784 H   0  0  0  0  0  0  0  0  0  0  0  0
  1  2  2  0
  2  3  1  0
  3  4  1  0
  4  5  1  0
  5  6  2  0
  5  7  1  0
  7  8  1  0
  8  9  1  0
  9 10  1  0
  9 11  1  0
 11 12  1  0
 12 13  1  0
 13 14  1  0
 14 15  1  0
 15 16  1  0
 16 17  1  0
 17 18  1  0
 18 19  1  0
  2 20  1  0
 20 21  2  0
 21 22  1  0
 22 23  2  0
 23 24  1  0
 24 25  2  0
 25 26  1  0
 26 27  2  0
 27 28  1  0
 28 29  2  0
 12  7  1  0
 19 15  1  0
 29 20  1  0
 28 23  1  0
  3 30  1  0
  4 31  1  0
  4 32  1  0
  8 33  1  0
  8 34  1  0
  9 35  1  6
 10 36  1  0
 11 37  1  0
 11 38  1  0
 12 39  1  1
 13 40  1  0
 13 41  1  0
 15 42  1  0
 16 43  1  0
 16 44  1  0
 17 45  1  0
 17 46  1  0
 18 47  1  0
 18 48  1  0
 19 49  1  0
 19 50  1  0
 21 51  1  0
 22 52  1  0
 24 53  1  0
 25 54  1  0
 26 55  1  0
 27 56  1  0
M  END
>  <smiles>  (46) 
O=C(NCC(=O)N1C[C@H](O)C[C@H]1COC1CCCC1)c1ccc2ccccc2n1

>  <score_type>  (46) 
oracle

>  <origin>  (46) 
autodockgpu

>  <m_score__min__energy>  (46) 
-8.5500000000000007

>  <m_primary>  (46) 
energy

>  <rmsd>  (46) 
7.469518190359405

>  <m_score__min__rmsd>  (46) 
7.469518190359405

>  <meeko>  (46) 
{"free_energy": -6.85, "intermolecular_energy": -9.24, "internal_energy": -3.47, "cluster_size": 33, "cluster_id": 4, "rank_in_cluster": 25}

>  <energy>  (46) 
-6.58

>  <cluster_rmsd>  (46) 
0.8

>  <cluster>  (46) 
4

$$$$

     RDKit          3D

 56 59  0  0  0  0  0  0  0  0999 V2000
  138.7540   75.4710  221.0540 O   0  0  0  0  0  0  0  0  0  0  0  0
  139.9140   75.8240  221.4500 C   0  0  0  0  0  0  0  0  0  0  0  0
  141.0090   74.9370  221.2580 N   0  0  0  0  0  0  0  0  0  0  0  0
  140.8660   73.6380  220.6270 C   0  0  0  0  0  0  0  0  0  0  0  0
  142.0680   72.8360  220.9380 C   0  0  0  0  0  0  0  0  0  0  0  0
  141.9570   71.8910  221.7590 O   0  0  0  0  0  0  0  0  0  0  0  0
  143.2780   73.1860  220.2890 N   0  0  0  0  0  0  0  0  0  0  0  0
  143.8450   72.7180  219.0390 C   0  0  0  0  0  0  0  0  0  0  0  0
  145.3560   72.7590  219.3010 C   0  0  2  0  0  0  0  0  0  0  0  0
  145.8880   71.4710  219.2660 O   0  0  0  0  0  0  0  0  0  0  0  0
  145.4780   73.3160  220.7080 C   0  0  0  0  0  0  0  0  0  0  0  0
  144.2880   74.1810  220.7900 C   0  0  1  0  0  0  0  0  0  0  0  0
  144.1840   75.4260  220.0220 C   0  0  0  0  0  0  0  0  0  0  0  0
  142.9500   75.9230  219.8530 O   0  0  0  0  0  0  0  0  0  0  0  0
  142.7280   76.9830  219.0460 C   0  0  0  0  0  0  0  0  0  0  0  0
  141.2190   77.0700  218.7940 C   0  0  0  0  0  0  0  0  0  0  0  0
  140.9640   76.0140  217.7400 C   0  0  0  0  0  0  0  0  0  0  0  0
  142.3190   75.5290  217.2620 C   0  0  0  0  0  0  0  0  0  0  0  0
  143.2020   76.7090  217.6120 C   0  0  0  0  0  0  0  0  0  0  0  0
  140.1010   77.1200  222.0880 C   0  0  0  0  0  0  0  0  0  0  0  0
  139.0090   77.7800  222.6310 C   0  0  0  0  0  0  0  0  0  0  0  0
  139.2690   79.0080  223.2200 C   0  0  0  0  0  0  0  0  0  0  0  0
  140.5360   79.5590  223.2720 C   0  0  0  0  0  0  0  0  0  0  0  0
  140.7600   80.8020  223.8760 C   0  0  0  0  0  0  0  0  0  0  0  0
  142.0830   81.2400  223.8590 C   0  0  0  0  0  0  0  0  0  0  0  0
  143.1000   80.5030  223.2890 C   0  0  0  0  0  0  0  0  0  0  0  0
  142.8450   79.2940  222.7080 C   0  0  0  0  0  0  0  0  0  0  0  0
  141.5530   78.8260  222.7040 C   0  0  0  0  0  0  0  0  0  0  0  0
  141.3080   77.6540  222.1410 N   0  0  0  0  0  0  0  0  0  0  0  0
  141.9390   75.2720  221.5990 H   0  0  0  0  0  0  0  0  0  0  0  0
  139.9703   73.1320  221.0163 H   0  0  0  0  0  0  0  0  0  0  0  0
  140.7598   73.7551  219.5384 H   0  0  0  0  0  0  0  0  0  0  0  0
  143.5116   71.6943  218.8137 H   0  0  0  0  0  0  0  0  0  0  0  0
  143.5410   73.3254  218.1738 H   0  0  0  0  0  0  0  0  0  0  0  0
  145.8928   73.3582  218.5508 H   0  0  0  0  0  0  0  0  0  0  0  0
  145.9660   71.0820  220.1770 H   0  0  0  0  0  0  0  0  0  0  0  0
  145.4442   72.5148  221.4609 H   0  0  0  0  0  0  0  0  0  0  0  0
  146.4257   73.8402  220.9005 H   0  0  0  0  0  0  0  0  0  0  0  0
  144.2163   74.6215  221.7954 H   0  0  0  0  0  0  0  0  0  0  0  0
  144.7837   76.1891  220.5396 H   0  0  0  0  0  0  0  0  0  0  0  0
  144.5380   75.1752  219.0112 H   0  0  0  0  0  0  0  0  0  0  0  0
  143.2151   77.8462  219.5232 H   0  0  0  0  0  0  0  0  0  0  0  0
  140.6555   76.8499  219.7127 H   0  0  0  0  0  0  0  0  0  0  0  0
  140.8995   78.0731  218.4752 H   0  0  0  0  0  0  0  0  0  0  0  0
  140.3946   75.1782  218.1726 H   0  0  0  0  0  0  0  0  0  0  0  0
  140.3774   76.4257  216.9055 H   0  0  0  0  0  0  0  0  0  0  0  0
  142.6321   74.6201  217.7966 H   0  0  0  0  0  0  0  0  0  0  0  0
  142.3457   75.2483  216.1987 H   0  0  0  0  0  0  0  0  0  0  0  0
  144.2691   76.4440  217.5787 H   0  0  0  0  0  0  0  0  0  0  0  0
  143.1222   77.5658  216.9268 H   0  0  0  0  0  0  0  0  0  0  0  0
  137.9954   77.3541  222.5965 H   0  0  0  0  0  0  0  0  0  0  0  0
  138.4324   79.5671  223.6644 H   0  0  0  0  0  0  0  0  0  0  0  0
  139.9500   81.3907  224.3313 H   0  0  0  0  0  0  0  0  0  0  0  0
  142.3252   82.2101  224.3175 H   0  0  0  0  0  0  0  0  0  0  0  0
  144.1282   80.8937  223.3027 H   0  0  0  0  0  0  0  0  0  0  0  0
  143.6565   78.7072  222.2528 H   0  0  0  0  0  0  0  0  0  0  0  0
  1  2  2  0
  2  3  1  0
  3  4  1  0
  4  5  1  0
  5  6  2  0
  5  7  1  0
  7  8  1  0
  8  9  1  0
  9 10  1  0
  9 11  1  0
 11 12  1  0
 12 13  1  0
 13 14  1  0
 14 15  1  0
 15 16  1  0
 16 17  1  0
 17 18  1  0
 18 19  1  0
  2 20  1  0
 20 21  2  0
 21 22  1  0
 22 23  2  0
 23 24  1  0
 24 25  2  0
 25 26  1  0
 26 27  2  0
 27 28  1  0
 28 29  2  0
 12  7  1  0
 19 15  1  0
 29 20  1  0
 28 23  1  0
  3 30  1  0
  4 31  1  0
  4 32  1  0
  8 33  1  0
  8 34  1  0
  9 35  1  6
 10 36  1  0
 11 37  1  0
 11 38  1  0
 12 39  1  1
 13 40  1  0
 13 41  1  0
 15 42  1  0
 16 43  1  0
 16 44  1  0
 17 45  1  0
 17 46  1  0
 18 47  1  0
 18 48  1  0
 19 49  1  0
 19 50  1  0
 21 51  1  0
 22 52  1  0
 24 53  1  0
 25 54  1  0
 26 55  1  0
 27 56  1  0
M  END
>  <smiles>  (47) 
O=C(NCC(=O)N1C[C@H](O)C[C@H]1COC1CCCC1)c1ccc2ccccc2n1

>  <score_type>  (47) 
oracle

>  <origin>  (47) 
autodockgpu

>  <m_score__min__energy>  (47) 
-8.5500000000000007

>  <m_primary>  (47) 
energy

>  <rmsd>  (47) 
7.675858643864968

>  <m_score__min__rmsd>  (47) 
7.675858643864968

>  <meeko>  (47) 
{"free_energy": -6.45, "intermolecular_energy": -8.84, "internal_energy": -3.5, "cluster_size": 33, "cluster_id": 4, "rank_in_cluster": 31}

>  <energy>  (47) 
-6.45

>  <cluster_rmsd>  (47) 
0.7

>  <cluster>  (47) 
4

$$$$

     RDKit          3D

 56 59  0  0  0  0  0  0  0  0999 V2000
  140.6520   71.5670  221.3550 O   0  0  0  0  0  0  0  0  0  0  0  0
  140.1830   72.1010  222.4140 C   0  0  0  0  0  0  0  0  0  0  0  0
  139.7100   73.4420  222.3600 N   0  0  0  0  0  0  0  0  0  0  0  0
  139.7360   74.2360  221.1460 C   0  0  0  0  0  0  0  0  0  0  0  0
  139.5470   75.6540  221.5140 C   0  0  0  0  0  0  0  0  0  0  0  0
  138.9990   75.9170  222.6140 O   0  0  0  0  0  0  0  0  0  0  0  0
  139.9970   76.6370  220.5970 N   0  0  0  0  0  0  0  0  0  0  0  0
  139.2640   77.6700  219.8900 C   0  0  0  0  0  0  0  0  0  0  0  0
  140.0160   77.7840  218.5570 C   0  0  2  0  0  0  0  0  0  0  0  0
  139.1920   77.3960  217.5020 O   0  0  0  0  0  0  0  0  0  0  0  0
  141.1650   76.8000  218.6880 C   0  0  0  0  0  0  0  0  0  0  0  0
  141.4160   76.8280  220.1400 C   0  0  1  0  0  0  0  0  0  0  0  0
  141.9990   78.0020  220.8000 C   0  0  0  0  0  0  0  0  0  0  0  0
  141.2570   78.5790  221.7560 O   0  0  0  0  0  0  0  0  0  0  0  0
  141.7330   78.7370  223.0100 C   0  0  0  0  0  0  0  0  0  0  0  0
  140.6510   79.4370  223.8370 C   0  0  0  0  0  0  0  0  0  0  0  0
  140.7720   80.8920  223.4390 C   0  0  0  0  0  0  0  0  0  0  0  0
  142.0310   81.0190  222.6020 C   0  0  0  0  0  0  0  0  0  0  0  0
  142.8240   79.8150  223.0670 C   0  0  0  0  0  0  0  0  0  0  0  0
  140.1380   71.3390  223.6540 C   0  0  0  0  0  0  0  0  0  0  0  0
  139.6210   70.0520  223.6490 C   0  0  0  0  0  0  0  0  0  0  0  0
  139.6130   69.3920  224.8680 C   0  0  0  0  0  0  0  0  0  0  0  0
  140.0870   69.9680  226.0330 C   0  0  0  0  0  0  0  0  0  0  0  0
  140.0620   69.2700  227.2470 C   0  0  0  0  0  0  0  0  0  0  0  0
  140.5710   69.9670  228.3420 C   0  0  0  0  0  0  0  0  0  0  0  0
  141.0630   71.2510  228.2390 C   0  0  0  0  0  0  0  0  0  0  0  0
  141.0710   71.9010  227.0380 C   0  0  0  0  0  0  0  0  0  0  0  0
  140.5790   71.2500  225.9330 C   0  0  0  0  0  0  0  0  0  0  0  0
  140.5880   71.8810  224.7710 N   0  0  0  0  0  0  0  0  0  0  0  0
  139.3350   73.8350  223.2530 H   0  0  0  0  0  0  0  0  0  0  0  0
  140.7042   74.1092  220.6395 H   0  0  0  0  0  0  0  0  0  0  0  0
  138.9358   73.9119  220.4644 H   0  0  0  0  0  0  0  0  0  0  0  0
  138.2179   77.3709  219.7283 H   0  0  0  0  0  0  0  0  0  0  0  0
  139.2178   78.6205  220.4418 H   0  0  0  0  0  0  0  0  0  0  0  0
  140.3495   78.8123  218.3537 H   0  0  0  0  0  0  0  0  0  0  0  0
  138.4380   76.8290  217.8160 H   0  0  0  0  0  0  0  0  0  0  0  0
  140.8728   75.7946  218.3506 H   0  0  0  0  0  0  0  0  0  0  0  0
  142.0437   77.0547  218.0773 H   0  0  0  0  0  0  0  0  0  0  0  0
  142.2067   76.1071  220.3951 H   0  0  0  0  0  0  0  0  0  0  0  0
  142.9501   77.6910  221.2568 H   0  0  0  0  0  0  0  0  0  0  0  0
  142.0991   78.7611  220.0102 H   0  0  0  0  0  0  0  0  0  0  0  0
  142.0650   77.7432  223.3448 H   0  0  0  0  0  0  0  0  0  0  0  0
  139.6537   79.0450  223.5884 H   0  0  0  0  0  0  0  0  0  0  0  0
  140.7772   79.2815  224.9186 H   0  0  0  0  0  0  0  0  0  0  0  0
  139.8944   81.1969  222.8501 H   0  0  0  0  0  0  0  0  0  0  0  0
  140.8237   81.5392  224.3270 H   0  0  0  0  0  0  0  0  0  0  0  0
  141.8064   80.9616  221.5267 H   0  0  0  0  0  0  0  0  0  0  0  0
  142.5568   81.9774  222.7244 H   0  0  0  0  0  0  0  0  0  0  0  0
  143.6578   79.5880  222.3863 H   0  0  0  0  0  0  0  0  0  0  0  0
  143.3091   79.9310  224.0474 H   0  0  0  0  0  0  0  0  0  0  0  0
  139.2393   69.5821  222.7306 H   0  0  0  0  0  0  0  0  0  0  0  0
  139.2133   68.3681  224.9107 H   0  0  0  0  0  0  0  0  0  0  0  0
  139.6692   68.2459  227.3305 H   0  0  0  0  0  0  0  0  0  0  0  0
  140.5804   69.4740  229.3253 H   0  0  0  0  0  0  0  0  0  0  0  0
  141.4534   71.7573  229.1341 H   0  0  0  0  0  0  0  0  0  0  0  0
  141.4636   72.9254  226.9571 H   0  0  0  0  0  0  0  0  0  0  0  0
  1  2  2  0
  2  3  1  0
  3  4  1  0
  4  5  1  0
  5  6  2  0
  5  7  1  0
  7  8  1  0
  8  9  1  0
  9 10  1  0
  9 11  1  0
 11 12  1  0
 12 13  1  0
 13 14  1  0
 14 15  1  0
 15 16  1  0
 16 17  1  0
 17 18  1  0
 18 19  1  0
  2 20  1  0
 20 21  2  0
 21 22  1  0
 22 23  2  0
 23 24  1  0
 24 25  2  0
 25 26  1  0
 26 27  2  0
 27 28  1  0
 28 29  2  0
 12  7  1  0
 19 15  1  0
 29 20  1  0
 28 23  1  0
  3 30  1  0
  4 31  1  0
  4 32  1  0
  8 33  1  0
  8 34  1  0
  9 35  1  6
 10 36  1  0
 11 37  1  0
 11 38  1  0
 12 39  1  6
 13 40  1  0
 13 41  1  0
 15 42  1  0
 16 43  1  0
 16 44  1  0
 17 45  1  0
 17 46  1  0
 18 47  1  0
 18 48  1  0
 19 49  1  0
 19 50  1  0
 21 51  1  0
 22 52  1  0
 24 53  1  0
 25 54  1  0
 26 55  1  0
 27 56  1  0
M  END
>  <smiles>  (48) 
O=C(NCC(=O)N1C[C@H](O)C[C@H]1COC1CCCC1)c1ccc2ccccc2n1

>  <score_type>  (48) 
oracle

>  <origin>  (48) 
autodockgpu

>  <m_score__min__energy>  (48) 
-8.5500000000000007

>  <m_primary>  (48) 
energy

>  <rmsd>  (48) 
1.7258652608982876

>  <m_score__min__rmsd>  (48) 
1.7258652608982876

>  <meeko>  (48) 
{"free_energy": -7.64, "intermolecular_energy": -10.03, "internal_energy": -2.18, "cluster_size": 14, "cluster_id": 1, "rank_in_cluster": 10}

>  <energy>  (48) 
-6.33

>  <cluster_rmsd>  (48) 
0.97

>  <cluster>  (48) 
4

$$$$

     RDKit          3D

 56 59  0  0  0  0  0  0  0  0999 V2000
  141.2870   71.5250  221.5380 O   0  0  0  0  0  0  0  0  0  0  0  0
  140.6120   72.0730  222.4710 C   0  0  0  0  0  0  0  0  0  0  0  0
  140.1890   73.4220  222.3170 N   0  0  0  0  0  0  0  0  0  0  0  0
  140.4920   74.2110  221.1380 C   0  0  0  0  0  0  0  0  0  0  0  0
  140.3240   75.6390  221.4780 C   0  0  0  0  0  0  0  0  0  0  0  0
  139.4480   75.9520  222.3220 O   0  0  0  0  0  0  0  0  0  0  0  0
  141.1660   76.5740  220.8240 N   0  0  0  0  0  0  0  0  0  0  0  0
  141.5810   77.9050  221.2210 C   0  0  0  0  0  0  0  0  0  0  0  0
  141.7060   78.6470  219.8840 C   0  0  2  0  0  0  0  0  0  0  0  0
  140.7670   79.6740  219.8100 O   0  0  0  0  0  0  0  0  0  0  0  0
  141.3850   77.5940  218.8380 C   0  0  0  0  0  0  0  0  0  0  0  0
  141.8510   76.3640  219.5020 C   0  0  1  0  0  0  0  0  0  0  0  0
  143.2770   76.0950  219.7170 C   0  0  0  0  0  0  0  0  0  0  0  0
  143.6810   74.8300  219.5300 O   0  0  0  0  0  0  0  0  0  0  0  0
  143.8730   73.9960  220.5750 C   0  0  0  0  0  0  0  0  0  0  0  0
  145.3710   73.9870  220.8970 C   0  0  0  0  0  0  0  0  0  0  0  0
  145.9630   73.0670  219.8520 C   0  0  0  0  0  0  0  0  0  0  0  0
  144.8010   72.4100  219.1310 C   0  0  0  0  0  0  0  0  0  0  0  0
  143.7000   72.5280  220.1640 C   0  0  0  0  0  0  0  0  0  0  0  0
  140.2860   71.3170  223.6720 C   0  0  0  0  0  0  0  0  0  0  0  0
  139.5650   70.1370  223.5650 C   0  0  0  0  0  0  0  0  0  0  0  0
  139.2950   69.4760  224.7530 C   0  0  0  0  0  0  0  0  0  0  0  0
  139.7100   69.9500  225.9840 C   0  0  0  0  0  0  0  0  0  0  0  0
  139.4190   69.2540  227.1630 C   0  0  0  0  0  0  0  0  0  0  0  0
  139.8970   69.8420  228.3330 C   0  0  0  0  0  0  0  0  0  0  0  0
  140.6070   71.0250  228.3300 C   0  0  0  0  0  0  0  0  0  0  0  0
  140.8740   71.6760  227.1600 C   0  0  0  0  0  0  0  0  0  0  0  0
  140.4200   71.1300  225.9850 C   0  0  0  0  0  0  0  0  0  0  0  0
  140.6790   71.7630  224.8520 N   0  0  0  0  0  0  0  0  0  0  0  0
  139.6390   73.8260  223.1100 H   0  0  0  0  0  0  0  0  0  0  0  0
  141.5288   74.0237  220.8218 H   0  0  0  0  0  0  0  0  0  0  0  0
  139.8163   73.9360  220.3147 H   0  0  0  0  0  0  0  0  0  0  0  0
  140.8253   78.3780  221.8654 H   0  0  0  0  0  0  0  0  0  0  0  0
  142.5128   77.9098  221.8056 H   0  0  0  0  0  0  0  0  0  0  0  0
  142.6998   79.0994  219.7508 H   0  0  0  0  0  0  0  0  0  0  0  0
  139.8720   79.3330  219.5440 H   0  0  0  0  0  0  0  0  0  0  0  0
  140.3060   77.5526  218.6282 H   0  0  0  0  0  0  0  0  0  0  0  0
  141.8525   77.7786  217.8595 H   0  0  0  0  0  0  0  0  0  0  0  0
  141.6304   75.4923  218.8683 H   0  0  0  0  0  0  0  0  0  0  0  0
  143.8458   76.7335  219.0251 H   0  0  0  0  0  0  0  0  0  0  0  0
  143.4559   76.3039  220.7821 H   0  0  0  0  0  0  0  0  0  0  0  0
  143.1844   74.3250  221.3672 H   0  0  0  0  0  0  0  0  0  0  0  0
  145.7953   74.9984  220.8133 H   0  0  0  0  0  0  0  0  0  0  0  0
  145.5819   73.6535  221.9238 H   0  0  0  0  0  0  0  0  0  0  0  0
  146.5711   73.6450  219.1405 H   0  0  0  0  0  0  0  0  0  0  0  0
  146.6143   72.3122  220.3168 H   0  0  0  0  0  0  0  0  0  0  0  0
  144.5447   72.9491  218.2070 H   0  0  0  0  0  0  0  0  0  0  0  0
  145.0009   71.3789  218.8040 H   0  0  0  0  0  0  0  0  0  0  0  0
  142.7083   72.3412  219.7262 H   0  0  0  0  0  0  0  0  0  0  0  0
  143.7629   71.8058  220.9913 H   0  0  0  0  0  0  0  0  0  0  0  0
  139.2269   69.7481  222.5932 H   0  0  0  0  0  0  0  0  0  0  0  0
  138.7268   68.5349  224.7150 H   0  0  0  0  0  0  0  0  0  0  0  0
  138.8535   68.3105  227.1661 H   0  0  0  0  0  0  0  0  0  0  0  0
  139.7009   69.3444  229.2942 H   0  0  0  0  0  0  0  0  0  0  0  0
  140.9620   71.4485  229.2811 H   0  0  0  0  0  0  0  0  0  0  0  0
  141.4411   72.6185  227.1588 H   0  0  0  0  0  0  0  0  0  0  0  0
  1  2  2  0
  2  3  1  0
  3  4  1  0
  4  5  1  0
  5  6  2  0
  5  7  1  0
  7  8  1  0
  8  9  1  0
  9 10  1  0
  9 11  1  0
 11 12  1  0
 12 13  1  0
 13 14  1  0
 14 15  1  0
 15 16  1  0
 16 17  1  0
 17 18  1  0
 18 19  1  0
  2 20  1  0
 20 21  2  0
 21 22  1  0
 22 23  2  0
 23 24  1  0
 24 25  2  0
 25 26  1  0
 26 27  2  0
 27 28  1  0
 28 29  2  0
 12  7  1  0
 19 15  1  0
 29 20  1  0
 28 23  1  0
  3 30  1  0
  4 31  1  0
  4 32  1  0
  8 33  1  0
  8 34  1  0
  9 35  1  6
 10 36  1  0
 11 37  1  0
 11 38  1  0
 12 39  1  6
 13 40  1  0
 13 41  1  0
 15 42  1  0
 16 43  1  0
 16 44  1  0
 17 45  1  0
 17 46  1  0
 18 47  1  0
 18 48  1  0
 19 49  1  0
 19 50  1  0
 21 51  1  0
 22 52  1  0
 24 53  1  0
 25 54  1  0
 26 55  1  0
 27 56  1  0
M  END
>  <smiles>  (49) 
O=C(NCC(=O)N1C[C@H](O)C[C@H]1COC1CCCC1)c1ccc2ccccc2n1

>  <score_type>  (49) 
oracle

>  <origin>  (49) 
autodockgpu

>  <m_score__min__energy>  (49) 
-8.5500000000000007

>  <m_primary>  (49) 
energy

>  <rmsd>  (49) 
2.4048307783644414

>  <m_score__min__rmsd>  (49) 
2.4048307783644414

>  <meeko>  (49) 
{"free_energy": -7.62, "intermolecular_energy": -10.0, "internal_energy": -2.23, "cluster_size": 1, "cluster_id": 2, "rank_in_cluster": 1}

>  <energy>  (49) 
-6.05

>  <cluster_rmsd>  (49) 
1.13

>  <cluster>  (49) 
4

$$$$

     RDKit          3D

 56 59  0  0  0  0  0  0  0  0999 V2000
  139.3220   74.4720  222.4050 O   0  0  0  0  0  0  0  0  0  0  0  0
  140.0800   75.3300  221.8420 C   0  0  0  0  0  0  0  0  0  0  0  0
  140.8960   74.9200  220.7510 N   0  0  0  0  0  0  0  0  0  0  0  0
  140.9060   73.5610  220.2440 C   0  0  0  0  0  0  0  0  0  0  0  0
  142.1270   72.8900  220.7350 C   0  0  0  0  0  0  0  0  0  0  0  0
  142.0050   71.9960  221.6100 O   0  0  0  0  0  0  0  0  0  0  0  0
  143.3690   73.3010  220.1880 N   0  0  0  0  0  0  0  0  0  0  0  0
  144.1430   72.7480  219.0940 C   0  0  0  0  0  0  0  0  0  0  0  0
  145.5930   73.0120  219.5220 C   0  0  2  0  0  0  0  0  0  0  0  0
  146.2600   71.8070  219.7360 O   0  0  0  0  0  0  0  0  0  0  0  0
  145.4660   73.7590  220.8380 C   0  0  0  0  0  0  0  0  0  0  0  0
  144.1900   74.4710  220.6540 C   0  0  1  0  0  0  0  0  0  0  0  0
  144.0550   75.5830  219.7060 C   0  0  0  0  0  0  0  0  0  0  0  0
  142.9620   76.3490  219.8350 O   0  0  0  0  0  0  0  0  0  0  0  0
  142.7890   77.4530  219.0770 C   0  0  0  0  0  0  0  0  0  0  0  0
  141.4120   78.0360  219.4070 C   0  0  0  0  0  0  0  0  0  0  0  0
  140.4510   77.1610  218.6310 C   0  0  0  0  0  0  0  0  0  0  0  0
  141.2880   76.2800  217.7240 C   0  0  0  0  0  0  0  0  0  0  0  0
  142.5590   77.0940  217.6030 C   0  0  0  0  0  0  0  0  0  0  0  0
  140.1010   76.7050  222.3200 C   0  0  0  0  0  0  0  0  0  0  0  0
  138.9110   77.3320  222.6570 C   0  0  0  0  0  0  0  0  0  0  0  0
  139.0150   78.6410  223.1040 C   0  0  0  0  0  0  0  0  0  0  0  0
  140.2250   79.3000  223.2110 C   0  0  0  0  0  0  0  0  0  0  0  0
  140.2900   80.6230  223.6670 C   0  0  0  0  0  0  0  0  0  0  0  0
  141.5720   81.1660  223.7280 C   0  0  0  0  0  0  0  0  0  0  0  0
  142.6970   80.4540  223.3650 C   0  0  0  0  0  0  0  0  0  0  0  0
  142.5950   79.1650  222.9260 C   0  0  0  0  0  0  0  0  0  0  0  0
  141.3490   78.5920  222.8510 C   0  0  0  0  0  0  0  0  0  0  0  0
  141.2530   77.3430  222.4250 N   0  0  0  0  0  0  0  0  0  0  0  0
  141.5000   75.6590  220.3240 H   0  0  0  0  0  0  0  0  0  0  0  0
  140.0163   73.0235  220.6039 H   0  0  0  0  0  0  0  0  0  0  0  0
  140.8942   73.5675  219.1441 H   0  0  0  0  0  0  0  0  0  0  0  0
  143.9546   71.6700  218.9828 H   0  0  0  0  0  0  0  0  0  0  0  0
  143.8927   73.1936  218.1199 H   0  0  0  0  0  0  0  0  0  0  0  0
  146.1574   73.5710  218.7611 H   0  0  0  0  0  0  0  0  0  0  0  0
  146.2010   71.5200  220.6850 H   0  0  0  0  0  0  0  0  0  0  0  0
  145.4189   73.0651  221.6902 H   0  0  0  0  0  0  0  0  0  0  0  0
  146.3176   74.4184  221.0616 H   0  0  0  0  0  0  0  0  0  0  0  0
  143.9385   75.0262  221.5697 H   0  0  0  0  0  0  0  0  0  0  0  0
  144.9346   76.2327  219.8253 H   0  0  0  0  0  0  0  0  0  0  0  0
  143.9659   75.1125  218.7157 H   0  0  0  0  0  0  0  0  0  0  0  0
  143.6668   78.0924  219.2521 H   0  0  0  0  0  0  0  0  0  0  0  0
  141.2105   77.9769  220.4868 H   0  0  0  0  0  0  0  0  0  0  0  0
  141.3267   79.0999  219.1407 H   0  0  0  0  0  0  0  0  0  0  0  0
  139.8625   76.5402  219.3226 H   0  0  0  0  0  0  0  0  0  0  0  0
  139.7485   77.7723  218.0455 H   0  0  0  0  0  0  0  0  0  0  0  0
  141.4810   75.2991  218.1829 H   0  0  0  0  0  0  0  0  0  0  0  0
  140.8112   76.0464  216.7606 H   0  0  0  0  0  0  0  0  0  0  0  0
  143.3880   76.4976  217.1942 H   0  0  0  0  0  0  0  0  0  0  0  0
  142.4937   77.9553  216.9218 H   0  0  0  0  0  0  0  0  0  0  0  0
  137.9405   76.8208  222.5746 H   0  0  0  0  0  0  0  0  0  0  0  0
  138.0963   79.1767  223.3850 H   0  0  0  0  0  0  0  0  0  0  0  0
  139.3940   81.1920  223.9560 H   0  0  0  0  0  0  0  0  0  0  0  0
  141.6917   82.2016  224.0789 H   0  0  0  0  0  0  0  0  0  0  0  0
  143.6866   80.9299  223.4300 H   0  0  0  0  0  0  0  0  0  0  0  0
  143.4922   78.5973  222.6384 H   0  0  0  0  0  0  0  0  0  0  0  0
  1  2  2  0
  2  3  1  0
  3  4  1  0
  4  5  1  0
  5  6  2  0
  5  7  1  0
  7  8  1  0
  8  9  1  0
  9 10  1  0
  9 11  1  0
 11 12  1  0
 12 13  1  0
 13 14  1  0
 14 15  1  0
 15 16  1  0
 16 17  1  0
 17 18  1  0
 18 19  1  0
  2 20  1  0
 20 21  2  0
 21 22  1  0
 22 23  2  0
 23 24  1  0
 24 25  2  0
 25 26  1  0
 26 27  2  0
 27 28  1  0
 28 29  2  0
 12  7  1  0
 19 15  1  0
 29 20  1  0
 28 23  1  0
  3 30  1  0
  4 31  1  0
  4 32  1  0
  8 33  1  0
  8 34  1  0
  9 35  1  6
 10 36  1  0
 11 37  1  0
 11 38  1  0
 12 39  1  1
 13 40  1  0
 13 41  1  0
 15 42  1  0
 16 43  1  0
 16 44  1  0
 17 45  1  0
 17 46  1  0
 18 47  1  0
 18 48  1  0
 19 49  1  0
 19 50  1  0
 21 51  1  0
 22 52  1  0
 24 53  1  0
 25 54  1  0
 26 55  1  0
 27 56  1  0
M  END
>  <smiles>  (50) 
O=C(NCC(=O)N1C[C@H](O)C[C@H]1COC1CCCC1)c1ccc2ccccc2n1

>  <score_type>  (50) 
oracle

>  <origin>  (50) 
autodockgpu

>  <m_score__min__energy>  (50) 
-8.5500000000000007

>  <m_primary>  (50) 
energy

>  <rmsd>  (50) 
7.52537436741401

>  <m_score__min__rmsd>  (50) 
7.52537436741401

>  <meeko>  (50) 
{"free_energy": -6.97, "intermolecular_energy": -9.36, "internal_energy": -3.57, "cluster_size": 33, "cluster_id": 4, "rank_in_cluster": 23}

>  <energy>  (50) 
-6.88

>  <cluster_rmsd>  (50) 
0.0

>  <cluster>  (50) 
5

$$$$
