untitled_line_1
     RDKit          3D

 62 65  0  0  0  0  0  0  0  0999 V2000
   -4.1529    0.5972    1.8593 H   0  0  0  0  0  0  0  0  0  0  0  0
   -4.2608   -0.2394    1.3037 O   0  0  0  0  0  0  0  0  0  0  0  0
   -3.3935   -0.6059    0.2665 C   0  0  0  0  0  0  0  0  0  0  0  0
   -2.2885    0.0450    0.0343 N   0  0  0  0  0  0  0  0  0  0  0  0
   -1.7726    1.2012    0.7721 C   0  0  2  0  0  0  0  0  0  0  0  0
   -2.5969    1.9336    0.8881 H   0  0  0  0  0  0  0  0  0  0  0  0
   -0.6209    1.8207   -0.0028 C   0  0  0  0  0  0  0  0  0  0  0  0
    0.3862    0.9864   -0.5331 C   0  0  0  0  0  0  0  0  0  0  0  0
    0.3343   -0.0887   -0.4007 H   0  0  0  0  0  0  0  0  0  0  0  0
    1.4722    1.5240   -1.2263 C   0  0  0  0  0  0  0  0  0  0  0  0
    2.2146    0.8483   -1.6330 H   0  0  0  0  0  0  0  0  0  0  0  0
    1.5925    2.9162   -1.3806 C   0  0  0  0  0  0  0  0  0  0  0  0
    2.6605    3.5081   -2.0701 O   0  0  0  0  0  0  0  0  0  0  0  0
    3.7215    2.7844   -2.6830 C   0  0  0  0  0  0  0  0  0  0  0  0
    4.4216    3.5011   -3.1572 H   0  0  0  0  0  0  0  0  0  0  0  0
    4.2739    2.2045   -1.9188 H   0  0  0  0  0  0  0  0  0  0  0  0
    3.3206    2.1065   -3.4655 H   0  0  0  0  0  0  0  0  0  0  0  0
    0.6191    3.7528   -0.8242 C   0  0  0  0  0  0  0  0  0  0  0  0
    0.7229    4.8273   -0.9211 H   0  0  0  0  0  0  0  0  0  0  0  0
   -0.4792    3.2218   -0.1352 C   0  0  0  0  0  0  0  0  0  0  0  0
   -1.6342    4.3545    0.5629 Cl  0  0  0  0  0  0  0  0  0  0  0  0
   -1.2668    0.7821    2.1574 C   0  0  0  0  0  0  0  0  0  0  0  0
   -0.4708    0.0171    2.0584 H   0  0  0  0  0  0  0  0  0  0  0  0
   -0.8515    1.6657    2.6894 H   0  0  0  0  0  0  0  0  0  0  0  0
   -2.0812    0.3565    2.7779 H   0  0  0  0  0  0  0  0  0  0  0  0
   -3.7051   -1.8116   -0.5865 C   0  0  1  0  0  0  0  0  0  0  0  0
   -3.4167   -1.6004   -1.6418 H   0  0  0  0  0  0  0  0  0  0  0  0
   -2.9543   -2.9642   -0.1073 N   0  0  0  0  0  0  0  0  0  0  0  0
   -1.5284   -3.0900   -0.2829 C   0  0  0  0  0  0  0  0  0  0  0  0
   -0.9345   -2.3509   -1.1195 O   0  0  0  0  0  0  0  0  0  0  0  0
   -0.7385   -4.1313    0.4646 C   0  0  0  0  0  0  0  0  0  0  0  0
   -1.2252   -4.3711    1.4368 H   0  0  0  0  0  0  0  0  0  0  0  0
   -0.6963   -5.0598   -0.1408 H   0  0  0  0  0  0  0  0  0  0  0  0
    0.6162   -3.6494    0.7007 N   0  0  0  0  0  0  0  0  0  0  0  0
    0.9108   -2.6293    1.6580 C   0  0  0  0  0  0  0  0  0  0  0  0
    0.1410   -2.4498    2.6422 O   0  0  0  0  0  0  0  0  0  0  0  0
    2.0840   -1.7623    1.4580 C   0  0  0  0  0  0  0  0  0  0  0  0
    2.8659   -1.9467    0.3604 N   0  0  0  0  0  0  0  0  0  0  0  0
    3.9248   -1.1408    0.0835 C   0  0  0  0  0  0  0  0  0  0  0  0
    4.6986   -1.3655   -1.0587 C   0  0  0  0  0  0  0  0  0  0  0  0
    4.4632   -2.1872   -1.7245 H   0  0  0  0  0  0  0  0  0  0  0  0
    5.7824   -0.5276   -1.3445 C   0  0  0  0  0  0  0  0  0  0  0  0
    6.3792   -0.7016   -2.2300 H   0  0  0  0  0  0  0  0  0  0  0  0
    6.0958    0.5361   -0.4924 C   0  0  0  0  0  0  0  0  0  0  0  0
    7.1421    1.3507   -0.7807 F   0  0  0  0  0  0  0  0  0  0  0  0
    5.3231    0.7702    0.6486 C   0  0  0  0  0  0  0  0  0  0  0  0
    5.5665    1.6048    1.2972 H   0  0  0  0  0  0  0  0  0  0  0  0
    4.2363   -0.0665    0.9434 C   0  0  0  0  0  0  0  0  0  0  0  0
    3.4446    0.1425    2.0771 C   0  0  0  0  0  0  0  0  0  0  0  0
    3.6521    0.9626    2.7543 H   0  0  0  0  0  0  0  0  0  0  0  0
    2.3696   -0.7081    2.3404 C   0  0  0  0  0  0  0  0  0  0  0  0
    1.7570   -0.5327    3.2159 H   0  0  0  0  0  0  0  0  0  0  0  0
   -3.8010   -4.0642    0.3180 C   0  0  0  0  0  0  0  0  0  0  0  0
   -3.4492   -5.0232   -0.1225 H   0  0  0  0  0  0  0  0  0  0  0  0
   -3.7769   -4.1401    1.4266 H   0  0  0  0  0  0  0  0  0  0  0  0
   -5.2089   -3.7176   -0.1719 C   0  0  2  0  0  0  0  0  0  0  0  0
   -5.9443   -3.8869    0.6491 H   0  0  0  0  0  0  0  0  0  0  0  0
   -5.5771   -4.5151   -1.2715 O   0  0  0  0  0  0  0  0  0  0  0  0
   -4.9016   -4.3751   -1.9829 H   0  0  0  0  0  0  0  0  0  0  0  0
   -5.1856   -2.2286   -0.5588 C   0  0  0  0  0  0  0  0  0  0  0  0
   -5.6506   -2.0667   -1.5597 H   0  0  0  0  0  0  0  0  0  0  0  0
   -5.7952   -1.6546    0.1726 H   0  0  0  0  0  0  0  0  0  0  0  0
  1  2  1  0
  2  3  1  0
  3  4  2  0
  4  5  1  0
  5  6  1  1
  5  7  1  0
  7  8  2  0
  8  9  1  0
  8 10  1  0
 10 11  1  0
 10 12  2  0
 12 13  1  0
 13 14  1  0
 14 15  1  0
 14 16  1  0
 14 17  1  0
 12 18  1  0
 18 19  1  0
 18 20  2  0
 20 21  1  0
  5 22  1  0
 22 23  1  0
 22 24  1  0
 22 25  1  0
  3 26  1  0
 26 27  1  6
 26 28  1  0
 28 29  1  0
 29 30  2  0
 29 31  1  0
 31 32  1  0
 31 33  1  0
 31 34  1  0
 34 35  1  0
 35 36  2  0
 35 37  1  0
 37 38  2  0
 38 39  1  0
 39 40  2  0
 40 41  1  0
 40 42  1  0
 42 43  1  0
 42 44  2  0
 44 45  1  0
 44 46  1  0
 46 47  1  0
 46 48  2  0
 48 49  1  0
 49 50  1  0
 49 51  2  0
 51 52  1  0
 28 53  1  0
 53 54  1  0
 53 55  1  0
 53 56  1  0
 56 57  1  1
 56 58  1  0
 58 59  1  0
 56 60  1  0
 60 61  1  0
 60 62  1  0
 20  7  1  0
 60 26  1  0
 51 37  1  0
 48 39  1  0
M  CHG  1  34  -1
M  END
>  <UniqueID>  (1) 
1

>  <SMILES>  (1) 
COc1ccc([C@H](C)/N=C(\O)[C@@H]2C[C@@H](O)CN2C(=O)C[N-]C(=O)c2ccc3cc(F)ccc3n2)c(Cl)c1

>  <Energy>  (1) 
65.7373798203569

>  <Genealogy>  (1) 
COc1ccc([C@H](C)NC(=O)[C@@H]2C[C@@H](O)CN2C(=O)C[N-]C(=O)c2ccc3cc(F)ccc3n2)c(Cl)c1 (protonated)
COc1ccc([C@H](C)N=C(O)[C@@H]2C[C@@H](O)CN2C(=O)C[N-]C(=O)c2ccc3cc(F)ccc3n2)c(Cl)c1 (tautomer)
COc1ccc([C@H](C)/N=C(\O)[C@@H]2C[C@@H](O)CN2C(=O)C[N-]C(=O)c2ccc3cc(F)ccc3n2)c(Cl)c1 (cis-trans isomerization)
COc1ccc([C@H](C)/N=C(\O)[C@@H]2C[C@@H](O)CN2C(=O)C[N-]C(=O)c2ccc3cc(F)ccc3n2)c(Cl)c1 (3D coordinates assigned)
COc1ccc([C@H](C)/N=C(\O)[C@@H]2C[C@@H](O)CN2C(=O)C[N-]C(=O)c2ccc3cc(F)ccc3n2)c(Cl)c1 (nonaromatic ring conformer: 65.7373798203569 kcal/mol)

$$$$
untitled_line_1
     RDKit          3D

 62 65  0  0  0  0  0  0  0  0999 V2000
    0.9469   -1.3718    7.7352 C   0  0  0  0  0  0  0  0  0  0  0  0
    1.2815   -1.0548    6.3871 O   0  0  0  0  0  0  0  0  0  0  0  0
    0.3504   -0.9293    5.3456 C   0  0  0  0  0  0  0  0  0  0  0  0
    0.8288   -0.6605    4.0617 C   0  0  0  0  0  0  0  0  0  0  0  0
   -0.0553   -0.5323    2.9925 C   0  0  0  0  0  0  0  0  0  0  0  0
   -1.4476   -0.6641    3.1785 C   0  0  0  0  0  0  0  0  0  0  0  0
   -2.3739   -0.5225    1.9787 C   0  0  2  0  0  0  0  0  0  0  0  0
   -2.0675   -1.5987    0.9347 C   0  0  0  0  0  0  0  0  0  0  0  0
   -2.2493    0.8126    1.3807 N   0  0  0  0  0  0  0  0  0  0  0  0
   -3.2450    1.3556    0.4953 C   0  0  0  0  0  0  0  0  0  0  0  0
   -4.3178    0.7279    0.2823 O   0  0  0  0  0  0  0  0  0  0  0  0
   -2.9721    2.6417   -0.2457 C   0  0  2  0  0  0  0  0  0  0  0  0
   -4.0583    3.6954   -0.0171 C   0  0  0  0  0  0  0  0  0  0  0  0
   -4.2382    4.4016   -1.3636 C   0  0  1  0  0  0  0  0  0  0  0  0
   -3.4752    5.5816   -1.3793 O   0  0  0  0  0  0  0  0  0  0  0  0
   -3.7219    3.4166   -2.4149 C   0  0  0  0  0  0  0  0  0  0  0  0
   -2.9560    2.4275   -1.6802 N   0  0  0  0  0  0  0  0  0  0  0  0
   -2.1221    1.4553   -2.3224 C   0  0  0  0  0  0  0  0  0  0  0  0
   -2.4427    0.2393   -2.2847 O   0  0  0  0  0  0  0  0  0  0  0  0
   -0.8826    1.8733   -3.0506 C   0  0  0  0  0  0  0  0  0  0  0  0
    0.2492    1.0682   -2.6049 N   0  0  0  0  0  0  0  0  0  0  0  0
    0.8184    1.1753   -1.2961 C   0  0  0  0  0  0  0  0  0  0  0  0
    0.4766    2.1227   -0.5374 O   0  0  0  0  0  0  0  0  0  0  0  0
    1.7864    0.1662   -0.8343 C   0  0  0  0  0  0  0  0  0  0  0  0
    2.4770    0.3206    0.3784 C   0  0  0  0  0  0  0  0  0  0  0  0
    3.3475   -0.6820    0.8132 C   0  0  0  0  0  0  0  0  0  0  0  0
    3.5299   -1.8315    0.0359 C   0  0  0  0  0  0  0  0  0  0  0  0
    4.3898   -2.8611    0.4483 C   0  0  0  0  0  0  0  0  0  0  0  0
    4.5403   -4.0043   -0.3453 C   0  0  0  0  0  0  0  0  0  0  0  0
    5.3817   -4.9961    0.0476 F   0  0  0  0  0  0  0  0  0  0  0  0
    3.8323   -4.1255   -1.5472 C   0  0  0  0  0  0  0  0  0  0  0  0
    2.9783   -3.0970   -1.9694 C   0  0  0  0  0  0  0  0  0  0  0  0
    2.8230   -1.9498   -1.1822 C   0  0  0  0  0  0  0  0  0  0  0  0
    1.9831   -0.9551   -1.5793 N   0  0  0  0  0  0  0  0  0  0  0  0
   -1.9319   -0.9402    4.4804 C   0  0  0  0  0  0  0  0  0  0  0  0
   -3.6472   -1.1389    4.8313 Cl  0  0  0  0  0  0  0  0  0  0  0  0
   -1.0369   -1.0645    5.5491 C   0  0  0  0  0  0  0  0  0  0  0  0
    0.2863   -0.5879    8.1634 H   0  0  0  0  0  0  0  0  0  0  0  0
    1.8766   -1.4218    8.3381 H   0  0  0  0  0  0  0  0  0  0  0  0
    0.4444   -2.3603    7.7790 H   0  0  0  0  0  0  0  0  0  0  0  0
    1.8974   -0.5536    3.8898 H   0  0  0  0  0  0  0  0  0  0  0  0
    0.3487   -0.3246    2.0129 H   0  0  0  0  0  0  0  0  0  0  0  0
   -3.4257   -0.6616    2.2914 H   0  0  0  0  0  0  0  0  0  0  0  0
   -2.1062   -2.6033    1.4043 H   0  0  0  0  0  0  0  0  0  0  0  0
   -1.0670   -1.4439    0.4840 H   0  0  0  0  0  0  0  0  0  0  0  0
   -2.8202   -1.5667    0.1209 H   0  0  0  0  0  0  0  0  0  0  0  0
   -1.3844    1.3751    1.5472 H   0  0  0  0  0  0  0  0  0  0  0  0
   -1.9913    3.0599    0.0598 H   0  0  0  0  0  0  0  0  0  0  0  0
   -5.0248    3.2236    0.2681 H   0  0  0  0  0  0  0  0  0  0  0  0
   -3.7618    4.4043    0.7872 H   0  0  0  0  0  0  0  0  0  0  0  0
   -5.3166    4.6399   -1.5357 H   0  0  0  0  0  0  0  0  0  0  0  0
   -3.8021    6.1183   -2.1495 H   0  0  0  0  0  0  0  0  0  0  0  0
   -4.5703    2.9153   -2.9253 H   0  0  0  0  0  0  0  0  0  0  0  0
   -3.0847    3.9212   -3.1698 H   0  0  0  0  0  0  0  0  0  0  0  0
   -0.6699    2.9526   -2.8773 H   0  0  0  0  0  0  0  0  0  0  0  0
   -1.0331    1.7167   -4.1407 H   0  0  0  0  0  0  0  0  0  0  0  0
    2.3314    1.1989    0.9940 H   0  0  0  0  0  0  0  0  0  0  0  0
    3.8730   -0.5624    1.7531 H   0  0  0  0  0  0  0  0  0  0  0  0
    4.9428   -2.7812    1.3793 H   0  0  0  0  0  0  0  0  0  0  0  0
    3.9475   -5.0123   -2.1563 H   0  0  0  0  0  0  0  0  0  0  0  0
    2.4346   -3.2004   -2.9018 H   0  0  0  0  0  0  0  0  0  0  0  0
   -1.4332   -1.2758    6.5337 H   0  0  0  0  0  0  0  0  0  0  0  0
  1  2  1  0
  2  3  1  0
  3  4  2  0
  4  5  1  0
  5  6  2  0
  6  7  1  0
  7  8  1  0
  7  9  1  0
  9 10  1  0
 10 11  2  0
 10 12  1  0
 12 13  1  0
 13 14  1  0
 14 15  1  0
 14 16  1  0
 16 17  1  0
 17 18  1  0
 18 19  2  0
 18 20  1  0
 20 21  1  0
 21 22  1  0
 22 23  2  0
 22 24  1  0
 24 25  2  0
 25 26  1  0
 26 27  2  0
 27 28  1  0
 28 29  2  0
 29 30  1  0
 29 31  1  0
 31 32  2  0
 32 33  1  0
 33 34  2  0
  6 35  1  0
 35 36  1  0
 35 37  2  0
 37  3  1  0
 17 12  1  0
 34 24  1  0
 33 27  1  0
  1 38  1  0
  1 39  1  0
  1 40  1  0
  4 41  1  0
  5 42  1  0
  7 43  1  1
  8 44  1  0
  8 45  1  0
  8 46  1  0
  9 47  1  0
 12 48  1  1
 13 49  1  0
 13 50  1  0
 14 51  1  6
 15 52  1  0
 16 53  1  0
 16 54  1  0
 20 55  1  0
 20 56  1  0
 25 57  1  0
 26 58  1  0
 28 59  1  0
 31 60  1  0
 32 61  1  0
 37 62  1  0
M  CHG  1  21  -1
M  END
>  <UniqueID>  (2) 
2

>  <SMILES>  (2) 
COc1ccc([C@H](C)NC(=O)[C@@H]2C[C@@H](O)CN2C(=O)C[N-]C(=O)c2ccc3cc(F)ccc3n2)c(Cl)c1

>  <Energy>  (2) 
68.24907353009033

>  <Genealogy>  (2) 
COc1ccc([C@H](C)NC(=O)[C@@H]2C[C@@H](O)CN2C(=O)C[N-]C(=O)c2ccc3cc(F)ccc3n2)c(Cl)c1 (protonated)
COc1ccc([C@H](C)NC(=O)[C@@H]2C[C@@H](O)CN2C(=O)C[N-]C(=O)c2ccc3cc(F)ccc3n2)c(Cl)c1 (3D coordinates assigned)
COc1ccc([C@H](C)NC(=O)[C@@H]2C[C@@H](O)CN2C(=O)C[N-]C(=O)c2ccc3cc(F)ccc3n2)c(Cl)c1 (nonaromatic ring conformer: 68.24907353009033 kcal/mol)

$$$$
untitled_line_1
     RDKit          3D

 64 67  0  0  0  0  0  0  0  0999 V2000
   -4.5128    3.8861   -0.6796 H   0  0  0  0  0  0  0  0  0  0  0  0
   -4.0307    3.3775    0.0498 O   0  0  0  0  0  0  0  0  0  0  0  0
   -3.0129    2.4466   -0.1882 C   0  0  0  0  0  0  0  0  0  0  0  0
   -2.6732    2.1092   -1.4190 N   0  0  0  0  0  0  0  0  0  0  0  0
   -3.4064    2.5833   -2.5911 C   0  0  0  0  0  0  0  0  0  0  0  0
   -4.5025    2.4566   -2.4506 H   0  0  0  0  0  0  0  0  0  0  0  0
   -3.1724    3.6563   -2.7646 H   0  0  0  0  0  0  0  0  0  0  0  0
   -2.9300    1.7428   -3.7751 C   0  0  2  0  0  0  0  0  0  0  0  0
   -2.8022    2.3699   -4.6889 H   0  0  0  0  0  0  0  0  0  0  0  0
   -3.8311    0.6943   -4.0235 O   0  0  0  0  0  0  0  0  0  0  0  0
   -4.5836    1.0818   -4.5419 H   0  0  0  0  0  0  0  0  0  0  0  0
   -1.5923    1.1656   -3.3367 C   0  0  0  0  0  0  0  0  0  0  0  0
   -1.4213    0.1480   -3.7525 H   0  0  0  0  0  0  0  0  0  0  0  0
   -0.7833    1.8350   -3.7058 H   0  0  0  0  0  0  0  0  0  0  0  0
   -1.6358    1.1423   -1.8084 C   0  0  1  0  0  0  0  0  0  0  0  0
   -1.9497    0.1253   -1.4886 H   0  0  0  0  0  0  0  0  0  0  0  0
   -0.2696    1.4546   -1.2512 C   0  0  0  0  0  0  0  0  0  0  0  0
    0.4667    0.5021   -0.8801 O   0  0  0  0  0  0  0  0  0  0  0  0
    0.2191    2.8056   -1.1963 N   0  0  0  0  0  0  0  0  0  0  0  0
   -0.4183    3.5806   -1.4892 H   0  0  0  0  0  0  0  0  0  0  0  0
    1.6231    3.0980   -0.8852 C   0  0  2  0  0  0  0  0  0  0  0  0
    2.2500    2.5030   -1.5799 H   0  0  0  0  0  0  0  0  0  0  0  0
    1.9279    2.7513    0.5649 C   0  0  0  0  0  0  0  0  0  0  0  0
    1.2088    3.3909    1.5918 C   0  0  0  0  0  0  0  0  0  0  0  0
    0.4546    4.1299    1.3537 H   0  0  0  0  0  0  0  0  0  0  0  0
    1.4370    3.0739    2.9325 C   0  0  0  0  0  0  0  0  0  0  0  0
    0.8564    3.5830    3.6904 H   0  0  0  0  0  0  0  0  0  0  0  0
    2.3978    2.1083    3.2783 C   0  0  0  0  0  0  0  0  0  0  0  0
    2.6630    1.7506    4.6091 O   0  0  0  0  0  0  0  0  0  0  0  0
    1.9869    2.2950    5.7369 C   0  0  0  0  0  0  0  0  0  0  0  0
    2.3890    1.8322    6.6614 H   0  0  0  0  0  0  0  0  0  0  0  0
    2.1519    3.3919    5.7884 H   0  0  0  0  0  0  0  0  0  0  0  0
    0.9014    2.0740    5.6734 H   0  0  0  0  0  0  0  0  0  0  0  0
    3.1199    1.4727    2.2649 C   0  0  0  0  0  0  0  0  0  0  0  0
    3.8602    0.7274    2.5270 H   0  0  0  0  0  0  0  0  0  0  0  0
    2.8966    1.7810    0.9176 C   0  0  0  0  0  0  0  0  0  0  0  0
    3.8526    0.9127   -0.2819 Cl  0  0  0  0  0  0  0  0  0  0  0  0
    1.9488    4.5689   -1.1751 C   0  0  0  0  0  0  0  0  0  0  0  0
    1.7892    4.7814   -2.2534 H   0  0  0  0  0  0  0  0  0  0  0  0
    3.0117    4.7806   -0.9315 H   0  0  0  0  0  0  0  0  0  0  0  0
    1.3004    5.2506   -0.5849 H   0  0  0  0  0  0  0  0  0  0  0  0
   -2.3201    1.9084    1.0399 C   0  0  0  0  0  0  0  0  0  0  0  0
   -2.8375    2.2727    1.9517 H   0  0  0  0  0  0  0  0  0  0  0  0
   -1.2899    2.3090    1.0737 H   0  0  0  0  0  0  0  0  0  0  0  0
   -2.3059    0.4490    1.0665 N   0  0  0  0  0  0  0  0  0  0  0  0
   -3.0717   -0.0828    0.5924 H   0  0  0  0  0  0  0  0  0  0  0  0
   -1.2562   -0.2649    1.7346 C   0  0  0  0  0  0  0  0  0  0  0  0
   -0.6093    0.2964    2.6626 O   0  0  0  0  0  0  0  0  0  0  0  0
   -0.8964   -1.6302    1.3047 C   0  0  0  0  0  0  0  0  0  0  0  0
   -1.5488   -2.1939    0.2498 N   0  0  0  0  0  0  0  0  0  0  0  0
   -1.2185   -3.4200   -0.2340 C   0  0  0  0  0  0  0  0  0  0  0  0
   -1.9141   -3.9567   -1.3234 C   0  0  0  0  0  0  0  0  0  0  0  0
   -2.7226   -3.4026   -1.7807 H   0  0  0  0  0  0  0  0  0  0  0  0
   -1.5606   -5.2123   -1.8270 C   0  0  0  0  0  0  0  0  0  0  0  0
   -2.1010   -5.6256   -2.6709 H   0  0  0  0  0  0  0  0  0  0  0  0
   -0.5203   -5.9392   -1.2432 C   0  0  0  0  0  0  0  0  0  0  0  0
   -0.1832   -7.1555   -1.7389 F   0  0  0  0  0  0  0  0  0  0  0  0
    0.1785   -5.4109   -0.1516 C   0  0  0  0  0  0  0  0  0  0  0  0
    0.9812   -5.9835    0.2913 H   0  0  0  0  0  0  0  0  0  0  0  0
   -0.1662   -4.1501    0.3577 C   0  0  0  0  0  0  0  0  0  0  0  0
    0.5129   -3.5938    1.4486 C   0  0  0  0  0  0  0  0  0  0  0  0
    1.3272   -4.1269    1.9238 H   0  0  0  0  0  0  0  0  0  0  0  0
    0.1517   -2.3322    1.9232 C   0  0  0  0  0  0  0  0  0  0  0  0
    0.6996   -1.9033    2.7535 H   0  0  0  0  0  0  0  0  0  0  0  0
  1  2  1  0
  2  3  1  0
  3  4  2  0
  4  5  1  0
  5  6  1  0
  5  7  1  0
  5  8  1  0
  8  9  1  6
  8 10  1  0
 10 11  1  0
  8 12  1  0
 12 13  1  0
 12 14  1  0
 12 15  1  0
 15 16  1  6
 15 17  1  0
 17 18  2  0
 17 19  1  0
 19 20  1  0
 19 21  1  0
 21 22  1  6
 21 23  1  0
 23 24  2  0
 24 25  1  0
 24 26  1  0
 26 27  1  0
 26 28  2  0
 28 29  1  0
 29 30  1  0
 30 31  1  0
 30 32  1  0
 30 33  1  0
 28 34  1  0
 34 35  1  0
 34 36  2  0
 36 37  1  0
 21 38  1  0
 38 39  1  0
 38 40  1  0
 38 41  1  0
  3 42  1  0
 42 43  1  0
 42 44  1  0
 42 45  1  0
 45 46  1  0
 45 47  1  0
 47 48  2  0
 47 49  1  0
 49 50  2  0
 50 51  1  0
 51 52  2  0
 52 53  1  0
 52 54  1  0
 54 55  1  0
 54 56  2  0
 56 57  1  0
 56 58  1  0
 58 59  1  0
 58 60  2  0
 60 61  1  0
 61 62  1  0
 61 63  2  0
 63 64  1  0
 15  4  1  0
 36 23  1  0
 63 49  1  0
 60 51  1  0
M  CHG  1   4   1
M  END
>  <UniqueID>  (3) 
3

>  <SMILES>  (3) 
COc1ccc([C@H](C)NC(=O)[C@@H]2C[C@@H](O)C/[N+]2=C(\O)CNC(=O)c2ccc3cc(F)ccc3n2)c(Cl)c1

>  <Energy>  (3) 
69.54229323651926

>  <Genealogy>  (3) 
COc1ccc([C@H](C)NC(=O)[C@@H]2C[C@@H](O)C[NH+]2C(=O)CNC(=O)c2ccc3cc(F)ccc3n2)c(Cl)c1 (protonated)
COc1ccc([C@H](C)NC(=O)[C@@H]2C[C@@H](O)C[N+]2=C(O)CNC(=O)c2ccc3cc(F)ccc3n2)c(Cl)c1 (tautomer)
COc1ccc([C@H](C)NC(=O)[C@@H]2C[C@@H](O)C/[N+]2=C(\O)CNC(=O)c2ccc3cc(F)ccc3n2)c(Cl)c1 (cis-trans isomerization)
COc1ccc([C@H](C)NC(=O)[C@@H]2C[C@@H](O)C/[N+]2=C(\O)CNC(=O)c2ccc3cc(F)ccc3n2)c(Cl)c1 (3D coordinates assigned)
COc1ccc([C@H](C)NC(=O)[C@@H]2C[C@@H](O)C/[N+]2=C(\O)CNC(=O)c2ccc3cc(F)ccc3n2)c(Cl)c1 (nonaromatic ring conformer: 69.54229323651926 kcal/mol)

$$$$
untitled_line_1
     RDKit          3D

 62 65  0  0  0  0  0  0  0  0999 V2000
   -1.1729    1.9524   -4.0920 H   0  0  0  0  0  0  0  0  0  0  0  0
   -0.6647    1.1794   -3.6923 O   0  0  0  0  0  0  0  0  0  0  0  0
   -0.9029    0.6630   -2.4184 C   0  0  0  0  0  0  0  0  0  0  0  0
   -1.8391    1.1236   -1.6356 N   0  0  0  0  0  0  0  0  0  0  0  0
   -2.7818    2.2228   -1.8651 C   0  0  2  0  0  0  0  0  0  0  0  0
   -3.4621    2.2448   -0.9861 H   0  0  0  0  0  0  0  0  0  0  0  0
   -3.6737    1.9565   -3.0768 C   0  0  0  0  0  0  0  0  0  0  0  0
   -3.6923    2.8200   -4.1917 C   0  0  0  0  0  0  0  0  0  0  0  0
   -3.0648    3.6984   -4.2329 H   0  0  0  0  0  0  0  0  0  0  0  0
   -4.5150    2.5565   -5.2879 C   0  0  0  0  0  0  0  0  0  0  0  0
   -4.5024    3.2285   -6.1354 H   0  0  0  0  0  0  0  0  0  0  0  0
   -5.3483    1.4371   -5.3011 C   0  0  0  0  0  0  0  0  0  0  0  0
   -6.1514    1.2148   -6.4299 O   0  0  0  0  0  0  0  0  0  0  0  0
   -7.0443    0.1137   -6.5768 C   0  0  0  0  0  0  0  0  0  0  0  0
   -7.8201    0.1368   -5.7853 H   0  0  0  0  0  0  0  0  0  0  0  0
   -6.4844   -0.8381   -6.5336 H   0  0  0  0  0  0  0  0  0  0  0  0
   -7.5486    0.1801   -7.5596 H   0  0  0  0  0  0  0  0  0  0  0  0
   -5.3552    0.5768   -4.1906 C   0  0  0  0  0  0  0  0  0  0  0  0
   -6.0005   -0.2914   -4.1718 H   0  0  0  0  0  0  0  0  0  0  0  0
   -4.5300    0.8293   -3.0882 C   0  0  0  0  0  0  0  0  0  0  0  0
   -4.6174   -0.2837   -1.7277 Cl  0  0  0  0  0  0  0  0  0  0  0  0
   -2.0535    3.5765   -1.8276 C   0  0  0  0  0  0  0  0  0  0  0  0
   -1.5285    3.6884   -0.8532 H   0  0  0  0  0  0  0  0  0  0  0  0
   -2.7836    4.4099   -1.9138 H   0  0  0  0  0  0  0  0  0  0  0  0
   -1.2970    3.6647   -2.6342 H   0  0  0  0  0  0  0  0  0  0  0  0
   -0.0610   -0.4956   -1.9546 C   0  0  1  0  0  0  0  0  0  0  0  0
    0.9236   -0.4746   -2.4731 H   0  0  0  0  0  0  0  0  0  0  0  0
    0.1592   -0.4541   -0.5125 N   0  0  0  0  0  0  0  0  0  0  0  0
    0.7980    0.6483    0.1657 C   0  0  0  0  0  0  0  0  0  0  0  0
    1.3870    1.5428   -0.5024 O   0  0  0  0  0  0  0  0  0  0  0  0
    0.7801    0.7536    1.6604 C   0  0  0  0  0  0  0  0  0  0  0  0
    0.8641    1.8164    1.9663 H   0  0  0  0  0  0  0  0  0  0  0  0
   -0.1828    0.3692    2.0534 H   0  0  0  0  0  0  0  0  0  0  0  0
    1.8894   -0.0057    2.2219 N   0  0  0  0  0  0  0  0  0  0  0  0
    2.0414   -0.2102    3.6299 C   0  0  0  0  0  0  0  0  0  0  0  0
    1.1999    0.2855    4.4319 O   0  0  0  0  0  0  0  0  0  0  0  0
    3.1628   -1.0225    4.1379 C   0  0  0  0  0  0  0  0  0  0  0  0
    4.1341   -1.4370    3.2797 N   0  0  0  0  0  0  0  0  0  0  0  0
    5.1808   -2.2039    3.6909 C   0  0  0  0  0  0  0  0  0  0  0  0
    6.1673   -2.5945    2.7803 C   0  0  0  0  0  0  0  0  0  0  0  0
    6.1095   -2.2822    1.7463 H   0  0  0  0  0  0  0  0  0  0  0  0
    7.2440   -3.3824    3.2051 C   0  0  0  0  0  0  0  0  0  0  0  0
    8.0108   -3.6774    2.4980 H   0  0  0  0  0  0  0  0  0  0  0  0
    7.3349   -3.7858    4.5409 C   0  0  0  0  0  0  0  0  0  0  0  0
    8.3763   -4.5553    4.9462 F   0  0  0  0  0  0  0  0  0  0  0  0
    6.3570   -3.3932    5.4604 C   0  0  0  0  0  0  0  0  0  0  0  0
    6.4438   -3.7060    6.4929 H   0  0  0  0  0  0  0  0  0  0  0  0
    5.2793   -2.5989    5.0417 C   0  0  0  0  0  0  0  0  0  0  0  0
    4.2963   -2.1788    5.9390 C   0  0  0  0  0  0  0  0  0  0  0  0
    4.3432   -2.4600    6.9818 H   0  0  0  0  0  0  0  0  0  0  0  0
    3.2353   -1.3907    5.4904 C   0  0  0  0  0  0  0  0  0  0  0  0
    2.4781   -1.0753    6.1963 H   0  0  0  0  0  0  0  0  0  0  0  0
   -0.2477   -1.6817    0.1515 C   0  0  0  0  0  0  0  0  0  0  0  0
    0.5577   -2.0628    0.8124 H   0  0  0  0  0  0  0  0  0  0  0  0
   -1.1587   -1.4859    0.7519 H   0  0  0  0  0  0  0  0  0  0  0  0
   -0.5530   -2.6759   -0.9679 C   0  0  2  0  0  0  0  0  0  0  0  0
   -1.4771   -3.2477   -0.7343 H   0  0  0  0  0  0  0  0  0  0  0  0
    0.5039   -3.5871   -1.1347 O   0  0  0  0  0  0  0  0  0  0  0  0
    1.3171   -3.0706   -1.3619 H   0  0  0  0  0  0  0  0  0  0  0  0
   -0.7583   -1.8315   -2.2304 C   0  0  0  0  0  0  0  0  0  0  0  0
   -0.3332   -2.3280   -3.1304 H   0  0  0  0  0  0  0  0  0  0  0  0
   -1.8506   -1.6931   -2.3963 H   0  0  0  0  0  0  0  0  0  0  0  0
  1  2  1  0
  2  3  1  0
  3  4  2  0
  4  5  1  0
  5  6  1  1
  5  7  1  0
  7  8  2  0
  8  9  1  0
  8 10  1  0
 10 11  1  0
 10 12  2  0
 12 13  1  0
 13 14  1  0
 14 15  1  0
 14 16  1  0
 14 17  1  0
 12 18  1  0
 18 19  1  0
 18 20  2  0
 20 21  1  0
  5 22  1  0
 22 23  1  0
 22 24  1  0
 22 25  1  0
  3 26  1  0
 26 27  1  6
 26 28  1  0
 28 29  1  0
 29 30  2  0
 29 31  1  0
 31 32  1  0
 31 33  1  0
 31 34  1  0
 34 35  1  0
 35 36  2  0
 35 37  1  0
 37 38  2  0
 38 39  1  0
 39 40  2  0
 40 41  1  0
 40 42  1  0
 42 43  1  0
 42 44  2  0
 44 45  1  0
 44 46  1  0
 46 47  1  0
 46 48  2  0
 48 49  1  0
 49 50  1  0
 49 51  2  0
 51 52  1  0
 28 53  1  0
 53 54  1  0
 53 55  1  0
 53 56  1  0
 56 57  1  1
 56 58  1  0
 58 59  1  0
 56 60  1  0
 60 61  1  0
 60 62  1  0
 20  7  1  0
 60 26  1  0
 51 37  1  0
 48 39  1  0
M  CHG  1  34  -1
M  END
>  <UniqueID>  (4) 
4

>  <SMILES>  (4) 
COc1ccc([C@H](C)/N=C(\O)[C@@H]2C[C@@H](O)CN2C(=O)C[N-]C(=O)c2ccc3cc(F)ccc3n2)c(Cl)c1

>  <Energy>  (4) 
70.3961335308624

>  <Genealogy>  (4) 
COc1ccc([C@H](C)NC(=O)[C@@H]2C[C@@H](O)CN2C(=O)C[N-]C(=O)c2ccc3cc(F)ccc3n2)c(Cl)c1 (protonated)
COc1ccc([C@H](C)N=C(O)[C@@H]2C[C@@H](O)CN2C(=O)C[N-]C(=O)c2ccc3cc(F)ccc3n2)c(Cl)c1 (tautomer)
COc1ccc([C@H](C)/N=C(\O)[C@@H]2C[C@@H](O)CN2C(=O)C[N-]C(=O)c2ccc3cc(F)ccc3n2)c(Cl)c1 (cis-trans isomerization)
COc1ccc([C@H](C)/N=C(\O)[C@@H]2C[C@@H](O)CN2C(=O)C[N-]C(=O)c2ccc3cc(F)ccc3n2)c(Cl)c1 (3D coordinates assigned)
COc1ccc([C@H](C)/N=C(\O)[C@@H]2C[C@@H](O)CN2C(=O)C[N-]C(=O)c2ccc3cc(F)ccc3n2)c(Cl)c1 (nonaromatic ring conformer: 70.3961335308624 kcal/mol)

$$$$
