untitled_line_13
     RDKit          3D

 63 66  0  0  0  0  0  0  0  0999 V2000
    0.2320    1.5463   -5.5288 C   0  0  0  0  0  0  0  0  0  0  0  0
    0.8440    2.7159   -4.7614 C   0  0  0  0  0  0  0  0  0  0  0  0
    0.4709    2.6586   -3.3036 C   0  0  0  0  0  0  0  0  0  0  0  0
   -0.7498    2.6160   -2.9923 O   0  0  0  0  0  0  0  0  0  0  0  0
    1.4825    2.6531   -2.2703 N   0  0  0  0  0  0  0  0  0  0  0  0
    2.6995    3.3991   -2.4654 C   0  0  0  0  0  0  0  0  0  0  0  0
    2.6478    4.7545   -2.8328 C   0  0  0  0  0  0  0  0  0  0  0  0
    3.8286    5.4784   -3.0243 C   0  0  0  0  0  0  0  0  0  0  0  0
    5.0675    4.8544   -2.8545 C   0  0  0  0  0  0  0  0  0  0  0  0
    5.1276    3.5051   -2.4945 C   0  0  0  0  0  0  0  0  0  0  0  0
    3.9493    2.7780   -2.3018 C   0  0  0  0  0  0  0  0  0  0  0  0
    1.2628    1.9677   -0.9788 C   0  0  0  0  0  0  0  0  0  0  0  0
    0.1917    2.6855   -0.1211 C   0  0  0  0  0  0  0  0  0  0  0  0
   -1.0559    1.8321    0.1747 C   0  0  0  0  0  0  0  0  0  0  0  0
   -0.7056    0.4774    0.6592 N   0  0  0  0  0  0  0  0  0  0  0  0
   -1.4982   -0.1551    1.5097 C   0  0  0  0  0  0  0  0  0  0  0  0
   -2.7856    0.3230    1.7909 O   0  0  0  0  0  0  0  0  0  0  0  0
   -1.0959   -1.4533    2.2076 C   0  0  1  0  0  0  0  0  0  0  0  0
   -1.4627   -1.4092    3.6356 N   0  0  0  0  0  0  0  0  0  0  0  0
   -1.6968   -2.6869    1.4656 C   0  0  0  0  0  0  0  0  0  0  0  0
   -3.2357   -2.8510    1.6059 C   0  0  0  0  0  0  0  0  0  0  0  0
   -3.4026   -4.2069    2.1774 C   0  0  0  0  0  0  0  0  0  0  0  0
   -4.6106   -4.8302    2.5039 C   0  0  0  0  0  0  0  0  0  0  0  0
   -4.5797   -6.1344    3.0225 C   0  0  0  0  0  0  0  0  0  0  0  0
   -3.3500   -6.7920    3.2062 C   0  0  0  0  0  0  0  0  0  0  0  0
   -2.1482   -6.1465    2.8725 C   0  0  0  0  0  0  0  0  0  0  0  0
   -2.2025   -4.8495    2.3547 C   0  0  0  0  0  0  0  0  0  0  0  0
   -1.0523   -4.0247    1.9198 C   0  0  0  0  0  0  0  0  0  0  0  0
    0.5176   -0.1648    0.1261 C   0  0  0  0  0  0  0  0  0  0  0  0
    0.9633    0.4771   -1.1891 C   0  0  0  0  0  0  0  0  0  0  0  0
    0.5574    1.5873   -6.5893 H   0  0  0  0  0  0  0  0  0  0  0  0
   -0.8785    1.5983   -5.4972 H   0  0  0  0  0  0  0  0  0  0  0  0
    0.5671    0.5807   -5.0910 H   0  0  0  0  0  0  0  0  0  0  0  0
    0.4826    3.6746   -5.1924 H   0  0  0  0  0  0  0  0  0  0  0  0
    1.9469    2.6735   -4.8879 H   0  0  0  0  0  0  0  0  0  0  0  0
    1.6928    5.2480   -2.9627 H   0  0  0  0  0  0  0  0  0  0  0  0
    3.7838    6.5230   -3.3043 H   0  0  0  0  0  0  0  0  0  0  0  0
    5.9804    5.4160   -3.0032 H   0  0  0  0  0  0  0  0  0  0  0  0
    6.0874    3.0210   -2.3685 H   0  0  0  0  0  0  0  0  0  0  0  0
    4.0092    1.7299   -2.0370 H   0  0  0  0  0  0  0  0  0  0  0  0
    2.2053    2.0046   -0.3861 H   0  0  0  0  0  0  0  0  0  0  0  0
   -0.1232    3.6380   -0.5996 H   0  0  0  0  0  0  0  0  0  0  0  0
    0.6468    2.9663    0.8553 H   0  0  0  0  0  0  0  0  0  0  0  0
   -1.6213    2.3976    0.9470 H   0  0  0  0  0  0  0  0  0  0  0  0
   -1.6904    1.7457   -0.7323 H   0  0  0  0  0  0  0  0  0  0  0  0
   -3.2690    1.0162    1.2352 H   0  0  0  0  0  0  0  0  0  0  0  0
    0.0092   -1.5614    2.1765 H   0  0  0  0  0  0  0  0  0  0  0  0
   -2.4534   -1.1181    3.7852 H   0  0  0  0  0  0  0  0  0  0  0  0
   -1.3196   -2.3385    4.0875 H   0  0  0  0  0  0  0  0  0  0  0  0
   -0.8470   -0.7205    4.1246 H   0  0  0  0  0  0  0  0  0  0  0  0
   -1.4770   -2.5730    0.3803 H   0  0  0  0  0  0  0  0  0  0  0  0
   -3.7242   -2.8077    0.6078 H   0  0  0  0  0  0  0  0  0  0  0  0
   -3.7121   -2.1019    2.2675 H   0  0  0  0  0  0  0  0  0  0  0  0
   -5.5536   -4.3198    2.3561 H   0  0  0  0  0  0  0  0  0  0  0  0
   -5.5043   -6.6352    3.2808 H   0  0  0  0  0  0  0  0  0  0  0  0
   -3.3295   -7.7976    3.6060 H   0  0  0  0  0  0  0  0  0  0  0  0
   -1.1984   -6.6481    3.0082 H   0  0  0  0  0  0  0  0  0  0  0  0
   -0.5373   -4.5219    1.0680 H   0  0  0  0  0  0  0  0  0  0  0  0
   -0.3296   -3.9056    2.7558 H   0  0  0  0  0  0  0  0  0  0  0  0
    0.3331   -1.2365   -0.0978 H   0  0  0  0  0  0  0  0  0  0  0  0
    1.3360   -0.0924    0.8755 H   0  0  0  0  0  0  0  0  0  0  0  0
    1.8762   -0.0350   -1.5636 H   0  0  0  0  0  0  0  0  0  0  0  0
    0.1614    0.3344   -1.9448 H   0  0  0  0  0  0  0  0  0  0  0  0
  1  2  1  0
  2  3  1  0
  3  4  2  0
  3  5  1  0
  5  6  1  0
  6  7  2  0
  7  8  1  0
  8  9  2  0
  9 10  1  0
 10 11  2  0
  5 12  1  0
 12 13  1  0
 13 14  1  0
 14 15  1  0
 15 16  2  3
 16 17  1  0
 16 18  1  0
 18 19  1  0
 18 20  1  0
 20 21  1  0
 21 22  1  0
 22 23  2  0
 23 24  1  0
 24 25  2  0
 25 26  1  0
 26 27  2  0
 27 28  1  0
 15 29  1  0
 29 30  1  0
 11  6  1  0
 30 12  1  0
 28 20  1  0
 27 22  1  0
  1 31  1  0
  1 32  1  0
  1 33  1  0
  2 34  1  0
  2 35  1  0
  7 36  1  0
  8 37  1  0
  9 38  1  0
 10 39  1  0
 11 40  1  0
 12 41  1  0
 13 42  1  0
 13 43  1  0
 14 44  1  0
 14 45  1  0
 17 46  1  0
 18 47  1  1
 19 48  1  0
 19 49  1  0
 19 50  1  0
 20 51  1  0
 21 52  1  0
 21 53  1  0
 23 54  1  0
 24 55  1  0
 25 56  1  0
 26 57  1  0
 28 58  1  0
 28 59  1  0
 29 60  1  0
 29 61  1  0
 30 62  1  0
 30 63  1  0
M  CHG  2  15   1  19   1
M  END
>  <UniqueID>  (1) 
43

>  <SMILES>  (1) 
CCC(=O)N(c1ccccc1)C1CC[N+](=C(O)[C@@H]([NH3+])C2Cc3ccccc3C2)CC1

>  <Energy>  (1) 
91.60312608884469

>  <Genealogy>  (1) 
CCC(=O)N(c1ccccc1)C1CC[NH+](C(=O)[C@@H]([NH3+])C2Cc3ccccc3C2)CC1 (protonated)
CCC(=O)N(c1ccccc1)C1CC[N+](=C(O)[C@@H]([NH3+])C2Cc3ccccc3C2)CC1 (tautomer)
CCC(=O)N(c1ccccc1)C1CC[N+](=C(O)[C@@H]([NH3+])C2Cc3ccccc3C2)CC1 (3D coordinates assigned)
CCC(=O)N(c1ccccc1)C1CC[N+](=C(O)[C@@H]([NH3+])C2Cc3ccccc3C2)CC1 (nonaromatic ring conformer: 91.60312608884469 kcal/mol)

$$$$
untitled_line_13
     RDKit          3D

 63 66  0  0  0  0  0  0  0  0999 V2000
   -3.1386   -1.4683   -2.2245 H   0  0  0  0  0  0  0  0  0  0  0  0
   -3.3111   -2.4550   -2.0955 O   0  0  0  0  0  0  0  0  0  0  0  0
   -3.0350   -3.1815   -0.9267 C   0  0  0  0  0  0  0  0  0  0  0  0
   -2.3243   -2.6680    0.0654 N   0  0  0  0  0  0  0  0  0  0  0  0
   -2.2252   -3.3946    1.3087 C   0  0  0  0  0  0  0  0  0  0  0  0
   -1.1853   -4.3172    1.5068 C   0  0  0  0  0  0  0  0  0  0  0  0
   -0.4520   -4.4850    0.7278 H   0  0  0  0  0  0  0  0  0  0  0  0
   -1.0914   -5.0207    2.7115 C   0  0  0  0  0  0  0  0  0  0  0  0
   -0.2872   -5.7290    2.8630 H   0  0  0  0  0  0  0  0  0  0  0  0
   -2.0365   -4.8111    3.7202 C   0  0  0  0  0  0  0  0  0  0  0  0
   -1.9629   -5.3560    4.6524 H   0  0  0  0  0  0  0  0  0  0  0  0
   -3.0780   -3.8993    3.5249 C   0  0  0  0  0  0  0  0  0  0  0  0
   -3.8098   -3.7385    4.3062 H   0  0  0  0  0  0  0  0  0  0  0  0
   -3.1744   -3.1934    2.3219 C   0  0  0  0  0  0  0  0  0  0  0  0
   -3.9887   -2.4960    2.1744 H   0  0  0  0  0  0  0  0  0  0  0  0
   -1.7089   -1.3169   -0.0256 C   0  0  0  0  0  0  0  0  0  0  0  0
   -1.3902   -1.1363   -1.0736 H   0  0  0  0  0  0  0  0  0  0  0  0
   -2.7136   -0.2306    0.3891 C   0  0  0  0  0  0  0  0  0  0  0  0
   -2.9645   -0.3663    1.4635 H   0  0  0  0  0  0  0  0  0  0  0  0
   -3.6593   -0.3363   -0.1842 H   0  0  0  0  0  0  0  0  0  0  0  0
   -2.1426    1.1923    0.1839 C   0  0  0  0  0  0  0  0  0  0  0  0
   -2.4833    1.8229    1.0366 H   0  0  0  0  0  0  0  0  0  0  0  0
   -2.5903    1.6270   -0.7380 H   0  0  0  0  0  0  0  0  0  0  0  0
   -0.6640    1.2193    0.0606 N   0  0  0  0  0  0  0  0  0  0  0  0
   -0.4037    0.8968   -0.9006 H   0  0  0  0  0  0  0  0  0  0  0  0
   -0.1821    2.5784    0.2335 C   0  0  0  0  0  0  0  0  0  0  0  0
   -0.2446    3.1158    1.3327 O   0  0  0  0  0  0  0  0  0  0  0  0
    0.3893    3.3619   -0.9385 C   0  0  1  0  0  0  0  0  0  0  0  0
    0.3397    2.7446   -1.8623 H   0  0  0  0  0  0  0  0  0  0  0  0
   -0.4014    4.5738   -1.1722 N   0  0  0  0  0  0  0  0  0  0  0  0
   -0.4043    5.1638   -0.3080 H   0  0  0  0  0  0  0  0  0  0  0  0
   -1.3911    4.2955   -1.3658 H   0  0  0  0  0  0  0  0  0  0  0  0
    1.8716    3.7295   -0.6909 C   0  0  0  0  0  0  0  0  0  0  0  0
    1.9447    4.3405    0.2384 H   0  0  0  0  0  0  0  0  0  0  0  0
    2.7785    2.4842   -0.5198 C   0  0  0  0  0  0  0  0  0  0  0  0
    3.0184    2.3065    0.5504 H   0  0  0  0  0  0  0  0  0  0  0  0
    2.3236    1.5734   -0.9660 H   0  0  0  0  0  0  0  0  0  0  0  0
    3.9982    2.8323   -1.2829 C   0  0  0  0  0  0  0  0  0  0  0  0
    5.1921    2.1083   -1.3303 C   0  0  0  0  0  0  0  0  0  0  0  0
    5.3114    1.1996   -0.7546 H   0  0  0  0  0  0  0  0  0  0  0  0
    6.2347    2.5797   -2.1434 C   0  0  0  0  0  0  0  0  0  0  0  0
    7.1688    2.0357   -2.1924 H   0  0  0  0  0  0  0  0  0  0  0  0
    6.0662    3.7544   -2.8984 C   0  0  0  0  0  0  0  0  0  0  0  0
    6.8709    4.1122   -3.5279 H   0  0  0  0  0  0  0  0  0  0  0  0
    4.8549    4.4616   -2.8413 C   0  0  0  0  0  0  0  0  0  0  0  0
    4.7151    5.3615   -3.4262 H   0  0  0  0  0  0  0  0  0  0  0  0
    3.8339    3.9794   -2.0183 C   0  0  0  0  0  0  0  0  0  0  0  0
    2.4813    4.5571   -1.8508 C   0  0  0  0  0  0  0  0  0  0  0  0
    1.9146    4.4274   -2.7980 H   0  0  0  0  0  0  0  0  0  0  0  0
    2.5423    5.6349   -1.5862 H   0  0  0  0  0  0  0  0  0  0  0  0
   -0.0176    0.3159    1.0361 C   0  0  0  0  0  0  0  0  0  0  0  0
   -0.3103    0.6073    2.0717 H   0  0  0  0  0  0  0  0  0  0  0  0
    1.0902    0.4054    0.9704 H   0  0  0  0  0  0  0  0  0  0  0  0
   -0.4076   -1.1640    0.8082 C   0  0  0  0  0  0  0  0  0  0  0  0
    0.4180   -1.6912    0.2816 H   0  0  0  0  0  0  0  0  0  0  0  0
   -0.5056   -1.6252    1.8125 H   0  0  0  0  0  0  0  0  0  0  0  0
   -3.6060   -4.5872   -0.8377 C   0  0  0  0  0  0  0  0  0  0  0  0
   -2.7832   -5.3059   -0.6376 H   0  0  0  0  0  0  0  0  0  0  0  0
   -4.3320   -4.6359    0.0022 H   0  0  0  0  0  0  0  0  0  0  0  0
   -4.3190   -5.0269   -2.1154 C   0  0  0  0  0  0  0  0  0  0  0  0
   -3.6143   -5.0148   -2.9741 H   0  0  0  0  0  0  0  0  0  0  0  0
   -4.7042   -6.0608   -1.9885 H   0  0  0  0  0  0  0  0  0  0  0  0
   -5.1777   -4.3547   -2.3293 H   0  0  0  0  0  0  0  0  0  0  0  0
  1  2  1  0
  2  3  1  0
  3  4  2  0
  4  5  1  0
  5  6  2  0
  6  7  1  0
  6  8  1  0
  8  9  1  0
  8 10  2  0
 10 11  1  0
 10 12  1  0
 12 13  1  0
 12 14  2  0
 14 15  1  0
  4 16  1  0
 16 17  1  0
 16 18  1  0
 18 19  1  0
 18 20  1  0
 18 21  1  0
 21 22  1  0
 21 23  1  0
 21 24  1  0
 24 25  1  0
 24 26  1  0
 26 27  2  0
 26 28  1  0
 28 29  1  6
 28 30  1  0
 30 31  1  0
 30 32  1  0
 28 33  1  0
 33 34  1  0
 33 35  1  0
 35 36  1  0
 35 37  1  0
 35 38  1  0
 38 39  2  0
 39 40  1  0
 39 41  1  0
 41 42  1  0
 41 43  2  0
 43 44  1  0
 43 45  1  0
 45 46  1  0
 45 47  2  0
 47 48  1  0
 48 49  1  0
 48 50  1  0
 24 51  1  0
 51 52  1  0
 51 53  1  0
 51 54  1  0
 54 55  1  0
 54 56  1  0
  3 57  1  0
 57 58  1  0
 57 59  1  0
 57 60  1  0
 60 61  1  0
 60 62  1  0
 60 63  1  0
 14  5  1  0
 54 16  1  0
 48 33  1  0
 47 38  1  0
M  CHG  2   4   1  24   1
M  END
>  <UniqueID>  (2) 
44

>  <SMILES>  (2) 
CC/C(O)=[N+](\c1ccccc1)C1CC[NH+](C(=O)[C@@H](N)C2Cc3ccccc3C2)CC1

>  <Energy>  (2) 
91.64402804771012

>  <Genealogy>  (2) 
CCC(=O)[NH+](c1ccccc1)C1CC[NH+](C(=O)[C@@H](N)C2Cc3ccccc3C2)CC1 (protonated)
CCC(O)=[N+](c1ccccc1)C1CC[NH+](C(=O)[C@@H](N)C2Cc3ccccc3C2)CC1 (tautomer)
CC/C(O)=[N+](\c1ccccc1)C1CC[NH+](C(=O)[C@@H](N)C2Cc3ccccc3C2)CC1 (cis-trans isomerization)
CC/C(O)=[N+](\c1ccccc1)C1CC[NH+](C(=O)[C@@H](N)C2Cc3ccccc3C2)CC1 (3D coordinates assigned)
CC/C(O)=[N+](\c1ccccc1)C1CC[NH+](C(=O)[C@@H](N)C2Cc3ccccc3C2)CC1 (nonaromatic ring conformer: 91.64402804771012 kcal/mol)

$$$$
untitled_line_13
     RDKit          3D

 63 66  0  0  0  0  0  0  0  0999 V2000
    0.0663    4.8321   -0.7126 C   0  0  0  0  0  0  0  0  0  0  0  0
   -0.3150    3.4141   -1.1283 C   0  0  0  0  0  0  0  0  0  0  0  0
    0.8782    2.5057   -1.1212 C   0  0  0  0  0  0  0  0  0  0  0  0
    1.5277    2.3513   -0.0529 O   0  0  0  0  0  0  0  0  0  0  0  0
    1.3586    1.9069   -2.3355 N   0  0  0  0  0  0  0  0  0  0  0  0
    2.4046    2.5971   -3.0393 C   0  0  0  0  0  0  0  0  0  0  0  0
    2.1449    3.8279   -3.6614 C   0  0  0  0  0  0  0  0  0  0  0  0
    3.1662    4.5064   -4.3322 C   0  0  0  0  0  0  0  0  0  0  0  0
    4.4503    3.9564   -4.3931 C   0  0  0  0  0  0  0  0  0  0  0  0
    4.7129    2.7244   -3.7864 C   0  0  0  0  0  0  0  0  0  0  0  0
    3.6929    2.0441   -3.1138 C   0  0  0  0  0  0  0  0  0  0  0  0
    0.9152    0.5818   -2.8281 C   0  0  0  0  0  0  0  0  0  0  0  0
    1.2579   -0.5731   -1.8965 C   0  0  0  0  0  0  0  0  0  0  0  0
    0.4125   -0.6230   -0.6225 C   0  0  0  0  0  0  0  0  0  0  0  0
   -0.9887   -0.1526   -0.7505 N   0  0  0  0  0  0  0  0  0  0  0  0
   -1.7869   -0.1788    0.3110 C   0  0  0  0  0  0  0  0  0  0  0  0
   -3.1318    0.2178    0.2314 O   0  0  0  0  0  0  0  0  0  0  0  0
   -1.3246   -0.5923    1.7121 C   0  0  1  0  0  0  0  0  0  0  0  0
   -1.1933    0.6114    2.5455 N   0  0  0  0  0  0  0  0  0  0  0  0
   -2.3323   -1.5971    2.3394 C   0  0  0  0  0  0  0  0  0  0  0  0
   -1.8877   -2.1269    3.7278 C   0  0  0  0  0  0  0  0  0  0  0  0
   -2.2591   -3.5609    3.6888 C   0  0  0  0  0  0  0  0  0  0  0  0
   -2.2387   -4.4619    4.7566 C   0  0  0  0  0  0  0  0  0  0  0  0
   -2.6130   -5.7939    4.5215 C   0  0  0  0  0  0  0  0  0  0  0  0
   -2.9894   -6.2049    3.2293 C   0  0  0  0  0  0  0  0  0  0  0  0
   -2.9936   -5.2846    2.1702 C   0  0  0  0  0  0  0  0  0  0  0  0
   -2.6250   -3.9623    2.4288 C   0  0  0  0  0  0  0  0  0  0  0  0
   -2.5534   -2.8507    1.4527 C   0  0  0  0  0  0  0  0  0  0  0  0
   -1.5404    0.3717   -2.0253 C   0  0  0  0  0  0  0  0  0  0  0  0
   -0.5621    0.5318   -3.2017 C   0  0  0  0  0  0  0  0  0  0  0  0
    0.3949    4.8482    0.3484 H   0  0  0  0  0  0  0  0  0  0  0  0
    0.8862    5.2217   -1.3524 H   0  0  0  0  0  0  0  0  0  0  0  0
   -0.8107    5.5000   -0.8259 H   0  0  0  0  0  0  0  0  0  0  0  0
   -1.0712    3.0209   -0.4141 H   0  0  0  0  0  0  0  0  0  0  0  0
   -0.7672    3.4438   -2.1438 H   0  0  0  0  0  0  0  0  0  0  0  0
    1.1514    4.2555   -3.6339 H   0  0  0  0  0  0  0  0  0  0  0  0
    2.9614    5.4571   -4.8075 H   0  0  0  0  0  0  0  0  0  0  0  0
    5.2389    4.4852   -4.9120 H   0  0  0  0  0  0  0  0  0  0  0  0
    5.7066    2.2971   -3.8337 H   0  0  0  0  0  0  0  0  0  0  0  0
    3.9064    1.0950   -2.6388 H   0  0  0  0  0  0  0  0  0  0  0  0
    1.4629    0.3713   -3.7768 H   0  0  0  0  0  0  0  0  0  0  0  0
    2.3345   -0.5291   -1.6231 H   0  0  0  0  0  0  0  0  0  0  0  0
    1.1090   -1.5260   -2.4546 H   0  0  0  0  0  0  0  0  0  0  0  0
    0.4103   -1.6846   -0.2911 H   0  0  0  0  0  0  0  0  0  0  0  0
    0.9322   -0.0308    0.1579 H   0  0  0  0  0  0  0  0  0  0  0  0
   -3.6279    0.4434   -0.6196 H   0  0  0  0  0  0  0  0  0  0  0  0
   -0.3452   -1.1093    1.7042 H   0  0  0  0  0  0  0  0  0  0  0  0
   -0.7971    0.3713    3.4817 H   0  0  0  0  0  0  0  0  0  0  0  0
   -0.5393    1.2870    2.0855 H   0  0  0  0  0  0  0  0  0  0  0  0
   -2.1227    1.0754    2.6738 H   0  0  0  0  0  0  0  0  0  0  0  0
   -3.3183   -1.0948    2.4712 H   0  0  0  0  0  0  0  0  0  0  0  0
   -0.7892   -2.0518    3.8692 H   0  0  0  0  0  0  0  0  0  0  0  0
   -2.4216   -1.6030    4.5500 H   0  0  0  0  0  0  0  0  0  0  0  0
   -1.9432   -4.1394    5.7472 H   0  0  0  0  0  0  0  0  0  0  0  0
   -2.6077   -6.5080    5.3359 H   0  0  0  0  0  0  0  0  0  0  0  0
   -3.2726   -7.2337    3.0498 H   0  0  0  0  0  0  0  0  0  0  0  0
   -3.2774   -5.5950    1.1728 H   0  0  0  0  0  0  0  0  0  0  0  0
   -3.4982   -2.7676    0.8740 H   0  0  0  0  0  0  0  0  0  0  0  0
   -1.6975   -3.0293    0.7654 H   0  0  0  0  0  0  0  0  0  0  0  0
   -1.9932    1.3683   -1.8445 H   0  0  0  0  0  0  0  0  0  0  0  0
   -2.3614   -0.2990   -2.3639 H   0  0  0  0  0  0  0  0  0  0  0  0
   -0.8238    1.4417   -3.7879 H   0  0  0  0  0  0  0  0  0  0  0  0
   -0.7105   -0.3315   -3.8906 H   0  0  0  0  0  0  0  0  0  0  0  0
  1  2  1  0
  2  3  1  0
  3  4  2  0
  3  5  1  0
  5  6  1  0
  6  7  2  0
  7  8  1  0
  8  9  2  0
  9 10  1  0
 10 11  2  0
  5 12  1  0
 12 13  1  0
 13 14  1  0
 14 15  1  0
 15 16  2  3
 16 17  1  0
 16 18  1  0
 18 19  1  0
 18 20  1  0
 20 21  1  0
 21 22  1  0
 22 23  2  0
 23 24  1  0
 24 25  2  0
 25 26  1  0
 26 27  2  0
 27 28  1  0
 15 29  1  0
 29 30  1  0
 11  6  1  0
 30 12  1  0
 28 20  1  0
 27 22  1  0
  1 31  1  0
  1 32  1  0
  1 33  1  0
  2 34  1  0
  2 35  1  0
  7 36  1  0
  8 37  1  0
  9 38  1  0
 10 39  1  0
 11 40  1  0
 12 41  1  0
 13 42  1  0
 13 43  1  0
 14 44  1  0
 14 45  1  0
 17 46  1  0
 18 47  1  6
 19 48  1  0
 19 49  1  0
 19 50  1  0
 20 51  1  0
 21 52  1  0
 21 53  1  0
 23 54  1  0
 24 55  1  0
 25 56  1  0
 26 57  1  0
 28 58  1  0
 28 59  1  0
 29 60  1  0
 29 61  1  0
 30 62  1  0
 30 63  1  0
M  CHG  2  15   1  19   1
M  END
>  <UniqueID>  (3) 
45

>  <SMILES>  (3) 
CCC(=O)N(c1ccccc1)C1CC[N+](=C(O)[C@@H]([NH3+])C2Cc3ccccc3C2)CC1

>  <Energy>  (3) 
96.73935668380376

>  <Genealogy>  (3) 
CCC(=O)N(c1ccccc1)C1CC[NH+](C(=O)[C@@H]([NH3+])C2Cc3ccccc3C2)CC1 (protonated)
CCC(=O)N(c1ccccc1)C1CC[N+](=C(O)[C@@H]([NH3+])C2Cc3ccccc3C2)CC1 (tautomer)
CCC(=O)N(c1ccccc1)C1CC[N+](=C(O)[C@@H]([NH3+])C2Cc3ccccc3C2)CC1 (3D coordinates assigned)
CCC(=O)N(c1ccccc1)C1CC[N+](=C(O)[C@@H]([NH3+])C2Cc3ccccc3C2)CC1 (nonaromatic ring conformer: 96.73935668380376 kcal/mol)

$$$$
untitled_line_13
     RDKit          3D

 63 66  0  0  0  0  0  0  0  0999 V2000
   -0.5279   -3.0021   -1.8610 H   0  0  0  0  0  0  0  0  0  0  0  0
   -1.0107   -3.8267   -1.5291 O   0  0  0  0  0  0  0  0  0  0  0  0
   -1.9035   -3.8653   -0.4467 C   0  0  0  0  0  0  0  0  0  0  0  0
   -2.0294   -2.8504    0.3956 N   0  0  0  0  0  0  0  0  0  0  0  0
   -3.1017   -2.8716    1.3630 C   0  0  0  0  0  0  0  0  0  0  0  0
   -4.3373   -2.2768    1.0636 C   0  0  0  0  0  0  0  0  0  0  0  0
   -4.5008   -1.8087    0.1014 H   0  0  0  0  0  0  0  0  0  0  0  0
   -5.3742   -2.3006    2.0023 C   0  0  0  0  0  0  0  0  0  0  0  0
   -6.3254   -1.8408    1.7685 H   0  0  0  0  0  0  0  0  0  0  0  0
   -5.1846   -2.9206    3.2403 C   0  0  0  0  0  0  0  0  0  0  0  0
   -5.9888   -2.9387    3.9647 H   0  0  0  0  0  0  0  0  0  0  0  0
   -3.9602   -3.5264    3.5398 C   0  0  0  0  0  0  0  0  0  0  0  0
   -3.8155   -4.0113    4.4966 H   0  0  0  0  0  0  0  0  0  0  0  0
   -2.9216   -3.5046    2.6043 C   0  0  0  0  0  0  0  0  0  0  0  0
   -1.9751   -3.9726    2.8441 H   0  0  0  0  0  0  0  0  0  0  0  0
   -1.1711   -1.6366    0.2981 C   0  0  0  0  0  0  0  0  0  0  0  0
   -0.1722   -1.9317   -0.0831 H   0  0  0  0  0  0  0  0  0  0  0  0
   -0.8671   -0.9618    1.6689 C   0  0  0  0  0  0  0  0  0  0  0  0
   -1.6315   -1.1779    2.4392 H   0  0  0  0  0  0  0  0  0  0  0  0
    0.0890   -1.3663    2.0695 H   0  0  0  0  0  0  0  0  0  0  0  0
   -0.7687    0.5773    1.5805 C   0  0  0  0  0  0  0  0  0  0  0  0
   -1.7963    1.0004    1.6667 H   0  0  0  0  0  0  0  0  0  0  0  0
   -0.2048    0.9607    2.4612 H   0  0  0  0  0  0  0  0  0  0  0  0
   -0.1535    1.0633    0.3248 N   0  0  0  0  0  0  0  0  0  0  0  0
   -0.3005    2.1000    0.3248 H   0  0  0  0  0  0  0  0  0  0  0  0
    1.2824    0.8264    0.3328 C   0  0  0  0  0  0  0  0  0  0  0  0
    1.7241   -0.2984    0.1333 O   0  0  0  0  0  0  0  0  0  0  0  0
    2.2580    1.9539    0.6075 C   0  0  1  0  0  0  0  0  0  0  0  0
    1.6942    2.8643    0.9106 H   0  0  0  0  0  0  0  0  0  0  0  0
    3.1240    1.5645    1.7261 N   0  0  0  0  0  0  0  0  0  0  0  0
    3.8548    0.8931    1.3921 H   0  0  0  0  0  0  0  0  0  0  0  0
    3.6177    2.4103    2.0934 H   0  0  0  0  0  0  0  0  0  0  0  0
    3.0803    2.2882   -0.6662 C   0  0  0  0  0  0  0  0  0  0  0  0
    3.6399    1.3791   -0.9860 H   0  0  0  0  0  0  0  0  0  0  0  0
    2.1902    2.7365   -1.8540 C   0  0  0  0  0  0  0  0  0  0  0  0
    1.2049    3.1215   -1.5145 H   0  0  0  0  0  0  0  0  0  0  0  0
    2.0470    1.9095   -2.5817 H   0  0  0  0  0  0  0  0  0  0  0  0
    2.9555    3.8471   -2.4650 C   0  0  0  0  0  0  0  0  0  0  0  0
    2.6641    4.5082   -3.6602 C   0  0  0  0  0  0  0  0  0  0  0  0
    1.8128    4.2166   -4.2618 H   0  0  0  0  0  0  0  0  0  0  0  0
    3.4919    5.5693   -4.0630 C   0  0  0  0  0  0  0  0  0  0  0  0
    3.2805    6.0994   -4.9830 H   0  0  0  0  0  0  0  0  0  0  0  0
    4.5870    5.9521   -3.2675 C   0  0  0  0  0  0  0  0  0  0  0  0
    5.2183    6.7752   -3.5777 H   0  0  0  0  0  0  0  0  0  0  0  0
    4.8557    5.2789   -2.0658 C   0  0  0  0  0  0  0  0  0  0  0  0
    5.6885    5.5775   -1.4426 H   0  0  0  0  0  0  0  0  0  0  0  0
    4.0222    4.2230   -1.6876 C   0  0  0  0  0  0  0  0  0  0  0  0
    4.1095    3.4253   -0.4438 C   0  0  0  0  0  0  0  0  0  0  0  0
    3.8360    4.0750    0.4150 H   0  0  0  0  0  0  0  0  0  0  0  0
    5.1343    3.0187   -0.3044 H   0  0  0  0  0  0  0  0  0  0  0  0
   -0.8055    0.5500   -0.9176 C   0  0  0  0  0  0  0  0  0  0  0  0
   -1.3833    1.3680   -1.4054 H   0  0  0  0  0  0  0  0  0  0  0  0
   -0.0510    0.2332   -1.6741 H   0  0  0  0  0  0  0  0  0  0  0  0
   -1.7768   -0.6217   -0.6808 C   0  0  0  0  0  0  0  0  0  0  0  0
   -2.0056   -1.1078   -1.6535 H   0  0  0  0  0  0  0  0  0  0  0  0
   -2.7321   -0.2283   -0.2721 H   0  0  0  0  0  0  0  0  0  0  0  0
   -2.7422   -5.1241   -0.2933 C   0  0  0  0  0  0  0  0  0  0  0  0
   -3.8174   -4.8642   -0.3977 H   0  0  0  0  0  0  0  0  0  0  0  0
   -2.5770   -5.5540    0.7179 H   0  0  0  0  0  0  0  0  0  0  0  0
   -2.4045   -6.2012   -1.3242 C   0  0  0  0  0  0  0  0  0  0  0  0
   -1.3385   -6.5023   -1.2332 H   0  0  0  0  0  0  0  0  0  0  0  0
   -2.5989   -5.8272   -2.3529 H   0  0  0  0  0  0  0  0  0  0  0  0
   -3.0397   -7.0959   -1.1492 H   0  0  0  0  0  0  0  0  0  0  0  0
  1  2  1  0
  2  3  1  0
  3  4  2  0
  4  5  1  0
  5  6  2  0
  6  7  1  0
  6  8  1  0
  8  9  1  0
  8 10  2  0
 10 11  1  0
 10 12  1  0
 12 13  1  0
 12 14  2  0
 14 15  1  0
  4 16  1  0
 16 17  1  0
 16 18  1  0
 18 19  1  0
 18 20  1  0
 18 21  1  0
 21 22  1  0
 21 23  1  0
 21 24  1  0
 24 25  1  0
 24 26  1  0
 26 27  2  0
 26 28  1  0
 28 29  1  1
 28 30  1  0
 30 31  1  0
 30 32  1  0
 28 33  1  0
 33 34  1  0
 33 35  1  0
 35 36  1  0
 35 37  1  0
 35 38  1  0
 38 39  2  0
 39 40  1  0
 39 41  1  0
 41 42  1  0
 41 43  2  0
 43 44  1  0
 43 45  1  0
 45 46  1  0
 45 47  2  0
 47 48  1  0
 48 49  1  0
 48 50  1  0
 24 51  1  0
 51 52  1  0
 51 53  1  0
 51 54  1  0
 54 55  1  0
 54 56  1  0
  3 57  1  0
 57 58  1  0
 57 59  1  0
 57 60  1  0
 60 61  1  0
 60 62  1  0
 60 63  1  0
 14  5  1  0
 54 16  1  0
 48 33  1  0
 47 38  1  0
M  CHG  2   4   1  24   1
M  END
>  <UniqueID>  (4) 
46

>  <SMILES>  (4) 
CC/C(O)=[N+](\c1ccccc1)C1CC[NH+](C(=O)[C@@H](N)C2Cc3ccccc3C2)CC1

>  <Energy>  (4) 
96.95171641954555

>  <Genealogy>  (4) 
CCC(=O)[NH+](c1ccccc1)C1CC[NH+](C(=O)[C@@H](N)C2Cc3ccccc3C2)CC1 (protonated)
CCC(O)=[N+](c1ccccc1)C1CC[NH+](C(=O)[C@@H](N)C2Cc3ccccc3C2)CC1 (tautomer)
CC/C(O)=[N+](\c1ccccc1)C1CC[NH+](C(=O)[C@@H](N)C2Cc3ccccc3C2)CC1 (cis-trans isomerization)
CC/C(O)=[N+](\c1ccccc1)C1CC[NH+](C(=O)[C@@H](N)C2Cc3ccccc3C2)CC1 (3D coordinates assigned)
CC/C(O)=[N+](\c1ccccc1)C1CC[NH+](C(=O)[C@@H](N)C2Cc3ccccc3C2)CC1 (nonaromatic ring conformer: 96.95171641954555 kcal/mol)

$$$$
