untitled_line_11
     RDKit          3D

 62 66  0  0  0  0  0  0  0  0999 V2000
    0.7857    7.5572   -2.2291 C   0  0  0  0  0  0  0  0  0  0  0  0
    0.4574    6.2508   -2.8249 N   0  0  0  0  0  0  0  0  0  0  0  0
   -0.7694    5.7035   -2.2135 C   0  0  0  0  0  0  0  0  0  0  0  0
   -1.2316    4.4721   -2.9991 C   0  0  0  0  0  0  0  0  0  0  0  0
   -0.0960    3.6018   -3.3257 N   0  0  0  0  0  0  0  0  0  0  0  0
   -0.2992    2.4968   -4.2284 C   0  0  0  0  0  0  0  0  0  0  0  0
   -1.0641    2.6430   -5.2205 O   0  0  0  0  0  0  0  0  0  0  0  0
    0.3632    1.1885   -4.0210 C   0  0  0  0  0  0  0  0  0  0  0  0
    0.7456    0.4112   -5.1251 C   0  0  0  0  0  0  0  0  0  0  0  0
    1.3589   -0.8283   -4.9361 C   0  0  0  0  0  0  0  0  0  0  0  0
    1.5930   -1.3082   -3.6459 C   0  0  0  0  0  0  0  0  0  0  0  0
    1.2124   -0.5500   -2.5239 C   0  0  0  0  0  0  0  0  0  0  0  0
    1.4344   -1.0578   -1.1460 C   0  0  0  0  0  0  0  0  0  0  0  0
    0.5831   -0.7334   -0.2158 N   0  0  0  0  0  0  0  0  0  0  0  0
    0.5862   -1.1550    1.1595 C   0  0  0  0  0  0  0  0  0  0  0  0
    0.1238   -0.2365    2.1116 C   0  0  0  0  0  0  0  0  0  0  0  0
    0.0260   -0.5880    3.4581 C   0  0  0  0  0  0  0  0  0  0  0  0
    0.3657   -1.8780    3.8702 C   0  0  0  0  0  0  0  0  0  0  0  0
    0.2528   -2.2445    5.2574 C   0  0  0  0  0  0  0  0  0  0  0  0
    0.1574   -2.5514    6.4193 C   0  0  0  0  0  0  0  0  0  0  0  0
    0.0426   -2.9174    7.8063 C   0  0  0  0  0  0  0  0  0  0  0  0
    0.7625   -4.0112    8.3065 C   0  0  0  0  0  0  0  0  0  0  0  0
    0.6494   -4.3657    9.6551 C   0  0  0  0  0  0  0  0  0  0  0  0
   -0.1817   -3.6296   10.5056 C   0  0  0  0  0  0  0  0  0  0  0  0
   -0.9009   -2.5381   10.0085 C   0  0  0  0  0  0  0  0  0  0  0  0
   -0.7900   -2.1811    8.6605 C   0  0  0  0  0  0  0  0  0  0  0  0
    0.8019   -2.8169    2.9300 C   0  0  0  0  0  0  0  0  0  0  0  0
    0.9253   -2.4740    1.5731 C   0  0  0  0  0  0  0  0  0  0  0  0
    1.3200   -3.5041    0.6484 N   0  0  0  0  0  0  0  0  0  0  0  0
    2.1609   -3.2782   -0.4872 C   0  0  0  0  0  0  0  0  0  0  0  0
    2.5013   -4.2491   -1.2148 O   0  0  0  0  0  0  0  0  0  0  0  0
    2.6308   -1.9059   -0.8208 C   0  0  0  0  0  0  0  0  0  0  0  0
    0.5812    0.6919   -2.7244 C   0  0  0  0  0  0  0  0  0  0  0  0
    1.2056    3.8252   -2.6808 C   0  0  0  0  0  0  0  0  0  0  0  0
    1.6077    5.3176   -2.6989 C   0  0  0  0  0  0  0  0  0  0  0  0
    1.7179    7.9648   -2.6794 H   0  0  0  0  0  0  0  0  0  0  0  0
    0.9275    7.4706   -1.1286 H   0  0  0  0  0  0  0  0  0  0  0  0
   -0.0282    8.2895   -2.4260 H   0  0  0  0  0  0  0  0  0  0  0  0
    0.2744    6.4150   -3.8447 H   0  0  0  0  0  0  0  0  0  0  0  0
   -0.5838    5.4236   -1.1511 H   0  0  0  0  0  0  0  0  0  0  0  0
   -1.5888    6.4576   -2.2299 H   0  0  0  0  0  0  0  0  0  0  0  0
   -1.9808    3.9045   -2.4063 H   0  0  0  0  0  0  0  0  0  0  0  0
   -1.7146    4.8186   -3.9389 H   0  0  0  0  0  0  0  0  0  0  0  0
    0.5769    0.7672   -6.1341 H   0  0  0  0  0  0  0  0  0  0  0  0
    1.6489   -1.4224   -5.7932 H   0  0  0  0  0  0  0  0  0  0  0  0
    2.0449   -2.2847   -3.5308 H   0  0  0  0  0  0  0  0  0  0  0  0
   -0.1613    0.7622    1.8040 H   0  0  0  0  0  0  0  0  0  0  0  0
   -0.3248    0.1438    4.1761 H   0  0  0  0  0  0  0  0  0  0  0  0
    1.4090   -4.5878    7.6558 H   0  0  0  0  0  0  0  0  0  0  0  0
    1.2055   -5.2103   10.0408 H   0  0  0  0  0  0  0  0  0  0  0  0
   -0.2684   -3.9049   11.5487 H   0  0  0  0  0  0  0  0  0  0  0  0
   -1.5441   -1.9692   10.6675 H   0  0  0  0  0  0  0  0  0  0  0  0
   -1.3514   -1.3339    8.2851 H   0  0  0  0  0  0  0  0  0  0  0  0
    1.0489   -3.8221    3.2527 H   0  0  0  0  0  0  0  0  0  0  0  0
    1.1139   -4.4980    0.8988 H   0  0  0  0  0  0  0  0  0  0  0  0
    3.3596   -1.9304   -1.6585 H   0  0  0  0  0  0  0  0  0  0  0  0
    3.1670   -1.4767    0.0526 H   0  0  0  0  0  0  0  0  0  0  0  0
    0.2513    1.2685   -1.8695 H   0  0  0  0  0  0  0  0  0  0  0  0
    1.1409    3.4838   -1.6251 H   0  0  0  0  0  0  0  0  0  0  0  0
    2.0031    3.2317   -3.1792 H   0  0  0  0  0  0  0  0  0  0  0  0
    2.3053    5.4868   -3.5503 H   0  0  0  0  0  0  0  0  0  0  0  0
    2.1892    5.5185   -1.7696 H   0  0  0  0  0  0  0  0  0  0  0  0
  1  2  1  0
  2  3  1  0
  3  4  1  0
  4  5  1  0
  5  6  1  0
  6  7  2  0
  6  8  1  0
  8  9  2  0
  9 10  1  0
 10 11  2  0
 11 12  1  0
 12 13  1  0
 13 14  2  0
 14 15  1  0
 15 16  2  0
 16 17  1  0
 17 18  2  0
 18 19  1  0
 19 20  3  0
 20 21  1  0
 21 22  2  0
 22 23  1  0
 23 24  2  0
 24 25  1  0
 25 26  2  0
 18 27  1  0
 27 28  2  0
 28 29  1  0
 29 30  1  0
 30 31  2  0
 30 32  1  0
 12 33  2  0
  5 34  1  0
 34 35  1  0
 35  2  1  0
 33  8  1  0
 32 13  1  0
 28 15  1  0
 26 21  1  0
  1 36  1  0
  1 37  1  0
  1 38  1  0
  2 39  1  0
  3 40  1  0
  3 41  1  0
  4 42  1  0
  4 43  1  0
  9 44  1  0
 10 45  1  0
 11 46  1  0
 16 47  1  0
 17 48  1  0
 22 49  1  0
 23 50  1  0
 24 51  1  0
 25 52  1  0
 26 53  1  0
 27 54  1  0
 29 55  1  0
 32 56  1  0
 32 57  1  0
 33 58  1  0
 34 59  1  0
 34 60  1  0
 35 61  1  0
 35 62  1  0
M  CHG  1   2   1
M  END
>  <UniqueID>  (1) 
35

>  <SMILES>  (1) 
C[NH+]1CCN(C(=O)c2cccc(C3=Nc4ccc(C#Cc5ccccc5)cc4NC(=O)C3)c2)CC1

>  <Energy>  (1) 
86.96701534170109

>  <Genealogy>  (1) 
C[NH+]1CCN(C(=O)c2cccc(C3=Nc4ccc(C#Cc5ccccc5)cc4NC(=O)C3)c2)CC1 (protonated)
C[NH+]1CCN(C(=O)c2cccc(C3=Nc4ccc(C#Cc5ccccc5)cc4NC(=O)C3)c2)CC1 (3D coordinates assigned)
C[NH+]1CCN(C(=O)c2cccc(C3=Nc4ccc(C#Cc5ccccc5)cc4NC(=O)C3)c2)CC1 (nonaromatic ring conformer: 86.96701534170109 kcal/mol)

$$$$
untitled_line_11
     RDKit          3D

 62 66  0  0  0  0  0  0  0  0999 V2000
    1.1148    6.4580   -7.5503 C   0  0  0  0  0  0  0  0  0  0  0  0
    0.9129    5.2899   -6.6752 N   0  0  0  0  0  0  0  0  0  0  0  0
   -0.0672    4.3547   -7.2808 C   0  0  0  0  0  0  0  0  0  0  0  0
    0.0160    2.9191   -6.7119 C   0  0  0  0  0  0  0  0  0  0  0  0
    0.7344    2.8788   -5.4330 N   0  0  0  0  0  0  0  0  0  0  0  0
    0.3779    1.8825   -4.4592 C   0  0  0  0  0  0  0  0  0  0  0  0
    0.0589    0.7244   -4.8457 O   0  0  0  0  0  0  0  0  0  0  0  0
    0.3659    2.1963   -3.0128 C   0  0  0  0  0  0  0  0  0  0  0  0
    0.0627    3.4935   -2.5697 C   0  0  0  0  0  0  0  0  0  0  0  0
    0.0292    3.7823   -1.2049 C   0  0  0  0  0  0  0  0  0  0  0  0
    0.2967    2.7823   -0.2682 C   0  0  0  0  0  0  0  0  0  0  0  0
    0.6036    1.4756   -0.6873 C   0  0  0  0  0  0  0  0  0  0  0  0
    0.8801    0.4185    0.3184 C   0  0  0  0  0  0  0  0  0  0  0  0
    0.2769    0.4793    1.4711 N   0  0  0  0  0  0  0  0  0  0  0  0
    0.3676   -0.4588    2.5581 C   0  0  0  0  0  0  0  0  0  0  0  0
    0.2825    0.0588    3.8573 C   0  0  0  0  0  0  0  0  0  0  0  0
    0.2911   -0.7860    4.9676 C   0  0  0  0  0  0  0  0  0  0  0  0
    0.3595   -2.1693    4.7932 C   0  0  0  0  0  0  0  0  0  0  0  0
    0.3570   -3.0406    5.9390 C   0  0  0  0  0  0  0  0  0  0  0  0
    0.3543   -3.7688    6.8998 C   0  0  0  0  0  0  0  0  0  0  0  0
    0.3510   -4.6369    8.0476 C   0  0  0  0  0  0  0  0  0  0  0  0
    0.4242   -4.0949    9.3382 C   0  0  0  0  0  0  0  0  0  0  0  0
    0.4212   -4.9398   10.4533 C   0  0  0  0  0  0  0  0  0  0  0  0
    0.3427   -6.3254   10.2822 C   0  0  0  0  0  0  0  0  0  0  0  0
    0.2686   -6.8682    8.9954 C   0  0  0  0  0  0  0  0  0  0  0  0
    0.2737   -6.0264    7.8782 C   0  0  0  0  0  0  0  0  0  0  0  0
    0.4151   -2.7061    3.5032 C   0  0  0  0  0  0  0  0  0  0  0  0
    0.4262   -1.8693    2.3742 C   0  0  0  0  0  0  0  0  0  0  0  0
    0.4182   -2.4879    1.0744 N   0  0  0  0  0  0  0  0  0  0  0  0
    1.1112   -1.9662   -0.0636 C   0  0  0  0  0  0  0  0  0  0  0  0
    1.0762   -2.5925   -1.1570 O   0  0  0  0  0  0  0  0  0  0  0  0
    1.8592   -0.6829    0.0285 C   0  0  0  0  0  0  0  0  0  0  0  0
    0.6179    1.1882   -2.0658 C   0  0  0  0  0  0  0  0  0  0  0  0
    2.0214    3.5754   -5.2989 C   0  0  0  0  0  0  0  0  0  0  0  0
    2.2002    4.6197   -6.4073 C   0  0  0  0  0  0  0  0  0  0  0  0
    1.7633    7.2102   -7.0493 H   0  0  0  0  0  0  0  0  0  0  0  0
    1.5920    6.1604   -8.5112 H   0  0  0  0  0  0  0  0  0  0  0  0
    0.1411    6.9501   -7.7710 H   0  0  0  0  0  0  0  0  0  0  0  0
    0.5213    5.6442   -5.7684 H   0  0  0  0  0  0  0  0  0  0  0  0
   -1.0954    4.7476   -7.1110 H   0  0  0  0  0  0  0  0  0  0  0  0
    0.0731    4.2920   -8.3848 H   0  0  0  0  0  0  0  0  0  0  0  0
   -1.0148    2.5172   -6.5904 H   0  0  0  0  0  0  0  0  0  0  0  0
    0.5484    2.2646   -7.4364 H   0  0  0  0  0  0  0  0  0  0  0  0
   -0.1672    4.2795   -3.2786 H   0  0  0  0  0  0  0  0  0  0  0  0
   -0.2076    4.7847   -0.8717 H   0  0  0  0  0  0  0  0  0  0  0  0
    0.2730    3.0329    0.7853 H   0  0  0  0  0  0  0  0  0  0  0  0
    0.2103    1.1289    4.0081 H   0  0  0  0  0  0  0  0  0  0  0  0
    0.2345   -0.3598    5.9619 H   0  0  0  0  0  0  0  0  0  0  0  0
    0.4831   -3.0226    9.4818 H   0  0  0  0  0  0  0  0  0  0  0  0
    0.4792   -4.5204   11.4495 H   0  0  0  0  0  0  0  0  0  0  0  0
    0.3397   -6.9779   11.1458 H   0  0  0  0  0  0  0  0  0  0  0  0
    0.2076   -7.9408    8.8643 H   0  0  0  0  0  0  0  0  0  0  0  0
    0.2174   -6.4568    6.8855 H   0  0  0  0  0  0  0  0  0  0  0  0
    0.4509   -3.7816    3.3727 H   0  0  0  0  0  0  0  0  0  0  0  0
    0.0115   -3.4471    0.9862 H   0  0  0  0  0  0  0  0  0  0  0  0
    2.4329   -0.4916   -0.9035 H   0  0  0  0  0  0  0  0  0  0  0  0
    2.6038   -0.7474    0.8510 H   0  0  0  0  0  0  0  0  0  0  0  0
    0.8152    0.1797   -2.4069 H   0  0  0  0  0  0  0  0  0  0  0  0
    2.8540    2.8396   -5.3378 H   0  0  0  0  0  0  0  0  0  0  0  0
    2.0665    4.0955   -4.3190 H   0  0  0  0  0  0  0  0  0  0  0  0
    2.5789    4.1234   -7.3308 H   0  0  0  0  0  0  0  0  0  0  0  0
    2.9686    5.3553   -6.0773 H   0  0  0  0  0  0  0  0  0  0  0  0
  1  2  1  0
  2  3  1  0
  3  4  1  0
  4  5  1  0
  5  6  1  0
  6  7  2  0
  6  8  1  0
  8  9  2  0
  9 10  1  0
 10 11  2  0
 11 12  1  0
 12 13  1  0
 13 14  2  0
 14 15  1  0
 15 16  2  0
 16 17  1  0
 17 18  2  0
 18 19  1  0
 19 20  3  0
 20 21  1  0
 21 22  2  0
 22 23  1  0
 23 24  2  0
 24 25  1  0
 25 26  2  0
 18 27  1  0
 27 28  2  0
 28 29  1  0
 29 30  1  0
 30 31  2  0
 30 32  1  0
 12 33  2  0
  5 34  1  0
 34 35  1  0
 35  2  1  0
 33  8  1  0
 32 13  1  0
 28 15  1  0
 26 21  1  0
  1 36  1  0
  1 37  1  0
  1 38  1  0
  2 39  1  0
  3 40  1  0
  3 41  1  0
  4 42  1  0
  4 43  1  0
  9 44  1  0
 10 45  1  0
 11 46  1  0
 16 47  1  0
 17 48  1  0
 22 49  1  0
 23 50  1  0
 24 51  1  0
 25 52  1  0
 26 53  1  0
 27 54  1  0
 29 55  1  0
 32 56  1  0
 32 57  1  0
 33 58  1  0
 34 59  1  0
 34 60  1  0
 35 61  1  0
 35 62  1  0
M  CHG  1   2   1
M  END
>  <UniqueID>  (2) 
36

>  <SMILES>  (2) 
C[NH+]1CCN(C(=O)c2cccc(C3=Nc4ccc(C#Cc5ccccc5)cc4NC(=O)C3)c2)CC1

>  <Energy>  (2) 
86.99637314576538

>  <Genealogy>  (2) 
C[NH+]1CCN(C(=O)c2cccc(C3=Nc4ccc(C#Cc5ccccc5)cc4NC(=O)C3)c2)CC1 (protonated)
C[NH+]1CCN(C(=O)c2cccc(C3=Nc4ccc(C#Cc5ccccc5)cc4NC(=O)C3)c2)CC1 (3D coordinates assigned)
C[NH+]1CCN(C(=O)c2cccc(C3=Nc4ccc(C#Cc5ccccc5)cc4NC(=O)C3)c2)CC1 (nonaromatic ring conformer: 86.99637314576538 kcal/mol)

$$$$
untitled_line_11
     RDKit          3D

 62 66  0  0  0  0  0  0  0  0999 V2000
    0.1498   -2.4440   -4.9080 C   0  0  0  0  0  0  0  0  0  0  0  0
    0.1989   -1.1087   -5.5334 N   0  0  0  0  0  0  0  0  0  0  0  0
    1.4135   -0.3624   -5.0970 C   0  0  0  0  0  0  0  0  0  0  0  0
    1.1164    0.6806   -4.0137 C   0  0  0  0  0  0  0  0  0  0  0  0
    0.0935    1.6155   -4.4983 N   0  0  0  0  0  0  0  0  0  0  0  0
    0.1583    3.0214   -4.1830 C   0  0  0  0  0  0  0  0  0  0  0  0
   -0.1922    3.8653   -5.0537 O   0  0  0  0  0  0  0  0  0  0  0  0
    0.6067    3.5023   -2.8548 C   0  0  0  0  0  0  0  0  0  0  0  0
    1.2497    4.7441   -2.7337 C   0  0  0  0  0  0  0  0  0  0  0  0
    1.6639    5.2063   -1.4826 C   0  0  0  0  0  0  0  0  0  0  0  0
    1.4372    4.4387   -0.3381 C   0  0  0  0  0  0  0  0  0  0  0  0
    0.7804    3.1993   -0.4334 C   0  0  0  0  0  0  0  0  0  0  0  0
    0.5653    2.3541    0.7667 C   0  0  0  0  0  0  0  0  0  0  0  0
    0.6438    1.0617    0.6392 N   0  0  0  0  0  0  0  0  0  0  0  0
    0.5375    0.0693    1.6746 C   0  0  0  0  0  0  0  0  0  0  0  0
   -0.0433   -1.1569    1.3247 C   0  0  0  0  0  0  0  0  0  0  0  0
   -0.0985   -2.2105    2.2366 C   0  0  0  0  0  0  0  0  0  0  0  0
    0.4491   -2.0604    3.5116 C   0  0  0  0  0  0  0  0  0  0  0  0
    0.4232   -3.1618    4.4376 C   0  0  0  0  0  0  0  0  0  0  0  0
    0.4083   -4.0898    5.2077 C   0  0  0  0  0  0  0  0  0  0  0  0
    0.3986   -5.2025    6.1211 C   0  0  0  0  0  0  0  0  0  0  0  0
    1.5414   -6.0022    6.2646 C   0  0  0  0  0  0  0  0  0  0  0  0
    1.5299   -7.0880    7.1463 C   0  0  0  0  0  0  0  0  0  0  0  0
    0.3801   -7.3755    7.8884 C   0  0  0  0  0  0  0  0  0  0  0  0
   -0.7595   -6.5760    7.7512 C   0  0  0  0  0  0  0  0  0  0  0  0
   -0.7532   -5.4921    6.8662 C   0  0  0  0  0  0  0  0  0  0  0  0
    1.0487   -0.8500    3.8738 C   0  0  0  0  0  0  0  0  0  0  0  0
    1.0981    0.2284    2.9736 C   0  0  0  0  0  0  0  0  0  0  0  0
    1.7939    1.4201    3.3855 N   0  0  0  0  0  0  0  0  0  0  0  0
    1.4090    2.7460    3.0084 C   0  0  0  0  0  0  0  0  0  0  0  0
    2.0581    3.7317    3.4498 O   0  0  0  0  0  0  0  0  0  0  0  0
    0.2540    2.9724    2.0980 C   0  0  0  0  0  0  0  0  0  0  0  0
    0.3621    2.7440   -1.6964 C   0  0  0  0  0  0  0  0  0  0  0  0
   -0.9378    1.1289   -5.4196 C   0  0  0  0  0  0  0  0  0  0  0  0
   -1.0833   -0.3921   -5.2920 C   0  0  0  0  0  0  0  0  0  0  0  0
    0.1250   -2.3620   -3.7988 H   0  0  0  0  0  0  0  0  0  0  0  0
    1.0356   -3.0486   -5.2057 H   0  0  0  0  0  0  0  0  0  0  0  0
   -0.7549   -2.9988   -5.2434 H   0  0  0  0  0  0  0  0  0  0  0  0
    0.2824   -1.2627   -6.5667 H   0  0  0  0  0  0  0  0  0  0  0  0
    1.8508    0.1742   -5.9706 H   0  0  0  0  0  0  0  0  0  0  0  0
    2.2148   -1.0450   -4.7291 H   0  0  0  0  0  0  0  0  0  0  0  0
    2.0571    1.2221   -3.7725 H   0  0  0  0  0  0  0  0  0  0  0  0
    0.7553    0.1667   -3.0989 H   0  0  0  0  0  0  0  0  0  0  0  0
    1.4444    5.3510   -3.6095 H   0  0  0  0  0  0  0  0  0  0  0  0
    2.1766    6.1554   -1.4005 H   0  0  0  0  0  0  0  0  0  0  0  0
    1.7981    4.8008    0.6150 H   0  0  0  0  0  0  0  0  0  0  0  0
   -0.4506   -1.2976    0.3302 H   0  0  0  0  0  0  0  0  0  0  0  0
   -0.5535   -3.1477    1.9398 H   0  0  0  0  0  0  0  0  0  0  0  0
    2.4382   -5.7873    5.6960 H   0  0  0  0  0  0  0  0  0  0  0  0
    2.4111   -7.7074    7.2548 H   0  0  0  0  0  0  0  0  0  0  0  0
    0.3731   -8.2160    8.5706 H   0  0  0  0  0  0  0  0  0  0  0  0
   -1.6460   -6.7967    8.3308 H   0  0  0  0  0  0  0  0  0  0  0  0
   -1.6427   -4.8807    6.7632 H   0  0  0  0  0  0  0  0  0  0  0  0
    1.4864   -0.7452    4.8602 H   0  0  0  0  0  0  0  0  0  0  0  0
    2.5325    1.3303    4.1195 H   0  0  0  0  0  0  0  0  0  0  0  0
    0.0315    4.0559    2.0014 H   0  0  0  0  0  0  0  0  0  0  0  0
   -0.6535    2.4978    2.5286 H   0  0  0  0  0  0  0  0  0  0  0  0
   -0.1851    1.8124   -1.7694 H   0  0  0  0  0  0  0  0  0  0  0  0
   -1.9160    1.5979   -5.1706 H   0  0  0  0  0  0  0  0  0  0  0  0
   -0.6667    1.4029   -6.4620 H   0  0  0  0  0  0  0  0  0  0  0  0
   -1.8561   -0.7413   -6.0149 H   0  0  0  0  0  0  0  0  0  0  0  0
   -1.4718   -0.6052   -4.2668 H   0  0  0  0  0  0  0  0  0  0  0  0
  1  2  1  0
  2  3  1  0
  3  4  1  0
  4  5  1  0
  5  6  1  0
  6  7  2  0
  6  8  1  0
  8  9  2  0
  9 10  1  0
 10 11  2  0
 11 12  1  0
 12 13  1  0
 13 14  2  0
 14 15  1  0
 15 16  2  0
 16 17  1  0
 17 18  2  0
 18 19  1  0
 19 20  3  0
 20 21  1  0
 21 22  2  0
 22 23  1  0
 23 24  2  0
 24 25  1  0
 25 26  2  0
 18 27  1  0
 27 28  2  0
 28 29  1  0
 29 30  1  0
 30 31  2  0
 30 32  1  0
 12 33  2  0
  5 34  1  0
 34 35  1  0
 35  2  1  0
 33  8  1  0
 32 13  1  0
 28 15  1  0
 26 21  1  0
  1 36  1  0
  1 37  1  0
  1 38  1  0
  2 39  1  0
  3 40  1  0
  3 41  1  0
  4 42  1  0
  4 43  1  0
  9 44  1  0
 10 45  1  0
 11 46  1  0
 16 47  1  0
 17 48  1  0
 22 49  1  0
 23 50  1  0
 24 51  1  0
 25 52  1  0
 26 53  1  0
 27 54  1  0
 29 55  1  0
 32 56  1  0
 32 57  1  0
 33 58  1  0
 34 59  1  0
 34 60  1  0
 35 61  1  0
 35 62  1  0
M  CHG  1   2   1
M  END
>  <UniqueID>  (3) 
37

>  <SMILES>  (3) 
C[NH+]1CCN(C(=O)c2cccc(C3=Nc4ccc(C#Cc5ccccc5)cc4NC(=O)C3)c2)CC1

>  <Energy>  (3) 
87.65883949536077

>  <Genealogy>  (3) 
C[NH+]1CCN(C(=O)c2cccc(C3=Nc4ccc(C#Cc5ccccc5)cc4NC(=O)C3)c2)CC1 (protonated)
C[NH+]1CCN(C(=O)c2cccc(C3=Nc4ccc(C#Cc5ccccc5)cc4NC(=O)C3)c2)CC1 (3D coordinates assigned)
C[NH+]1CCN(C(=O)c2cccc(C3=Nc4ccc(C#Cc5ccccc5)cc4NC(=O)C3)c2)CC1 (nonaromatic ring conformer: 87.65883949536077 kcal/mol)

$$$$
untitled_line_11
     RDKit          3D

 62 66  0  0  0  0  0  0  0  0999 V2000
    0.6021   -1.4918   -3.7958 C   0  0  0  0  0  0  0  0  0  0  0  0
    0.2142   -0.9670   -5.1208 N   0  0  0  0  0  0  0  0  0  0  0  0
   -1.1879   -0.4529   -5.1115 C   0  0  0  0  0  0  0  0  0  0  0  0
   -1.3112    1.0705   -5.3166 C   0  0  0  0  0  0  0  0  0  0  0  0
   -0.2272    1.7778   -4.6298 N   0  0  0  0  0  0  0  0  0  0  0  0
   -0.4741    3.0688   -4.0457 C   0  0  0  0  0  0  0  0  0  0  0  0
   -1.3123    3.8473   -4.5811 O   0  0  0  0  0  0  0  0  0  0  0  0
    0.2266    3.4958   -2.8169 C   0  0  0  0  0  0  0  0  0  0  0  0
    0.6072    4.8356   -2.6435 C   0  0  0  0  0  0  0  0  0  0  0  0
    1.2642    5.2342   -1.4771 C   0  0  0  0  0  0  0  0  0  0  0  0
    1.5425    4.3035   -0.4727 C   0  0  0  0  0  0  0  0  0  0  0  0
    1.1581    2.9589   -0.6235 C   0  0  0  0  0  0  0  0  0  0  0  0
    1.4207    1.9638    0.4438 C   0  0  0  0  0  0  0  0  0  0  0  0
    0.5465    1.0211    0.6451 N   0  0  0  0  0  0  0  0  0  0  0  0
    0.5846   -0.0126    1.6436 C   0  0  0  0  0  0  0  0  0  0  0  0
    0.0326   -1.2540    1.2990 C   0  0  0  0  0  0  0  0  0  0  0  0
   -0.0344   -2.2915    2.2284 C   0  0  0  0  0  0  0  0  0  0  0  0
    0.4292   -2.0945    3.5304 C   0  0  0  0  0  0  0  0  0  0  0  0
    0.3573   -3.1649    4.4900 C   0  0  0  0  0  0  0  0  0  0  0  0
    0.2987   -4.0637    5.2915 C   0  0  0  0  0  0  0  0  0  0  0  0
    0.2297   -5.1395    6.2452 C   0  0  0  0  0  0  0  0  0  0  0  0
   -0.9644   -5.8535    6.4132 C   0  0  0  0  0  0  0  0  0  0  0  0
   -1.0287   -6.9037    7.3358 C   0  0  0  0  0  0  0  0  0  0  0  0
    0.0992   -7.2447    8.0894 C   0  0  0  0  0  0  0  0  0  0  0  0
    1.2923   -6.5335    7.9228 C   0  0  0  0  0  0  0  0  0  0  0  0
    1.3582   -5.4804    7.0031 C   0  0  0  0  0  0  0  0  0  0  0  0
    0.9542   -0.8520    3.9017 C   0  0  0  0  0  0  0  0  0  0  0  0
    1.0453    0.1985    2.9731 C   0  0  0  0  0  0  0  0  0  0  0  0
    1.5311    1.4715    3.4377 N   0  0  0  0  0  0  0  0  0  0  0  0
    2.3430    2.3529    2.6556 C   0  0  0  0  0  0  0  0  0  0  0  0
    2.7688    3.4243    3.1638 O   0  0  0  0  0  0  0  0  0  0  0  0
    2.6876    2.0180    1.2469 C   0  0  0  0  0  0  0  0  0  0  0  0
    0.4865    2.5696   -1.7951 C   0  0  0  0  0  0  0  0  0  0  0  0
    1.1572    1.3292   -4.8229 C   0  0  0  0  0  0  0  0  0  0  0  0
    1.2042    0.0163   -5.6188 C   0  0  0  0  0  0  0  0  0  0  0  0
    0.4830   -0.7194   -3.0041 H   0  0  0  0  0  0  0  0  0  0  0  0
   -0.0366   -2.3633   -3.5274 H   0  0  0  0  0  0  0  0  0  0  0  0
    1.6567   -1.8443   -3.8011 H   0  0  0  0  0  0  0  0  0  0  0  0
    0.2493   -1.7817   -5.7802 H   0  0  0  0  0  0  0  0  0  0  0  0
   -1.7743   -0.9508   -5.9168 H   0  0  0  0  0  0  0  0  0  0  0  0
   -1.7103   -0.7139   -4.1621 H   0  0  0  0  0  0  0  0  0  0  0  0
   -2.3013    1.4055   -4.9344 H   0  0  0  0  0  0  0  0  0  0  0  0
   -1.2654    1.3076   -6.4026 H   0  0  0  0  0  0  0  0  0  0  0  0
    0.4048    5.5689   -3.4145 H   0  0  0  0  0  0  0  0  0  0  0  0
    1.5560    6.2690   -1.3489 H   0  0  0  0  0  0  0  0  0  0  0  0
    2.0315    4.6416    0.4315 H   0  0  0  0  0  0  0  0  0  0  0  0
   -0.3478   -1.4176    0.2981 H   0  0  0  0  0  0  0  0  0  0  0  0
   -0.4556   -3.2446    1.9324 H   0  0  0  0  0  0  0  0  0  0  0  0
   -1.8420   -5.5988    5.8320 H   0  0  0  0  0  0  0  0  0  0  0  0
   -1.9523   -7.4524    7.4662 H   0  0  0  0  0  0  0  0  0  0  0  0
    0.0484   -8.0589    8.8012 H   0  0  0  0  0  0  0  0  0  0  0  0
    2.1656   -6.7987    8.5049 H   0  0  0  0  0  0  0  0  0  0  0  0
    2.2858   -4.9340    6.8795 H   0  0  0  0  0  0  0  0  0  0  0  0
    1.2964   -0.6972    4.9186 H   0  0  0  0  0  0  0  0  0  0  0  0
    1.4168    1.7022    4.4510 H   0  0  0  0  0  0  0  0  0  0  0  0
    3.1924    1.0290    1.2161 H   0  0  0  0  0  0  0  0  0  0  0  0
    3.4050    2.7576    0.8302 H   0  0  0  0  0  0  0  0  0  0  0  0
    0.1631    1.5425   -1.9124 H   0  0  0  0  0  0  0  0  0  0  0  0
    1.6492    1.1765   -3.8401 H   0  0  0  0  0  0  0  0  0  0  0  0
    1.7286    2.1094   -5.3722 H   0  0  0  0  0  0  0  0  0  0  0  0
    0.9977    0.2381   -6.6904 H   0  0  0  0  0  0  0  0  0  0  0  0
    2.2339   -0.4064   -5.5794 H   0  0  0  0  0  0  0  0  0  0  0  0
  1  2  1  0
  2  3  1  0
  3  4  1  0
  4  5  1  0
  5  6  1  0
  6  7  2  0
  6  8  1  0
  8  9  2  0
  9 10  1  0
 10 11  2  0
 11 12  1  0
 12 13  1  0
 13 14  2  0
 14 15  1  0
 15 16  2  0
 16 17  1  0
 17 18  2  0
 18 19  1  0
 19 20  3  0
 20 21  1  0
 21 22  2  0
 22 23  1  0
 23 24  2  0
 24 25  1  0
 25 26  2  0
 18 27  1  0
 27 28  2  0
 28 29  1  0
 29 30  1  0
 30 31  2  0
 30 32  1  0
 12 33  2  0
  5 34  1  0
 34 35  1  0
 35  2  1  0
 33  8  1  0
 32 13  1  0
 28 15  1  0
 26 21  1  0
  1 36  1  0
  1 37  1  0
  1 38  1  0
  2 39  1  0
  3 40  1  0
  3 41  1  0
  4 42  1  0
  4 43  1  0
  9 44  1  0
 10 45  1  0
 11 46  1  0
 16 47  1  0
 17 48  1  0
 22 49  1  0
 23 50  1  0
 24 51  1  0
 25 52  1  0
 26 53  1  0
 27 54  1  0
 29 55  1  0
 32 56  1  0
 32 57  1  0
 33 58  1  0
 34 59  1  0
 34 60  1  0
 35 61  1  0
 35 62  1  0
M  CHG  1   2   1
M  END
>  <UniqueID>  (4) 
38

>  <SMILES>  (4) 
C[NH+]1CCN(C(=O)c2cccc(C3=Nc4ccc(C#Cc5ccccc5)cc4NC(=O)C3)c2)CC1

>  <Energy>  (4) 
88.61206386078477

>  <Genealogy>  (4) 
C[NH+]1CCN(C(=O)c2cccc(C3=Nc4ccc(C#Cc5ccccc5)cc4NC(=O)C3)c2)CC1 (protonated)
C[NH+]1CCN(C(=O)c2cccc(C3=Nc4ccc(C#Cc5ccccc5)cc4NC(=O)C3)c2)CC1 (3D coordinates assigned)
C[NH+]1CCN(C(=O)c2cccc(C3=Nc4ccc(C#Cc5ccccc5)cc4NC(=O)C3)c2)CC1 (nonaromatic ring conformer: 88.61206386078477 kcal/mol)

$$$$
