untitled_line_8
     RDKit          3D

 49 52  0  0  0  0  0  0  0  0999 V2000
   -1.3259    0.6098   -2.6513 H   0  0  0  0  0  0  0  0  0  0  0  0
   -0.2488    0.5953   -2.5243 C   0  0  0  0  0  0  0  0  0  0  0  0
    0.2705    1.0587   -1.3789 C   0  0  0  0  0  0  0  0  0  0  0  0
    1.3331    0.9972   -1.2138 H   0  0  0  0  0  0  0  0  0  0  0  0
   -0.5945    1.6542   -0.3311 C   0  0  0  0  0  0  0  0  0  0  0  0
   -1.6473    2.4085   -0.7464 N   0  0  0  0  0  0  0  0  0  0  0  0
   -2.4899    3.0095    0.1229 C   0  0  0  0  0  0  0  0  0  0  0  0
   -3.5582    3.7778   -0.3546 C   0  0  0  0  0  0  0  0  0  0  0  0
   -3.7162    3.8922   -1.4200 H   0  0  0  0  0  0  0  0  0  0  0  0
   -4.4272    4.4021    0.5443 C   0  0  0  0  0  0  0  0  0  0  0  0
   -5.2529    4.9962    0.1741 H   0  0  0  0  0  0  0  0  0  0  0  0
   -4.2310    4.2606    1.9207 C   0  0  0  0  0  0  0  0  0  0  0  0
   -4.9056    4.7457    2.6145 H   0  0  0  0  0  0  0  0  0  0  0  0
   -3.1655    3.4937    2.4035 C   0  0  0  0  0  0  0  0  0  0  0  0
   -3.0338    3.3978    3.4742 H   0  0  0  0  0  0  0  0  0  0  0  0
   -2.2856    2.8613    1.5034 C   0  0  0  0  0  0  0  0  0  0  0  0
   -1.2057    2.0733    1.9345 C   0  0  0  0  0  0  0  0  0  0  0  0
   -1.0135    1.9151    3.1739 O   0  0  0  0  0  0  0  0  0  0  0  0
   -0.3677    1.4720    1.0208 N   0  0  0  0  0  0  0  0  0  0  0  0
    0.7039    0.5801    1.5269 C   0  0  0  0  0  0  0  0  0  0  0  0
    1.1599    1.0311    2.4365 H   0  0  0  0  0  0  0  0  0  0  0  0
    1.5528    0.4916    0.8255 H   0  0  0  0  0  0  0  0  0  0  0  0
    0.1628   -0.8250    1.8798 C   0  0  0  0  0  0  0  0  0  0  0  0
   -0.7052   -0.6993    2.5652 H   0  0  0  0  0  0  0  0  0  0  0  0
    1.2475   -1.6430    2.6306 C   0  0  0  0  0  0  0  0  0  0  0  0
    1.2206   -1.3591    3.7056 H   0  0  0  0  0  0  0  0  0  0  0  0
    2.2614   -1.3853    2.2520 H   0  0  0  0  0  0  0  0  0  0  0  0
    1.0730   -3.1702    2.5077 C   0  0  0  0  0  0  0  0  0  0  0  0
    1.6711   -3.5438    1.6473 H   0  0  0  0  0  0  0  0  0  0  0  0
    1.4613   -3.6634    3.4247 H   0  0  0  0  0  0  0  0  0  0  0  0
   -0.3913   -3.5593    2.2973 C   0  0  0  0  0  0  0  0  0  0  0  0
   -0.4813   -4.6664    2.2589 H   0  0  0  0  0  0  0  0  0  0  0  0
   -0.9895   -3.2030    3.1650 H   0  0  0  0  0  0  0  0  0  0  0  0
   -0.9528   -2.9524    0.9981 C   0  0  0  0  0  0  0  0  0  0  0  0
   -2.0537   -2.8408    1.1090 H   0  0  0  0  0  0  0  0  0  0  0  0
   -0.7774   -3.6576    0.1568 H   0  0  0  0  0  0  0  0  0  0  0  0
   -0.3325   -1.5869    0.6338 C   0  0  0  0  0  0  0  0  0  0  0  0
    0.5220   -1.7431   -0.0618 H   0  0  0  0  0  0  0  0  0  0  0  0
   -1.1023   -0.9936    0.0978 H   0  0  0  0  0  0  0  0  0  0  0  0
    0.5574   -0.0204   -3.6061 C   0  0  0  0  0  0  0  0  0  0  0  0
   -0.0809   -0.8569   -4.5359 C   0  0  0  0  0  0  0  0  0  0  0  0
   -1.1412   -1.0609   -4.4540 H   0  0  0  0  0  0  0  0  0  0  0  0
    0.6258   -1.4307   -5.5461 N   0  0  0  0  0  0  0  0  0  0  0  0
    1.9579   -1.2135   -5.7004 C   0  0  0  0  0  0  0  0  0  0  0  0
    2.4894   -1.6851   -6.5162 H   0  0  0  0  0  0  0  0  0  0  0  0
    2.6359   -0.3779   -4.8131 C   0  0  0  0  0  0  0  0  0  0  0  0
    3.6946   -0.1923   -4.9398 H   0  0  0  0  0  0  0  0  0  0  0  0
    1.9350    0.2242   -3.7665 C   0  0  0  0  0  0  0  0  0  0  0  0
    2.4717    0.8925   -3.1079 H   0  0  0  0  0  0  0  0  0  0  0  0
  1  2  1  0
  2  3  2  0
  3  4  1  0
  3  5  1  0
  5  6  2  0
  6  7  1  0
  7  8  2  0
  8  9  1  0
  8 10  1  0
 10 11  1  0
 10 12  2  0
 12 13  1  0
 12 14  1  0
 14 15  1  0
 14 16  2  0
 16 17  1  0
 17 18  2  0
 17 19  1  0
 19 20  1  0
 20 21  1  0
 20 22  1  0
 20 23  1  0
 23 24  1  0
 23 25  1  0
 25 26  1  0
 25 27  1  0
 25 28  1  0
 28 29  1  0
 28 30  1  0
 28 31  1  0
 31 32  1  0
 31 33  1  0
 31 34  1  0
 34 35  1  0
 34 36  1  0
 34 37  1  0
 37 38  1  0
 37 39  1  0
  2 40  1  0
 40 41  2  0
 41 42  1  0
 41 43  1  0
 43 44  2  0
 44 45  1  0
 44 46  1  0
 46 47  1  0
 46 48  2  0
 48 49  1  0
 19  5  1  0
 37 23  1  0
 48 40  1  0
 16  7  1  0
M  END
>  <UniqueID>  (1) 
23

>  <SMILES>  (1) 
O=c1c2ccccc2nc(/C=C/c2cccnc2)n1CC1CCCCC1

>  <Energy>  (1) 
67.98777530769475

>  <Genealogy>  (1) 
O=c1c2ccccc2nc(/C=C/c2cccnc2)n1CC1CCCCC1 (cis-trans isomerization)
O=c1c2ccccc2nc(/C=C/c2cccnc2)n1CC1CCCCC1 (3D coordinates assigned)
O=c1c2ccccc2nc(/C=C/c2cccnc2)n1CC1CCCCC1 (nonaromatic ring conformer: 67.98777530769475 kcal/mol)

$$$$
untitled_line_8
     RDKit          3D

 49 52  0  0  0  0  0  0  0  0999 V2000
   -1.4635    0.4005   -2.4992 H   0  0  0  0  0  0  0  0  0  0  0  0
   -0.3839    0.4595   -2.4157 C   0  0  0  0  0  0  0  0  0  0  0  0
    0.1452    1.0635   -1.3441 C   0  0  0  0  0  0  0  0  0  0  0  0
    1.2150    1.0806   -1.2097 H   0  0  0  0  0  0  0  0  0  0  0  0
   -0.7202    1.6857   -0.3153 C   0  0  0  0  0  0  0  0  0  0  0  0
   -1.7770    2.4222   -0.7502 N   0  0  0  0  0  0  0  0  0  0  0  0
   -2.6214    3.0415    0.1050 C   0  0  0  0  0  0  0  0  0  0  0  0
   -3.6942    3.7921   -0.3903 C   0  0  0  0  0  0  0  0  0  0  0  0
   -3.8547    3.8777   -1.4580 H   0  0  0  0  0  0  0  0  0  0  0  0
   -4.5627    4.4380    0.4937 C   0  0  0  0  0  0  0  0  0  0  0  0
   -5.3913    5.0192    0.1097 H   0  0  0  0  0  0  0  0  0  0  0  0
   -4.3622    4.3355    1.8728 C   0  0  0  0  0  0  0  0  0  0  0  0
   -5.0368    4.8366    2.5550 H   0  0  0  0  0  0  0  0  0  0  0  0
   -3.2926    3.5865    2.3736 C   0  0  0  0  0  0  0  0  0  0  0  0
   -3.1581    3.5198    3.4463 H   0  0  0  0  0  0  0  0  0  0  0  0
   -2.4128    2.9323    1.4891 C   0  0  0  0  0  0  0  0  0  0  0  0
   -1.3277    2.1617    1.9392 C   0  0  0  0  0  0  0  0  0  0  0  0
   -1.1242    2.0472    3.1814 O   0  0  0  0  0  0  0  0  0  0  0  0
   -0.4945    1.5336    1.0401 N   0  0  0  0  0  0  0  0  0  0  0  0
    0.5876    0.6646    1.5637 C   0  0  0  0  0  0  0  0  0  0  0  0
    1.4038    0.5149    0.8346 H   0  0  0  0  0  0  0  0  0  0  0  0
    1.0829    1.1764    2.4191 H   0  0  0  0  0  0  0  0  0  0  0  0
    0.0592   -0.7126    2.0404 C   0  0  0  0  0  0  0  0  0  0  0  0
   -0.7428   -0.5301    2.7890 H   0  0  0  0  0  0  0  0  0  0  0  0
   -0.5782   -1.5428    0.8931 C   0  0  0  0  0  0  0  0  0  0  0  0
   -1.1082   -0.9033    0.1626 H   0  0  0  0  0  0  0  0  0  0  0  0
   -1.3549   -2.2150    1.3207 H   0  0  0  0  0  0  0  0  0  0  0  0
    0.4632   -2.4068    0.1754 C   0  0  0  0  0  0  0  0  0  0  0  0
   -0.0181   -2.9391   -0.6735 H   0  0  0  0  0  0  0  0  0  0  0  0
    1.2510   -1.7474   -0.2501 H   0  0  0  0  0  0  0  0  0  0  0  0
    1.1058   -3.4334    1.1324 C   0  0  0  0  0  0  0  0  0  0  0  0
    2.1638   -3.5898    0.8292 H   0  0  0  0  0  0  0  0  0  0  0  0
    0.5851   -4.4103    1.0300 H   0  0  0  0  0  0  0  0  0  0  0  0
    1.0577   -3.0061    2.6131 C   0  0  0  0  0  0  0  0  0  0  0  0
    0.0931   -3.3268    3.0642 H   0  0  0  0  0  0  0  0  0  0  0  0
    1.8739   -3.5131    3.1717 H   0  0  0  0  0  0  0  0  0  0  0  0
    1.1996   -1.4873    2.7605 C   0  0  0  0  0  0  0  0  0  0  0  0
    1.2023   -1.2217    3.8401 H   0  0  0  0  0  0  0  0  0  0  0  0
    2.1931   -1.1992    2.3496 H   0  0  0  0  0  0  0  0  0  0  0  0
    0.4226   -0.2318   -3.4493 C   0  0  0  0  0  0  0  0  0  0  0  0
    1.7734    0.0800   -3.6985 C   0  0  0  0  0  0  0  0  0  0  0  0
    2.2792    0.8631   -3.1525 H   0  0  0  0  0  0  0  0  0  0  0  0
    2.4638   -0.5874   -4.6616 N   0  0  0  0  0  0  0  0  0  0  0  0
    1.8875   -1.5637   -5.4105 C   0  0  0  0  0  0  0  0  0  0  0  0
    2.4678   -2.0761   -6.1661 H   0  0  0  0  0  0  0  0  0  0  0  0
    0.5482   -1.8969   -5.2110 C   0  0  0  0  0  0  0  0  0  0  0  0
    0.0833   -2.6711   -5.8077 H   0  0  0  0  0  0  0  0  0  0  0  0
   -0.1852   -1.2249   -4.2321 C   0  0  0  0  0  0  0  0  0  0  0  0
   -1.2243   -1.4893   -4.0765 H   0  0  0  0  0  0  0  0  0  0  0  0
  1  2  1  0
  2  3  2  0
  3  4  1  0
  3  5  1  0
  5  6  2  0
  6  7  1  0
  7  8  2  0
  8  9  1  0
  8 10  1  0
 10 11  1  0
 10 12  2  0
 12 13  1  0
 12 14  1  0
 14 15  1  0
 14 16  2  0
 16 17  1  0
 17 18  2  0
 17 19  1  0
 19 20  1  0
 20 21  1  0
 20 22  1  0
 20 23  1  0
 23 24  1  0
 23 25  1  0
 25 26  1  0
 25 27  1  0
 25 28  1  0
 28 29  1  0
 28 30  1  0
 28 31  1  0
 31 32  1  0
 31 33  1  0
 31 34  1  0
 34 35  1  0
 34 36  1  0
 34 37  1  0
 37 38  1  0
 37 39  1  0
  2 40  1  0
 40 41  2  0
 41 42  1  0
 41 43  1  0
 43 44  2  0
 44 45  1  0
 44 46  1  0
 46 47  1  0
 46 48  2  0
 48 49  1  0
 19  5  1  0
 37 23  1  0
 48 40  1  0
 16  7  1  0
M  END
>  <UniqueID>  (2) 
24

>  <SMILES>  (2) 
O=c1c2ccccc2nc(/C=C/c2cccnc2)n1CC1CCCCC1

>  <Energy>  (2) 
68.8518173295283

>  <Genealogy>  (2) 
O=c1c2ccccc2nc(/C=C/c2cccnc2)n1CC1CCCCC1 (cis-trans isomerization)
O=c1c2ccccc2nc(/C=C/c2cccnc2)n1CC1CCCCC1 (3D coordinates assigned)
O=c1c2ccccc2nc(/C=C/c2cccnc2)n1CC1CCCCC1 (nonaromatic ring conformer: 68.8518173295283 kcal/mol)

$$$$
untitled_line_8
     RDKit          3D

 49 52  0  0  0  0  0  0  0  0999 V2000
   -1.1069    1.3744   -2.9957 H   0  0  0  0  0  0  0  0  0  0  0  0
   -0.4761    0.5684   -2.6392 C   0  0  0  0  0  0  0  0  0  0  0  0
   -0.4046    0.3273   -1.3216 C   0  0  0  0  0  0  0  0  0  0  0  0
    0.2739   -0.4296   -0.9718 H   0  0  0  0  0  0  0  0  0  0  0  0
   -1.1729    1.1280   -0.3303 C   0  0  0  0  0  0  0  0  0  0  0  0
   -1.5731    2.3731   -0.7053 N   0  0  0  0  0  0  0  0  0  0  0  0
   -2.2600    3.1916    0.1216 C   0  0  0  0  0  0  0  0  0  0  0  0
   -2.6443    4.4654   -0.3138 C   0  0  0  0  0  0  0  0  0  0  0  0
   -2.3926    4.8009   -1.3124 H   0  0  0  0  0  0  0  0  0  0  0  0
   -3.3566    5.3110    0.5410 C   0  0  0  0  0  0  0  0  0  0  0  0
   -3.6532    6.2957    0.2037 H   0  0  0  0  0  0  0  0  0  0  0  0
   -3.6867    4.8859    1.8307 C   0  0  0  0  0  0  0  0  0  0  0  0
   -4.2389    5.5426    2.4905 H   0  0  0  0  0  0  0  0  0  0  0  0
   -3.3058    3.6140    2.2703 C   0  0  0  0  0  0  0  0  0  0  0  0
   -3.5733    3.3062    3.2736 H   0  0  0  0  0  0  0  0  0  0  0  0
   -2.5860    2.7569    1.4146 C   0  0  0  0  0  0  0  0  0  0  0  0
   -2.1836    1.4688    1.8034 C   0  0  0  0  0  0  0  0  0  0  0  0
   -2.4951    1.0484    2.9540 O   0  0  0  0  0  0  0  0  0  0  0  0
   -1.4698    0.6648    0.9402 N   0  0  0  0  0  0  0  0  0  0  0  0
   -1.0999   -0.6996    1.3919 C   0  0  0  0  0  0  0  0  0  0  0  0
   -0.8940   -1.3828    0.5482 H   0  0  0  0  0  0  0  0  0  0  0  0
   -1.9858   -1.1636    1.8800 H   0  0  0  0  0  0  0  0  0  0  0  0
    0.0753   -0.6861    2.4087 C   0  0  0  0  0  0  0  0  0  0  0  0
   -0.2167   -0.0101    3.2412 H   0  0  0  0  0  0  0  0  0  0  0  0
    1.4065   -0.1383    1.8219 C   0  0  0  0  0  0  0  0  0  0  0  0
    1.8685    0.5457    2.5675 H   0  0  0  0  0  0  0  0  0  0  0  0
    1.2238    0.4876    0.9280 H   0  0  0  0  0  0  0  0  0  0  0  0
    2.4474   -1.2255    1.4858 C   0  0  0  0  0  0  0  0  0  0  0  0
    3.0530   -1.4507    2.3914 H   0  0  0  0  0  0  0  0  0  0  0  0
    3.1422   -0.8436    0.7067 H   0  0  0  0  0  0  0  0  0  0  0  0
    1.7942   -2.5204    0.9959 C   0  0  0  0  0  0  0  0  0  0  0  0
    2.5866   -3.2649    0.7650 H   0  0  0  0  0  0  0  0  0  0  0  0
    1.2544   -2.3204    0.0473 H   0  0  0  0  0  0  0  0  0  0  0  0
    0.8217   -3.1154    2.0338 C   0  0  0  0  0  0  0  0  0  0  0  0
    1.3377   -3.9189    2.6032 H   0  0  0  0  0  0  0  0  0  0  0  0
   -0.0283   -3.5914    1.4979 H   0  0  0  0  0  0  0  0  0  0  0  0
    0.2773   -2.0803    3.0375 C   0  0  0  0  0  0  0  0  0  0  0  0
    0.9980   -1.9857    3.8800 H   0  0  0  0  0  0  0  0  0  0  0  0
   -0.6763   -2.4501    3.4736 H   0  0  0  0  0  0  0  0  0  0  0  0
    0.2998   -0.1848   -3.6549 C   0  0  0  0  0  0  0  0  0  0  0  0
    0.5144    0.3973   -4.9146 C   0  0  0  0  0  0  0  0  0  0  0  0
    0.1327    1.3863   -5.1347 H   0  0  0  0  0  0  0  0  0  0  0  0
    1.2142   -0.2688   -5.8716 N   0  0  0  0  0  0  0  0  0  0  0  0
    1.7188   -1.5112   -5.6541 C   0  0  0  0  0  0  0  0  0  0  0  0
    2.2698   -2.0132   -6.4381 H   0  0  0  0  0  0  0  0  0  0  0  0
    1.5185   -2.1405   -4.4257 C   0  0  0  0  0  0  0  0  0  0  0  0
    1.9070   -3.1359   -4.2529 H   0  0  0  0  0  0  0  0  0  0  0  0
    0.8036   -1.4797   -3.4252 C   0  0  0  0  0  0  0  0  0  0  0  0
    0.6301   -1.9971   -2.4921 H   0  0  0  0  0  0  0  0  0  0  0  0
  1  2  1  0
  2  3  2  0
  3  4  1  0
  3  5  1  0
  5  6  2  0
  6  7  1  0
  7  8  2  0
  8  9  1  0
  8 10  1  0
 10 11  1  0
 10 12  2  0
 12 13  1  0
 12 14  1  0
 14 15  1  0
 14 16  2  0
 16 17  1  0
 17 18  2  0
 17 19  1  0
 19 20  1  0
 20 21  1  0
 20 22  1  0
 20 23  1  0
 23 24  1  0
 23 25  1  0
 25 26  1  0
 25 27  1  0
 25 28  1  0
 28 29  1  0
 28 30  1  0
 28 31  1  0
 31 32  1  0
 31 33  1  0
 31 34  1  0
 34 35  1  0
 34 36  1  0
 34 37  1  0
 37 38  1  0
 37 39  1  0
  2 40  1  0
 40 41  2  0
 41 42  1  0
 41 43  1  0
 43 44  2  0
 44 45  1  0
 44 46  1  0
 46 47  1  0
 46 48  2  0
 48 49  1  0
 19  5  1  0
 37 23  1  0
 48 40  1  0
 16  7  1  0
M  END
>  <UniqueID>  (3) 
25

>  <SMILES>  (3) 
O=c1c2ccccc2nc(/C=C/c2cccnc2)n1CC1CCCCC1

>  <Energy>  (3) 
69.44551402377466

>  <Genealogy>  (3) 
O=c1c2ccccc2nc(/C=C/c2cccnc2)n1CC1CCCCC1 (cis-trans isomerization)
O=c1c2ccccc2nc(/C=C/c2cccnc2)n1CC1CCCCC1 (3D coordinates assigned)
O=c1c2ccccc2nc(/C=C/c2cccnc2)n1CC1CCCCC1 (nonaromatic ring conformer: 69.44551402377466 kcal/mol)

$$$$
untitled_line_8
     RDKit          3D

 49 52  0  0  0  0  0  0  0  0999 V2000
   -0.7401    1.7011   -3.0644 H   0  0  0  0  0  0  0  0  0  0  0  0
   -0.4001    0.6919   -2.8646 C   0  0  0  0  0  0  0  0  0  0  0  0
   -0.5638    0.1736   -1.6371 C   0  0  0  0  0  0  0  0  0  0  0  0
   -0.1627   -0.8040   -1.4403 H   0  0  0  0  0  0  0  0  0  0  0  0
   -1.2192    0.9353   -0.5346 C   0  0  0  0  0  0  0  0  0  0  0  0
   -1.3979    2.2720   -0.7156 N   0  0  0  0  0  0  0  0  0  0  0  0
   -1.9839    3.0574    0.2138 C   0  0  0  0  0  0  0  0  0  0  0  0
   -2.1357    4.4289   -0.0225 C   0  0  0  0  0  0  0  0  0  0  0  0
   -1.7784    4.8673   -0.9462 H   0  0  0  0  0  0  0  0  0  0  0  0
   -2.7521    5.2391    0.9348 C   0  0  0  0  0  0  0  0  0  0  0  0
   -2.8689    6.2994    0.7517 H   0  0  0  0  0  0  0  0  0  0  0  0
   -3.2197    4.6809    2.1275 C   0  0  0  0  0  0  0  0  0  0  0  0
   -3.6978    5.3103    2.8670 H   0  0  0  0  0  0  0  0  0  0  0  0
   -3.0718    3.3110    2.3674 C   0  0  0  0  0  0  0  0  0  0  0  0
   -3.4418    2.9010    3.2991 H   0  0  0  0  0  0  0  0  0  0  0  0
   -2.4479    2.4889    1.4081 C   0  0  0  0  0  0  0  0  0  0  0  0
   -2.2766    1.1079    1.5970 C   0  0  0  0  0  0  0  0  0  0  0  0
   -2.7343    0.5731    2.6461 O   0  0  0  0  0  0  0  0  0  0  0  0
   -1.6346    0.3411    0.6467 N   0  0  0  0  0  0  0  0  0  0  0  0
   -1.4681   -1.1142    0.8959 C   0  0  0  0  0  0  0  0  0  0  0  0
   -2.3505   -1.5101    1.4455 H   0  0  0  0  0  0  0  0  0  0  0  0
   -1.5041   -1.6950   -0.0465 H   0  0  0  0  0  0  0  0  0  0  0  0
   -0.1848   -1.4770    1.6956 C   0  0  0  0  0  0  0  0  0  0  0  0
   -0.1451   -2.5903    1.6981 H   0  0  0  0  0  0  0  0  0  0  0  0
    1.1296   -0.9761    1.0427 C   0  0  0  0  0  0  0  0  0  0  0  0
    1.0088    0.0567    0.6596 H   0  0  0  0  0  0  0  0  0  0  0  0
    1.3720   -1.6344    0.1804 H   0  0  0  0  0  0  0  0  0  0  0  0
    2.3312   -0.9575    2.0132 C   0  0  0  0  0  0  0  0  0  0  0  0
    2.4464    0.0635    2.4404 H   0  0  0  0  0  0  0  0  0  0  0  0
    3.2636   -1.1913    1.4550 H   0  0  0  0  0  0  0  0  0  0  0  0
    2.1628   -1.9518    3.1656 C   0  0  0  0  0  0  0  0  0  0  0  0
    2.0942   -2.9807    2.7486 H   0  0  0  0  0  0  0  0  0  0  0  0
    3.0588   -1.9163    3.8223 H   0  0  0  0  0  0  0  0  0  0  0  0
    0.9025   -1.6453    3.9986 C   0  0  0  0  0  0  0  0  0  0  0  0
    0.5590   -2.5881    4.4776 H   0  0  0  0  0  0  0  0  0  0  0  0
    1.1645   -0.9380    4.8156 H   0  0  0  0  0  0  0  0  0  0  0  0
   -0.2520   -1.0402    3.1712 C   0  0  0  0  0  0  0  0  0  0  0  0
   -0.1896    0.0687    3.2276 H   0  0  0  0  0  0  0  0  0  0  0  0
   -1.2165   -1.3569    3.6240 H   0  0  0  0  0  0  0  0  0  0  0  0
    0.2727   -0.0234   -3.9769 C   0  0  0  0  0  0  0  0  0  0  0  0
    0.3793   -1.4276   -4.0303 C   0  0  0  0  0  0  0  0  0  0  0  0
   -0.0444   -2.0540   -3.2586 H   0  0  0  0  0  0  0  0  0  0  0  0
    0.9964   -2.0283   -5.0829 N   0  0  0  0  0  0  0  0  0  0  0  0
    1.5224   -1.3114   -6.1101 C   0  0  0  0  0  0  0  0  0  0  0  0
    2.0082   -1.8228   -6.9303 H   0  0  0  0  0  0  0  0  0  0  0  0
    1.4272    0.0798   -6.1105 C   0  0  0  0  0  0  0  0  0  0  0  0
    1.8381    0.6554   -6.9298 H   0  0  0  0  0  0  0  0  0  0  0  0
    0.7958    0.7224   -5.0444 C   0  0  0  0  0  0  0  0  0  0  0  0
    0.7239    1.8033   -5.0482 H   0  0  0  0  0  0  0  0  0  0  0  0
  1  2  1  0
  2  3  2  0
  3  4  1  0
  3  5  1  0
  5  6  2  0
  6  7  1  0
  7  8  2  0
  8  9  1  0
  8 10  1  0
 10 11  1  0
 10 12  2  0
 12 13  1  0
 12 14  1  0
 14 15  1  0
 14 16  2  0
 16 17  1  0
 17 18  2  0
 17 19  1  0
 19 20  1  0
 20 21  1  0
 20 22  1  0
 20 23  1  0
 23 24  1  0
 23 25  1  0
 25 26  1  0
 25 27  1  0
 25 28  1  0
 28 29  1  0
 28 30  1  0
 28 31  1  0
 31 32  1  0
 31 33  1  0
 31 34  1  0
 34 35  1  0
 34 36  1  0
 34 37  1  0
 37 38  1  0
 37 39  1  0
  2 40  1  0
 40 41  2  0
 41 42  1  0
 41 43  1  0
 43 44  2  0
 44 45  1  0
 44 46  1  0
 46 47  1  0
 46 48  2  0
 48 49  1  0
 19  5  1  0
 37 23  1  0
 48 40  1  0
 16  7  1  0
M  END
>  <UniqueID>  (4) 
26

>  <SMILES>  (4) 
O=c1c2ccccc2nc(/C=C/c2cccnc2)n1CC1CCCCC1

>  <Energy>  (4) 
70.17441651478927

>  <Genealogy>  (4) 
O=c1c2ccccc2nc(/C=C/c2cccnc2)n1CC1CCCCC1 (cis-trans isomerization)
O=c1c2ccccc2nc(/C=C/c2cccnc2)n1CC1CCCCC1 (3D coordinates assigned)
O=c1c2ccccc2nc(/C=C/c2cccnc2)n1CC1CCCCC1 (nonaromatic ring conformer: 70.17441651478927 kcal/mol)

$$$$
