untitled_line_4
     RDKit          3D

 37 38  0  0  0  0  0  0  0  0999 V2000
    4.6669    1.5642    1.1563 H   0  0  0  0  0  0  0  0  0  0  0  0
    4.2096    1.6124    0.2540 O   0  0  0  0  0  0  0  0  0  0  0  0
    2.8348    1.4228    0.1409 C   0  0  0  0  0  0  0  0  0  0  0  0
    2.0732    1.1476    1.3225 N   0  0  0  0  0  0  0  0  0  0  0  0
    0.7480    0.6968    1.2557 N   0  0  0  0  0  0  0  0  0  0  0  0
    0.1032    0.3498    2.3217 C   0  0  0  0  0  0  0  0  0  0  0  0
    0.5958    0.4076    3.2860 H   0  0  0  0  0  0  0  0  0  0  0  0
   -1.2761   -0.1774    2.2436 C   0  0  0  0  0  0  0  0  0  0  0  0
   -1.9963   -0.2463    1.0318 C   0  0  0  0  0  0  0  0  0  0  0  0
   -1.4585    0.1938   -0.1332 F   0  0  0  0  0  0  0  0  0  0  0  0
   -3.2547   -0.7623    1.0163 N   0  0  0  0  0  0  0  0  0  0  0  0
   -3.8575   -1.2213    2.1438 C   0  0  0  0  0  0  0  0  0  0  0  0
   -4.8594   -1.6259    2.0919 H   0  0  0  0  0  0  0  0  0  0  0  0
   -3.1859   -1.1697    3.3647 C   0  0  0  0  0  0  0  0  0  0  0  0
   -3.6619   -1.5342    4.2658 H   0  0  0  0  0  0  0  0  0  0  0  0
   -1.8935   -0.6458    3.4129 C   0  0  0  0  0  0  0  0  0  0  0  0
   -1.3730   -0.6120    4.3623 H   0  0  0  0  0  0  0  0  0  0  0  0
    2.2461    1.4723   -1.0626 C   0  0  0  0  0  0  0  0  0  0  0  0
    1.1710    1.3700   -1.1446 H   0  0  0  0  0  0  0  0  0  0  0  0
    3.0235    1.5778   -2.3425 C   0  0  0  0  0  0  0  0  0  0  0  0
    2.3441    1.9388   -3.1445 H   0  0  0  0  0  0  0  0  0  0  0  0
    3.8400    2.3247   -2.2376 H   0  0  0  0  0  0  0  0  0  0  0  0
    3.6039    0.2215   -2.7643 C   0  0  0  0  0  0  0  0  0  0  0  0
    4.3095   -0.1739   -2.0061 H   0  0  0  0  0  0  0  0  0  0  0  0
    4.1949    0.3803   -3.6907 H   0  0  0  0  0  0  0  0  0  0  0  0
    2.5620   -0.7127   -3.0658 O   0  0  0  0  0  0  0  0  0  0  0  0
    1.8130   -1.4425   -2.1251 C   0  0  0  0  0  0  0  0  0  0  0  0
    2.3046   -1.7451   -0.8391 C   0  0  0  0  0  0  0  0  0  0  0  0
    3.2957   -1.4486   -0.5311 H   0  0  0  0  0  0  0  0  0  0  0  0
    1.5099   -2.4416    0.0757 C   0  0  0  0  0  0  0  0  0  0  0  0
    1.8931   -2.6548    1.0655 H   0  0  0  0  0  0  0  0  0  0  0  0
    0.2255   -2.8566   -0.2833 C   0  0  0  0  0  0  0  0  0  0  0  0
   -0.7747   -3.7164    0.8733 Cl  0  0  0  0  0  0  0  0  0  0  0  0
   -0.2611   -2.5850   -1.5648 C   0  0  0  0  0  0  0  0  0  0  0  0
   -1.2560   -2.9091   -1.8433 H   0  0  0  0  0  0  0  0  0  0  0  0
    0.5298   -1.8868   -2.4851 C   0  0  0  0  0  0  0  0  0  0  0  0
   -0.1171   -1.5388   -4.0809 Cl  0  0  0  0  0  0  0  0  0  0  0  0
  1  2  1  0
  2  3  1  0
  3  4  1  0
  4  5  1  0
  5  6  2  0
  6  7  1  0
  6  8  1  0
  8  9  2  0
  9 10  1  0
  9 11  1  0
 11 12  2  0
 12 13  1  0
 12 14  1  0
 14 15  1  0
 14 16  2  0
 16 17  1  0
  3 18  2  0
 18 19  1  0
 18 20  1  0
 20 21  1  0
 20 22  1  0
 20 23  1  0
 23 24  1  0
 23 25  1  0
 23 26  1  0
 26 27  1  0
 27 28  2  0
 28 29  1  0
 28 30  1  0
 30 31  1  0
 30 32  2  0
 32 33  1  0
 32 34  1  0
 34 35  1  0
 34 36  2  0
 36 37  1  0
 16  8  1  0
 36 27  1  0
M  CHG  1   4  -1
M  END
>  <UniqueID>  (1) 
13

>  <SMILES>  (1) 
O/C(=C\CCOc1ccc(Cl)cc1Cl)[N-]/N=C/c1cccnc1F

>  <Energy>  (1) 
31.912860551603618

>  <Genealogy>  (1) 
O=C(CCCOc1ccc(Cl)cc1Cl)[N-]N=Cc1cccnc1F (protonated)
OC(=CCCOc1ccc(Cl)cc1Cl)[N-]N=Cc1cccnc1F (tautomer)
O/C(=C\CCOc1ccc(Cl)cc1Cl)[N-]/N=C/c1cccnc1F (cis-trans isomerization)
O/C(=C\CCOc1ccc(Cl)cc1Cl)[N-]/N=C/c1cccnc1F (3D coordinates assigned)
O/C(=C\CCOc1ccc(Cl)cc1Cl)[N-]/N=C/c1cccnc1F (optimized conformer: 31.912860551603618 kcal/mol)

$$$$
untitled_line_4
     RDKit          3D

 37 38  0  0  0  0  0  0  0  0999 V2000
   -0.8127    3.4087   -0.9332 H   0  0  0  0  0  0  0  0  0  0  0  0
   -0.1327    2.5808   -0.7667 C   0  0  0  0  0  0  0  0  0  0  0  0
    0.0631    1.7160   -1.7106 N   0  0  0  0  0  0  0  0  0  0  0  0
   -0.5709    1.8524   -2.9522 N   0  0  0  0  0  0  0  0  0  0  0  0
   -0.5096    0.8264   -3.9474 C   0  0  0  0  0  0  0  0  0  0  0  0
   -1.1040    1.0027   -5.0433 O   0  0  0  0  0  0  0  0  0  0  0  0
    0.2010   -0.4770   -3.6966 C   0  0  0  0  0  0  0  0  0  0  0  0
    0.6396   -0.8267   -4.6556 H   0  0  0  0  0  0  0  0  0  0  0  0
    1.0507   -0.3323   -2.9957 H   0  0  0  0  0  0  0  0  0  0  0  0
   -0.7550   -1.5649   -3.1775 C   0  0  0  0  0  0  0  0  0  0  0  0
   -0.2197   -2.5392   -3.1839 H   0  0  0  0  0  0  0  0  0  0  0  0
   -1.6241   -1.6567   -3.8652 H   0  0  0  0  0  0  0  0  0  0  0  0
   -1.2557   -1.2938   -1.7549 C   0  0  0  0  0  0  0  0  0  0  0  0
   -1.7865   -0.3218   -1.7495 H   0  0  0  0  0  0  0  0  0  0  0  0
   -1.9589   -2.1019   -1.4581 H   0  0  0  0  0  0  0  0  0  0  0  0
   -0.1490   -1.2711   -0.8576 O   0  0  0  0  0  0  0  0  0  0  0  0
   -0.1996   -1.3129    0.5469 C   0  0  0  0  0  0  0  0  0  0  0  0
    0.9331   -1.8268    1.1950 C   0  0  0  0  0  0  0  0  0  0  0  0
    1.7759   -2.1754    0.6099 H   0  0  0  0  0  0  0  0  0  0  0  0
    0.9985   -1.8909    2.5877 C   0  0  0  0  0  0  0  0  0  0  0  0
    1.8859   -2.2858    3.0656 H   0  0  0  0  0  0  0  0  0  0  0  0
   -0.0703   -1.4326    3.3577 C   0  0  0  0  0  0  0  0  0  0  0  0
    0.0222   -1.4836    5.1085 Cl  0  0  0  0  0  0  0  0  0  0  0  0
   -1.2073   -0.9151    2.7326 C   0  0  0  0  0  0  0  0  0  0  0  0
   -2.0226   -0.5417    3.3399 H   0  0  0  0  0  0  0  0  0  0  0  0
   -1.2864   -0.8453    1.3347 C   0  0  0  0  0  0  0  0  0  0  0  0
   -2.7227   -0.0767    0.6743 Cl  0  0  0  0  0  0  0  0  0  0  0  0
    0.4978    2.4108    0.5577 C   0  0  0  0  0  0  0  0  0  0  0  0
    0.0225    3.1313    1.6655 C   0  0  0  0  0  0  0  0  0  0  0  0
   -1.0094    4.0022    1.5334 F   0  0  0  0  0  0  0  0  0  0  0  0
    0.5778    2.9428    2.8926 N   0  0  0  0  0  0  0  0  0  0  0  0
    1.6040    2.0749    3.0906 C   0  0  0  0  0  0  0  0  0  0  0  0
    2.0176    1.9475    4.0818 H   0  0  0  0  0  0  0  0  0  0  0  0
    2.1234    1.3533    2.0173 C   0  0  0  0  0  0  0  0  0  0  0  0
    2.9413    0.6594    2.1695 H   0  0  0  0  0  0  0  0  0  0  0  0
    1.5676    1.5195    0.7481 C   0  0  0  0  0  0  0  0  0  0  0  0
    1.9684    0.9484   -0.0801 H   0  0  0  0  0  0  0  0  0  0  0  0
  1  2  1  0
  2  3  2  0
  3  4  1  0
  4  5  1  0
  5  6  2  0
  5  7  1  0
  7  8  1  0
  7  9  1  0
  7 10  1  0
 10 11  1  0
 10 12  1  0
 10 13  1  0
 13 14  1  0
 13 15  1  0
 13 16  1  0
 16 17  1  0
 17 18  2  0
 18 19  1  0
 18 20  1  0
 20 21  1  0
 20 22  2  0
 22 23  1  0
 22 24  1  0
 24 25  1  0
 24 26  2  0
 26 27  1  0
  2 28  1  0
 28 29  2  0
 29 30  1  0
 29 31  1  0
 31 32  2  0
 32 33  1  0
 32 34  1  0
 34 35  1  0
 34 36  2  0
 36 37  1  0
 26 17  1  0
 36 28  1  0
M  CHG  1   4  -1
M  END
>  <UniqueID>  (2) 
14

>  <SMILES>  (2) 
O=C(CCCOc1ccc(Cl)cc1Cl)[N-]/N=C/c1cccnc1F

>  <Energy>  (2) 
32.660048584811854

>  <Genealogy>  (2) 
O=C(CCCOc1ccc(Cl)cc1Cl)[N-]N=Cc1cccnc1F (protonated)
O=C(CCCOc1ccc(Cl)cc1Cl)[N-]/N=C/c1cccnc1F (cis-trans isomerization)
O=C(CCCOc1ccc(Cl)cc1Cl)[N-]/N=C/c1cccnc1F (3D coordinates assigned)
O=C(CCCOc1ccc(Cl)cc1Cl)[N-]/N=C/c1cccnc1F (optimized conformer: 32.660048584811854 kcal/mol)

$$$$
untitled_line_4
     RDKit          3D

 37 38  0  0  0  0  0  0  0  0999 V2000
   -0.6531    2.3345   -0.7646 H   0  0  0  0  0  0  0  0  0  0  0  0
   -1.1018    1.4260   -0.7354 O   0  0  0  0  0  0  0  0  0  0  0  0
   -0.4005    0.2450   -0.9834 C   0  0  0  0  0  0  0  0  0  0  0  0
   -1.0799   -1.0176   -0.9161 N   0  0  0  0  0  0  0  0  0  0  0  0
   -2.4780   -1.1784   -0.9193 N   0  0  0  0  0  0  0  0  0  0  0  0
   -3.2951   -0.3744   -1.5290 C   0  0  0  0  0  0  0  0  0  0  0  0
   -2.9091    0.4450   -2.1223 H   0  0  0  0  0  0  0  0  0  0  0  0
   -4.7591   -0.5817   -1.4808 C   0  0  0  0  0  0  0  0  0  0  0  0
   -5.3574   -1.6243   -0.7417 C   0  0  0  0  0  0  0  0  0  0  0  0
   -4.6081   -2.5007   -0.0277 F   0  0  0  0  0  0  0  0  0  0  0  0
   -6.7105   -1.7641   -0.7343 N   0  0  0  0  0  0  0  0  0  0  0  0
   -7.5245   -0.9227   -1.4235 C   0  0  0  0  0  0  0  0  0  0  0  0
   -8.5964   -1.0659   -1.3935 H   0  0  0  0  0  0  0  0  0  0  0  0
   -6.9786    0.1229   -2.1669 C   0  0  0  0  0  0  0  0  0  0  0  0
   -7.6228    0.7964   -2.7173 H   0  0  0  0  0  0  0  0  0  0  0  0
   -5.5938    0.2923   -2.1941 C   0  0  0  0  0  0  0  0  0  0  0  0
   -5.1738    1.1062   -2.7727 H   0  0  0  0  0  0  0  0  0  0  0  0
    0.9111    0.2935   -1.2533 C   0  0  0  0  0  0  0  0  0  0  0  0
    1.4023    1.2575   -1.3116 H   0  0  0  0  0  0  0  0  0  0  0  0
    1.7457   -0.9312   -1.5155 C   0  0  0  0  0  0  0  0  0  0  0  0
    2.6919   -0.6165   -2.0027 H   0  0  0  0  0  0  0  0  0  0  0  0
    1.2214   -1.6066   -2.2256 H   0  0  0  0  0  0  0  0  0  0  0  0
    2.0674   -1.6865   -0.2198 C   0  0  0  0  0  0  0  0  0  0  0  0
    2.6955   -2.5772   -0.4316 H   0  0  0  0  0  0  0  0  0  0  0  0
    1.1247   -2.0625    0.2291 H   0  0  0  0  0  0  0  0  0  0  0  0
    2.7068   -0.8328    0.7311 O   0  0  0  0  0  0  0  0  0  0  0  0
    4.0323   -0.3711    0.6592 C   0  0  0  0  0  0  0  0  0  0  0  0
    4.9524   -0.8560   -0.2925 C   0  0  0  0  0  0  0  0  0  0  0  0
    4.6734   -1.6139   -1.0099 H   0  0  0  0  0  0  0  0  0  0  0  0
    6.2609   -0.3653   -0.3232 C   0  0  0  0  0  0  0  0  0  0  0  0
    6.9587   -0.7446   -1.0590 H   0  0  0  0  0  0  0  0  0  0  0  0
    6.6676    0.6083    0.5926 C   0  0  0  0  0  0  0  0  0  0  0  0
    8.3105    1.2217    0.5508 Cl  0  0  0  0  0  0  0  0  0  0  0  0
    5.7641    1.0915    1.5430 C   0  0  0  0  0  0  0  0  0  0  0  0
    6.0802    1.8455    2.2530 H   0  0  0  0  0  0  0  0  0  0  0  0
    4.4526    0.6042    1.5788 C   0  0  0  0  0  0  0  0  0  0  0  0
    3.3362    1.2340    2.7807 Cl  0  0  0  0  0  0  0  0  0  0  0  0
  1  2  1  0
  2  3  1  0
  3  4  1  0
  4  5  1  0
  5  6  2  0
  6  7  1  0
  6  8  1  0
  8  9  2  0
  9 10  1  0
  9 11  1  0
 11 12  2  0
 12 13  1  0
 12 14  1  0
 14 15  1  0
 14 16  2  0
 16 17  1  0
  3 18  2  0
 18 19  1  0
 18 20  1  0
 20 21  1  0
 20 22  1  0
 20 23  1  0
 23 24  1  0
 23 25  1  0
 23 26  1  0
 26 27  1  0
 27 28  2  0
 28 29  1  0
 28 30  1  0
 30 31  1  0
 30 32  2  0
 32 33  1  0
 32 34  1  0
 34 35  1  0
 34 36  2  0
 36 37  1  0
 16  8  1  0
 36 27  1  0
M  CHG  1   4  -1
M  END
>  <UniqueID>  (3) 
15

>  <SMILES>  (3) 
O/C(=C/CCOc1ccc(Cl)cc1Cl)[N-]/N=C/c1cccnc1F

>  <Energy>  (3) 
40.27756520760083

>  <Genealogy>  (3) 
O=C(CCCOc1ccc(Cl)cc1Cl)[N-]N=Cc1cccnc1F (protonated)
OC(=CCCOc1ccc(Cl)cc1Cl)[N-]N=Cc1cccnc1F (tautomer)
O/C(=C/CCOc1ccc(Cl)cc1Cl)[N-]/N=C/c1cccnc1F (cis-trans isomerization)
O/C(=C/CCOc1ccc(Cl)cc1Cl)[N-]/N=C/c1cccnc1F (3D coordinates assigned)
O/C(=C/CCOc1ccc(Cl)cc1Cl)[N-]/N=C/c1cccnc1F (optimized conformer: 40.27756520760083 kcal/mol)

$$$$
untitled_line_4
     RDKit          3D

 37 38  0  0  0  0  0  0  0  0999 V2000
    2.3184   -0.9536   -1.4401 H   0  0  0  0  0  0  0  0  0  0  0  0
    1.9529   -0.7698   -0.4381 C   0  0  0  0  0  0  0  0  0  0  0  0
    1.2423   -1.6993    0.1280 N   0  0  0  0  0  0  0  0  0  0  0  0
    0.7861   -1.6276    1.4520 N   0  0  0  0  0  0  0  0  0  0  0  0
   -0.0349   -2.6494    2.0238 C   0  0  0  0  0  0  0  0  0  0  0  0
   -0.4604   -2.5053    3.1999 O   0  0  0  0  0  0  0  0  0  0  0  0
   -0.4271   -3.8748    1.2427 C   0  0  0  0  0  0  0  0  0  0  0  0
    0.3227   -4.0927    0.4527 H   0  0  0  0  0  0  0  0  0  0  0  0
   -0.4242   -4.7472    1.9316 H   0  0  0  0  0  0  0  0  0  0  0  0
   -1.8276   -3.7508    0.6213 C   0  0  0  0  0  0  0  0  0  0  0  0
   -2.0837   -4.7274    0.1562 H   0  0  0  0  0  0  0  0  0  0  0  0
   -2.5823   -3.5522    1.4138 H   0  0  0  0  0  0  0  0  0  0  0  0
   -1.9084   -2.6683   -0.4599 C   0  0  0  0  0  0  0  0  0  0  0  0
   -2.8160   -2.8363   -1.0789 H   0  0  0  0  0  0  0  0  0  0  0  0
   -1.0139   -2.7310   -1.1162 H   0  0  0  0  0  0  0  0  0  0  0  0
   -1.9983   -1.3832    0.1512 O   0  0  0  0  0  0  0  0  0  0  0  0
   -1.9377   -0.1606   -0.5344 C   0  0  0  0  0  0  0  0  0  0  0  0
   -1.6929   -0.0867   -1.9197 C   0  0  0  0  0  0  0  0  0  0  0  0
   -1.5650   -0.9797   -2.5149 H   0  0  0  0  0  0  0  0  0  0  0  0
   -1.6020    1.1555   -2.5540 C   0  0  0  0  0  0  0  0  0  0  0  0
   -1.4061    1.2011   -3.6176 H   0  0  0  0  0  0  0  0  0  0  0  0
   -1.7614    2.3330   -1.8185 C   0  0  0  0  0  0  0  0  0  0  0  0
   -1.6390    3.8903   -2.6163 Cl  0  0  0  0  0  0  0  0  0  0  0  0
   -2.0209    2.2682   -0.4469 C   0  0  0  0  0  0  0  0  0  0  0  0
   -2.1488    3.1809    0.1218 H   0  0  0  0  0  0  0  0  0  0  0  0
   -2.1138    1.0275    0.1934 C   0  0  0  0  0  0  0  0  0  0  0  0
   -2.4416    0.9739    1.9192 Cl  0  0  0  0  0  0  0  0  0  0  0  0
    2.3561    0.4903    0.2301 C   0  0  0  0  0  0  0  0  0  0  0  0
    3.6226    1.0399   -0.0337 C   0  0  0  0  0  0  0  0  0  0  0  0
    4.4958    0.4002   -0.8517 F   0  0  0  0  0  0  0  0  0  0  0  0
    3.9926    2.2160    0.5409 N   0  0  0  0  0  0  0  0  0  0  0  0
    3.1608    2.9032    1.3665 C   0  0  0  0  0  0  0  0  0  0  0  0
    3.4876    3.8366    1.8050 H   0  0  0  0  0  0  0  0  0  0  0  0
    1.8845    2.4110    1.6381 C   0  0  0  0  0  0  0  0  0  0  0  0
    1.2106    2.9636    2.2801 H   0  0  0  0  0  0  0  0  0  0  0  0
    1.4801    1.2056    1.0636 C   0  0  0  0  0  0  0  0  0  0  0  0
    0.4775    0.8537    1.2511 H   0  0  0  0  0  0  0  0  0  0  0  0
  1  2  1  0
  2  3  2  0
  3  4  1  0
  4  5  1  0
  5  6  2  0
  5  7  1  0
  7  8  1  0
  7  9  1  0
  7 10  1  0
 10 11  1  0
 10 12  1  0
 10 13  1  0
 13 14  1  0
 13 15  1  0
 13 16  1  0
 16 17  1  0
 17 18  2  0
 18 19  1  0
 18 20  1  0
 20 21  1  0
 20 22  2  0
 22 23  1  0
 22 24  1  0
 24 25  1  0
 24 26  2  0
 26 27  1  0
  2 28  1  0
 28 29  2  0
 29 30  1  0
 29 31  1  0
 31 32  2  0
 32 33  1  0
 32 34  1  0
 34 35  1  0
 34 36  2  0
 36 37  1  0
 26 17  1  0
 36 28  1  0
M  CHG  1   4  -1
M  END
>  <UniqueID>  (4) 
16

>  <SMILES>  (4) 
O=C(CCCOc1ccc(Cl)cc1Cl)[N-]/N=C\c1cccnc1F

>  <Energy>  (4) 
34.40426002807011

>  <Genealogy>  (4) 
O=C(CCCOc1ccc(Cl)cc1Cl)[N-]N=Cc1cccnc1F (protonated)
O=C(CCCOc1ccc(Cl)cc1Cl)[N-]/N=C\c1cccnc1F (cis-trans isomerization)
O=C(CCCOc1ccc(Cl)cc1Cl)[N-]/N=C\c1cccnc1F (3D coordinates assigned)
O=C(CCCOc1ccc(Cl)cc1Cl)[N-]/N=C\c1cccnc1F (optimized conformer: 34.40426002807011 kcal/mol)

$$$$
