untitled_line_5
     RDKit          3D

 41 42  0  0  0  0  0  0  0  0999 V2000
    4.7384   -1.6202   -2.5869 H   0  0  0  0  0  0  0  0  0  0  0  0
    3.8783   -1.1103   -2.1757 C   0  0  0  0  0  0  0  0  0  0  0  0
    3.3680   -1.5687   -1.0717 N   0  0  0  0  0  0  0  0  0  0  0  0
    2.1801   -1.0693   -0.5189 N   0  0  0  0  0  0  0  0  0  0  0  0
    1.6888   -1.5346    0.7362 C   0  0  0  0  0  0  0  0  0  0  0  0
    2.3219   -2.4187    1.3756 O   0  0  0  0  0  0  0  0  0  0  0  0
    0.4613   -0.9036    1.3209 C   0  0  0  0  0  0  0  0  0  0  0  0
    0.7713   -0.2056    2.1293 H   0  0  0  0  0  0  0  0  0  0  0  0
   -0.0395   -0.3199    0.5204 H   0  0  0  0  0  0  0  0  0  0  0  0
   -0.5125   -1.9498    1.8778 C   0  0  0  0  0  0  0  0  0  0  0  0
    0.0080   -2.5479    2.6580 H   0  0  0  0  0  0  0  0  0  0  0  0
   -0.8260   -2.6431    1.0672 H   0  0  0  0  0  0  0  0  0  0  0  0
   -1.7582   -1.3173    2.5154 C   0  0  0  0  0  0  0  0  0  0  0  0
   -1.4971   -0.5092    3.2298 H   0  0  0  0  0  0  0  0  0  0  0  0
   -2.2602   -2.1051    3.1148 H   0  0  0  0  0  0  0  0  0  0  0  0
   -2.6902   -0.8839    1.5211 O   0  0  0  0  0  0  0  0  0  0  0  0
   -2.6842    0.3491    0.8455 C   0  0  0  0  0  0  0  0  0  0  0  0
   -1.9261    1.4554    1.2847 C   0  0  0  0  0  0  0  0  0  0  0  0
   -1.3262    1.4108    2.1798 H   0  0  0  0  0  0  0  0  0  0  0  0
   -1.9268    2.6461    0.5521 C   0  0  0  0  0  0  0  0  0  0  0  0
   -1.3310    3.4840    0.8914 H   0  0  0  0  0  0  0  0  0  0  0  0
   -2.6862    2.7527   -0.6144 C   0  0  0  0  0  0  0  0  0  0  0  0
   -2.6721    4.2431   -1.5376 Cl  0  0  0  0  0  0  0  0  0  0  0  0
   -3.4592    1.6708   -1.0433 C   0  0  0  0  0  0  0  0  0  0  0  0
   -4.0567    1.7573   -1.9428 H   0  0  0  0  0  0  0  0  0  0  0  0
   -3.4636    0.4758   -0.3155 C   0  0  0  0  0  0  0  0  0  0  0  0
   -4.4452   -0.8691   -0.8792 Cl  0  0  0  0  0  0  0  0  0  0  0  0
    3.2910    0.0088   -2.9496 C   0  0  0  0  0  0  0  0  0  0  0  0
    3.3178   -0.0475   -4.3493 C   0  0  0  0  0  0  0  0  0  0  0  0
    3.7338   -0.9127   -4.8557 H   0  0  0  0  0  0  0  0  0  0  0  0
    2.7855    0.9963   -5.1104 C   0  0  0  0  0  0  0  0  0  0  0  0
    2.7898    0.9339   -6.1917 H   0  0  0  0  0  0  0  0  0  0  0  0
    2.2433    2.1184   -4.4823 C   0  0  0  0  0  0  0  0  0  0  0  0
    1.8292    2.9095   -5.0954 H   0  0  0  0  0  0  0  0  0  0  0  0
    2.2620    2.2234   -3.0797 C   0  0  0  0  0  0  0  0  0  0  0  0
    1.7056    3.4350   -2.3735 C   0  0  0  0  0  0  0  0  0  0  0  0
    0.5518    3.0822   -1.6999 F   0  0  0  0  0  0  0  0  0  0  0  0
    2.6341    3.9069   -1.4613 F   0  0  0  0  0  0  0  0  0  0  0  0
    1.4075    4.4557   -3.2612 F   0  0  0  0  0  0  0  0  0  0  0  0
    2.7843    1.1619   -2.3199 C   0  0  0  0  0  0  0  0  0  0  0  0
    2.8202    1.2547   -1.2413 H   0  0  0  0  0  0  0  0  0  0  0  0
  1  2  1  0
  2  3  2  0
  3  4  1  0
  4  5  1  0
  5  6  2  0
  5  7  1  0
  7  8  1  0
  7  9  1  0
  7 10  1  0
 10 11  1  0
 10 12  1  0
 10 13  1  0
 13 14  1  0
 13 15  1  0
 13 16  1  0
 16 17  1  0
 17 18  2  0
 18 19  1  0
 18 20  1  0
 20 21  1  0
 20 22  2  0
 22 23  1  0
 22 24  1  0
 24 25  1  0
 24 26  2  0
 26 27  1  0
  2 28  1  0
 28 29  2  0
 29 30  1  0
 29 31  1  0
 31 32  1  0
 31 33  2  0
 33 34  1  0
 33 35  1  0
 35 36  1  0
 36 37  1  0
 36 38  1  0
 36 39  1  0
 35 40  2  0
 40 41  1  0
 26 17  1  0
 40 28  1  0
M  CHG  1   4  -1
M  END
>  <UniqueID>  (1) 
17

>  <SMILES>  (1) 
O=C(CCCOc1ccc(Cl)cc1Cl)[N-]/N=C\c1cccc(C(F)(F)F)c1

>  <Energy>  (1) 
42.13498252422724

>  <Genealogy>  (1) 
O=C(CCCOc1ccc(Cl)cc1Cl)[N-]N=Cc1cccc(C(F)(F)F)c1 (protonated)
O=C(CCCOc1ccc(Cl)cc1Cl)[N-]/N=C\c1cccc(C(F)(F)F)c1 (cis-trans isomerization)
O=C(CCCOc1ccc(Cl)cc1Cl)[N-]/N=C\c1cccc(C(F)(F)F)c1 (3D coordinates assigned)
O=C(CCCOc1ccc(Cl)cc1Cl)[N-]/N=C\c1cccc(C(F)(F)F)c1 (optimized conformer: 42.13498252422724 kcal/mol)

$$$$
untitled_line_5
     RDKit          3D

 41 42  0  0  0  0  0  0  0  0999 V2000
   -0.5895    0.8574   -1.1935 H   0  0  0  0  0  0  0  0  0  0  0  0
   -0.0807    0.0080   -1.4027 O   0  0  0  0  0  0  0  0  0  0  0  0
    1.0701    0.0142   -2.1926 C   0  0  0  0  0  0  0  0  0  0  0  0
    1.6531    1.2496   -2.6309 N   0  0  0  0  0  0  0  0  0  0  0  0
    1.5262    2.4778   -1.9561 N   0  0  0  0  0  0  0  0  0  0  0  0
    1.4156    2.5751   -0.6657 C   0  0  0  0  0  0  0  0  0  0  0  0
    1.4585    1.6854   -0.0486 H   0  0  0  0  0  0  0  0  0  0  0  0
    1.2653    3.8905   -0.0110 C   0  0  0  0  0  0  0  0  0  0  0  0
    1.2144    5.0796   -0.7593 C   0  0  0  0  0  0  0  0  0  0  0  0
    1.2888    5.0603   -1.8393 H   0  0  0  0  0  0  0  0  0  0  0  0
    1.0548    6.3091   -0.1170 C   0  0  0  0  0  0  0  0  0  0  0  0
    1.0037    7.2195   -0.7002 H   0  0  0  0  0  0  0  0  0  0  0  0
    0.9531    6.3679    1.2745 C   0  0  0  0  0  0  0  0  0  0  0  0
    0.8130    7.3309    1.7492 H   0  0  0  0  0  0  0  0  0  0  0  0
    1.0289    5.1938    2.0429 C   0  0  0  0  0  0  0  0  0  0  0  0
    0.8694    5.2497    3.5417 C   0  0  0  0  0  0  0  0  0  0  0  0
    1.5839    4.2299    4.1463 F   0  0  0  0  0  0  0  0  0  0  0  0
    1.3324    6.4554    4.0399 F   0  0  0  0  0  0  0  0  0  0  0  0
   -0.4683    5.1141    3.8621 F   0  0  0  0  0  0  0  0  0  0  0  0
    1.1620    3.9558    1.3883 C   0  0  0  0  0  0  0  0  0  0  0  0
    1.1827    3.0405    1.9681 H   0  0  0  0  0  0  0  0  0  0  0  0
    1.6248   -1.1377   -2.5799 C   0  0  0  0  0  0  0  0  0  0  0  0
    2.5247   -1.1141   -3.1836 H   0  0  0  0  0  0  0  0  0  0  0  0
    1.0783   -2.4781   -2.1762 C   0  0  0  0  0  0  0  0  0  0  0  0
    0.8777   -2.4898   -1.0840 H   0  0  0  0  0  0  0  0  0  0  0  0
    1.8480   -3.2529   -2.3820 H   0  0  0  0  0  0  0  0  0  0  0  0
   -0.1853   -2.8242   -2.9708 C   0  0  0  0  0  0  0  0  0  0  0  0
    0.0714   -2.8509   -4.0514 H   0  0  0  0  0  0  0  0  0  0  0  0
   -0.9790   -2.0584   -2.8419 H   0  0  0  0  0  0  0  0  0  0  0  0
   -0.6719   -4.1144   -2.6012 O   0  0  0  0  0  0  0  0  0  0  0  0
   -1.3569   -4.4214   -1.4125 C   0  0  0  0  0  0  0  0  0  0  0  0
   -1.7465   -3.4320   -0.4862 C   0  0  0  0  0  0  0  0  0  0  0  0
   -1.5332   -2.3868   -0.6558 H   0  0  0  0  0  0  0  0  0  0  0  0
   -2.4270   -3.7869    0.6819 C   0  0  0  0  0  0  0  0  0  0  0  0
   -2.7200   -3.0187    1.3862 H   0  0  0  0  0  0  0  0  0  0  0  0
   -2.7293   -5.1265    0.9391 C   0  0  0  0  0  0  0  0  0  0  0  0
   -3.5837   -5.5679    2.4061 Cl  0  0  0  0  0  0  0  0  0  0  0  0
   -2.3513   -6.1139    0.0253 C   0  0  0  0  0  0  0  0  0  0  0  0
   -2.5869   -7.1518    0.2248 H   0  0  0  0  0  0  0  0  0  0  0  0
   -1.6693   -5.7650   -1.1461 C   0  0  0  0  0  0  0  0  0  0  0  0
   -1.2052   -7.0282   -2.2760 Cl  0  0  0  0  0  0  0  0  0  0  0  0
  1  2  1  0
  2  3  1  0
  3  4  1  0
  4  5  1  0
  5  6  2  0
  6  7  1  0
  6  8  1  0
  8  9  2  0
  9 10  1  0
  9 11  1  0
 11 12  1  0
 11 13  2  0
 13 14  1  0
 13 15  1  0
 15 16  1  0
 16 17  1  0
 16 18  1  0
 16 19  1  0
 15 20  2  0
 20 21  1  0
  3 22  2  0
 22 23  1  0
 22 24  1  0
 24 25  1  0
 24 26  1  0
 24 27  1  0
 27 28  1  0
 27 29  1  0
 27 30  1  0
 30 31  1  0
 31 32  2  0
 32 33  1  0
 32 34  1  0
 34 35  1  0
 34 36  2  0
 36 37  1  0
 36 38  1  0
 38 39  1  0
 38 40  2  0
 40 41  1  0
 20  8  1  0
 40 31  1  0
M  CHG  1   4  -1
M  END
>  <UniqueID>  (2) 
18

>  <SMILES>  (2) 
O/C(=C\CCOc1ccc(Cl)cc1Cl)[N-]/N=C/c1cccc(C(F)(F)F)c1

>  <Energy>  (2) 
42.62621669906508

>  <Genealogy>  (2) 
O=C(CCCOc1ccc(Cl)cc1Cl)[N-]N=Cc1cccc(C(F)(F)F)c1 (protonated)
OC(=CCCOc1ccc(Cl)cc1Cl)[N-]N=Cc1cccc(C(F)(F)F)c1 (tautomer)
O/C(=C\CCOc1ccc(Cl)cc1Cl)[N-]/N=C/c1cccc(C(F)(F)F)c1 (cis-trans isomerization)
O/C(=C\CCOc1ccc(Cl)cc1Cl)[N-]/N=C/c1cccc(C(F)(F)F)c1 (3D coordinates assigned)
O/C(=C\CCOc1ccc(Cl)cc1Cl)[N-]/N=C/c1cccc(C(F)(F)F)c1 (optimized conformer: 42.62621669906508 kcal/mol)

$$$$
untitled_line_5
     RDKit          3D

 41 42  0  0  0  0  0  0  0  0999 V2000
   -1.8002    1.0180    0.8353 H   0  0  0  0  0  0  0  0  0  0  0  0
   -1.5400    0.7100   -0.0940 O   0  0  0  0  0  0  0  0  0  0  0  0
   -1.0397   -0.5726   -0.3063 C   0  0  0  0  0  0  0  0  0  0  0  0
   -0.9015   -1.4526    0.8158 N   0  0  0  0  0  0  0  0  0  0  0  0
   -0.3809   -2.7504    0.7013 N   0  0  0  0  0  0  0  0  0  0  0  0
   -0.2424   -3.5506    1.7155 C   0  0  0  0  0  0  0  0  0  0  0  0
    0.0891   -4.5631    1.5241 H   0  0  0  0  0  0  0  0  0  0  0  0
   -0.5998   -3.1842    3.1048 C   0  0  0  0  0  0  0  0  0  0  0  0
   -1.2209   -4.1415    3.9192 C   0  0  0  0  0  0  0  0  0  0  0  0
   -1.4686   -5.1197    3.5252 H   0  0  0  0  0  0  0  0  0  0  0  0
   -1.5362   -3.8418    5.2459 C   0  0  0  0  0  0  0  0  0  0  0  0
   -2.0172   -4.5862    5.8675 H   0  0  0  0  0  0  0  0  0  0  0  0
   -1.2240   -2.5884    5.7760 C   0  0  0  0  0  0  0  0  0  0  0  0
   -1.4634   -2.3803    6.8117 H   0  0  0  0  0  0  0  0  0  0  0  0
   -0.5939   -1.6166    4.9811 C   0  0  0  0  0  0  0  0  0  0  0  0
   -0.2046   -0.2914    5.5877 C   0  0  0  0  0  0  0  0  0  0  0  0
   -1.2217    0.1754    6.4012 F   0  0  0  0  0  0  0  0  0  0  0  0
    0.0378    0.6577    4.6096 F   0  0  0  0  0  0  0  0  0  0  0  0
    0.9401   -0.4557    6.3459 F   0  0  0  0  0  0  0  0  0  0  0  0
   -0.2602   -1.9324    3.6512 C   0  0  0  0  0  0  0  0  0  0  0  0
    0.2910   -1.2182    3.0538 H   0  0  0  0  0  0  0  0  0  0  0  0
   -0.6962   -0.9592   -1.5426 C   0  0  0  0  0  0  0  0  0  0  0  0
   -0.3088   -1.9585   -1.7055 H   0  0  0  0  0  0  0  0  0  0  0  0
   -0.8334   -0.0350   -2.7210 C   0  0  0  0  0  0  0  0  0  0  0  0
   -0.2268    0.8771   -2.5396 H   0  0  0  0  0  0  0  0  0  0  0  0
   -1.8976    0.2678   -2.8287 H   0  0  0  0  0  0  0  0  0  0  0  0
   -0.3754   -0.7110   -4.0160 C   0  0  0  0  0  0  0  0  0  0  0  0
    0.6772   -1.0597   -3.9440 H   0  0  0  0  0  0  0  0  0  0  0  0
   -1.0079   -1.6070   -4.1942 H   0  0  0  0  0  0  0  0  0  0  0  0
   -0.5378    0.1710   -5.1263 O   0  0  0  0  0  0  0  0  0  0  0  0
    0.2738    1.2815   -5.4175 C   0  0  0  0  0  0  0  0  0  0  0  0
    1.4689    1.5494   -4.7184 C   0  0  0  0  0  0  0  0  0  0  0  0
    1.8128    0.9046   -3.9225 H   0  0  0  0  0  0  0  0  0  0  0  0
    2.2458    2.6634   -5.0502 C   0  0  0  0  0  0  0  0  0  0  0  0
    3.1640    2.8590   -4.5099 H   0  0  0  0  0  0  0  0  0  0  0  0
    1.8440    3.5189   -6.0788 C   0  0  0  0  0  0  0  0  0  0  0  0
    2.8240    4.9137   -6.4942 Cl  0  0  0  0  0  0  0  0  0  0  0  0
    0.6612    3.2619   -6.7772 C   0  0  0  0  0  0  0  0  0  0  0  0
    0.3499    3.9257   -7.5742 H   0  0  0  0  0  0  0  0  0  0  0  0
   -0.1212    2.1480   -6.4511 C   0  0  0  0  0  0  0  0  0  0  0  0
   -1.6065    1.8535   -7.3428 Cl  0  0  0  0  0  0  0  0  0  0  0  0
  1  2  1  0
  2  3  1  0
  3  4  1  0
  4  5  1  0
  5  6  2  0
  6  7  1  0
  6  8  1  0
  8  9  2  0
  9 10  1  0
  9 11  1  0
 11 12  1  0
 11 13  2  0
 13 14  1  0
 13 15  1  0
 15 16  1  0
 16 17  1  0
 16 18  1  0
 16 19  1  0
 15 20  2  0
 20 21  1  0
  3 22  2  0
 22 23  1  0
 22 24  1  0
 24 25  1  0
 24 26  1  0
 24 27  1  0
 27 28  1  0
 27 29  1  0
 27 30  1  0
 30 31  1  0
 31 32  2  0
 32 33  1  0
 32 34  1  0
 34 35  1  0
 34 36  2  0
 36 37  1  0
 36 38  1  0
 38 39  1  0
 38 40  2  0
 40 41  1  0
 20  8  1  0
 40 31  1  0
M  CHG  1   4  -1
M  END
>  <UniqueID>  (3) 
19

>  <SMILES>  (3) 
O/C(=C\CCOc1ccc(Cl)cc1Cl)[N-]/N=C\c1cccc(C(F)(F)F)c1

>  <Energy>  (3) 
42.05645660283302

>  <Genealogy>  (3) 
O=C(CCCOc1ccc(Cl)cc1Cl)[N-]N=Cc1cccc(C(F)(F)F)c1 (protonated)
OC(=CCCOc1ccc(Cl)cc1Cl)[N-]N=Cc1cccc(C(F)(F)F)c1 (tautomer)
O/C(=C\CCOc1ccc(Cl)cc1Cl)[N-]/N=C\c1cccc(C(F)(F)F)c1 (cis-trans isomerization)
O/C(=C\CCOc1ccc(Cl)cc1Cl)[N-]/N=C\c1cccc(C(F)(F)F)c1 (3D coordinates assigned)
O/C(=C\CCOc1ccc(Cl)cc1Cl)[N-]/N=C\c1cccc(C(F)(F)F)c1 (optimized conformer: 42.05645660283302 kcal/mol)

$$$$
untitled_line_5
     RDKit          3D

 41 42  0  0  0  0  0  0  0  0999 V2000
   -1.7733   -0.0954   -0.3756 H   0  0  0  0  0  0  0  0  0  0  0  0
   -1.8231    0.2075   -1.4162 C   0  0  0  0  0  0  0  0  0  0  0  0
   -2.4382   -0.5453   -2.2761 N   0  0  0  0  0  0  0  0  0  0  0  0
   -3.0103   -1.7782   -1.9190 N   0  0  0  0  0  0  0  0  0  0  0  0
   -2.2903   -2.8436   -1.2842 C   0  0  0  0  0  0  0  0  0  0  0  0
   -2.9460   -3.8066   -0.8038 O   0  0  0  0  0  0  0  0  0  0  0  0
   -0.7793   -2.8948   -1.3212 C   0  0  0  0  0  0  0  0  0  0  0  0
   -0.4758   -3.0640   -2.3761 H   0  0  0  0  0  0  0  0  0  0  0  0
   -0.3440   -1.9253   -1.0082 H   0  0  0  0  0  0  0  0  0  0  0  0
   -0.1649   -4.0130   -0.4605 C   0  0  0  0  0  0  0  0  0  0  0  0
   -0.6230   -4.9903   -0.7265 H   0  0  0  0  0  0  0  0  0  0  0  0
    0.9145   -4.0888   -0.7078 H   0  0  0  0  0  0  0  0  0  0  0  0
   -0.3241   -3.7696    1.0491 C   0  0  0  0  0  0  0  0  0  0  0  0
   -1.4029   -3.7323    1.3059 H   0  0  0  0  0  0  0  0  0  0  0  0
    0.1082   -4.6163    1.6247 H   0  0  0  0  0  0  0  0  0  0  0  0
    0.2740   -2.5351    1.4495 O   0  0  0  0  0  0  0  0  0  0  0  0
    1.6534   -2.2900    1.5676 C   0  0  0  0  0  0  0  0  0  0  0  0
    2.6198   -3.3039    1.4049 C   0  0  0  0  0  0  0  0  0  0  0  0
    2.3360   -4.3235    1.1885 H   0  0  0  0  0  0  0  0  0  0  0  0
    3.9802   -3.0084    1.5285 C   0  0  0  0  0  0  0  0  0  0  0  0
    4.7149   -3.7936    1.3954 H   0  0  0  0  0  0  0  0  0  0  0  0
    4.3924   -1.7055    1.8192 C   0  0  0  0  0  0  0  0  0  0  0  0
    6.1018   -1.3372    1.9632 Cl  0  0  0  0  0  0  0  0  0  0  0  0
    3.4416   -0.6962    1.9931 C   0  0  0  0  0  0  0  0  0  0  0  0
    3.7625    0.3123    2.2202 H   0  0  0  0  0  0  0  0  0  0  0  0
    2.0786   -0.9852    1.8696 C   0  0  0  0  0  0  0  0  0  0  0  0
    0.9055    0.3008    2.1076 Cl  0  0  0  0  0  0  0  0  0  0  0  0
   -1.1845    1.4735   -1.8294 C   0  0  0  0  0  0  0  0  0  0  0  0
   -1.1783    1.8866   -3.1737 C   0  0  0  0  0  0  0  0  0  0  0  0
   -1.6621    1.2930   -3.9415 H   0  0  0  0  0  0  0  0  0  0  0  0
   -0.5303    3.0676   -3.5418 C   0  0  0  0  0  0  0  0  0  0  0  0
   -0.5168    3.3729   -4.5810 H   0  0  0  0  0  0  0  0  0  0  0  0
    0.1101    3.8510   -2.5766 C   0  0  0  0  0  0  0  0  0  0  0  0
    0.6210    4.7520   -2.8906 H   0  0  0  0  0  0  0  0  0  0  0  0
    0.0884    3.4697   -1.2229 C   0  0  0  0  0  0  0  0  0  0  0  0
    0.8184    4.2744   -0.1749 C   0  0  0  0  0  0  0  0  0  0  0  0
    2.0379    3.6760    0.0909 F   0  0  0  0  0  0  0  0  0  0  0  0
    0.0753    4.3235    0.9934 F   0  0  0  0  0  0  0  0  0  0  0  0
    1.0380    5.5728   -0.6033 F   0  0  0  0  0  0  0  0  0  0  0  0
   -0.5505    2.2712   -0.8621 C   0  0  0  0  0  0  0  0  0  0  0  0
   -0.5500    1.9571    0.1747 H   0  0  0  0  0  0  0  0  0  0  0  0
  1  2  1  0
  2  3  2  0
  3  4  1  0
  4  5  1  0
  5  6  2  0
  5  7  1  0
  7  8  1  0
  7  9  1  0
  7 10  1  0
 10 11  1  0
 10 12  1  0
 10 13  1  0
 13 14  1  0
 13 15  1  0
 13 16  1  0
 16 17  1  0
 17 18  2  0
 18 19  1  0
 18 20  1  0
 20 21  1  0
 20 22  2  0
 22 23  1  0
 22 24  1  0
 24 25  1  0
 24 26  2  0
 26 27  1  0
  2 28  1  0
 28 29  2  0
 29 30  1  0
 29 31  1  0
 31 32  1  0
 31 33  2  0
 33 34  1  0
 33 35  1  0
 35 36  1  0
 36 37  1  0
 36 38  1  0
 36 39  1  0
 35 40  2  0
 40 41  1  0
 26 17  1  0
 40 28  1  0
M  CHG  1   4  -1
M  END
>  <UniqueID>  (4) 
20

>  <SMILES>  (4) 
O=C(CCCOc1ccc(Cl)cc1Cl)[N-]/N=C/c1cccc(C(F)(F)F)c1

>  <Energy>  (4) 
45.4107423248079

>  <Genealogy>  (4) 
O=C(CCCOc1ccc(Cl)cc1Cl)[N-]N=Cc1cccc(C(F)(F)F)c1 (protonated)
O=C(CCCOc1ccc(Cl)cc1Cl)[N-]/N=C/c1cccc(C(F)(F)F)c1 (cis-trans isomerization)
O=C(CCCOc1ccc(Cl)cc1Cl)[N-]/N=C/c1cccc(C(F)(F)F)c1 (3D coordinates assigned)
O=C(CCCOc1ccc(Cl)cc1Cl)[N-]/N=C/c1cccc(C(F)(F)F)c1 (optimized conformer: 45.4107423248079 kcal/mol)

$$$$
