untitled_line_12
     RDKit          3D

 58 63  0  0  0  0  0  0  0  0999 V2000
   -5.5002    4.4255    4.6290 N   0  0  0  0  0  0  0  0  0  0  0  0
   -6.2265    4.7593    3.6114 C   0  0  0  0  0  0  0  0  0  0  0  0
   -7.2732    5.6616    3.7874 O   0  0  0  0  0  0  0  0  0  0  0  0
   -5.9524    4.1937    2.2697 C   0  0  0  0  0  0  0  0  0  0  0  0
   -6.7532    4.5799    1.1614 C   0  0  0  0  0  0  0  0  0  0  0  0
   -6.5114    4.0562   -0.1211 C   0  0  0  0  0  0  0  0  0  0  0  0
   -5.4671    3.1498   -0.2674 C   0  0  0  0  0  0  0  0  0  0  0  0
   -5.0129    2.4797   -1.3820 C   0  0  0  0  0  0  0  0  0  0  0  0
   -3.9463    1.7076   -0.9261 C   0  0  0  0  0  0  0  0  0  0  0  0
   -3.1485    0.7918   -1.7606 C   0  0  0  0  0  0  0  0  0  0  0  0
   -3.5779    0.4546   -2.8958 O   0  0  0  0  0  0  0  0  0  0  0  0
   -1.9166    0.2368   -1.2810 N   0  0  0  0  0  0  0  0  0  0  0  0
   -1.5324   -1.1625   -1.4503 C   0  0  0  0  0  0  0  0  0  0  0  0
   -0.1606   -1.3214   -0.7100 C   0  0  1  0  0  0  0  0  0  0  0  0
   -0.2697   -2.1557    0.5642 C   0  0  0  0  0  0  0  0  0  0  0  0
    1.0708   -2.8506    0.6667 C   0  0  0  0  0  0  0  0  0  0  0  0
    1.5447   -3.0732   -0.7069 N   0  0  0  0  0  0  0  0  0  0  0  0
    3.0239   -3.0730   -0.8009 C   0  0  1  0  0  0  0  0  0  0  0  0
    3.6500   -4.1656    0.0457 C   0  0  0  0  0  0  0  0  0  0  0  0
    4.9291   -4.5282   -0.6884 C   0  0  0  0  0  0  0  0  0  0  0  0
    4.7933   -4.1055   -2.0846 N   0  0  0  0  0  0  0  0  0  0  0  0
    3.5028   -3.4267   -2.2057 C   0  0  0  0  0  0  0  0  0  0  0  0
    0.9198   -2.0334   -1.5481 C   0  0  0  0  0  0  0  0  0  0  0  0
    0.2053    0.1081   -0.3903 C   0  0  0  0  0  0  0  0  0  0  0  0
    1.3962    0.6098    0.1510 C   0  0  0  0  0  0  0  0  0  0  0  0
    1.5218    1.9944    0.3392 C   0  0  0  0  0  0  0  0  0  0  0  0
    0.4708    2.8564   -0.0221 C   0  0  0  0  0  0  0  0  0  0  0  0
   -0.7129    2.3371   -0.5666 C   0  0  0  0  0  0  0  0  0  0  0  0
   -0.8268    0.9498   -0.7182 C   0  0  0  0  0  0  0  0  0  0  0  0
   -3.7568    1.8813    0.4044 N   0  0  0  0  0  0  0  0  0  0  0  0
   -4.6893    2.7670    0.7910 C   0  0  0  0  0  0  0  0  0  0  0  0
   -4.9005    3.2648    2.0751 C   0  0  0  0  0  0  0  0  0  0  0  0
   -7.4756    6.0594    4.6971 H   0  0  0  0  0  0  0  0  0  0  0  0
   -7.5632    5.2873    1.2860 H   0  0  0  0  0  0  0  0  0  0  0  0
   -7.1214    4.3485   -0.9661 H   0  0  0  0  0  0  0  0  0  0  0  0
   -5.4022    2.5417   -2.3900 H   0  0  0  0  0  0  0  0  0  0  0  0
   -2.3251   -1.8194   -1.0333 H   0  0  0  0  0  0  0  0  0  0  0  0
   -1.4388   -1.3730   -2.5370 H   0  0  0  0  0  0  0  0  0  0  0  0
   -0.4854   -1.5463    1.4695 H   0  0  0  0  0  0  0  0  0  0  0  0
   -1.0557   -2.9359    0.4636 H   0  0  0  0  0  0  0  0  0  0  0  0
    0.9613   -3.8228    1.1941 H   0  0  0  0  0  0  0  0  0  0  0  0
    1.7721   -2.2088    1.2459 H   0  0  0  0  0  0  0  0  0  0  0  0
    3.4467   -2.0850   -0.5027 H   0  0  0  0  0  0  0  0  0  0  0  0
    3.8607   -3.8122    1.0784 H   0  0  0  0  0  0  0  0  0  0  0  0
    2.9828   -5.0560    0.0859 H   0  0  0  0  0  0  0  0  0  0  0  0
    5.1025   -5.6244   -0.6457 H   0  0  0  0  0  0  0  0  0  0  0  0
    5.7947   -4.0163   -0.2085 H   0  0  0  0  0  0  0  0  0  0  0  0
    5.5504   -3.4129   -2.2960 H   0  0  0  0  0  0  0  0  0  0  0  0
    2.7849   -4.1225   -2.6930 H   0  0  0  0  0  0  0  0  0  0  0  0
    3.5911   -2.5149   -2.8376 H   0  0  0  0  0  0  0  0  0  0  0  0
    1.6600   -1.3002   -1.9427 H   0  0  0  0  0  0  0  0  0  0  0  0
    0.4733   -2.5421   -2.4281 H   0  0  0  0  0  0  0  0  0  0  0  0
    2.2147   -0.0478    0.4070 H   0  0  0  0  0  0  0  0  0  0  0  0
    2.4352    2.4017    0.7528 H   0  0  0  0  0  0  0  0  0  0  0  0
    0.5795    3.9247    0.1113 H   0  0  0  0  0  0  0  0  0  0  0  0
   -1.5078    3.0049   -0.8681 H   0  0  0  0  0  0  0  0  0  0  0  0
   -3.0495    1.4122    1.0131 H   0  0  0  0  0  0  0  0  0  0  0  0
   -4.2686    2.9395    2.8918 H   0  0  0  0  0  0  0  0  0  0  0  0
  1  2  2  0
  2  3  1  0
  2  4  1  0
  4  5  2  0
  5  6  1  0
  6  7  2  0
  7  8  1  0
  8  9  2  0
  9 10  1  0
 10 11  2  0
 10 12  1  0
 12 13  1  0
 14 13  1  6
 14 15  1  0
 15 16  1  0
 16 17  1  0
 17 18  1  0
 18 19  1  0
 19 20  1  0
 20 21  1  0
 21 22  1  0
 17 23  1  0
 14 24  1  0
 24 25  2  0
 25 26  1  0
 26 27  2  0
 27 28  1  0
 28 29  2  0
  9 30  1  0
 30 31  1  0
 31 32  2  0
 32  4  1  0
 31  7  1  0
 29 12  1  0
 23 14  1  0
 29 24  1  0
 22 18  1  0
  3 33  1  0
  5 34  1  0
  6 35  1  0
  8 36  1  0
 13 37  1  0
 13 38  1  0
 15 39  1  0
 15 40  1  0
 16 41  1  0
 16 42  1  0
 18 43  1  1
 19 44  1  0
 19 45  1  0
 20 46  1  0
 20 47  1  0
 21 48  1  0
 22 49  1  0
 22 50  1  0
 23 51  1  0
 23 52  1  0
 25 53  1  0
 26 54  1  0
 27 55  1  0
 28 56  1  0
 30 57  1  0
 32 58  1  0
M  CHG  1   1  -1
M  END
>  <UniqueID>  (1) 
39

>  <SMILES>  (1) 
[N-]=C(O)c1ccc2cc(C(=O)N3C[C@]4(CCN([C@H]5CCNC5)C4)c4ccccc43)[nH]c2c1

>  <Energy>  (1) 
123.70807963868236

>  <Genealogy>  (1) 
[NH-]C(=O)c1ccc2cc(C(=O)N3C[C@]4(CCN(C5CCNC5)C4)c4ccccc43)[nH]c2c1 (protonated)
[N-]=C(O)c1ccc2cc(C(=O)N3C[C@]4(CCN(C5CCNC5)C4)c4ccccc43)[nH]c2c1 (tautomer)
[N-]=C(O)c1ccc2cc(C(=O)N3C[C@]4(CCN([C@H]5CCNC5)C4)c4ccccc43)[nH]c2c1 (chirality)
[N-]=C(O)c1ccc2cc(C(=O)N3C[C@]4(CCN([C@H]5CCNC5)C4)c4ccccc43)[nH]c2c1 (3D coordinates assigned)
[N-]=C(O)c1ccc2cc(C(=O)N3C[C@]4(CCN([C@H]5CCNC5)C4)c4ccccc43)[nH]c2c1 (nonaromatic ring conformer: 123.70807963868236 kcal/mol)

$$$$
untitled_line_12
     RDKit          3D

 58 63  0  0  0  0  0  0  0  0999 V2000
   -3.9201   -6.3562   -0.6475 N   0  0  0  0  0  0  0  0  0  0  0  0
   -3.6902   -6.3526    0.7606 C   0  0  0  0  0  0  0  0  0  0  0  0
   -4.4371   -7.0426    1.5065 O   0  0  0  0  0  0  0  0  0  0  0  0
   -2.5909   -5.5481    1.3418 C   0  0  0  0  0  0  0  0  0  0  0  0
   -2.3395   -5.5824    2.7409 C   0  0  0  0  0  0  0  0  0  0  0  0
   -1.3003   -4.8217    3.3057 C   0  0  0  0  0  0  0  0  0  0  0  0
   -0.5333   -4.0348    2.4539 C   0  0  0  0  0  0  0  0  0  0  0  0
    0.5382   -3.2110    2.7185 C   0  0  0  0  0  0  0  0  0  0  0  0
    0.9026   -2.6871    1.4796 C   0  0  0  0  0  0  0  0  0  0  0  0
    2.0317   -1.7685    1.2537 C   0  0  0  0  0  0  0  0  0  0  0  0
    2.9513   -1.7000    2.1138 O   0  0  0  0  0  0  0  0  0  0  0  0
    2.0816   -0.9305    0.0880 N   0  0  0  0  0  0  0  0  0  0  0  0
    0.9591   -0.0959   -0.3502 C   0  0  0  0  0  0  0  0  0  0  0  0
    1.5709    0.9898   -1.3039 C   0  0  1  0  0  0  0  0  0  0  0  0
    0.9375    0.9642   -2.6854 C   0  0  0  0  0  0  0  0  0  0  0  0
   -0.2529    1.8892   -2.5307 C   0  0  0  0  0  0  0  0  0  0  0  0
    0.1140    2.9250   -1.5441 N   0  0  0  0  0  0  0  0  0  0  0  0
   -1.0113    3.2636   -0.6386 C   0  0  1  0  0  0  0  0  0  0  0  0
   -0.6753    4.4334    0.2695 C   0  0  0  0  0  0  0  0  0  0  0  0
   -2.0111    5.1039    0.5342 C   0  0  0  0  0  0  0  0  0  0  0  0
   -2.9290    4.7384   -0.5459 N   0  0  0  0  0  0  0  0  0  0  0  0
   -2.2300    3.7796   -1.4034 C   0  0  0  0  0  0  0  0  0  0  0  0
    1.2970    2.4191   -0.8173 C   0  0  0  0  0  0  0  0  0  0  0  0
    3.0307    0.6397   -1.3200 C   0  0  0  0  0  0  0  0  0  0  0  0
    4.0715    1.2641   -2.0189 C   0  0  0  0  0  0  0  0  0  0  0  0
    5.3723    0.7538   -1.8890 C   0  0  0  0  0  0  0  0  0  0  0  0
    5.6145   -0.3679   -1.0758 C   0  0  0  0  0  0  0  0  0  0  0  0
    4.5581   -0.9803   -0.3836 C   0  0  0  0  0  0  0  0  0  0  0  0
    3.2713   -0.4440   -0.5154 C   0  0  0  0  0  0  0  0  0  0  0  0
    0.1084   -3.1735    0.4956 N   0  0  0  0  0  0  0  0  0  0  0  0
   -0.7654   -3.9907    1.1061 C   0  0  0  0  0  0  0  0  0  0  0  0
   -1.7815   -4.7358    0.5115 C   0  0  0  0  0  0  0  0  0  0  0  0
   -4.6957   -6.9186   -1.0632 H   0  0  0  0  0  0  0  0  0  0  0  0
   -2.9439   -6.1981    3.3943 H   0  0  0  0  0  0  0  0  0  0  0  0
   -1.1039   -4.8507    4.3698 H   0  0  0  0  0  0  0  0  0  0  0  0
    0.9961   -3.0164    3.6797 H   0  0  0  0  0  0  0  0  0  0  0  0
    0.2041   -0.7230   -0.8667 H   0  0  0  0  0  0  0  0  0  0  0  0
    0.4642    0.3548    0.5372 H   0  0  0  0  0  0  0  0  0  0  0  0
    0.6363   -0.0538   -3.0153 H   0  0  0  0  0  0  0  0  0  0  0  0
    1.6275    1.3928   -3.4454 H   0  0  0  0  0  0  0  0  0  0  0  0
   -1.1247    1.2832   -2.1916 H   0  0  0  0  0  0  0  0  0  0  0  0
   -0.5037    2.3641   -3.5033 H   0  0  0  0  0  0  0  0  0  0  0  0
   -1.3046    2.3834   -0.0192 H   0  0  0  0  0  0  0  0  0  0  0  0
   -0.2043    4.0997    1.2194 H   0  0  0  0  0  0  0  0  0  0  0  0
    0.0014    5.1476   -0.2522 H   0  0  0  0  0  0  0  0  0  0  0  0
   -2.4301    4.7346    1.4956 H   0  0  0  0  0  0  0  0  0  0  0  0
   -1.8891    6.2082    0.6054 H   0  0  0  0  0  0  0  0  0  0  0  0
   -3.1509    5.5948   -1.1079 H   0  0  0  0  0  0  0  0  0  0  0  0
   -1.9087    4.2776   -2.3480 H   0  0  0  0  0  0  0  0  0  0  0  0
   -2.9148    2.9429   -1.6582 H   0  0  0  0  0  0  0  0  0  0  0  0
    2.1503    3.0839   -1.0722 H   0  0  0  0  0  0  0  0  0  0  0  0
    1.1934    2.4601    0.2890 H   0  0  0  0  0  0  0  0  0  0  0  0
    3.8823    2.1233   -2.6490 H   0  0  0  0  0  0  0  0  0  0  0  0
    6.1912    1.2220   -2.4203 H   0  0  0  0  0  0  0  0  0  0  0  0
    6.6184   -0.7632   -0.9876 H   0  0  0  0  0  0  0  0  0  0  0  0
    4.7432   -1.8540    0.2264 H   0  0  0  0  0  0  0  0  0  0  0  0
    0.1817   -2.9947   -0.5302 H   0  0  0  0  0  0  0  0  0  0  0  0
   -1.9365   -4.6810   -0.5584 H   0  0  0  0  0  0  0  0  0  0  0  0
  1  2  1  0
  2  3  2  0
  2  4  1  0
  4  5  2  0
  5  6  1  0
  6  7  2  0
  7  8  1  0
  8  9  2  0
  9 10  1  0
 10 11  2  0
 10 12  1  0
 12 13  1  0
 14 13  1  1
 14 15  1  0
 15 16  1  0
 16 17  1  0
 17 18  1  0
 18 19  1  0
 19 20  1  0
 20 21  1  0
 21 22  1  0
 17 23  1  0
 14 24  1  0
 24 25  2  0
 25 26  1  0
 26 27  2  0
 27 28  1  0
 28 29  2  0
  9 30  1  0
 30 31  1  0
 31 32  2  0
 32  4  1  0
 31  7  1  0
 29 12  1  0
 23 14  1  0
 29 24  1  0
 22 18  1  0
  1 33  1  0
  5 34  1  0
  6 35  1  0
  8 36  1  0
 13 37  1  0
 13 38  1  0
 15 39  1  0
 15 40  1  0
 16 41  1  0
 16 42  1  0
 18 43  1  1
 19 44  1  0
 19 45  1  0
 20 46  1  0
 20 47  1  0
 21 48  1  0
 22 49  1  0
 22 50  1  0
 23 51  1  0
 23 52  1  0
 25 53  1  0
 26 54  1  0
 27 55  1  0
 28 56  1  0
 30 57  1  0
 32 58  1  0
M  CHG  1   1  -1
M  END
>  <UniqueID>  (2) 
40

>  <SMILES>  (2) 
[NH-]C(=O)c1ccc2cc(C(=O)N3C[C@]4(CCN([C@H]5CCNC5)C4)c4ccccc43)[nH]c2c1

>  <Energy>  (2) 
124.25485791847629

>  <Genealogy>  (2) 
[NH-]C(=O)c1ccc2cc(C(=O)N3C[C@]4(CCN(C5CCNC5)C4)c4ccccc43)[nH]c2c1 (protonated)
[NH-]C(=O)c1ccc2cc(C(=O)N3C[C@]4(CCN([C@H]5CCNC5)C4)c4ccccc43)[nH]c2c1 (chirality)
[NH-]C(=O)c1ccc2cc(C(=O)N3C[C@]4(CCN([C@H]5CCNC5)C4)c4ccccc43)[nH]c2c1 (3D coordinates assigned)
[NH-]C(=O)c1ccc2cc(C(=O)N3C[C@]4(CCN([C@H]5CCNC5)C4)c4ccccc43)[nH]c2c1 (nonaromatic ring conformer: 124.25485791847629 kcal/mol)

$$$$
untitled_line_12
     RDKit          3D

 59 64  0  0  0  0  0  0  0  0999 V2000
    1.9507   -3.9772    8.3933 N   0  0  0  0  0  0  0  0  0  0  0  0
    1.2166   -4.6685    7.3790 C   0  0  0  0  0  0  0  0  0  0  0  0
    0.8704   -5.8628    7.5865 O   0  0  0  0  0  0  0  0  0  0  0  0
    0.8441   -4.0081    6.1043 C   0  0  0  0  0  0  0  0  0  0  0  0
   -0.2367   -4.5193    5.3348 C   0  0  0  0  0  0  0  0  0  0  0  0
   -0.6080   -3.9160    4.1201 C   0  0  0  0  0  0  0  0  0  0  0  0
    0.1206   -2.8112    3.6937 C   0  0  0  0  0  0  0  0  0  0  0  0
   -0.0114   -2.0337    2.5646 C   0  0  0  0  0  0  0  0  0  0  0  0
    1.0024   -1.0812    2.6643 C   0  0  0  0  0  0  0  0  0  0  0  0
    1.2574    0.0014    1.6975 C   0  0  0  0  0  0  0  0  0  0  0  0
    1.9705    0.9814    2.0416 O   0  0  0  0  0  0  0  0  0  0  0  0
    0.6655   -0.0129    0.3916 N   0  0  0  0  0  0  0  0  0  0  0  0
   -0.0183    1.1321   -0.2050 C   0  0  0  0  0  0  0  0  0  0  0  0
   -0.5582    0.6289   -1.5905 C   0  0  1  0  0  0  0  0  0  0  0  0
   -2.0761    0.6575   -1.6570 C   0  0  0  0  0  0  0  0  0  0  0  0
   -2.3687    2.0589   -2.1535 C   0  0  0  0  0  0  0  0  0  0  0  0
   -1.2585    2.4543   -3.0422 N   0  0  0  0  0  0  0  0  0  0  0  0
   -0.8877    3.8813   -2.8804 C   0  0  1  0  0  0  0  0  0  0  0  0
    0.1511    4.3157   -3.9019 C   0  0  0  0  0  0  0  0  0  0  0  0
   -0.1736    5.7721   -4.2053 C   0  0  0  0  0  0  0  0  0  0  0  0
   -1.5026    6.0755   -3.6691 N   0  0  0  0  0  0  0  0  0  0  0  0
   -2.0565    4.8152   -3.1804 C   0  0  0  0  0  0  0  0  0  0  0  0
   -0.1351    1.5388   -2.7526 C   0  0  0  0  0  0  0  0  0  0  0  0
   -0.0029   -0.7660   -1.6834 C   0  0  0  0  0  0  0  0  0  0  0  0
   -0.1064   -1.6804   -2.7388 C   0  0  0  0  0  0  0  0  0  0  0  0
    0.5306   -2.9249   -2.6172 C   0  0  0  0  0  0  0  0  0  0  0  0
    1.2640   -3.2347   -1.4575 C   0  0  0  0  0  0  0  0  0  0  0  0
    1.3530   -2.3067   -0.4088 C   0  0  0  0  0  0  0  0  0  0  0  0
    0.6846   -1.0836   -0.5402 C   0  0  0  0  0  0  0  0  0  0  0  0
    1.7156   -1.2520    3.8032 N   0  0  0  0  0  0  0  0  0  0  0  0
    1.1685   -2.3133    4.4189 C   0  0  0  0  0  0  0  0  0  0  0  0
    1.5629   -2.8848    5.6273 C   0  0  0  0  0  0  0  0  0  0  0  0
    2.1259   -2.9502    8.3431 H   0  0  0  0  0  0  0  0  0  0  0  0
    2.2502   -4.4848    9.2553 H   0  0  0  0  0  0  0  0  0  0  0  0
   -0.7980   -5.3788    5.6794 H   0  0  0  0  0  0  0  0  0  0  0  0
   -1.4338   -4.3014    3.5358 H   0  0  0  0  0  0  0  0  0  0  0  0
   -0.7491   -2.1388    1.7797 H   0  0  0  0  0  0  0  0  0  0  0  0
    0.7032    1.9705   -0.3101 H   0  0  0  0  0  0  0  0  0  0  0  0
   -0.8336    1.4699    0.4710 H   0  0  0  0  0  0  0  0  0  0  0  0
   -2.4518   -0.0742   -2.4067 H   0  0  0  0  0  0  0  0  0  0  0  0
   -2.5644    0.4488   -0.6799 H   0  0  0  0  0  0  0  0  0  0  0  0
   -2.4531    2.7328   -1.2697 H   0  0  0  0  0  0  0  0  0  0  0  0
   -3.3282    2.0797   -2.7133 H   0  0  0  0  0  0  0  0  0  0  0  0
   -0.5070    4.0819   -1.8512 H   0  0  0  0  0  0  0  0  0  0  0  0
    0.0577    3.7126   -4.8329 H   0  0  0  0  0  0  0  0  0  0  0  0
    1.1829    4.2141   -3.5008 H   0  0  0  0  0  0  0  0  0  0  0  0
    0.5938    6.4374   -3.7476 H   0  0  0  0  0  0  0  0  0  0  0  0
   -0.1715    5.9454   -5.3029 H   0  0  0  0  0  0  0  0  0  0  0  0
   -1.3857    6.7153   -2.8475 H   0  0  0  0  0  0  0  0  0  0  0  0
   -2.6786    4.9824   -2.2730 H   0  0  0  0  0  0  0  0  0  0  0  0
   -2.7026    4.3821   -3.9757 H   0  0  0  0  0  0  0  0  0  0  0  0
    0.8213    2.0629   -2.5358 H   0  0  0  0  0  0  0  0  0  0  0  0
    0.0456    0.9379   -3.6692 H   0  0  0  0  0  0  0  0  0  0  0  0
   -0.6599   -1.4349   -3.6356 H   0  0  0  0  0  0  0  0  0  0  0  0
    0.4658   -3.6446   -3.4228 H   0  0  0  0  0  0  0  0  0  0  0  0
    1.7654   -4.1902   -1.3755 H   0  0  0  0  0  0  0  0  0  0  0  0
    1.9337   -2.5397    0.4730 H   0  0  0  0  0  0  0  0  0  0  0  0
    2.5248   -0.6810    4.1356 H   0  0  0  0  0  0  0  0  0  0  0  0
    2.4138   -2.4793    6.1574 H   0  0  0  0  0  0  0  0  0  0  0  0
  1  2  1  0
  2  3  2  0
  2  4  1  0
  4  5  2  0
  5  6  1  0
  6  7  2  0
  7  8  1  0
  8  9  2  0
  9 10  1  0
 10 11  2  0
 10 12  1  0
 12 13  1  0
 14 13  1  1
 14 15  1  0
 15 16  1  0
 16 17  1  0
 17 18  1  0
 18 19  1  0
 19 20  1  0
 20 21  1  0
 21 22  1  0
 17 23  1  0
 14 24  1  0
 24 25  2  0
 25 26  1  0
 26 27  2  0
 27 28  1  0
 28 29  2  0
  9 30  1  0
 30 31  1  0
 31 32  2  0
 32  4  1  0
 31  7  1  0
 29 12  1  0
 23 14  1  0
 29 24  1  0
 22 18  1  0
  1 33  1  0
  1 34  1  0
  5 35  1  0
  6 36  1  0
  8 37  1  0
 13 38  1  0
 13 39  1  0
 15 40  1  0
 15 41  1  0
 16 42  1  0
 16 43  1  0
 18 44  1  1
 19 45  1  0
 19 46  1  0
 20 47  1  0
 20 48  1  0
 21 49  1  0
 22 50  1  0
 22 51  1  0
 23 52  1  0
 23 53  1  0
 25 54  1  0
 26 55  1  0
 27 56  1  0
 28 57  1  0
 30 58  1  0
 32 59  1  0
M  END
>  <UniqueID>  (3) 
41

>  <SMILES>  (3) 
NC(=O)c1ccc2cc(C(=O)N3C[C@]4(CCN([C@H]5CCNC5)C4)c4ccccc43)[nH]c2c1

>  <Energy>  (3) 
125.86125598908306

>  <Genealogy>  (3) 
NC(=O)c1ccc2cc(C(=O)N3C[C@]4(CCN([C@H]5CCNC5)C4)c4ccccc43)[nH]c2c1 (chirality)
NC(=O)c1ccc2cc(C(=O)N3C[C@]4(CCN([C@H]5CCNC5)C4)c4ccccc43)[nH]c2c1 (3D coordinates assigned)
NC(=O)c1ccc2cc(C(=O)N3C[C@]4(CCN([C@H]5CCNC5)C4)c4ccccc43)[nH]c2c1 (nonaromatic ring conformer: 125.86125598908306 kcal/mol)

$$$$
untitled_line_12
     RDKit          3D

 58 63  0  0  0  0  0  0  0  0999 V2000
   -0.5826   -6.8008    4.3752 N   0  0  0  0  0  0  0  0  0  0  0  0
   -0.3565   -6.5636    3.1233 C   0  0  0  0  0  0  0  0  0  0  0  0
    0.2620   -7.5401    2.3453 O   0  0  0  0  0  0  0  0  0  0  0  0
   -0.7548   -5.2724    2.5156 C   0  0  0  0  0  0  0  0  0  0  0  0
   -1.4297   -4.2817    3.2821 C   0  0  0  0  0  0  0  0  0  0  0  0
   -1.8079   -3.0569    2.7040 C   0  0  0  0  0  0  0  0  0  0  0  0
   -1.4960   -2.8454    1.3652 C   0  0  0  0  0  0  0  0  0  0  0  0
   -1.7431   -1.7640    0.5486 C   0  0  0  0  0  0  0  0  0  0  0  0
   -1.2053   -2.1169   -0.6892 C   0  0  0  0  0  0  0  0  0  0  0  0
   -1.2381   -1.2964   -1.9144 C   0  0  0  0  0  0  0  0  0  0  0  0
   -1.0930   -1.8665   -3.0292 O   0  0  0  0  0  0  0  0  0  0  0  0
   -1.3890    0.1339   -1.8598 N   0  0  0  0  0  0  0  0  0  0  0  0
   -0.6991    0.9868   -0.8865 C   0  0  0  0  0  0  0  0  0  0  0  0
   -0.5375    2.3890   -1.5704 C   0  0  1  0  0  0  0  0  0  0  0  0
   -0.9964    3.5555   -0.6834 C   0  0  0  0  0  0  0  0  0  0  0  0
    0.1967    4.4992   -0.6370 C   0  0  0  0  0  0  0  0  0  0  0  0
    1.4072    3.7163   -0.9412 N   0  0  0  0  0  0  0  0  0  0  0  0
    1.9846    3.0896    0.2811 C   0  0  2  0  0  0  0  0  0  0  0  0
    2.5188    4.1268    1.2558 C   0  0  0  0  0  0  0  0  0  0  0  0
    3.6571    3.4286    1.9737 C   0  0  0  0  0  0  0  0  0  0  0  0
    4.1505    2.3567    1.1103 N   0  0  0  0  0  0  0  0  0  0  0  0
    3.2316    2.2542   -0.0254 C   0  0  0  0  0  0  0  0  0  0  0  0
    0.9313    2.7115   -1.9082 C   0  0  0  0  0  0  0  0  0  0  0  0
   -1.3659    2.2398   -2.8151 C   0  0  0  0  0  0  0  0  0  0  0  0
   -1.6693    3.2077   -3.7802 C   0  0  0  0  0  0  0  0  0  0  0  0
   -2.4512    2.8362   -4.8843 C   0  0  0  0  0  0  0  0  0  0  0  0
   -2.9170    1.5146   -5.0086 C   0  0  0  0  0  0  0  0  0  0  0  0
   -2.5959    0.5574   -4.0338 C   0  0  0  0  0  0  0  0  0  0  0  0
   -1.8015    0.9475   -2.9489 C   0  0  0  0  0  0  0  0  0  0  0  0
   -0.6698   -3.3604   -0.6431 N   0  0  0  0  0  0  0  0  0  0  0  0
   -0.8490   -3.7894    0.6167 C   0  0  0  0  0  0  0  0  0  0  0  0
   -0.4638   -5.0156    1.1548 C   0  0  0  0  0  0  0  0  0  0  0  0
    0.5420   -8.4287    2.7439 H   0  0  0  0  0  0  0  0  0  0  0  0
   -1.6648   -4.4554    4.3245 H   0  0  0  0  0  0  0  0  0  0  0  0
   -2.3229   -2.3023    3.2847 H   0  0  0  0  0  0  0  0  0  0  0  0
   -2.2767   -0.8623    0.8129 H   0  0  0  0  0  0  0  0  0  0  0  0
   -1.3212    1.0530    0.0279 H   0  0  0  0  0  0  0  0  0  0  0  0
    0.2769    0.5365   -0.6042 H   0  0  0  0  0  0  0  0  0  0  0  0
   -1.2256    3.2294    0.3537 H   0  0  0  0  0  0  0  0  0  0  0  0
   -1.8929    4.0793   -1.0820 H   0  0  0  0  0  0  0  0  0  0  0  0
    0.0746    5.2765   -1.4232 H   0  0  0  0  0  0  0  0  0  0  0  0
    0.2452    5.0329    0.3345 H   0  0  0  0  0  0  0  0  0  0  0  0
    1.2332    2.4519    0.8029 H   0  0  0  0  0  0  0  0  0  0  0  0
    1.7424    4.4531    1.9814 H   0  0  0  0  0  0  0  0  0  0  0  0
    2.9138    5.0097    0.7051 H   0  0  0  0  0  0  0  0  0  0  0  0
    4.4662    4.1513    2.2255 H   0  0  0  0  0  0  0  0  0  0  0  0
    3.2823    2.9779    2.9183 H   0  0  0  0  0  0  0  0  0  0  0  0
    5.0988    2.6219    0.7524 H   0  0  0  0  0  0  0  0  0  0  0  0
    2.9570    1.1876   -0.1736 H   0  0  0  0  0  0  0  0  0  0  0  0
    3.7274    2.6278   -0.9516 H   0  0  0  0  0  0  0  0  0  0  0  0
    1.5694    1.8051   -1.9573 H   0  0  0  0  0  0  0  0  0  0  0  0
    1.0067    3.1672   -2.9206 H   0  0  0  0  0  0  0  0  0  0  0  0
   -1.3089    4.2233   -3.6793 H   0  0  0  0  0  0  0  0  0  0  0  0
   -2.6995    3.5694   -5.6408 H   0  0  0  0  0  0  0  0  0  0  0  0
   -3.5273    1.2355   -5.8577 H   0  0  0  0  0  0  0  0  0  0  0  0
   -2.9693   -0.4536   -4.1222 H   0  0  0  0  0  0  0  0  0  0  0  0
   -0.2092   -3.8804   -1.4233 H   0  0  0  0  0  0  0  0  0  0  0  0
    0.0471   -5.7421    0.5353 H   0  0  0  0  0  0  0  0  0  0  0  0
  1  2  2  0
  2  3  1  0
  2  4  1  0
  4  5  2  0
  5  6  1  0
  6  7  2  0
  7  8  1  0
  8  9  2  0
  9 10  1  0
 10 11  2  0
 10 12  1  0
 12 13  1  0
 14 13  1  1
 14 15  1  0
 15 16  1  0
 16 17  1  0
 17 18  1  0
 18 19  1  0
 19 20  1  0
 20 21  1  0
 21 22  1  0
 17 23  1  0
 14 24  1  0
 24 25  2  0
 25 26  1  0
 26 27  2  0
 27 28  1  0
 28 29  2  0
  9 30  1  0
 30 31  1  0
 31 32  2  0
 32  4  1  0
 31  7  1  0
 29 12  1  0
 23 14  1  0
 29 24  1  0
 22 18  1  0
  3 33  1  0
  5 34  1  0
  6 35  1  0
  8 36  1  0
 13 37  1  0
 13 38  1  0
 15 39  1  0
 15 40  1  0
 16 41  1  0
 16 42  1  0
 18 43  1  1
 19 44  1  0
 19 45  1  0
 20 46  1  0
 20 47  1  0
 21 48  1  0
 22 49  1  0
 22 50  1  0
 23 51  1  0
 23 52  1  0
 25 53  1  0
 26 54  1  0
 27 55  1  0
 28 56  1  0
 30 57  1  0
 32 58  1  0
M  CHG  1   1  -1
M  END
>  <UniqueID>  (4) 
42

>  <SMILES>  (4) 
[N-]=C(O)c1ccc2cc(C(=O)N3C[C@]4(CCN([C@@H]5CCNC5)C4)c4ccccc43)[nH]c2c1

>  <Energy>  (4) 
126.69241895209063

>  <Genealogy>  (4) 
[NH-]C(=O)c1ccc2cc(C(=O)N3C[C@]4(CCN(C5CCNC5)C4)c4ccccc43)[nH]c2c1 (protonated)
[N-]=C(O)c1ccc2cc(C(=O)N3C[C@]4(CCN(C5CCNC5)C4)c4ccccc43)[nH]c2c1 (tautomer)
[N-]=C(O)c1ccc2cc(C(=O)N3C[C@]4(CCN([C@@H]5CCNC5)C4)c4ccccc43)[nH]c2c1 (chirality)
[N-]=C(O)c1ccc2cc(C(=O)N3C[C@]4(CCN([C@@H]5CCNC5)C4)c4ccccc43)[nH]c2c1 (3D coordinates assigned)
[N-]=C(O)c1ccc2cc(C(=O)N3C[C@]4(CCN([C@@H]5CCNC5)C4)c4ccccc43)[nH]c2c1 (nonaromatic ring conformer: 126.69241895209063 kcal/mol)

$$$$
