untitled_line_3
     RDKit          3D

 49 53  0  0  0  0  0  0  0  0999 V2000
   -0.7941    1.8186   -3.1312 O   0  0  0  0  0  0  0  0  0  0  0  0
    0.3449    1.0516   -2.5208 S   0  0  0  0  0  0  0  0  0  0  0  0
    1.3292    0.7273   -3.6098 O   0  0  0  0  0  0  0  0  0  0  0  0
    1.1335    2.0717   -1.2829 C   0  0  0  0  0  0  0  0  0  0  0  0
    2.2258    1.3145   -0.5800 C   0  0  0  0  0  0  0  0  0  0  0  0
    2.0197    0.8039    0.7120 C   0  0  0  0  0  0  0  0  0  0  0  0
    3.0200    0.0602    1.3446 C   0  0  0  0  0  0  0  0  0  0  0  0
    4.2347   -0.1745    0.6951 C   0  0  0  0  0  0  0  0  0  0  0  0
    4.4522    0.3382   -0.5867 C   0  0  0  0  0  0  0  0  0  0  0  0
    3.4532    1.0812   -1.2231 C   0  0  0  0  0  0  0  0  0  0  0  0
   -0.2470   -0.4286   -1.8237 N   0  0  0  0  0  0  0  0  0  0  0  0
    0.6683   -1.5247   -1.6591 C   0  0  0  0  0  0  0  0  0  0  0  0
    0.2215   -2.7536   -1.4056 C   0  0  0  0  0  0  0  0  0  0  0  0
   -1.2241   -3.0161   -1.3100 C   0  0  0  0  0  0  0  0  0  0  0  0
   -1.6979   -4.3330   -1.2183 C   0  0  0  0  0  0  0  0  0  0  0  0
   -3.0714   -4.5818   -1.1503 C   0  0  0  0  0  0  0  0  0  0  0  0
   -3.9780   -3.5192   -1.1696 C   0  0  0  0  0  0  0  0  0  0  0  0
   -3.5144   -2.2037   -1.2539 C   0  0  0  0  0  0  0  0  0  0  0  0
   -2.1363   -1.9420   -1.3309 C   0  0  0  0  0  0  0  0  0  0  0  0
   -1.6342   -0.5131   -1.3355 C   0  0  1  0  0  0  0  0  0  0  0  0
   -1.7171    0.0628    0.0546 C   0  0  0  0  0  0  0  0  0  0  0  0
   -1.2658   -0.5328    1.2321 C   0  0  0  0  0  0  0  0  0  0  0  0
   -1.4387    0.3007    2.2821 N   0  0  0  0  0  0  0  0  0  0  0  0
   -1.9836    1.4216    1.7803 C   0  0  0  0  0  0  0  0  0  0  0  0
   -2.3201    2.5800    2.4790 C   0  0  0  0  0  0  0  0  0  0  0  0
   -2.8643    3.6529    1.7506 C   0  0  0  0  0  0  0  0  0  0  0  0
   -3.0568    3.5456    0.3558 C   0  0  0  0  0  0  0  0  0  0  0  0
   -2.7065    2.3651   -0.3237 C   0  0  0  0  0  0  0  0  0  0  0  0
   -2.1683    1.3166    0.4246 C   0  0  0  0  0  0  0  0  0  0  0  0
    1.5597    2.9713   -1.7755 H   0  0  0  0  0  0  0  0  0  0  0  0
    0.3666    2.4205   -0.5597 H   0  0  0  0  0  0  0  0  0  0  0  0
    1.0894    0.9853    1.2309 H   0  0  0  0  0  0  0  0  0  0  0  0
    2.8535   -0.3333    2.3390 H   0  0  0  0  0  0  0  0  0  0  0  0
    5.0082   -0.7509    1.1858 H   0  0  0  0  0  0  0  0  0  0  0  0
    5.3940    0.1575   -1.0884 H   0  0  0  0  0  0  0  0  0  0  0  0
    3.6327    1.4682   -2.2184 H   0  0  0  0  0  0  0  0  0  0  0  0
    1.7316   -1.3669   -1.7882 H   0  0  0  0  0  0  0  0  0  0  0  0
    0.9293   -3.5689   -1.3168 H   0  0  0  0  0  0  0  0  0  0  0  0
   -1.0061   -5.1663   -1.2048 H   0  0  0  0  0  0  0  0  0  0  0  0
   -3.4335   -5.5994   -1.0815 H   0  0  0  0  0  0  0  0  0  0  0  0
   -5.0409   -3.7148   -1.1112 H   0  0  0  0  0  0  0  0  0  0  0  0
   -4.2263   -1.3875   -1.2477 H   0  0  0  0  0  0  0  0  0  0  0  0
   -2.2921    0.0661   -2.0169 H   0  0  0  0  0  0  0  0  0  0  0  0
   -0.8186   -1.5149    1.3121 H   0  0  0  0  0  0  0  0  0  0  0  0
   -1.1797    0.1149    3.2764 H   0  0  0  0  0  0  0  0  0  0  0  0
   -2.1648    2.6542    3.5475 H   0  0  0  0  0  0  0  0  0  0  0  0
   -3.1360    4.5669    2.2623 H   0  0  0  0  0  0  0  0  0  0  0  0
   -3.4759    4.3778   -0.1945 H   0  0  0  0  0  0  0  0  0  0  0  0
   -2.8541    2.2825   -1.3914 H   0  0  0  0  0  0  0  0  0  0  0  0
  1  2  2  0
  2  3  2  0
  2  4  1  0
  4  5  1  0
  5  6  2  0
  6  7  1  0
  7  8  2  0
  8  9  1  0
  9 10  2  0
  2 11  1  0
 11 12  1  0
 12 13  2  0
 13 14  1  0
 14 15  2  0
 15 16  1  0
 16 17  2  0
 17 18  1  0
 18 19  2  0
 19 20  1  0
 20 21  1  0
 21 22  2  0
 22 23  1  0
 23 24  1  0
 24 25  2  0
 25 26  1  0
 26 27  2  0
 27 28  1  0
 28 29  2  0
 10  5  1  0
 20 11  1  0
 29 21  1  0
 19 14  1  0
 29 24  1  0
  4 30  1  0
  4 31  1  0
  6 32  1  0
  7 33  1  0
  8 34  1  0
  9 35  1  0
 10 36  1  0
 12 37  1  0
 13 38  1  0
 15 39  1  0
 16 40  1  0
 17 41  1  0
 18 42  1  0
 20 43  1  6
 22 44  1  0
 23 45  1  0
 25 46  1  0
 26 47  1  0
 27 48  1  0
 28 49  1  0
M  END
>  <UniqueID>  (1) 
9

>  <SMILES>  (1) 
O=S(=O)(Cc1ccccc1)N1C=Cc2ccccc2[C@H]1c1c[nH]c2ccccc12

>  <Energy>  (1) 
80.77211647437433

>  <Genealogy>  (1) 
O=S(=O)(Cc1ccccc1)N1C=Cc2ccccc2[C@H]1c1c[nH]c2ccccc12 (chirality)
O=S(=O)(Cc1ccccc1)N1C=Cc2ccccc2[C@H]1c1c[nH]c2ccccc12 (3D coordinates assigned)
O=S(=O)(Cc1ccccc1)N1C=Cc2ccccc2[C@H]1c1c[nH]c2ccccc12 (nonaromatic ring conformer: 80.77211647437433 kcal/mol)

$$$$
untitled_line_3
     RDKit          3D

 49 53  0  0  0  0  0  0  0  0999 V2000
   -0.6168    2.2203   -2.9335 O   0  0  0  0  0  0  0  0  0  0  0  0
   -1.6765    1.1911   -2.6563 S   0  0  0  0  0  0  0  0  0  0  0  0
   -3.0257    1.8402   -2.7917 O   0  0  0  0  0  0  0  0  0  0  0  0
   -1.5371   -0.1479   -3.8300 C   0  0  0  0  0  0  0  0  0  0  0  0
   -2.1398   -1.3997   -3.2554 C   0  0  0  0  0  0  0  0  0  0  0  0
   -1.3311   -2.3307   -2.5806 C   0  0  0  0  0  0  0  0  0  0  0  0
   -1.9056   -3.4433   -1.9593 C   0  0  0  0  0  0  0  0  0  0  0  0
   -3.2887   -3.6356   -2.0077 C   0  0  0  0  0  0  0  0  0  0  0  0
   -4.0999   -2.7144   -2.6763 C   0  0  0  0  0  0  0  0  0  0  0  0
   -3.5299   -1.5973   -3.2948 C   0  0  0  0  0  0  0  0  0  0  0  0
   -1.4777    0.5660   -1.0477 N   0  0  0  0  0  0  0  0  0  0  0  0
   -2.6439    0.2311   -0.2768 C   0  0  0  0  0  0  0  0  0  0  0  0
   -2.5608   -0.6163    0.7470 C   0  0  0  0  0  0  0  0  0  0  0  0
   -1.2736   -1.2397    1.0959 C   0  0  0  0  0  0  0  0  0  0  0  0
   -1.2246   -2.2687    2.0475 C   0  0  0  0  0  0  0  0  0  0  0  0
   -0.0085   -2.8856    2.3526 C   0  0  0  0  0  0  0  0  0  0  0  0
    1.1641   -2.4782    1.7123 C   0  0  0  0  0  0  0  0  0  0  0  0
    1.1256   -1.4504    0.7667 C   0  0  0  0  0  0  0  0  0  0  0  0
   -0.0918   -0.8263    0.4484 C   0  0  0  0  0  0  0  0  0  0  0  0
   -0.1199    0.3202   -0.5380 C   0  0  2  0  0  0  0  0  0  0  0  0
    0.4119    1.5681    0.1142 C   0  0  0  0  0  0  0  0  0  0  0  0
   -0.2311    2.3446    1.0765 C   0  0  0  0  0  0  0  0  0  0  0  0
    0.5672    3.3595    1.4768 N   0  0  0  0  0  0  0  0  0  0  0  0
    1.7120    3.2269    0.7856 C   0  0  0  0  0  0  0  0  0  0  0  0
    2.8456    4.0342    0.8695 C   0  0  0  0  0  0  0  0  0  0  0  0
    3.9490    3.7048    0.0617 C   0  0  0  0  0  0  0  0  0  0  0  0
    3.8966    2.5870   -0.7996 C   0  0  0  0  0  0  0  0  0  0  0  0
    2.7401    1.7887   -0.8627 C   0  0  0  0  0  0  0  0  0  0  0  0
    1.6588    2.1422   -0.0530 C   0  0  0  0  0  0  0  0  0  0  0  0
   -0.4641   -0.3096   -4.0686 H   0  0  0  0  0  0  0  0  0  0  0  0
   -2.0542    0.1326   -4.7722 H   0  0  0  0  0  0  0  0  0  0  0  0
   -0.2600   -2.1847   -2.5179 H   0  0  0  0  0  0  0  0  0  0  0  0
   -1.2790   -4.1513   -1.4324 H   0  0  0  0  0  0  0  0  0  0  0  0
   -3.7324   -4.4955   -1.5230 H   0  0  0  0  0  0  0  0  0  0  0  0
   -5.1718   -2.8606   -2.7067 H   0  0  0  0  0  0  0  0  0  0  0  0
   -4.1712   -0.8784   -3.7895 H   0  0  0  0  0  0  0  0  0  0  0  0
   -3.6133    0.6198   -0.5606 H   0  0  0  0  0  0  0  0  0  0  0  0
   -3.4595   -0.8850    1.2887 H   0  0  0  0  0  0  0  0  0  0  0  0
   -2.1273   -2.5991    2.5465 H   0  0  0  0  0  0  0  0  0  0  0  0
    0.0248   -3.6814    3.0854 H   0  0  0  0  0  0  0  0  0  0  0  0
    2.1049   -2.9563    1.9525 H   0  0  0  0  0  0  0  0  0  0  0  0
    2.0436   -1.1361    0.2859 H   0  0  0  0  0  0  0  0  0  0  0  0
    0.5301    0.0483   -1.3971 H   0  0  0  0  0  0  0  0  0  0  0  0
   -1.2241    2.1699    1.4691 H   0  0  0  0  0  0  0  0  0  0  0  0
    0.3405    4.0894    2.1885 H   0  0  0  0  0  0  0  0  0  0  0  0
    2.8781    4.8861    1.5362 H   0  0  0  0  0  0  0  0  0  0  0  0
    4.8448    4.3107    0.1027 H   0  0  0  0  0  0  0  0  0  0  0  0
    4.7526    2.3416   -1.4146 H   0  0  0  0  0  0  0  0  0  0  0  0
    2.7004    0.9302   -1.5194 H   0  0  0  0  0  0  0  0  0  0  0  0
  1  2  2  0
  2  3  2  0
  2  4  1  0
  4  5  1  0
  5  6  2  0
  6  7  1  0
  7  8  2  0
  8  9  1  0
  9 10  2  0
  2 11  1  0
 11 12  1  0
 12 13  2  0
 13 14  1  0
 14 15  2  0
 15 16  1  0
 16 17  2  0
 17 18  1  0
 18 19  2  0
 19 20  1  0
 20 21  1  0
 21 22  2  0
 22 23  1  0
 23 24  1  0
 24 25  2  0
 25 26  1  0
 26 27  2  0
 27 28  1  0
 28 29  2  0
 10  5  1  0
 20 11  1  0
 29 21  1  0
 19 14  1  0
 29 24  1  0
  4 30  1  0
  4 31  1  0
  6 32  1  0
  7 33  1  0
  8 34  1  0
  9 35  1  0
 10 36  1  0
 12 37  1  0
 13 38  1  0
 15 39  1  0
 16 40  1  0
 17 41  1  0
 18 42  1  0
 20 43  1  6
 22 44  1  0
 23 45  1  0
 25 46  1  0
 26 47  1  0
 27 48  1  0
 28 49  1  0
M  END
>  <UniqueID>  (2) 
10

>  <SMILES>  (2) 
O=S(=O)(Cc1ccccc1)N1C=Cc2ccccc2[C@@H]1c1c[nH]c2ccccc12

>  <Energy>  (2) 
80.99040872977264

>  <Genealogy>  (2) 
O=S(=O)(Cc1ccccc1)N1C=Cc2ccccc2[C@@H]1c1c[nH]c2ccccc12 (chirality)
O=S(=O)(Cc1ccccc1)N1C=Cc2ccccc2[C@@H]1c1c[nH]c2ccccc12 (3D coordinates assigned)
O=S(=O)(Cc1ccccc1)N1C=Cc2ccccc2[C@@H]1c1c[nH]c2ccccc12 (nonaromatic ring conformer: 80.99040872977264 kcal/mol)

$$$$
untitled_line_3
     RDKit          3D

 49 53  0  0  0  0  0  0  0  0999 V2000
   -0.1924    2.2280   -2.6846 O   0  0  0  0  0  0  0  0  0  0  0  0
    0.8590    1.6427   -1.7846 S   0  0  0  0  0  0  0  0  0  0  0  0
    1.5309    2.7644   -1.0424 O   0  0  0  0  0  0  0  0  0  0  0  0
    2.0659    0.7702   -2.7692 C   0  0  0  0  0  0  0  0  0  0  0  0
    2.8703   -0.1547   -1.8992 C   0  0  0  0  0  0  0  0  0  0  0  0
    2.4793   -1.4952   -1.7375 C   0  0  0  0  0  0  0  0  0  0  0  0
    3.1776   -2.3318   -0.8621 C   0  0  0  0  0  0  0  0  0  0  0  0
    4.2686   -1.8378   -0.1422 C   0  0  0  0  0  0  0  0  0  0  0  0
    4.6617   -0.5053   -0.2950 C   0  0  0  0  0  0  0  0  0  0  0  0
    3.9635    0.3362   -1.1666 C   0  0  0  0  0  0  0  0  0  0  0  0
    0.1296    0.5389   -0.6552 N   0  0  0  0  0  0  0  0  0  0  0  0
    0.7342    0.3999    0.6421 C   0  0  0  0  0  0  0  0  0  0  0  0
    0.4562   -0.6370    1.4269 C   0  0  0  0  0  0  0  0  0  0  0  0
   -0.4938   -1.6717    0.9973 C   0  0  0  0  0  0  0  0  0  0  0  0
   -0.7180   -2.7944    1.8080 C   0  0  0  0  0  0  0  0  0  0  0  0
   -1.6058   -3.7919    1.3982 C   0  0  0  0  0  0  0  0  0  0  0  0
   -2.2727   -3.6762    0.1773 C   0  0  0  0  0  0  0  0  0  0  0  0
   -2.0569   -2.5606   -0.6353 C   0  0  0  0  0  0  0  0  0  0  0  0
   -1.1720   -1.5456   -0.2309 C   0  0  0  0  0  0  0  0  0  0  0  0
   -0.9606   -0.3371   -1.1205 C   0  0  1  0  0  0  0  0  0  0  0  0
   -2.2401    0.4489   -1.2582 C   0  0  0  0  0  0  0  0  0  0  0  0
   -2.9622    0.6224   -2.4365 C   0  0  0  0  0  0  0  0  0  0  0  0
   -4.0631    1.3737   -2.2137 N   0  0  0  0  0  0  0  0  0  0  0  0
   -4.0486    1.6750   -0.9046 C   0  0  0  0  0  0  0  0  0  0  0  0
   -4.9894    2.4297   -0.2051 C   0  0  0  0  0  0  0  0  0  0  0  0
   -4.7877    2.6191    1.1734 C   0  0  0  0  0  0  0  0  0  0  0  0
   -3.6643    2.0545    1.8151 C   0  0  0  0  0  0  0  0  0  0  0  0
   -2.7314    1.2970    1.0844 C   0  0  0  0  0  0  0  0  0  0  0  0
   -2.9531    1.1280   -0.2835 C   0  0  0  0  0  0  0  0  0  0  0  0
    1.5392    0.1958   -3.5610 H   0  0  0  0  0  0  0  0  0  0  0  0
    2.7310    1.5050   -3.2709 H   0  0  0  0  0  0  0  0  0  0  0  0
    1.6253   -1.8873   -2.2754 H   0  0  0  0  0  0  0  0  0  0  0  0
    2.8681   -3.3613   -0.7364 H   0  0  0  0  0  0  0  0  0  0  0  0
    4.8065   -2.4860    0.5373 H   0  0  0  0  0  0  0  0  0  0  0  0
    5.5025   -0.1220    0.2685 H   0  0  0  0  0  0  0  0  0  0  0  0
    4.2655    1.3719   -1.2613 H   0  0  0  0  0  0  0  0  0  0  0  0
    1.4681    1.1221    0.9764 H   0  0  0  0  0  0  0  0  0  0  0  0
    0.9538   -0.7231    2.3853 H   0  0  0  0  0  0  0  0  0  0  0  0
   -0.2027   -2.9006    2.7549 H   0  0  0  0  0  0  0  0  0  0  0  0
   -1.7745   -4.6571    2.0263 H   0  0  0  0  0  0  0  0  0  0  0  0
   -2.9581   -4.4515   -0.1398 H   0  0  0  0  0  0  0  0  0  0  0  0
   -2.5822   -2.4837   -1.5793 H   0  0  0  0  0  0  0  0  0  0  0  0
   -0.6779   -0.7253   -2.1241 H   0  0  0  0  0  0  0  0  0  0  0  0
   -2.6939    0.2199   -3.4046 H   0  0  0  0  0  0  0  0  0  0  0  0
   -4.7793    1.6573   -2.9188 H   0  0  0  0  0  0  0  0  0  0  0  0
   -5.8493    2.8557   -0.7056 H   0  0  0  0  0  0  0  0  0  0  0  0
   -5.4993    3.1994    1.7461 H   0  0  0  0  0  0  0  0  0  0  0  0
   -3.5204    2.2039    2.8773 H   0  0  0  0  0  0  0  0  0  0  0  0
   -1.8776    0.8619    1.5791 H   0  0  0  0  0  0  0  0  0  0  0  0
  1  2  2  0
  2  3  2  0
  2  4  1  0
  4  5  1  0
  5  6  2  0
  6  7  1  0
  7  8  2  0
  8  9  1  0
  9 10  2  0
  2 11  1  0
 11 12  1  0
 12 13  2  0
 13 14  1  0
 14 15  2  0
 15 16  1  0
 16 17  2  0
 17 18  1  0
 18 19  2  0
 19 20  1  0
 20 21  1  0
 21 22  2  0
 22 23  1  0
 23 24  1  0
 24 25  2  0
 25 26  1  0
 26 27  2  0
 27 28  1  0
 28 29  2  0
 10  5  1  0
 20 11  1  0
 29 21  1  0
 19 14  1  0
 29 24  1  0
  4 30  1  0
  4 31  1  0
  6 32  1  0
  7 33  1  0
  8 34  1  0
  9 35  1  0
 10 36  1  0
 12 37  1  0
 13 38  1  0
 15 39  1  0
 16 40  1  0
 17 41  1  0
 18 42  1  0
 20 43  1  6
 22 44  1  0
 23 45  1  0
 25 46  1  0
 26 47  1  0
 27 48  1  0
 28 49  1  0
M  END
>  <UniqueID>  (3) 
11

>  <SMILES>  (3) 
O=S(=O)(Cc1ccccc1)N1C=Cc2ccccc2[C@H]1c1c[nH]c2ccccc12

>  <Energy>  (3) 
81.94943563243723

>  <Genealogy>  (3) 
O=S(=O)(Cc1ccccc1)N1C=Cc2ccccc2[C@H]1c1c[nH]c2ccccc12 (chirality)
O=S(=O)(Cc1ccccc1)N1C=Cc2ccccc2[C@H]1c1c[nH]c2ccccc12 (3D coordinates assigned)
O=S(=O)(Cc1ccccc1)N1C=Cc2ccccc2[C@H]1c1c[nH]c2ccccc12 (nonaromatic ring conformer: 81.94943563243723 kcal/mol)

$$$$
untitled_line_3
     RDKit          3D

 49 53  0  0  0  0  0  0  0  0999 V2000
    0.8338    0.3610   -3.5247 O   0  0  0  0  0  0  0  0  0  0  0  0
   -0.6129    0.2232   -3.1423 S   0  0  0  0  0  0  0  0  0  0  0  0
   -1.3841    1.3465   -3.7776 O   0  0  0  0  0  0  0  0  0  0  0  0
   -1.2380   -1.3408   -3.7343 C   0  0  0  0  0  0  0  0  0  0  0  0
   -2.5180   -1.6863   -3.0261 C   0  0  0  0  0  0  0  0  0  0  0  0
   -2.4946   -2.4791   -1.8655 C   0  0  0  0  0  0  0  0  0  0  0  0
   -3.6749   -2.7291   -1.1595 C   0  0  0  0  0  0  0  0  0  0  0  0
   -4.8847   -2.1902   -1.6050 C   0  0  0  0  0  0  0  0  0  0  0  0
   -4.9158   -1.3982   -2.7561 C   0  0  0  0  0  0  0  0  0  0  0  0
   -3.7369   -1.1423   -3.4632 C   0  0  0  0  0  0  0  0  0  0  0  0
   -0.7814    0.2936   -1.4123 N   0  0  0  0  0  0  0  0  0  0  0  0
   -1.9939    0.8467   -0.8722 C   0  0  0  0  0  0  0  0  0  0  0  0
   -2.3452    0.6381    0.3932 C   0  0  0  0  0  0  0  0  0  0  0  0
   -1.4939   -0.1562    1.2887 C   0  0  0  0  0  0  0  0  0  0  0  0
   -1.9178   -0.4259    2.5986 C   0  0  0  0  0  0  0  0  0  0  0  0
   -1.1227   -1.1960    3.4506 C   0  0  0  0  0  0  0  0  0  0  0  0
    0.0976   -1.7029    3.0004 C   0  0  0  0  0  0  0  0  0  0  0  0
    0.5283   -1.4376    1.6983 C   0  0  0  0  0  0  0  0  0  0  0  0
   -0.2587   -0.6572    0.8331 C   0  0  0  0  0  0  0  0  0  0  0  0
    0.2313   -0.3700   -0.5718 C   0  0  2  0  0  0  0  0  0  0  0  0
    1.4971    0.4489   -0.5337 C   0  0  0  0  0  0  0  0  0  0  0  0
    2.7501    0.0253   -0.9699 C   0  0  0  0  0  0  0  0  0  0  0  0
    3.6707    0.9980   -0.7895 N   0  0  0  0  0  0  0  0  0  0  0  0
    3.0145    2.0331   -0.2392 C   0  0  0  0  0  0  0  0  0  0  0  0
    3.5500    3.2648    0.1347 C   0  0  0  0  0  0  0  0  0  0  0  0
    2.6831    4.2131    0.7058 C   0  0  0  0  0  0  0  0  0  0  0  0
    1.3165    3.9116    0.8905 C   0  0  0  0  0  0  0  0  0  0  0  0
    0.8037    2.6603    0.5043 C   0  0  0  0  0  0  0  0  0  0  0  0
    1.6849    1.7388   -0.0641 C   0  0  0  0  0  0  0  0  0  0  0  0
   -0.4731   -2.1266   -3.5559 H   0  0  0  0  0  0  0  0  0  0  0  0
   -1.4076   -1.2772   -4.8303 H   0  0  0  0  0  0  0  0  0  0  0  0
   -1.5620   -2.8891   -1.4987 H   0  0  0  0  0  0  0  0  0  0  0  0
   -3.6501   -3.3348   -0.2629 H   0  0  0  0  0  0  0  0  0  0  0  0
   -5.7972   -2.3824   -1.0557 H   0  0  0  0  0  0  0  0  0  0  0  0
   -5.8524   -0.9756   -3.0960 H   0  0  0  0  0  0  0  0  0  0  0  0
   -3.7709   -0.5109   -4.3424 H   0  0  0  0  0  0  0  0  0  0  0  0
   -2.6653    1.4046   -1.5123 H   0  0  0  0  0  0  0  0  0  0  0  0
   -3.2809    1.0461    0.7563 H   0  0  0  0  0  0  0  0  0  0  0  0
   -2.8652   -0.0444    2.9594 H   0  0  0  0  0  0  0  0  0  0  0  0
   -1.4545   -1.4027    4.4599 H   0  0  0  0  0  0  0  0  0  0  0  0
    0.7109   -2.3017    3.6612 H   0  0  0  0  0  0  0  0  0  0  0  0
    1.4778   -1.8364    1.3631 H   0  0  0  0  0  0  0  0  0  0  0  0
    0.4643   -1.3540   -1.0358 H   0  0  0  0  0  0  0  0  0  0  0  0
    2.9739   -0.9436   -1.3971 H   0  0  0  0  0  0  0  0  0  0  0  0
    4.6862    0.9492   -1.0280 H   0  0  0  0  0  0  0  0  0  0  0  0
    4.6000    3.4853   -0.0080 H   0  0  0  0  0  0  0  0  0  0  0  0
    3.0666    5.1790    1.0075 H   0  0  0  0  0  0  0  0  0  0  0  0
    0.6588    4.6477    1.3340 H   0  0  0  0  0  0  0  0  0  0  0  0
   -0.2396    2.4309    0.6526 H   0  0  0  0  0  0  0  0  0  0  0  0
  1  2  2  0
  2  3  2  0
  2  4  1  0
  4  5  1  0
  5  6  2  0
  6  7  1  0
  7  8  2  0
  8  9  1  0
  9 10  2  0
  2 11  1  0
 11 12  1  0
 12 13  2  0
 13 14  1  0
 14 15  2  0
 15 16  1  0
 16 17  2  0
 17 18  1  0
 18 19  2  0
 19 20  1  0
 20 21  1  0
 21 22  2  0
 22 23  1  0
 23 24  1  0
 24 25  2  0
 25 26  1  0
 26 27  2  0
 27 28  1  0
 28 29  2  0
 10  5  1  0
 20 11  1  0
 29 21  1  0
 19 14  1  0
 29 24  1  0
  4 30  1  0
  4 31  1  0
  6 32  1  0
  7 33  1  0
  8 34  1  0
  9 35  1  0
 10 36  1  0
 12 37  1  0
 13 38  1  0
 15 39  1  0
 16 40  1  0
 17 41  1  0
 18 42  1  0
 20 43  1  6
 22 44  1  0
 23 45  1  0
 25 46  1  0
 26 47  1  0
 27 48  1  0
 28 49  1  0
M  END
>  <UniqueID>  (4) 
12

>  <SMILES>  (4) 
O=S(=O)(Cc1ccccc1)N1C=Cc2ccccc2[C@@H]1c1c[nH]c2ccccc12

>  <Energy>  (4) 
81.94943632999747

>  <Genealogy>  (4) 
O=S(=O)(Cc1ccccc1)N1C=Cc2ccccc2[C@@H]1c1c[nH]c2ccccc12 (chirality)
O=S(=O)(Cc1ccccc1)N1C=Cc2ccccc2[C@@H]1c1c[nH]c2ccccc12 (3D coordinates assigned)
O=S(=O)(Cc1ccccc1)N1C=Cc2ccccc2[C@@H]1c1c[nH]c2ccccc12 (nonaromatic ring conformer: 81.94943632999747 kcal/mol)

$$$$
