untitled_line_7
     RDKit          3D

 43 46  0  0  0  0  0  0  0  0999 V2000
    1.6786    0.4387   -0.0259 H   0  0  0  0  0  0  0  0  0  0  0  0
    1.9924    0.2412   -1.0466 C   0  0  0  0  0  0  0  0  0  0  0  0
    1.1624    0.5577   -2.0341 C   0  0  0  0  0  0  0  0  0  0  0  0
    1.4006    0.2860   -3.0535 H   0  0  0  0  0  0  0  0  0  0  0  0
   -0.1476    1.1725   -1.7622 C   0  0  0  0  0  0  0  0  0  0  0  0
   -0.1680    2.4450   -1.2903 N   0  0  0  0  0  0  0  0  0  0  0  0
   -1.3282    3.0858   -1.0246 C   0  0  0  0  0  0  0  0  0  0  0  0
   -1.3072    4.4063   -0.5649 C   0  0  0  0  0  0  0  0  0  0  0  0
   -0.3626    4.9192   -0.4196 H   0  0  0  0  0  0  0  0  0  0  0  0
   -2.5063    5.0716   -0.2967 C   0  0  0  0  0  0  0  0  0  0  0  0
   -2.4909    6.0927    0.0512 H   0  0  0  0  0  0  0  0  0  0  0  0
   -3.7277    4.4181   -0.4786 C   0  0  0  0  0  0  0  0  0  0  0  0
   -4.6538    4.9361   -0.2657 H   0  0  0  0  0  0  0  0  0  0  0  0
   -3.7555    3.0989   -0.9352 C   0  0  0  0  0  0  0  0  0  0  0  0
   -4.7153    2.6130   -1.0690 H   0  0  0  0  0  0  0  0  0  0  0  0
   -2.5523    2.4233   -1.2190 C   0  0  0  0  0  0  0  0  0  0  0  0
   -2.5249    1.1005   -1.6964 C   0  0  0  0  0  0  0  0  0  0  0  0
   -3.6131    0.4795   -1.8620 O   0  0  0  0  0  0  0  0  0  0  0  0
   -1.3250    0.4876   -1.9765 N   0  0  0  0  0  0  0  0  0  0  0  0
   -1.2988   -0.9102   -2.4713 C   0  0  0  0  0  0  0  0  0  0  0  0
   -2.3083   -1.2787   -2.7354 H   0  0  0  0  0  0  0  0  0  0  0  0
   -0.7209   -0.9543   -3.4115 H   0  0  0  0  0  0  0  0  0  0  0  0
   -0.7198   -1.8451   -1.4354 C   0  0  0  0  0  0  0  0  0  0  0  0
   -1.2477   -1.8740   -0.1335 C   0  0  0  0  0  0  0  0  0  0  0  0
   -2.0692   -1.2167    0.1436 H   0  0  0  0  0  0  0  0  0  0  0  0
   -0.6938   -2.7253    0.8307 C   0  0  0  0  0  0  0  0  0  0  0  0
   -1.0931   -2.7283    1.8355 H   0  0  0  0  0  0  0  0  0  0  0  0
    0.3721   -3.5649    0.4986 C   0  0  0  0  0  0  0  0  0  0  0  0
    1.0638   -4.6138    1.7137 Cl  0  0  0  0  0  0  0  0  0  0  0  0
    0.8949   -3.5488   -0.7979 C   0  0  0  0  0  0  0  0  0  0  0  0
    1.7426   -4.1664   -1.0513 H   0  0  0  0  0  0  0  0  0  0  0  0
    0.3406   -2.7080   -1.7665 C   0  0  0  0  0  0  0  0  0  0  0  0
    0.7562   -2.7073   -2.7642 H   0  0  0  0  0  0  0  0  0  0  0  0
    3.2684   -0.4661   -1.2647 C   0  0  0  0  0  0  0  0  0  0  0  0
    4.0651   -0.2234   -2.3934 C   0  0  0  0  0  0  0  0  0  0  0  0
    3.7642    0.4970   -3.1448 H   0  0  0  0  0  0  0  0  0  0  0  0
    5.2491   -0.8715   -2.5500 N   0  0  0  0  0  0  0  0  0  0  0  0
    5.6912   -1.7709   -1.6294 C   0  0  0  0  0  0  0  0  0  0  0  0
    6.6416   -2.2647   -1.7863 H   0  0  0  0  0  0  0  0  0  0  0  0
    4.9255   -2.0551   -0.4995 C   0  0  0  0  0  0  0  0  0  0  0  0
    5.2746   -2.7731    0.2295 H   0  0  0  0  0  0  0  0  0  0  0  0
    3.7181   -1.3879   -0.3066 C   0  0  0  0  0  0  0  0  0  0  0  0
    3.1292   -1.6027    0.5688 H   0  0  0  0  0  0  0  0  0  0  0  0
  1  2  1  0
  2  3  2  0
  3  4  1  0
  3  5  1  0
  5  6  2  0
  6  7  1  0
  7  8  2  0
  8  9  1  0
  8 10  1  0
 10 11  1  0
 10 12  2  0
 12 13  1  0
 12 14  1  0
 14 15  1  0
 14 16  2  0
 16 17  1  0
 17 18  2  0
 17 19  1  0
 19 20  1  0
 20 21  1  0
 20 22  1  0
 20 23  1  0
 23 24  2  0
 24 25  1  0
 24 26  1  0
 26 27  1  0
 26 28  2  0
 28 29  1  0
 28 30  1  0
 30 31  1  0
 30 32  2  0
 32 33  1  0
  2 34  1  0
 34 35  2  0
 35 36  1  0
 35 37  1  0
 37 38  2  0
 38 39  1  0
 38 40  1  0
 40 41  1  0
 40 42  2  0
 42 43  1  0
 19  5  1  0
 32 23  1  0
 42 34  1  0
 16  7  1  0
M  END
>  <UniqueID>  (1) 
22

>  <SMILES>  (1) 
O=c1c2ccccc2nc(/C=C/c2cccnc2)n1Cc1ccc(Cl)cc1

>  <Energy>  (1) 
63.45748076876795

>  <Genealogy>  (1) 
O=c1c2ccccc2nc(/C=C/c2cccnc2)n1Cc1ccc(Cl)cc1 (cis-trans isomerization)
O=c1c2ccccc2nc(/C=C/c2cccnc2)n1Cc1ccc(Cl)cc1 (3D coordinates assigned)
O=c1c2ccccc2nc(/C=C/c2cccnc2)n1Cc1ccc(Cl)cc1 (optimized conformer: 63.45748076876795 kcal/mol)

$$$$
